MTUVCRSRZGPGQU-JVPWBLRANA-P
     RDKit          3D

 73 77  0  0  0  0  0  0  0  0999 V2000
  141.3604   68.3774  228.0869 H   0  0  0  0  0  0  0  0  0  0  0  0
  140.7460   68.6620  227.2200 C   0  0  0  0  0  0  0  0  0  0  0  0
  139.7290   67.8130  226.7790 C   0  0  0  0  0  0  0  0  0  0  0  0
  139.5385   66.8652  227.3037 H   0  0  0  0  0  0  0  0  0  0  0  0
  138.9530   68.1660  225.6720 C   0  0  0  0  0  0  0  0  0  0  0  0
  138.1434   67.5029  225.3332 H   0  0  0  0  0  0  0  0  0  0  0  0
  139.2080   69.3690  224.9920 C   0  0  0  0  0  0  0  0  0  0  0  0
  140.2260   70.2240  225.4370 C   0  0  0  0  0  0  0  0  0  0  0  0
  140.9860   69.8730  226.5630 C   0  0  0  0  0  0  0  0  0  0  0  0
  141.7711   70.5508  226.9292 H   0  0  0  0  0  0  0  0  0  0  0  0
  140.4640   71.5270  224.7180 C   0  0  0  0  0  0  0  0  0  0  0  0
  141.5052   71.8422  224.8813 H   0  0  0  0  0  0  0  0  0  0  0  0
  139.7652   72.2776  225.1158 H   0  0  0  0  0  0  0  0  0  0  0  0
  140.2250   71.3870  223.2690 N   0  0  0  0  0  0  0  0  0  0  0  0
  140.9180   72.2530  222.3520 C   0  0  0  0  0  0  0  0  0  0  0  0
  141.8290   71.7470  221.4820 N   0  0  0  0  0  0  0  0  0  0  0  0
  142.4790   72.5510  220.5970 C   0  0  0  0  0  0  0  0  0  0  0  0
  143.4530   71.9690  219.6930 N   0  0  0  0  0  0  0  0  0  0  0  0
  144.1610   72.8970  218.7870 C   0  0  0  0  0  0  0  0  0  0  0  0
  143.4116   73.4576  218.2089 H   0  0  0  0  0  0  0  0  0  0  0  0
  144.7803   73.5522  219.4172 H   0  0  0  0  0  0  0  0  0  0  0  0
  145.1020   72.1990  217.8080 C   0  0  0  0  0  0  0  0  0  0  0  0
  144.5160   71.7805  216.9764 H   0  0  0  0  0  0  0  0  0  0  0  0
  145.8284   72.9307  217.4247 H   0  0  0  0  0  0  0  0  0  0  0  0
  145.8210   71.1220  218.4810 N   0  0  0  0  0  0  0  0  0  0  0  0
  146.5130   70.7230  217.8010 H   0  0  0  0  0  0  0  0  0  0  0  0
  144.8700   70.0660  218.8150 C   0  0  0  0  0  0  0  0  0  0  0  0
  144.3380   69.7592  217.9024 H   0  0  0  0  0  0  0  0  0  0  0  0
  145.4245   69.2172  219.2417 H   0  0  0  0  0  0  0  0  0  0  0  0
  143.8490   70.5530  219.8510 C   0  0  0  0  0  0  0  0  0  0  0  0
  142.9461   69.9306  219.7644 H   0  0  0  0  0  0  0  0  0  0  0  0
  144.3326   70.4681  220.8353 H   0  0  0  0  0  0  0  0  0  0  0  0
  142.1940   73.8880  220.5850 N   0  0  0  0  0  0  0  0  0  0  0  0
  142.6690   74.5330  219.9180 H   0  0  0  0  0  0  0  0  0  0  0  0
  141.2930   74.4100  221.4680 C   0  0  0  0  0  0  0  0  0  0  0  0
  141.0500   75.6940  221.4780 N   0  0  0  0  0  0  0  0  0  0  0  0
  141.8220   76.3630  221.7010 H   0  0  0  0  0  0  0  0  0  0  0  0
  139.7340   76.2730  221.1770 C   0  0  0  0  0  0  0  0  0  0  0  0
  138.9535   75.6046  221.5695 H   0  0  0  0  0  0  0  0  0  0  0  0
  139.6823   77.2648  221.6499 H   0  0  0  0  0  0  0  0  0  0  0  0
  139.5180   76.4550  219.6640 C   0  0  0  0  0  0  0  0  0  0  0  0
  139.9781   75.6052  219.1385 H   0  0  0  0  0  0  0  0  0  0  0  0
  138.4334   76.5046  219.4877 H   0  0  0  0  0  0  0  0  0  0  0  0
  140.1370   77.7620  219.1250 C   0  0  0  0  0  0  0  0  0  0  0  0
  140.2656   77.6713  218.0363 H   0  0  0  0  0  0  0  0  0  0  0  0
  139.4574   78.5890  219.3783 H   0  0  0  0  0  0  0  0  0  0  0  0
  141.5040   78.0590  219.7630 C   0  0  0  0  0  0  0  0  0  0  0  0
  141.7417   77.2633  220.4843 H   0  0  0  0  0  0  0  0  0  0  0  0
  142.2560   78.1002  218.9613 H   0  0  0  0  0  0  0  0  0  0  0  0
  141.5060   79.4120  220.4940 C   0  0  0  0  0  0  0  0  0  0  0  0
  142.0196   80.1562  219.8676 H   0  0  0  0  0  0  0  0  0  0  0  0
  140.4624   79.7079  220.6763 H   0  0  0  0  0  0  0  0  0  0  0  0
  142.1990   79.3210  221.8000 N   0  0  0  0  0  0  0  0  0  0  0  0
  143.1180   78.8290  221.6760 H   0  0  0  0  0  0  0  0  0  0  0  0
  141.4140   78.6180  222.8320 C   0  0  0  0  0  0  0  0  0  0  0  0
  140.3421   78.6757  222.5918 H   0  0  0  0  0  0  0  0  0  0  0  0
  141.7003   77.5569  222.8786 H   0  0  0  0  0  0  0  0  0  0  0  0
  141.6860   79.3060  224.1690 C   0  0  0  0  0  0  0  0  0  0  0  0
  140.7469   79.6697  224.6116 H   0  0  0  0  0  0  0  0  0  0  0  0
  142.1390   78.6165  224.8966 H   0  0  0  0  0  0  0  0  0  0  0  0
  142.6070   80.4700  223.8500 C   0  0  0  0  0  0  0  0  0  0  0  0
  142.2862   81.3779  224.3819 H   0  0  0  0  0  0  0  0  0  0  0  0
  143.6451   80.2822  224.1614 H   0  0  0  0  0  0  0  0  0  0  0  0
  142.4760   80.6510  222.3530 C   0  0  0  0  0  0  0  0  0  0  0  0
  141.6487   81.3387  222.1235 H   0  0  0  0  0  0  0  0  0  0  0  0
  143.3916   81.0809  221.9207 H   0  0  0  0  0  0  0  0  0  0  0  0
  140.6630   73.5850  222.3450 N   0  0  0  0  0  0  0  0  0  0  0  0
  139.2830   70.3910  222.7250 C   0  0  0  0  0  0  0  0  0  0  0  0
  139.8588   69.5841  222.2482 H   0  0  0  0  0  0  0  0  0  0  0  0
  138.6330   70.9051  222.0017 H   0  0  0  0  0  0  0  0  0  0  0  0
  138.3850   69.7810  223.8080 C   0  0  0  0  0  0  0  0  0  0  0  0
  137.8702   68.8992  223.3989 H   0  0  0  0  0  0  0  0  0  0  0  0
  137.6475   70.5320  224.1275 H   0  0  0  0  0  0  0  0  0  0  0  0
  1  2  1  0
  2  3  2  0
  3  4  1  0
  3  5  1  0
  5  6  1  0
  5  7  2  0
  7  8  1  0
  8  9  2  0
  9 10  1  0
  8 11  1  0
 11 12  1  0
 11 13  1  0
 11 14  1  0
 14 15  1  0
 15 16  1  0
 16 17  2  0
 17 18  1  0
 18 19  1  0
 19 20  1  0
 19 21  1  0
 19 22  1  0
 22 23  1  0
 22 24  1  0
 22 25  1  0
 25 26  1  0
 25 27  1  0
 27 28  1  0
 27 29  1  0
 27 30  1  0
 30 31  1  0
 30 32  1  0
 17 33  1  0
 33 34  1  0
 33 35  1  0
 35 36  2  0
 36 37  1  0
 36 38  1  0
 38 39  1  0
 38 40  1  0
 38 41  1  0
 41 42  1  0
 41 43  1  0
 41 44  1  0
 44 45  1  0
 44 46  1  0
 44 47  1  0
 47 48  1  0
 47 49  1  0
 47 50  1  0
 50 51  1  0
 50 52  1  0
 50 53  1  0
 53 54  1  0
 53 55  1  0
 55 56  1  0
 55 57  1  0
 55 58  1  0
 58 59  1  0
 58 60  1  0
 58 61  1  0
 61 62  1  0
 61 63  1  0
 61 64  1  0
 64 65  1  0
 64 66  1  0
 35 67  1  0
 14 68  1  0
 68 69  1  0
 68 70  1  0
 68 71  1  0
 71 72  1  0
 71 73  1  0
  9  2  1  0
 67 15  2  0
 71  7  1  0
 30 18  1  0
 64 53  1  0
M  CHG  2  36   1  53   1
M  END
>  <UniqueID>  (1) 
480

>  <SMILES>  (1) 
c1ccc2c(c1)CCN(c1nc(N3CCNCC3)[nH]/c(=[NH+]/CCCCC[NH+]3CCCC3)n1)C2

>  <Energy>  (1) 
78.80274819762089

>  <Genealogy>  (1) 
c1ccc2c(c1)CCN(c1nc([NH2+]CCCCC[NH+]3CCCC3)nc(N3CCNCC3)n1)C2 (protonated)
c1ccc2c(c1)CCN(c1nc(N3CCNCC3)[nH]c(=[NH+]CCCCC[NH+]3CCCC3)n1)C2 (tautomer)
c1ccc2c(c1)CCN(c1nc(N3CCNCC3)[nH]/c(=[NH+]/CCCCC[NH+]3CCCC3)n1)C2 (cis-trans isomerization)
c1ccc2c(c1)CCN(c1nc(N3CCNCC3)[nH]/c(=[NH+]/CCCCC[NH+]3CCCC3)n1)C2 (3D coordinates assigned)
c1ccc2c(c1)CCN(c1nc(N3CCNCC3)[nH]/c(=[NH+]/CCCCC[NH+]3CCCC3)n1)C2 (nonaromatic ring conformer: 78.80274819762089 kcal/mol)

>  <smiles>  (1) 
c1ccc2c(c1)CCN(c1nc(NCCCCCN3CCCC3)nc(N3CCNCC3)n1)C2

>  <score_type>  (1) 
oracle

>  <origin>  (1) 
autodockgpu

>  <m_score__min__energy>  (1) 
-8.8200000000000003

>  <m_primary>  (1) 
energy

>  <meeko>  (1) 
{"free_energy": -8.44, "intermolecular_energy": -11.13, "internal_energy": -0.03, "cluster_size": 13, "cluster_id": 1, "rank_in_cluster": 6}

>  <energy>  (1) 
-8.82

>  <cluster_rmsd>  (1) 
0.0

>  <rmsd>  (1) 
271.18

>  <cluster>  (1) 
1

$$$$
MTUVCRSRZGPGQU-JVPWBLRANA-P
     RDKit          3D

 73 77  0  0  0  0  0  0  0  0999 V2000
  141.7155   68.4526  227.8266 H   0  0  0  0  0  0  0  0  0  0  0  0
  141.0700   68.6930  226.9690 C   0  0  0  0  0  0  0  0  0  0  0  0
  140.2240   67.7160  226.4380 C   0  0  0  0  0  0  0  0  0  0  0  0
  140.1982   66.7107  226.8837 H   0  0  0  0  0  0  0  0  0  0  0  0
  139.4110   68.0140  225.3420 C   0  0  0  0  0  0  0  0  0  0  0  0
  138.7354   67.2482  224.9333 H   0  0  0  0  0  0  0  0  0  0  0  0
  139.4570   69.2930  224.7620 C   0  0  0  0  0  0  0  0  0  0  0  0
  140.3030   70.2760  225.2980 C   0  0  0  0  0  0  0  0  0  0  0  0
  141.0980   69.9750  226.4130 C   0  0  0  0  0  0  0  0  0  0  0  0
  141.7450   70.7493  226.8510 H   0  0  0  0  0  0  0  0  0  0  0  0
  140.3140   71.6530  224.6860 C   0  0  0  0  0  0  0  0  0  0  0  0
  141.2802   72.1331  224.9003 H   0  0  0  0  0  0  0  0  0  0  0  0
  139.4872   72.2339  225.1207 H   0  0  0  0  0  0  0  0  0  0  0  0
  140.1220   71.5890  223.2240 N   0  0  0  0  0  0  0  0  0  0  0  0
  140.6610   72.6330  222.3940 C   0  0  0  0  0  0  0  0  0  0  0  0
  141.7840   72.4200  221.6620 N   0  0  0  0  0  0  0  0  0  0  0  0
  142.2960   73.3910  220.8580 C   0  0  0  0  0  0  0  0  0  0  0  0
  143.5050   73.1240  220.1020 N   0  0  0  0  0  0  0  0  0  0  0  0
  143.3940   73.1660  218.6300 C   0  0  0  0  0  0  0  0  0  0  0  0
  142.6037   72.4661  218.3210 H   0  0  0  0  0  0  0  0  0  0  0  0
  143.1643   74.2057  218.3539 H   0  0  0  0  0  0  0  0  0  0  0  0
  144.6850   72.7860  217.9070 C   0  0  0  0  0  0  0  0  0  0  0  0
  144.7900   71.6910  217.9020 H   0  0  0  0  0  0  0  0  0  0  0  0
  144.6431   73.1636  216.8747 H   0  0  0  0  0  0  0  0  0  0  0  0
  145.8350   73.3780  218.5850 N   0  0  0  0  0  0  0  0  0  0  0  0
  146.6900   73.1630  218.0160 H   0  0  0  0  0  0  0  0  0  0  0  0
  145.9940   72.7280  219.8830 C   0  0  0  0  0  0  0  0  0  0  0  0
  146.0621   71.6402  219.7344 H   0  0  0  0  0  0  0  0  0  0  0  0
  146.9102   73.1109  220.3563 H   0  0  0  0  0  0  0  0  0  0  0  0
  144.8050   73.0350  220.8020 C   0  0  0  0  0  0  0  0  0  0  0  0
  144.7368   72.2371  221.5562 H   0  0  0  0  0  0  0  0  0  0  0  0
  144.9943   74.0242  221.2442 H   0  0  0  0  0  0  0  0  0  0  0  0
  141.6540   74.5970  220.7870 N   0  0  0  0  0  0  0  0  0  0  0  0
  142.0150   75.3630  220.1790 H   0  0  0  0  0  0  0  0  0  0  0  0
  140.5350   74.8290  221.5340 C   0  0  0  0  0  0  0  0  0  0  0  0
  139.9450   75.9930  221.4900 N   0  0  0  0  0  0  0  0  0  0  0  0
  139.1480   76.1430  220.8290 H   0  0  0  0  0  0  0  0  0  0  0  0
  140.3290   77.1310  222.3360 C   0  0  0  0  0  0  0  0  0  0  0  0
  139.8475   77.0216  223.3190 H   0  0  0  0  0  0  0  0  0  0  0  0
  141.4251   77.1318  222.4287 H   0  0  0  0  0  0  0  0  0  0  0  0
  139.9020   78.4750  221.7200 C   0  0  0  0  0  0  0  0  0  0  0  0
  139.2177   78.2762  220.8820 H   0  0  0  0  0  0  0  0  0  0  0  0
  139.4158   79.0635  222.5120 H   0  0  0  0  0  0  0  0  0  0  0  0
  141.0980   79.2980  221.1960 C   0  0  0  0  0  0  0  0  0  0  0  0
  140.7355   80.2853  220.8737 H   0  0  0  0  0  0  0  0  0  0  0  0
  141.8304   79.3891  222.0116 H   0  0  0  0  0  0  0  0  0  0  0  0
  141.7940   78.6130  220.0080 C   0  0  0  0  0  0  0  0  0  0  0  0
  142.7086   78.1184  220.3671 H   0  0  0  0  0  0  0  0  0  0  0  0
  141.0954   77.8817  219.5754 H   0  0  0  0  0  0  0  0  0  0  0  0
  142.1710   79.6240  218.9120 C   0  0  0  0  0  0  0  0  0  0  0  0
  141.2696   80.1778  218.6107 H   0  0  0  0  0  0  0  0  0  0  0  0
  142.9316   80.3070  219.3183 H   0  0  0  0  0  0  0  0  0  0  0  0
  142.7400   78.9470  217.7240 N   0  0  0  0  0  0  0  0  0  0  0  0
  143.6650   79.3800  217.4820 H   0  0  0  0  0  0  0  0  0  0  0  0
  141.8610   79.0040  216.5410 C   0  0  0  0  0  0  0  0  0  0  0  0
  140.8163   79.1420  216.8565 H   0  0  0  0  0  0  0  0  0  0  0  0
  142.1402   79.8481  215.8932 H   0  0  0  0  0  0  0  0  0  0  0  0
  142.0080   77.6800  215.7900 C   0  0  0  0  0  0  0  0  0  0  0  0
  141.0326   77.1797  215.6990 H   0  0  0  0  0  0  0  0  0  0  0  0
  142.3883   77.8310  214.7689 H   0  0  0  0  0  0  0  0  0  0  0  0
  142.9580   76.8410  216.6250 C   0  0  0  0  0  0  0  0  0  0  0  0
  142.5924   75.8070  216.7099 H   0  0  0  0  0  0  0  0  0  0  0  0
  143.9623   76.7769  216.1809 H   0  0  0  0  0  0  0  0  0  0  0  0
  142.9670   77.5190  217.9780 C   0  0  0  0  0  0  0  0  0  0  0  0
  142.1658   77.1129  218.6130 H   0  0  0  0  0  0  0  0  0  0  0  0
  143.9193   77.3524  218.5027 H   0  0  0  0  0  0  0  0  0  0  0  0
  140.0490   73.8410  222.3320 N   0  0  0  0  0  0  0  0  0  0  0  0
  139.3780   70.4890  222.5820 C   0  0  0  0  0  0  0  0  0  0  0  0
  140.0936   69.8361  222.0608 H   0  0  0  0  0  0  0  0  0  0  0  0
  138.6561   70.9368  221.8832 H   0  0  0  0  0  0  0  0  0  0  0  0
  138.5890   69.6470  223.5910 C   0  0  0  0  0  0  0  0  0  0  0  0
  138.2437   68.7239  223.1025 H   0  0  0  0  0  0  0  0  0  0  0  0
  137.7262   70.2291  223.9470 H   0  0  0  0  0  0  0  0  0  0  0  0
  1  2  1  0
  2  3  2  0
  3  4  1  0
  3  5  1  0
  5  6  1  0
  5  7  2  0
  7  8  1  0
  8  9  2  0
  9 10  1  0
  8 11  1  0
 11 12  1  0
 11 13  1  0
 11 14  1  0
 14 15  1  0
 15 16  1  0
 16 17  2  0
 17 18  1  0
 18 19  1  0
 19 20  1  0
 19 21  1  0
 19 22  1  0
 22 23  1  0
 22 24  1  0
 22 25  1  0
 25 26  1  0
 25 27  1  0
 27 28  1  0
 27 29  1  0
 27 30  1  0
 30 31  1  0
 30 32  1  0
 17 33  1  0
 33 34  1  0
 33 35  1  0
 35 36  2  0
 36 37  1  0
 36 38  1  0
 38 39  1  0
 38 40  1  0
 38 41  1  0
 41 42  1  0
 41 43  1  0
 41 44  1  0
 44 45  1  0
 44 46  1  0
 44 47  1  0
 47 48  1  0
 47 49  1  0
 47 50  1  0
 50 51  1  0
 50 52  1  0
 50 53  1  0
 53 54  1  0
 53 55  1  0
 55 56  1  0
 55 57  1  0
 55 58  1  0
 58 59  1  0
 58 60  1  0
 58 61  1  0
 61 62  1  0
 61 63  1  0
 61 64  1  0
 64 65  1  0
 64 66  1  0
 35 67  1  0
 14 68  1  0
 68 69  1  0
 68 70  1  0
 68 71  1  0
 71 72  1  0
 71 73  1  0
  9  2  1  0
 67 15  2  0
 71  7  1  0
 30 18  1  0
 64 53  1  0
M  CHG  2  36   1  53   1
M  END
>  <UniqueID>  (2) 
480

>  <SMILES>  (2) 
c1ccc2c(c1)CCN(c1nc(N3CCNCC3)[nH]/c(=[NH+]/CCCCC[NH+]3CCCC3)n1)C2

>  <Energy>  (2) 
78.80274819762089

>  <Genealogy>  (2) 
c1ccc2c(c1)CCN(c1nc([NH2+]CCCCC[NH+]3CCCC3)nc(N3CCNCC3)n1)C2 (protonated)
c1ccc2c(c1)CCN(c1nc(N3CCNCC3)[nH]c(=[NH+]CCCCC[NH+]3CCCC3)n1)C2 (tautomer)
c1ccc2c(c1)CCN(c1nc(N3CCNCC3)[nH]/c(=[NH+]/CCCCC[NH+]3CCCC3)n1)C2 (cis-trans isomerization)
c1ccc2c(c1)CCN(c1nc(N3CCNCC3)[nH]/c(=[NH+]/CCCCC[NH+]3CCCC3)n1)C2 (3D coordinates assigned)
c1ccc2c(c1)CCN(c1nc(N3CCNCC3)[nH]/c(=[NH+]/CCCCC[NH+]3CCCC3)n1)C2 (nonaromatic ring conformer: 78.80274819762089 kcal/mol)

>  <smiles>  (2) 
c1ccc2c(c1)CCN(c1nc(NCCCCCN3CCCC3)nc(N3CCNCC3)n1)C2

>  <score_type>  (2) 
oracle

>  <origin>  (2) 
autodockgpu

>  <m_score__min__energy>  (2) 
-8.8200000000000003

>  <m_primary>  (2) 
energy

>  <meeko>  (2) 
{"free_energy": -8.54, "intermolecular_energy": -11.22, "internal_energy": -0.33, "cluster_size": 2, "cluster_id": 2, "rank_in_cluster": 2}

>  <energy>  (2) 
-8.74

>  <cluster_rmsd>  (2) 
0.39

>  <rmsd>  (2) 
271.19

>  <cluster>  (2) 
1

$$$$
MTUVCRSRZGPGQU-JVPWBLRANA-P
     RDKit          3D

 73 77  0  0  0  0  0  0  0  0999 V2000
  141.8505   69.2815  229.0006 H   0  0  0  0  0  0  0  0  0  0  0  0
  141.2800   69.1150  228.0750 C   0  0  0  0  0  0  0  0  0  0  0  0
  141.0120   67.8130  227.6470 C   0  0  0  0  0  0  0  0  0  0  0  0
  141.3642   66.9563  228.2403 H   0  0  0  0  0  0  0  0  0  0  0  0
  140.2970   67.5970  226.4660 C   0  0  0  0  0  0  0  0  0  0  0  0
  140.0751   66.5712  226.1366 H   0  0  0  0  0  0  0  0  0  0  0  0
  139.8620   68.6910  225.7000 C   0  0  0  0  0  0  0  0  0  0  0  0
  140.1270   69.9990  226.1310 C   0  0  0  0  0  0  0  0  0  0  0  0
  140.8250   70.2080  227.3300 C   0  0  0  0  0  0  0  0  0  0  0  0
  141.0145   71.2320  227.6844 H   0  0  0  0  0  0  0  0  0  0  0  0
  139.6230   71.1630  225.3160 C   0  0  0  0  0  0  0  0  0  0  0  0
  140.2535   72.0417  225.5169 H   0  0  0  0  0  0  0  0  0  0  0  0
  138.5793   71.3622  225.6005 H   0  0  0  0  0  0  0  0  0  0  0  0
  139.6650   70.8600  223.8730 N   0  0  0  0  0  0  0  0  0  0  0  0
  139.8040   71.9370  222.9290 C   0  0  0  0  0  0  0  0  0  0  0  0
  141.0030   72.1900  222.3450 N   0  0  0  0  0  0  0  0  0  0  0  0
  141.1460   73.1930  221.4370 C   0  0  0  0  0  0  0  0  0  0  0  0
  142.4490   73.4370  220.8460 N   0  0  0  0  0  0  0  0  0  0  0  0
  142.7580   74.8290  220.4620 C   0  0  0  0  0  0  0  0  0  0  0  0
  141.9719   75.1839  219.7792 H   0  0  0  0  0  0  0  0  0  0  0  0
  142.8030   75.4169  221.3906 H   0  0  0  0  0  0  0  0  0  0  0  0
  144.1080   74.9870  219.7670 C   0  0  0  0  0  0  0  0  0  0  0  0
  144.0128   74.6816  218.7145 H   0  0  0  0  0  0  0  0  0  0  0  0
  144.4209   76.0399  219.8257 H   0  0  0  0  0  0  0  0  0  0  0  0
  145.1130   74.1540  220.4220 N   0  0  0  0  0  0  0  0  0  0  0  0
  146.0390   74.3510  219.9700 H   0  0  0  0  0  0  0  0  0  0  0  0
  144.7890   72.7520  220.1720 C   0  0  0  0  0  0  0  0  0  0  0  0
  144.7001   72.5914  219.0874 H   0  0  0  0  0  0  0  0  0  0  0  0
  145.5921   72.1272  220.5899 H   0  0  0  0  0  0  0  0  0  0  0  0
  143.4680   72.3640  220.8460 C   0  0  0  0  0  0  0  0  0  0  0  0
  143.0529   71.4940  220.3161 H   0  0  0  0  0  0  0  0  0  0  0  0
  143.7015   72.1498  221.8994 H   0  0  0  0  0  0  0  0  0  0  0  0
  140.0540   73.9470  221.1060 N   0  0  0  0  0  0  0  0  0  0  0  0
  140.1250   74.7210  220.4120 H   0  0  0  0  0  0  0  0  0  0  0  0
  138.8470   73.7120  221.7010 C   0  0  0  0  0  0  0  0  0  0  0  0
  137.8150   74.4570  221.4090 N   0  0  0  0  0  0  0  0  0  0  0  0
  137.4730   74.4990  220.4210 H   0  0  0  0  0  0  0  0  0  0  0  0
  137.0780   75.2510  222.4020 C   0  0  0  0  0  0  0  0  0  0  0  0
  136.0040   75.2044  222.1687 H   0  0  0  0  0  0  0  0  0  0  0  0
  137.2858   74.8309  223.3972 H   0  0  0  0  0  0  0  0  0  0  0  0
  137.5240   76.7250  222.4030 C   0  0  0  0  0  0  0  0  0  0  0  0
  136.6597   77.3541  222.1438 H   0  0  0  0  0  0  0  0  0  0  0  0
  137.9084   76.9545  223.4078 H   0  0  0  0  0  0  0  0  0  0  0  0
  138.6580   77.0060  221.3960 C   0  0  0  0  0  0  0  0  0  0  0  0
  138.7106   76.1732  220.6793 H   0  0  0  0  0  0  0  0  0  0  0  0
  138.4330   77.9554  220.8881 H   0  0  0  0  0  0  0  0  0  0  0  0
  140.0230   77.1510  222.0890 C   0  0  0  0  0  0  0  0  0  0  0  0
  139.9087   77.7996  222.9700 H   0  0  0  0  0  0  0  0  0  0  0  0
  140.3684   76.1483  222.3809 H   0  0  0  0  0  0  0  0  0  0  0  0
  141.0730   77.7660  221.1500 C   0  0  0  0  0  0  0  0  0  0  0  0
  141.6448   76.9560  220.6737 H   0  0  0  0  0  0  0  0  0  0  0  0
  140.5492   78.3713  220.3955 H   0  0  0  0  0  0  0  0  0  0  0  0
  142.0090   78.6480  221.8860 N   0  0  0  0  0  0  0  0  0  0  0  0
  142.9960   78.3490  221.6950 H   0  0  0  0  0  0  0  0  0  0  0  0
  141.7830   78.6530  223.3440 C   0  0  0  0  0  0  0  0  0  0  0  0
  140.7439   78.3664  223.5633 H   0  0  0  0  0  0  0  0  0  0  0  0
  142.4512   77.9340  223.8406 H   0  0  0  0  0  0  0  0  0  0  0  0
  142.0500   80.0700  223.8490 C   0  0  0  0  0  0  0  0  0  0  0  0
  141.1586   80.4724  224.3525 H   0  0  0  0  0  0  0  0  0  0  0  0
  142.8710   80.0931  224.5807 H   0  0  0  0  0  0  0  0  0  0  0  0
  142.3760   80.8900  222.6130 C   0  0  0  0  0  0  0  0  0  0  0  0
  141.8573   81.8596  222.6406 H   0  0  0  0  0  0  0  0  0  0  0  0
  143.4490   81.1180  222.5306 H   0  0  0  0  0  0  0  0  0  0  0  0
  141.8740   80.0460  221.4620 C   0  0  0  0  0  0  0  0  0  0  0  0
  140.8202   80.2795  221.2499 H   0  0  0  0  0  0  0  0  0  0  0  0
  142.4466   80.2419  220.5434 H   0  0  0  0  0  0  0  0  0  0  0  0
  138.7350   72.7070  222.6090 N   0  0  0  0  0  0  0  0  0  0  0  0
  139.5550   69.4810  223.3610 C   0  0  0  0  0  0  0  0  0  0  0  0
  140.5417   69.1608  222.9952 H   0  0  0  0  0  0  0  0  0  0  0  0
  138.8060   69.4823  222.5554 H   0  0  0  0  0  0  0  0  0  0  0  0
  139.0840   68.4930  224.4330 C   0  0  0  0  0  0  0  0  0  0  0  0
  139.2351   67.4653  224.0710 H   0  0  0  0  0  0  0  0  0  0  0  0
  138.0172   68.6672  224.6368 H   0  0  0  0  0  0  0  0  0  0  0  0
  1  2  1  0
  2  3  2  0
  3  4  1  0
  3  5  1  0
  5  6  1  0
  5  7  2  0
  7  8  1  0
  8  9  2  0
  9 10  1  0
  8 11  1  0
 11 12  1  0
 11 13  1  0
 11 14  1  0
 14 15  1  0
 15 16  1  0
 16 17  2  0
 17 18  1  0
 18 19  1  0
 19 20  1  0
 19 21  1  0
 19 22  1  0
 22 23  1  0
 22 24  1  0
 22 25  1  0
 25 26  1  0
 25 27  1  0
 27 28  1  0
 27 29  1  0
 27 30  1  0
 30 31  1  0
 30 32  1  0
 17 33  1  0
 33 34  1  0
 33 35  1  0
 35 36  2  0
 36 37  1  0
 36 38  1  0
 38 39  1  0
 38 40  1  0
 38 41  1  0
 41 42  1  0
 41 43  1  0
 41 44  1  0
 44 45  1  0
 44 46  1  0
 44 47  1  0
 47 48  1  0
 47 49  1  0
 47 50  1  0
 50 51  1  0
 50 52  1  0
 50 53  1  0
 53 54  1  0
 53 55  1  0
 55 56  1  0
 55 57  1  0
 55 58  1  0
 58 59  1  0
 58 60  1  0
 58 61  1  0
 61 62  1  0
 61 63  1  0
 61 64  1  0
 64 65  1  0
 64 66  1  0
 35 67  1  0
 14 68  1  0
 68 69  1  0
 68 70  1  0
 68 71  1  0
 71 72  1  0
 71 73  1  0
  9  2  1  0
 67 15  2  0
 71  7  1  0
 30 18  1  0
 64 53  1  0
M  CHG  2  36   1  53   1
M  END
>  <UniqueID>  (3) 
480

>  <SMILES>  (3) 
c1ccc2c(c1)CCN(c1nc(N3CCNCC3)[nH]/c(=[NH+]/CCCCC[NH+]3CCCC3)n1)C2

>  <Energy>  (3) 
78.80274819762089

>  <Genealogy>  (3) 
c1ccc2c(c1)CCN(c1nc([NH2+]CCCCC[NH+]3CCCC3)nc(N3CCNCC3)n1)C2 (protonated)
c1ccc2c(c1)CCN(c1nc(N3CCNCC3)[nH]c(=[NH+]CCCCC[NH+]3CCCC3)n1)C2 (tautomer)
c1ccc2c(c1)CCN(c1nc(N3CCNCC3)[nH]/c(=[NH+]/CCCCC[NH+]3CCCC3)n1)C2 (cis-trans isomerization)
c1ccc2c(c1)CCN(c1nc(N3CCNCC3)[nH]/c(=[NH+]/CCCCC[NH+]3CCCC3)n1)C2 (3D coordinates assigned)
c1ccc2c(c1)CCN(c1nc(N3CCNCC3)[nH]/c(=[NH+]/CCCCC[NH+]3CCCC3)n1)C2 (nonaromatic ring conformer: 78.80274819762089 kcal/mol)

>  <smiles>  (3) 
c1ccc2c(c1)CCN(c1nc(NCCCCCN3CCCC3)nc(N3CCNCC3)n1)C2

>  <score_type>  (3) 
oracle

>  <origin>  (3) 
autodockgpu

>  <m_score__min__energy>  (3) 
-8.8200000000000003

>  <m_primary>  (3) 
energy

>  <meeko>  (3) 
{"free_energy": -8.67, "intermolecular_energy": -11.36, "internal_energy": -0.44, "cluster_size": 13, "cluster_id": 1, "rank_in_cluster": 5}

>  <energy>  (3) 
-8.68

>  <cluster_rmsd>  (3) 
1.25

>  <rmsd>  (3) 
271.12

>  <cluster>  (3) 
1

$$$$
MTUVCRSRZGPGQU-JVPWBLRANA-P
     RDKit          3D

 73 77  0  0  0  0  0  0  0  0999 V2000
  143.2606   81.4432  223.3976 H   0  0  0  0  0  0  0  0  0  0  0  0
  142.3700   80.8240  223.2150 C   0  0  0  0  0  0  0  0  0  0  0  0
  141.1340   81.2110  223.7380 C   0  0  0  0  0  0  0  0  0  0  0  0
  141.0515   82.1376  224.3251 H   0  0  0  0  0  0  0  0  0  0  0  0
  140.0020   80.4220  223.5160 C   0  0  0  0  0  0  0  0  0  0  0  0
  139.0260   80.7347  223.9155 H   0  0  0  0  0  0  0  0  0  0  0  0
  140.1120   79.2290  222.7820 C   0  0  0  0  0  0  0  0  0  0  0  0
  141.3520   78.8420  222.2540 C   0  0  0  0  0  0  0  0  0  0  0  0
  142.4790   79.6520  222.4600 C   0  0  0  0  0  0  0  0  0  0  0  0
  143.4488   79.3650  222.0274 H   0  0  0  0  0  0  0  0  0  0  0  0
  141.4450   77.5780  221.4380 C   0  0  0  0  0  0  0  0  0  0  0  0
  142.4765   77.1984  221.4808 H   0  0  0  0  0  0  0  0  0  0  0  0
  141.1602   77.8108  220.4013 H   0  0  0  0  0  0  0  0  0  0  0  0
  140.5290   76.5420  221.9530 N   0  0  0  0  0  0  0  0  0  0  0  0
  140.8450   75.1540  221.7480 C   0  0  0  0  0  0  0  0  0  0  0  0
  140.1010   74.1840  222.3390 N   0  0  0  0  0  0  0  0  0  0  0  0
  140.3750   72.8660  222.1390 C   0  0  0  0  0  0  0  0  0  0  0  0
  139.5610   71.8630  222.7990 N   0  0  0  0  0  0  0  0  0  0  0  0
  140.1350   71.2200  223.9980 C   0  0  0  0  0  0  0  0  0  0  0  0
  141.1078   70.7843  223.7263 H   0  0  0  0  0  0  0  0  0  0  0  0
  140.2248   71.9995  224.7689 H   0  0  0  0  0  0  0  0  0  0  0  0
  139.2580   70.1150  224.5810 C   0  0  0  0  0  0  0  0  0  0  0  0
  139.3862   69.1980  223.9872 H   0  0  0  0  0  0  0  0  0  0  0  0
  139.5569   69.9319  225.6237 H   0  0  0  0  0  0  0  0  0  0  0  0
  137.8540   70.5170  224.5510 N   0  0  0  0  0  0  0  0  0  0  0  0
  137.2950   69.7710  225.0310 H   0  0  0  0  0  0  0  0  0  0  0  0
  137.4160   70.5710  223.1590 C   0  0  0  0  0  0  0  0  0  0  0  0
  137.6233   69.6032  222.6791 H   0  0  0  0  0  0  0  0  0  0  0  0
  136.3379   70.7884  223.1395 H   0  0  0  0  0  0  0  0  0  0  0  0
  138.1510   71.6780  222.3930 C   0  0  0  0  0  0  0  0  0  0  0  0
  138.1304   71.4284  221.3219 H   0  0  0  0  0  0  0  0  0  0  0  0
  137.6303   72.6196  222.6214 H   0  0  0  0  0  0  0  0  0  0  0  0
  141.4170   72.5240  221.3210 N   0  0  0  0  0  0  0  0  0  0  0  0
  141.6540   71.5250  221.1430 H   0  0  0  0  0  0  0  0  0  0  0  0
  142.1830   73.4920  220.7380 C   0  0  0  0  0  0  0  0  0  0  0  0
  143.1980   73.1610  219.9850 N   0  0  0  0  0  0  0  0  0  0  0  0
  143.4040   72.1500  219.8130 H   0  0  0  0  0  0  0  0  0  0  0  0
  144.0840   74.1390  219.3410 C   0  0  0  0  0  0  0  0  0  0  0  0
  144.5261   74.7824  220.1159 H   0  0  0  0  0  0  0  0  0  0  0  0
  144.8612   73.5856  218.7935 H   0  0  0  0  0  0  0  0  0  0  0  0
  143.3280   75.0230  218.3320 C   0  0  0  0  0  0  0  0  0  0  0  0
  143.8238   74.9427  217.3534 H   0  0  0  0  0  0  0  0  0  0  0  0
  142.2882   74.6664  218.2923 H   0  0  0  0  0  0  0  0  0  0  0  0
  143.2950   76.5090  218.7480 C   0  0  0  0  0  0  0  0  0  0  0  0
  143.2861   76.5700  219.8463 H   0  0  0  0  0  0  0  0  0  0  0  0
  144.1865   76.9985  218.3289 H   0  0  0  0  0  0  0  0  0  0  0  0
  142.0550   77.2340  218.2010 C   0  0  0  0  0  0  0  0  0  0  0  0
  141.3246   76.4849  217.8615 H   0  0  0  0  0  0  0  0  0  0  0  0
  141.6365   77.8546  219.0071 H   0  0  0  0  0  0  0  0  0  0  0  0
  142.4100   78.1540  217.0220 C   0  0  0  0  0  0  0  0  0  0  0  0
  143.3196   77.7745  216.5335 H   0  0  0  0  0  0  0  0  0  0  0  0
  141.5626   78.1595  216.3206 H   0  0  0  0  0  0  0  0  0  0  0  0
  142.6500   79.5450  217.4730 N   0  0  0  0  0  0  0  0  0  0  0  0
  143.6640   79.7840  217.3510 H   0  0  0  0  0  0  0  0  0  0  0  0
  142.2670   79.7780  218.8780 C   0  0  0  0  0  0  0  0  0  0  0  0
  141.5077   79.0442  219.1862 H   0  0  0  0  0  0  0  0  0  0  0  0
  143.1398   79.6698  219.5387 H   0  0  0  0  0  0  0  0  0  0  0  0
  141.6940   81.1920  218.9740 C   0  0  0  0  0  0  0  0  0  0  0  0
  140.6665   81.1642  219.3659 H   0  0  0  0  0  0  0  0  0  0  0  0
  142.2813   81.8239  219.6564 H   0  0  0  0  0  0  0  0  0  0  0  0
  141.7060   81.7340  217.5560 C   0  0  0  0  0  0  0  0  0  0  0  0
  140.7621   82.2511  217.3286 H   0  0  0  0  0  0  0  0  0  0  0  0
  142.5069   82.4706  217.3947 H   0  0  0  0  0  0  0  0  0  0  0  0
  141.8670   80.5060  216.6870 C   0  0  0  0  0  0  0  0  0  0  0  0
  140.8823   80.0829  216.4393 H   0  0  0  0  0  0  0  0  0  0  0  0
  142.3687   80.7500  215.7390 H   0  0  0  0  0  0  0  0  0  0  0  0
  141.8880   74.8000  220.9580 N   0  0  0  0  0  0  0  0  0  0  0  0
  139.2830   76.8860  222.6650 C   0  0  0  0  0  0  0  0  0  0  0  0
  139.4130   76.6591  223.7335 H   0  0  0  0  0  0  0  0  0  0  0  0
  138.4698   76.2925  222.2218 H   0  0  0  0  0  0  0  0  0  0  0  0
  138.9130   78.3670  222.5180 C   0  0  0  0  0  0  0  0  0  0  0  0
  138.1202   78.6167  223.2385 H   0  0  0  0  0  0  0  0  0  0  0  0
  138.5591   78.5486  221.4924 H   0  0  0  0  0  0  0  0  0  0  0  0
  1  2  1  0
  2  3  2  0
  3  4  1  0
  3  5  1  0
  5  6  1  0
  5  7  2  0
  7  8  1  0
  8  9  2  0
  9 10  1  0
  8 11  1  0
 11 12  1  0
 11 13  1  0
 11 14  1  0
 14 15  1  0
 15 16  1  0
 16 17  2  0
 17 18  1  0
 18 19  1  0
 19 20  1  0
 19 21  1  0
 19 22  1  0
 22 23  1  0
 22 24  1  0
 22 25  1  0
 25 26  1  0
 25 27  1  0
 27 28  1  0
 27 29  1  0
 27 30  1  0
 30 31  1  0
 30 32  1  0
 17 33  1  0
 33 34  1  0
 33 35  1  0
 35 36  2  0
 36 37  1  0
 36 38  1  0
 38 39  1  0
 38 40  1  0
 38 41  1  0
 41 42  1  0
 41 43  1  0
 41 44  1  0
 44 45  1  0
 44 46  1  0
 44 47  1  0
 47 48  1  0
 47 49  1  0
 47 50  1  0
 50 51  1  0
 50 52  1  0
 50 53  1  0
 53 54  1  0
 53 55  1  0
 55 56  1  0
 55 57  1  0
 55 58  1  0
 58 59  1  0
 58 60  1  0
 58 61  1  0
 61 62  1  0
 61 63  1  0
 61 64  1  0
 64 65  1  0
 64 66  1  0
 35 67  1  0
 14 68  1  0
 68 69  1  0
 68 70  1  0
 68 71  1  0
 71 72  1  0
 71 73  1  0
  9  2  1  0
 67 15  2  0
 71  7  1  0
 30 18  1  0
 64 53  1  0
M  CHG  2  36   1  53   1
M  END
>  <UniqueID>  (4) 
480

>  <SMILES>  (4) 
c1ccc2c(c1)CCN(c1nc(N3CCNCC3)[nH]/c(=[NH+]/CCCCC[NH+]3CCCC3)n1)C2

>  <Energy>  (4) 
78.80274819762089

>  <Genealogy>  (4) 
c1ccc2c(c1)CCN(c1nc([NH2+]CCCCC[NH+]3CCCC3)nc(N3CCNCC3)n1)C2 (protonated)
c1ccc2c(c1)CCN(c1nc(N3CCNCC3)[nH]c(=[NH+]CCCCC[NH+]3CCCC3)n1)C2 (tautomer)
c1ccc2c(c1)CCN(c1nc(N3CCNCC3)[nH]/c(=[NH+]/CCCCC[NH+]3CCCC3)n1)C2 (cis-trans isomerization)
c1ccc2c(c1)CCN(c1nc(N3CCNCC3)[nH]/c(=[NH+]/CCCCC[NH+]3CCCC3)n1)C2 (3D coordinates assigned)
c1ccc2c(c1)CCN(c1nc(N3CCNCC3)[nH]/c(=[NH+]/CCCCC[NH+]3CCCC3)n1)C2 (nonaromatic ring conformer: 78.80274819762089 kcal/mol)

>  <smiles>  (4) 
c1ccc2c(c1)CCN(c1nc(NCCCCCN3CCCC3)nc(N3CCNCC3)n1)C2

>  <score_type>  (4) 
oracle

>  <origin>  (4) 
autodockgpu

>  <m_score__min__energy>  (4) 
-8.8200000000000003

>  <m_primary>  (4) 
energy

>  <meeko>  (4) 
{"free_energy": -7.7, "intermolecular_energy": -10.38, "internal_energy": -0.96, "cluster_size": 3, "cluster_id": 3, "rank_in_cluster": 2}

>  <energy>  (4) 
-8.68

>  <cluster_rmsd>  (4) 
0.46

>  <rmsd>  (4) 
271.16

>  <cluster>  (4) 
1

$$$$
MTUVCRSRZGPGQU-JVPWBLRANA-P
     RDKit          3D

 73 77  0  0  0  0  0  0  0  0999 V2000
  141.8207   69.7146  229.1133 H   0  0  0  0  0  0  0  0  0  0  0  0
  141.2620   69.4850  228.1940 C   0  0  0  0  0  0  0  0  0  0  0  0
  141.0260   68.1550  227.8360 C   0  0  0  0  0  0  0  0  0  0  0  0
  141.3914   67.3402  228.4783 H   0  0  0  0  0  0  0  0  0  0  0  0
  140.3270   67.8590  226.6640 C   0  0  0  0  0  0  0  0  0  0  0  0
  140.1303   66.8120  226.3898 H   0  0  0  0  0  0  0  0  0  0  0  0
  139.8750   68.9000  225.8350 C   0  0  0  0  0  0  0  0  0  0  0  0
  140.1070   70.2350  226.1960 C   0  0  0  0  0  0  0  0  0  0  0  0
  140.7900   70.5250  227.3870 C   0  0  0  0  0  0  0  0  0  0  0  0
  140.9542   71.5708  227.6860 H   0  0  0  0  0  0  0  0  0  0  0  0
  139.5850   71.3410  225.3140 C   0  0  0  0  0  0  0  0  0  0  0  0
  140.1944   72.2432  225.4711 H   0  0  0  0  0  0  0  0  0  0  0  0
  138.5346   71.5317  225.5791 H   0  0  0  0  0  0  0  0  0  0  0  0
  139.6460   70.9610  223.8900 N   0  0  0  0  0  0  0  0  0  0  0  0
  139.7690   71.9870  222.8890 C   0  0  0  0  0  0  0  0  0  0  0  0
  140.9790   72.2740  222.3430 N   0  0  0  0  0  0  0  0  0  0  0  0
  141.1080   73.2290  221.3830 C   0  0  0  0  0  0  0  0  0  0  0  0
  142.4220   73.5120  220.8350 N   0  0  0  0  0  0  0  0  0  0  0  0
  142.7070   74.9150  220.4740 C   0  0  0  0  0  0  0  0  0  0  0  0
  141.9331   75.2569  219.7710 H   0  0  0  0  0  0  0  0  0  0  0  0
  142.7091   75.4938  221.4094 H   0  0  0  0  0  0  0  0  0  0  0  0
  144.0730   75.1150  219.8220 C   0  0  0  0  0  0  0  0  0  0  0  0
  144.0177   74.8187  218.7641 H   0  0  0  0  0  0  0  0  0  0  0  0
  144.3568   76.1749  219.9005 H   0  0  0  0  0  0  0  0  0  0  0  0
  145.0780   74.3010  220.4990 N   0  0  0  0  0  0  0  0  0  0  0  0
  146.0120   74.5260  220.0780 H   0  0  0  0  0  0  0  0  0  0  0  0
  144.7980   72.8940  220.2260 C   0  0  0  0  0  0  0  0  0  0  0  0
  144.7461   72.7423  219.1377 H   0  0  0  0  0  0  0  0  0  0  0  0
  145.6039   72.2857  220.6624 H   0  0  0  0  0  0  0  0  0  0  0  0
  143.4670   72.4650  220.8560 C   0  0  0  0  0  0  0  0  0  0  0  0
  143.0905   71.5904  220.3053 H   0  0  0  0  0  0  0  0  0  0  0  0
  143.6737   72.2452  221.9138 H   0  0  0  0  0  0  0  0  0  0  0  0
  139.9930   73.8990  220.9610 N   0  0  0  0  0  0  0  0  0  0  0  0
  140.0540   74.6340  220.2240 H   0  0  0  0  0  0  0  0  0  0  0  0
  138.7750   73.6310  221.5170 C   0  0  0  0  0  0  0  0  0  0  0  0
  137.7180   74.2970  221.1360 N   0  0  0  0  0  0  0  0  0  0  0  0
  137.4970   74.3740  220.1170 H   0  0  0  0  0  0  0  0  0  0  0  0
  136.7920   74.9530  222.0690 C   0  0  0  0  0  0  0  0  0  0  0  0
  135.9443   75.3620  221.4996 H   0  0  0  0  0  0  0  0  0  0  0  0
  136.4551   74.2019  222.7986 H   0  0  0  0  0  0  0  0  0  0  0  0
  137.4700   76.0980  222.8430 C   0  0  0  0  0  0  0  0  0  0  0  0
  136.7452   76.5181  223.5558 H   0  0  0  0  0  0  0  0  0  0  0  0
  138.3483   75.6778  223.3549 H   0  0  0  0  0  0  0  0  0  0  0  0
  137.9670   77.2300  221.9200 C   0  0  0  0  0  0  0  0  0  0  0  0
  138.2530   76.7973  220.9499 H   0  0  0  0  0  0  0  0  0  0  0  0
  137.1505   77.9582  221.8060 H   0  0  0  0  0  0  0  0  0  0  0  0
  139.1800   77.9660  222.5120 C   0  0  0  0  0  0  0  0  0  0  0  0
  139.1505   79.0177  222.1910 H   0  0  0  0  0  0  0  0  0  0  0  0
  139.1281   77.8872  223.6079 H   0  0  0  0  0  0  0  0  0  0  0  0
  140.5060   77.3400  222.0480 C   0  0  0  0  0  0  0  0  0  0  0  0
  140.6768   76.4084  222.6074 H   0  0  0  0  0  0  0  0  0  0  0  0
  140.4350   77.1404  220.9686 H   0  0  0  0  0  0  0  0  0  0  0  0
  141.6470   78.2560  222.2780 N   0  0  0  0  0  0  0  0  0  0  0  0
  142.5370   77.7930  221.9700 H   0  0  0  0  0  0  0  0  0  0  0  0
  141.7880   78.6730  223.6860 C   0  0  0  0  0  0  0  0  0  0  0  0
  140.8191   78.5908  224.2003 H   0  0  0  0  0  0  0  0  0  0  0  0
  142.5113   78.0298  224.2086 H   0  0  0  0  0  0  0  0  0  0  0  0
  142.2600   80.1270  223.6930 C   0  0  0  0  0  0  0  0  0  0  0  0
  141.5470   80.7594  224.2422 H   0  0  0  0  0  0  0  0  0  0  0  0
  143.2355   80.2357  224.1896 H   0  0  0  0  0  0  0  0  0  0  0  0
  142.3230   80.5430  222.2350 C   0  0  0  0  0  0  0  0  0  0  0  0
  141.8902   81.5448  222.0966 H   0  0  0  0  0  0  0  0  0  0  0  0
  143.3550   80.5992  221.8584 H   0  0  0  0  0  0  0  0  0  0  0  0
  141.5000   79.4990  221.5120 C   0  0  0  0  0  0  0  0  0  0  0  0
  140.4434   79.8031  221.4784 H   0  0  0  0  0  0  0  0  0  0  0  0
  141.8392   79.3712  220.4734 H   0  0  0  0  0  0  0  0  0  0  0  0
  138.6760   72.6750  222.4780 N   0  0  0  0  0  0  0  0  0  0  0  0
  139.5700   69.5540  223.4540 C   0  0  0  0  0  0  0  0  0  0  0  0
  140.5665   69.2358  223.1137 H   0  0  0  0  0  0  0  0  0  0  0  0
  138.8281   69.4946  222.6441 H   0  0  0  0  0  0  0  0  0  0  0  0
  139.1110   68.6160  224.5760 C   0  0  0  0  0  0  0  0  0  0  0  0
  139.2863   67.5734  224.2722 H   0  0  0  0  0  0  0  0  0  0  0  0
  138.0392   68.7782  224.7628 H   0  0  0  0  0  0  0  0  0  0  0  0
  1  2  1  0
  2  3  2  0
  3  4  1  0
  3  5  1  0
  5  6  1  0
  5  7  2  0
  7  8  1  0
  8  9  2  0
  9 10  1  0
  8 11  1  0
 11 12  1  0
 11 13  1  0
 11 14  1  0
 14 15  1  0
 15 16  1  0
 16 17  2  0
 17 18  1  0
 18 19  1  0
 19 20  1  0
 19 21  1  0
 19 22  1  0
 22 23  1  0
 22 24  1  0
 22 25  1  0
 25 26  1  0
 25 27  1  0
 27 28  1  0
 27 29  1  0
 27 30  1  0
 30 31  1  0
 30 32  1  0
 17 33  1  0
 33 34  1  0
 33 35  1  0
 35 36  2  0
 36 37  1  0
 36 38  1  0
 38 39  1  0
 38 40  1  0
 38 41  1  0
 41 42  1  0
 41 43  1  0
 41 44  1  0
 44 45  1  0
 44 46  1  0
 44 47  1  0
 47 48  1  0
 47 49  1  0
 47 50  1  0
 50 51  1  0
 50 52  1  0
 50 53  1  0
 53 54  1  0
 53 55  1  0
 55 56  1  0
 55 57  1  0
 55 58  1  0
 58 59  1  0
 58 60  1  0
 58 61  1  0
 61 62  1  0
 61 63  1  0
 61 64  1  0
 64 65  1  0
 64 66  1  0
 35 67  1  0
 14 68  1  0
 68 69  1  0
 68 70  1  0
 68 71  1  0
 71 72  1  0
 71 73  1  0
  9  2  1  0
 67 15  2  0
 71  7  1  0
 30 18  1  0
 64 53  1  0
M  CHG  2  36   1  53   1
M  END
>  <UniqueID>  (5) 
480

>  <SMILES>  (5) 
c1ccc2c(c1)CCN(c1nc(N3CCNCC3)[nH]/c(=[NH+]/CCCCC[NH+]3CCCC3)n1)C2

>  <Energy>  (5) 
78.80274819762089

>  <Genealogy>  (5) 
c1ccc2c(c1)CCN(c1nc([NH2+]CCCCC[NH+]3CCCC3)nc(N3CCNCC3)n1)C2 (protonated)
c1ccc2c(c1)CCN(c1nc(N3CCNCC3)[nH]c(=[NH+]CCCCC[NH+]3CCCC3)n1)C2 (tautomer)
c1ccc2c(c1)CCN(c1nc(N3CCNCC3)[nH]/c(=[NH+]/CCCCC[NH+]3CCCC3)n1)C2 (cis-trans isomerization)
c1ccc2c(c1)CCN(c1nc(N3CCNCC3)[nH]/c(=[NH+]/CCCCC[NH+]3CCCC3)n1)C2 (3D coordinates assigned)
c1ccc2c(c1)CCN(c1nc(N3CCNCC3)[nH]/c(=[NH+]/CCCCC[NH+]3CCCC3)n1)C2 (nonaromatic ring conformer: 78.80274819762089 kcal/mol)

>  <smiles>  (5) 
c1ccc2c(c1)CCN(c1nc(NCCCCCN3CCCC3)nc(N3CCNCC3)n1)C2

>  <score_type>  (5) 
oracle

>  <origin>  (5) 
autodockgpu

>  <m_score__min__energy>  (5) 
-8.8200000000000003

>  <m_primary>  (5) 
energy

>  <meeko>  (5) 
{"free_energy": -8.68, "intermolecular_energy": -11.37, "internal_energy": -0.41, "cluster_size": 13, "cluster_id": 1, "rank_in_cluster": 4}

>  <energy>  (5) 
-8.67

>  <cluster_rmsd>  (5) 
0.39

>  <rmsd>  (5) 
271.16

>  <cluster>  (5) 
1

$$$$
MTUVCRSRZGPGQU-JVPWBLRANA-P
     RDKit          3D

 73 77  0  0  0  0  0  0  0  0999 V2000
  142.1418   68.0103  227.4706 H   0  0  0  0  0  0  0  0  0  0  0  0
  141.3390   68.3660  226.8080 C   0  0  0  0  0  0  0  0  0  0  0  0
  140.2820   67.5150  226.4750 C   0  0  0  0  0  0  0  0  0  0  0  0
  140.2490   66.4942  226.8835 H   0  0  0  0  0  0  0  0  0  0  0  0
  139.2670   67.9590  225.6240 C   0  0  0  0  0  0  0  0  0  0  0  0
  138.4288   67.2926  225.3721 H   0  0  0  0  0  0  0  0  0  0  0  0
  139.3180   69.2580  225.0900 C   0  0  0  0  0  0  0  0  0  0  0  0
  140.3760   70.1140  225.4280 C   0  0  0  0  0  0  0  0  0  0  0  0
  141.3790   69.6690  226.3010 C   0  0  0  0  0  0  0  0  0  0  0  0
  142.1980   70.3452  226.5874 H   0  0  0  0  0  0  0  0  0  0  0  0
  140.3970   71.5170  224.8740 C   0  0  0  0  0  0  0  0  0  0  0  0
  141.4352   71.8802  224.8560 H   0  0  0  0  0  0  0  0  0  0  0  0
  139.7741   72.1552  225.5179 H   0  0  0  0  0  0  0  0  0  0  0  0
  139.8490   71.5580  223.5050 N   0  0  0  0  0  0  0  0  0  0  0  0
  140.2870   72.5860  222.5990 C   0  0  0  0  0  0  0  0  0  0  0  0
  139.5460   73.7100  222.4230 N   0  0  0  0  0  0  0  0  0  0  0  0
  139.9560   74.6990  221.5840 C   0  0  0  0  0  0  0  0  0  0  0  0
  139.1280   75.8790  221.4180 N   0  0  0  0  0  0  0  0  0  0  0  0
  138.6090   76.5090  222.6480 C   0  0  0  0  0  0  0  0  0  0  0  0
  138.0577   75.7492  223.2214 H   0  0  0  0  0  0  0  0  0  0  0  0
  139.4763   76.9025  223.1984 H   0  0  0  0  0  0  0  0  0  0  0  0
  137.6740   77.6880  222.3860 C   0  0  0  0  0  0  0  0  0  0  0  0
  136.6766   77.3087  222.1191 H   0  0  0  0  0  0  0  0  0  0  0  0
  137.6099   78.3047  223.2946 H   0  0  0  0  0  0  0  0  0  0  0  0
  138.1890   78.5050  221.2900 N   0  0  0  0  0  0  0  0  0  0  0  0
  137.5680   79.3440  221.1950 H   0  0  0  0  0  0  0  0  0  0  0  0
  138.0890   77.7370  220.0520 C   0  0  0  0  0  0  0  0  0  0  0  0
  137.0501   77.4002  219.9208 H   0  0  0  0  0  0  0  0  0  0  0  0
  138.3944   78.3817  219.2147 H   0  0  0  0  0  0  0  0  0  0  0  0
  139.0120   76.5130  220.0870 C   0  0  0  0  0  0  0  0  0  0  0  0
  138.6202   75.7653  219.3817 H   0  0  0  0  0  0  0  0  0  0  0  0
  140.0177   76.8677  219.8172 H   0  0  0  0  0  0  0  0  0  0  0  0
  141.1420   74.5520  220.9180 N   0  0  0  0  0  0  0  0  0  0  0  0
  141.4890   75.2910  220.2700 H   0  0  0  0  0  0  0  0  0  0  0  0
  141.8850   73.4170  221.0730 C   0  0  0  0  0  0  0  0  0  0  0  0
  142.9990   73.2650  220.4080 N   0  0  0  0  0  0  0  0  0  0  0  0
  143.3140   72.3030  220.1450 H   0  0  0  0  0  0  0  0  0  0  0  0
  143.8520   74.3840  219.9860 C   0  0  0  0  0  0  0  0  0  0  0  0
  143.9258   75.1061  220.8125 H   0  0  0  0  0  0  0  0  0  0  0  0
  144.8404   73.9787  219.7236 H   0  0  0  0  0  0  0  0  0  0  0  0
  143.2870   75.1020  218.7470 C   0  0  0  0  0  0  0  0  0  0  0  0
  143.8859   74.8143  217.8703 H   0  0  0  0  0  0  0  0  0  0  0  0
  142.2350   74.7991  218.6392 H   0  0  0  0  0  0  0  0  0  0  0  0
  143.3170   76.6380  218.8820 C   0  0  0  0  0  0  0  0  0  0  0  0
  144.3621   76.9647  218.9874 H   0  0  0  0  0  0  0  0  0  0  0  0
  142.8544   77.0669  217.9809 H   0  0  0  0  0  0  0  0  0  0  0  0
  142.5190   77.1260  220.1030 C   0  0  0  0  0  0  0  0  0  0  0  0
  141.7565   76.3742  220.3547 H   0  0  0  0  0  0  0  0  0  0  0  0
  143.2209   77.2687  220.9379 H   0  0  0  0  0  0  0  0  0  0  0  0
  141.8230   78.4690  219.8250 C   0  0  0  0  0  0  0  0  0  0  0  0
  142.5605   79.1772  219.4193 H   0  0  0  0  0  0  0  0  0  0  0  0
  141.0109   78.2955  219.1036 H   0  0  0  0  0  0  0  0  0  0  0  0
  141.2360   79.0390  221.0600 N   0  0  0  0  0  0  0  0  0  0  0  0
  140.2010   79.1570  220.9350 H   0  0  0  0  0  0  0  0  0  0  0  0
  141.8230   80.3380  221.4420 C   0  0  0  0  0  0  0  0  0  0  0  0
  142.8342   80.4313  221.0193 H   0  0  0  0  0  0  0  0  0  0  0  0
  141.2104   81.1665  221.0569 H   0  0  0  0  0  0  0  0  0  0  0  0
  141.8900   80.3850  222.9680 C   0  0  0  0  0  0  0  0  0  0  0  0
  142.9264   80.5402  223.3022 H   0  0  0  0  0  0  0  0  0  0  0  0
  141.2929   81.2137  223.3762 H   0  0  0  0  0  0  0  0  0  0  0  0
  141.3770   79.0370  223.4410 C   0  0  0  0  0  0  0  0  0  0  0  0
  142.0135   78.6381  224.2446 H   0  0  0  0  0  0  0  0  0  0  0  0
  140.3597   79.0966  223.8552 H   0  0  0  0  0  0  0  0  0  0  0  0
  141.4500   78.1560  222.2120 C   0  0  0  0  0  0  0  0  0  0  0  0
  142.4373   77.6756  222.1457 H   0  0  0  0  0  0  0  0  0  0  0  0
  140.6963   77.3556  222.2481 H   0  0  0  0  0  0  0  0  0  0  0  0
  141.4480   72.4440  221.9140 N   0  0  0  0  0  0  0  0  0  0  0  0
  138.8490   70.5800  223.0350 C   0  0  0  0  0  0  0  0  0  0  0  0
  139.3359   69.8874  222.3328 H   0  0  0  0  0  0  0  0  0  0  0  0
  138.0351   71.1403  222.5516 H   0  0  0  0  0  0  0  0  0  0  0  0
  138.2380   69.7680  224.1820 C   0  0  0  0  0  0  0  0  0  0  0  0
  137.6802   68.9157  223.7667 H   0  0  0  0  0  0  0  0  0  0  0  0
  137.5610   70.4155  224.7586 H   0  0  0  0  0  0  0  0  0  0  0  0
  1  2  1  0
  2  3  2  0
  3  4  1  0
  3  5  1  0
  5  6  1  0
  5  7  2  0
  7  8  1  0
  8  9  2  0
  9 10  1  0
  8 11  1  0
 11 12  1  0
 11 13  1  0
 11 14  1  0
 14 15  1  0
 15 16  1  0
 16 17  2  0
 17 18  1  0
 18 19  1  0
 19 20  1  0
 19 21  1  0
 19 22  1  0
 22 23  1  0
 22 24  1  0
 22 25  1  0
 25 26  1  0
 25 27  1  0
 27 28  1  0
 27 29  1  0
 27 30  1  0
 30 31  1  0
 30 32  1  0
 17 33  1  0
 33 34  1  0
 33 35  1  0
 35 36  2  0
 36 37  1  0
 36 38  1  0
 38 39  1  0
 38 40  1  0
 38 41  1  0
 41 42  1  0
 41 43  1  0
 41 44  1  0
 44 45  1  0
 44 46  1  0
 44 47  1  0
 47 48  1  0
 47 49  1  0
 47 50  1  0
 50 51  1  0
 50 52  1  0
 50 53  1  0
 53 54  1  0
 53 55  1  0
 55 56  1  0
 55 57  1  0
 55 58  1  0
 58 59  1  0
 58 60  1  0
 58 61  1  0
 61 62  1  0
 61 63  1  0
 61 64  1  0
 64 65  1  0
 64 66  1  0
 35 67  1  0
 14 68  1  0
 68 69  1  0
 68 70  1  0
 68 71  1  0
 71 72  1  0
 71 73  1  0
  9  2  1  0
 67 15  2  0
 71  7  1  0
 30 18  1  0
 64 53  1  0
M  CHG  2  36   1  53   1
M  END
>  <UniqueID>  (6) 
480

>  <SMILES>  (6) 
c1ccc2c(c1)CCN(c1nc(N3CCNCC3)[nH]/c(=[NH+]/CCCCC[NH+]3CCCC3)n1)C2

>  <Energy>  (6) 
78.80274819762089

>  <Genealogy>  (6) 
c1ccc2c(c1)CCN(c1nc([NH2+]CCCCC[NH+]3CCCC3)nc(N3CCNCC3)n1)C2 (protonated)
c1ccc2c(c1)CCN(c1nc(N3CCNCC3)[nH]c(=[NH+]CCCCC[NH+]3CCCC3)n1)C2 (tautomer)
c1ccc2c(c1)CCN(c1nc(N3CCNCC3)[nH]/c(=[NH+]/CCCCC[NH+]3CCCC3)n1)C2 (cis-trans isomerization)
c1ccc2c(c1)CCN(c1nc(N3CCNCC3)[nH]/c(=[NH+]/CCCCC[NH+]3CCCC3)n1)C2 (3D coordinates assigned)
c1ccc2c(c1)CCN(c1nc(N3CCNCC3)[nH]/c(=[NH+]/CCCCC[NH+]3CCCC3)n1)C2 (nonaromatic ring conformer: 78.80274819762089 kcal/mol)

>  <smiles>  (6) 
c1ccc2c(c1)CCN(c1nc(NCCCCCN3CCCC3)nc(N3CCNCC3)n1)C2

>  <score_type>  (6) 
oracle

>  <origin>  (6) 
autodockgpu

>  <m_score__min__energy>  (6) 
-8.8200000000000003

>  <m_primary>  (6) 
energy

>  <meeko>  (6) 
{"free_energy": -7.19, "intermolecular_energy": -9.87, "internal_energy": -1.54, "cluster_size": 13, "cluster_id": 1, "rank_in_cluster": 11}

>  <energy>  (6) 
-8.44

>  <cluster_rmsd>  (6) 
1.78

>  <rmsd>  (6) 
270.94

>  <cluster>  (6) 
1

$$$$
MTUVCRSRZGPGQU-JVPWBLRANA-P
     RDKit          3D

 73 77  0  0  0  0  0  0  0  0999 V2000
  141.6566   68.9623  228.5353 H   0  0  0  0  0  0  0  0  0  0  0  0
  141.0730   68.9740  227.6030 C   0  0  0  0  0  0  0  0  0  0  0  0
  140.5230   67.7880  227.1110 C   0  0  0  0  0  0  0  0  0  0  0  0
  140.6663   66.8462  227.6609 H   0  0  0  0  0  0  0  0  0  0  0  0
  139.7910   67.7970  225.9210 C   0  0  0  0  0  0  0  0  0  0  0  0
  139.3473   66.8651  225.5407 H   0  0  0  0  0  0  0  0  0  0  0  0
  139.6220   68.9980  225.2100 C   0  0  0  0  0  0  0  0  0  0  0  0
  140.1700   70.1890  225.7060 C   0  0  0  0  0  0  0  0  0  0  0  0
  140.8840   70.1760  226.9140 C   0  0  0  0  0  0  0  0  0  0  0  0
  141.2954   71.1122  227.3193 H   0  0  0  0  0  0  0  0  0  0  0  0
  139.9500   71.4750  224.9500 C   0  0  0  0  0  0  0  0  0  0  0  0
  140.7601   72.1780  225.1940 H   0  0  0  0  0  0  0  0  0  0  0  0
  138.9749   71.8903  225.2446 H   0  0  0  0  0  0  0  0  0  0  0  0
  139.9380   71.2410  223.4930 N   0  0  0  0  0  0  0  0  0  0  0  0
  140.3270   72.3030  222.6040 C   0  0  0  0  0  0  0  0  0  0  0  0
  139.5310   73.3900  222.4410 N   0  0  0  0  0  0  0  0  0  0  0  0
  139.8940   74.4110  221.6180 C   0  0  0  0  0  0  0  0  0  0  0  0
  139.0070   75.5490  221.4640 N   0  0  0  0  0  0  0  0  0  0  0  0
  138.4930   76.1670  222.7030 C   0  0  0  0  0  0  0  0  0  0  0  0
  137.9930   75.3886  223.2981 H   0  0  0  0  0  0  0  0  0  0  0  0
  139.3557   76.6051  223.2262 H   0  0  0  0  0  0  0  0  0  0  0  0
  137.4980   77.2990  222.4560 C   0  0  0  0  0  0  0  0  0  0  0  0
  136.5125   76.8714  222.2198 H   0  0  0  0  0  0  0  0  0  0  0  0
  137.4305   77.9212  223.3606 H   0  0  0  0  0  0  0  0  0  0  0  0
  137.9440   78.1280  221.3400 N   0  0  0  0  0  0  0  0  0  0  0  0
  137.2810   78.9370  221.2550 H   0  0  0  0  0  0  0  0  0  0  0  0
  137.8460   77.3440  220.1120 C   0  0  0  0  0  0  0  0  0  0  0  0
  136.8207   76.9581  220.0129 H   0  0  0  0  0  0  0  0  0  0  0  0
  138.0981   77.9941  219.2612 H   0  0  0  0  0  0  0  0  0  0  0  0
  138.8250   76.1650  220.1310 C   0  0  0  0  0  0  0  0  0  0  0  0
  138.4492   75.3935  219.4429 H   0  0  0  0  0  0  0  0  0  0  0  0
  139.8053   76.5633  219.8304 H   0  0  0  0  0  0  0  0  0  0  0  0
  141.0870   74.3340  220.9550 N   0  0  0  0  0  0  0  0  0  0  0  0
  141.3990   75.0990  220.3180 H   0  0  0  0  0  0  0  0  0  0  0  0
  141.8870   73.2360  221.0970 C   0  0  0  0  0  0  0  0  0  0  0  0
  143.0090   73.1500  220.4350 N   0  0  0  0  0  0  0  0  0  0  0  0
  143.3010   72.2300  220.0320 H   0  0  0  0  0  0  0  0  0  0  0  0
  143.9050   74.2910  220.2040 C   0  0  0  0  0  0  0  0  0  0  0  0
  143.9639   74.8889  221.1255 H   0  0  0  0  0  0  0  0  0  0  0  0
  144.8926   73.8967  219.9225 H   0  0  0  0  0  0  0  0  0  0  0  0
  143.4070   75.1910  219.0580 C   0  0  0  0  0  0  0  0  0  0  0  0
  144.0930   75.0856  218.2046 H   0  0  0  0  0  0  0  0  0  0  0  0
  142.3866   74.8689  218.8029 H   0  0  0  0  0  0  0  0  0  0  0  0
  143.3390   76.6800  219.4550 C   0  0  0  0  0  0  0  0  0  0  0  0
  143.8479   76.8132  220.4211 H   0  0  0  0  0  0  0  0  0  0  0  0
  143.8285   77.2648  218.6623 H   0  0  0  0  0  0  0  0  0  0  0  0
  141.8900   77.1780  219.5850 C   0  0  0  0  0  0  0  0  0  0  0  0
  141.4044   77.1244  218.5995 H   0  0  0  0  0  0  0  0  0  0  0  0
  141.3708   76.5388  220.3143 H   0  0  0  0  0  0  0  0  0  0  0  0
  141.8330   78.6290  220.0910 C   0  0  0  0  0  0  0  0  0  0  0  0
  142.5355   79.2400  219.5052 H   0  0  0  0  0  0  0  0  0  0  0  0
  140.8030   78.9964  219.9726 H   0  0  0  0  0  0  0  0  0  0  0  0
  142.1970   78.7170  221.5240 N   0  0  0  0  0  0  0  0  0  0  0  0
  143.1340   78.2690  221.6770 H   0  0  0  0  0  0  0  0  0  0  0  0
  141.2110   78.0820  222.4190 C   0  0  0  0  0  0  0  0  0  0  0  0
  140.2263   78.0507  221.9298 H   0  0  0  0  0  0  0  0  0  0  0  0
  141.5122   77.0507  222.6548 H   0  0  0  0  0  0  0  0  0  0  0  0
  141.1330   78.9220  223.6930 C   0  0  0  0  0  0  0  0  0  0  0  0
  140.1042   79.2746  223.8580 H   0  0  0  0  0  0  0  0  0  0  0  0
  141.4205   78.3409  224.5817 H   0  0  0  0  0  0  0  0  0  0  0  0
  142.0660   80.0980  223.4650 C   0  0  0  0  0  0  0  0  0  0  0  0
  141.5985   81.0365  223.7976 H   0  0  0  0  0  0  0  0  0  0  0  0
  143.0050   80.0053  224.0303 H   0  0  0  0  0  0  0  0  0  0  0  0
  142.2910   80.1120  221.9680 C   0  0  0  0  0  0  0  0  0  0  0  0
  141.5210   80.7219  221.4729 H   0  0  0  0  0  0  0  0  0  0  0  0
  143.2692   80.5469  221.7150 H   0  0  0  0  0  0  0  0  0  0  0  0
  141.4970   72.2300  221.9220 N   0  0  0  0  0  0  0  0  0  0  0  0
  139.5260   69.9490  222.9140 C   0  0  0  0  0  0  0  0  0  0  0  0
  140.4193   69.4323  222.5332 H   0  0  0  0  0  0  0  0  0  0  0  0
  138.8056   70.1580  222.1094 H   0  0  0  0  0  0  0  0  0  0  0  0
  138.8320   69.0420  223.9360 C   0  0  0  0  0  0  0  0  0  0  0  0
  138.7507   68.0255  223.5236 H   0  0  0  0  0  0  0  0  0  0  0  0
  137.8297   69.4422  224.1488 H   0  0  0  0  0  0  0  0  0  0  0  0
  1  2  1  0
  2  3  2  0
  3  4  1  0
  3  5  1  0
  5  6  1  0
  5  7  2  0
  7  8  1  0
  8  9  2  0
  9 10  1  0
  8 11  1  0
 11 12  1  0
 11 13  1  0
 11 14  1  0
 14 15  1  0
 15 16  1  0
 16 17  2  0
 17 18  1  0
 18 19  1  0
 19 20  1  0
 19 21  1  0
 19 22  1  0
 22 23  1  0
 22 24  1  0
 22 25  1  0
 25 26  1  0
 25 27  1  0
 27 28  1  0
 27 29  1  0
 27 30  1  0
 30 31  1  0
 30 32  1  0
 17 33  1  0
 33 34  1  0
 33 35  1  0
 35 36  2  0
 36 37  1  0
 36 38  1  0
 38 39  1  0
 38 40  1  0
 38 41  1  0
 41 42  1  0
 41 43  1  0
 41 44  1  0
 44 45  1  0
 44 46  1  0
 44 47  1  0
 47 48  1  0
 47 49  1  0
 47 50  1  0
 50 51  1  0
 50 52  1  0
 50 53  1  0
 53 54  1  0
 53 55  1  0
 55 56  1  0
 55 57  1  0
 55 58  1  0
 58 59  1  0
 58 60  1  0
 58 61  1  0
 61 62  1  0
 61 63  1  0
 61 64  1  0
 64 65  1  0
 64 66  1  0
 35 67  1  0
 14 68  1  0
 68 69  1  0
 68 70  1  0
 68 71  1  0
 71 72  1  0
 71 73  1  0
  9  2  1  0
 67 15  2  0
 71  7  1  0
 30 18  1  0
 64 53  1  0
M  CHG  2  36   1  53   1
M  END
>  <UniqueID>  (7) 
480

>  <SMILES>  (7) 
c1ccc2c(c1)CCN(c1nc(N3CCNCC3)[nH]/c(=[NH+]/CCCCC[NH+]3CCCC3)n1)C2

>  <Energy>  (7) 
78.80274819762089

>  <Genealogy>  (7) 
c1ccc2c(c1)CCN(c1nc([NH2+]CCCCC[NH+]3CCCC3)nc(N3CCNCC3)n1)C2 (protonated)
c1ccc2c(c1)CCN(c1nc(N3CCNCC3)[nH]c(=[NH+]CCCCC[NH+]3CCCC3)n1)C2 (tautomer)
c1ccc2c(c1)CCN(c1nc(N3CCNCC3)[nH]/c(=[NH+]/CCCCC[NH+]3CCCC3)n1)C2 (cis-trans isomerization)
c1ccc2c(c1)CCN(c1nc(N3CCNCC3)[nH]/c(=[NH+]/CCCCC[NH+]3CCCC3)n1)C2 (3D coordinates assigned)
c1ccc2c(c1)CCN(c1nc(N3CCNCC3)[nH]/c(=[NH+]/CCCCC[NH+]3CCCC3)n1)C2 (nonaromatic ring conformer: 78.80274819762089 kcal/mol)

>  <smiles>  (7) 
c1ccc2c(c1)CCN(c1nc(NCCCCCN3CCCC3)nc(N3CCNCC3)n1)C2

>  <score_type>  (7) 
oracle

>  <origin>  (7) 
autodockgpu

>  <m_score__min__energy>  (7) 
-8.8200000000000003

>  <m_primary>  (7) 
energy

>  <meeko>  (7) 
{"free_energy": -8.07, "intermolecular_energy": -10.76, "internal_energy": -0.77, "cluster_size": 13, "cluster_id": 1, "rank_in_cluster": 8}

>  <energy>  (7) 
-8.41

>  <cluster_rmsd>  (7) 
1.61

>  <rmsd>  (7) 
270.72

>  <cluster>  (7) 
1

$$$$
MTUVCRSRZGPGQU-JVPWBLRANA-P
     RDKit          3D

 73 77  0  0  0  0  0  0  0  0999 V2000
  141.6707   69.0780  228.7678 H   0  0  0  0  0  0  0  0  0  0  0  0
  141.0690   69.0670  227.8470 C   0  0  0  0  0  0  0  0  0  0  0  0
  140.4740   67.8780  227.4170 C   0  0  0  0  0  0  0  0  0  0  0  0
  140.6008   66.9568  228.0047 H   0  0  0  0  0  0  0  0  0  0  0  0
  139.7190   67.8570  226.2430 C   0  0  0  0  0  0  0  0  0  0  0  0
  139.2403   66.9232  225.9130 H   0  0  0  0  0  0  0  0  0  0  0  0
  139.5710   69.0300  225.4830 C   0  0  0  0  0  0  0  0  0  0  0  0
  140.1630   70.2250  225.9160 C   0  0  0  0  0  0  0  0  0  0  0  0
  140.9010   70.2430  227.1090 C   0  0  0  0  0  0  0  0  0  0  0  0
  141.3480   71.1832  227.4643 H   0  0  0  0  0  0  0  0  0  0  0  0
  139.9650   71.4830  225.1080 C   0  0  0  0  0  0  0  0  0  0  0  0
  140.7998   72.1716  225.3056 H   0  0  0  0  0  0  0  0  0  0  0  0
  139.0082   71.9391  225.4022 H   0  0  0  0  0  0  0  0  0  0  0  0
  139.9170   71.1870  223.6640 N   0  0  0  0  0  0  0  0  0  0  0  0
  140.3180   72.1970  222.7220 C   0  0  0  0  0  0  0  0  0  0  0  0
  139.5620   73.3110  222.5430 N   0  0  0  0  0  0  0  0  0  0  0  0
  139.9380   74.2840  221.6690 C   0  0  0  0  0  0  0  0  0  0  0  0
  139.0940   75.4520  221.5010 N   0  0  0  0  0  0  0  0  0  0  0  0
  138.8530   76.2790  222.7010 C   0  0  0  0  0  0  0  0  0  0  0  0
  138.4372   75.6345  223.4895 H   0  0  0  0  0  0  0  0  0  0  0  0
  139.8189   76.7208  222.9871 H   0  0  0  0  0  0  0  0  0  0  0  0
  137.8850   77.4360  222.4630 C   0  0  0  0  0  0  0  0  0  0  0  0
  136.8531   77.0551  222.4760 H   0  0  0  0  0  0  0  0  0  0  0  0
  138.0185   78.1852  223.2573 H   0  0  0  0  0  0  0  0  0  0  0  0
  138.1530   78.0590  221.1700 N   0  0  0  0  0  0  0  0  0  0  0  0
  137.5270   78.8960  221.0790 H   0  0  0  0  0  0  0  0  0  0  0  0
  137.7880   77.1170  220.1150 C   0  0  0  0  0  0  0  0  0  0  0  0
  136.7447   76.8002  220.2608 H   0  0  0  0  0  0  0  0  0  0  0  0
  137.9067   77.6170  219.1424 H   0  0  0  0  0  0  0  0  0  0  0  0
  138.6960   75.8810  220.1430 C   0  0  0  0  0  0  0  0  0  0  0  0
  138.1613   75.0491  219.6613 H   0  0  0  0  0  0  0  0  0  0  0  0
  139.6208   76.1560  219.6146 H   0  0  0  0  0  0  0  0  0  0  0  0
  141.1040   74.1310  220.9700 N   0  0  0  0  0  0  0  0  0  0  0  0
  141.4250   74.8570  220.2950 H   0  0  0  0  0  0  0  0  0  0  0  0
  141.8610   73.0060  221.1280 C   0  0  0  0  0  0  0  0  0  0  0  0
  142.9560   72.8480  220.4330 N   0  0  0  0  0  0  0  0  0  0  0  0
  143.1390   71.9320  219.9620 H   0  0  0  0  0  0  0  0  0  0  0  0
  143.9650   73.9000  220.2560 C   0  0  0  0  0  0  0  0  0  0  0  0
  144.1185   74.4111  221.2179 H   0  0  0  0  0  0  0  0  0  0  0  0
  144.8941   73.4262  219.9063 H   0  0  0  0  0  0  0  0  0  0  0  0
  143.5330   74.9380  219.2040 C   0  0  0  0  0  0  0  0  0  0  0  0
  144.1632   74.8167  218.3106 H   0  0  0  0  0  0  0  0  0  0  0  0
  142.4707   74.7612  218.9799 H   0  0  0  0  0  0  0  0  0  0  0  0
  143.6670   76.3900  219.7090 C   0  0  0  0  0  0  0  0  0  0  0  0
  143.8152   76.3744  220.7989 H   0  0  0  0  0  0  0  0  0  0  0  0
  144.5251   76.8494  219.1965 H   0  0  0  0  0  0  0  0  0  0  0  0
  142.4190   77.2300  219.3900 C   0  0  0  0  0  0  0  0  0  0  0  0
  142.7372   78.2231  219.0399 H   0  0  0  0  0  0  0  0  0  0  0  0
  141.8411   76.7063  218.6143 H   0  0  0  0  0  0  0  0  0  0  0  0
  141.5200   77.4010  220.6260 C   0  0  0  0  0  0  0  0  0  0  0  0
  140.5165   77.7101  220.2982 H   0  0  0  0  0  0  0  0  0  0  0  0
  141.4788   76.4395  221.1588 H   0  0  0  0  0  0  0  0  0  0  0  0
  142.0600   78.4230  221.5520 N   0  0  0  0  0  0  0  0  0  0  0  0
  143.1020   78.3190  221.6200 H   0  0  0  0  0  0  0  0  0  0  0  0
  141.4820   78.3500  222.9070 C   0  0  0  0  0  0  0  0  0  0  0  0
  140.4935   77.8690  222.8675 H   0  0  0  0  0  0  0  0  0  0  0  0
  142.1281   77.7567  223.5707 H   0  0  0  0  0  0  0  0  0  0  0  0
  141.3450   79.7800  223.4300 C   0  0  0  0  0  0  0  0  0  0  0  0
  140.2973   79.9967  223.6857 H   0  0  0  0  0  0  0  0  0  0  0  0
  141.9381   79.9383  224.3428 H   0  0  0  0  0  0  0  0  0  0  0  0
  141.8100   80.6760  222.2950 C   0  0  0  0  0  0  0  0  0  0  0  0
  141.1294   81.5311  222.1696 H   0  0  0  0  0  0  0  0  0  0  0  0
  142.8078   81.1017  222.4772 H   0  0  0  0  0  0  0  0  0  0  0  0
  141.7770   79.7810  221.0750 C   0  0  0  0  0  0  0  0  0  0  0  0
  140.7849   79.8192  220.6015 H   0  0  0  0  0  0  0  0  0  0  0  0
  142.5136   80.1022  220.3238 H   0  0  0  0  0  0  0  0  0  0  0  0
  141.4590   72.0480  222.0050 N   0  0  0  0  0  0  0  0  0  0  0  0
  139.4550   69.8840  223.1490 C   0  0  0  0  0  0  0  0  0  0  0  0
  140.3245   69.3246  222.7733 H   0  0  0  0  0  0  0  0  0  0  0  0
  138.7247   70.0799  222.3501 H   0  0  0  0  0  0  0  0  0  0  0  0
  138.7560   69.0430  224.2240 C   0  0  0  0  0  0  0  0  0  0  0  0
  138.6361   68.0126  223.8582 H   0  0  0  0  0  0  0  0  0  0  0  0
  137.7707   69.4824  224.4389 H   0  0  0  0  0  0  0  0  0  0  0  0
  1  2  1  0
  2  3  2  0
  3  4  1  0
  3  5  1  0
  5  6  1  0
  5  7  2  0
  7  8  1  0
  8  9  2  0
  9 10  1  0
  8 11  1  0
 11 12  1  0
 11 13  1  0
 11 14  1  0
 14 15  1  0
 15 16  1  0
 16 17  2  0
 17 18  1  0
 18 19  1  0
 19 20  1  0
 19 21  1  0
 19 22  1  0
 22 23  1  0
 22 24  1  0
 22 25  1  0
 25 26  1  0
 25 27  1  0
 27 28  1  0
 27 29  1  0
 27 30  1  0
 30 31  1  0
 30 32  1  0
 17 33  1  0
 33 34  1  0
 33 35  1  0
 35 36  2  0
 36 37  1  0
 36 38  1  0
 38 39  1  0
 38 40  1  0
 38 41  1  0
 41 42  1  0
 41 43  1  0
 41 44  1  0
 44 45  1  0
 44 46  1  0
 44 47  1  0
 47 48  1  0
 47 49  1  0
 47 50  1  0
 50 51  1  0
 50 52  1  0
 50 53  1  0
 53 54  1  0
 53 55  1  0
 55 56  1  0
 55 57  1  0
 55 58  1  0
 58 59  1  0
 58 60  1  0
 58 61  1  0
 61 62  1  0
 61 63  1  0
 61 64  1  0
 64 65  1  0
 64 66  1  0
 35 67  1  0
 14 68  1  0
 68 69  1  0
 68 70  1  0
 68 71  1  0
 71 72  1  0
 71 73  1  0
  9  2  1  0
 67 15  2  0
 71  7  1  0
 30 18  1  0
 64 53  1  0
M  CHG  2  36   1  53   1
M  END
>  <UniqueID>  (8) 
480

>  <SMILES>  (8) 
c1ccc2c(c1)CCN(c1nc(N3CCNCC3)[nH]/c(=[NH+]/CCCCC[NH+]3CCCC3)n1)C2

>  <Energy>  (8) 
78.80274819762089

>  <Genealogy>  (8) 
c1ccc2c(c1)CCN(c1nc([NH2+]CCCCC[NH+]3CCCC3)nc(N3CCNCC3)n1)C2 (protonated)
c1ccc2c(c1)CCN(c1nc(N3CCNCC3)[nH]c(=[NH+]CCCCC[NH+]3CCCC3)n1)C2 (tautomer)
c1ccc2c(c1)CCN(c1nc(N3CCNCC3)[nH]/c(=[NH+]/CCCCC[NH+]3CCCC3)n1)C2 (cis-trans isomerization)
c1ccc2c(c1)CCN(c1nc(N3CCNCC3)[nH]/c(=[NH+]/CCCCC[NH+]3CCCC3)n1)C2 (3D coordinates assigned)
c1ccc2c(c1)CCN(c1nc(N3CCNCC3)[nH]/c(=[NH+]/CCCCC[NH+]3CCCC3)n1)C2 (nonaromatic ring conformer: 78.80274819762089 kcal/mol)

>  <smiles>  (8) 
c1ccc2c(c1)CCN(c1nc(NCCCCCN3CCCC3)nc(N3CCNCC3)n1)C2

>  <score_type>  (8) 
oracle

>  <origin>  (8) 
autodockgpu

>  <m_score__min__energy>  (8) 
-8.8200000000000003

>  <m_primary>  (8) 
energy

>  <meeko>  (8) 
{"free_energy": -8.0, "intermolecular_energy": -10.69, "internal_energy": -0.81, "cluster_size": 13, "cluster_id": 1, "rank_in_cluster": 9}

>  <energy>  (8) 
-8.07

>  <cluster_rmsd>  (8) 
1.74

>  <rmsd>  (8) 
270.95

>  <cluster>  (8) 
1

$$$$
MTUVCRSRZGPGQU-JVPWBLRANA-P
     RDKit          3D

 73 77  0  0  0  0  0  0  0  0999 V2000
  141.6815   68.8731  228.3855 H   0  0  0  0  0  0  0  0  0  0  0  0
  141.0730   68.9310  227.4710 C   0  0  0  0  0  0  0  0  0  0  0  0
  140.4540   67.7820  226.9720 C   0  0  0  0  0  0  0  0  0  0  0  0
  140.5701   66.8229  227.4980 H   0  0  0  0  0  0  0  0  0  0  0  0
  139.6880   67.8500  225.8060 C   0  0  0  0  0  0  0  0  0  0  0  0
  139.1892   66.9480  225.4217 H   0  0  0  0  0  0  0  0  0  0  0  0
  139.5550   69.0720  225.1240 C   0  0  0  0  0  0  0  0  0  0  0  0
  140.1730   70.2260  225.6270 C   0  0  0  0  0  0  0  0  0  0  0  0
  140.9210   70.1540  226.8110 C   0  0  0  0  0  0  0  0  0  0  0  0
  141.3888   71.0612  227.2211 H   0  0  0  0  0  0  0  0  0  0  0  0
  139.9910   71.5360  224.9030 C   0  0  0  0  0  0  0  0  0  0  0  0
  140.8399   72.1957  225.1359 H   0  0  0  0  0  0  0  0  0  0  0  0
  139.0452   71.9890  225.2351 H   0  0  0  0  0  0  0  0  0  0  0  0
  139.9250   71.3340  223.4430 N   0  0  0  0  0  0  0  0  0  0  0  0
  140.3360   72.3950  222.5640 C   0  0  0  0  0  0  0  0  0  0  0  0
  139.5600   73.4980  222.4050 N   0  0  0  0  0  0  0  0  0  0  0  0
  139.9450   74.5180  221.5910 C   0  0  0  0  0  0  0  0  0  0  0  0
  139.0790   75.6730  221.4420 N   0  0  0  0  0  0  0  0  0  0  0  0
  138.6880   76.3790  222.6780 C   0  0  0  0  0  0  0  0  0  0  0  0
  138.2199   75.6532  223.3592 H   0  0  0  0  0  0  0  0  0  0  0  0
  139.6033   76.8204  223.0993 H   0  0  0  0  0  0  0  0  0  0  0  0
  137.7060   77.5250  222.4460 C   0  0  0  0  0  0  0  0  0  0  0  0
  136.6929   77.1156  222.3191 H   0  0  0  0  0  0  0  0  0  0  0  0
  137.7315   78.2011  223.3133 H   0  0  0  0  0  0  0  0  0  0  0  0
  138.0780   78.2720  221.2480 N   0  0  0  0  0  0  0  0  0  0  0  0
  137.4320   79.0950  221.1680 H   0  0  0  0  0  0  0  0  0  0  0  0
  137.8550   77.4210  220.0820 C   0  0  0  0  0  0  0  0  0  0  0  0
  136.8150   77.0629  220.0918 H   0  0  0  0  0  0  0  0  0  0  0  0
  138.0510   78.0114  219.1748 H   0  0  0  0  0  0  0  0  0  0  0  0
  138.8010   76.2140  220.0930 C   0  0  0  0  0  0  0  0  0  0  0  0
  138.3478   75.4151  219.4877 H   0  0  0  0  0  0  0  0  0  0  0  0
  139.7625   76.5625  219.6881 H   0  0  0  0  0  0  0  0  0  0  0  0
  141.1400   74.4250  220.9330 N   0  0  0  0  0  0  0  0  0  0  0  0
  141.4690   75.1890  220.3040 H   0  0  0  0  0  0  0  0  0  0  0  0
  141.9190   73.3120  221.0710 C   0  0  0  0  0  0  0  0  0  0  0  0
  143.0440   73.2120  220.4130 N   0  0  0  0  0  0  0  0  0  0  0  0
  143.3210   72.2900  220.0050 H   0  0  0  0  0  0  0  0  0  0  0  0
  143.9610   74.3380  220.1960 C   0  0  0  0  0  0  0  0  0  0  0  0
  143.9452   74.9859  221.0848 H   0  0  0  0  0  0  0  0  0  0  0  0
  144.9672   73.9293  220.0210 H   0  0  0  0  0  0  0  0  0  0  0  0
  143.5640   75.1730  218.9640 C   0  0  0  0  0  0  0  0  0  0  0  0
  144.3360   75.0476  218.1905 H   0  0  0  0  0  0  0  0  0  0  0  0
  142.5823   74.8134  218.6219 H   0  0  0  0  0  0  0  0  0  0  0  0
  143.4240   76.6760  219.2820 C   0  0  0  0  0  0  0  0  0  0  0  0
  143.8699   76.8732  220.2681 H   0  0  0  0  0  0  0  0  0  0  0  0
  143.9406   77.2396  218.4911 H   0  0  0  0  0  0  0  0  0  0  0  0
  141.9550   77.1270  219.3030 C   0  0  0  0  0  0  0  0  0  0  0  0
  141.4892   76.8703  218.3401 H   0  0  0  0  0  0  0  0  0  0  0  0
  141.4498   76.6130  220.1340 H   0  0  0  0  0  0  0  0  0  0  0  0
  141.8300   78.6430  219.5290 C   0  0  0  0  0  0  0  0  0  0  0  0
  142.8377   79.0787  219.5982 H   0  0  0  0  0  0  0  0  0  0  0  0
  141.2751   79.0743  218.6828 H   0  0  0  0  0  0  0  0  0  0  0  0
  141.0880   78.9450  220.7750 N   0  0  0  0  0  0  0  0  0  0  0  0
  140.0580   78.8410  220.6040 H   0  0  0  0  0  0  0  0  0  0  0  0
  141.3520   80.2970  221.3010 C   0  0  0  0  0  0  0  0  0  0  0  0
  142.3296   80.6536  220.9443 H   0  0  0  0  0  0  0  0  0  0  0  0
  140.5807   81.0018  220.9570 H   0  0  0  0  0  0  0  0  0  0  0  0
  141.3550   80.2090  222.8270 C   0  0  0  0  0  0  0  0  0  0  0  0
  142.3174   80.5574  223.2299 H   0  0  0  0  0  0  0  0  0  0  0  0
  140.5724   80.8405  223.2729 H   0  0  0  0  0  0  0  0  0  0  0  0
  141.1450   78.7410  223.1510 C   0  0  0  0  0  0  0  0  0  0  0  0
  141.8284   78.4167  223.9497 H   0  0  0  0  0  0  0  0  0  0  0  0
  140.1275   78.5322  223.5131 H   0  0  0  0  0  0  0  0  0  0  0  0
  141.4560   78.0230  221.8550 C   0  0  0  0  0  0  0  0  0  0  0  0
  142.5278   77.7816  221.8010 H   0  0  0  0  0  0  0  0  0  0  0  0
  140.9008   77.0764  221.7791 H   0  0  0  0  0  0  0  0  0  0  0  0
  141.5080   72.3070  221.8870 N   0  0  0  0  0  0  0  0  0  0  0  0
  139.4360   70.0750  222.8510 C   0  0  0  0  0  0  0  0  0  0  0  0
  140.2924   69.5260  222.4325 H   0  0  0  0  0  0  0  0  0  0  0  0
  138.7026   70.3342  222.0733 H   0  0  0  0  0  0  0  0  0  0  0  0
  138.7310   69.1790  223.8760 C   0  0  0  0  0  0  0  0  0  0  0  0
  138.5906   68.1762  223.4463 H   0  0  0  0  0  0  0  0  0  0  0  0
  137.7551   69.6201  224.1271 H   0  0  0  0  0  0  0  0  0  0  0  0
  1  2  1  0
  2  3  2  0
  3  4  1  0
  3  5  1  0
  5  6  1  0
  5  7  2  0
  7  8  1  0
  8  9  2  0
  9 10  1  0
  8 11  1  0
 11 12  1  0
 11 13  1  0
 11 14  1  0
 14 15  1  0
 15 16  1  0
 16 17  2  0
 17 18  1  0
 18 19  1  0
 19 20  1  0
 19 21  1  0
 19 22  1  0
 22 23  1  0
 22 24  1  0
 22 25  1  0
 25 26  1  0
 25 27  1  0
 27 28  1  0
 27 29  1  0
 27 30  1  0
 30 31  1  0
 30 32  1  0
 17 33  1  0
 33 34  1  0
 33 35  1  0
 35 36  2  0
 36 37  1  0
 36 38  1  0
 38 39  1  0
 38 40  1  0
 38 41  1  0
 41 42  1  0
 41 43  1  0
 41 44  1  0
 44 45  1  0
 44 46  1  0
 44 47  1  0
 47 48  1  0
 47 49  1  0
 47 50  1  0
 50 51  1  0
 50 52  1  0
 50 53  1  0
 53 54  1  0
 53 55  1  0
 55 56  1  0
 55 57  1  0
 55 58  1  0
 58 59  1  0
 58 60  1  0
 58 61  1  0
 61 62  1  0
 61 63  1  0
 61 64  1  0
 64 65  1  0
 64 66  1  0
 35 67  1  0
 14 68  1  0
 68 69  1  0
 68 70  1  0
 68 71  1  0
 71 72  1  0
 71 73  1  0
  9  2  1  0
 67 15  2  0
 71  7  1  0
 30 18  1  0
 64 53  1  0
M  CHG  2  36   1  53   1
M  END
>  <UniqueID>  (9) 
480

>  <SMILES>  (9) 
c1ccc2c(c1)CCN(c1nc(N3CCNCC3)[nH]/c(=[NH+]/CCCCC[NH+]3CCCC3)n1)C2

>  <Energy>  (9) 
78.80274819762089

>  <Genealogy>  (9) 
c1ccc2c(c1)CCN(c1nc([NH2+]CCCCC[NH+]3CCCC3)nc(N3CCNCC3)n1)C2 (protonated)
c1ccc2c(c1)CCN(c1nc(N3CCNCC3)[nH]c(=[NH+]CCCCC[NH+]3CCCC3)n1)C2 (tautomer)
c1ccc2c(c1)CCN(c1nc(N3CCNCC3)[nH]/c(=[NH+]/CCCCC[NH+]3CCCC3)n1)C2 (cis-trans isomerization)
c1ccc2c(c1)CCN(c1nc(N3CCNCC3)[nH]/c(=[NH+]/CCCCC[NH+]3CCCC3)n1)C2 (3D coordinates assigned)
c1ccc2c(c1)CCN(c1nc(N3CCNCC3)[nH]/c(=[NH+]/CCCCC[NH+]3CCCC3)n1)C2 (nonaromatic ring conformer: 78.80274819762089 kcal/mol)

>  <smiles>  (9) 
c1ccc2c(c1)CCN(c1nc(NCCCCCN3CCCC3)nc(N3CCNCC3)n1)C2

>  <score_type>  (9) 
oracle

>  <origin>  (9) 
autodockgpu

>  <m_score__min__energy>  (9) 
-8.8200000000000003

>  <m_primary>  (9) 
energy

>  <meeko>  (9) 
{"free_energy": -7.03, "intermolecular_energy": -9.72, "internal_energy": -1.67, "cluster_size": 13, "cluster_id": 1, "rank_in_cluster": 13}

>  <energy>  (9) 
-8.0

>  <cluster_rmsd>  (9) 
1.7

>  <rmsd>  (9) 
270.97

>  <cluster>  (9) 
1

$$$$
MTUVCRSRZGPGQU-JVPWBLRANA-P
     RDKit          3D

 73 77  0  0  0  0  0  0  0  0999 V2000
  141.8685   69.7541  229.1132 H   0  0  0  0  0  0  0  0  0  0  0  0
  141.2970   69.5160  228.2040 C   0  0  0  0  0  0  0  0  0  0  0  0
  141.0480   68.1840  227.8670 C   0  0  0  0  0  0  0  0  0  0  0  0
  141.4164   67.3754  228.5154 H   0  0  0  0  0  0  0  0  0  0  0  0
  140.3320   67.8770  226.7080 C   0  0  0  0  0  0  0  0  0  0  0  0
  140.1244   66.8279  226.4506 H   0  0  0  0  0  0  0  0  0  0  0  0
  139.8770   68.9100  225.8710 C   0  0  0  0  0  0  0  0  0  0  0  0
  140.1230   70.2480  226.2110 C   0  0  0  0  0  0  0  0  0  0  0  0
  140.8220   70.5480  227.3890 C   0  0  0  0  0  0  0  0  0  0  0  0
  140.9968   71.5964  227.6722 H   0  0  0  0  0  0  0  0  0  0  0  0
  139.5970   71.3450  225.3210 C   0  0  0  0  0  0  0  0  0  0  0  0
  140.2137   72.2454  225.4586 H   0  0  0  0  0  0  0  0  0  0  0  0
  138.5511   71.5454  225.5964 H   0  0  0  0  0  0  0  0  0  0  0  0
  139.6380   70.9460  223.9010 N   0  0  0  0  0  0  0  0  0  0  0  0
  139.7570   71.9570  222.8850 C   0  0  0  0  0  0  0  0  0  0  0  0
  140.9670   72.2530  222.3450 N   0  0  0  0  0  0  0  0  0  0  0  0
  141.0920   73.1940  221.3710 C   0  0  0  0  0  0  0  0  0  0  0  0
  142.4060   73.4860  220.8300 N   0  0  0  0  0  0  0  0  0  0  0  0
  142.6910   74.8960  220.4920 C   0  0  0  0  0  0  0  0  0  0  0  0
  141.9183   75.2488  219.7931 H   0  0  0  0  0  0  0  0  0  0  0  0
  142.6909   75.4598  221.4365 H   0  0  0  0  0  0  0  0  0  0  0  0
  144.0580   75.1070  219.8460 C   0  0  0  0  0  0  0  0  0  0  0  0
  144.0048   74.8279  218.7833 H   0  0  0  0  0  0  0  0  0  0  0  0
  144.3412   76.1656  219.9423 H   0  0  0  0  0  0  0  0  0  0  0  0
  145.0630   74.2820  220.5120 N   0  0  0  0  0  0  0  0  0  0  0  0
  145.9980   74.5150  220.0970 H   0  0  0  0  0  0  0  0  0  0  0  0
  144.7840   72.8800  220.2150 C   0  0  0  0  0  0  0  0  0  0  0  0
  144.7343   72.7466  219.1242 H   0  0  0  0  0  0  0  0  0  0  0  0
  145.5892   72.2647  220.6428 H   0  0  0  0  0  0  0  0  0  0  0  0
  143.4520   72.4400  220.8350 C   0  0  0  0  0  0  0  0  0  0  0  0
  143.0771   71.5746  220.2689 H   0  0  0  0  0  0  0  0  0  0  0  0
  143.6571   72.2031  221.8894 H   0  0  0  0  0  0  0  0  0  0  0  0
  139.9710   73.8410  220.9280 N   0  0  0  0  0  0  0  0  0  0  0  0
  140.0280   74.5660  220.1810 H   0  0  0  0  0  0  0  0  0  0  0  0
  138.7520   73.5660  221.4780 C   0  0  0  0  0  0  0  0  0  0  0  0
  137.6890   74.2110  221.0780 N   0  0  0  0  0  0  0  0  0  0  0  0
  137.3940   74.1450  220.0760 H   0  0  0  0  0  0  0  0  0  0  0  0
  136.8570   75.0340  221.9640 C   0  0  0  0  0  0  0  0  0  0  0  0
  136.0894   75.5412  221.3611 H   0  0  0  0  0  0  0  0  0  0  0  0
  136.3992   74.3718  222.7136 H   0  0  0  0  0  0  0  0  0  0  0  0
  137.6870   76.0960  222.7090 C   0  0  0  0  0  0  0  0  0  0  0  0
  137.0146   76.6760  223.3583 H   0  0  0  0  0  0  0  0  0  0  0  0
  138.4579   75.5675  223.2889 H   0  0  0  0  0  0  0  0  0  0  0  0
  138.4090   77.0680  221.7530 C   0  0  0  0  0  0  0  0  0  0  0  0
  138.8361   76.4929  220.9182 H   0  0  0  0  0  0  0  0  0  0  0  0
  137.6719   77.8021  221.3956 H   0  0  0  0  0  0  0  0  0  0  0  0
  139.5400   77.8360  222.4560 C   0  0  0  0  0  0  0  0  0  0  0  0
  139.3061   78.9107  222.4387 H   0  0  0  0  0  0  0  0  0  0  0  0
  139.6158   77.4668  223.4894 H   0  0  0  0  0  0  0  0  0  0  0  0
  140.8940   77.6090  221.7640 C   0  0  0  0  0  0  0  0  0  0  0  0
  141.2576   76.6008  222.0115 H   0  0  0  0  0  0  0  0  0  0  0  0
  140.7501   77.7172  220.6788 H   0  0  0  0  0  0  0  0  0  0  0  0
  141.9000   78.6050  222.2020 N   0  0  0  0  0  0  0  0  0  0  0  0
  142.8630   78.2550  221.9750 H   0  0  0  0  0  0  0  0  0  0  0  0
  141.8290   78.9150  223.6420 C   0  0  0  0  0  0  0  0  0  0  0  0
  140.8196   78.6998  224.0225 H   0  0  0  0  0  0  0  0  0  0  0  0
  142.5478   78.3013  224.2047 H   0  0  0  0  0  0  0  0  0  0  0  0
  142.1440   80.4010  223.8120 C   0  0  0  0  0  0  0  0  0  0  0  0
  141.3097   80.9157  224.3110 H   0  0  0  0  0  0  0  0  0  0  0  0
  143.0375   80.5591  224.4338 H   0  0  0  0  0  0  0  0  0  0  0  0
  142.3350   80.9410  222.4070 C   0  0  0  0  0  0  0  0  0  0  0  0
  141.8194   81.9052  222.2869 H   0  0  0  0  0  0  0  0  0  0  0  0
  143.3928   81.1258  222.1686 H   0  0  0  0  0  0  0  0  0  0  0  0
  141.7170   79.8880  221.5130 C   0  0  0  0  0  0  0  0  0  0  0  0
  140.6461   80.0928  221.3671 H   0  0  0  0  0  0  0  0  0  0  0  0
  142.1888   79.8795  220.5194 H   0  0  0  0  0  0  0  0  0  0  0  0
  138.6580   72.6240  222.4530 N   0  0  0  0  0  0  0  0  0  0  0  0
  139.5480   69.5330  223.4850 C   0  0  0  0  0  0  0  0  0  0  0  0
  140.5384   69.2036  223.1378 H   0  0  0  0  0  0  0  0  0  0  0  0
  138.7966   69.4672  222.6843 H   0  0  0  0  0  0  0  0  0  0  0  0
  139.0960   68.6140  224.6250 C   0  0  0  0  0  0  0  0  0  0  0  0
  139.2604   67.5661  224.3337 H   0  0  0  0  0  0  0  0  0  0  0  0
  138.0276   68.7863  224.8222 H   0  0  0  0  0  0  0  0  0  0  0  0
  1  2  1  0
  2  3  2  0
  3  4  1  0
  3  5  1  0
  5  6  1  0
  5  7  2  0
  7  8  1  0
  8  9  2  0
  9 10  1  0
  8 11  1  0
 11 12  1  0
 11 13  1  0
 11 14  1  0
 14 15  1  0
 15 16  1  0
 16 17  2  0
 17 18  1  0
 18 19  1  0
 19 20  1  0
 19 21  1  0
 19 22  1  0
 22 23  1  0
 22 24  1  0
 22 25  1  0
 25 26  1  0
 25 27  1  0
 27 28  1  0
 27 29  1  0
 27 30  1  0
 30 31  1  0
 30 32  1  0
 17 33  1  0
 33 34  1  0
 33 35  1  0
 35 36  2  0
 36 37  1  0
 36 38  1  0
 38 39  1  0
 38 40  1  0
 38 41  1  0
 41 42  1  0
 41 43  1  0
 41 44  1  0
 44 45  1  0
 44 46  1  0
 44 47  1  0
 47 48  1  0
 47 49  1  0
 47 50  1  0
 50 51  1  0
 50 52  1  0
 50 53  1  0
 53 54  1  0
 53 55  1  0
 55 56  1  0
 55 57  1  0
 55 58  1  0
 58 59  1  0
 58 60  1  0
 58 61  1  0
 61 62  1  0
 61 63  1  0
 61 64  1  0
 64 65  1  0
 64 66  1  0
 35 67  1  0
 14 68  1  0
 68 69  1  0
 68 70  1  0
 68 71  1  0
 71 72  1  0
 71 73  1  0
  9  2  1  0
 67 15  2  0
 71  7  1  0
 30 18  1  0
 64 53  1  0
M  CHG  2  36   1  53   1
M  END
>  <UniqueID>  (10) 
480

>  <SMILES>  (10) 
c1ccc2c(c1)CCN(c1nc(N3CCNCC3)[nH]/c(=[NH+]/CCCCC[NH+]3CCCC3)n1)C2

>  <Energy>  (10) 
78.80274819762089

>  <Genealogy>  (10) 
c1ccc2c(c1)CCN(c1nc([NH2+]CCCCC[NH+]3CCCC3)nc(N3CCNCC3)n1)C2 (protonated)
c1ccc2c(c1)CCN(c1nc(N3CCNCC3)[nH]c(=[NH+]CCCCC[NH+]3CCCC3)n1)C2 (tautomer)
c1ccc2c(c1)CCN(c1nc(N3CCNCC3)[nH]/c(=[NH+]/CCCCC[NH+]3CCCC3)n1)C2 (cis-trans isomerization)
c1ccc2c(c1)CCN(c1nc(N3CCNCC3)[nH]/c(=[NH+]/CCCCC[NH+]3CCCC3)n1)C2 (3D coordinates assigned)
c1ccc2c(c1)CCN(c1nc(N3CCNCC3)[nH]/c(=[NH+]/CCCCC[NH+]3CCCC3)n1)C2 (nonaromatic ring conformer: 78.80274819762089 kcal/mol)

>  <smiles>  (10) 
c1ccc2c(c1)CCN(c1nc(NCCCCCN3CCCC3)nc(N3CCNCC3)n1)C2

>  <score_type>  (10) 
oracle

>  <origin>  (10) 
autodockgpu

>  <m_score__min__energy>  (10) 
-8.8200000000000003

>  <m_primary>  (10) 
energy

>  <meeko>  (10) 
{"free_energy": -8.74, "intermolecular_energy": -11.43, "internal_energy": -0.45, "cluster_size": 13, "cluster_id": 1, "rank_in_cluster": 2}

>  <energy>  (10) 
-7.9

>  <cluster_rmsd>  (10) 
1.77

>  <rmsd>  (10) 
270.98

>  <cluster>  (10) 
1

$$$$
MTUVCRSRZGPGQU-JVPWBLRANA-P
     RDKit          3D

 73 77  0  0  0  0  0  0  0  0999 V2000
  141.6782   68.9035  228.4473 H   0  0  0  0  0  0  0  0  0  0  0  0
  141.0880   68.9470  227.5200 C   0  0  0  0  0  0  0  0  0  0  0  0
  140.5110   67.7830  227.0070 C   0  0  0  0  0  0  0  0  0  0  0  0
  140.6388   66.8270  227.5360 H   0  0  0  0  0  0  0  0  0  0  0  0
  139.7720   67.8320  225.8230 C   0  0  0  0  0  0  0  0  0  0  0  0
  139.3075   66.9173  225.4261 H   0  0  0  0  0  0  0  0  0  0  0  0
  139.6220   69.0500  225.1390 C   0  0  0  0  0  0  0  0  0  0  0  0
  140.1960   70.2200  225.6570 C   0  0  0  0  0  0  0  0  0  0  0  0
  140.9180   70.1670  226.8590 C   0  0  0  0  0  0  0  0  0  0  0  0
  141.3505   71.0860  227.2814 H   0  0  0  0  0  0  0  0  0  0  0  0
  139.9960   71.5260  224.9300 C   0  0  0  0  0  0  0  0  0  0  0  0
  140.8211   72.2079  225.1834 H   0  0  0  0  0  0  0  0  0  0  0  0
  139.0310   71.9533  225.2400 H   0  0  0  0  0  0  0  0  0  0  0  0
  139.9700   71.3240  223.4690 N   0  0  0  0  0  0  0  0  0  0  0  0
  140.3730   72.3970  222.6000 C   0  0  0  0  0  0  0  0  0  0  0  0
  139.5820   73.4900  222.4430 N   0  0  0  0  0  0  0  0  0  0  0  0
  139.9590   74.5210  221.6390 C   0  0  0  0  0  0  0  0  0  0  0  0
  139.0780   75.6650  221.4920 N   0  0  0  0  0  0  0  0  0  0  0  0
  138.7010   76.3810  222.7270 C   0  0  0  0  0  0  0  0  0  0  0  0
  138.2525   75.6582  223.4244 H   0  0  0  0  0  0  0  0  0  0  0  0
  139.6187   76.8365  223.1275 H   0  0  0  0  0  0  0  0  0  0  0  0
  137.7030   77.5140  222.4990 C   0  0  0  0  0  0  0  0  0  0  0  0
  136.6923   77.0926  222.3946 H   0  0  0  0  0  0  0  0  0  0  0  0
  137.7366   78.2004  223.3579 H   0  0  0  0  0  0  0  0  0  0  0  0
  138.0460   78.2510  221.2860 N   0  0  0  0  0  0  0  0  0  0  0  0
  137.3910   79.0660  221.2080 H   0  0  0  0  0  0  0  0  0  0  0  0
  137.8130   77.3840  220.1340 C   0  0  0  0  0  0  0  0  0  0  0  0
  136.7772   77.0150  220.1656 H   0  0  0  0  0  0  0  0  0  0  0  0
  137.9878   77.9661  219.2171 H   0  0  0  0  0  0  0  0  0  0  0  0
  138.7720   76.1870  220.1420 C   0  0  0  0  0  0  0  0  0  0  0  0
  138.3172   75.3765  219.5535 H   0  0  0  0  0  0  0  0  0  0  0  0
  139.7228   76.5404  219.7164 H   0  0  0  0  0  0  0  0  0  0  0  0
  141.1600   74.4490  220.9890 N   0  0  0  0  0  0  0  0  0  0  0  0
  141.4820   75.2220  220.3680 H   0  0  0  0  0  0  0  0  0  0  0  0
  141.9530   73.3460  221.1250 C   0  0  0  0  0  0  0  0  0  0  0  0
  143.0840   73.2660  220.4750 N   0  0  0  0  0  0  0  0  0  0  0  0
  143.8510   72.6620  220.8490 H   0  0  0  0  0  0  0  0  0  0  0  0
  143.3500   73.9770  219.2180 C   0  0  0  0  0  0  0  0  0  0  0  0
  144.2486   73.5482  218.7504 H   0  0  0  0  0  0  0  0  0  0  0  0
  142.4702   73.8605  218.5681 H   0  0  0  0  0  0  0  0  0  0  0  0
  143.5780   75.4820  219.4460 C   0  0  0  0  0  0  0  0  0  0  0  0
  143.6402   75.6682  220.5283 H   0  0  0  0  0  0  0  0  0  0  0  0
  144.5098   75.7579  218.9306 H   0  0  0  0  0  0  0  0  0  0  0  0
  142.4470   76.3530  218.8600 C   0  0  0  0  0  0  0  0  0  0  0  0
  142.4859   76.2937  217.7623 H   0  0  0  0  0  0  0  0  0  0  0  0
  141.4903   75.9714  219.2462 H   0  0  0  0  0  0  0  0  0  0  0  0
  142.5750   77.8260  219.2820 C   0  0  0  0  0  0  0  0  0  0  0  0
  143.5771   77.9902  219.7049 H   0  0  0  0  0  0  0  0  0  0  0  0
  142.4158   78.4533  218.3926 H   0  0  0  0  0  0  0  0  0  0  0  0
  141.5210   78.2080  220.3340 C   0  0  0  0  0  0  0  0  0  0  0  0
  140.8813   79.0047  219.9266 H   0  0  0  0  0  0  0  0  0  0  0  0
  140.9272   77.3126  220.5699 H   0  0  0  0  0  0  0  0  0  0  0  0
  142.1540   78.6900  221.5840 N   0  0  0  0  0  0  0  0  0  0  0  0
  143.1450   78.3490  221.6300 H   0  0  0  0  0  0  0  0  0  0  0  0
  141.4430   78.2610  222.8030 C   0  0  0  0  0  0  0  0  0  0  0  0
  140.3894   78.0498  222.5678 H   0  0  0  0  0  0  0  0  0  0  0  0
  141.8954   77.3454  223.2116 H   0  0  0  0  0  0  0  0  0  0  0  0
  141.5320   79.4020  223.8170 C   0  0  0  0  0  0  0  0  0  0  0  0
  140.5253   79.7302  224.1152 H   0  0  0  0  0  0  0  0  0  0  0  0
  142.0538   79.0918  224.7343 H   0  0  0  0  0  0  0  0  0  0  0  0
  142.2660   80.5240  223.1050 C   0  0  0  0  0  0  0  0  0  0  0  0
  141.7758   81.4907  223.2925 H   0  0  0  0  0  0  0  0  0  0  0  0
  143.3042   80.6331  223.4518 H   0  0  0  0  0  0  0  0  0  0  0  0
  142.1820   80.1560  221.6400 C   0  0  0  0  0  0  0  0  0  0  0  0
  141.2660   80.5716  221.1949 H   0  0  0  0  0  0  0  0  0  0  0  0
  143.0355   80.5611  221.0767 H   0  0  0  0  0  0  0  0  0  0  0  0
  141.5500   72.3290  221.9310 N   0  0  0  0  0  0  0  0  0  0  0  0
  139.5280   70.0520  222.8650 C   0  0  0  0  0  0  0  0  0  0  0  0
  140.4082   69.5264  222.4662 H   0  0  0  0  0  0  0  0  0  0  0  0
  138.8059   70.2926  222.0708 H   0  0  0  0  0  0  0  0  0  0  0  0
  138.8240   69.1370  223.8720 C   0  0  0  0  0  0  0  0  0  0  0  0
  138.7200   68.1315  223.4383 H   0  0  0  0  0  0  0  0  0  0  0  0
  137.8313   69.5518  224.1009 H   0  0  0  0  0  0  0  0  0  0  0  0
  1  2  1  0
  2  3  2  0
  3  4  1  0
  3  5  1  0
  5  6  1  0
  5  7  2  0
  7  8  1  0
  8  9  2  0
  9 10  1  0
  8 11  1  0
 11 12  1  0
 11 13  1  0
 11 14  1  0
 14 15  1  0
 15 16  1  0
 16 17  2  0
 17 18  1  0
 18 19  1  0
 19 20  1  0
 19 21  1  0
 19 22  1  0
 22 23  1  0
 22 24  1  0
 22 25  1  0
 25 26  1  0
 25 27  1  0
 27 28  1  0
 27 29  1  0
 27 30  1  0
 30 31  1  0
 30 32  1  0
 17 33  1  0
 33 34  1  0
 33 35  1  0
 35 36  2  0
 36 37  1  0
 36 38  1  0
 38 39  1  0
 38 40  1  0
 38 41  1  0
 41 42  1  0
 41 43  1  0
 41 44  1  0
 44 45  1  0
 44 46  1  0
 44 47  1  0
 47 48  1  0
 47 49  1  0
 47 50  1  0
 50 51  1  0
 50 52  1  0
 50 53  1  0
 53 54  1  0
 53 55  1  0
 55 56  1  0
 55 57  1  0
 55 58  1  0
 58 59  1  0
 58 60  1  0
 58 61  1  0
 61 62  1  0
 61 63  1  0
 61 64  1  0
 64 65  1  0
 64 66  1  0
 35 67  1  0
 14 68  1  0
 68 69  1  0
 68 70  1  0
 68 71  1  0
 71 72  1  0
 71 73  1  0
  9  2  1  0
 67 15  2  0
 71  7  1  0
 30 18  1  0
 64 53  1  0
M  CHG  2  36   1  53   1
M  END
>  <UniqueID>  (11) 
480

>  <SMILES>  (11) 
c1ccc2c(c1)CCN(c1nc(N3CCNCC3)[nH]/c(=[NH+]/CCCCC[NH+]3CCCC3)n1)C2

>  <Energy>  (11) 
78.80274819762089

>  <Genealogy>  (11) 
c1ccc2c(c1)CCN(c1nc([NH2+]CCCCC[NH+]3CCCC3)nc(N3CCNCC3)n1)C2 (protonated)
c1ccc2c(c1)CCN(c1nc(N3CCNCC3)[nH]c(=[NH+]CCCCC[NH+]3CCCC3)n1)C2 (tautomer)
c1ccc2c(c1)CCN(c1nc(N3CCNCC3)[nH]/c(=[NH+]/CCCCC[NH+]3CCCC3)n1)C2 (cis-trans isomerization)
c1ccc2c(c1)CCN(c1nc(N3CCNCC3)[nH]/c(=[NH+]/CCCCC[NH+]3CCCC3)n1)C2 (3D coordinates assigned)
c1ccc2c(c1)CCN(c1nc(N3CCNCC3)[nH]/c(=[NH+]/CCCCC[NH+]3CCCC3)n1)C2 (nonaromatic ring conformer: 78.80274819762089 kcal/mol)

>  <smiles>  (11) 
c1ccc2c(c1)CCN(c1nc(NCCCCCN3CCCC3)nc(N3CCNCC3)n1)C2

>  <score_type>  (11) 
oracle

>  <origin>  (11) 
autodockgpu

>  <m_score__min__energy>  (11) 
-8.8200000000000003

>  <m_primary>  (11) 
energy

>  <meeko>  (11) 
{"free_energy": -7.9, "intermolecular_energy": -10.58, "internal_energy": -0.68, "cluster_size": 13, "cluster_id": 1, "rank_in_cluster": 10}

>  <energy>  (11) 
-7.19

>  <cluster_rmsd>  (11) 
1.97

>  <rmsd>  (11) 
270.81

>  <cluster>  (11) 
1

$$$$
MTUVCRSRZGPGQU-JVPWBLRANA-P
     RDKit          3D

 73 77  0  0  0  0  0  0  0  0999 V2000
  136.0435   79.3121  222.9394 H   0  0  0  0  0  0  0  0  0  0  0  0
  137.1340   79.3100  223.0840 C   0  0  0  0  0  0  0  0  0  0  0  0
  137.7260   80.2520  223.9280 C   0  0  0  0  0  0  0  0  0  0  0  0
  137.1007   80.9891  224.4530 H   0  0  0  0  0  0  0  0  0  0  0  0
  139.1110   80.2590  224.1060 C   0  0  0  0  0  0  0  0  0  0  0  0
  139.5749   80.9926  224.7817 H   0  0  0  0  0  0  0  0  0  0  0  0
  139.9120   79.3290  223.4220 C   0  0  0  0  0  0  0  0  0  0  0  0
  139.3170   78.3800  222.5780 C   0  0  0  0  0  0  0  0  0  0  0  0
  137.9230   78.3640  222.4220 C   0  0  0  0  0  0  0  0  0  0  0  0
  137.4504   77.6071  221.7788 H   0  0  0  0  0  0  0  0  0  0  0  0
  140.1870   77.3660  221.8780 C   0  0  0  0  0  0  0  0  0  0  0  0
  139.6727   77.0176  220.9702 H   0  0  0  0  0  0  0  0  0  0  0  0
  140.3683   76.5277  222.5668 H   0  0  0  0  0  0  0  0  0  0  0  0
  141.4880   77.9500  221.5000 N   0  0  0  0  0  0  0  0  0  0  0  0
  142.2010   77.4140  220.3710 C   0  0  0  0  0  0  0  0  0  0  0  0
  142.8310   76.2150  220.4600 N   0  0  0  0  0  0  0  0  0  0  0  0
  143.4940   75.6870  219.3960 C   0  0  0  0  0  0  0  0  0  0  0  0
  144.1620   74.4070  219.5390 N   0  0  0  0  0  0  0  0  0  0  0  0
  143.9580   73.4220  218.4570 C   0  0  0  0  0  0  0  0  0  0  0  0
  142.8769   73.2611  218.3329 H   0  0  0  0  0  0  0  0  0  0  0  0
  144.4267   73.8360  217.5521 H   0  0  0  0  0  0  0  0  0  0  0  0
  144.6190   72.0720  218.7250 C   0  0  0  0  0  0  0  0  0  0  0  0
  143.9928   71.4922  219.4191 H   0  0  0  0  0  0  0  0  0  0  0  0
  144.7264   71.5298  217.7740 H   0  0  0  0  0  0  0  0  0  0  0  0
  145.9410   72.2660  219.3150 N   0  0  0  0  0  0  0  0  0  0  0  0
  146.3940   71.3250  219.4080 H   0  0  0  0  0  0  0  0  0  0  0  0
  145.7730   72.8100  220.6600 C   0  0  0  0  0  0  0  0  0  0  0  0
  145.1091   72.1479  221.2353 H   0  0  0  0  0  0  0  0  0  0  0  0
  146.7618   72.8745  221.1375 H   0  0  0  0  0  0  0  0  0  0  0  0
  145.1610   74.2160  220.6130 C   0  0  0  0  0  0  0  0  0  0  0  0
  144.6713   74.4115  221.5784 H   0  0  0  0  0  0  0  0  0  0  0  0
  145.9861   74.9130  220.4047 H   0  0  0  0  0  0  0  0  0  0  0  0
  143.5120   76.3810  218.2180 N   0  0  0  0  0  0  0  0  0  0  0  0
  144.0070   76.0060  217.3800 H   0  0  0  0  0  0  0  0  0  0  0  0
  142.8980   77.5970  218.1230 C   0  0  0  0  0  0  0  0  0  0  0  0
  142.9480   78.2730  217.0060 N   0  0  0  0  0  0  0  0  0  0  0  0
  143.7030   78.9830  216.8680 H   0  0  0  0  0  0  0  0  0  0  0  0
  141.9970   78.0890  215.9020 C   0  0  0  0  0  0  0  0  0  0  0  0
  142.5426   78.1506  214.9488 H   0  0  0  0  0  0  0  0  0  0  0  0
  141.5202   77.1052  216.0236 H   0  0  0  0  0  0  0  0  0  0  0  0
  140.8910   79.1590  215.9120 C   0  0  0  0  0  0  0  0  0  0  0  0
  140.1895   78.9475  215.0915 H   0  0  0  0  0  0  0  0  0  0  0  0
  140.3954   79.1149  216.8931 H   0  0  0  0  0  0  0  0  0  0  0  0
  141.4430   80.5890  215.7330 C   0  0  0  0  0  0  0  0  0  0  0  0
  142.5318   80.5333  215.5870 H   0  0  0  0  0  0  0  0  0  0  0  0
  140.9460   81.0374  214.8601 H   0  0  0  0  0  0  0  0  0  0  0  0
  141.1510   81.4780  216.9530 C   0  0  0  0  0  0  0  0  0  0  0  0
  141.2049   82.5331  216.6468 H   0  0  0  0  0  0  0  0  0  0  0  0
  140.1475   81.2283  217.3281 H   0  0  0  0  0  0  0  0  0  0  0  0
  142.1620   81.2350  218.0860 C   0  0  0  0  0  0  0  0  0  0  0  0
  142.8117   80.3911  217.8108 H   0  0  0  0  0  0  0  0  0  0  0  0
  142.7519   82.1528  218.2259 H   0  0  0  0  0  0  0  0  0  0  0  0
  141.4790   80.9210  219.3630 N   0  0  0  0  0  0  0  0  0  0  0  0
  141.9940   80.1520  219.8570 H   0  0  0  0  0  0  0  0  0  0  0  0
  140.0700   80.5200  219.1900 C   0  0  0  0  0  0  0  0  0  0  0  0
  139.6765   80.9300  218.2482 H   0  0  0  0  0  0  0  0  0  0  0  0
  139.9825   79.4241  219.1524 H   0  0  0  0  0  0  0  0  0  0  0  0
  139.2800   81.0810  220.3730 C   0  0  0  0  0  0  0  0  0  0  0  0
  138.4708   81.7363  220.0183 H   0  0  0  0  0  0  0  0  0  0  0  0
  138.8102   80.2815  220.9647 H   0  0  0  0  0  0  0  0  0  0  0  0
  140.2820   81.8730  221.1940 C   0  0  0  0  0  0  0  0  0  0  0  0
  139.8540   82.8367  221.5073 H   0  0  0  0  0  0  0  0  0  0  0  0
  140.5741   81.3516  222.1175 H   0  0  0  0  0  0  0  0  0  0  0  0
  141.4500   82.0850  220.2560 C   0  0  0  0  0  0  0  0  0  0  0  0
  141.3084   83.0077  219.6742 H   0  0  0  0  0  0  0  0  0  0  0  0
  142.3944   82.1863  220.8108 H   0  0  0  0  0  0  0  0  0  0  0  0
  142.2480   78.1020  219.2040 N   0  0  0  0  0  0  0  0  0  0  0  0
  142.0920   79.0640  222.2540 C   0  0  0  0  0  0  0  0  0  0  0  0
  142.0162   79.9805  221.6504 H   0  0  0  0  0  0  0  0  0  0  0  0
  143.1400   78.7998  222.4584 H   0  0  0  0  0  0  0  0  0  0  0  0
  141.4010   79.3040  223.6010 C   0  0  0  0  0  0  0  0  0  0  0  0
  141.7337   80.2680  224.0134 H   0  0  0  0  0  0  0  0  0  0  0  0
  141.6660   78.4891  224.2907 H   0  0  0  0  0  0  0  0  0  0  0  0
  1  2  1  0
  2  3  2  0
  3  4  1  0
  3  5  1  0
  5  6  1  0
  5  7  2  0
  7  8  1  0
  8  9  2  0
  9 10  1  0
  8 11  1  0
 11 12  1  0
 11 13  1  0
 11 14  1  0
 14 15  1  0
 15 16  1  0
 16 17  2  0
 17 18  1  0
 18 19  1  0
 19 20  1  0
 19 21  1  0
 19 22  1  0
 22 23  1  0
 22 24  1  0
 22 25  1  0
 25 26  1  0
 25 27  1  0
 27 28  1  0
 27 29  1  0
 27 30  1  0
 30 31  1  0
 30 32  1  0
 17 33  1  0
 33 34  1  0
 33 35  1  0
 35 36  2  0
 36 37  1  0
 36 38  1  0
 38 39  1  0
 38 40  1  0
 38 41  1  0
 41 42  1  0
 41 43  1  0
 41 44  1  0
 44 45  1  0
 44 46  1  0
 44 47  1  0
 47 48  1  0
 47 49  1  0
 47 50  1  0
 50 51  1  0
 50 52  1  0
 50 53  1  0
 53 54  1  0
 53 55  1  0
 55 56  1  0
 55 57  1  0
 55 58  1  0
 58 59  1  0
 58 60  1  0
 58 61  1  0
 61 62  1  0
 61 63  1  0
 61 64  1  0
 64 65  1  0
 64 66  1  0
 35 67  1  0
 14 68  1  0
 68 69  1  0
 68 70  1  0
 68 71  1  0
 71 72  1  0
 71 73  1  0
  9  2  1  0
 67 15  2  0
 71  7  1  0
 30 18  1  0
 64 53  1  0
M  CHG  2  36   1  53   1
M  END
>  <UniqueID>  (12) 
480

>  <SMILES>  (12) 
c1ccc2c(c1)CCN(c1nc(N3CCNCC3)[nH]/c(=[NH+]/CCCCC[NH+]3CCCC3)n1)C2

>  <Energy>  (12) 
78.80274819762089

>  <Genealogy>  (12) 
c1ccc2c(c1)CCN(c1nc([NH2+]CCCCC[NH+]3CCCC3)nc(N3CCNCC3)n1)C2 (protonated)
c1ccc2c(c1)CCN(c1nc(N3CCNCC3)[nH]c(=[NH+]CCCCC[NH+]3CCCC3)n1)C2 (tautomer)
c1ccc2c(c1)CCN(c1nc(N3CCNCC3)[nH]/c(=[NH+]/CCCCC[NH+]3CCCC3)n1)C2 (cis-trans isomerization)
c1ccc2c(c1)CCN(c1nc(N3CCNCC3)[nH]/c(=[NH+]/CCCCC[NH+]3CCCC3)n1)C2 (3D coordinates assigned)
c1ccc2c(c1)CCN(c1nc(N3CCNCC3)[nH]/c(=[NH+]/CCCCC[NH+]3CCCC3)n1)C2 (nonaromatic ring conformer: 78.80274819762089 kcal/mol)

>  <smiles>  (12) 
c1ccc2c(c1)CCN(c1nc(NCCCCCN3CCCC3)nc(N3CCNCC3)n1)C2

>  <score_type>  (12) 
oracle

>  <origin>  (12) 
autodockgpu

>  <m_score__min__energy>  (12) 
-8.8200000000000003

>  <m_primary>  (12) 
energy

>  <meeko>  (12) 
{"free_energy": -6.77, "intermolecular_energy": -9.45, "internal_energy": -1.9, "cluster_size": 2, "cluster_id": 4, "rank_in_cluster": 1}

>  <energy>  (12) 
-7.17

>  <cluster_rmsd>  (12) 
1.9

>  <rmsd>  (12) 
270.82

>  <cluster>  (12) 
1

$$$$
MTUVCRSRZGPGQU-JVPWBLRANA-P
     RDKit          3D

 73 77  0  0  0  0  0  0  0  0999 V2000
  141.6494   68.6948  228.2631 H   0  0  0  0  0  0  0  0  0  0  0  0
  141.0210   68.8050  227.3670 C   0  0  0  0  0  0  0  0  0  0  0  0
  140.3380   67.7000  226.8550 C   0  0  0  0  0  0  0  0  0  0  0  0
  140.4223   66.7231  227.3535 H   0  0  0  0  0  0  0  0  0  0  0  0
  139.5480   67.8330  225.7110 C   0  0  0  0  0  0  0  0  0  0  0  0
  138.9998   66.9647  225.3167 H   0  0  0  0  0  0  0  0  0  0  0  0
  139.4540   69.0770  225.0640 C   0  0  0  0  0  0  0  0  0  0  0  0
  140.1360   70.1890  225.5800 C   0  0  0  0  0  0  0  0  0  0  0  0
  140.9080   70.0520  226.7430 C   0  0  0  0  0  0  0  0  0  0  0  0
  141.4253   70.9262  227.1650 H   0  0  0  0  0  0  0  0  0  0  0  0
  139.9970   71.5240  224.8950 C   0  0  0  0  0  0  0  0  0  0  0  0
  140.8808   72.1380  225.1227 H   0  0  0  0  0  0  0  0  0  0  0  0
  139.0816   72.0107  225.2628 H   0  0  0  0  0  0  0  0  0  0  0  0
  139.8860   71.3640  223.4330 N   0  0  0  0  0  0  0  0  0  0  0  0
  140.3240   72.4290  222.5700 C   0  0  0  0  0  0  0  0  0  0  0  0
  139.5680   73.5460  222.4160 N   0  0  0  0  0  0  0  0  0  0  0  0
  139.9770   74.5700  221.6190 C   0  0  0  0  0  0  0  0  0  0  0  0
  139.1320   75.7400  221.4740 N   0  0  0  0  0  0  0  0  0  0  0  0
  138.6340   76.3620  222.7180 C   0  0  0  0  0  0  0  0  0  0  0  0
  138.1043   75.5951  223.3022 H   0  0  0  0  0  0  0  0  0  0  0  0
  139.5089   76.7637  223.2501 H   0  0  0  0  0  0  0  0  0  0  0  0
  137.6810   77.5300  222.4790 C   0  0  0  0  0  0  0  0  0  0  0  0
  136.6821   77.1395  222.2347 H   0  0  0  0  0  0  0  0  0  0  0  0
  137.6320   78.1448  223.3898 H   0  0  0  0  0  0  0  0  0  0  0  0
  138.1600   78.3550  221.3730 N   0  0  0  0  0  0  0  0  0  0  0  0
  137.5270   79.1870  221.2940 H   0  0  0  0  0  0  0  0  0  0  0  0
  138.0390   77.5880  220.1360 C   0  0  0  0  0  0  0  0  0  0  0  0
  137.0013   77.2392  220.0292 H   0  0  0  0  0  0  0  0  0  0  0  0
  138.3162   78.2375  219.2926 H   0  0  0  0  0  0  0  0  0  0  0  0
  138.9770   76.3750  220.1470 C   0  0  0  0  0  0  0  0  0  0  0  0
  138.5776   75.6238  219.4497 H   0  0  0  0  0  0  0  0  0  0  0  0
  139.9718   76.7422  219.8543 H   0  0  0  0  0  0  0  0  0  0  0  0
  141.1780   74.4650  220.9730 N   0  0  0  0  0  0  0  0  0  0  0  0
  141.5260   75.2310  220.3560 H   0  0  0  0  0  0  0  0  0  0  0  0
  141.9380   73.3380  221.1060 C   0  0  0  0  0  0  0  0  0  0  0  0
  143.0680   73.2270  220.4590 N   0  0  0  0  0  0  0  0  0  0  0  0
  143.4400   72.2770  220.2320 H   0  0  0  0  0  0  0  0  0  0  0  0
  143.8630   74.3780  220.0110 C   0  0  0  0  0  0  0  0  0  0  0  0
  143.8980   75.1225  220.8200 H   0  0  0  0  0  0  0  0  0  0  0  0
  144.8715   74.0181  219.7590 H   0  0  0  0  0  0  0  0  0  0  0  0
  143.2640   75.0360  218.7550 C   0  0  0  0  0  0  0  0  0  0  0  0
  143.8468   74.7162  217.8786 H   0  0  0  0  0  0  0  0  0  0  0  0
  142.2132   74.7187  218.6835 H   0  0  0  0  0  0  0  0  0  0  0  0
  143.2810   76.5770  218.8230 C   0  0  0  0  0  0  0  0  0  0  0  0
  144.3260   76.9203  218.8342 H   0  0  0  0  0  0  0  0  0  0  0  0
  142.7448   76.9615  217.9428 H   0  0  0  0  0  0  0  0  0  0  0  0
  142.5710   77.1070  220.0800 C   0  0  0  0  0  0  0  0  0  0  0  0
  141.8582   76.3476  220.4339 H   0  0  0  0  0  0  0  0  0  0  0  0
  143.3349   77.3160  220.8434 H   0  0  0  0  0  0  0  0  0  0  0  0
  141.8090   78.4110  219.7940 C   0  0  0  0  0  0  0  0  0  0  0  0
  142.5129   79.1566  219.3956 H   0  0  0  0  0  0  0  0  0  0  0  0
  141.0147   78.1943  219.0646 H   0  0  0  0  0  0  0  0  0  0  0  0
  141.1790   78.9510  221.0220 N   0  0  0  0  0  0  0  0  0  0  0  0
  140.1410   79.0120  220.8860 H   0  0  0  0  0  0  0  0  0  0  0  0
  141.6910   80.2800  221.4060 C   0  0  0  0  0  0  0  0  0  0  0  0
  142.6999   80.4270  220.9930 H   0  0  0  0  0  0  0  0  0  0  0  0
  141.0388   81.0737  221.0127 H   0  0  0  0  0  0  0  0  0  0  0  0
  141.7400   80.3330  222.9330 C   0  0  0  0  0  0  0  0  0  0  0  0
  142.7630   80.5453  223.2771 H   0  0  0  0  0  0  0  0  0  0  0  0
  141.0942   81.1284  223.3334 H   0  0  0  0  0  0  0  0  0  0  0  0
  141.2970   78.9600  223.4040 C   0  0  0  0  0  0  0  0  0  0  0  0
  141.9469   78.5976  224.2141 H   0  0  0  0  0  0  0  0  0  0  0  0
  140.2743   78.9646  223.8090 H   0  0  0  0  0  0  0  0  0  0  0  0
  141.4290   78.0830  222.1780 C   0  0  0  0  0  0  0  0  0  0  0  0
  142.4414   77.6564  222.1221 H   0  0  0  0  0  0  0  0  0  0  0  0
  140.7189   77.2435  222.2086 H   0  0  0  0  0  0  0  0  0  0  0  0
  141.5010   72.3300  221.9050 N   0  0  0  0  0  0  0  0  0  0  0  0
  139.3260   70.1450  222.8210 C   0  0  0  0  0  0  0  0  0  0  0  0
  140.1461   69.5694  222.3670 H   0  0  0  0  0  0  0  0  0  0  0  0
  138.5869   70.4576  222.0687 H   0  0  0  0  0  0  0  0  0  0  0  0
  138.6060   69.2550  223.8400 C   0  0  0  0  0  0  0  0  0  0  0  0
  138.4093   68.2715  223.3883 H   0  0  0  0  0  0  0  0  0  0  0  0
  137.6579   69.7333  224.1271 H   0  0  0  0  0  0  0  0  0  0  0  0
  1  2  1  0
  2  3  2  0
  3  4  1  0
  3  5  1  0
  5  6  1  0
  5  7  2  0
  7  8  1  0
  8  9  2  0
  9 10  1  0
  8 11  1  0
 11 12  1  0
 11 13  1  0
 11 14  1  0
 14 15  1  0
 15 16  1  0
 16 17  2  0
 17 18  1  0
 18 19  1  0
 19 20  1  0
 19 21  1  0
 19 22  1  0
 22 23  1  0
 22 24  1  0
 22 25  1  0
 25 26  1  0
 25 27  1  0
 27 28  1  0
 27 29  1  0
 27 30  1  0
 30 31  1  0
 30 32  1  0
 17 33  1  0
 33 34  1  0
 33 35  1  0
 35 36  2  0
 36 37  1  0
 36 38  1  0
 38 39  1  0
 38 40  1  0
 38 41  1  0
 41 42  1  0
 41 43  1  0
 41 44  1  0
 44 45  1  0
 44 46  1  0
 44 47  1  0
 47 48  1  0
 47 49  1  0
 47 50  1  0
 50 51  1  0
 50 52  1  0
 50 53  1  0
 53 54  1  0
 53 55  1  0
 55 56  1  0
 55 57  1  0
 55 58  1  0
 58 59  1  0
 58 60  1  0
 58 61  1  0
 61 62  1  0
 61 63  1  0
 61 64  1  0
 64 65  1  0
 64 66  1  0
 35 67  1  0
 14 68  1  0
 68 69  1  0
 68 70  1  0
 68 71  1  0
 71 72  1  0
 71 73  1  0
  9  2  1  0
 67 15  2  0
 71  7  1  0
 30 18  1  0
 64 53  1  0
M  CHG  2  36   1  53   1
M  END
>  <UniqueID>  (13) 
480

>  <SMILES>  (13) 
c1ccc2c(c1)CCN(c1nc(N3CCNCC3)[nH]/c(=[NH+]/CCCCC[NH+]3CCCC3)n1)C2

>  <Energy>  (13) 
78.80274819762089

>  <Genealogy>  (13) 
c1ccc2c(c1)CCN(c1nc([NH2+]CCCCC[NH+]3CCCC3)nc(N3CCNCC3)n1)C2 (protonated)
c1ccc2c(c1)CCN(c1nc(N3CCNCC3)[nH]c(=[NH+]CCCCC[NH+]3CCCC3)n1)C2 (tautomer)
c1ccc2c(c1)CCN(c1nc(N3CCNCC3)[nH]/c(=[NH+]/CCCCC[NH+]3CCCC3)n1)C2 (cis-trans isomerization)
c1ccc2c(c1)CCN(c1nc(N3CCNCC3)[nH]/c(=[NH+]/CCCCC[NH+]3CCCC3)n1)C2 (3D coordinates assigned)
c1ccc2c(c1)CCN(c1nc(N3CCNCC3)[nH]/c(=[NH+]/CCCCC[NH+]3CCCC3)n1)C2 (nonaromatic ring conformer: 78.80274819762089 kcal/mol)

>  <smiles>  (13) 
c1ccc2c(c1)CCN(c1nc(NCCCCCN3CCCC3)nc(N3CCNCC3)n1)C2

>  <score_type>  (13) 
oracle

>  <origin>  (13) 
autodockgpu

>  <m_score__min__energy>  (13) 
-8.8200000000000003

>  <m_primary>  (13) 
energy

>  <meeko>  (13) 
{"free_energy": -7.17, "intermolecular_energy": -9.85, "internal_energy": -1.59, "cluster_size": 13, "cluster_id": 1, "rank_in_cluster": 12}

>  <energy>  (13) 
-7.03

>  <cluster_rmsd>  (13) 
1.9

>  <rmsd>  (13) 
270.76

>  <cluster>  (13) 
1

$$$$
MTUVCRSRZGPGQU-JVPWBLRANA-P
     RDKit          3D

 73 77  0  0  0  0  0  0  0  0999 V2000
  141.7147   68.4871  227.9761 H   0  0  0  0  0  0  0  0  0  0  0  0
  141.0960   68.6790  227.0870 C   0  0  0  0  0  0  0  0  0  0  0  0
  140.3240   67.6510  226.5400 C   0  0  0  0  0  0  0  0  0  0  0  0
  140.3292   66.6539  227.0044 H   0  0  0  0  0  0  0  0  0  0  0  0
  139.5460   67.8870  225.4050 C   0  0  0  0  0  0  0  0  0  0  0  0
  138.9289   67.0801  224.9830 H   0  0  0  0  0  0  0  0  0  0  0  0
  139.5520   69.1570  224.8020 C   0  0  0  0  0  0  0  0  0  0  0  0
  140.3240   70.1910  225.3530 C   0  0  0  0  0  0  0  0  0  0  0  0
  141.0840   69.9510  226.5070 C   0  0  0  0  0  0  0  0  0  0  0  0
  141.6717   70.7650  226.9565 H   0  0  0  0  0  0  0  0  0  0  0  0
  140.2920   71.5560  224.7140 C   0  0  0  0  0  0  0  0  0  0  0  0
  141.2226   72.0888  224.9592 H   0  0  0  0  0  0  0  0  0  0  0  0
  139.4189   72.1015  225.1015 H   0  0  0  0  0  0  0  0  0  0  0  0
  140.1670   71.4560  223.2480 N   0  0  0  0  0  0  0  0  0  0  0  0
  140.6890   72.5110  222.4200 C   0  0  0  0  0  0  0  0  0  0  0  0
  141.8160   72.3190  221.6880 N   0  0  0  0  0  0  0  0  0  0  0  0
  142.3110   73.3010  220.8870 C   0  0  0  0  0  0  0  0  0  0  0  0
  143.5240   73.0560  220.1300 N   0  0  0  0  0  0  0  0  0  0  0  0
  143.3960   73.0050  218.6600 C   0  0  0  0  0  0  0  0  0  0  0  0
  142.6422   72.2462  218.4031 H   0  0  0  0  0  0  0  0  0  0  0  0
  143.1071   74.0128  218.3272 H   0  0  0  0  0  0  0  0  0  0  0  0
  144.6970   72.6540  217.9430 C   0  0  0  0  0  0  0  0  0  0  0  0
  144.8623   71.5680  218.0007 H   0  0  0  0  0  0  0  0  0  0  0  0
  144.6231   72.9669  216.8910 H   0  0  0  0  0  0  0  0  0  0  0  0
  145.8200   73.3470  218.5690 N   0  0  0  0  0  0  0  0  0  0  0  0
  146.6790   73.1470  218.0010 H   0  0  0  0  0  0  0  0  0  0  0  0
  146.0290   72.7840  219.9000 C   0  0  0  0  0  0  0  0  0  0  0  0
  146.1556   71.6947  219.8138 H   0  0  0  0  0  0  0  0  0  0  0  0
  146.9277   73.2434  220.3373 H   0  0  0  0  0  0  0  0  0  0  0  0
  144.8350   73.0790  220.8160 C   0  0  0  0  0  0  0  0  0  0  0  0
  144.8191   72.3241  221.6159 H   0  0  0  0  0  0  0  0  0  0  0  0
  144.9743   74.1013  221.1975 H   0  0  0  0  0  0  0  0  0  0  0  0
  141.6490   74.4960  220.8190 N   0  0  0  0  0  0  0  0  0  0  0  0
  141.9970   75.2700  220.2130 H   0  0  0  0  0  0  0  0  0  0  0  0
  140.5250   74.7060  221.5660 C   0  0  0  0  0  0  0  0  0  0  0  0
  139.9160   75.8610  221.5250 N   0  0  0  0  0  0  0  0  0  0  0  0
  138.9220   75.9070  221.2020 H   0  0  0  0  0  0  0  0  0  0  0  0
  140.5460   77.1270  221.9210 C   0  0  0  0  0  0  0  0  0  0  0  0
  139.7583   77.8604  222.1482 H   0  0  0  0  0  0  0  0  0  0  0  0
  141.1744   76.9338  222.8029 H   0  0  0  0  0  0  0  0  0  0  0  0
  141.4470   77.6930  220.8080 C   0  0  0  0  0  0  0  0  0  0  0  0
  142.4772   77.7577  221.1881 H   0  0  0  0  0  0  0  0  0  0  0  0
  141.3736   77.0155  219.9445 H   0  0  0  0  0  0  0  0  0  0  0  0
  141.0050   79.0950  220.3390 C   0  0  0  0  0  0  0  0  0  0  0  0
  140.0536   79.0035  219.7946 H   0  0  0  0  0  0  0  0  0  0  0  0
  140.8951   79.7315  221.2294 H   0  0  0  0  0  0  0  0  0  0  0  0
  142.0450   79.7490  219.4140 C   0  0  0  0  0  0  0  0  0  0  0  0
  142.1257   80.8167  219.6660 H   0  0  0  0  0  0  0  0  0  0  0  0
  143.0073   79.2369  219.5615 H   0  0  0  0  0  0  0  0  0  0  0  0
  141.6500   79.6140  217.9340 C   0  0  0  0  0  0  0  0  0  0  0  0
  140.6720   79.1148  217.8688 H   0  0  0  0  0  0  0  0  0  0  0  0
  141.6044   80.6215  217.4949 H   0  0  0  0  0  0  0  0  0  0  0  0
  142.6470   78.8210  217.1780 N   0  0  0  0  0  0  0  0  0  0  0  0
  143.5410   79.3630  217.0990 H   0  0  0  0  0  0  0  0  0  0  0  0
  142.1930   78.4460  215.8260 C   0  0  0  0  0  0  0  0  0  0  0  0
  141.0937   78.4412  215.7876 H   0  0  0  0  0  0  0  0  0  0  0  0
  142.5611   79.1673  215.0815 H   0  0  0  0  0  0  0  0  0  0  0  0
  142.7310   77.0460  215.5280 C   0  0  0  0  0  0  0  0  0  0  0  0
  141.9038   76.3564  215.3040 H   0  0  0  0  0  0  0  0  0  0  0  0
  143.3975   77.0438  214.6529 H   0  0  0  0  0  0  0  0  0  0  0  0
  143.4570   76.6110  216.7880 C   0  0  0  0  0  0  0  0  0  0  0  0
  143.2104   75.5689  217.0396 H   0  0  0  0  0  0  0  0  0  0  0  0
  144.5507   76.6501  216.6774 H   0  0  0  0  0  0  0  0  0  0  0  0
  142.9500   77.5550  217.8570 C   0  0  0  0  0  0  0  0  0  0  0  0
  142.0422   77.1474  218.3258 H   0  0  0  0  0  0  0  0  0  0  0  0
  143.6964   77.6964  218.6525 H   0  0  0  0  0  0  0  0  0  0  0  0
  140.0560   73.7090  222.3610 N   0  0  0  0  0  0  0  0  0  0  0  0
  139.5080   70.3080  222.5970 C   0  0  0  0  0  0  0  0  0  0  0  0
  140.2776   69.6833  222.1201 H   0  0  0  0  0  0  0  0  0  0  0  0
  138.7957   70.7057  221.8591 H   0  0  0  0  0  0  0  0  0  0  0  0
  138.7190   69.4450  223.5880 C   0  0  0  0  0  0  0  0  0  0  0  0
  138.4423   68.4968  223.1039 H   0  0  0  0  0  0  0  0  0  0  0  0
  137.8132   69.9883  223.8950 H   0  0  0  0  0  0  0  0  0  0  0  0
  1  2  1  0
  2  3  2  0
  3  4  1  0
  3  5  1  0
  5  6  1  0
  5  7  2  0
  7  8  1  0
  8  9  2  0
  9 10  1  0
  8 11  1  0
 11 12  1  0
 11 13  1  0
 11 14  1  0
 14 15  1  0
 15 16  1  0
 16 17  2  0
 17 18  1  0
 18 19  1  0
 19 20  1  0
 19 21  1  0
 19 22  1  0
 22 23  1  0
 22 24  1  0
 22 25  1  0
 25 26  1  0
 25 27  1  0
 27 28  1  0
 27 29  1  0
 27 30  1  0
 30 31  1  0
 30 32  1  0
 17 33  1  0
 33 34  1  0
 33 35  1  0
 35 36  2  0
 36 37  1  0
 36 38  1  0
 38 39  1  0
 38 40  1  0
 38 41  1  0
 41 42  1  0
 41 43  1  0
 41 44  1  0
 44 45  1  0
 44 46  1  0
 44 47  1  0
 47 48  1  0
 47 49  1  0
 47 50  1  0
 50 51  1  0
 50 52  1  0
 50 53  1  0
 53 54  1  0
 53 55  1  0
 55 56  1  0
 55 57  1  0
 55 58  1  0
 58 59  1  0
 58 60  1  0
 58 61  1  0
 61 62  1  0
 61 63  1  0
 61 64  1  0
 64 65  1  0
 64 66  1  0
 35 67  1  0
 14 68  1  0
 68 69  1  0
 68 70  1  0
 68 71  1  0
 71 72  1  0
 71 73  1  0
  9  2  1  0
 67 15  2  0
 71  7  1  0
 30 18  1  0
 64 53  1  0
M  CHG  2  36   1  53   1
M  END
>  <UniqueID>  (14) 
480

>  <SMILES>  (14) 
c1ccc2c(c1)CCN(c1nc(N3CCNCC3)[nH]/c(=[NH+]/CCCCC[NH+]3CCCC3)n1)C2

>  <Energy>  (14) 
78.80274819762089

>  <Genealogy>  (14) 
c1ccc2c(c1)CCN(c1nc([NH2+]CCCCC[NH+]3CCCC3)nc(N3CCNCC3)n1)C2 (protonated)
c1ccc2c(c1)CCN(c1nc(N3CCNCC3)[nH]c(=[NH+]CCCCC[NH+]3CCCC3)n1)C2 (tautomer)
c1ccc2c(c1)CCN(c1nc(N3CCNCC3)[nH]/c(=[NH+]/CCCCC[NH+]3CCCC3)n1)C2 (cis-trans isomerization)
c1ccc2c(c1)CCN(c1nc(N3CCNCC3)[nH]/c(=[NH+]/CCCCC[NH+]3CCCC3)n1)C2 (3D coordinates assigned)
c1ccc2c(c1)CCN(c1nc(N3CCNCC3)[nH]/c(=[NH+]/CCCCC[NH+]3CCCC3)n1)C2 (nonaromatic ring conformer: 78.80274819762089 kcal/mol)

>  <smiles>  (14) 
c1ccc2c(c1)CCN(c1nc(NCCCCCN3CCCC3)nc(N3CCNCC3)n1)C2

>  <score_type>  (14) 
oracle

>  <origin>  (14) 
autodockgpu

>  <m_score__min__energy>  (14) 
-8.8200000000000003

>  <m_primary>  (14) 
energy

>  <meeko>  (14) 
{"free_energy": -8.55, "intermolecular_energy": -11.24, "internal_energy": -0.35, "cluster_size": 2, "cluster_id": 2, "rank_in_cluster": 1}

>  <energy>  (14) 
-8.55

>  <cluster_rmsd>  (14) 
0.0

>  <rmsd>  (14) 
270.34

>  <cluster>  (14) 
2

$$$$
MTUVCRSRZGPGQU-JVPWBLRANA-P
     RDKit          3D

 73 77  0  0  0  0  0  0  0  0999 V2000
  143.2958   81.4512  223.3318 H   0  0  0  0  0  0  0  0  0  0  0  0
  142.4040   80.8350  223.1450 C   0  0  0  0  0  0  0  0  0  0  0  0
  141.1680   81.2220  223.6690 C   0  0  0  0  0  0  0  0  0  0  0  0
  141.0867   82.1462  224.2600 H   0  0  0  0  0  0  0  0  0  0  0  0
  140.0350   80.4360  223.4430 C   0  0  0  0  0  0  0  0  0  0  0  0
  139.0596   80.7477  223.8447 H   0  0  0  0  0  0  0  0  0  0  0  0
  140.1430   79.2470  222.7020 C   0  0  0  0  0  0  0  0  0  0  0  0
  141.3830   78.8600  222.1720 C   0  0  0  0  0  0  0  0  0  0  0  0
  142.5110   79.6670  222.3840 C   0  0  0  0  0  0  0  0  0  0  0  0
  143.4807   79.3804  221.9510 H   0  0  0  0  0  0  0  0  0  0  0  0
  141.4750   77.6000  221.3500 C   0  0  0  0  0  0  0  0  0  0  0  0
  142.5057   77.2180  221.3926 H   0  0  0  0  0  0  0  0  0  0  0  0
  141.1928   77.8381  220.3138 H   0  0  0  0  0  0  0  0  0  0  0  0
  140.5560   76.5640  221.8590 N   0  0  0  0  0  0  0  0  0  0  0  0
  140.8700   75.1760  221.6470 C   0  0  0  0  0  0  0  0  0  0  0  0
  140.2130   74.2080  222.3370 N   0  0  0  0  0  0  0  0  0  0  0  0
  140.4850   72.8900  222.1340 C   0  0  0  0  0  0  0  0  0  0  0  0
  139.7670   71.8900  222.9000 N   0  0  0  0  0  0  0  0  0  0  0  0
  138.6520   71.2000  222.2200 C   0  0  0  0  0  0  0  0  0  0  0  0
  137.9461   71.9594  221.8524 H   0  0  0  0  0  0  0  0  0  0  0  0
  139.0908   70.6057  221.4050 H   0  0  0  0  0  0  0  0  0  0  0  0
  137.8910   70.2300  223.1200 C   0  0  0  0  0  0  0  0  0  0  0  0
  137.1967   70.7956  223.7588 H   0  0  0  0  0  0  0  0  0  0  0  0
  137.3309   69.5216  222.4919 H   0  0  0  0  0  0  0  0  0  0  0  0
  138.8240   69.4860  223.9620 N   0  0  0  0  0  0  0  0  0  0  0  0
  138.2740   68.7760  224.5030 H   0  0  0  0  0  0  0  0  0  0  0  0
  139.4200   70.4100  224.9230 C   0  0  0  0  0  0  0  0  0  0  0  0
  138.6178   70.9230  225.4737 H   0  0  0  0  0  0  0  0  0  0  0  0
  140.0554   69.8357  225.6133 H   0  0  0  0  0  0  0  0  0  0  0  0
  140.2900   71.4560  224.2140 C   0  0  0  0  0  0  0  0  0  0  0  0
  140.3654   72.3400  224.8643 H   0  0  0  0  0  0  0  0  0  0  0  0
  141.2642   70.9813  224.0253 H   0  0  0  0  0  0  0  0  0  0  0  0
  141.4340   72.5460  221.2100 N   0  0  0  0  0  0  0  0  0  0  0  0
  141.6660   71.5460  221.0260 H   0  0  0  0  0  0  0  0  0  0  0  0
  142.1140   73.5120  220.5260 C   0  0  0  0  0  0  0  0  0  0  0  0
  143.0440   73.1790  219.6700 N   0  0  0  0  0  0  0  0  0  0  0  0
  143.0270   72.2280  219.2350 H   0  0  0  0  0  0  0  0  0  0  0  0
  144.1310   74.0790  219.2620 C   0  0  0  0  0  0  0  0  0  0  0  0
  144.4488   74.6707  220.1332 H   0  0  0  0  0  0  0  0  0  0  0  0
  144.9577   73.4632  218.8781 H   0  0  0  0  0  0  0  0  0  0  0  0
  143.6910   75.0390  218.1420 C   0  0  0  0  0  0  0  0  0  0  0  0
  144.5160   75.1405  217.4216 H   0  0  0  0  0  0  0  0  0  0  0  0
  142.7915   74.6126  217.6739 H   0  0  0  0  0  0  0  0  0  0  0  0
  143.3210   76.4410  218.6690 C   0  0  0  0  0  0  0  0  0  0  0  0
  142.7886   76.3315  219.6253 H   0  0  0  0  0  0  0  0  0  0  0  0
  144.2523   77.0128  218.7943 H   0  0  0  0  0  0  0  0  0  0  0  0
  142.4220   77.2090  217.6860 C   0  0  0  0  0  0  0  0  0  0  0  0
  142.9635   77.3436  216.7381 H   0  0  0  0  0  0  0  0  0  0  0  0
  141.5020   76.6254  217.5345 H   0  0  0  0  0  0  0  0  0  0  0  0
  142.0290   78.5900  218.2360 C   0  0  0  0  0  0  0  0  0  0  0  0
  140.9342   78.6905  218.2013 H   0  0  0  0  0  0  0  0  0  0  0  0
  142.3962   78.6675  219.2700 H   0  0  0  0  0  0  0  0  0  0  0  0
  142.6380   79.6820  217.4430 N   0  0  0  0  0  0  0  0  0  0  0  0
  143.5990   79.3970  217.1330 H   0  0  0  0  0  0  0  0  0  0  0  0
  142.7300   80.9580  218.1770 C   0  0  0  0  0  0  0  0  0  0  0  0
  141.9732   80.9869  218.9748 H   0  0  0  0  0  0  0  0  0  0  0  0
  143.7225   81.0667  218.6386 H   0  0  0  0  0  0  0  0  0  0  0  0
  142.4770   82.0870  217.1780 C   0  0  0  0  0  0  0  0  0  0  0  0
  141.6210   82.6989  217.4988 H   0  0  0  0  0  0  0  0  0  0  0  0
  143.3424   82.7613  217.0981 H   0  0  0  0  0  0  0  0  0  0  0  0
  142.1740   81.4030  215.8570 C   0  0  0  0  0  0  0  0  0  0  0  0
  141.3152   81.8781  215.3603 H   0  0  0  0  0  0  0  0  0  0  0  0
  143.0132   81.4671  215.1487 H   0  0  0  0  0  0  0  0  0  0  0  0
  141.8490   79.9750  216.2400 C   0  0  0  0  0  0  0  0  0  0  0  0
  140.7750   79.8731  216.4546 H   0  0  0  0  0  0  0  0  0  0  0  0
  142.0893   79.2774  215.4242 H   0  0  0  0  0  0  0  0  0  0  0  0
  141.8240   74.8200  220.7520 N   0  0  0  0  0  0  0  0  0  0  0  0
  139.3110   76.9060  222.5720 C   0  0  0  0  0  0  0  0  0  0  0  0
  139.4402   76.6731  223.6393 H   0  0  0  0  0  0  0  0  0  0  0  0
  138.4969   76.3163  222.1254 H   0  0  0  0  0  0  0  0  0  0  0  0
  138.9440   78.3870  222.4330 C   0  0  0  0  0  0  0  0  0  0  0  0
  138.1510   78.6338  223.1543 H   0  0  0  0  0  0  0  0  0  0  0  0
  138.5918   78.5740  221.4078 H   0  0  0  0  0  0  0  0  0  0  0  0
  1  2  1  0
  2  3  2  0
  3  4  1  0
  3  5  1  0
  5  6  1  0
  5  7  2  0
  7  8  1  0
  8  9  2  0
  9 10  1  0
  8 11  1  0
 11 12  1  0
 11 13  1  0
 11 14  1  0
 14 15  1  0
 15 16  1  0
 16 17  2  0
 17 18  1  0
 18 19  1  0
 19 20  1  0
 19 21  1  0
 19 22  1  0
 22 23  1  0
 22 24  1  0
 22 25  1  0
 25 26  1  0
 25 27  1  0
 27 28  1  0
 27 29  1  0
 27 30  1  0
 30 31  1  0
 30 32  1  0
 17 33  1  0
 33 34  1  0
 33 35  1  0
 35 36  2  0
 36 37  1  0
 36 38  1  0
 38 39  1  0
 38 40  1  0
 38 41  1  0
 41 42  1  0
 41 43  1  0
 41 44  1  0
 44 45  1  0
 44 46  1  0
 44 47  1  0
 47 48  1  0
 47 49  1  0
 47 50  1  0
 50 51  1  0
 50 52  1  0
 50 53  1  0
 53 54  1  0
 53 55  1  0
 55 56  1  0
 55 57  1  0
 55 58  1  0
 58 59  1  0
 58 60  1  0
 58 61  1  0
 61 62  1  0
 61 63  1  0
 61 64  1  0
 64 65  1  0
 64 66  1  0
 35 67  1  0
 14 68  1  0
 68 69  1  0
 68 70  1  0
 68 71  1  0
 71 72  1  0
 71 73  1  0
  9  2  1  0
 67 15  2  0
 71  7  1  0
 30 18  1  0
 64 53  1  0
M  CHG  2  36   1  53   1
M  END
>  <UniqueID>  (15) 
480

>  <SMILES>  (15) 
c1ccc2c(c1)CCN(c1nc(N3CCNCC3)[nH]/c(=[NH+]/CCCCC[NH+]3CCCC3)n1)C2

>  <Energy>  (15) 
78.80274819762089

>  <Genealogy>  (15) 
c1ccc2c(c1)CCN(c1nc([NH2+]CCCCC[NH+]3CCCC3)nc(N3CCNCC3)n1)C2 (protonated)
c1ccc2c(c1)CCN(c1nc(N3CCNCC3)[nH]c(=[NH+]CCCCC[NH+]3CCCC3)n1)C2 (tautomer)
c1ccc2c(c1)CCN(c1nc(N3CCNCC3)[nH]/c(=[NH+]/CCCCC[NH+]3CCCC3)n1)C2 (cis-trans isomerization)
c1ccc2c(c1)CCN(c1nc(N3CCNCC3)[nH]/c(=[NH+]/CCCCC[NH+]3CCCC3)n1)C2 (3D coordinates assigned)
c1ccc2c(c1)CCN(c1nc(N3CCNCC3)[nH]/c(=[NH+]/CCCCC[NH+]3CCCC3)n1)C2 (nonaromatic ring conformer: 78.80274819762089 kcal/mol)

>  <smiles>  (15) 
c1ccc2c(c1)CCN(c1nc(NCCCCCN3CCCC3)nc(N3CCNCC3)n1)C2

>  <score_type>  (15) 
oracle

>  <origin>  (15) 
autodockgpu

>  <m_score__min__energy>  (15) 
-8.8200000000000003

>  <m_primary>  (15) 
energy

>  <meeko>  (15) 
{"free_energy": -7.77, "intermolecular_energy": -10.46, "internal_energy": -0.72, "cluster_size": 3, "cluster_id": 3, "rank_in_cluster": 1}

>  <energy>  (15) 
-8.54

>  <cluster_rmsd>  (15) 
0.45

>  <rmsd>  (15) 
270.42

>  <cluster>  (15) 
2

$$$$
MTUVCRSRZGPGQU-JVPWBLRANA-P
     RDKit          3D

 73 77  0  0  0  0  0  0  0  0999 V2000
  143.2431   81.5453  223.3198 H   0  0  0  0  0  0  0  0  0  0  0  0
  142.3640   80.9070  223.1470 C   0  0  0  0  0  0  0  0  0  0  0  0
  141.1320   81.2530  223.7070 C   0  0  0  0  0  0  0  0  0  0  0  0
  141.0406   82.1670  224.3122 H   0  0  0  0  0  0  0  0  0  0  0  0
  140.0160   80.4390  223.4990 C   0  0  0  0  0  0  0  0  0  0  0  0
  139.0430   80.7189  223.9289 H   0  0  0  0  0  0  0  0  0  0  0  0
  140.1370   79.2620  222.7400 C   0  0  0  0  0  0  0  0  0  0  0  0
  141.3730   78.9170  222.1740 C   0  0  0  0  0  0  0  0  0  0  0  0
  142.4840   79.7530  222.3680 C   0  0  0  0  0  0  0  0  0  0  0  0
  143.4498   79.4995  221.9064 H   0  0  0  0  0  0  0  0  0  0  0  0
  141.4790   77.6710  221.3330 C   0  0  0  0  0  0  0  0  0  0  0  0
  142.5207   77.3179  221.3441 H   0  0  0  0  0  0  0  0  0  0  0  0
  141.1635   77.9143  220.3077 H   0  0  0  0  0  0  0  0  0  0  0  0
  140.6030   76.6030  221.8510 N   0  0  0  0  0  0  0  0  0  0  0  0
  140.9490   75.2270  221.6130 C   0  0  0  0  0  0  0  0  0  0  0  0
  140.2790   74.2280  222.2420 N   0  0  0  0  0  0  0  0  0  0  0  0
  140.5820   72.9220  222.0130 C   0  0  0  0  0  0  0  0  0  0  0  0
  139.8470   71.8880  222.7160 N   0  0  0  0  0  0  0  0  0  0  0  0
  140.3360   71.5170  224.0600 C   0  0  0  0  0  0  0  0  0  0  0  0
  141.3934   71.2255  223.9768 H   0  0  0  0  0  0  0  0  0  0  0  0
  140.1927   72.3942  224.7081 H   0  0  0  0  0  0  0  0  0  0  0  0
  139.5660   70.3620  224.6950 C   0  0  0  0  0  0  0  0  0  0  0  0
  139.9179   69.4118  224.2669 H   0  0  0  0  0  0  0  0  0  0  0  0
  139.7374   70.3707  225.7815 H   0  0  0  0  0  0  0  0  0  0  0  0
  138.1360   70.5070  224.4370 N   0  0  0  0  0  0  0  0  0  0  0  0
  137.6360   69.7440  224.9550 H   0  0  0  0  0  0  0  0  0  0  0  0
  137.8990   70.3010  223.0110 C   0  0  0  0  0  0  0  0  0  0  0  0
  138.3202   69.3295  222.7132 H   0  0  0  0  0  0  0  0  0  0  0  0
  136.8143   70.3231  222.8296 H   0  0  0  0  0  0  0  0  0  0  0  0
  138.5560   71.4090  222.1780 C   0  0  0  0  0  0  0  0  0  0  0  0
  138.7279   71.0214  221.1630 H   0  0  0  0  0  0  0  0  0  0  0  0
  137.8684   72.2674  222.1960 H   0  0  0  0  0  0  0  0  0  0  0  0
  141.5770   72.6210  221.1240 N   0  0  0  0  0  0  0  0  0  0  0  0
  141.8350   71.6310  220.9210 H   0  0  0  0  0  0  0  0  0  0  0  0
  142.2710   73.6170  220.5000 C   0  0  0  0  0  0  0  0  0  0  0  0
  143.2430   73.3260  219.6780 N   0  0  0  0  0  0  0  0  0  0  0  0
  143.6900   72.3810  219.7230 H   0  0  0  0  0  0  0  0  0  0  0  0
  143.7560   74.2560  218.6640 C   0  0  0  0  0  0  0  0  0  0  0  0
  144.0904   75.1773  219.1633 H   0  0  0  0  0  0  0  0  0  0  0  0
  144.5888   73.7637  218.1404 H   0  0  0  0  0  0  0  0  0  0  0  0
  142.6830   74.6170  217.6200 C   0  0  0  0  0  0  0  0  0  0  0  0
  143.1637   74.6933  216.6335 H   0  0  0  0  0  0  0  0  0  0  0  0
  141.9198   73.8251  217.6410 H   0  0  0  0  0  0  0  0  0  0  0  0
  141.9760   75.9530  217.9290 C   0  0  0  0  0  0  0  0  0  0  0  0
  141.1075   76.0574  217.2621 H   0  0  0  0  0  0  0  0  0  0  0  0
  141.6682   75.9376  218.9849 H   0  0  0  0  0  0  0  0  0  0  0  0
  142.9070   77.1600  217.7240 C   0  0  0  0  0  0  0  0  0  0  0  0
  143.1613   77.5852  218.7061 H   0  0  0  0  0  0  0  0  0  0  0  0
  143.8096   76.8126  217.2000 H   0  0  0  0  0  0  0  0  0  0  0  0
  142.2430   78.2490  216.8660 C   0  0  0  0  0  0  0  0  0  0  0  0
  142.5778   78.1371  215.8242 H   0  0  0  0  0  0  0  0  0  0  0  0
  141.1519   78.1307  216.9409 H   0  0  0  0  0  0  0  0  0  0  0  0
  142.5980   79.6060  217.3430 N   0  0  0  0  0  0  0  0  0  0  0  0
  143.6210   79.7760  217.1890 H   0  0  0  0  0  0  0  0  0  0  0  0
  142.2840   79.8250  218.7670 C   0  0  0  0  0  0  0  0  0  0  0  0
  141.4856   79.1383  219.0848 H   0  0  0  0  0  0  0  0  0  0  0  0
  143.1699   79.6361  219.3911 H   0  0  0  0  0  0  0  0  0  0  0  0
  141.8180   81.2730  218.9210 C   0  0  0  0  0  0  0  0  0  0  0  0
  140.8062   81.3070  219.3513 H   0  0  0  0  0  0  0  0  0  0  0  0
  142.4740   81.8421  219.5962 H   0  0  0  0  0  0  0  0  0  0  0  0
  141.8170   81.8530  217.5180 C   0  0  0  0  0  0  0  0  0  0  0  0
  140.9049   82.4416  217.3404 H   0  0  0  0  0  0  0  0  0  0  0  0
  142.6619   82.5357  217.3450 H   0  0  0  0  0  0  0  0  0  0  0  0
  141.8580   80.6410  216.6120 C   0  0  0  0  0  0  0  0  0  0  0  0
  140.8372   80.2955  216.3914 H   0  0  0  0  0  0  0  0  0  0  0  0
  142.3409   80.8754  215.6519 H   0  0  0  0  0  0  0  0  0  0  0  0
  141.9480   74.9130  220.7520 N   0  0  0  0  0  0  0  0  0  0  0  0
  139.3670   76.9010  222.6000 C   0  0  0  0  0  0  0  0  0  0  0  0
  139.5297   76.6583  223.6605 H   0  0  0  0  0  0  0  0  0  0  0  0
  138.5583   76.2944  222.1663 H   0  0  0  0  0  0  0  0  0  0  0  0
  138.9560   78.3730  222.4900 C   0  0  0  0  0  0  0  0  0  0  0  0
  138.1753   78.5886  223.2343 H   0  0  0  0  0  0  0  0  0  0  0  0
  138.5726   78.5631  221.4767 H   0  0  0  0  0  0  0  0  0  0  0  0
  1  2  1  0
  2  3  2  0
  3  4  1  0
  3  5  1  0
  5  6  1  0
  5  7  2  0
  7  8  1  0
  8  9  2  0
  9 10  1  0
  8 11  1  0
 11 12  1  0
 11 13  1  0
 11 14  1  0
 14 15  1  0
 15 16  1  0
 16 17  2  0
 17 18  1  0
 18 19  1  0
 19 20  1  0
 19 21  1  0
 19 22  1  0
 22 23  1  0
 22 24  1  0
 22 25  1  0
 25 26  1  0
 25 27  1  0
 27 28  1  0
 27 29  1  0
 27 30  1  0
 30 31  1  0
 30 32  1  0
 17 33  1  0
 33 34  1  0
 33 35  1  0
 35 36  2  0
 36 37  1  0
 36 38  1  0
 38 39  1  0
 38 40  1  0
 38 41  1  0
 41 42  1  0
 41 43  1  0
 41 44  1  0
 44 45  1  0
 44 46  1  0
 44 47  1  0
 47 48  1  0
 47 49  1  0
 47 50  1  0
 50 51  1  0
 50 52  1  0
 50 53  1  0
 53 54  1  0
 53 55  1  0
 55 56  1  0
 55 57  1  0
 55 58  1  0
 58 59  1  0
 58 60  1  0
 58 61  1  0
 61 62  1  0
 61 63  1  0
 61 64  1  0
 64 65  1  0
 64 66  1  0
 35 67  1  0
 14 68  1  0
 68 69  1  0
 68 70  1  0
 68 71  1  0
 71 72  1  0
 71 73  1  0
  9  2  1  0
 67 15  2  0
 71  7  1  0
 30 18  1  0
 64 53  1  0
M  CHG  2  36   1  53   1
M  END
>  <UniqueID>  (16) 
480

>  <SMILES>  (16) 
c1ccc2c(c1)CCN(c1nc(N3CCNCC3)[nH]/c(=[NH+]/CCCCC[NH+]3CCCC3)n1)C2

>  <Energy>  (16) 
78.80274819762089

>  <Genealogy>  (16) 
c1ccc2c(c1)CCN(c1nc([NH2+]CCCCC[NH+]3CCCC3)nc(N3CCNCC3)n1)C2 (protonated)
c1ccc2c(c1)CCN(c1nc(N3CCNCC3)[nH]c(=[NH+]CCCCC[NH+]3CCCC3)n1)C2 (tautomer)
c1ccc2c(c1)CCN(c1nc(N3CCNCC3)[nH]/c(=[NH+]/CCCCC[NH+]3CCCC3)n1)C2 (cis-trans isomerization)
c1ccc2c(c1)CCN(c1nc(N3CCNCC3)[nH]/c(=[NH+]/CCCCC[NH+]3CCCC3)n1)C2 (3D coordinates assigned)
c1ccc2c(c1)CCN(c1nc(N3CCNCC3)[nH]/c(=[NH+]/CCCCC[NH+]3CCCC3)n1)C2 (nonaromatic ring conformer: 78.80274819762089 kcal/mol)

>  <smiles>  (16) 
c1ccc2c(c1)CCN(c1nc(NCCCCCN3CCCC3)nc(N3CCNCC3)n1)C2

>  <score_type>  (16) 
oracle

>  <origin>  (16) 
autodockgpu

>  <m_score__min__energy>  (16) 
-8.8200000000000003

>  <m_primary>  (16) 
energy

>  <meeko>  (16) 
{"free_energy": -7.47, "intermolecular_energy": -10.15, "internal_energy": -0.9, "cluster_size": 3, "cluster_id": 3, "rank_in_cluster": 3}

>  <energy>  (16) 
-7.77

>  <cluster_rmsd>  (16) 
0.0

>  <rmsd>  (16) 
270.46

>  <cluster>  (16) 
3

$$$$
MTUVCRSRZGPGQU-JVPWBLRANA-P
     RDKit          3D

 73 77  0  0  0  0  0  0  0  0999 V2000
  141.6828   68.9793  228.6250 H   0  0  0  0  0  0  0  0  0  0  0  0
  141.0960   69.0070  227.6950 C   0  0  0  0  0  0  0  0  0  0  0  0
  140.4680   67.8470  227.2320 C   0  0  0  0  0  0  0  0  0  0  0  0
  140.5544   66.9104  227.8024 H   0  0  0  0  0  0  0  0  0  0  0  0
  139.7310   67.8760  226.0460 C   0  0  0  0  0  0  0  0  0  0  0  0
  139.2259   66.9661  225.6897 H   0  0  0  0  0  0  0  0  0  0  0  0
  139.6350   69.0680  225.3080 C   0  0  0  0  0  0  0  0  0  0  0  0
  140.2610   70.2330  225.7740 C   0  0  0  0  0  0  0  0  0  0  0  0
  140.9800   70.2020  226.9790 C   0  0  0  0  0  0  0  0  0  0  0  0
  141.4527   71.1191  227.3604 H   0  0  0  0  0  0  0  0  0  0  0  0
  140.1190   71.5130  224.9900 C   0  0  0  0  0  0  0  0  0  0  0  0
  140.9735   72.1683  225.2145 H   0  0  0  0  0  0  0  0  0  0  0  0
  139.1742   71.9964  225.2791 H   0  0  0  0  0  0  0  0  0  0  0  0
  140.0840   71.2470  223.5390 N   0  0  0  0  0  0  0  0  0  0  0  0
  140.5340   72.2620  222.6230 C   0  0  0  0  0  0  0  0  0  0  0  0
  141.6960   72.1050  221.9390 N   0  0  0  0  0  0  0  0  0  0  0  0
  142.1250   73.0470  221.0560 C   0  0  0  0  0  0  0  0  0  0  0  0
  143.3790   72.8440  220.3540 N   0  0  0  0  0  0  0  0  0  0  0  0
  143.3130   72.1270  219.0640 C   0  0  0  0  0  0  0  0  0  0  0  0
  142.8222   71.1567  219.2304 H   0  0  0  0  0  0  0  0  0  0  0  0
  142.7507   72.7670  218.3681 H   0  0  0  0  0  0  0  0  0  0  0  0
  144.6810   71.8740  218.4330 C   0  0  0  0  0  0  0  0  0  0  0  0
  145.1555   71.0133  218.9269 H   0  0  0  0  0  0  0  0  0  0  0  0
  144.5491   71.6657  217.3610 H   0  0  0  0  0  0  0  0  0  0  0  0
  145.5330   73.0500  218.5890 N   0  0  0  0  0  0  0  0  0  0  0  0
  146.4290   72.8690  218.0750 H   0  0  0  0  0  0  0  0  0  0  0  0
  145.8590   73.2020  220.0050 C   0  0  0  0  0  0  0  0  0  0  0  0
  146.3012   72.2651  220.3748 H   0  0  0  0  0  0  0  0  0  0  0  0
  146.5708   74.0336  220.1131 H   0  0  0  0  0  0  0  0  0  0  0  0
  144.6050   73.5230  220.8270 C   0  0  0  0  0  0  0  0  0  0  0  0
  144.7879   73.2187  221.8681 H   0  0  0  0  0  0  0  0  0  0  0  0
  144.4275   74.6036  220.7233 H   0  0  0  0  0  0  0  0  0  0  0  0
  141.3610   74.1630  220.8560 N   0  0  0  0  0  0  0  0  0  0  0  0
  141.6570   74.9040  220.1850 H   0  0  0  0  0  0  0  0  0  0  0  0
  140.2010   74.3400  221.5540 C   0  0  0  0  0  0  0  0  0  0  0  0
  139.4920   75.4240  221.3860 N   0  0  0  0  0  0  0  0  0  0  0  0
  138.8630   75.5040  220.5540 H   0  0  0  0  0  0  0  0  0  0  0  0
  139.5120   76.5600  222.3170 C   0  0  0  0  0  0  0  0  0  0  0  0
  138.8115   77.3277  221.9566 H   0  0  0  0  0  0  0  0  0  0  0  0
  139.2189   76.1915  223.3111 H   0  0  0  0  0  0  0  0  0  0  0  0
  140.9160   77.1820  222.4330 C   0  0  0  0  0  0  0  0  0  0  0  0
  141.3407   76.9121  223.4112 H   0  0  0  0  0  0  0  0  0  0  0  0
  141.5228   76.7895  221.6037 H   0  0  0  0  0  0  0  0  0  0  0  0
  140.8980   78.7200  222.3100 C   0  0  0  0  0  0  0  0  0  0  0  0
  139.8696   79.0470  222.0966 H   0  0  0  0  0  0  0  0  0  0  0  0
  141.2609   79.1406  223.2594 H   0  0  0  0  0  0  0  0  0  0  0  0
  141.8210   79.2200  221.1860 C   0  0  0  0  0  0  0  0  0  0  0  0
  141.7772   80.3186  221.1503 H   0  0  0  0  0  0  0  0  0  0  0  0
  142.8430   78.8743  221.4007 H   0  0  0  0  0  0  0  0  0  0  0  0
  141.4010   78.6590  219.8170 C   0  0  0  0  0  0  0  0  0  0  0  0
  140.6246   77.8943  219.9665 H   0  0  0  0  0  0  0  0  0  0  0  0
  141.0184   79.4893  219.2052 H   0  0  0  0  0  0  0  0  0  0  0  0
  142.5490   78.0480  219.1080 N   0  0  0  0  0  0  0  0  0  0  0  0
  143.3890   78.6690  219.1980 H   0  0  0  0  0  0  0  0  0  0  0  0
  142.2880   77.8000  217.6780 C   0  0  0  0  0  0  0  0  0  0  0  0
  141.2056   77.7072  217.5051 H   0  0  0  0  0  0  0  0  0  0  0  0
  142.6649   78.6333  217.0668 H   0  0  0  0  0  0  0  0  0  0  0  0
  142.9900   76.4960  217.2980 C   0  0  0  0  0  0  0  0  0  0  0  0
  142.2644   75.7710  216.9005 H   0  0  0  0  0  0  0  0  0  0  0  0
  143.7476   76.6544  216.5164 H   0  0  0  0  0  0  0  0  0  0  0  0
  143.6090   75.9760  218.5830 C   0  0  0  0  0  0  0  0  0  0  0  0
  143.4377   74.8945  218.6882 H   0  0  0  0  0  0  0  0  0  0  0  0
  144.6993   76.1187  218.6121 H   0  0  0  0  0  0  0  0  0  0  0  0
  142.8960   76.7410  219.6780 C   0  0  0  0  0  0  0  0  0  0  0  0
  141.9856   76.2058  219.9858 H   0  0  0  0  0  0  0  0  0  0  0  0
  143.5316   76.8494  220.5692 H   0  0  0  0  0  0  0  0  0  0  0  0
  139.7990   73.3840  222.4320 N   0  0  0  0  0  0  0  0  0  0  0  0
  139.5870   69.9710  222.9910 C   0  0  0  0  0  0  0  0  0  0  0  0
  140.4433   69.3896  222.6185 H   0  0  0  0  0  0  0  0  0  0  0  0
  138.8773   70.2072  222.1844 H   0  0  0  0  0  0  0  0  0  0  0  0
  138.8420   69.1340  224.0370 C   0  0  0  0  0  0  0  0  0  0  0  0
  138.6929   68.1158  223.6485 H   0  0  0  0  0  0  0  0  0  0  0  0
  137.8689   69.6029  224.2450 H   0  0  0  0  0  0  0  0  0  0  0  0
  1  2  1  0
  2  3  2  0
  3  4  1  0
  3  5  1  0
  5  6  1  0
  5  7  2  0
  7  8  1  0
  8  9  2  0
  9 10  1  0
  8 11  1  0
 11 12  1  0
 11 13  1  0
 11 14  1  0
 14 15  1  0
 15 16  1  0
 16 17  2  0
 17 18  1  0
 18 19  1  0
 19 20  1  0
 19 21  1  0
 19 22  1  0
 22 23  1  0
 22 24  1  0
 22 25  1  0
 25 26  1  0
 25 27  1  0
 27 28  1  0
 27 29  1  0
 27 30  1  0
 30 31  1  0
 30 32  1  0
 17 33  1  0
 33 34  1  0
 33 35  1  0
 35 36  2  0
 36 37  1  0
 36 38  1  0
 38 39  1  0
 38 40  1  0
 38 41  1  0
 41 42  1  0
 41 43  1  0
 41 44  1  0
 44 45  1  0
 44 46  1  0
 44 47  1  0
 47 48  1  0
 47 49  1  0
 47 50  1  0
 50 51  1  0
 50 52  1  0
 50 53  1  0
 53 54  1  0
 53 55  1  0
 55 56  1  0
 55 57  1  0
 55 58  1  0
 58 59  1  0
 58 60  1  0
 58 61  1  0
 61 62  1  0
 61 63  1  0
 61 64  1  0
 64 65  1  0
 64 66  1  0
 35 67  1  0
 14 68  1  0
 68 69  1  0
 68 70  1  0
 68 71  1  0
 71 72  1  0
 71 73  1  0
  9  2  1  0
 67 15  2  0
 71  7  1  0
 30 18  1  0
 64 53  1  0
M  CHG  2  36   1  53   1
M  END
>  <UniqueID>  (17) 
480

>  <SMILES>  (17) 
c1ccc2c(c1)CCN(c1nc(N3CCNCC3)[nH]/c(=[NH+]/CCCCC[NH+]3CCCC3)n1)C2

>  <Energy>  (17) 
78.80274819762089

>  <Genealogy>  (17) 
c1ccc2c(c1)CCN(c1nc([NH2+]CCCCC[NH+]3CCCC3)nc(N3CCNCC3)n1)C2 (protonated)
c1ccc2c(c1)CCN(c1nc(N3CCNCC3)[nH]c(=[NH+]CCCCC[NH+]3CCCC3)n1)C2 (tautomer)
c1ccc2c(c1)CCN(c1nc(N3CCNCC3)[nH]/c(=[NH+]/CCCCC[NH+]3CCCC3)n1)C2 (cis-trans isomerization)
c1ccc2c(c1)CCN(c1nc(N3CCNCC3)[nH]/c(=[NH+]/CCCCC[NH+]3CCCC3)n1)C2 (3D coordinates assigned)
c1ccc2c(c1)CCN(c1nc(N3CCNCC3)[nH]/c(=[NH+]/CCCCC[NH+]3CCCC3)n1)C2 (nonaromatic ring conformer: 78.80274819762089 kcal/mol)

>  <smiles>  (17) 
c1ccc2c(c1)CCN(c1nc(NCCCCCN3CCCC3)nc(N3CCNCC3)n1)C2

>  <score_type>  (17) 
oracle

>  <origin>  (17) 
autodockgpu

>  <m_score__min__energy>  (17) 
-8.8200000000000003

>  <m_primary>  (17) 
energy

>  <meeko>  (17) 
{"free_energy": -8.41, "intermolecular_energy": -11.09, "internal_energy": -0.6, "cluster_size": 13, "cluster_id": 1, "rank_in_cluster": 7}

>  <energy>  (17) 
-7.7

>  <cluster_rmsd>  (17) 
0.61

>  <rmsd>  (17) 
270.56

>  <cluster>  (17) 
3

$$$$
MTUVCRSRZGPGQU-JVPWBLRANA-P
     RDKit          3D

 73 77  0  0  0  0  0  0  0  0999 V2000
  135.9544   79.4210  222.9413 H   0  0  0  0  0  0  0  0  0  0  0  0
  137.0420   79.3770  223.1000 C   0  0  0  0  0  0  0  0  0  0  0  0
  137.6490   80.2480  224.0080 C   0  0  0  0  0  0  0  0  0  0  0  0
  137.0377   80.9701  224.5692 H   0  0  0  0  0  0  0  0  0  0  0  0
  139.0310   80.2030  224.2040 C   0  0  0  0  0  0  0  0  0  0  0  0
  139.5064   80.8804  224.9287 H   0  0  0  0  0  0  0  0  0  0  0  0
  139.8140   79.2920  223.4750 C   0  0  0  0  0  0  0  0  0  0  0  0
  139.2040   78.4140  222.5670 C   0  0  0  0  0  0  0  0  0  0  0  0
  137.8130   78.4490  222.3920 C   0  0  0  0  0  0  0  0  0  0  0  0
  137.3282   77.7467  221.6980 H   0  0  0  0  0  0  0  0  0  0  0  0
  140.0540   77.4180  221.8190 C   0  0  0  0  0  0  0  0  0  0  0  0
  139.5434   77.1399  220.8852 H   0  0  0  0  0  0  0  0  0  0  0  0
  140.2004   76.5348  222.4582 H   0  0  0  0  0  0  0  0  0  0  0  0
  141.3770   77.9850  221.4940 N   0  0  0  0  0  0  0  0  0  0  0  0
  142.0910   77.4970  220.3440 C   0  0  0  0  0  0  0  0  0  0  0  0
  142.7330   76.3010  220.3870 N   0  0  0  0  0  0  0  0  0  0  0  0
  143.3960   75.8180  219.3020 C   0  0  0  0  0  0  0  0  0  0  0  0
  144.0770   74.5410  219.3960 N   0  0  0  0  0  0  0  0  0  0  0  0
  143.8910   73.6010  218.2720 C   0  0  0  0  0  0  0  0  0  0  0  0
  142.8126   73.4343  218.1331 H   0  0  0  0  0  0  0  0  0  0  0  0
  144.3613   74.0578  217.3888 H   0  0  0  0  0  0  0  0  0  0  0  0
  144.5650   72.2470  218.4880 C   0  0  0  0  0  0  0  0  0  0  0  0
  143.9397   71.6315  219.1515 H   0  0  0  0  0  0  0  0  0  0  0  0
  144.6860   71.7469  217.5158 H   0  0  0  0  0  0  0  0  0  0  0  0
  145.8800   72.4300  219.0970 N   0  0  0  0  0  0  0  0  0  0  0  0
  146.3420   71.4900  219.1530 H   0  0  0  0  0  0  0  0  0  0  0  0
  145.6960   72.9140  220.4620 C   0  0  0  0  0  0  0  0  0  0  0  0
  145.0343   72.2215  221.0029 H   0  0  0  0  0  0  0  0  0  0  0  0
  146.6803   72.9676  220.9501 H   0  0  0  0  0  0  0  0  0  0  0  0
  145.0700   74.3150  220.4700 C   0  0  0  0  0  0  0  0  0  0  0  0
  144.5707   74.4644  221.4387 H   0  0  0  0  0  0  0  0  0  0  0  0
  145.8893   75.0287  220.2988 H   0  0  0  0  0  0  0  0  0  0  0  0
  143.4040   76.5550  218.1500 N   0  0  0  0  0  0  0  0  0  0  0  0
  143.8990   76.2150  217.2970 H   0  0  0  0  0  0  0  0  0  0  0  0
  142.7780   77.7680  218.1010 C   0  0  0  0  0  0  0  0  0  0  0  0
  142.8180   78.4840  217.0100 N   0  0  0  0  0  0  0  0  0  0  0  0
  143.6970   78.9940  216.7590 H   0  0  0  0  0  0  0  0  0  0  0  0
  141.6860   78.6160  216.0830 C   0  0  0  0  0  0  0  0  0  0  0  0
  141.2870   79.6387  216.1522 H   0  0  0  0  0  0  0  0  0  0  0  0
  142.0498   78.4003  215.0676 H   0  0  0  0  0  0  0  0  0  0  0  0
  140.5590   77.6190  216.4080 C   0  0  0  0  0  0  0  0  0  0  0  0
  140.4774   76.8985  215.5808 H   0  0  0  0  0  0  0  0  0  0  0  0
  140.8172   77.1236  217.3556 H   0  0  0  0  0  0  0  0  0  0  0  0
  139.1910   78.3070  216.6000 C   0  0  0  0  0  0  0  0  0  0  0  0
  139.1168   79.1513  215.8988 H   0  0  0  0  0  0  0  0  0  0  0  0
  138.4061   77.5603  216.4093 H   0  0  0  0  0  0  0  0  0  0  0  0
  139.0060   78.8340  218.0320 C   0  0  0  0  0  0  0  0  0  0  0  0
  137.9345   78.8230  218.2806 H   0  0  0  0  0  0  0  0  0  0  0  0
  139.5745   78.1841  218.7136 H   0  0  0  0  0  0  0  0  0  0  0  0
  139.5380   80.2690  218.1810 C   0  0  0  0  0  0  0  0  0  0  0  0
  140.2858   80.4565  217.3964 H   0  0  0  0  0  0  0  0  0  0  0  0
  138.6901   80.9634  218.0870 H   0  0  0  0  0  0  0  0  0  0  0  0
  140.1670   80.4790  219.5060 N   0  0  0  0  0  0  0  0  0  0  0  0
  140.5340   79.5660  219.8690 H   0  0  0  0  0  0  0  0  0  0  0  0
  139.2480   81.0570  220.5050 C   0  0  0  0  0  0  0  0  0  0  0  0
  138.4414   81.6073  219.9985 H   0  0  0  0  0  0  0  0  0  0  0  0
  138.7929   80.2634  221.1159 H   0  0  0  0  0  0  0  0  0  0  0  0
  140.0590   82.0110  221.3820 C   0  0  0  0  0  0  0  0  0  0  0  0
  139.6334   83.0245  221.3422 H   0  0  0  0  0  0  0  0  0  0  0  0
  140.0510   81.6997  222.4370 H   0  0  0  0  0  0  0  0  0  0  0  0
  141.4630   82.0030  220.8050 C   0  0  0  0  0  0  0  0  0  0  0  0
  141.8660   83.0248  220.7465 H   0  0  0  0  0  0  0  0  0  0  0  0
  142.1683   81.4292  221.4241 H   0  0  0  0  0  0  0  0  0  0  0  0
  141.2960   81.4130  219.4220 C   0  0  0  0  0  0  0  0  0  0  0  0
  141.0796   82.2075  218.6926 H   0  0  0  0  0  0  0  0  0  0  0  0
  142.2129   80.9031  219.0916 H   0  0  0  0  0  0  0  0  0  0  0  0
  142.1270   78.2270  219.2020 N   0  0  0  0  0  0  0  0  0  0  0  0
  142.0030   79.0330  222.3220 C   0  0  0  0  0  0  0  0  0  0  0  0
  141.9639   79.9861  221.7742 H   0  0  0  0  0  0  0  0  0  0  0  0
  143.0397   78.7256  222.5238 H   0  0  0  0  0  0  0  0  0  0  0  0
  141.2980   79.2120  223.6720 C   0  0  0  0  0  0  0  0  0  0  0  0
  141.6520   80.1391  224.1466 H   0  0  0  0  0  0  0  0  0  0  0  0
  141.5286   78.3493  224.3143 H   0  0  0  0  0  0  0  0  0  0  0  0
  1  2  1  0
  2  3  2  0
  3  4  1  0
  3  5  1  0
  5  6  1  0
  5  7  2  0
  7  8  1  0
  8  9  2  0
  9 10  1  0
  8 11  1  0
 11 12  1  0
 11 13  1  0
 11 14  1  0
 14 15  1  0
 15 16  1  0
 16 17  2  0
 17 18  1  0
 18 19  1  0
 19 20  1  0
 19 21  1  0
 19 22  1  0
 22 23  1  0
 22 24  1  0
 22 25  1  0
 25 26  1  0
 25 27  1  0
 27 28  1  0
 27 29  1  0
 27 30  1  0
 30 31  1  0
 30 32  1  0
 17 33  1  0
 33 34  1  0
 33 35  1  0
 35 36  2  0
 36 37  1  0
 36 38  1  0
 38 39  1  0
 38 40  1  0
 38 41  1  0
 41 42  1  0
 41 43  1  0
 41 44  1  0
 44 45  1  0
 44 46  1  0
 44 47  1  0
 47 48  1  0
 47 49  1  0
 47 50  1  0
 50 51  1  0
 50 52  1  0
 50 53  1  0
 53 54  1  0
 53 55  1  0
 55 56  1  0
 55 57  1  0
 55 58  1  0
 58 59  1  0
 58 60  1  0
 58 61  1  0
 61 62  1  0
 61 63  1  0
 61 64  1  0
 64 65  1  0
 64 66  1  0
 35 67  1  0
 14 68  1  0
 68 69  1  0
 68 70  1  0
 68 71  1  0
 71 72  1  0
 71 73  1  0
  9  2  1  0
 67 15  2  0
 71  7  1  0
 30 18  1  0
 64 53  1  0
M  CHG  2  36   1  53   1
M  END
>  <UniqueID>  (18) 
480

>  <SMILES>  (18) 
c1ccc2c(c1)CCN(c1nc(N3CCNCC3)[nH]/c(=[NH+]/CCCCC[NH+]3CCCC3)n1)C2

>  <Energy>  (18) 
78.80274819762089

>  <Genealogy>  (18) 
c1ccc2c(c1)CCN(c1nc([NH2+]CCCCC[NH+]3CCCC3)nc(N3CCNCC3)n1)C2 (protonated)
c1ccc2c(c1)CCN(c1nc(N3CCNCC3)[nH]c(=[NH+]CCCCC[NH+]3CCCC3)n1)C2 (tautomer)
c1ccc2c(c1)CCN(c1nc(N3CCNCC3)[nH]/c(=[NH+]/CCCCC[NH+]3CCCC3)n1)C2 (cis-trans isomerization)
c1ccc2c(c1)CCN(c1nc(N3CCNCC3)[nH]/c(=[NH+]/CCCCC[NH+]3CCCC3)n1)C2 (3D coordinates assigned)
c1ccc2c(c1)CCN(c1nc(N3CCNCC3)[nH]/c(=[NH+]/CCCCC[NH+]3CCCC3)n1)C2 (nonaromatic ring conformer: 78.80274819762089 kcal/mol)

>  <smiles>  (18) 
c1ccc2c(c1)CCN(c1nc(NCCCCCN3CCCC3)nc(N3CCNCC3)n1)C2

>  <score_type>  (18) 
oracle

>  <origin>  (18) 
autodockgpu

>  <m_score__min__energy>  (18) 
-8.8200000000000003

>  <m_primary>  (18) 
energy

>  <meeko>  (18) 
{"free_energy": -6.29, "intermolecular_energy": -8.97, "internal_energy": -2.24, "cluster_size": 2, "cluster_id": 4, "rank_in_cluster": 2}

>  <energy>  (18) 
-7.47

>  <cluster_rmsd>  (18) 
0.64

>  <rmsd>  (18) 
270.47

>  <cluster>  (18) 
3

$$$$
MTUVCRSRZGPGQU-JVPWBLRANA-P
     RDKit          3D

 73 77  0  0  0  0  0  0  0  0999 V2000
  141.8938   69.6248  229.0893 H   0  0  0  0  0  0  0  0  0  0  0  0
  141.3190   69.3990  228.1790 C   0  0  0  0  0  0  0  0  0  0  0  0
  141.0640   68.0710  227.8280 C   0  0  0  0  0  0  0  0  0  0  0  0
  141.4300   67.2538  228.4669 H   0  0  0  0  0  0  0  0  0  0  0  0
  140.3450   67.7800  226.6670 C   0  0  0  0  0  0  0  0  0  0  0  0
  140.1342   66.7345  226.3978 H   0  0  0  0  0  0  0  0  0  0  0  0
  139.8910   68.8230  225.8430 C   0  0  0  0  0  0  0  0  0  0  0  0
  140.1420   70.1570  226.1970 C   0  0  0  0  0  0  0  0  0  0  0  0
  140.8460   70.4420  227.3770 C   0  0  0  0  0  0  0  0  0  0  0  0
  141.0258   71.4866  227.6711 H   0  0  0  0  0  0  0  0  0  0  0  0
  139.6180   71.2650  225.3200 C   0  0  0  0  0  0  0  0  0  0  0  0
  140.2384   72.1616  225.4656 H   0  0  0  0  0  0  0  0  0  0  0  0
  138.5735   71.4663  225.6000 H   0  0  0  0  0  0  0  0  0  0  0  0
  139.6540   70.8810  223.8960 N   0  0  0  0  0  0  0  0  0  0  0  0
  139.7740   71.9040  222.8910 C   0  0  0  0  0  0  0  0  0  0  0  0
  140.9800   72.1880  222.3380 N   0  0  0  0  0  0  0  0  0  0  0  0
  141.1060   73.1390  221.3730 C   0  0  0  0  0  0  0  0  0  0  0  0
  142.4170   73.4190  220.8180 N   0  0  0  0  0  0  0  0  0  0  0  0
  142.7040   74.8220  220.4570 C   0  0  0  0  0  0  0  0  0  0  0  0
  141.9267   75.1671  219.7593 H   0  0  0  0  0  0  0  0  0  0  0  0
  142.7137   75.3995  221.3932 H   0  0  0  0  0  0  0  0  0  0  0  0
  144.0660   75.0190  219.7970 C   0  0  0  0  0  0  0  0  0  0  0  0
  144.0032   74.7242  218.7391 H   0  0  0  0  0  0  0  0  0  0  0  0
  144.3531   76.0780  219.8752 H   0  0  0  0  0  0  0  0  0  0  0  0
  145.0740   74.2010  220.4670 N   0  0  0  0  0  0  0  0  0  0  0  0
  146.0050   74.4240  220.0400 H   0  0  0  0  0  0  0  0  0  0  0  0
  144.7870   72.7950  220.1930 C   0  0  0  0  0  0  0  0  0  0  0  0
  144.7279   72.6456  219.1048 H   0  0  0  0  0  0  0  0  0  0  0  0
  145.5933   72.1829  220.6233 H   0  0  0  0  0  0  0  0  0  0  0  0
  143.4590   72.3700  220.8300 C   0  0  0  0  0  0  0  0  0  0  0  0
  143.0764   71.4976  220.2800 H   0  0  0  0  0  0  0  0  0  0  0  0
  143.6720   72.1486  221.8862 H   0  0  0  0  0  0  0  0  0  0  0  0
  139.9890   73.8090  220.9550 N   0  0  0  0  0  0  0  0  0  0  0  0
  140.0470   74.5410  220.2150 H   0  0  0  0  0  0  0  0  0  0  0  0
  138.7740   73.5440  221.5180 C   0  0  0  0  0  0  0  0  0  0  0  0
  137.7150   74.2100  221.1410 N   0  0  0  0  0  0  0  0  0  0  0  0
  136.8400   73.6910  220.8980 H   0  0  0  0  0  0  0  0  0  0  0  0
  137.6690   75.6740  221.0420 C   0  0  0  0  0  0  0  0  0  0  0  0
  138.4857   76.0119  220.3872 H   0  0  0  0  0  0  0  0  0  0  0  0
  136.6885   75.9572  220.6317 H   0  0  0  0  0  0  0  0  0  0  0  0
  137.8230   76.3480  222.4180 C   0  0  0  0  0  0  0  0  0  0  0  0
  136.8660   76.8182  222.6883 H   0  0  0  0  0  0  0  0  0  0  0  0
  138.1121   75.5686  223.1384 H   0  0  0  0  0  0  0  0  0  0  0  0
  138.9250   77.4280  222.4340 C   0  0  0  0  0  0  0  0  0  0  0  0
  138.7228   78.1533  221.6321 H   0  0  0  0  0  0  0  0  0  0  0  0
  138.9115   77.9120  223.4217 H   0  0  0  0  0  0  0  0  0  0  0  0
  140.3240   76.8280  222.2190 C   0  0  0  0  0  0  0  0  0  0  0  0
  140.8498   76.7934  223.1846 H   0  0  0  0  0  0  0  0  0  0  0  0
  140.2044   75.8179  221.8002 H   0  0  0  0  0  0  0  0  0  0  0  0
  141.1530   77.6640  221.2290 C   0  0  0  0  0  0  0  0  0  0  0  0
  141.7642   76.9875  220.6136 H   0  0  0  0  0  0  0  0  0  0  0  0
  140.4605   78.2443  220.6015 H   0  0  0  0  0  0  0  0  0  0  0  0
  142.0460   78.6110  221.9360 N   0  0  0  0  0  0  0  0  0  0  0  0
  143.0460   78.3660  221.7360 H   0  0  0  0  0  0  0  0  0  0  0  0
  141.8390   78.6320  223.3960 C   0  0  0  0  0  0  0  0  0  0  0  0
  140.8205   78.2924  223.6353 H   0  0  0  0  0  0  0  0  0  0  0  0
  142.5525   77.9612  223.8969 H   0  0  0  0  0  0  0  0  0  0  0  0
  142.0330   80.0720  223.8700 C   0  0  0  0  0  0  0  0  0  0  0  0
  141.1275   80.4338  224.3791 H   0  0  0  0  0  0  0  0  0  0  0  0
  142.8616   80.1554  224.5886 H   0  0  0  0  0  0  0  0  0  0  0  0
  142.2950   80.8840  222.6150 C   0  0  0  0  0  0  0  0  0  0  0  0
  141.7222   81.8230  222.6318 H   0  0  0  0  0  0  0  0  0  0  0  0
  143.3521   81.1705  222.5131 H   0  0  0  0  0  0  0  0  0  0  0  0
  141.8270   79.9910  221.4870 C   0  0  0  0  0  0  0  0  0  0  0  0
  140.7592   80.1608  221.2848 H   0  0  0  0  0  0  0  0  0  0  0  0
  142.3759   80.2007  220.5571 H   0  0  0  0  0  0  0  0  0  0  0  0
  138.6790   72.5910  222.4830 N   0  0  0  0  0  0  0  0  0  0  0  0
  139.5580   69.4740  223.4650 C   0  0  0  0  0  0  0  0  0  0  0  0
  140.5463   69.1452  223.1112 H   0  0  0  0  0  0  0  0  0  0  0  0
  138.8038   69.4199  222.6661 H   0  0  0  0  0  0  0  0  0  0  0  0
  139.1060   68.5430  224.5960 C   0  0  0  0  0  0  0  0  0  0  0  0
  139.2668   67.4980  224.2925 H   0  0  0  0  0  0  0  0  0  0  0  0
  138.0385   68.7157  224.7978 H   0  0  0  0  0  0  0  0  0  0  0  0
  1  2  1  0
  2  3  2  0
  3  4  1  0
  3  5  1  0
  5  6  1  0
  5  7  2  0
  7  8  1  0
  8  9  2  0
  9 10  1  0
  8 11  1  0
 11 12  1  0
 11 13  1  0
 11 14  1  0
 14 15  1  0
 15 16  1  0
 16 17  2  0
 17 18  1  0
 18 19  1  0
 19 20  1  0
 19 21  1  0
 19 22  1  0
 22 23  1  0
 22 24  1  0
 22 25  1  0
 25 26  1  0
 25 27  1  0
 27 28  1  0
 27 29  1  0
 27 30  1  0
 30 31  1  0
 30 32  1  0
 17 33  1  0
 33 34  1  0
 33 35  1  0
 35 36  2  0
 36 37  1  0
 36 38  1  0
 38 39  1  0
 38 40  1  0
 38 41  1  0
 41 42  1  0
 41 43  1  0
 41 44  1  0
 44 45  1  0
 44 46  1  0
 44 47  1  0
 47 48  1  0
 47 49  1  0
 47 50  1  0
 50 51  1  0
 50 52  1  0
 50 53  1  0
 53 54  1  0
 53 55  1  0
 55 56  1  0
 55 57  1  0
 55 58  1  0
 58 59  1  0
 58 60  1  0
 58 61  1  0
 61 62  1  0
 61 63  1  0
 61 64  1  0
 64 65  1  0
 64 66  1  0
 35 67  1  0
 14 68  1  0
 68 69  1  0
 68 70  1  0
 68 71  1  0
 71 72  1  0
 71 73  1  0
  9  2  1  0
 67 15  2  0
 71  7  1  0
 30 18  1  0
 64 53  1  0
M  CHG  2  36   1  53   1
M  END
>  <UniqueID>  (19) 
480

>  <SMILES>  (19) 
c1ccc2c(c1)CCN(c1nc(N3CCNCC3)[nH]/c(=[NH+]/CCCCC[NH+]3CCCC3)n1)C2

>  <Energy>  (19) 
78.80274819762089

>  <Genealogy>  (19) 
c1ccc2c(c1)CCN(c1nc([NH2+]CCCCC[NH+]3CCCC3)nc(N3CCNCC3)n1)C2 (protonated)
c1ccc2c(c1)CCN(c1nc(N3CCNCC3)[nH]c(=[NH+]CCCCC[NH+]3CCCC3)n1)C2 (tautomer)
c1ccc2c(c1)CCN(c1nc(N3CCNCC3)[nH]/c(=[NH+]/CCCCC[NH+]3CCCC3)n1)C2 (cis-trans isomerization)
c1ccc2c(c1)CCN(c1nc(N3CCNCC3)[nH]/c(=[NH+]/CCCCC[NH+]3CCCC3)n1)C2 (3D coordinates assigned)
c1ccc2c(c1)CCN(c1nc(N3CCNCC3)[nH]/c(=[NH+]/CCCCC[NH+]3CCCC3)n1)C2 (nonaromatic ring conformer: 78.80274819762089 kcal/mol)

>  <smiles>  (19) 
c1ccc2c(c1)CCN(c1nc(NCCCCCN3CCCC3)nc(N3CCNCC3)n1)C2

>  <score_type>  (19) 
oracle

>  <origin>  (19) 
autodockgpu

>  <m_score__min__energy>  (19) 
-8.8200000000000003

>  <m_primary>  (19) 
energy

>  <meeko>  (19) 
{"free_energy": -8.82, "intermolecular_energy": -11.51, "internal_energy": -0.52, "cluster_size": 13, "cluster_id": 1, "rank_in_cluster": 1}

>  <energy>  (19) 
-6.77

>  <cluster_rmsd>  (19) 
0.0

>  <rmsd>  (19) 
270.54

>  <cluster>  (19) 
4

$$$$
MTUVCRSRZGPGQU-JVPWBLRANA-P
     RDKit          3D

 73 77  0  0  0  0  0  0  0  0999 V2000
  141.7921   68.6833  228.3345 H   0  0  0  0  0  0  0  0  0  0  0  0
  141.1290   68.8100  227.4660 C   0  0  0  0  0  0  0  0  0  0  0  0
  140.3390   67.7430  227.0310 C   0  0  0  0  0  0  0  0  0  0  0  0
  140.3742   66.7809  227.5631 H   0  0  0  0  0  0  0  0  0  0  0  0
  139.5050   67.8960  225.9220 C   0  0  0  0  0  0  0  0  0  0  0  0
  138.8740   67.0590  225.5884 H   0  0  0  0  0  0  0  0  0  0  0  0
  139.4720   69.1200  225.2320 C   0  0  0  0  0  0  0  0  0  0  0  0
  140.2610   70.1940  225.6710 C   0  0  0  0  0  0  0  0  0  0  0  0
  141.0790   70.0390  226.8000 C   0  0  0  0  0  0  0  0  0  0  0  0
  141.6818   70.8849  227.1620 H   0  0  0  0  0  0  0  0  0  0  0  0
  140.1870   71.5110  224.9420 C   0  0  0  0  0  0  0  0  0  0  0  0
  141.1242   72.0638  225.1034 H   0  0  0  0  0  0  0  0  0  0  0  0
  139.3301   72.0787  225.3337 H   0  0  0  0  0  0  0  0  0  0  0  0
  139.9910   71.3080  223.4940 N   0  0  0  0  0  0  0  0  0  0  0  0
  140.4640   72.3050  222.5700 C   0  0  0  0  0  0  0  0  0  0  0  0
  141.6350   72.1300  221.9070 N   0  0  0  0  0  0  0  0  0  0  0  0
  142.0860   73.0550  221.0170 C   0  0  0  0  0  0  0  0  0  0  0  0
  143.3490   72.8320  220.3380 N   0  0  0  0  0  0  0  0  0  0  0  0
  143.3040   72.0600  219.0800 C   0  0  0  0  0  0  0  0  0  0  0  0
  142.8193   71.0936  219.2826 H   0  0  0  0  0  0  0  0  0  0  0  0
  142.7448   72.6649  218.3510 H   0  0  0  0  0  0  0  0  0  0  0  0
  144.6800   71.7920  218.4760 C   0  0  0  0  0  0  0  0  0  0  0  0
  145.1553   70.9566  219.0109 H   0  0  0  0  0  0  0  0  0  0  0  0
  144.5620   71.5379  217.4123 H   0  0  0  0  0  0  0  0  0  0  0  0
  145.5210   72.9800  218.5920 N   0  0  0  0  0  0  0  0  0  0  0  0
  146.4250   72.7850  218.0960 H   0  0  0  0  0  0  0  0  0  0  0  0
  145.8300   73.1960  220.0030 C   0  0  0  0  0  0  0  0  0  0  0  0
  146.2760   72.2800  220.4179 H   0  0  0  0  0  0  0  0  0  0  0  0
  146.5338   74.0376  220.0829 H   0  0  0  0  0  0  0  0  0  0  0  0
  144.5640   73.5410  220.7960 C   0  0  0  0  0  0  0  0  0  0  0  0
  144.7369   73.2827  221.8512 H   0  0  0  0  0  0  0  0  0  0  0  0
  144.3792   74.6147  220.6446 H   0  0  0  0  0  0  0  0  0  0  0  0
  141.3330   74.1740  220.7870 N   0  0  0  0  0  0  0  0  0  0  0  0
  141.6450   74.9020  220.1100 H   0  0  0  0  0  0  0  0  0  0  0  0
  140.1630   74.3690  221.4640 C   0  0  0  0  0  0  0  0  0  0  0  0
  139.4640   75.4550  221.2680 N   0  0  0  0  0  0  0  0  0  0  0  0
  139.0170   75.6200  220.3360 H   0  0  0  0  0  0  0  0  0  0  0  0
  139.2510   76.4810  222.2970 C   0  0  0  0  0  0  0  0  0  0  0  0
  138.5233   76.1032  223.0302 H   0  0  0  0  0  0  0  0  0  0  0  0
  140.2203   76.6928  222.7720 H   0  0  0  0  0  0  0  0  0  0  0  0
  138.7170   77.7950  221.6980 C   0  0  0  0  0  0  0  0  0  0  0  0
  137.6253   77.7142  221.5896 H   0  0  0  0  0  0  0  0  0  0  0  0
  138.9989   78.6100  222.3809 H   0  0  0  0  0  0  0  0  0  0  0  0
  139.3280   78.1120  220.3170 C   0  0  0  0  0  0  0  0  0  0  0  0
  138.9643   77.3712  219.5897 H   0  0  0  0  0  0  0  0  0  0  0  0
  139.0213   79.1305  220.0367 H   0  0  0  0  0  0  0  0  0  0  0  0
  140.8650   78.0700  220.3410 C   0  0  0  0  0  0  0  0  0  0  0  0
  141.1920   77.4488  221.1879 H   0  0  0  0  0  0  0  0  0  0  0  0
  141.2126   77.6475  219.3867 H   0  0  0  0  0  0  0  0  0  0  0  0
  141.4670   79.4760  220.4920 C   0  0  0  0  0  0  0  0  0  0  0  0
  142.1569   79.6614  219.6555 H   0  0  0  0  0  0  0  0  0  0  0  0
  140.6444   80.2062  220.4896 H   0  0  0  0  0  0  0  0  0  0  0  0
  142.2080   79.6140  221.7670 N   0  0  0  0  0  0  0  0  0  0  0  0
  143.2310   79.4510  221.5980 H   0  0  0  0  0  0  0  0  0  0  0  0
  141.7420   78.6900  222.8180 C   0  0  0  0  0  0  0  0  0  0  0  0
  140.7010   78.3934  222.6219 H   0  0  0  0  0  0  0  0  0  0  0  0
  142.3619   77.7815  222.8358 H   0  0  0  0  0  0  0  0  0  0  0  0
  141.8310   79.4260  224.1540 C   0  0  0  0  0  0  0  0  0  0  0  0
  140.8445   79.4610  224.6394 H   0  0  0  0  0  0  0  0  0  0  0  0
  142.5154   78.9211  224.8516 H   0  0  0  0  0  0  0  0  0  0  0  0
  142.3060   80.8280  223.8180 C   0  0  0  0  0  0  0  0  0  0  0  0
  141.7296   81.5793  224.3778 H   0  0  0  0  0  0  0  0  0  0  0  0
  143.3611   80.9891  224.0840 H   0  0  0  0  0  0  0  0  0  0  0  0
  142.0580   80.9610  222.3310 C   0  0  0  0  0  0  0  0  0  0  0  0
  141.0421   81.3403  222.1466 H   0  0  0  0  0  0  0  0  0  0  0  0
  142.7624   81.6687  221.8696 H   0  0  0  0  0  0  0  0  0  0  0  0
  139.7400   73.4300  222.3500 N   0  0  0  0  0  0  0  0  0  0  0  0
  139.3110   70.1140  222.9580 C   0  0  0  0  0  0  0  0  0  0  0  0
  140.0619   69.4611  222.4891 H   0  0  0  0  0  0  0  0  0  0  0  0
  138.5606   70.4554  222.2297 H   0  0  0  0  0  0  0  0  0  0  0  0
  138.5780   69.3190  224.0440 C   0  0  0  0  0  0  0  0  0  0  0  0
  138.2851   68.3382  223.6412 H   0  0  0  0  0  0  0  0  0  0  0  0
  137.6840   69.8784  224.3569 H   0  0  0  0  0  0  0  0  0  0  0  0
  1  2  1  0
  2  3  2  0
  3  4  1  0
  3  5  1  0
  5  6  1  0
  5  7  2  0
  7  8  1  0
  8  9  2  0
  9 10  1  0
  8 11  1  0
 11 12  1  0
 11 13  1  0
 11 14  1  0
 14 15  1  0
 15 16  1  0
 16 17  2  0
 17 18  1  0
 18 19  1  0
 19 20  1  0
 19 21  1  0
 19 22  1  0
 22 23  1  0
 22 24  1  0
 22 25  1  0
 25 26  1  0
 25 27  1  0
 27 28  1  0
 27 29  1  0
 27 30  1  0
 30 31  1  0
 30 32  1  0
 17 33  1  0
 33 34  1  0
 33 35  1  0
 35 36  2  0
 36 37  1  0
 36 38  1  0
 38 39  1  0
 38 40  1  0
 38 41  1  0
 41 42  1  0
 41 43  1  0
 41 44  1  0
 44 45  1  0
 44 46  1  0
 44 47  1  0
 47 48  1  0
 47 49  1  0
 47 50  1  0
 50 51  1  0
 50 52  1  0
 50 53  1  0
 53 54  1  0
 53 55  1  0
 55 56  1  0
 55 57  1  0
 55 58  1  0
 58 59  1  0
 58 60  1  0
 58 61  1  0
 61 62  1  0
 61 63  1  0
 61 64  1  0
 64 65  1  0
 64 66  1  0
 35 67  1  0
 14 68  1  0
 68 69  1  0
 68 70  1  0
 68 71  1  0
 71 72  1  0
 71 73  1  0
  9  2  1  0
 67 15  2  0
 71  7  1  0
 30 18  1  0
 64 53  1  0
M  CHG  2  36   1  53   1
M  END
>  <UniqueID>  (20) 
480

>  <SMILES>  (20) 
c1ccc2c(c1)CCN(c1nc(N3CCNCC3)[nH]/c(=[NH+]/CCCCC[NH+]3CCCC3)n1)C2

>  <Energy>  (20) 
78.80274819762089

>  <Genealogy>  (20) 
c1ccc2c(c1)CCN(c1nc([NH2+]CCCCC[NH+]3CCCC3)nc(N3CCNCC3)n1)C2 (protonated)
c1ccc2c(c1)CCN(c1nc(N3CCNCC3)[nH]c(=[NH+]CCCCC[NH+]3CCCC3)n1)C2 (tautomer)
c1ccc2c(c1)CCN(c1nc(N3CCNCC3)[nH]/c(=[NH+]/CCCCC[NH+]3CCCC3)n1)C2 (cis-trans isomerization)
c1ccc2c(c1)CCN(c1nc(N3CCNCC3)[nH]/c(=[NH+]/CCCCC[NH+]3CCCC3)n1)C2 (3D coordinates assigned)
c1ccc2c(c1)CCN(c1nc(N3CCNCC3)[nH]/c(=[NH+]/CCCCC[NH+]3CCCC3)n1)C2 (nonaromatic ring conformer: 78.80274819762089 kcal/mol)

>  <smiles>  (20) 
c1ccc2c(c1)CCN(c1nc(NCCCCCN3CCCC3)nc(N3CCNCC3)n1)C2

>  <score_type>  (20) 
oracle

>  <origin>  (20) 
autodockgpu

>  <m_score__min__energy>  (20) 
-8.8200000000000003

>  <m_primary>  (20) 
energy

>  <meeko>  (20) 
{"free_energy": -8.68, "intermolecular_energy": -11.37, "internal_energy": -0.22, "cluster_size": 13, "cluster_id": 1, "rank_in_cluster": 3}

>  <energy>  (20) 
-6.29

>  <cluster_rmsd>  (20) 
0.75

>  <rmsd>  (20) 
270.38

>  <cluster>  (20) 
4

$$$$
MTUVCRSRZGPGQU-NMOKVYIGNA-P
     RDKit          3D

 73 77  0  0  0  0  0  0  0  0999 V2000
  142.5021   66.4194  219.3067 H   0  0  0  0  0  0  0  0  0  0  0  0
  143.0160   67.3910  219.3500 C   0  0  0  0  0  0  0  0  0  0  0  0
  144.3890   67.4430  219.6090 C   0  0  0  0  0  0  0  0  0  0  0  0
  144.9526   66.5120  219.7692 H   0  0  0  0  0  0  0  0  0  0  0  0
  145.0480   68.6760  219.6650 C   0  0  0  0  0  0  0  0  0  0  0  0
  146.1307   68.7132  219.8555 H   0  0  0  0  0  0  0  0  0  0  0  0
  144.3270   69.8650  219.4780 C   0  0  0  0  0  0  0  0  0  0  0  0
  142.9490   69.8110  219.2140 C   0  0  0  0  0  0  0  0  0  0  0  0
  142.2950   68.5710  219.1460 C   0  0  0  0  0  0  0  0  0  0  0  0
  141.2168   68.5278  218.9325 H   0  0  0  0  0  0  0  0  0  0  0  0
  142.2200   71.1000  218.9820 C   0  0  0  0  0  0  0  0  0  0  0  0
  141.1416   70.9439  219.1325 H   0  0  0  0  0  0  0  0  0  0  0  0
  142.3998   71.4435  217.9526 H   0  0  0  0  0  0  0  0  0  0  0  0
  142.7070   72.1160  219.9320 N   0  0  0  0  0  0  0  0  0  0  0  0
  141.7620   72.8670  220.7210 C   0  0  0  0  0  0  0  0  0  0  0  0
  140.8500   72.2080  221.4790 N   0  0  0  0  0  0  0  0  0  0  0  0
  139.9380   72.8860  222.2200 C   0  0  0  0  0  0  0  0  0  0  0  0
  139.0580   72.2500  222.9430 N   0  0  0  0  0  0  0  0  0  0  0  0
  138.0930   72.6450  223.0280 H   0  0  0  0  0  0  0  0  0  0  0  0
  139.3660   71.0460  223.7230 C   0  0  0  0  0  0  0  0  0  0  0  0
  138.6200   70.9367  224.5239 H   0  0  0  0  0  0  0  0  0  0  0  0
  139.3404   70.1776  223.0483 H   0  0  0  0  0  0  0  0  0  0  0  0
  140.7650   71.1340  224.3500 C   0  0  0  0  0  0  0  0  0  0  0  0
  141.1693   70.1183  224.4722 H   0  0  0  0  0  0  0  0  0  0  0  0
  141.4106   71.7276  223.6861 H   0  0  0  0  0  0  0  0  0  0  0  0
  140.7090   71.8220  225.7240 C   0  0  0  0  0  0  0  0  0  0  0  0
  141.3178   72.7373  225.6846 H   0  0  0  0  0  0  0  0  0  0  0  0
  139.6541   72.0450  225.9418 H   0  0  0  0  0  0  0  0  0  0  0  0
  141.2380   70.9280  226.8550 C   0  0  0  0  0  0  0  0  0  0  0  0
  141.3598   69.9060  226.4667 H   0  0  0  0  0  0  0  0  0  0  0  0
  142.1941   71.3543  227.1929 H   0  0  0  0  0  0  0  0  0  0  0  0
  140.2980   70.8820  228.0710 C   0  0  0  0  0  0  0  0  0  0  0  0
  140.8873   71.0135  228.9905 H   0  0  0  0  0  0  0  0  0  0  0  0
  139.5560   71.6890  227.9807 H   0  0  0  0  0  0  0  0  0  0  0  0
  139.5920   69.5820  228.1250 N   0  0  0  0  0  0  0  0  0  0  0  0
  140.4830   68.4980  228.5730 C   0  0  0  0  0  0  0  0  0  0  0  0
  141.2965   68.9139  229.1856 H   0  0  0  0  0  0  0  0  0  0  0  0
  139.9224   67.7715  229.1795 H   0  0  0  0  0  0  0  0  0  0  0  0
  141.0630   67.8170  227.3380 C   0  0  0  0  0  0  0  0  0  0  0  0
  142.1246   68.0790  227.2180 H   0  0  0  0  0  0  0  0  0  0  0  0
  141.0087   66.7210  227.4145 H   0  0  0  0  0  0  0  0  0  0  0  0
  140.2540   68.3380  226.1670 C   0  0  0  0  0  0  0  0  0  0  0  0
  140.8791   68.9648  225.5141 H   0  0  0  0  0  0  0  0  0  0  0  0
  139.8622   67.5226  225.5412 H   0  0  0  0  0  0  0  0  0  0  0  0
  139.1410   69.1620  226.7910 C   0  0  0  0  0  0  0  0  0  0  0  0
  138.9352   70.0459  226.1693 H   0  0  0  0  0  0  0  0  0  0  0  0
  138.2172   68.5695  226.8648 H   0  0  0  0  0  0  0  0  0  0  0  0
  139.9500   74.2430  222.2060 N   0  0  0  0  0  0  0  0  0  0  0  0
  140.8630   74.9270  221.4670 C   0  0  0  0  0  0  0  0  0  0  0  0
  140.8510   76.3750  221.4710 N   0  0  0  0  0  0  0  0  0  0  0  0
  140.6260   77.1270  220.2260 C   0  0  0  0  0  0  0  0  0  0  0  0
  140.7381   76.4454  219.3699 H   0  0  0  0  0  0  0  0  0  0  0  0
  139.6115   77.5512  220.2538 H   0  0  0  0  0  0  0  0  0  0  0  0
  141.6370   78.2860  220.0830 C   0  0  0  0  0  0  0  0  0  0  0  0
  142.4692   77.9452  219.4495 H   0  0  0  0  0  0  0  0  0  0  0  0
  141.0941   79.1343  219.6407 H   0  0  0  0  0  0  0  0  0  0  0  0
  142.1910   78.7510  221.3710 N   0  0  0  0  0  0  0  0  0  0  0  0
  142.4600   79.7600  221.2820 H   0  0  0  0  0  0  0  0  0  0  0  0
  143.0590   78.2080  221.5950 H   0  0  0  0  0  0  0  0  0  0  0  0
  141.2330   78.6080  222.4740 C   0  0  0  0  0  0  0  0  0  0  0  0
  141.6545   79.0611  223.3834 H   0  0  0  0  0  0  0  0  0  0  0  0
  140.2946   79.1148  222.2048 H   0  0  0  0  0  0  0  0  0  0  0  0
  140.9470   77.1240  222.7320 C   0  0  0  0  0  0  0  0  0  0  0  0
  141.7613   76.7018  223.3392 H   0  0  0  0  0  0  0  0  0  0  0  0
  139.9861   77.0409  223.2609 H   0  0  0  0  0  0  0  0  0  0  0  0
  141.7740   74.2300  220.7230 N   0  0  0  0  0  0  0  0  0  0  0  0
  142.4780   74.7350  220.1450 H   0  0  0  0  0  0  0  0  0  0  0  0
  144.1540   72.2730  220.1840 C   0  0  0  0  0  0  0  0  0  0  0  0
  144.3305   72.2001  221.2673 H   0  0  0  0  0  0  0  0  0  0  0  0
  144.4520   73.2529  219.7828 H   0  0  0  0  0  0  0  0  0  0  0  0
  145.0110   71.2070  219.4750 C   0  0  0  0  0  0  0  0  0  0  0  0
  145.9760   71.1186  219.9955 H   0  0  0  0  0  0  0  0  0  0  0  0
  145.1596   71.5189  218.4307 H   0  0  0  0  0  0  0  0  0  0  0  0
  1  2  1  0
  2  3  2  0
  3  4  1  0
  3  5  1  0
  5  6  1  0
  5  7  2  0
  7  8  1  0
  8  9  2  0
  9 10  1  0
  8 11  1  0
 11 12  1  0
 11 13  1  0
 11 14  1  0
 14 15  1  0
 15 16  2  0
 16 17  1  0
 17 18  2  0
 18 19  1  0
 18 20  1  0
 20 21  1  0
 20 22  1  0
 20 23  1  0
 23 24  1  0
 23 25  1  0
 23 26  1  0
 26 27  1  0
 26 28  1  0
 26 29  1  0
 29 30  1  0
 29 31  1  0
 29 32  1  0
 32 33  1  0
 32 34  1  0
 32 35  1  0
 35 36  1  0
 36 37  1  0
 36 38  1  0
 36 39  1  0
 39 40  1  0
 39 41  1  0
 39 42  1  0
 42 43  1  0
 42 44  1  0
 42 45  1  0
 45 46  1  0
 45 47  1  0
 17 48  1  0
 48 49  2  0
 49 50  1  0
 50 51  1  0
 51 52  1  0
 51 53  1  0
 51 54  1  0
 54 55  1  0
 54 56  1  0
 54 57  1  0
 57 58  1  0
 57 59  1  0
 57 60  1  0
 60 61  1  0
 60 62  1  0
 60 63  1  0
 63 64  1  0
 63 65  1  0
 49 66  1  0
 66 67  1  0
 14 68  1  0
 68 69  1  0
 68 70  1  0
 68 71  1  0
 71 72  1  0
 71 73  1  0
  9  2  1  0
 66 15  1  0
 71  7  1  0
 45 35  1  0
 63 50  1  0
M  CHG  2  18   1  57   1
M  END
>  <UniqueID>  (21) 
481

>  <SMILES>  (21) 
c1ccc2c(c1)CCN(c1n/c(=[NH+]/CCCCCN3CCCC3)nc(N3CC[NH2+]CC3)[nH]1)C2

>  <Energy>  (21) 
79.9890088026592

>  <Genealogy>  (21) 
c1ccc2c(c1)CCN(c1nc([NH2+]CCCCCN3CCCC3)nc(N3CC[NH2+]CC3)n1)C2 (protonated)
c1ccc2c(c1)CCN(c1nc(=[NH+]CCCCCN3CCCC3)nc(N3CC[NH2+]CC3)[nH]1)C2 (tautomer)
c1ccc2c(c1)CCN(c1n/c(=[NH+]/CCCCCN3CCCC3)nc(N3CC[NH2+]CC3)[nH]1)C2 (cis-trans isomerization)
c1ccc2c(c1)CCN(c1n/c(=[NH+]/CCCCCN3CCCC3)nc(N3CC[NH2+]CC3)[nH]1)C2 (3D coordinates assigned)
c1ccc2c(c1)CCN(c1n/c(=[NH+]/CCCCCN3CCCC3)nc(N3CC[NH2+]CC3)[nH]1)C2 (nonaromatic ring conformer: 79.9890088026592 kcal/mol)

>  <smiles>  (21) 
c1ccc2c(c1)CCN(c1nc(NCCCCCN3CCCC3)nc(N3CCNCC3)n1)C2

>  <score_type>  (21) 
oracle

>  <origin>  (21) 
autodockgpu

>  <m_score__min__energy>  (21) 
-9.7300000000000004

>  <m_primary>  (21) 
energy

>  <meeko>  (21) 
{"free_energy": -8.65, "intermolecular_energy": -11.33, "internal_energy": -0.29, "cluster_size": 1, "cluster_id": 2, "rank_in_cluster": 1}

>  <energy>  (21) 
-9.73

>  <cluster_rmsd>  (21) 
0.0

>  <rmsd>  (21) 
272.1

>  <cluster>  (21) 
1

$$$$
MTUVCRSRZGPGQU-NMOKVYIGNA-P
     RDKit          3D

 73 77  0  0  0  0  0  0  0  0999 V2000
  138.4000   81.6913  225.1141 H   0  0  0  0  0  0  0  0  0  0  0  0
  138.0800   81.1970  224.1850 C   0  0  0  0  0  0  0  0  0  0  0  0
  137.1130   80.1880  224.2290 C   0  0  0  0  0  0  0  0  0  0  0  0
  136.6759   79.8888  225.1930 H   0  0  0  0  0  0  0  0  0  0  0  0
  136.7000   79.5580  223.0500 C   0  0  0  0  0  0  0  0  0  0  0  0
  135.9279   78.7753  223.0856 H   0  0  0  0  0  0  0  0  0  0  0  0
  137.2710   79.9250  221.8230 C   0  0  0  0  0  0  0  0  0  0  0  0
  138.2390   80.9400  221.7800 C   0  0  0  0  0  0  0  0  0  0  0  0
  138.6410   81.5790  222.9630 C   0  0  0  0  0  0  0  0  0  0  0  0
  139.3957   82.3785  222.9287 H   0  0  0  0  0  0  0  0  0  0  0  0
  138.7990   81.3320  220.4450 C   0  0  0  0  0  0  0  0  0  0  0  0
  139.7534   81.8599  220.5880 H   0  0  0  0  0  0  0  0  0  0  0  0
  138.0886   81.9943  219.9286 H   0  0  0  0  0  0  0  0  0  0  0  0
  139.0230   80.1220  219.6340 N   0  0  0  0  0  0  0  0  0  0  0  0
  140.3030   79.9110  219.0040 C   0  0  0  0  0  0  0  0  0  0  0  0
  141.0200   78.7980  219.3000 N   0  0  0  0  0  0  0  0  0  0  0  0
  142.2340   78.5790  218.7360 C   0  0  0  0  0  0  0  0  0  0  0  0
  142.9240   77.5110  219.0280 N   0  0  0  0  0  0  0  0  0  0  0  0
  143.9490   77.6050  219.2100 H   0  0  0  0  0  0  0  0  0  0  0  0
  142.3600   76.1560  219.0310 C   0  0  0  0  0  0  0  0  0  0  0  0
  141.4646   76.1388  218.3923 H   0  0  0  0  0  0  0  0  0  0  0  0
  143.1224   75.4609  218.6496 H   0  0  0  0  0  0  0  0  0  0  0  0
  141.9710   75.7190  220.4500 C   0  0  0  0  0  0  0  0  0  0  0  0
  141.8596   74.6249  220.4717 H   0  0  0  0  0  0  0  0  0  0  0  0
  142.7614   76.0395  221.1447 H   0  0  0  0  0  0  0  0  0  0  0  0
  140.6460   76.3680  220.8820 C   0  0  0  0  0  0  0  0  0  0  0  0
  140.4086   77.1830  220.1825 H   0  0  0  0  0  0  0  0  0  0  0  0
  139.8731   75.5853  220.8712 H   0  0  0  0  0  0  0  0  0  0  0  0
  140.7050   76.9430  222.3050 C   0  0  0  0  0  0  0  0  0  0  0  0
  139.8548   76.5461  222.8792 H   0  0  0  0  0  0  0  0  0  0  0  0
  141.6696   76.6444  222.7414 H   0  0  0  0  0  0  0  0  0  0  0  0
  140.6420   78.4780  222.3340 C   0  0  0  0  0  0  0  0  0  0  0  0
  140.2100   78.8413  221.3899 H   0  0  0  0  0  0  0  0  0  0  0  0
  140.0160   78.7944  223.1814 H   0  0  0  0  0  0  0  0  0  0  0  0
  141.9990   79.0450  222.5000 N   0  0  0  0  0  0  0  0  0  0  0  0
  142.1920   79.6080  223.8460 C   0  0  0  0  0  0  0  0  0  0  0  0
  141.5155   79.1118  224.5574 H   0  0  0  0  0  0  0  0  0  0  0  0
  143.2290   79.4510  224.1777 H   0  0  0  0  0  0  0  0  0  0  0  0
  141.8780   81.0990  223.7900 C   0  0  0  0  0  0  0  0  0  0  0  0
  140.9215   81.3092  224.2909 H   0  0  0  0  0  0  0  0  0  0  0  0
  142.6467   81.6967  224.3017 H   0  0  0  0  0  0  0  0  0  0  0  0
  141.7900   81.4410  222.3160 C   0  0  0  0  0  0  0  0  0  0  0  0
  140.7592   81.7111  222.0430 H   0  0  0  0  0  0  0  0  0  0  0  0
  142.4221   82.3023  222.0541 H   0  0  0  0  0  0  0  0  0  0  0  0
  142.2200   80.1780  221.5910 C   0  0  0  0  0  0  0  0  0  0  0  0
  141.6212   80.0479  220.6775 H   0  0  0  0  0  0  0  0  0  0  0  0
  143.2798   80.2404  221.3031 H   0  0  0  0  0  0  0  0  0  0  0  0
  142.7290   79.4850  217.8560 N   0  0  0  0  0  0  0  0  0  0  0  0
  142.0230   80.6020  217.5300 C   0  0  0  0  0  0  0  0  0  0  0  0
  142.5770   81.5520  216.5890 N   0  0  0  0  0  0  0  0  0  0  0  0
  141.9250   81.7920  215.2920 C   0  0  0  0  0  0  0  0  0  0  0  0
  141.1890   80.9955  215.1079 H   0  0  0  0  0  0  0  0  0  0  0  0
  141.4332   82.7753  215.3270 H   0  0  0  0  0  0  0  0  0  0  0  0
  142.9540   81.8020  214.1410 C   0  0  0  0  0  0  0  0  0  0  0  0
  142.9720   80.8025  213.6819 H   0  0  0  0  0  0  0  0  0  0  0  0
  142.6381   82.5821  213.4327 H   0  0  0  0  0  0  0  0  0  0  0  0
  144.3250   82.1410  214.5760 N   0  0  0  0  0  0  0  0  0  0  0  0
  144.8380   82.5820  213.7760 H   0  0  0  0  0  0  0  0  0  0  0  0
  144.8350   81.2630  214.8370 H   0  0  0  0  0  0  0  0  0  0  0  0
  144.3370   83.0650  215.7170 C   0  0  0  0  0  0  0  0  0  0  0  0
  145.3734   83.3631  215.9337 H   0  0  0  0  0  0  0  0  0  0  0  0
  143.7380   83.9536  215.4690 H   0  0  0  0  0  0  0  0  0  0  0  0
  143.7360   82.3800  216.9520 C   0  0  0  0  0  0  0  0  0  0  0  0
  144.5018   81.7414  217.4165 H   0  0  0  0  0  0  0  0  0  0  0  0
  143.4021   83.1581  217.6541 H   0  0  0  0  0  0  0  0  0  0  0  0
  140.8030   80.8110  218.1100 N   0  0  0  0  0  0  0  0  0  0  0  0
  140.2490   81.6620  217.8790 H   0  0  0  0  0  0  0  0  0  0  0  0
  137.9990   79.0590  219.5750 C   0  0  0  0  0  0  0  0  0  0  0  0
  138.4706   78.1031  219.8466 H   0  0  0  0  0  0  0  0  0  0  0  0
  137.5997   79.0445  218.5501 H   0  0  0  0  0  0  0  0  0  0  0  0
  136.8130   79.3090  220.5270 C   0  0  0  0  0  0  0  0  0  0  0  0
  136.3176   78.3506  220.7413 H   0  0  0  0  0  0  0  0  0  0  0  0
  136.1170   80.0066  220.0382 H   0  0  0  0  0  0  0  0  0  0  0  0
  1  2  1  0
  2  3  2  0
  3  4  1  0
  3  5  1  0
  5  6  1  0
  5  7  2  0
  7  8  1  0
  8  9  2  0
  9 10  1  0
  8 11  1  0
 11 12  1  0
 11 13  1  0
 11 14  1  0
 14 15  1  0
 15 16  2  0
 16 17  1  0
 17 18  2  0
 18 19  1  0
 18 20  1  0
 20 21  1  0
 20 22  1  0
 20 23  1  0
 23 24  1  0
 23 25  1  0
 23 26  1  0
 26 27  1  0
 26 28  1  0
 26 29  1  0
 29 30  1  0
 29 31  1  0
 29 32  1  0
 32 33  1  0
 32 34  1  0
 32 35  1  0
 35 36  1  0
 36 37  1  0
 36 38  1  0
 36 39  1  0
 39 40  1  0
 39 41  1  0
 39 42  1  0
 42 43  1  0
 42 44  1  0
 42 45  1  0
 45 46  1  0
 45 47  1  0
 17 48  1  0
 48 49  2  0
 49 50  1  0
 50 51  1  0
 51 52  1  0
 51 53  1  0
 51 54  1  0
 54 55  1  0
 54 56  1  0
 54 57  1  0
 57 58  1  0
 57 59  1  0
 57 60  1  0
 60 61  1  0
 60 62  1  0
 60 63  1  0
 63 64  1  0
 63 65  1  0
 49 66  1  0
 66 67  1  0
 14 68  1  0
 68 69  1  0
 68 70  1  0
 68 71  1  0
 71 72  1  0
 71 73  1  0
  9  2  1  0
 66 15  1  0
 71  7  1  0
 45 35  1  0
 63 50  1  0
M  CHG  2  18   1  57   1
M  END
>  <UniqueID>  (22) 
481

>  <SMILES>  (22) 
c1ccc2c(c1)CCN(c1n/c(=[NH+]/CCCCCN3CCCC3)nc(N3CC[NH2+]CC3)[nH]1)C2

>  <Energy>  (22) 
79.9890088026592

>  <Genealogy>  (22) 
c1ccc2c(c1)CCN(c1nc([NH2+]CCCCCN3CCCC3)nc(N3CC[NH2+]CC3)n1)C2 (protonated)
c1ccc2c(c1)CCN(c1nc(=[NH+]CCCCCN3CCCC3)nc(N3CC[NH2+]CC3)[nH]1)C2 (tautomer)
c1ccc2c(c1)CCN(c1n/c(=[NH+]/CCCCCN3CCCC3)nc(N3CC[NH2+]CC3)[nH]1)C2 (cis-trans isomerization)
c1ccc2c(c1)CCN(c1n/c(=[NH+]/CCCCCN3CCCC3)nc(N3CC[NH2+]CC3)[nH]1)C2 (3D coordinates assigned)
c1ccc2c(c1)CCN(c1n/c(=[NH+]/CCCCCN3CCCC3)nc(N3CC[NH2+]CC3)[nH]1)C2 (nonaromatic ring conformer: 79.9890088026592 kcal/mol)

>  <smiles>  (22) 
c1ccc2c(c1)CCN(c1nc(NCCCCCN3CCCC3)nc(N3CCNCC3)n1)C2

>  <score_type>  (22) 
oracle

>  <origin>  (22) 
autodockgpu

>  <m_score__min__energy>  (22) 
-9.7300000000000004

>  <m_primary>  (22) 
energy

>  <meeko>  (22) 
{"free_energy": -7.14, "intermolecular_energy": -9.82, "internal_energy": -2.22, "cluster_size": 2, "cluster_id": 6, "rank_in_cluster": 1}

>  <energy>  (22) 
-8.74

>  <cluster_rmsd>  (22) 
1.37

>  <rmsd>  (22) 
271.86

>  <cluster>  (22) 
1

$$$$
MTUVCRSRZGPGQU-NMOKVYIGNA-P
     RDKit          3D

 73 77  0  0  0  0  0  0  0  0999 V2000
  138.1279   77.8556  223.0004 H   0  0  0  0  0  0  0  0  0  0  0  0
  138.9560   77.6720  222.3000 C   0  0  0  0  0  0  0  0  0  0  0  0
  140.0070   76.8260  222.6680 C   0  0  0  0  0  0  0  0  0  0  0  0
  140.0040   76.3463  223.6579 H   0  0  0  0  0  0  0  0  0  0  0  0
  141.0620   76.5880  221.7810 C   0  0  0  0  0  0  0  0  0  0  0  0
  141.8805   75.9116  222.0684 H   0  0  0  0  0  0  0  0  0  0  0  0
  141.0760   77.2120  220.5250 C   0  0  0  0  0  0  0  0  0  0  0  0
  140.0180   78.0590  220.1550 C   0  0  0  0  0  0  0  0  0  0  0  0
  138.9560   78.2850  221.0430 C   0  0  0  0  0  0  0  0  0  0  0  0
  138.1245   78.9433  220.7512 H   0  0  0  0  0  0  0  0  0  0  0  0
  140.0490   78.6780  218.7900 C   0  0  0  0  0  0  0  0  0  0  0  0
  139.3790   79.5501  218.7672 H   0  0  0  0  0  0  0  0  0  0  0  0
  139.7154   77.9410  218.0446 H   0  0  0  0  0  0  0  0  0  0  0  0
  141.4240   79.1060  218.4780 N   0  0  0  0  0  0  0  0  0  0  0  0
  141.6660   80.4490  218.0130 C   0  0  0  0  0  0  0  0  0  0  0  0
  141.2120   81.5010  218.7390 N   0  0  0  0  0  0  0  0  0  0  0  0
  141.4100   82.7760  218.3200 C   0  0  0  0  0  0  0  0  0  0  0  0
  140.9660   83.7850  219.0180 N   0  0  0  0  0  0  0  0  0  0  0  0
  140.8500   84.7130  218.5490 H   0  0  0  0  0  0  0  0  0  0  0  0
  140.7000   83.7200  220.4600 C   0  0  0  0  0  0  0  0  0  0  0  0
  141.3501   82.9557  220.9108 H   0  0  0  0  0  0  0  0  0  0  0  0
  140.9037   84.7088  220.8969 H   0  0  0  0  0  0  0  0  0  0  0  0
  139.2340   83.3580  220.7380 C   0  0  0  0  0  0  0  0  0  0  0  0
  138.8943   83.8956  221.6356 H   0  0  0  0  0  0  0  0  0  0  0  0
  138.6293   83.6463  219.8655 H   0  0  0  0  0  0  0  0  0  0  0  0
  139.0760   81.8460  220.9670 C   0  0  0  0  0  0  0  0  0  0  0  0
  138.2519   81.4786  220.3378 H   0  0  0  0  0  0  0  0  0  0  0  0
  140.0312   81.3678  220.7045 H   0  0  0  0  0  0  0  0  0  0  0  0
  138.7690   81.4990  222.4320 C   0  0  0  0  0  0  0  0  0  0  0  0
  138.5397   82.4293  222.9724 H   0  0  0  0  0  0  0  0  0  0  0  0
  137.9170   80.8032  222.4347 H   0  0  0  0  0  0  0  0  0  0  0  0
  139.9400   80.7970  223.1390 C   0  0  0  0  0  0  0  0  0  0  0  0
  139.8456   80.9395  224.2257 H   0  0  0  0  0  0  0  0  0  0  0  0
  139.9136   79.7246  222.8955 H   0  0  0  0  0  0  0  0  0  0  0  0
  141.2290   81.3620  222.6830 N   0  0  0  0  0  0  0  0  0  0  0  0
  141.9710   80.4120  221.8380 C   0  0  0  0  0  0  0  0  0  0  0  0
  141.2690   79.7145  221.3577 H   0  0  0  0  0  0  0  0  0  0  0  0
  142.5227   80.9522  221.0545 H   0  0  0  0  0  0  0  0  0  0  0  0
  142.9400   79.6390  222.7250 C   0  0  0  0  0  0  0  0  0  0  0  0
  142.5921   78.6047  222.8638 H   0  0  0  0  0  0  0  0  0  0  0  0
  143.9441   79.5831  222.2794 H   0  0  0  0  0  0  0  0  0  0  0  0
  142.9540   80.3750  224.0500 C   0  0  0  0  0  0  0  0  0  0  0  0
  142.5032   79.7565  224.8401 H   0  0  0  0  0  0  0  0  0  0  0  0
  143.9765   80.6121  224.3789 H   0  0  0  0  0  0  0  0  0  0  0  0
  142.1270   81.6270  223.8160 C   0  0  0  0  0  0  0  0  0  0  0  0
  141.5376   81.8605  224.7149 H   0  0  0  0  0  0  0  0  0  0  0  0
  142.7794   82.4856  223.5988 H   0  0  0  0  0  0  0  0  0  0  0  0
  142.0810   82.9960  217.1620 N   0  0  0  0  0  0  0  0  0  0  0  0
  142.5590   81.9600  216.4230 C   0  0  0  0  0  0  0  0  0  0  0  0
  143.2710   82.2260  215.1900 N   0  0  0  0  0  0  0  0  0  0  0  0
  142.7240   81.7840  213.8970 C   0  0  0  0  0  0  0  0  0  0  0  0
  141.9134   81.0628  214.0781 H   0  0  0  0  0  0  0  0  0  0  0  0
  142.3458   82.6659  213.3592 H   0  0  0  0  0  0  0  0  0  0  0  0
  143.8120   81.1120  213.0300 C   0  0  0  0  0  0  0  0  0  0  0  0
  143.7419   80.0227  213.1664 H   0  0  0  0  0  0  0  0  0  0  0  0
  143.6283   81.4156  211.9888 H   0  0  0  0  0  0  0  0  0  0  0  0
  145.1850   81.5380  213.3700 N   0  0  0  0  0  0  0  0  0  0  0  0
  145.7890   81.4520  212.5180 H   0  0  0  0  0  0  0  0  0  0  0  0
  145.5760   80.9020  214.1040 H   0  0  0  0  0  0  0  0  0  0  0  0
  145.2370   82.9240  213.8520 C   0  0  0  0  0  0  0  0  0  0  0  0
  146.2866   83.2226  213.9908 H   0  0  0  0  0  0  0  0  0  0  0  0
  144.7573   83.5824  213.1127 H   0  0  0  0  0  0  0  0  0  0  0  0
  144.4940   83.0410  215.1890 C   0  0  0  0  0  0  0  0  0  0  0  0
  145.1550   82.6972  215.9982 H   0  0  0  0  0  0  0  0  0  0  0  0
  144.2116   84.0934  215.3398 H   0  0  0  0  0  0  0  0  0  0  0  0
  142.3490   80.6800  216.8560 N   0  0  0  0  0  0  0  0  0  0  0  0
  142.7020   79.8720  216.3010 H   0  0  0  0  0  0  0  0  0  0  0  0
  142.5700   78.2180  218.7680 C   0  0  0  0  0  0  0  0  0  0  0  0
  143.2954   78.7715  219.3824 H   0  0  0  0  0  0  0  0  0  0  0  0
  142.9989   77.9095  217.8032 H   0  0  0  0  0  0  0  0  0  0  0  0
  142.1650   76.9370  219.5220 C   0  0  0  0  0  0  0  0  0  0  0  0
  143.0445   76.5383  220.0487 H   0  0  0  0  0  0  0  0  0  0  0  0
  141.7859   76.2090  218.7897 H   0  0  0  0  0  0  0  0  0  0  0  0
  1  2  1  0
  2  3  2  0
  3  4  1  0
  3  5  1  0
  5  6  1  0
  5  7  2  0
  7  8  1  0
  8  9  2  0
  9 10  1  0
  8 11  1  0
 11 12  1  0
 11 13  1  0
 11 14  1  0
 14 15  1  0
 15 16  2  0
 16 17  1  0
 17 18  2  0
 18 19  1  0
 18 20  1  0
 20 21  1  0
 20 22  1  0
 20 23  1  0
 23 24  1  0
 23 25  1  0
 23 26  1  0
 26 27  1  0
 26 28  1  0
 26 29  1  0
 29 30  1  0
 29 31  1  0
 29 32  1  0
 32 33  1  0
 32 34  1  0
 32 35  1  0
 35 36  1  0
 36 37  1  0
 36 38  1  0
 36 39  1  0
 39 40  1  0
 39 41  1  0
 39 42  1  0
 42 43  1  0
 42 44  1  0
 42 45  1  0
 45 46  1  0
 45 47  1  0
 17 48  1  0
 48 49  2  0
 49 50  1  0
 50 51  1  0
 51 52  1  0
 51 53  1  0
 51 54  1  0
 54 55  1  0
 54 56  1  0
 54 57  1  0
 57 58  1  0
 57 59  1  0
 57 60  1  0
 60 61  1  0
 60 62  1  0
 60 63  1  0
 63 64  1  0
 63 65  1  0
 49 66  1  0
 66 67  1  0
 14 68  1  0
 68 69  1  0
 68 70  1  0
 68 71  1  0
 71 72  1  0
 71 73  1  0
  9  2  1  0
 66 15  1  0
 71  7  1  0
 45 35  1  0
 63 50  1  0
M  CHG  2  18   1  57   1
M  END
>  <UniqueID>  (23) 
481

>  <SMILES>  (23) 
c1ccc2c(c1)CCN(c1n/c(=[NH+]/CCCCCN3CCCC3)nc(N3CC[NH2+]CC3)[nH]1)C2

>  <Energy>  (23) 
79.9890088026592

>  <Genealogy>  (23) 
c1ccc2c(c1)CCN(c1nc([NH2+]CCCCCN3CCCC3)nc(N3CC[NH2+]CC3)n1)C2 (protonated)
c1ccc2c(c1)CCN(c1nc(=[NH+]CCCCCN3CCCC3)nc(N3CC[NH2+]CC3)[nH]1)C2 (tautomer)
c1ccc2c(c1)CCN(c1n/c(=[NH+]/CCCCCN3CCCC3)nc(N3CC[NH2+]CC3)[nH]1)C2 (cis-trans isomerization)
c1ccc2c(c1)CCN(c1n/c(=[NH+]/CCCCCN3CCCC3)nc(N3CC[NH2+]CC3)[nH]1)C2 (3D coordinates assigned)
c1ccc2c(c1)CCN(c1n/c(=[NH+]/CCCCCN3CCCC3)nc(N3CC[NH2+]CC3)[nH]1)C2 (nonaromatic ring conformer: 79.9890088026592 kcal/mol)

>  <smiles>  (23) 
c1ccc2c(c1)CCN(c1nc(NCCCCCN3CCCC3)nc(N3CCNCC3)n1)C2

>  <score_type>  (23) 
oracle

>  <origin>  (23) 
autodockgpu

>  <m_score__min__energy>  (23) 
-9.7300000000000004

>  <m_primary>  (23) 
energy

>  <meeko>  (23) 
{"free_energy": -7.03, "intermolecular_energy": -9.71, "internal_energy": -2.25, "cluster_size": 1, "cluster_id": 7, "rank_in_cluster": 1}

>  <energy>  (23) 
-8.65

>  <cluster_rmsd>  (23) 
0.0

>  <rmsd>  (23) 
271.29

>  <cluster>  (23) 
2

$$$$
MTUVCRSRZGPGQU-NMOKVYIGNA-P
     RDKit          3D

 73 77  0  0  0  0  0  0  0  0999 V2000
  141.1456   69.3303  228.2999 H   0  0  0  0  0  0  0  0  0  0  0  0
  140.6990   69.2480  227.2980 C   0  0  0  0  0  0  0  0  0  0  0  0
  140.5210   67.9900  226.7150 C   0  0  0  0  0  0  0  0  0  0  0  0
  140.8292   67.0849  227.2588 H   0  0  0  0  0  0  0  0  0  0  0  0
  139.9520   67.8790  225.4420 C   0  0  0  0  0  0  0  0  0  0  0  0
  139.8003   66.8869  224.9917 H   0  0  0  0  0  0  0  0  0  0  0  0
  139.5750   69.0330  224.7400 C   0  0  0  0  0  0  0  0  0  0  0  0
  139.7520   70.2960  225.3280 C   0  0  0  0  0  0  0  0  0  0  0  0
  140.3110   70.4010  226.6110 C   0  0  0  0  0  0  0  0  0  0  0  0
  140.4435   71.3895  227.0750 H   0  0  0  0  0  0  0  0  0  0  0  0
  139.3020   71.5050  224.5630 C   0  0  0  0  0  0  0  0  0  0  0  0
  139.7986   72.4001  224.9658 H   0  0  0  0  0  0  0  0  0  0  0  0
  138.2120   71.6167  224.6601 H   0  0  0  0  0  0  0  0  0  0  0  0
  139.6560   71.3440  223.1410 N   0  0  0  0  0  0  0  0  0  0  0  0
  140.3680   72.3960  222.4590 C   0  0  0  0  0  0  0  0  0  0  0  0
  139.9410   73.6780  222.5780 N   0  0  0  0  0  0  0  0  0  0  0  0
  140.5790   74.6890  221.9360 C   0  0  0  0  0  0  0  0  0  0  0  0
  140.1630   75.9200  222.0470 N   0  0  0  0  0  0  0  0  0  0  0  0
  140.8500   76.6660  222.3030 H   0  0  0  0  0  0  0  0  0  0  0  0
  138.7550   76.3150  221.9180 C   0  0  0  0  0  0  0  0  0  0  0  0
  138.1177   75.4391  222.1095 H   0  0  0  0  0  0  0  0  0  0  0  0
  138.5486   77.1119  222.6476 H   0  0  0  0  0  0  0  0  0  0  0  0
  138.4560   76.8540  220.5120 C   0  0  0  0  0  0  0  0  0  0  0  0
  138.0797   76.0329  219.8841 H   0  0  0  0  0  0  0  0  0  0  0  0
  137.7027   77.6513  220.5944 H   0  0  0  0  0  0  0  0  0  0  0  0
  139.7220   77.4400  219.8680 C   0  0  0  0  0  0  0  0  0  0  0  0
  140.5447   76.7202  219.9902 H   0  0  0  0  0  0  0  0  0  0  0  0
  139.4998   77.6266  218.8070 H   0  0  0  0  0  0  0  0  0  0  0  0
  140.1410   78.7770  220.4970 C   0  0  0  0  0  0  0  0  0  0  0  0
  140.0843   79.5602  219.7267 H   0  0  0  0  0  0  0  0  0  0  0  0
  139.4567   78.9762  221.3349 H   0  0  0  0  0  0  0  0  0  0  0  0
  141.5700   78.7500  221.0650 C   0  0  0  0  0  0  0  0  0  0  0  0
  142.1067   77.8813  220.6560 H   0  0  0  0  0  0  0  0  0  0  0  0
  142.0856   79.6793  220.7811 H   0  0  0  0  0  0  0  0  0  0  0  0
  141.5340   78.6510  222.5410 N   0  0  0  0  0  0  0  0  0  0  0  0
  140.2880   79.2080  223.0930 C   0  0  0  0  0  0  0  0  0  0  0  0
  139.4901   79.1552  222.3376 H   0  0  0  0  0  0  0  0  0  0  0  0
  139.9747   78.6334  223.9771 H   0  0  0  0  0  0  0  0  0  0  0  0
  140.5420   80.6620  223.4740 C   0  0  0  0  0  0  0  0  0  0  0  0
  140.0414   81.3378  222.7651 H   0  0  0  0  0  0  0  0  0  0  0  0
  140.1478   80.8957  224.4740 H   0  0  0  0  0  0  0  0  0  0  0  0
  142.0450   80.8440  223.4070 C   0  0  0  0  0  0  0  0  0  0  0  0
  142.3156   81.5223  222.5844 H   0  0  0  0  0  0  0  0  0  0  0  0
  142.4479   81.2888  224.3289 H   0  0  0  0  0  0  0  0  0  0  0  0
  142.6010   79.4530  223.1560 C   0  0  0  0  0  0  0  0  0  0  0  0
  143.4647   79.5114  222.4773 H   0  0  0  0  0  0  0  0  0  0  0  0
  142.9336   78.9945  224.0990 H   0  0  0  0  0  0  0  0  0  0  0  0
  141.6650   74.4080  221.1730 N   0  0  0  0  0  0  0  0  0  0  0  0
  142.1230   73.1330  221.0500 C   0  0  0  0  0  0  0  0  0  0  0  0
  143.2830   72.8630  220.2280 N   0  0  0  0  0  0  0  0  0  0  0  0
  144.6020   72.6410  220.8400 C   0  0  0  0  0  0  0  0  0  0  0  0
  144.5674   72.9608  221.8919 H   0  0  0  0  0  0  0  0  0  0  0  0
  144.8432   71.5703  220.7667 H   0  0  0  0  0  0  0  0  0  0  0  0
  145.7020   73.4400  220.1070 C   0  0  0  0  0  0  0  0  0  0  0  0
  145.8686   74.3817  220.6505 H   0  0  0  0  0  0  0  0  0  0  0  0
  146.6006   72.8060  220.0841 H   0  0  0  0  0  0  0  0  0  0  0  0
  145.3630   73.7630  218.7050 N   0  0  0  0  0  0  0  0  0  0  0  0
  146.2490   73.8560  218.1530 H   0  0  0  0  0  0  0  0  0  0  0  0
  144.8660   74.6850  218.6700 H   0  0  0  0  0  0  0  0  0  0  0  0
  144.5200   72.7340  218.0840 C   0  0  0  0  0  0  0  0  0  0  0  0
  144.3835   72.9693  217.0182 H   0  0  0  0  0  0  0  0  0  0  0  0
  145.0088   71.7543  218.1901 H   0  0  0  0  0  0  0  0  0  0  0  0
  143.1510   72.6910  218.7740 C   0  0  0  0  0  0  0  0  0  0  0  0
  142.5214   73.4989  218.3728 H   0  0  0  0  0  0  0  0  0  0  0  0
  142.6935   71.7098  218.5794 H   0  0  0  0  0  0  0  0  0  0  0  0
  141.4670   72.1250  221.7000 N   0  0  0  0  0  0  0  0  0  0  0  0
  141.7970   71.1410  221.6140 H   0  0  0  0  0  0  0  0  0  0  0  0
  139.4130   70.0610  222.4490 C   0  0  0  0  0  0  0  0  0  0  0  0
  140.3547   69.7277  221.9884 H   0  0  0  0  0  0  0  0  0  0  0  0
  138.6274   70.2363  221.6993 H   0  0  0  0  0  0  0  0  0  0  0  0
  138.9090   68.9520  223.3920 C   0  0  0  0  0  0  0  0  0  0  0  0
  139.1289   67.9725  222.9424 H   0  0  0  0  0  0  0  0  0  0  0  0
  137.8258   69.0825  223.5324 H   0  0  0  0  0  0  0  0  0  0  0  0
  1  2  1  0
  2  3  2  0
  3  4  1  0
  3  5  1  0
  5  6  1  0
  5  7  2  0
  7  8  1  0
  8  9  2  0
  9 10  1  0
  8 11  1  0
 11 12  1  0
 11 13  1  0
 11 14  1  0
 14 15  1  0
 15 16  2  0
 16 17  1  0
 17 18  2  0
 18 19  1  0
 18 20  1  0
 20 21  1  0
 20 22  1  0
 20 23  1  0
 23 24  1  0
 23 25  1  0
 23 26  1  0
 26 27  1  0
 26 28  1  0
 26 29  1  0
 29 30  1  0
 29 31  1  0
 29 32  1  0
 32 33  1  0
 32 34  1  0
 32 35  1  0
 35 36  1  0
 36 37  1  0
 36 38  1  0
 36 39  1  0
 39 40  1  0
 39 41  1  0
 39 42  1  0
 42 43  1  0
 42 44  1  0
 42 45  1  0
 45 46  1  0
 45 47  1  0
 17 48  1  0
 48 49  2  0
 49 50  1  0
 50 51  1  0
 51 52  1  0
 51 53  1  0
 51 54  1  0
 54 55  1  0
 54 56  1  0
 54 57  1  0
 57 58  1  0
 57 59  1  0
 57 60  1  0
 60 61  1  0
 60 62  1  0
 60 63  1  0
 63 64  1  0
 63 65  1  0
 49 66  1  0
 66 67  1  0
 14 68  1  0
 68 69  1  0
 68 70  1  0
 68 71  1  0
 71 72  1  0
 71 73  1  0
  9  2  1  0
 66 15  1  0
 71  7  1  0
 45 35  1  0
 63 50  1  0
M  CHG  2  18   1  57   1
M  END
>  <UniqueID>  (24) 
481

>  <SMILES>  (24) 
c1ccc2c(c1)CCN(c1n/c(=[NH+]/CCCCCN3CCCC3)nc(N3CC[NH2+]CC3)[nH]1)C2

>  <Energy>  (24) 
79.9890088026592

>  <Genealogy>  (24) 
c1ccc2c(c1)CCN(c1nc([NH2+]CCCCCN3CCCC3)nc(N3CC[NH2+]CC3)n1)C2 (protonated)
c1ccc2c(c1)CCN(c1nc(=[NH+]CCCCCN3CCCC3)nc(N3CC[NH2+]CC3)[nH]1)C2 (tautomer)
c1ccc2c(c1)CCN(c1n/c(=[NH+]/CCCCCN3CCCC3)nc(N3CC[NH2+]CC3)[nH]1)C2 (cis-trans isomerization)
c1ccc2c(c1)CCN(c1n/c(=[NH+]/CCCCCN3CCCC3)nc(N3CC[NH2+]CC3)[nH]1)C2 (3D coordinates assigned)
c1ccc2c(c1)CCN(c1n/c(=[NH+]/CCCCCN3CCCC3)nc(N3CC[NH2+]CC3)[nH]1)C2 (nonaromatic ring conformer: 79.9890088026592 kcal/mol)

>  <smiles>  (24) 
c1ccc2c(c1)CCN(c1nc(NCCCCCN3CCCC3)nc(N3CCNCC3)n1)C2

>  <score_type>  (24) 
oracle

>  <origin>  (24) 
autodockgpu

>  <m_score__min__energy>  (24) 
-9.7300000000000004

>  <m_primary>  (24) 
energy

>  <meeko>  (24) 
{"free_energy": -7.55, "intermolecular_energy": -10.23, "internal_energy": -1.46, "cluster_size": 4, "cluster_id": 5, "rank_in_cluster": 2}

>  <energy>  (24) 
-8.35

>  <cluster_rmsd>  (24) 
0.0

>  <rmsd>  (24) 
270.54

>  <cluster>  (24) 
3

$$$$
MTUVCRSRZGPGQU-NMOKVYIGNA-P
     RDKit          3D

 73 77  0  0  0  0  0  0  0  0999 V2000
  143.6813   80.7468  223.0887 H   0  0  0  0  0  0  0  0  0  0  0  0
  142.7070   80.2390  223.0350 C   0  0  0  0  0  0  0  0  0  0  0  0
  141.6730   80.6200  223.8970 C   0  0  0  0  0  0  0  0  0  0  0  0
  141.8369   81.4257  224.6278 H   0  0  0  0  0  0  0  0  0  0  0  0
  140.4310   79.9790  223.8320 C   0  0  0  0  0  0  0  0  0  0  0  0
  139.6154   80.2895  224.5016 H   0  0  0  0  0  0  0  0  0  0  0  0
  140.2270   78.9400  222.9120 C   0  0  0  0  0  0  0  0  0  0  0  0
  141.2650   78.5610  222.0450 C   0  0  0  0  0  0  0  0  0  0  0  0
  142.5050   79.2150  222.1060 C   0  0  0  0  0  0  0  0  0  0  0  0
  143.3166   78.9221  221.4237 H   0  0  0  0  0  0  0  0  0  0  0  0
  140.9970   77.4710  221.0510 C   0  0  0  0  0  0  0  0  0  0  0  0
  141.9515   77.0537  220.6978 H   0  0  0  0  0  0  0  0  0  0  0  0
  140.4388   77.8820  220.1968 H   0  0  0  0  0  0  0  0  0  0  0  0
  140.2030   76.4080  221.6920 N   0  0  0  0  0  0  0  0  0  0  0  0
  140.6360   75.0360  221.5950 C   0  0  0  0  0  0  0  0  0  0  0  0
  139.8330   74.0460  222.0600 N   0  0  0  0  0  0  0  0  0  0  0  0
  140.2190   72.7470  221.9970 C   0  0  0  0  0  0  0  0  0  0  0  0
  139.4480   71.7980  222.4500 N   0  0  0  0  0  0  0  0  0  0  0  0
  138.7980   71.3140  221.7880 H   0  0  0  0  0  0  0  0  0  0  0  0
  139.3720   71.4210  223.8660 C   0  0  0  0  0  0  0  0  0  0  0  0
  140.1319   70.6534  224.0741 H   0  0  0  0  0  0  0  0  0  0  0  0
  139.5505   72.3193  224.4753 H   0  0  0  0  0  0  0  0  0  0  0  0
  137.9860   70.8620  224.2190 C   0  0  0  0  0  0  0  0  0  0  0  0
  137.5143   71.5153  224.9678 H   0  0  0  0  0  0  0  0  0  0  0  0
  137.3782   70.8258  223.3029 H   0  0  0  0  0  0  0  0  0  0  0  0
  138.0970   69.4390  224.7910 C   0  0  0  0  0  0  0  0  0  0  0  0
  137.0897   69.0871  225.0583 H   0  0  0  0  0  0  0  0  0  0  0  0
  138.5566   68.8042  224.0191 H   0  0  0  0  0  0  0  0  0  0  0  0
  138.9890   69.3730  226.0400 C   0  0  0  0  0  0  0  0  0  0  0  0
  139.0760   70.3848  226.4628 H   0  0  0  0  0  0  0  0  0  0  0  0
  138.5172   68.6731  226.7454 H   0  0  0  0  0  0  0  0  0  0  0  0
  140.4000   68.8440  225.7410 C   0  0  0  0  0  0  0  0  0  0  0  0
  140.4245   67.7580  225.9144 H   0  0  0  0  0  0  0  0  0  0  0  0
  140.6496   69.0645  224.6926 H   0  0  0  0  0  0  0  0  0  0  0  0
  141.3930   69.5010  226.6200 N   0  0  0  0  0  0  0  0  0  0  0  0
  140.8350   69.7840  227.9530 C   0  0  0  0  0  0  0  0  0  0  0  0
  140.0183   69.0803  228.1715 H   0  0  0  0  0  0  0  0  0  0  0  0
  141.6134   69.6702  228.7219 H   0  0  0  0  0  0  0  0  0  0  0  0
  140.3000   71.2110  227.9540 C   0  0  0  0  0  0  0  0  0  0  0  0
  139.2000   71.2086  227.9503 H   0  0  0  0  0  0  0  0  0  0  0  0
  140.6175   71.7640  228.8503 H   0  0  0  0  0  0  0  0  0  0  0  0
  140.8320   71.8470  226.6850 C   0  0  0  0  0  0  0  0  0  0  0  0
  140.0101   72.0597  225.9855 H   0  0  0  0  0  0  0  0  0  0  0  0
  141.3339   72.8056  226.8829 H   0  0  0  0  0  0  0  0  0  0  0  0
  141.7810   70.8180  226.0960 C   0  0  0  0  0  0  0  0  0  0  0  0
  141.7040   70.8222  224.9987 H   0  0  0  0  0  0  0  0  0  0  0  0
  142.8205   71.0509  226.3704 H   0  0  0  0  0  0  0  0  0  0  0  0
  141.4230   72.4390  221.4520 N   0  0  0  0  0  0  0  0  0  0  0  0
  142.2400   73.4120  220.9660 C   0  0  0  0  0  0  0  0  0  0  0  0
  143.5200   73.0530  220.3920 N   0  0  0  0  0  0  0  0  0  0  0  0
  144.7450   73.0900  221.2050 C   0  0  0  0  0  0  0  0  0  0  0  0
  144.5423   73.6440  222.1334 H   0  0  0  0  0  0  0  0  0  0  0  0
  145.0458   72.0555  221.4270 H   0  0  0  0  0  0  0  0  0  0  0  0
  145.9000   73.7820  220.4480 C   0  0  0  0  0  0  0  0  0  0  0  0
  145.9402   74.8354  220.7623 H   0  0  0  0  0  0  0  0  0  0  0  0
  146.8221   73.2363  220.6969 H   0  0  0  0  0  0  0  0  0  0  0  0
  145.7530   73.7380  218.9790 N   0  0  0  0  0  0  0  0  0  0  0  0
  146.7040   73.7720  218.5400 H   0  0  0  0  0  0  0  0  0  0  0  0
  145.2220   74.5830  218.6560 H   0  0  0  0  0  0  0  0  0  0  0  0
  145.0600   72.5270  218.5220 C   0  0  0  0  0  0  0  0  0  0  0  0
  145.0685   72.4952  217.4225 H   0  0  0  0  0  0  0  0  0  0  0  0
  145.5750   71.6422  218.9243 H   0  0  0  0  0  0  0  0  0  0  0  0
  143.6090   72.5350  219.0190 C   0  0  0  0  0  0  0  0  0  0  0  0
  143.0060   73.1721  218.3554 H   0  0  0  0  0  0  0  0  0  0  0  0
  143.2327   71.5014  219.0117 H   0  0  0  0  0  0  0  0  0  0  0  0
  141.8390   74.7160  221.0390 N   0  0  0  0  0  0  0  0  0  0  0  0
  142.4520   75.4770  220.6780 H   0  0  0  0  0  0  0  0  0  0  0  0
  139.0460   76.7480  222.5460 C   0  0  0  0  0  0  0  0  0  0  0  0
  139.1759   76.2587  223.5226 H   0  0  0  0  0  0  0  0  0  0  0  0
  138.1413   76.3982  222.0273 H   0  0  0  0  0  0  0  0  0  0  0  0
  138.8880   78.2640  222.7740 C   0  0  0  0  0  0  0  0  0  0  0  0
  138.3069   78.4293  223.6932 H   0  0  0  0  0  0  0  0  0  0  0  0
  138.3706   78.6936  221.9035 H   0  0  0  0  0  0  0  0  0  0  0  0
  1  2  1  0
  2  3  2  0
  3  4  1  0
  3  5  1  0
  5  6  1  0
  5  7  2  0
  7  8  1  0
  8  9  2  0
  9 10  1  0
  8 11  1  0
 11 12  1  0
 11 13  1  0
 11 14  1  0
 14 15  1  0
 15 16  2  0
 16 17  1  0
 17 18  2  0
 18 19  1  0
 18 20  1  0
 20 21  1  0
 20 22  1  0
 20 23  1  0
 23 24  1  0
 23 25  1  0
 23 26  1  0
 26 27  1  0
 26 28  1  0
 26 29  1  0
 29 30  1  0
 29 31  1  0
 29 32  1  0
 32 33  1  0
 32 34  1  0
 32 35  1  0
 35 36  1  0
 36 37  1  0
 36 38  1  0
 36 39  1  0
 39 40  1  0
 39 41  1  0
 39 42  1  0
 42 43  1  0
 42 44  1  0
 42 45  1  0
 45 46  1  0
 45 47  1  0
 17 48  1  0
 48 49  2  0
 49 50  1  0
 50 51  1  0
 51 52  1  0
 51 53  1  0
 51 54  1  0
 54 55  1  0
 54 56  1  0
 54 57  1  0
 57 58  1  0
 57 59  1  0
 57 60  1  0
 60 61  1  0
 60 62  1  0
 60 63  1  0
 63 64  1  0
 63 65  1  0
 49 66  1  0
 66 67  1  0
 14 68  1  0
 68 69  1  0
 68 70  1  0
 68 71  1  0
 71 72  1  0
 71 73  1  0
  9  2  1  0
 66 15  1  0
 71  7  1  0
 45 35  1  0
 63 50  1  0
M  CHG  2  18   1  57   1
M  END
>  <UniqueID>  (25) 
481

>  <SMILES>  (25) 
c1ccc2c(c1)CCN(c1n/c(=[NH+]/CCCCCN3CCCC3)nc(N3CC[NH2+]CC3)[nH]1)C2

>  <Energy>  (25) 
79.9890088026592

>  <Genealogy>  (25) 
c1ccc2c(c1)CCN(c1nc([NH2+]CCCCCN3CCCC3)nc(N3CC[NH2+]CC3)n1)C2 (protonated)
c1ccc2c(c1)CCN(c1nc(=[NH+]CCCCCN3CCCC3)nc(N3CC[NH2+]CC3)[nH]1)C2 (tautomer)
c1ccc2c(c1)CCN(c1n/c(=[NH+]/CCCCCN3CCCC3)nc(N3CC[NH2+]CC3)[nH]1)C2 (cis-trans isomerization)
c1ccc2c(c1)CCN(c1n/c(=[NH+]/CCCCCN3CCCC3)nc(N3CC[NH2+]CC3)[nH]1)C2 (3D coordinates assigned)
c1ccc2c(c1)CCN(c1n/c(=[NH+]/CCCCCN3CCCC3)nc(N3CC[NH2+]CC3)[nH]1)C2 (nonaromatic ring conformer: 79.9890088026592 kcal/mol)

>  <smiles>  (25) 
c1ccc2c(c1)CCN(c1nc(NCCCCCN3CCCC3)nc(N3CCNCC3)n1)C2

>  <score_type>  (25) 
oracle

>  <origin>  (25) 
autodockgpu

>  <m_score__min__energy>  (25) 
-9.7300000000000004

>  <m_primary>  (25) 
energy

>  <meeko>  (25) 
{"free_energy": -8.74, "intermolecular_energy": -11.42, "internal_energy": -0.34, "cluster_size": 2, "cluster_id": 1, "rank_in_cluster": 2}

>  <energy>  (25) 
-8.25

>  <cluster_rmsd>  (25) 
0.9

>  <rmsd>  (25) 
270.89

>  <cluster>  (25) 
3

$$$$
MTUVCRSRZGPGQU-NMOKVYIGNA-P
     RDKit          3D

 73 77  0  0  0  0  0  0  0  0999 V2000
  138.5584   73.3697  220.5151 H   0  0  0  0  0  0  0  0  0  0  0  0
  139.5860   73.7020  220.3060 C   0  0  0  0  0  0  0  0  0  0  0  0
  140.6650   73.0660  220.9280 C   0  0  0  0  0  0  0  0  0  0  0  0
  140.4843   72.2354  221.6262 H   0  0  0  0  0  0  0  0  0  0  0  0
  141.9740   73.4840  220.6640 C   0  0  0  0  0  0  0  0  0  0  0  0
  142.8218   72.9731  221.1438 H   0  0  0  0  0  0  0  0  0  0  0  0
  142.2050   74.5540  219.7880 C   0  0  0  0  0  0  0  0  0  0  0  0
  141.1200   75.1890  219.1620 C   0  0  0  0  0  0  0  0  0  0  0  0
  139.8100   74.7580  219.4200 C   0  0  0  0  0  0  0  0  0  0  0  0
  138.9604   75.2512  218.9250 H   0  0  0  0  0  0  0  0  0  0  0  0
  141.4090   76.3050  218.2030 C   0  0  0  0  0  0  0  0  0  0  0  0
  140.5036   76.9145  218.0659 H   0  0  0  0  0  0  0  0  0  0  0  0
  141.7184   75.8855  217.2343 H   0  0  0  0  0  0  0  0  0  0  0  0
  142.4910   77.1470  218.7420 N   0  0  0  0  0  0  0  0  0  0  0  0
  142.3150   78.5760  218.8140 C   0  0  0  0  0  0  0  0  0  0  0  0
  141.7690   79.1280  219.9270 N   0  0  0  0  0  0  0  0  0  0  0  0
  141.5770   80.4680  220.0190 C   0  0  0  0  0  0  0  0  0  0  0  0
  141.0460   80.9950  221.0880 N   0  0  0  0  0  0  0  0  0  0  0  0
  140.0680   80.7300  221.3510 H   0  0  0  0  0  0  0  0  0  0  0  0
  141.7120   82.0150  221.9060 C   0  0  0  0  0  0  0  0  0  0  0  0
  142.7234   82.1886  221.5097 H   0  0  0  0  0  0  0  0  0  0  0  0
  141.1156   82.9384  221.8650 H   0  0  0  0  0  0  0  0  0  0  0  0
  141.8180   81.5690  223.3720 C   0  0  0  0  0  0  0  0  0  0  0  0
  142.3101   82.3616  223.9548 H   0  0  0  0  0  0  0  0  0  0  0  0
  140.8044   81.3821  223.7564 H   0  0  0  0  0  0  0  0  0  0  0  0
  142.6360   80.2730  223.4940 C   0  0  0  0  0  0  0  0  0  0  0  0
  143.0637   80.0322  222.5096 H   0  0  0  0  0  0  0  0  0  0  0  0
  143.4204   80.4434  224.2461 H   0  0  0  0  0  0  0  0  0  0  0  0
  141.7880   79.0820  223.9670 C   0  0  0  0  0  0  0  0  0  0  0  0
  142.1806   78.1653  223.5028 H   0  0  0  0  0  0  0  0  0  0  0  0
  141.8533   79.0456  225.0645 H   0  0  0  0  0  0  0  0  0  0  0  0
  140.3030   79.2210  223.5980 C   0  0  0  0  0  0  0  0  0  0  0  0
  139.6973   78.6339  224.3040 H   0  0  0  0  0  0  0  0  0  0  0  0
  140.0197   80.2826  223.6499 H   0  0  0  0  0  0  0  0  0  0  0  0
  140.0660   78.7270  222.2240 N   0  0  0  0  0  0  0  0  0  0  0  0
  138.6400   78.4500  221.9840 C   0  0  0  0  0  0  0  0  0  0  0  0
  138.0232   79.0653  222.6555 H   0  0  0  0  0  0  0  0  0  0  0  0
  138.3765   78.6915  220.9437 H   0  0  0  0  0  0  0  0  0  0  0  0
  138.3870   76.9720  222.2610 C   0  0  0  0  0  0  0  0  0  0  0  0
  137.8267   76.8474  223.1994 H   0  0  0  0  0  0  0  0  0  0  0  0
  137.7883   76.5049  221.4651 H   0  0  0  0  0  0  0  0  0  0  0  0
  139.7600   76.3390  222.3760 C   0  0  0  0  0  0  0  0  0  0  0  0
  139.9438   75.9997  223.4061 H   0  0  0  0  0  0  0  0  0  0  0  0
  139.8619   75.4551  221.7293 H   0  0  0  0  0  0  0  0  0  0  0  0
  140.7350   77.4380  221.9950 C   0  0  0  0  0  0  0  0  0  0  0  0
  141.6393   77.3692  222.6176 H   0  0  0  0  0  0  0  0  0  0  0  0
  141.0334   77.3403  220.9408 H   0  0  0  0  0  0  0  0  0  0  0  0
  141.9460   81.2630  218.9840 N   0  0  0  0  0  0  0  0  0  0  0  0
  142.5090   80.7360  217.8630 C   0  0  0  0  0  0  0  0  0  0  0  0
  142.8910   81.6100  216.7740 N   0  0  0  0  0  0  0  0  0  0  0  0
  142.0930   81.6650  215.5390 C   0  0  0  0  0  0  0  0  0  0  0  0
  141.4024   80.8090  215.5200 H   0  0  0  0  0  0  0  0  0  0  0  0
  141.5366   82.6138  215.5268 H   0  0  0  0  0  0  0  0  0  0  0  0
  142.9950   81.6120  214.2860 C   0  0  0  0  0  0  0  0  0  0  0  0
  143.0397   80.5711  213.9332 H   0  0  0  0  0  0  0  0  0  0  0  0
  142.5513   82.2874  213.5397 H   0  0  0  0  0  0  0  0  0  0  0  0
  144.3740   82.0820  214.5310 N   0  0  0  0  0  0  0  0  0  0  0  0
  144.7680   82.4630  213.6380 H   0  0  0  0  0  0  0  0  0  0  0  0
  144.9720   81.2720  214.8230 H   0  0  0  0  0  0  0  0  0  0  0  0
  144.4350   83.1240  215.5630 C   0  0  0  0  0  0  0  0  0  0  0  0
  145.4634   83.5081  215.6325 H   0  0  0  0  0  0  0  0  0  0  0  0
  143.7493   83.9405  215.2927 H   0  0  0  0  0  0  0  0  0  0  0  0
  144.0170   82.5440  216.9190 C   0  0  0  0  0  0  0  0  0  0  0  0
  144.8717   82.0098  217.3595 H   0  0  0  0  0  0  0  0  0  0  0  0
  143.7003   83.3727  217.5693 H   0  0  0  0  0  0  0  0  0  0  0  0
  142.6940   79.3840  217.7830 N   0  0  0  0  0  0  0  0  0  0  0  0
  143.1170   78.9600  216.9320 H   0  0  0  0  0  0  0  0  0  0  0  0
  143.6950   76.5300  219.3360 C   0  0  0  0  0  0  0  0  0  0  0  0
  143.8351   76.9388  220.3475 H   0  0  0  0  0  0  0  0  0  0  0  0
  144.5432   76.7643  218.6759 H   0  0  0  0  0  0  0  0  0  0  0  0
  143.6010   74.9960  219.4360 C   0  0  0  0  0  0  0  0  0  0  0  0
  144.2947   74.6447  220.2140 H   0  0  0  0  0  0  0  0  0  0  0  0
  143.8638   74.5680  218.4574 H   0  0  0  0  0  0  0  0  0  0  0  0
  1  2  1  0
  2  3  2  0
  3  4  1  0
  3  5  1  0
  5  6  1  0
  5  7  2  0
  7  8  1  0
  8  9  2  0
  9 10  1  0
  8 11  1  0
 11 12  1  0
 11 13  1  0
 11 14  1  0
 14 15  1  0
 15 16  2  0
 16 17  1  0
 17 18  2  0
 18 19  1  0
 18 20  1  0
 20 21  1  0
 20 22  1  0
 20 23  1  0
 23 24  1  0
 23 25  1  0
 23 26  1  0
 26 27  1  0
 26 28  1  0
 26 29  1  0
 29 30  1  0
 29 31  1  0
 29 32  1  0
 32 33  1  0
 32 34  1  0
 32 35  1  0
 35 36  1  0
 36 37  1  0
 36 38  1  0
 36 39  1  0
 39 40  1  0
 39 41  1  0
 39 42  1  0
 42 43  1  0
 42 44  1  0
 42 45  1  0
 45 46  1  0
 45 47  1  0
 17 48  1  0
 48 49  2  0
 49 50  1  0
 50 51  1  0
 51 52  1  0
 51 53  1  0
 51 54  1  0
 54 55  1  0
 54 56  1  0
 54 57  1  0
 57 58  1  0
 57 59  1  0
 57 60  1  0
 60 61  1  0
 60 62  1  0
 60 63  1  0
 63 64  1  0
 63 65  1  0
 49 66  1  0
 66 67  1  0
 14 68  1  0
 68 69  1  0
 68 70  1  0
 68 71  1  0
 71 72  1  0
 71 73  1  0
  9  2  1  0
 66 15  1  0
 71  7  1  0
 45 35  1  0
 63 50  1  0
M  CHG  2  18   1  57   1
M  END
>  <UniqueID>  (26) 
481

>  <SMILES>  (26) 
c1ccc2c(c1)CCN(c1n/c(=[NH+]/CCCCCN3CCCC3)nc(N3CC[NH2+]CC3)[nH]1)C2

>  <Energy>  (26) 
79.9890088026592

>  <Genealogy>  (26) 
c1ccc2c(c1)CCN(c1nc([NH2+]CCCCCN3CCCC3)nc(N3CC[NH2+]CC3)n1)C2 (protonated)
c1ccc2c(c1)CCN(c1nc(=[NH+]CCCCCN3CCCC3)nc(N3CC[NH2+]CC3)[nH]1)C2 (tautomer)
c1ccc2c(c1)CCN(c1n/c(=[NH+]/CCCCCN3CCCC3)nc(N3CC[NH2+]CC3)[nH]1)C2 (cis-trans isomerization)
c1ccc2c(c1)CCN(c1n/c(=[NH+]/CCCCCN3CCCC3)nc(N3CC[NH2+]CC3)[nH]1)C2 (3D coordinates assigned)
c1ccc2c(c1)CCN(c1n/c(=[NH+]/CCCCCN3CCCC3)nc(N3CC[NH2+]CC3)[nH]1)C2 (nonaromatic ring conformer: 79.9890088026592 kcal/mol)

>  <smiles>  (26) 
c1ccc2c(c1)CCN(c1nc(NCCCCCN3CCCC3)nc(N3CCNCC3)n1)C2

>  <score_type>  (26) 
oracle

>  <origin>  (26) 
autodockgpu

>  <m_score__min__energy>  (26) 
-9.7300000000000004

>  <m_primary>  (26) 
energy

>  <meeko>  (26) 
{"free_energy": -7.52, "intermolecular_energy": -10.21, "internal_energy": -2.45, "cluster_size": 8, "cluster_id": 3, "rank_in_cluster": 8}

>  <energy>  (26) 
-8.22

>  <cluster_rmsd>  (26) 
1.43

>  <rmsd>  (26) 
270.96

>  <cluster>  (26) 
3

$$$$
MTUVCRSRZGPGQU-NMOKVYIGNA-P
     RDKit          3D

 73 77  0  0  0  0  0  0  0  0999 V2000
  145.7735   73.4217  221.2294 H   0  0  0  0  0  0  0  0  0  0  0  0
  145.2200   73.7520  220.3380 C   0  0  0  0  0  0  0  0  0  0  0  0
  145.5640   73.2520  219.0780 C   0  0  0  0  0  0  0  0  0  0  0  0
  146.3883   72.5302  218.9809 H   0  0  0  0  0  0  0  0  0  0  0  0
  144.8630   73.6670  217.9410 C   0  0  0  0  0  0  0  0  0  0  0  0
  145.1268   73.2616  216.9530 H   0  0  0  0  0  0  0  0  0  0  0  0
  143.8230   74.6010  218.0620 C   0  0  0  0  0  0  0  0  0  0  0  0
  143.4760   75.0990  219.3280 C   0  0  0  0  0  0  0  0  0  0  0  0
  144.1750   74.6700  220.4670 C   0  0  0  0  0  0  0  0  0  0  0  0
  143.9004   75.0561  221.4597 H   0  0  0  0  0  0  0  0  0  0  0  0
  142.3350   76.0670  219.4220 C   0  0  0  0  0  0  0  0  0  0  0  0
  142.3996   76.6193  220.3711 H   0  0  0  0  0  0  0  0  0  0  0  0
  141.3829   75.5175  219.3825 H   0  0  0  0  0  0  0  0  0  0  0  0
  142.4030   77.0150  218.2960 N   0  0  0  0  0  0  0  0  0  0  0  0
  142.3340   78.4330  218.5510 C   0  0  0  0  0  0  0  0  0  0  0  0
  141.9240   78.8750  219.7660 N   0  0  0  0  0  0  0  0  0  0  0  0
  141.8340   80.2020  220.0310 C   0  0  0  0  0  0  0  0  0  0  0  0
  141.4330   80.6250  221.1990 N   0  0  0  0  0  0  0  0  0  0  0  0
  140.4190   80.8440  221.3370 H   0  0  0  0  0  0  0  0  0  0  0  0
  142.3410   80.8980  222.3190 C   0  0  0  0  0  0  0  0  0  0  0  0
  143.1723   81.5239  221.9624 H   0  0  0  0  0  0  0  0  0  0  0  0
  141.7753   81.4162  223.1073 H   0  0  0  0  0  0  0  0  0  0  0  0
  142.9090   79.5970  222.9040 C   0  0  0  0  0  0  0  0  0  0  0  0
  143.3117   78.9804  222.0869 H   0  0  0  0  0  0  0  0  0  0  0  0
  143.7035   79.8516  223.6209 H   0  0  0  0  0  0  0  0  0  0  0  0
  141.8170   78.8040  223.6420 C   0  0  0  0  0  0  0  0  0  0  0  0
  142.2978   78.1471  224.3818 H   0  0  0  0  0  0  0  0  0  0  0  0
  141.1440   79.5304  224.1211 H   0  0  0  0  0  0  0  0  0  0  0  0
  140.9710   77.9410  222.6940 C   0  0  0  0  0  0  0  0  0  0  0  0
  141.3065   78.1214  221.6621 H   0  0  0  0  0  0  0  0  0  0  0  0
  141.1090   76.8913  222.9924 H   0  0  0  0  0  0  0  0  0  0  0  0
  139.4680   78.2510  222.7820 C   0  0  0  0  0  0  0  0  0  0  0  0
  138.9318   77.6672  222.0193 H   0  0  0  0  0  0  0  0  0  0  0  0
  139.1054   77.9830  223.7853 H   0  0  0  0  0  0  0  0  0  0  0  0
  139.2270   79.6930  222.5520 N   0  0  0  0  0  0  0  0  0  0  0  0
  139.1570   80.4410  223.8180 C   0  0  0  0  0  0  0  0  0  0  0  0
  139.7253   79.9101  224.5959 H   0  0  0  0  0  0  0  0  0  0  0  0
  139.5883   81.4448  223.6902 H   0  0  0  0  0  0  0  0  0  0  0  0
  137.6920   80.5460  224.2300 C   0  0  0  0  0  0  0  0  0  0  0  0
  137.4861   79.8888  225.0877 H   0  0  0  0  0  0  0  0  0  0  0  0
  137.4277   81.5684  224.5380 H   0  0  0  0  0  0  0  0  0  0  0  0
  136.8960   80.1010  223.0190 C   0  0  0  0  0  0  0  0  0  0  0  0
  136.3796   79.1516  223.2238 H   0  0  0  0  0  0  0  0  0  0  0  0
  136.1194   80.8304  222.7453 H   0  0  0  0  0  0  0  0  0  0  0  0
  137.9230   79.9220  221.9150 C   0  0  0  0  0  0  0  0  0  0  0  0
  137.6544   79.0578  221.2897 H   0  0  0  0  0  0  0  0  0  0  0  0
  137.9588   80.8146  221.2732 H   0  0  0  0  0  0  0  0  0  0  0  0
  142.1690   81.0950  219.0670 N   0  0  0  0  0  0  0  0  0  0  0  0
  142.5970   80.6780  217.8450 C   0  0  0  0  0  0  0  0  0  0  0  0
  142.9470   81.6550  216.8350 N   0  0  0  0  0  0  0  0  0  0  0  0
  142.1420   81.7900  215.6110 C   0  0  0  0  0  0  0  0  0  0  0  0
  141.4797   80.9166  215.5192 H   0  0  0  0  0  0  0  0  0  0  0  0
  141.5545   82.7173  215.6816 H   0  0  0  0  0  0  0  0  0  0  0  0
  143.0400   81.8750  214.3570 C   0  0  0  0  0  0  0  0  0  0  0  0
  143.1170   80.8705  213.9154 H   0  0  0  0  0  0  0  0  0  0  0  0
  142.5715   82.5974  213.6724 H   0  0  0  0  0  0  0  0  0  0  0  0
  144.4040   82.3670  214.6400 N   0  0  0  0  0  0  0  0  0  0  0  0
  144.7820   82.8370  213.7830 H   0  0  0  0  0  0  0  0  0  0  0  0
  145.0290   81.5550  214.8600 H   0  0  0  0  0  0  0  0  0  0  0  0
  144.4350   83.3180  215.7580 C   0  0  0  0  0  0  0  0  0  0  0  0
  145.4504   83.7288  215.8589 H   0  0  0  0  0  0  0  0  0  0  0  0
  143.7217   84.1317  215.5601 H   0  0  0  0  0  0  0  0  0  0  0  0
  144.0420   82.6090  217.0600 C   0  0  0  0  0  0  0  0  0  0  0  0
  144.9155   82.0670  217.4514 H   0  0  0  0  0  0  0  0  0  0  0  0
  143.7015   83.3670  217.7808 H   0  0  0  0  0  0  0  0  0  0  0  0
  142.6800   79.3380  217.5910 N   0  0  0  0  0  0  0  0  0  0  0  0
  143.0000   78.9970  216.6600 H   0  0  0  0  0  0  0  0  0  0  0  0
  142.6800   76.5340  216.9270 C   0  0  0  0  0  0  0  0  0  0  0  0
  143.5370   77.0947  216.5256 H   0  0  0  0  0  0  0  0  0  0  0  0
  141.7684   76.6938  216.3324 H   0  0  0  0  0  0  0  0  0  0  0  0
  143.0080   75.0300  216.8700 C   0  0  0  0  0  0  0  0  0  0  0  0
  143.5784   74.8224  215.9527 H   0  0  0  0  0  0  0  0  0  0  0  0
  142.0622   74.4683  216.8763 H   0  0  0  0  0  0  0  0  0  0  0  0
  1  2  1  0
  2  3  2  0
  3  4  1  0
  3  5  1  0
  5  6  1  0
  5  7  2  0
  7  8  1  0
  8  9  2  0
  9 10  1  0
  8 11  1  0
 11 12  1  0
 11 13  1  0
 11 14  1  0
 14 15  1  0
 15 16  2  0
 16 17  1  0
 17 18  2  0
 18 19  1  0
 18 20  1  0
 20 21  1  0
 20 22  1  0
 20 23  1  0
 23 24  1  0
 23 25  1  0
 23 26  1  0
 26 27  1  0
 26 28  1  0
 26 29  1  0
 29 30  1  0
 29 31  1  0
 29 32  1  0
 32 33  1  0
 32 34  1  0
 32 35  1  0
 35 36  1  0
 36 37  1  0
 36 38  1  0
 36 39  1  0
 39 40  1  0
 39 41  1  0
 39 42  1  0
 42 43  1  0
 42 44  1  0
 42 45  1  0
 45 46  1  0
 45 47  1  0
 17 48  1  0
 48 49  2  0
 49 50  1  0
 50 51  1  0
 51 52  1  0
 51 53  1  0
 51 54  1  0
 54 55  1  0
 54 56  1  0
 54 57  1  0
 57 58  1  0
 57 59  1  0
 57 60  1  0
 60 61  1  0
 60 62  1  0
 60 63  1  0
 63 64  1  0
 63 65  1  0
 49 66  1  0
 66 67  1  0
 14 68  1  0
 68 69  1  0
 68 70  1  0
 68 71  1  0
 71 72  1  0
 71 73  1  0
  9  2  1  0
 66 15  1  0
 71  7  1  0
 45 35  1  0
 63 50  1  0
M  CHG  2  18   1  57   1
M  END
>  <UniqueID>  (27) 
481

>  <SMILES>  (27) 
c1ccc2c(c1)CCN(c1n/c(=[NH+]/CCCCCN3CCCC3)nc(N3CC[NH2+]CC3)[nH]1)C2

>  <Energy>  (27) 
79.9890088026592

>  <Genealogy>  (27) 
c1ccc2c(c1)CCN(c1nc([NH2+]CCCCCN3CCCC3)nc(N3CC[NH2+]CC3)n1)C2 (protonated)
c1ccc2c(c1)CCN(c1nc(=[NH+]CCCCCN3CCCC3)nc(N3CC[NH2+]CC3)[nH]1)C2 (tautomer)
c1ccc2c(c1)CCN(c1n/c(=[NH+]/CCCCCN3CCCC3)nc(N3CC[NH2+]CC3)[nH]1)C2 (cis-trans isomerization)
c1ccc2c(c1)CCN(c1n/c(=[NH+]/CCCCCN3CCCC3)nc(N3CC[NH2+]CC3)[nH]1)C2 (3D coordinates assigned)
c1ccc2c(c1)CCN(c1n/c(=[NH+]/CCCCCN3CCCC3)nc(N3CC[NH2+]CC3)[nH]1)C2 (nonaromatic ring conformer: 79.9890088026592 kcal/mol)

>  <smiles>  (27) 
c1ccc2c(c1)CCN(c1nc(NCCCCCN3CCCC3)nc(N3CCNCC3)n1)C2

>  <score_type>  (27) 
oracle

>  <origin>  (27) 
autodockgpu

>  <m_score__min__energy>  (27) 
-9.7300000000000004

>  <m_primary>  (27) 
energy

>  <meeko>  (27) 
{"free_energy": -8.22, "intermolecular_energy": -10.9, "internal_energy": -1.71, "cluster_size": 8, "cluster_id": 3, "rank_in_cluster": 3}

>  <energy>  (27) 
-8.21

>  <cluster_rmsd>  (27) 
0.89

>  <rmsd>  (27) 
270.92

>  <cluster>  (27) 
3

$$$$
MTUVCRSRZGPGQU-NMOKVYIGNA-P
     RDKit          3D

 73 77  0  0  0  0  0  0  0  0999 V2000
  141.4549   69.6282  228.5740 H   0  0  0  0  0  0  0  0  0  0  0  0
  140.9900   69.4680  227.5900 C   0  0  0  0  0  0  0  0  0  0  0  0
  140.8680   68.1720  227.0780 C   0  0  0  0  0  0  0  0  0  0  0  0
  141.2385   67.3151  227.6598 H   0  0  0  0  0  0  0  0  0  0  0  0
  140.2760   67.9630  225.8280 C   0  0  0  0  0  0  0  0  0  0  0  0
  140.1689   66.9416  225.4340 H   0  0  0  0  0  0  0  0  0  0  0  0
  139.8190   69.0560  225.0770 C   0  0  0  0  0  0  0  0  0  0  0  0
  139.9390   70.3560  225.5930 C   0  0  0  0  0  0  0  0  0  0  0  0
  140.5220   70.5600  226.8530 C   0  0  0  0  0  0  0  0  0  0  0  0
  140.6107   71.5779  227.2604 H   0  0  0  0  0  0  0  0  0  0  0  0
  139.4060   71.4950  224.7780 C   0  0  0  0  0  0  0  0  0  0  0  0
  139.8620   72.4357  225.1201 H   0  0  0  0  0  0  0  0  0  0  0  0
  138.3140   71.5523  224.8977 H   0  0  0  0  0  0  0  0  0  0  0  0
  139.7340   71.2780  223.3580 N   0  0  0  0  0  0  0  0  0  0  0  0
  140.3690   72.3290  222.6030 C   0  0  0  0  0  0  0  0  0  0  0  0
  139.8770   73.5910  222.6680 N   0  0  0  0  0  0  0  0  0  0  0  0
  140.4430   74.5990  221.9580 C   0  0  0  0  0  0  0  0  0  0  0  0
  139.9640   75.8110  222.0180 N   0  0  0  0  0  0  0  0  0  0  0  0
  140.6190   76.6060  222.2000 H   0  0  0  0  0  0  0  0  0  0  0  0
  138.5320   76.1220  221.9320 C   0  0  0  0  0  0  0  0  0  0  0  0
  137.9660   75.1836  221.8373 H   0  0  0  0  0  0  0  0  0  0  0  0
  138.2372   76.6620  222.8438 H   0  0  0  0  0  0  0  0  0  0  0  0
  138.2300   77.0140  220.7190 C   0  0  0  0  0  0  0  0  0  0  0  0
  139.0950   77.0028  220.0396 H   0  0  0  0  0  0  0  0  0  0  0  0
  137.3363   76.6239  220.2100 H   0  0  0  0  0  0  0  0  0  0  0  0
  137.9530   78.4610  221.1570 C   0  0  0  0  0  0  0  0  0  0  0  0
  137.4408   78.9855  220.3369 H   0  0  0  0  0  0  0  0  0  0  0  0
  137.3316   78.4215  222.0638 H   0  0  0  0  0  0  0  0  0  0  0  0
  139.2380   79.2290  221.5060 C   0  0  0  0  0  0  0  0  0  0  0  0
  140.0423   78.8900  220.8365 H   0  0  0  0  0  0  0  0  0  0  0  0
  139.0260   80.3011  221.3811 H   0  0  0  0  0  0  0  0  0  0  0  0
  139.6870   79.0140  222.9600 C   0  0  0  0  0  0  0  0  0  0  0  0
  139.6164   79.9663  223.5061 H   0  0  0  0  0  0  0  0  0  0  0  0
  139.0351   78.2617  223.4281 H   0  0  0  0  0  0  0  0  0  0  0  0
  141.0850   78.5310  223.0000 N   0  0  0  0  0  0  0  0  0  0  0  0
  141.8010   79.0330  224.1840 C   0  0  0  0  0  0  0  0  0  0  0  0
  141.0826   79.2556  224.9867 H   0  0  0  0  0  0  0  0  0  0  0  0
  142.5114   78.2758  224.5473 H   0  0  0  0  0  0  0  0  0  0  0  0
  142.5440   80.3050  223.7890 C   0  0  0  0  0  0  0  0  0  0  0  0
  142.0525   81.1877  224.2240 H   0  0  0  0  0  0  0  0  0  0  0  0
  143.5811   80.3013  224.1556 H   0  0  0  0  0  0  0  0  0  0  0  0
  142.4840   80.3580  222.2760 C   0  0  0  0  0  0  0  0  0  0  0  0
  141.8620   81.2022  221.9436 H   0  0  0  0  0  0  0  0  0  0  0  0
  143.4786   80.5028  221.8290 H   0  0  0  0  0  0  0  0  0  0  0  0
  141.8590   79.0380  221.8580 C   0  0  0  0  0  0  0  0  0  0  0  0
  141.1953   79.1940  220.9948 H   0  0  0  0  0  0  0  0  0  0  0  0
  142.6374   78.3168  221.5683 H   0  0  0  0  0  0  0  0  0  0  0  0
  141.5220   74.3360  221.1800 N   0  0  0  0  0  0  0  0  0  0  0  0
  142.0450   73.0820  221.1080 C   0  0  0  0  0  0  0  0  0  0  0  0
  143.1960   72.8310  220.2670 N   0  0  0  0  0  0  0  0  0  0  0  0
  144.5100   72.5360  220.8620 C   0  0  0  0  0  0  0  0  0  0  0  0
  144.4853   72.7931  221.9313 H   0  0  0  0  0  0  0  0  0  0  0  0
  144.7215   71.4653  220.7247 H   0  0  0  0  0  0  0  0  0  0  0  0
  145.6300   73.3470  220.1750 C   0  0  0  0  0  0  0  0  0  0  0  0
  145.8237   74.2490  220.7740 H   0  0  0  0  0  0  0  0  0  0  0  0
  146.5104   72.6907  220.1105 H   0  0  0  0  0  0  0  0  0  0  0  0
  145.2980   73.7640  218.7960 N   0  0  0  0  0  0  0  0  0  0  0  0
  146.1850   73.8660  218.2480 H   0  0  0  0  0  0  0  0  0  0  0  0
  144.8260   74.7000  218.8190 H   0  0  0  0  0  0  0  0  0  0  0  0
  144.4260   72.7990  218.1160 C   0  0  0  0  0  0  0  0  0  0  0  0
  144.2949   73.1027  217.0669 H   0  0  0  0  0  0  0  0  0  0  0  0
  144.8873   71.8014  218.1608 H   0  0  0  0  0  0  0  0  0  0  0  0
  143.0570   72.7520  218.8060 C   0  0  0  0  0  0  0  0  0  0  0  0
  142.4498   73.6001  218.4568 H   0  0  0  0  0  0  0  0  0  0  0  0
  142.5717   71.7978  218.5531 H   0  0  0  0  0  0  0  0  0  0  0  0
  141.4610   72.0760  221.8270 N   0  0  0  0  0  0  0  0  0  0  0  0
  141.8420   71.1080  221.7820 H   0  0  0  0  0  0  0  0  0  0  0  0
  139.5460   69.9490  222.7410 C   0  0  0  0  0  0  0  0  0  0  0  0
  140.4937   69.6428  222.2739 H   0  0  0  0  0  0  0  0  0  0  0  0
  138.7343   70.0416  222.0044 H   0  0  0  0  0  0  0  0  0  0  0  0
  139.1260   68.8660  223.7530 C   0  0  0  0  0  0  0  0  0  0  0  0
  139.3892   67.8771  223.3495 H   0  0  0  0  0  0  0  0  0  0  0  0
  138.0408   68.9440  223.9147 H   0  0  0  0  0  0  0  0  0  0  0  0
  1  2  1  0
  2  3  2  0
  3  4  1  0
  3  5  1  0
  5  6  1  0
  5  7  2  0
  7  8  1  0
  8  9  2  0
  9 10  1  0
  8 11  1  0
 11 12  1  0
 11 13  1  0
 11 14  1  0
 14 15  1  0
 15 16  2  0
 16 17  1  0
 17 18  2  0
 18 19  1  0
 18 20  1  0
 20 21  1  0
 20 22  1  0
 20 23  1  0
 23 24  1  0
 23 25  1  0
 23 26  1  0
 26 27  1  0
 26 28  1  0
 26 29  1  0
 29 30  1  0
 29 31  1  0
 29 32  1  0
 32 33  1  0
 32 34  1  0
 32 35  1  0
 35 36  1  0
 36 37  1  0
 36 38  1  0
 36 39  1  0
 39 40  1  0
 39 41  1  0
 39 42  1  0
 42 43  1  0
 42 44  1  0
 42 45  1  0
 45 46  1  0
 45 47  1  0
 17 48  1  0
 48 49  2  0
 49 50  1  0
 50 51  1  0
 51 52  1  0
 51 53  1  0
 51 54  1  0
 54 55  1  0
 54 56  1  0
 54 57  1  0
 57 58  1  0
 57 59  1  0
 57 60  1  0
 60 61  1  0
 60 62  1  0
 60 63  1  0
 63 64  1  0
 63 65  1  0
 49 66  1  0
 66 67  1  0
 14 68  1  0
 68 69  1  0
 68 70  1  0
 68 71  1  0
 71 72  1  0
 71 73  1  0
  9  2  1  0
 66 15  1  0
 71  7  1  0
 45 35  1  0
 63 50  1  0
M  CHG  2  18   1  57   1
M  END
>  <UniqueID>  (28) 
481

>  <SMILES>  (28) 
c1ccc2c(c1)CCN(c1n/c(=[NH+]/CCCCCN3CCCC3)nc(N3CC[NH2+]CC3)[nH]1)C2

>  <Energy>  (28) 
79.9890088026592

>  <Genealogy>  (28) 
c1ccc2c(c1)CCN(c1nc([NH2+]CCCCCN3CCCC3)nc(N3CC[NH2+]CC3)n1)C2 (protonated)
c1ccc2c(c1)CCN(c1nc(=[NH+]CCCCCN3CCCC3)nc(N3CC[NH2+]CC3)[nH]1)C2 (tautomer)
c1ccc2c(c1)CCN(c1n/c(=[NH+]/CCCCCN3CCCC3)nc(N3CC[NH2+]CC3)[nH]1)C2 (cis-trans isomerization)
c1ccc2c(c1)CCN(c1n/c(=[NH+]/CCCCCN3CCCC3)nc(N3CC[NH2+]CC3)[nH]1)C2 (3D coordinates assigned)
c1ccc2c(c1)CCN(c1n/c(=[NH+]/CCCCCN3CCCC3)nc(N3CC[NH2+]CC3)[nH]1)C2 (nonaromatic ring conformer: 79.9890088026592 kcal/mol)

>  <smiles>  (28) 
c1ccc2c(c1)CCN(c1nc(NCCCCCN3CCCC3)nc(N3CCNCC3)n1)C2

>  <score_type>  (28) 
oracle

>  <origin>  (28) 
autodockgpu

>  <m_score__min__energy>  (28) 
-9.7300000000000004

>  <m_primary>  (28) 
energy

>  <meeko>  (28) 
{"free_energy": -7.75, "intermolecular_energy": -10.43, "internal_energy": -1.32, "cluster_size": 4, "cluster_id": 5, "rank_in_cluster": 1}

>  <energy>  (28) 
-7.98

>  <cluster_rmsd>  (28) 
1.65

>  <rmsd>  (28) 
270.97

>  <cluster>  (28) 
3

$$$$
MTUVCRSRZGPGQU-NMOKVYIGNA-P
     RDKit          3D

 73 77  0  0  0  0  0  0  0  0999 V2000
  138.6933   81.8001  224.9986 H   0  0  0  0  0  0  0  0  0  0  0  0
  138.3380   81.2610  224.1080 C   0  0  0  0  0  0  0  0  0  0  0  0
  137.3980   80.2330  224.2430 C   0  0  0  0  0  0  0  0  0  0  0  0
  137.0168   79.9653  225.2395 H   0  0  0  0  0  0  0  0  0  0  0  0
  136.9420   79.5450  223.1130 C   0  0  0  0  0  0  0  0  0  0  0  0
  136.1932   78.7464  223.2201 H   0  0  0  0  0  0  0  0  0  0  0  0
  137.4400   79.8740  221.8440 C   0  0  0  0  0  0  0  0  0  0  0  0
  138.3800   80.9080  221.7100 C   0  0  0  0  0  0  0  0  0  0  0  0
  138.8260   81.6040  222.8450 C   0  0  0  0  0  0  0  0  0  0  0  0
  139.5584   82.4179  222.7397 H   0  0  0  0  0  0  0  0  0  0  0  0
  138.8620   81.2560  220.3330 C   0  0  0  0  0  0  0  0  0  0  0  0
  139.8097   81.8098  220.4050 H   0  0  0  0  0  0  0  0  0  0  0  0
  138.1107   81.8807  219.8278 H   0  0  0  0  0  0  0  0  0  0  0  0
  139.0730   80.0190  219.5610 N   0  0  0  0  0  0  0  0  0  0  0  0
  140.3240   79.8110  218.8750 C   0  0  0  0  0  0  0  0  0  0  0  0
  140.9760   78.6300  219.0140 N   0  0  0  0  0  0  0  0  0  0  0  0
  142.1620   78.4090  218.3940 C   0  0  0  0  0  0  0  0  0  0  0  0
  142.7900   77.2740  218.5350 N   0  0  0  0  0  0  0  0  0  0  0  0
  143.2680   76.8540  217.7050 H   0  0  0  0  0  0  0  0  0  0  0  0
  142.7930   76.4980  219.7810 C   0  0  0  0  0  0  0  0  0  0  0  0
  143.4971   75.6590  219.6794 H   0  0  0  0  0  0  0  0  0  0  0  0
  143.0965   77.1619  220.6038 H   0  0  0  0  0  0  0  0  0  0  0  0
  141.3960   75.9440  220.0940 C   0  0  0  0  0  0  0  0  0  0  0  0
  140.6436   76.5391  219.5556 H   0  0  0  0  0  0  0  0  0  0  0  0
  141.3551   74.8924  219.7738 H   0  0  0  0  0  0  0  0  0  0  0  0
  141.1050   76.0100  221.6020 C   0  0  0  0  0  0  0  0  0  0  0  0
  140.9850   74.9850  221.9828 H   0  0  0  0  0  0  0  0  0  0  0  0
  141.9502   76.5249  222.0821 H   0  0  0  0  0  0  0  0  0  0  0  0
  139.8310   76.8070  221.9240 C   0  0  0  0  0  0  0  0  0  0  0  0
  139.2249   76.8843  221.0093 H   0  0  0  0  0  0  0  0  0  0  0  0
  139.2993   76.2702  222.7235 H   0  0  0  0  0  0  0  0  0  0  0  0
  140.1260   78.2250  222.4380 C   0  0  0  0  0  0  0  0  0  0  0  0
  139.8084   78.9583  221.6821 H   0  0  0  0  0  0  0  0  0  0  0  0
  139.5746   78.3873  223.3759 H   0  0  0  0  0  0  0  0  0  0  0  0
  141.5740   78.3870  222.6970 N   0  0  0  0  0  0  0  0  0  0  0  0
  141.8270   78.9840  224.0190 C   0  0  0  0  0  0  0  0  0  0  0  0
  140.9846   78.7677  224.6925 H   0  0  0  0  0  0  0  0  0  0  0  0
  142.7444   78.5631  224.4564 H   0  0  0  0  0  0  0  0  0  0  0  0
  141.9720   80.4910  223.8420 C   0  0  0  0  0  0  0  0  0  0  0  0
  141.0862   81.0108  224.2358 H   0  0  0  0  0  0  0  0  0  0  0  0
  142.8436   80.8828  224.3869 H   0  0  0  0  0  0  0  0  0  0  0  0
  142.0970   80.7160  222.3480 C   0  0  0  0  0  0  0  0  0  0  0  0
  141.2150   81.2484  221.9625 H   0  0  0  0  0  0  0  0  0  0  0  0
  142.9729   81.3317  222.0956 H   0  0  0  0  0  0  0  0  0  0  0  0
  142.1860   79.3250  221.7450 C   0  0  0  0  0  0  0  0  0  0  0  0
  141.6436   79.2956  220.7885 H   0  0  0  0  0  0  0  0  0  0  0  0
  143.2348   79.0530  221.5552 H   0  0  0  0  0  0  0  0  0  0  0  0
  142.6950   79.3850  217.6160 N   0  0  0  0  0  0  0  0  0  0  0  0
  142.0540   80.5730  217.4480 C   0  0  0  0  0  0  0  0  0  0  0  0
  142.6470   81.5970  216.6130 N   0  0  0  0  0  0  0  0  0  0  0  0
  142.0440   81.9540  215.3200 C   0  0  0  0  0  0  0  0  0  0  0  0
  141.3108   81.1828  215.0414 H   0  0  0  0  0  0  0  0  0  0  0  0
  141.5568   82.9349  215.4230 H   0  0  0  0  0  0  0  0  0  0  0  0
  143.1140   82.0550  214.2110 C   0  0  0  0  0  0  0  0  0  0  0  0
  143.1431   81.0991  213.6675 H   0  0  0  0  0  0  0  0  0  0  0  0
  142.8283   82.8961  213.5622 H   0  0  0  0  0  0  0  0  0  0  0  0
  144.4700   82.3430  214.7230 N   0  0  0  0  0  0  0  0  0  0  0  0
  145.0140   82.8470  213.9830 H   0  0  0  0  0  0  0  0  0  0  0  0
  144.9650   81.4410  214.9250 H   0  0  0  0  0  0  0  0  0  0  0  0
  144.4450   83.1640  215.9400 C   0  0  0  0  0  0  0  0  0  0  0  0
  145.4743   83.4339  216.2186 H   0  0  0  0  0  0  0  0  0  0  0  0
  143.8592   84.0753  215.7490 H   0  0  0  0  0  0  0  0  0  0  0  0
  143.7970   82.3800  217.0880 C   0  0  0  0  0  0  0  0  0  0  0  0
  144.5421   81.6967  217.5216 H   0  0  0  0  0  0  0  0  0  0  0  0
  143.4428   83.0967  217.8435 H   0  0  0  0  0  0  0  0  0  0  0  0
  140.8610   80.7820  218.0820 N   0  0  0  0  0  0  0  0  0  0  0  0
  140.3570   81.6870  217.9720 H   0  0  0  0  0  0  0  0  0  0  0  0
  138.0740   78.9320  219.5990 C   0  0  0  0  0  0  0  0  0  0  0  0
  138.5822   77.9994  219.8854 H   0  0  0  0  0  0  0  0  0  0  0  0
  137.6239   78.8652  218.5975 H   0  0  0  0  0  0  0  0  0  0  0  0
  136.9320   79.1950  220.5990 C   0  0  0  0  0  0  0  0  0  0  0  0
  136.4710   78.2357  220.8768 H   0  0  0  0  0  0  0  0  0  0  0  0
  136.1956   79.8562  220.1189 H   0  0  0  0  0  0  0  0  0  0  0  0
  1  2  1  0
  2  3  2  0
  3  4  1  0
  3  5  1  0
  5  6  1  0
  5  7  2  0
  7  8  1  0
  8  9  2  0
  9 10  1  0
  8 11  1  0
 11 12  1  0
 11 13  1  0
 11 14  1  0
 14 15  1  0
 15 16  2  0
 16 17  1  0
 17 18  2  0
 18 19  1  0
 18 20  1  0
 20 21  1  0
 20 22  1  0
 20 23  1  0
 23 24  1  0
 23 25  1  0
 23 26  1  0
 26 27  1  0
 26 28  1  0
 26 29  1  0
 29 30  1  0
 29 31  1  0
 29 32  1  0
 32 33  1  0
 32 34  1  0
 32 35  1  0
 35 36  1  0
 36 37  1  0
 36 38  1  0
 36 39  1  0
 39 40  1  0
 39 41  1  0
 39 42  1  0
 42 43  1  0
 42 44  1  0
 42 45  1  0
 45 46  1  0
 45 47  1  0
 17 48  1  0
 48 49  2  0
 49 50  1  0
 50 51  1  0
 51 52  1  0
 51 53  1  0
 51 54  1  0
 54 55  1  0
 54 56  1  0
 54 57  1  0
 57 58  1  0
 57 59  1  0
 57 60  1  0
 60 61  1  0
 60 62  1  0
 60 63  1  0
 63 64  1  0
 63 65  1  0
 49 66  1  0
 66 67  1  0
 14 68  1  0
 68 69  1  0
 68 70  1  0
 68 71  1  0
 71 72  1  0
 71 73  1  0
  9  2  1  0
 66 15  1  0
 71  7  1  0
 45 35  1  0
 63 50  1  0
M  CHG  2  18   1  57   1
M  END
>  <UniqueID>  (29) 
481

>  <SMILES>  (29) 
c1ccc2c(c1)CCN(c1n/c(=[NH+]/CCCCCN3CCCC3)nc(N3CC[NH2+]CC3)[nH]1)C2

>  <Energy>  (29) 
79.9890088026592

>  <Genealogy>  (29) 
c1ccc2c(c1)CCN(c1nc([NH2+]CCCCCN3CCCC3)nc(N3CC[NH2+]CC3)n1)C2 (protonated)
c1ccc2c(c1)CCN(c1nc(=[NH+]CCCCCN3CCCC3)nc(N3CC[NH2+]CC3)[nH]1)C2 (tautomer)
c1ccc2c(c1)CCN(c1n/c(=[NH+]/CCCCCN3CCCC3)nc(N3CC[NH2+]CC3)[nH]1)C2 (cis-trans isomerization)
c1ccc2c(c1)CCN(c1n/c(=[NH+]/CCCCCN3CCCC3)nc(N3CC[NH2+]CC3)[nH]1)C2 (3D coordinates assigned)
c1ccc2c(c1)CCN(c1n/c(=[NH+]/CCCCCN3CCCC3)nc(N3CC[NH2+]CC3)[nH]1)C2 (nonaromatic ring conformer: 79.9890088026592 kcal/mol)

>  <smiles>  (29) 
c1ccc2c(c1)CCN(c1nc(NCCCCCN3CCCC3)nc(N3CCNCC3)n1)C2

>  <score_type>  (29) 
oracle

>  <origin>  (29) 
autodockgpu

>  <m_score__min__energy>  (29) 
-9.7300000000000004

>  <m_primary>  (29) 
energy

>  <meeko>  (29) 
{"free_energy": -6.5, "intermolecular_energy": -9.18, "internal_energy": -2.41, "cluster_size": 2, "cluster_id": 6, "rank_in_cluster": 2}

>  <energy>  (29) 
-7.89

>  <cluster_rmsd>  (29) 
1.59

>  <rmsd>  (29) 
271.02

>  <cluster>  (29) 
3

$$$$
MTUVCRSRZGPGQU-NMOKVYIGNA-P
     RDKit          3D

 73 77  0  0  0  0  0  0  0  0999 V2000
  134.0848   76.7285  225.7014 H   0  0  0  0  0  0  0  0  0  0  0  0
  134.6190   76.1780  224.9130 C   0  0  0  0  0  0  0  0  0  0  0  0
  134.6880   74.7820  224.9610 C   0  0  0  0  0  0  0  0  0  0  0  0
  134.2079   74.2370  225.7872 H   0  0  0  0  0  0  0  0  0  0  0  0
  135.3660   74.0770  223.9610 C   0  0  0  0  0  0  0  0  0  0  0  0
  135.4081   72.9783  223.9942 H   0  0  0  0  0  0  0  0  0  0  0  0
  135.9920   74.7720  222.9160 C   0  0  0  0  0  0  0  0  0  0  0  0
  135.9180   76.1730  222.8670 C   0  0  0  0  0  0  0  0  0  0  0  0
  135.2270   76.8750  223.8660 C   0  0  0  0  0  0  0  0  0  0  0  0
  135.1641   77.9724  223.8249 H   0  0  0  0  0  0  0  0  0  0  0  0
  136.5690   76.8780  221.7150 C   0  0  0  0  0  0  0  0  0  0  0  0
  136.7335   77.9337  221.9767 H   0  0  0  0  0  0  0  0  0  0  0  0
  135.9166   76.8168  220.8315 H   0  0  0  0  0  0  0  0  0  0  0  0
  137.8620   76.2390  221.4160 N   0  0  0  0  0  0  0  0  0  0  0  0
  139.0490   77.0490  221.3020 C   0  0  0  0  0  0  0  0  0  0  0  0
  139.8880   77.1610  222.3620 N   0  0  0  0  0  0  0  0  0  0  0  0
  141.0050   77.9270  222.2910 C   0  0  0  0  0  0  0  0  0  0  0  0
  141.8070   78.0370  223.3140 N   0  0  0  0  0  0  0  0  0  0  0  0
  142.4340   77.2350  223.5540 H   0  0  0  0  0  0  0  0  0  0  0  0
  141.8210   79.1980  224.2120 C   0  0  0  0  0  0  0  0  0  0  0  0
  140.7907   79.5584  224.3484 H   0  0  0  0  0  0  0  0  0  0  0  0
  142.2545   78.8884  225.1744 H   0  0  0  0  0  0  0  0  0  0  0  0
  142.6770   80.3350  223.6370 C   0  0  0  0  0  0  0  0  0  0  0  0
  143.4934   80.5614  224.3386 H   0  0  0  0  0  0  0  0  0  0  0  0
  143.0826   80.0132  222.6664 H   0  0  0  0  0  0  0  0  0  0  0  0
  141.8330   81.6020  223.4210 C   0  0  0  0  0  0  0  0  0  0  0  0
  141.1007   81.6812  224.2380 H   0  0  0  0  0  0  0  0  0  0  0  0
  142.5193   82.4615  223.4071 H   0  0  0  0  0  0  0  0  0  0  0  0
  141.0780   81.5870  222.0830 C   0  0  0  0  0  0  0  0  0  0  0  0
  141.4061   82.4500  221.4850 H   0  0  0  0  0  0  0  0  0  0  0  0
  141.3073   80.6334  221.5849 H   0  0  0  0  0  0  0  0  0  0  0  0
  139.5520   81.6620  222.2570 C   0  0  0  0  0  0  0  0  0  0  0  0
  139.3154   82.3191  223.1069 H   0  0  0  0  0  0  0  0  0  0  0  0
  139.1058   82.0634  221.3351 H   0  0  0  0  0  0  0  0  0  0  0  0
  138.9980   80.3140  222.5130 N   0  0  0  0  0  0  0  0  0  0  0  0
  137.6850   80.1340  221.8720 C   0  0  0  0  0  0  0  0  0  0  0  0
  137.5989   80.8055  221.0050 H   0  0  0  0  0  0  0  0  0  0  0  0
  137.5705   79.0961  221.5261 H   0  0  0  0  0  0  0  0  0  0  0  0
  136.6050   80.4700  222.8940 C   0  0  0  0  0  0  0  0  0  0  0  0
  136.1309   81.4320  222.6495 H   0  0  0  0  0  0  0  0  0  0  0  0
  135.8074   79.7126  222.9073 H   0  0  0  0  0  0  0  0  0  0  0  0
  137.3190   80.5560  224.2280 C   0  0  0  0  0  0  0  0  0  0  0  0
  137.3094   81.5892  224.6053 H   0  0  0  0  0  0  0  0  0  0  0  0
  136.8345   79.9348  224.9957 H   0  0  0  0  0  0  0  0  0  0  0  0
  138.7410   80.1050  223.9450 C   0  0  0  0  0  0  0  0  0  0  0  0
  139.4484   80.6980  224.5433 H   0  0  0  0  0  0  0  0  0  0  0  0
  138.8694   79.0450  224.2094 H   0  0  0  0  0  0  0  0  0  0  0  0
  141.2870   78.5830  221.1370 N   0  0  0  0  0  0  0  0  0  0  0  0
  140.4700   78.4760  220.0540 C   0  0  0  0  0  0  0  0  0  0  0  0
  140.7950   79.1890  218.8370 N   0  0  0  0  0  0  0  0  0  0  0  0
  140.4290   78.6360  217.5230 C   0  0  0  0  0  0  0  0  0  0  0  0
  140.1481   77.5794  217.6443 H   0  0  0  0  0  0  0  0  0  0  0  0
  139.5861   79.2187  217.1230 H   0  0  0  0  0  0  0  0  0  0  0  0
  141.6060   78.7330  216.5270 C   0  0  0  0  0  0  0  0  0  0  0  0
  142.1375   77.7699  216.5217 H   0  0  0  0  0  0  0  0  0  0  0  0
  141.1778   78.9796  215.5443 H   0  0  0  0  0  0  0  0  0  0  0  0
  142.5740   79.7990  216.8580 N   0  0  0  0  0  0  0  0  0  0  0  0
  143.0360   80.1250  215.9760 H   0  0  0  0  0  0  0  0  0  0  0  0
  143.3190   79.4110  217.4850 H   0  0  0  0  0  0  0  0  0  0  0  0
  141.9380   80.9470  217.5160 C   0  0  0  0  0  0  0  0  0  0  0  0
  142.6794   81.7491  217.6461 H   0  0  0  0  0  0  0  0  0  0  0  0
  141.1061   81.3057  216.8921 H   0  0  0  0  0  0  0  0  0  0  0  0
  141.3950   80.5300  218.8880 C   0  0  0  0  0  0  0  0  0  0  0  0
  142.2208   80.5262  219.6147 H   0  0  0  0  0  0  0  0  0  0  0  0
  140.6177   81.2482  219.1880 H   0  0  0  0  0  0  0  0  0  0  0  0
  139.3460   77.7020  220.1420 N   0  0  0  0  0  0  0  0  0  0  0  0
  138.7040   77.6120  219.3270 H   0  0  0  0  0  0  0  0  0  0  0  0
  137.9780   74.7670  221.3700 C   0  0  0  0  0  0  0  0  0  0  0  0
  138.7876   74.4581  222.0476 H   0  0  0  0  0  0  0  0  0  0  0  0
  138.1851   74.4863  220.3268 H   0  0  0  0  0  0  0  0  0  0  0  0
  136.6830   74.0460  221.7920 C   0  0  0  0  0  0  0  0  0  0  0  0
  136.9322   73.0272  222.1236 H   0  0  0  0  0  0  0  0  0  0  0  0
  136.0036   74.0194  220.9273 H   0  0  0  0  0  0  0  0  0  0  0  0
  1  2  1  0
  2  3  2  0
  3  4  1  0
  3  5  1  0
  5  6  1  0
  5  7  2  0
  7  8  1  0
  8  9  2  0
  9 10  1  0
  8 11  1  0
 11 12  1  0
 11 13  1  0
 11 14  1  0
 14 15  1  0
 15 16  2  0
 16 17  1  0
 17 18  2  0
 18 19  1  0
 18 20  1  0
 20 21  1  0
 20 22  1  0
 20 23  1  0
 23 24  1  0
 23 25  1  0
 23 26  1  0
 26 27  1  0
 26 28  1  0
 26 29  1  0
 29 30  1  0
 29 31  1  0
 29 32  1  0
 32 33  1  0
 32 34  1  0
 32 35  1  0
 35 36  1  0
 36 37  1  0
 36 38  1  0
 36 39  1  0
 39 40  1  0
 39 41  1  0
 39 42  1  0
 42 43  1  0
 42 44  1  0
 42 45  1  0
 45 46  1  0
 45 47  1  0
 17 48  1  0
 48 49  2  0
 49 50  1  0
 50 51  1  0
 51 52  1  0
 51 53  1  0
 51 54  1  0
 54 55  1  0
 54 56  1  0
 54 57  1  0
 57 58  1  0
 57 59  1  0
 57 60  1  0
 60 61  1  0
 60 62  1  0
 60 63  1  0
 63 64  1  0
 63 65  1  0
 49 66  1  0
 66 67  1  0
 14 68  1  0
 68 69  1  0
 68 70  1  0
 68 71  1  0
 71 72  1  0
 71 73  1  0
  9  2  1  0
 66 15  1  0
 71  7  1  0
 45 35  1  0
 63 50  1  0
M  CHG  2  18   1  57   1
M  END
>  <UniqueID>  (30) 
481

>  <SMILES>  (30) 
c1ccc2c(c1)CCN(c1n/c(=[NH+]/CCCCCN3CCCC3)nc(N3CC[NH2+]CC3)[nH]1)C2

>  <Energy>  (30) 
79.9890088026592

>  <Genealogy>  (30) 
c1ccc2c(c1)CCN(c1nc([NH2+]CCCCCN3CCCC3)nc(N3CC[NH2+]CC3)n1)C2 (protonated)
c1ccc2c(c1)CCN(c1nc(=[NH+]CCCCCN3CCCC3)nc(N3CC[NH2+]CC3)[nH]1)C2 (tautomer)
c1ccc2c(c1)CCN(c1n/c(=[NH+]/CCCCCN3CCCC3)nc(N3CC[NH2+]CC3)[nH]1)C2 (cis-trans isomerization)
c1ccc2c(c1)CCN(c1n/c(=[NH+]/CCCCCN3CCCC3)nc(N3CC[NH2+]CC3)[nH]1)C2 (3D coordinates assigned)
c1ccc2c(c1)CCN(c1n/c(=[NH+]/CCCCCN3CCCC3)nc(N3CC[NH2+]CC3)[nH]1)C2 (nonaromatic ring conformer: 79.9890088026592 kcal/mol)

>  <smiles>  (30) 
c1ccc2c(c1)CCN(c1nc(NCCCCCN3CCCC3)nc(N3CCNCC3)n1)C2

>  <score_type>  (30) 
oracle

>  <origin>  (30) 
autodockgpu

>  <m_score__min__energy>  (30) 
-9.7300000000000004

>  <m_primary>  (30) 
energy

>  <meeko>  (30) 
{"free_energy": -6.69, "intermolecular_energy": -9.37, "internal_energy": -2.14, "cluster_size": 1, "cluster_id": 8, "rank_in_cluster": 1}

>  <energy>  (30) 
-7.73

>  <cluster_rmsd>  (30) 
0.62

>  <rmsd>  (30) 
270.46

>  <cluster>  (30) 
3

$$$$
MTUVCRSRZGPGQU-NMOKVYIGNA-P
     RDKit          3D

 73 77  0  0  0  0  0  0  0  0999 V2000
  145.5467   72.9700  221.9546 H   0  0  0  0  0  0  0  0  0  0  0  0
  145.2260   73.3220  220.9630 C   0  0  0  0  0  0  0  0  0  0  0  0
  145.9280   72.9240  219.8200 C   0  0  0  0  0  0  0  0  0  0  0  0
  146.8006   72.2611  219.9153 H   0  0  0  0  0  0  0  0  0  0  0  0
  145.5230   73.3670  218.5560 C   0  0  0  0  0  0  0  0  0  0  0  0
  146.0675   73.0404  217.6578 H   0  0  0  0  0  0  0  0  0  0  0  0
  144.4220   74.2280  218.4350 C   0  0  0  0  0  0  0  0  0  0  0  0
  143.7160   74.6240  219.5830 C   0  0  0  0  0  0  0  0  0  0  0  0
  144.1180   74.1660  220.8470 C   0  0  0  0  0  0  0  0  0  0  0  0
  143.5617   74.4709  221.7456 H   0  0  0  0  0  0  0  0  0  0  0  0
  142.5220   75.5140  219.4100 C   0  0  0  0  0  0  0  0  0  0  0  0
  142.2915   76.0086  220.3651 H   0  0  0  0  0  0  0  0  0  0  0  0
  141.6581   74.9119  219.0919 H   0  0  0  0  0  0  0  0  0  0  0  0
  142.8150   76.5330  218.3870 N   0  0  0  0  0  0  0  0  0  0  0  0
  142.5750   77.9250  218.6770 C   0  0  0  0  0  0  0  0  0  0  0  0
  142.1270   78.2850  219.9060 N   0  0  0  0  0  0  0  0  0  0  0  0
  141.8780   79.5850  220.2050 C   0  0  0  0  0  0  0  0  0  0  0  0
  141.4410   79.9270  221.3850 N   0  0  0  0  0  0  0  0  0  0  0  0
  140.5270   80.4310  221.4610 H   0  0  0  0  0  0  0  0  0  0  0  0
  142.2030   79.7240  222.6230 C   0  0  0  0  0  0  0  0  0  0  0  0
  143.2180   79.3850  222.3681 H   0  0  0  0  0  0  0  0  0  0  0  0
  142.2386   80.6774  223.1705 H   0  0  0  0  0  0  0  0  0  0  0  0
  141.5340   78.6720  223.5210 C   0  0  0  0  0  0  0  0  0  0  0  0
  142.2553   78.3352  224.2801 H   0  0  0  0  0  0  0  0  0  0  0  0
  140.6554   79.1273  224.0013 H   0  0  0  0  0  0  0  0  0  0  0  0
  141.0700   77.4610  222.6950 C   0  0  0  0  0  0  0  0  0  0  0  0
  141.7502   77.3365  221.8395 H   0  0  0  0  0  0  0  0  0  0  0  0
  141.0842   76.5817  223.3557 H   0  0  0  0  0  0  0  0  0  0  0  0
  139.6370   77.6220  222.1650 C   0  0  0  0  0  0  0  0  0  0  0  0
  139.6809   78.0975  221.1740 H   0  0  0  0  0  0  0  0  0  0  0  0
  139.1880   76.6189  222.1188 H   0  0  0  0  0  0  0  0  0  0  0  0
  138.7520   78.4810  223.0820 C   0  0  0  0  0  0  0  0  0  0  0  0
  137.7106   78.1343  223.0097 H   0  0  0  0  0  0  0  0  0  0  0  0
  139.1105   78.3847  224.1175 H   0  0  0  0  0  0  0  0  0  0  0  0
  138.8220   79.9030  222.6790 N   0  0  0  0  0  0  0  0  0  0  0  0
  139.0890   80.7810  223.8300 C   0  0  0  0  0  0  0  0  0  0  0  0
  139.6149   80.2169  224.6144 H   0  0  0  0  0  0  0  0  0  0  0  0
  139.7198   81.6283  223.5230 H   0  0  0  0  0  0  0  0  0  0  0  0
  137.7530   81.2860  224.3650 C   0  0  0  0  0  0  0  0  0  0  0  0
  137.5132   80.7980  225.3212 H   0  0  0  0  0  0  0  0  0  0  0  0
  137.7734   82.3696  224.5530 H   0  0  0  0  0  0  0  0  0  0  0  0
  136.7270   80.9190  223.3120 C   0  0  0  0  0  0  0  0  0  0  0  0
  136.0361   80.1540  223.6959 H   0  0  0  0  0  0  0  0  0  0  0  0
  136.1111   81.7816  223.0179 H   0  0  0  0  0  0  0  0  0  0  0  0
  137.5350   80.3720  222.1470 C   0  0  0  0  0  0  0  0  0  0  0  0
  136.9965   79.5358  221.6771 H   0  0  0  0  0  0  0  0  0  0  0  0
  137.6926   81.1514  221.3870 H   0  0  0  0  0  0  0  0  0  0  0  0
  142.0900   80.5350  219.2600 N   0  0  0  0  0  0  0  0  0  0  0  0
  142.5540   80.2020  218.0250 C   0  0  0  0  0  0  0  0  0  0  0  0
  142.7700   81.2370  217.0360 N   0  0  0  0  0  0  0  0  0  0  0  0
  141.8590   81.3820  215.8900 C   0  0  0  0  0  0  0  0  0  0  0  0
  141.2343   80.4800  215.8121 H   0  0  0  0  0  0  0  0  0  0  0  0
  141.2353   82.2735  216.0519 H   0  0  0  0  0  0  0  0  0  0  0  0
  142.6430   81.5670  214.5720 C   0  0  0  0  0  0  0  0  0  0  0  0
  142.7302   80.5877  214.0786 H   0  0  0  0  0  0  0  0  0  0  0  0
  142.0846   82.2934  213.9632 H   0  0  0  0  0  0  0  0  0  0  0  0
  144.0020   82.1160  214.7650 N   0  0  0  0  0  0  0  0  0  0  0  0
  144.2820   82.6410  213.9020 H   0  0  0  0  0  0  0  0  0  0  0  0
  144.6810   81.3290  214.8950 H   0  0  0  0  0  0  0  0  0  0  0  0
  144.0810   83.0190  215.9190 C   0  0  0  0  0  0  0  0  0  0  0  0
  145.0804   83.4770  215.9556 H   0  0  0  0  0  0  0  0  0  0  0  0
  143.3154   83.8024  215.8180 H   0  0  0  0  0  0  0  0  0  0  0  0
  143.8330   82.2360  217.2150 C   0  0  0  0  0  0  0  0  0  0  0  0
  144.7613   81.7239  217.5082 H   0  0  0  0  0  0  0  0  0  0  0  0
  143.5182   82.9442  217.9956 H   0  0  0  0  0  0  0  0  0  0  0  0
  142.7970   78.8880  217.7380 N   0  0  0  0  0  0  0  0  0  0  0  0
  143.1460   78.6110  216.7960 H   0  0  0  0  0  0  0  0  0  0  0  0
  143.4800   76.1570  217.1230 C   0  0  0  0  0  0  0  0  0  0  0  0
  144.3688   76.7918  216.9926 H   0  0  0  0  0  0  0  0  0  0  0  0
  142.7498   76.2998  216.3128 H   0  0  0  0  0  0  0  0  0  0  0  0
  143.9220   74.6810  217.0890 C   0  0  0  0  0  0  0  0  0  0  0  0
  144.7284   74.5655  216.3499 H   0  0  0  0  0  0  0  0  0  0  0  0
  143.0526   74.0647  216.8164 H   0  0  0  0  0  0  0  0  0  0  0  0
  1  2  1  0
  2  3  2  0
  3  4  1  0
  3  5  1  0
  5  6  1  0
  5  7  2  0
  7  8  1  0
  8  9  2  0
  9 10  1  0
  8 11  1  0
 11 12  1  0
 11 13  1  0
 11 14  1  0
 14 15  1  0
 15 16  2  0
 16 17  1  0
 17 18  2  0
 18 19  1  0
 18 20  1  0
 20 21  1  0
 20 22  1  0
 20 23  1  0
 23 24  1  0
 23 25  1  0
 23 26  1  0
 26 27  1  0
 26 28  1  0
 26 29  1  0
 29 30  1  0
 29 31  1  0
 29 32  1  0
 32 33  1  0
 32 34  1  0
 32 35  1  0
 35 36  1  0
 36 37  1  0
 36 38  1  0
 36 39  1  0
 39 40  1  0
 39 41  1  0
 39 42  1  0
 42 43  1  0
 42 44  1  0
 42 45  1  0
 45 46  1  0
 45 47  1  0
 17 48  1  0
 48 49  2  0
 49 50  1  0
 50 51  1  0
 51 52  1  0
 51 53  1  0
 51 54  1  0
 54 55  1  0
 54 56  1  0
 54 57  1  0
 57 58  1  0
 57 59  1  0
 57 60  1  0
 60 61  1  0
 60 62  1  0
 60 63  1  0
 63 64  1  0
 63 65  1  0
 49 66  1  0
 66 67  1  0
 14 68  1  0
 68 69  1  0
 68 70  1  0
 68 71  1  0
 71 72  1  0
 71 73  1  0
  9  2  1  0
 66 15  1  0
 71  7  1  0
 45 35  1  0
 63 50  1  0
M  CHG  2  18   1  57   1
M  END
>  <UniqueID>  (31) 
481

>  <SMILES>  (31) 
c1ccc2c(c1)CCN(c1n/c(=[NH+]/CCCCCN3CCCC3)nc(N3CC[NH2+]CC3)[nH]1)C2

>  <Energy>  (31) 
79.9890088026592

>  <Genealogy>  (31) 
c1ccc2c(c1)CCN(c1nc([NH2+]CCCCCN3CCCC3)nc(N3CC[NH2+]CC3)n1)C2 (protonated)
c1ccc2c(c1)CCN(c1nc(=[NH+]CCCCCN3CCCC3)nc(N3CC[NH2+]CC3)[nH]1)C2 (tautomer)
c1ccc2c(c1)CCN(c1n/c(=[NH+]/CCCCCN3CCCC3)nc(N3CC[NH2+]CC3)[nH]1)C2 (cis-trans isomerization)
c1ccc2c(c1)CCN(c1n/c(=[NH+]/CCCCCN3CCCC3)nc(N3CC[NH2+]CC3)[nH]1)C2 (3D coordinates assigned)
c1ccc2c(c1)CCN(c1n/c(=[NH+]/CCCCCN3CCCC3)nc(N3CC[NH2+]CC3)[nH]1)C2 (nonaromatic ring conformer: 79.9890088026592 kcal/mol)

>  <smiles>  (31) 
c1ccc2c(c1)CCN(c1nc(NCCCCCN3CCCC3)nc(N3CCNCC3)n1)C2

>  <score_type>  (31) 
oracle

>  <origin>  (31) 
autodockgpu

>  <m_score__min__energy>  (31) 
-9.7300000000000004

>  <m_primary>  (31) 
energy

>  <meeko>  (31) 
{"free_energy": -7.98, "intermolecular_energy": -10.66, "internal_energy": -1.61, "cluster_size": 8, "cluster_id": 3, "rank_in_cluster": 5}

>  <energy>  (31) 
-7.52

>  <cluster_rmsd>  (31) 
1.67

>  <rmsd>  (31) 
270.83

>  <cluster>  (31) 
3

$$$$
MTUVCRSRZGPGQU-NMOKVYIGNA-P
     RDKit          3D

 73 77  0  0  0  0  0  0  0  0999 V2000
  142.3362   67.7568  227.1004 H   0  0  0  0  0  0  0  0  0  0  0  0
  141.4320   68.1880  226.6460 C   0  0  0  0  0  0  0  0  0  0  0  0
  140.2350   67.4650  226.6530 C   0  0  0  0  0  0  0  0  0  0  0  0
  140.2002   66.4659  227.1119 H   0  0  0  0  0  0  0  0  0  0  0  0
  139.0820   68.0090  226.0780 C   0  0  0  0  0  0  0  0  0  0  0  0
  138.1385   67.4438  226.0972 H   0  0  0  0  0  0  0  0  0  0  0  0
  139.1290   69.2750  225.4770 C   0  0  0  0  0  0  0  0  0  0  0  0
  140.3310   70.0020  225.4740 C   0  0  0  0  0  0  0  0  0  0  0  0
  141.4820   69.4570  226.0630 C   0  0  0  0  0  0  0  0  0  0  0  0
  142.4223   70.0278  226.0658 H   0  0  0  0  0  0  0  0  0  0  0  0
  140.3340   71.3670  224.8550 C   0  0  0  0  0  0  0  0  0  0  0  0
  141.3672   71.6589  224.6155 H   0  0  0  0  0  0  0  0  0  0  0  0
  139.9033   72.0915  225.5618 H   0  0  0  0  0  0  0  0  0  0  0  0
  139.5300   71.3470  223.6200 N   0  0  0  0  0  0  0  0  0  0  0  0
  140.0860   71.8720  222.3980 C   0  0  0  0  0  0  0  0  0  0  0  0
  140.5570   71.0170  221.4550 N   0  0  0  0  0  0  0  0  0  0  0  0
  141.1000   71.4810  220.3020 C   0  0  0  0  0  0  0  0  0  0  0  0
  141.5570   70.6570  219.4000 N   0  0  0  0  0  0  0  0  0  0  0  0
  141.4740   70.9140  218.3900 H   0  0  0  0  0  0  0  0  0  0  0  0
  142.1100   69.3340  219.7150 C   0  0  0  0  0  0  0  0  0  0  0  0
  141.8702   69.0843  220.7591 H   0  0  0  0  0  0  0  0  0  0  0  0
  141.6658   68.5985  219.0282 H   0  0  0  0  0  0  0  0  0  0  0  0
  143.6350   69.3110  219.5320 C   0  0  0  0  0  0  0  0  0  0  0  0
  144.0795   70.1353  220.1090 H   0  0  0  0  0  0  0  0  0  0  0  0
  144.0172   68.3430  219.8881 H   0  0  0  0  0  0  0  0  0  0  0  0
  144.0120   69.4730  218.0510 C   0  0  0  0  0  0  0  0  0  0  0  0
  144.4996   68.5484  217.7084 H   0  0  0  0  0  0  0  0  0  0  0  0
  143.0865   69.6749  217.4918 H   0  0  0  0  0  0  0  0  0  0  0  0
  144.9680   70.6520  217.8100 C   0  0  0  0  0  0  0  0  0  0  0  0
  145.8019   70.3050  217.1821 H   0  0  0  0  0  0  0  0  0  0  0  0
  144.3908   71.4499  217.3199 H   0  0  0  0  0  0  0  0  0  0  0  0
  145.5430   71.2320  219.1120 C   0  0  0  0  0  0  0  0  0  0  0  0
  144.8523   71.0179  219.9409 H   0  0  0  0  0  0  0  0  0  0  0  0
  146.5216   70.7697  219.3084 H   0  0  0  0  0  0  0  0  0  0  0  0
  145.7180   72.6960  218.9880 N   0  0  0  0  0  0  0  0  0  0  0  0
  146.3450   73.2720  220.1900 C   0  0  0  0  0  0  0  0  0  0  0  0
  146.9460   72.5048  220.7001 H   0  0  0  0  0  0  0  0  0  0  0  0
  147.0037   74.1076  219.9108 H   0  0  0  0  0  0  0  0  0  0  0  0
  145.2390   73.7620  221.1180 C   0  0  0  0  0  0  0  0  0  0  0  0
  145.1476   73.0985  221.9906 H   0  0  0  0  0  0  0  0  0  0  0  0
  145.4471   74.7714  221.5025 H   0  0  0  0  0  0  0  0  0  0  0  0
  143.9690   73.7270  220.2910 C   0  0  0  0  0  0  0  0  0  0  0  0
  143.2803   72.9591  220.6732 H   0  0  0  0  0  0  0  0  0  0  0  0
  143.4271   74.6836  220.3270 H   0  0  0  0  0  0  0  0  0  0  0  0
  144.4230   73.3830  218.8840 C   0  0  0  0  0  0  0  0  0  0  0  0
  143.6861   72.7227  218.4034 H   0  0  0  0  0  0  0  0  0  0  0  0
  144.5182   74.2948  218.2761 H   0  0  0  0  0  0  0  0  0  0  0  0
  141.1620   72.8190  220.0890 N   0  0  0  0  0  0  0  0  0  0  0  0
  140.6830   73.6970  221.0120 C   0  0  0  0  0  0  0  0  0  0  0  0
  140.7640   75.1200  220.7580 N   0  0  0  0  0  0  0  0  0  0  0  0
  140.9580   75.6290  219.3910 C   0  0  0  0  0  0  0  0  0  0  0  0
  141.2677   74.7985  218.7395 H   0  0  0  0  0  0  0  0  0  0  0  0
  140.0087   76.0621  219.0427 H   0  0  0  0  0  0  0  0  0  0  0  0
  142.0410   76.7300  219.3530 C   0  0  0  0  0  0  0  0  0  0  0  0
  142.9968   76.2677  219.0654 H   0  0  0  0  0  0  0  0  0  0  0  0
  141.7067   77.4862  218.6274 H   0  0  0  0  0  0  0  0  0  0  0  0
  142.2270   77.4220  220.6450 N   0  0  0  0  0  0  0  0  0  0  0  0
  142.5760   78.3930  220.4650 H   0  0  0  0  0  0  0  0  0  0  0  0
  142.9560   76.9200  221.2070 H   0  0  0  0  0  0  0  0  0  0  0  0
  140.9840   77.4980  221.4220 C   0  0  0  0  0  0  0  0  0  0  0  0
  141.1531   78.1087  222.3212 H   0  0  0  0  0  0  0  0  0  0  0  0
  140.1983   77.9556  220.8028 H   0  0  0  0  0  0  0  0  0  0  0  0
  140.5400   76.0900  221.8400 C   0  0  0  0  0  0  0  0  0  0  0  0
  141.1153   75.7800  222.7249 H   0  0  0  0  0  0  0  0  0  0  0  0
  139.4641   76.1166  222.0674 H   0  0  0  0  0  0  0  0  0  0  0  0
  140.1420   73.2150  222.1710 N   0  0  0  0  0  0  0  0  0  0  0  0
  139.7760   73.8700  222.8930 H   0  0  0  0  0  0  0  0  0  0  0  0
  138.2170   70.6690  223.5910 C   0  0  0  0  0  0  0  0  0  0  0  0
  138.2142   69.9467  222.7614 H   0  0  0  0  0  0  0  0  0  0  0  0
  137.4493   71.4463  223.4629 H   0  0  0  0  0  0  0  0  0  0  0  0
  137.8960   69.9170  224.8970 C   0  0  0  0  0  0  0  0  0  0  0  0
  137.1507   69.1358  224.6866 H   0  0  0  0  0  0  0  0  0  0  0  0
  137.5058   70.6412  225.6273 H   0  0  0  0  0  0  0  0  0  0  0  0
  1  2  1  0
  2  3  2  0
  3  4  1  0
  3  5  1  0
  5  6  1  0
  5  7  2  0
  7  8  1  0
  8  9  2  0
  9 10  1  0
  8 11  1  0
 11 12  1  0
 11 13  1  0
 11 14  1  0
 14 15  1  0
 15 16  2  0
 16 17  1  0
 17 18  2  0
 18 19  1  0
 18 20  1  0
 20 21  1  0
 20 22  1  0
 20 23  1  0
 23 24  1  0
 23 25  1  0
 23 26  1  0
 26 27  1  0
 26 28  1  0
 26 29  1  0
 29 30  1  0
 29 31  1  0
 29 32  1  0
 32 33  1  0
 32 34  1  0
 32 35  1  0
 35 36  1  0
 36 37  1  0
 36 38  1  0
 36 39  1  0
 39 40  1  0
 39 41  1  0
 39 42  1  0
 42 43  1  0
 42 44  1  0
 42 45  1  0
 45 46  1  0
 45 47  1  0
 17 48  1  0
 48 49  2  0
 49 50  1  0
 50 51  1  0
 51 52  1  0
 51 53  1  0
 51 54  1  0
 54 55  1  0
 54 56  1  0
 54 57  1  0
 57 58  1  0
 57 59  1  0
 57 60  1  0
 60 61  1  0
 60 62  1  0
 60 63  1  0
 63 64  1  0
 63 65  1  0
 49 66  1  0
 66 67  1  0
 14 68  1  0
 68 69  1  0
 68 70  1  0
 68 71  1  0
 71 72  1  0
 71 73  1  0
  9  2  1  0
 66 15  1  0
 71  7  1  0
 45 35  1  0
 63 50  1  0
M  CHG  2  18   1  57   1
M  END
>  <UniqueID>  (32) 
481

>  <SMILES>  (32) 
c1ccc2c(c1)CCN(c1n/c(=[NH+]/CCCCCN3CCCC3)nc(N3CC[NH2+]CC3)[nH]1)C2

>  <Energy>  (32) 
79.9890088026592

>  <Genealogy>  (32) 
c1ccc2c(c1)CCN(c1nc([NH2+]CCCCCN3CCCC3)nc(N3CC[NH2+]CC3)n1)C2 (protonated)
c1ccc2c(c1)CCN(c1nc(=[NH+]CCCCCN3CCCC3)nc(N3CC[NH2+]CC3)[nH]1)C2 (tautomer)
c1ccc2c(c1)CCN(c1n/c(=[NH+]/CCCCCN3CCCC3)nc(N3CC[NH2+]CC3)[nH]1)C2 (cis-trans isomerization)
c1ccc2c(c1)CCN(c1n/c(=[NH+]/CCCCCN3CCCC3)nc(N3CC[NH2+]CC3)[nH]1)C2 (3D coordinates assigned)
c1ccc2c(c1)CCN(c1n/c(=[NH+]/CCCCCN3CCCC3)nc(N3CC[NH2+]CC3)[nH]1)C2 (nonaromatic ring conformer: 79.9890088026592 kcal/mol)

>  <smiles>  (32) 
c1ccc2c(c1)CCN(c1nc(NCCCCCN3CCCC3)nc(N3CCNCC3)n1)C2

>  <score_type>  (32) 
oracle

>  <origin>  (32) 
autodockgpu

>  <m_score__min__energy>  (32) 
-9.7300000000000004

>  <m_primary>  (32) 
energy

>  <meeko>  (32) 
{"free_energy": -8.06, "intermolecular_energy": -10.75, "internal_energy": -1.17, "cluster_size": 1, "cluster_id": 4, "rank_in_cluster": 1}

>  <energy>  (32) 
-8.06

>  <cluster_rmsd>  (32) 
0.0

>  <rmsd>  (32) 
270.75

>  <cluster>  (32) 
4

$$$$
MTUVCRSRZGPGQU-NMOKVYIGNA-P
     RDKit          3D

 73 77  0  0  0  0  0  0  0  0999 V2000
  145.2064   73.2554  221.8233 H   0  0  0  0  0  0  0  0  0  0  0  0
  144.8830   73.5970  220.8290 C   0  0  0  0  0  0  0  0  0  0  0  0
  145.5410   73.1360  219.6850 C   0  0  0  0  0  0  0  0  0  0  0  0
  146.3811   72.4324  219.7814 H   0  0  0  0  0  0  0  0  0  0  0  0
  145.1340   73.5670  218.4180 C   0  0  0  0  0  0  0  0  0  0  0  0
  145.6456   73.1927  217.5190 H   0  0  0  0  0  0  0  0  0  0  0  0
  144.0730   74.4770  218.2940 C   0  0  0  0  0  0  0  0  0  0  0  0
  143.4110   74.9360  219.4440 C   0  0  0  0  0  0  0  0  0  0  0  0
  143.8150   74.4910  220.7120 C   0  0  0  0  0  0  0  0  0  0  0  0
  143.2920   74.8452  221.6125 H   0  0  0  0  0  0  0  0  0  0  0  0
  142.2580   75.8790  219.2700 C   0  0  0  0  0  0  0  0  0  0  0  0
  142.0706   76.4081  220.2160 H   0  0  0  0  0  0  0  0  0  0  0  0
  141.3597   75.3123  218.9837 H   0  0  0  0  0  0  0  0  0  0  0  0
  142.5800   76.8560  218.2160 N   0  0  0  0  0  0  0  0  0  0  0  0
  142.4140   78.2650  218.4740 C   0  0  0  0  0  0  0  0  0  0  0  0
  141.9040   78.6720  219.6630 N   0  0  0  0  0  0  0  0  0  0  0  0
  141.7220   79.9900  219.9300 C   0  0  0  0  0  0  0  0  0  0  0  0
  141.2260   80.3780  221.0730 N   0  0  0  0  0  0  0  0  0  0  0  0
  140.4370   79.8350  221.4930 H   0  0  0  0  0  0  0  0  0  0  0  0
  141.6540   81.5960  221.7710 C   0  0  0  0  0  0  0  0  0  0  0  0
  142.5185   82.0263  221.2442 H   0  0  0  0  0  0  0  0  0  0  0  0
  140.8132   82.3051  221.7809 H   0  0  0  0  0  0  0  0  0  0  0  0
  142.0520   81.2940  223.2230 C   0  0  0  0  0  0  0  0  0  0  0  0
  142.8527   81.9839  223.5279 H   0  0  0  0  0  0  0  0  0  0  0  0
  141.1677   81.4243  223.8642 H   0  0  0  0  0  0  0  0  0  0  0  0
  142.5530   79.8470  223.3650 C   0  0  0  0  0  0  0  0  0  0  0  0
  142.8627   79.4826  222.3744 H   0  0  0  0  0  0  0  0  0  0  0  0
  143.3926   79.8532  224.0756 H   0  0  0  0  0  0  0  0  0  0  0  0
  141.4780   78.9020  223.9230 C   0  0  0  0  0  0  0  0  0  0  0  0
  141.8081   78.5371  224.9068 H   0  0  0  0  0  0  0  0  0  0  0  0
  140.5403   79.4729  223.9912 H   0  0  0  0  0  0  0  0  0  0  0  0
  141.2150   77.6910  223.0140 C   0  0  0  0  0  0  0  0  0  0  0  0
  142.1399   77.4323  222.4777 H   0  0  0  0  0  0  0  0  0  0  0  0
  140.8887   76.8429  223.6338 H   0  0  0  0  0  0  0  0  0  0  0  0
  140.1530   78.0060  222.0320 N   0  0  0  0  0  0  0  0  0  0  0  0
  138.8670   78.2860  222.6940 C   0  0  0  0  0  0  0  0  0  0  0  0
  139.0460   78.6457  223.7180 H   0  0  0  0  0  0  0  0  0  0  0  0
  138.3156   79.0603  222.1404 H   0  0  0  0  0  0  0  0  0  0  0  0
  138.0600   76.9930  222.7350 C   0  0  0  0  0  0  0  0  0  0  0  0
  138.0264   76.5935  223.7593 H   0  0  0  0  0  0  0  0  0  0  0  0
  137.0188   77.1524  222.4181 H   0  0  0  0  0  0  0  0  0  0  0  0
  138.7860   76.0310  221.8150 C   0  0  0  0  0  0  0  0  0  0  0  0
  139.2247   75.2028  222.3908 H   0  0  0  0  0  0  0  0  0  0  0  0
  138.1093   75.5782  221.0754 H   0  0  0  0  0  0  0  0  0  0  0  0
  139.8760   76.8590  221.1570 C   0  0  0  0  0  0  0  0  0  0  0  0
  140.7855   76.2524  221.0348 H   0  0  0  0  0  0  0  0  0  0  0  0
  139.5535   77.2012  220.1626 H   0  0  0  0  0  0  0  0  0  0  0  0
  142.0640   80.9090  218.9930 N   0  0  0  0  0  0  0  0  0  0  0  0
  142.5910   80.5280  217.7980 C   0  0  0  0  0  0  0  0  0  0  0  0
  142.9450   81.5320  216.8170 N   0  0  0  0  0  0  0  0  0  0  0  0
  142.1530   81.6940  215.5880 C   0  0  0  0  0  0  0  0  0  0  0  0
  141.4972   80.8193  215.4663 H   0  0  0  0  0  0  0  0  0  0  0  0
  141.5594   82.6158  215.6762 H   0  0  0  0  0  0  0  0  0  0  0  0
  143.0630   81.8170  214.3470 C   0  0  0  0  0  0  0  0  0  0  0  0
  143.1497   80.8251  213.8795 H   0  0  0  0  0  0  0  0  0  0  0  0
  142.5978   82.5555  213.6774 H   0  0  0  0  0  0  0  0  0  0  0  0
  144.4220   82.3080  214.6570 N   0  0  0  0  0  0  0  0  0  0  0  0
  144.8050   82.8020  213.8160 H   0  0  0  0  0  0  0  0  0  0  0  0
  145.0490   81.4940  214.8630 H   0  0  0  0  0  0  0  0  0  0  0  0
  144.4350   83.2310  215.7990 C   0  0  0  0  0  0  0  0  0  0  0  0
  145.4467   83.6451  215.9216 H   0  0  0  0  0  0  0  0  0  0  0  0
  143.7193   84.0456  215.6140 H   0  0  0  0  0  0  0  0  0  0  0  0
  144.0320   82.4860  217.0780 C   0  0  0  0  0  0  0  0  0  0  0  0
  144.9045   81.9389  217.4646 H   0  0  0  0  0  0  0  0  0  0  0  0
  143.6792   83.2233  217.8142 H   0  0  0  0  0  0  0  0  0  0  0  0
  142.7660   79.1970  217.5430 N   0  0  0  0  0  0  0  0  0  0  0  0
  143.1610   78.8830  216.6320 H   0  0  0  0  0  0  0  0  0  0  0  0
  143.2000   76.4160  216.9490 C   0  0  0  0  0  0  0  0  0  0  0  0
  144.1152   77.0036  216.7843 H   0  0  0  0  0  0  0  0  0  0  0  0
  142.4609   76.5732  216.1496 H   0  0  0  0  0  0  0  0  0  0  0  0
  143.5700   74.9200  216.9460 C   0  0  0  0  0  0  0  0  0  0  0  0
  144.3559   74.7470  216.1960 H   0  0  0  0  0  0  0  0  0  0  0  0
  142.6669   74.3400  216.7052 H   0  0  0  0  0  0  0  0  0  0  0  0
  1  2  1  0
  2  3  2  0
  3  4  1  0
  3  5  1  0
  5  6  1  0
  5  7  2  0
  7  8  1  0
  8  9  2  0
  9 10  1  0
  8 11  1  0
 11 12  1  0
 11 13  1  0
 11 14  1  0
 14 15  1  0
 15 16  2  0
 16 17  1  0
 17 18  2  0
 18 19  1  0
 18 20  1  0
 20 21  1  0
 20 22  1  0
 20 23  1  0
 23 24  1  0
 23 25  1  0
 23 26  1  0
 26 27  1  0
 26 28  1  0
 26 29  1  0
 29 30  1  0
 29 31  1  0
 29 32  1  0
 32 33  1  0
 32 34  1  0
 32 35  1  0
 35 36  1  0
 36 37  1  0
 36 38  1  0
 36 39  1  0
 39 40  1  0
 39 41  1  0
 39 42  1  0
 42 43  1  0
 42 44  1  0
 42 45  1  0
 45 46  1  0
 45 47  1  0
 17 48  1  0
 48 49  2  0
 49 50  1  0
 50 51  1  0
 51 52  1  0
 51 53  1  0
 51 54  1  0
 54 55  1  0
 54 56  1  0
 54 57  1  0
 57 58  1  0
 57 59  1  0
 57 60  1  0
 60 61  1  0
 60 62  1  0
 60 63  1  0
 63 64  1  0
 63 65  1  0
 49 66  1  0
 66 67  1  0
 14 68  1  0
 68 69  1  0
 68 70  1  0
 68 71  1  0
 71 72  1  0
 71 73  1  0
  9  2  1  0
 66 15  1  0
 71  7  1  0
 45 35  1  0
 63 50  1  0
M  CHG  2  18   1  57   1
M  END
>  <UniqueID>  (33) 
481

>  <SMILES>  (33) 
c1ccc2c(c1)CCN(c1n/c(=[NH+]/CCCCCN3CCCC3)nc(N3CC[NH2+]CC3)[nH]1)C2

>  <Energy>  (33) 
79.9890088026592

>  <Genealogy>  (33) 
c1ccc2c(c1)CCN(c1nc([NH2+]CCCCCN3CCCC3)nc(N3CC[NH2+]CC3)n1)C2 (protonated)
c1ccc2c(c1)CCN(c1nc(=[NH+]CCCCCN3CCCC3)nc(N3CC[NH2+]CC3)[nH]1)C2 (tautomer)
c1ccc2c(c1)CCN(c1n/c(=[NH+]/CCCCCN3CCCC3)nc(N3CC[NH2+]CC3)[nH]1)C2 (cis-trans isomerization)
c1ccc2c(c1)CCN(c1n/c(=[NH+]/CCCCCN3CCCC3)nc(N3CC[NH2+]CC3)[nH]1)C2 (3D coordinates assigned)
c1ccc2c(c1)CCN(c1n/c(=[NH+]/CCCCCN3CCCC3)nc(N3CC[NH2+]CC3)[nH]1)C2 (nonaromatic ring conformer: 79.9890088026592 kcal/mol)

>  <smiles>  (33) 
c1ccc2c(c1)CCN(c1nc(NCCCCCN3CCCC3)nc(N3CCNCC3)n1)C2

>  <score_type>  (33) 
oracle

>  <origin>  (33) 
autodockgpu

>  <m_score__min__energy>  (33) 
-9.7300000000000004

>  <m_primary>  (33) 
energy

>  <meeko>  (33) 
{"free_energy": -8.25, "intermolecular_energy": -10.93, "internal_energy": -2.0, "cluster_size": 8, "cluster_id": 3, "rank_in_cluster": 2}

>  <energy>  (33) 
-7.75

>  <cluster_rmsd>  (33) 
0.0

>  <rmsd>  (33) 
271.58

>  <cluster>  (33) 
5

$$$$
MTUVCRSRZGPGQU-NMOKVYIGNA-P
     RDKit          3D

 73 77  0  0  0  0  0  0  0  0999 V2000
  145.2113   73.2034  221.8561 H   0  0  0  0  0  0  0  0  0  0  0  0
  144.8820   73.5460  220.8640 C   0  0  0  0  0  0  0  0  0  0  0  0
  145.5240   73.0740  219.7140 C   0  0  0  0  0  0  0  0  0  0  0  0
  146.3575   72.3618  219.8038 H   0  0  0  0  0  0  0  0  0  0  0  0
  145.1080   73.5060  218.4500 C   0  0  0  0  0  0  0  0  0  0  0  0
  145.6053   73.1232  217.5466 H   0  0  0  0  0  0  0  0  0  0  0  0
  144.0570   74.4270  218.3350 C   0  0  0  0  0  0  0  0  0  0  0  0
  143.4110   74.8970  219.4900 C   0  0  0  0  0  0  0  0  0  0  0  0
  143.8230   74.4520  220.7550 C   0  0  0  0  0  0  0  0  0  0  0  0
  143.3136   74.8154  221.6597 H   0  0  0  0  0  0  0  0  0  0  0  0
  142.2670   75.8520  219.3250 C   0  0  0  0  0  0  0  0  0  0  0  0
  142.0952   76.3859  220.2713 H   0  0  0  0  0  0  0  0  0  0  0  0
  141.3597   75.2944  219.0497 H   0  0  0  0  0  0  0  0  0  0  0  0
  142.5890   76.8230  218.2640 N   0  0  0  0  0  0  0  0  0  0  0  0
  142.4420   78.2340  218.5200 C   0  0  0  0  0  0  0  0  0  0  0  0
  141.9690   78.6520  219.7210 N   0  0  0  0  0  0  0  0  0  0  0  0
  141.8040   79.9720  219.9860 C   0  0  0  0  0  0  0  0  0  0  0  0
  141.3430   80.3690  221.1400 N   0  0  0  0  0  0  0  0  0  0  0  0
  140.5420   79.8530  221.5700 H   0  0  0  0  0  0  0  0  0  0  0  0
  141.8290   81.5650  221.8390 C   0  0  0  0  0  0  0  0  0  0  0  0
  142.8818   81.7353  221.5696 H   0  0  0  0  0  0  0  0  0  0  0  0
  141.2084   82.4216  221.5372 H   0  0  0  0  0  0  0  0  0  0  0  0
  141.7220   81.3990  223.3620 C   0  0  0  0  0  0  0  0  0  0  0  0
  142.3259   82.1769  223.8522 H   0  0  0  0  0  0  0  0  0  0  0  0
  140.6650   81.4928  223.6519 H   0  0  0  0  0  0  0  0  0  0  0  0
  142.2300   80.0170  223.8010 C   0  0  0  0  0  0  0  0  0  0  0  0
  142.9367   79.6449  223.0447 H   0  0  0  0  0  0  0  0  0  0  0  0
  142.7116   80.1356  224.7828 H   0  0  0  0  0  0  0  0  0  0  0  0
  141.0950   78.9930  223.9600 C   0  0  0  0  0  0  0  0  0  0  0  0
  141.0674   78.6596  225.0079 H   0  0  0  0  0  0  0  0  0  0  0  0
  140.1591   79.4890  223.6633 H   0  0  0  0  0  0  0  0  0  0  0  0
  141.2700   77.7610  223.0580 C   0  0  0  0  0  0  0  0  0  0  0  0
  142.2863   77.7607  222.6371 H   0  0  0  0  0  0  0  0  0  0  0  0
  141.1105   76.8527  223.6576 H   0  0  0  0  0  0  0  0  0  0  0  0
  140.2840   77.7890  221.9540 N   0  0  0  0  0  0  0  0  0  0  0  0
  138.9600   78.2360  222.4180 C   0  0  0  0  0  0  0  0  0  0  0  0
  139.0724   78.8661  223.3126 H   0  0  0  0  0  0  0  0  0  0  0  0
  138.4616   78.8241  221.6334 H   0  0  0  0  0  0  0  0  0  0  0  0
  138.1310   77.0020  222.7570 C   0  0  0  0  0  0  0  0  0  0  0  0
  138.0203   76.9010  223.8468 H   0  0  0  0  0  0  0  0  0  0  0  0
  137.1168   77.0640  222.3356 H   0  0  0  0  0  0  0  0  0  0  0  0
  138.9030   75.8260  222.1920 C   0  0  0  0  0  0  0  0  0  0  0  0
  139.2861   75.1899  223.0036 H   0  0  0  0  0  0  0  0  0  0  0  0
  138.2720   75.1851  221.5587 H   0  0  0  0  0  0  0  0  0  0  0  0
  140.0500   76.4430  221.4120 C   0  0  0  0  0  0  0  0  0  0  0  0
  140.9555   75.8293  221.5284 H   0  0  0  0  0  0  0  0  0  0  0  0
  139.8042   76.4956  220.3411 H   0  0  0  0  0  0  0  0  0  0  0  0
  142.1280   80.8840  219.0350 N   0  0  0  0  0  0  0  0  0  0  0  0
  142.6180   80.4930  217.8280 C   0  0  0  0  0  0  0  0  0  0  0  0
  142.9530   81.4890  216.8330 N   0  0  0  0  0  0  0  0  0  0  0  0
  142.1620   81.6130  215.5980 C   0  0  0  0  0  0  0  0  0  0  0  0
  141.5270   80.7216  215.4880 H   0  0  0  0  0  0  0  0  0  0  0  0
  141.5468   82.5221  215.6690 H   0  0  0  0  0  0  0  0  0  0  0  0
  143.0750   81.7370  214.3580 C   0  0  0  0  0  0  0  0  0  0  0  0
  143.1871   80.7399  213.9073 H   0  0  0  0  0  0  0  0  0  0  0  0
  142.5957   82.4530  213.6742 H   0  0  0  0  0  0  0  0  0  0  0  0
  144.4210   82.2650  214.6660 N   0  0  0  0  0  0  0  0  0  0  0  0
  144.7960   82.7550  213.8190 H   0  0  0  0  0  0  0  0  0  0  0  0
  145.0660   81.4690  214.8870 H   0  0  0  0  0  0  0  0  0  0  0  0
  144.4070   83.2060  215.7930 C   0  0  0  0  0  0  0  0  0  0  0  0
  145.4079   83.6464  215.9128 H   0  0  0  0  0  0  0  0  0  0  0  0
  143.6726   84.0000  215.5924 H   0  0  0  0  0  0  0  0  0  0  0  0
  144.0170   82.4720  217.0820 C   0  0  0  0  0  0  0  0  0  0  0  0
  144.9006   81.9513  217.4797 H   0  0  0  0  0  0  0  0  0  0  0  0
  143.6447   83.2124  217.8053 H   0  0  0  0  0  0  0  0  0  0  0  0
  142.7750   79.1590  217.5750 N   0  0  0  0  0  0  0  0  0  0  0  0
  143.1430   78.8380  216.6550 H   0  0  0  0  0  0  0  0  0  0  0  0
  143.1920   76.3720  216.9930 C   0  0  0  0  0  0  0  0  0  0  0  0
  144.1123   76.9486  216.8181 H   0  0  0  0  0  0  0  0  0  0  0  0
  142.4469   76.5352  216.2004 H   0  0  0  0  0  0  0  0  0  0  0  0
  143.5450   74.8720  216.9900 C   0  0  0  0  0  0  0  0  0  0  0  0
  144.3211   74.6882  216.2325 H   0  0  0  0  0  0  0  0  0  0  0  0
  142.6332   74.3014  216.7597 H   0  0  0  0  0  0  0  0  0  0  0  0
  1  2  1  0
  2  3  2  0
  3  4  1  0
  3  5  1  0
  5  6  1  0
  5  7  2  0
  7  8  1  0
  8  9  2  0
  9 10  1  0
  8 11  1  0
 11 12  1  0
 11 13  1  0
 11 14  1  0
 14 15  1  0
 15 16  2  0
 16 17  1  0
 17 18  2  0
 18 19  1  0
 18 20  1  0
 20 21  1  0
 20 22  1  0
 20 23  1  0
 23 24  1  0
 23 25  1  0
 23 26  1  0
 26 27  1  0
 26 28  1  0
 26 29  1  0
 29 30  1  0
 29 31  1  0
 29 32  1  0
 32 33  1  0
 32 34  1  0
 32 35  1  0
 35 36  1  0
 36 37  1  0
 36 38  1  0
 36 39  1  0
 39 40  1  0
 39 41  1  0
 39 42  1  0
 42 43  1  0
 42 44  1  0
 42 45  1  0
 45 46  1  0
 45 47  1  0
 17 48  1  0
 48 49  2  0
 49 50  1  0
 50 51  1  0
 51 52  1  0
 51 53  1  0
 51 54  1  0
 54 55  1  0
 54 56  1  0
 54 57  1  0
 57 58  1  0
 57 59  1  0
 57 60  1  0
 60 61  1  0
 60 62  1  0
 60 63  1  0
 63 64  1  0
 63 65  1  0
 49 66  1  0
 66 67  1  0
 14 68  1  0
 68 69  1  0
 68 70  1  0
 68 71  1  0
 71 72  1  0
 71 73  1  0
  9  2  1  0
 66 15  1  0
 71  7  1  0
 45 35  1  0
 63 50  1  0
M  CHG  2  18   1  57   1
M  END
>  <UniqueID>  (34) 
481

>  <SMILES>  (34) 
c1ccc2c(c1)CCN(c1n/c(=[NH+]/CCCCCN3CCCC3)nc(N3CC[NH2+]CC3)[nH]1)C2

>  <Energy>  (34) 
79.9890088026592

>  <Genealogy>  (34) 
c1ccc2c(c1)CCN(c1nc([NH2+]CCCCCN3CCCC3)nc(N3CC[NH2+]CC3)n1)C2 (protonated)
c1ccc2c(c1)CCN(c1nc(=[NH+]CCCCCN3CCCC3)nc(N3CC[NH2+]CC3)[nH]1)C2 (tautomer)
c1ccc2c(c1)CCN(c1n/c(=[NH+]/CCCCCN3CCCC3)nc(N3CC[NH2+]CC3)[nH]1)C2 (cis-trans isomerization)
c1ccc2c(c1)CCN(c1n/c(=[NH+]/CCCCCN3CCCC3)nc(N3CC[NH2+]CC3)[nH]1)C2 (3D coordinates assigned)
c1ccc2c(c1)CCN(c1n/c(=[NH+]/CCCCCN3CCCC3)nc(N3CC[NH2+]CC3)[nH]1)C2 (nonaromatic ring conformer: 79.9890088026592 kcal/mol)

>  <smiles>  (34) 
c1ccc2c(c1)CCN(c1nc(NCCCCCN3CCCC3)nc(N3CCNCC3)n1)C2

>  <score_type>  (34) 
oracle

>  <origin>  (34) 
autodockgpu

>  <m_score__min__energy>  (34) 
-9.7300000000000004

>  <m_primary>  (34) 
energy

>  <meeko>  (34) 
{"free_energy": -8.21, "intermolecular_energy": -10.89, "internal_energy": -1.93, "cluster_size": 8, "cluster_id": 3, "rank_in_cluster": 4}

>  <energy>  (34) 
-7.55

>  <cluster_rmsd>  (34) 
0.63

>  <rmsd>  (34) 
271.42

>  <cluster>  (34) 
5

$$$$
MTUVCRSRZGPGQU-NMOKVYIGNA-P
     RDKit          3D

 73 77  0  0  0  0  0  0  0  0999 V2000
  141.5854   69.6721  228.4521 H   0  0  0  0  0  0  0  0  0  0  0  0
  141.0850   69.5040  227.4870 C   0  0  0  0  0  0  0  0  0  0  0  0
  140.9210   68.2020  227.0040 C   0  0  0  0  0  0  0  0  0  0  0  0
  141.2928   67.3486  227.5900 H   0  0  0  0  0  0  0  0  0  0  0  0
  140.2850   67.9820  225.7770 C   0  0  0  0  0  0  0  0  0  0  0  0
  140.1451   66.9561  225.4056 H   0  0  0  0  0  0  0  0  0  0  0  0
  139.8260   69.0710  225.0210 C   0  0  0  0  0  0  0  0  0  0  0  0
  139.9880   70.3780  225.5100 C   0  0  0  0  0  0  0  0  0  0  0  0
  140.6150   70.5920  226.7470 C   0  0  0  0  0  0  0  0  0  0  0  0
  140.7363   71.6147  227.1335 H   0  0  0  0  0  0  0  0  0  0  0  0
  139.4510   71.5130  224.6910 C   0  0  0  0  0  0  0  0  0  0  0  0
  139.9358   72.4505  225.0009 H   0  0  0  0  0  0  0  0  0  0  0  0
  138.3648   71.5943  224.8442 H   0  0  0  0  0  0  0  0  0  0  0  0
  139.7290   71.2640  223.2660 N   0  0  0  0  0  0  0  0  0  0  0  0
  140.3600   72.2890  222.4720 C   0  0  0  0  0  0  0  0  0  0  0  0
  139.7570   73.4960  222.3340 N   0  0  0  0  0  0  0  0  0  0  0  0
  140.3180   74.4750  221.5820 C   0  0  0  0  0  0  0  0  0  0  0  0
  139.7310   75.6330  221.4460 N   0  0  0  0  0  0  0  0  0  0  0  0
  139.7800   76.1200  220.5210 H   0  0  0  0  0  0  0  0  0  0  0  0
  139.0740   76.3440  222.5490 C   0  0  0  0  0  0  0  0  0  0  0  0
  138.0661   75.9281  222.6941 H   0  0  0  0  0  0  0  0  0  0  0  0
  139.6813   76.2152  223.4571 H   0  0  0  0  0  0  0  0  0  0  0  0
  138.9580   77.8450  222.2510 C   0  0  0  0  0  0  0  0  0  0  0  0
  139.1214   78.0123  221.1762 H   0  0  0  0  0  0  0  0  0  0  0  0
  137.9539   78.1846  222.5449 H   0  0  0  0  0  0  0  0  0  0  0  0
  140.0000   78.6460  223.0490 C   0  0  0  0  0  0  0  0  0  0  0  0
  139.8497   79.7172  222.8493 H   0  0  0  0  0  0  0  0  0  0  0  0
  139.8593   78.4089  224.1139 H   0  0  0  0  0  0  0  0  0  0  0  0
  141.4430   78.2730  222.6750 C   0  0  0  0  0  0  0  0  0  0  0  0
  142.1292   78.8059  223.3496 H   0  0  0  0  0  0  0  0  0  0  0  0
  141.5376   77.1815  222.7731 H   0  0  0  0  0  0  0  0  0  0  0  0
  141.7990   78.6380  221.2250 C   0  0  0  0  0  0  0  0  0  0  0  0
  141.2636   79.5556  220.9398 H   0  0  0  0  0  0  0  0  0  0  0  0
  142.8849   78.7975  221.1523 H   0  0  0  0  0  0  0  0  0  0  0  0
  141.4110   77.5420  220.3100 N   0  0  0  0  0  0  0  0  0  0  0  0
  142.5860   76.8100  219.8090 C   0  0  0  0  0  0  0  0  0  0  0  0
  143.4163   76.9046  220.5244 H   0  0  0  0  0  0  0  0  0  0  0  0
  142.3454   75.7435  219.6879 H   0  0  0  0  0  0  0  0  0  0  0  0
  142.9890   77.4140  218.4680 C   0  0  0  0  0  0  0  0  0  0  0  0
  143.9154   77.9978  218.5726 H   0  0  0  0  0  0  0  0  0  0  0  0
  143.1820   76.6375  217.7131 H   0  0  0  0  0  0  0  0  0  0  0  0
  141.8380   78.3150  218.0650 C   0  0  0  0  0  0  0  0  0  0  0  0
  142.1492   79.3699  218.0812 H   0  0  0  0  0  0  0  0  0  0  0  0
  141.4877   78.1048  217.0437 H   0  0  0  0  0  0  0  0  0  0  0  0
  140.7570   78.0620  219.1010 C   0  0  0  0  0  0  0  0  0  0  0  0
  140.2329   79.0009  219.3328 H   0  0  0  0  0  0  0  0  0  0  0  0
  140.0196   77.3399  218.7205 H   0  0  0  0  0  0  0  0  0  0  0  0
  141.5040   74.2410  220.9670 N   0  0  0  0  0  0  0  0  0  0  0  0
  142.1380   73.0450  221.1010 C   0  0  0  0  0  0  0  0  0  0  0  0
  143.4030   72.8230  220.4330 N   0  0  0  0  0  0  0  0  0  0  0  0
  144.6720   72.9640  221.1630 C   0  0  0  0  0  0  0  0  0  0  0  0
  144.4818   73.4781  222.1167 H   0  0  0  0  0  0  0  0  0  0  0  0
  145.0856   71.9600  221.3386 H   0  0  0  0  0  0  0  0  0  0  0  0
  145.7000   73.7800  220.3470 C   0  0  0  0  0  0  0  0  0  0  0  0
  145.6610   74.8261  220.6849 H   0  0  0  0  0  0  0  0  0  0  0  0
  146.6853   73.3220  220.5184 H   0  0  0  0  0  0  0  0  0  0  0  0
  145.4550   73.7500  218.8900 N   0  0  0  0  0  0  0  0  0  0  0  0
  146.3660   73.8850  218.3890 H   0  0  0  0  0  0  0  0  0  0  0  0
  144.8250   74.5450  218.6260 H   0  0  0  0  0  0  0  0  0  0  0  0
  144.8510   72.4860  218.4510 C   0  0  0  0  0  0  0  0  0  0  0  0
  144.7863   72.4752  217.3530 H   0  0  0  0  0  0  0  0  0  0  0  0
  145.4751   71.6486  218.7963 H   0  0  0  0  0  0  0  0  0  0  0  0
  143.4440   72.3430  219.0440 C   0  0  0  0  0  0  0  0  0  0  0  0
  142.7381   72.9316  218.4397 H   0  0  0  0  0  0  0  0  0  0  0  0
  143.1677   71.2783  219.0343 H   0  0  0  0  0  0  0  0  0  0  0  0
  141.5580   72.0670  221.8600 N   0  0  0  0  0  0  0  0  0  0  0  0
  142.0240   71.1410  221.9710 H   0  0  0  0  0  0  0  0  0  0  0  0
  139.4950   69.9290  222.6790 C   0  0  0  0  0  0  0  0  0  0  0  0
  140.4207   69.5958  222.1870 H   0  0  0  0  0  0  0  0  0  0  0  0
  138.6618   70.0252  221.9672 H   0  0  0  0  0  0  0  0  0  0  0  0
  139.0870   68.8720  223.7240 C   0  0  0  0  0  0  0  0  0  0  0  0
  139.3176   67.8711  223.3302 H   0  0  0  0  0  0  0  0  0  0  0  0
  138.0093   68.9747  223.9192 H   0  0  0  0  0  0  0  0  0  0  0  0
  1  2  1  0
  2  3  2  0
  3  4  1  0
  3  5  1  0
  5  6  1  0
  5  7  2  0
  7  8  1  0
  8  9  2  0
  9 10  1  0
  8 11  1  0
 11 12  1  0
 11 13  1  0
 11 14  1  0
 14 15  1  0
 15 16  2  0
 16 17  1  0
 17 18  2  0
 18 19  1  0
 18 20  1  0
 20 21  1  0
 20 22  1  0
 20 23  1  0
 23 24  1  0
 23 25  1  0
 23 26  1  0
 26 27  1  0
 26 28  1  0
 26 29  1  0
 29 30  1  0
 29 31  1  0
 29 32  1  0
 32 33  1  0
 32 34  1  0
 32 35  1  0
 35 36  1  0
 36 37  1  0
 36 38  1  0
 36 39  1  0
 39 40  1  0
 39 41  1  0
 39 42  1  0
 42 43  1  0
 42 44  1  0
 42 45  1  0
 45 46  1  0
 45 47  1  0
 17 48  1  0
 48 49  2  0
 49 50  1  0
 50 51  1  0
 51 52  1  0
 51 53  1  0
 51 54  1  0
 54 55  1  0
 54 56  1  0
 54 57  1  0
 57 58  1  0
 57 59  1  0
 57 60  1  0
 60 61  1  0
 60 62  1  0
 60 63  1  0
 63 64  1  0
 63 65  1  0
 49 66  1  0
 66 67  1  0
 14 68  1  0
 68 69  1  0
 68 70  1  0
 68 71  1  0
 71 72  1  0
 71 73  1  0
  9  2  1  0
 66 15  1  0
 71  7  1  0
 45 35  1  0
 63 50  1  0
M  CHG  2  18   1  57   1
M  END
>  <UniqueID>  (35) 
481

>  <SMILES>  (35) 
c1ccc2c(c1)CCN(c1n/c(=[NH+]/CCCCCN3CCCC3)nc(N3CC[NH2+]CC3)[nH]1)C2

>  <Energy>  (35) 
79.9890088026592

>  <Genealogy>  (35) 
c1ccc2c(c1)CCN(c1nc([NH2+]CCCCCN3CCCC3)nc(N3CC[NH2+]CC3)n1)C2 (protonated)
c1ccc2c(c1)CCN(c1nc(=[NH+]CCCCCN3CCCC3)nc(N3CC[NH2+]CC3)[nH]1)C2 (tautomer)
c1ccc2c(c1)CCN(c1n/c(=[NH+]/CCCCCN3CCCC3)nc(N3CC[NH2+]CC3)[nH]1)C2 (cis-trans isomerization)
c1ccc2c(c1)CCN(c1n/c(=[NH+]/CCCCCN3CCCC3)nc(N3CC[NH2+]CC3)[nH]1)C2 (3D coordinates assigned)
c1ccc2c(c1)CCN(c1n/c(=[NH+]/CCCCCN3CCCC3)nc(N3CC[NH2+]CC3)[nH]1)C2 (nonaromatic ring conformer: 79.9890088026592 kcal/mol)

>  <smiles>  (35) 
c1ccc2c(c1)CCN(c1nc(NCCCCCN3CCCC3)nc(N3CCNCC3)n1)C2

>  <score_type>  (35) 
oracle

>  <origin>  (35) 
autodockgpu

>  <m_score__min__energy>  (35) 
-9.7300000000000004

>  <m_primary>  (35) 
energy

>  <meeko>  (35) 
{"free_energy": -7.32, "intermolecular_energy": -10.0, "internal_energy": -1.72, "cluster_size": 4, "cluster_id": 5, "rank_in_cluster": 3}

>  <energy>  (35) 
-7.32

>  <cluster_rmsd>  (35) 
1.37

>  <rmsd>  (35) 
271.21

>  <cluster>  (35) 
5

$$$$
MTUVCRSRZGPGQU-NMOKVYIGNA-P
     RDKit          3D

 73 77  0  0  0  0  0  0  0  0999 V2000
  141.5394   69.7615  228.4548 H   0  0  0  0  0  0  0  0  0  0  0  0
  141.0530   69.5700  227.4870 C   0  0  0  0  0  0  0  0  0  0  0  0
  140.9230   68.2580  227.0180 C   0  0  0  0  0  0  0  0  0  0  0  0
  141.3090   67.4203  227.6174 H   0  0  0  0  0  0  0  0  0  0  0  0
  140.3030   68.0090  225.7880 C   0  0  0  0  0  0  0  0  0  0  0  0
  140.1892   66.9758  225.4280 H   0  0  0  0  0  0  0  0  0  0  0  0
  139.8270   69.0780  225.0150 C   0  0  0  0  0  0  0  0  0  0  0  0
  139.9550   70.3940  225.4880 C   0  0  0  0  0  0  0  0  0  0  0  0
  140.5660   70.6370  226.7280 C   0  0  0  0  0  0  0  0  0  0  0  0
  140.6613   71.6671  227.1020 H   0  0  0  0  0  0  0  0  0  0  0  0
  139.4010   71.5070  224.6510 C   0  0  0  0  0  0  0  0  0  0  0  0
  139.8625   72.4585  224.9536 H   0  0  0  0  0  0  0  0  0  0  0  0
  138.3119   71.5671  224.7937 H   0  0  0  0  0  0  0  0  0  0  0  0
  139.6980   71.2460  223.2310 N   0  0  0  0  0  0  0  0  0  0  0  0
  140.3130   72.2750  222.4300 C   0  0  0  0  0  0  0  0  0  0  0  0
  139.7290   73.4970  222.3450 N   0  0  0  0  0  0  0  0  0  0  0  0
  140.2750   74.4800  221.5880 C   0  0  0  0  0  0  0  0  0  0  0  0
  139.7080   75.6520  221.5030 N   0  0  0  0  0  0  0  0  0  0  0  0
  139.7090   76.1500  220.5830 H   0  0  0  0  0  0  0  0  0  0  0  0
  139.1360   76.3620  222.6530 C   0  0  0  0  0  0  0  0  0  0  0  0
  138.0387   76.3097  222.5972 H   0  0  0  0  0  0  0  0  0  0  0  0
  139.5011   75.8839  223.5739 H   0  0  0  0  0  0  0  0  0  0  0  0
  139.5670   77.8360  222.6670 C   0  0  0  0  0  0  0  0  0  0  0  0
  139.0630   78.3665  221.8457 H   0  0  0  0  0  0  0  0  0  0  0  0
  139.2876   78.2748  223.6362 H   0  0  0  0  0  0  0  0  0  0  0  0
  141.0890   77.9640  222.4900 C   0  0  0  0  0  0  0  0  0  0  0  0
  141.5471   78.1167  223.4784 H   0  0  0  0  0  0  0  0  0  0  0  0
  141.4483   77.0391  222.0151 H   0  0  0  0  0  0  0  0  0  0  0  0
  141.4810   79.1380  221.5790 C   0  0  0  0  0  0  0  0  0  0  0  0
  140.7415   79.9425  221.7052 H   0  0  0  0  0  0  0  0  0  0  0  0
  142.4908   79.4610  221.8723 H   0  0  0  0  0  0  0  0  0  0  0  0
  141.5340   78.7490  220.0930 C   0  0  0  0  0  0  0  0  0  0  0  0
  140.6887   79.2152  219.5656 H   0  0  0  0  0  0  0  0  0  0  0  0
  142.4849   79.0995  219.6653 H   0  0  0  0  0  0  0  0  0  0  0  0
  141.4520   77.2790  219.9430 N   0  0  0  0  0  0  0  0  0  0  0  0
  142.7870   76.6660  219.8520 C   0  0  0  0  0  0  0  0  0  0  0  0
  143.5265   77.3085  220.3523 H   0  0  0  0  0  0  0  0  0  0  0  0
  142.7870   75.6815  220.3427 H   0  0  0  0  0  0  0  0  0  0  0  0
  143.1450   76.5190  218.3770 C   0  0  0  0  0  0  0  0  0  0  0  0
  143.9161   77.2507  218.0941 H   0  0  0  0  0  0  0  0  0  0  0  0
  143.5515   75.5215  218.1540 H   0  0  0  0  0  0  0  0  0  0  0  0
  141.8600   76.7840  217.6180 C   0  0  0  0  0  0  0  0  0  0  0  0
  141.9379   77.7170  217.0406 H   0  0  0  0  0  0  0  0  0  0  0  0
  141.6346   75.9842  216.8972 H   0  0  0  0  0  0  0  0  0  0  0  0
  140.7880   76.9060  218.6860 C   0  0  0  0  0  0  0  0  0  0  0  0
  140.0616   77.6814  218.4013 H   0  0  0  0  0  0  0  0  0  0  0  0
  140.2488   75.9542  218.8021 H   0  0  0  0  0  0  0  0  0  0  0  0
  141.4280   74.2360  220.9150 N   0  0  0  0  0  0  0  0  0  0  0  0
  142.0420   73.0250  220.9950 C   0  0  0  0  0  0  0  0  0  0  0  0
  143.2700   72.7930  220.2650 N   0  0  0  0  0  0  0  0  0  0  0  0
  144.5570   72.6950  220.9710 C   0  0  0  0  0  0  0  0  0  0  0  0
  144.4312   73.0666  221.9987 H   0  0  0  0  0  0  0  0  0  0  0  0
  144.8720   71.6411  220.9741 H   0  0  0  0  0  0  0  0  0  0  0  0
  145.6490   73.5280  220.2650 C   0  0  0  0  0  0  0  0  0  0  0  0
  145.7173   74.5061  220.7636 H   0  0  0  0  0  0  0  0  0  0  0  0
  146.5866   72.9570  220.3349 H   0  0  0  0  0  0  0  0  0  0  0  0
  145.3840   73.7530  218.8290 N   0  0  0  0  0  0  0  0  0  0  0  0
  146.2970   73.8790  218.3300 H   0  0  0  0  0  0  0  0  0  0  0  0
  144.8310   74.6360  218.7100 H   0  0  0  0  0  0  0  0  0  0  0  0
  144.6530   72.6380  218.2140 C   0  0  0  0  0  0  0  0  0  0  0  0
  144.5732   72.8083  217.1302 H   0  0  0  0  0  0  0  0  0  0  0  0
  145.1962   71.7008  218.4053 H   0  0  0  0  0  0  0  0  0  0  0  0
  143.2470   72.5370  218.8170 C   0  0  0  0  0  0  0  0  0  0  0  0
  142.5944   73.2778  218.3319 H   0  0  0  0  0  0  0  0  0  0  0  0
  142.8683   71.5180  218.6493 H   0  0  0  0  0  0  0  0  0  0  0  0
  141.4780   72.0430  221.7600 N   0  0  0  0  0  0  0  0  0  0  0  0
  141.9280   71.1060  221.8300 H   0  0  0  0  0  0  0  0  0  0  0  0
  139.5000   69.8990  222.6590 C   0  0  0  0  0  0  0  0  0  0  0  0
  140.4377   69.5807  222.1801 H   0  0  0  0  0  0  0  0  0  0  0  0
  138.6720   69.9672  221.9381 H   0  0  0  0  0  0  0  0  0  0  0  0
  139.1060   68.8470  223.7130 C   0  0  0  0  0  0  0  0  0  0  0  0
  139.3629   67.8468  223.3340 H   0  0  0  0  0  0  0  0  0  0  0  0
  138.0245   68.9285  223.8965 H   0  0  0  0  0  0  0  0  0  0  0  0
  1  2  1  0
  2  3  2  0
  3  4  1  0
  3  5  1  0
  5  6  1  0
  5  7  2  0
  7  8  1  0
  8  9  2  0
  9 10  1  0
  8 11  1  0
 11 12  1  0
 11 13  1  0
 11 14  1  0
 14 15  1  0
 15 16  2  0
 16 17  1  0
 17 18  2  0
 18 19  1  0
 18 20  1  0
 20 21  1  0
 20 22  1  0
 20 23  1  0
 23 24  1  0
 23 25  1  0
 23 26  1  0
 26 27  1  0
 26 28  1  0
 26 29  1  0
 29 30  1  0
 29 31  1  0
 29 32  1  0
 32 33  1  0
 32 34  1  0
 32 35  1  0
 35 36  1  0
 36 37  1  0
 36 38  1  0
 36 39  1  0
 39 40  1  0
 39 41  1  0
 39 42  1  0
 42 43  1  0
 42 44  1  0
 42 45  1  0
 45 46  1  0
 45 47  1  0
 17 48  1  0
 48 49  2  0
 49 50  1  0
 50 51  1  0
 51 52  1  0
 51 53  1  0
 51 54  1  0
 54 55  1  0
 54 56  1  0
 54 57  1  0
 57 58  1  0
 57 59  1  0
 57 60  1  0
 60 61  1  0
 60 62  1  0
 60 63  1  0
 63 64  1  0
 63 65  1  0
 49 66  1  0
 66 67  1  0
 14 68  1  0
 68 69  1  0
 68 70  1  0
 68 71  1  0
 71 72  1  0
 71 73  1  0
  9  2  1  0
 66 15  1  0
 71  7  1  0
 45 35  1  0
 63 50  1  0
M  CHG  2  18   1  57   1
M  END
>  <UniqueID>  (36) 
481

>  <SMILES>  (36) 
c1ccc2c(c1)CCN(c1n/c(=[NH+]/CCCCCN3CCCC3)nc(N3CC[NH2+]CC3)[nH]1)C2

>  <Energy>  (36) 
79.9890088026592

>  <Genealogy>  (36) 
c1ccc2c(c1)CCN(c1nc([NH2+]CCCCCN3CCCC3)nc(N3CC[NH2+]CC3)n1)C2 (protonated)
c1ccc2c(c1)CCN(c1nc(=[NH+]CCCCCN3CCCC3)nc(N3CC[NH2+]CC3)[nH]1)C2 (tautomer)
c1ccc2c(c1)CCN(c1n/c(=[NH+]/CCCCCN3CCCC3)nc(N3CC[NH2+]CC3)[nH]1)C2 (cis-trans isomerization)
c1ccc2c(c1)CCN(c1n/c(=[NH+]/CCCCCN3CCCC3)nc(N3CC[NH2+]CC3)[nH]1)C2 (3D coordinates assigned)
c1ccc2c(c1)CCN(c1n/c(=[NH+]/CCCCCN3CCCC3)nc(N3CC[NH2+]CC3)[nH]1)C2 (nonaromatic ring conformer: 79.9890088026592 kcal/mol)

>  <smiles>  (36) 
c1ccc2c(c1)CCN(c1nc(NCCCCCN3CCCC3)nc(N3CCNCC3)n1)C2

>  <score_type>  (36) 
oracle

>  <origin>  (36) 
autodockgpu

>  <m_score__min__energy>  (36) 
-9.7300000000000004

>  <m_primary>  (36) 
energy

>  <meeko>  (36) 
{"free_energy": -7.09, "intermolecular_energy": -9.78, "internal_energy": -1.94, "cluster_size": 4, "cluster_id": 5, "rank_in_cluster": 4}

>  <energy>  (36) 
-7.09

>  <cluster_rmsd>  (36) 
1.45

>  <rmsd>  (36) 
271.08

>  <cluster>  (36) 
5

$$$$
MTUVCRSRZGPGQU-NMOKVYIGNA-P
     RDKit          3D

 73 77  0  0  0  0  0  0  0  0999 V2000
  145.8292   73.2467  221.4068 H   0  0  0  0  0  0  0  0  0  0  0  0
  145.3370   73.5820  220.4820 C   0  0  0  0  0  0  0  0  0  0  0  0
  145.7900   73.1180  219.2430 C   0  0  0  0  0  0  0  0  0  0  0  0
  146.6376   72.4185  219.1952 H   0  0  0  0  0  0  0  0  0  0  0  0
  145.1670   73.5420  218.0640 C   0  0  0  0  0  0  0  0  0  0  0  0
  145.5169   73.1659  217.0913 H   0  0  0  0  0  0  0  0  0  0  0  0
  144.0970   74.4460  218.1220 C   0  0  0  0  0  0  0  0  0  0  0  0
  143.6410   74.9080  219.3670 C   0  0  0  0  0  0  0  0  0  0  0  0
  144.2600   74.4710  220.5480 C   0  0  0  0  0  0  0  0  0  0  0  0
  143.8985   74.8272  221.5239 H   0  0  0  0  0  0  0  0  0  0  0  0
  142.4710   75.8450  219.3920 C   0  0  0  0  0  0  0  0  0  0  0  0
  142.4482   76.3780  220.3540 H   0  0  0  0  0  0  0  0  0  0  0  0
  141.5396   75.2730  219.2685 H   0  0  0  0  0  0  0  0  0  0  0  0
  142.6000   76.8190  218.2930 N   0  0  0  0  0  0  0  0  0  0  0  0
  142.4750   78.2290  218.5710 C   0  0  0  0  0  0  0  0  0  0  0  0
  142.0580   78.6350  219.7960 N   0  0  0  0  0  0  0  0  0  0  0  0
  141.9150   79.9530  220.0830 C   0  0  0  0  0  0  0  0  0  0  0  0
  141.5090   80.3410  221.2610 N   0  0  0  0  0  0  0  0  0  0  0  0
  140.5980   80.8500  221.3390 H   0  0  0  0  0  0  0  0  0  0  0  0
  142.3010   80.1820  222.4850 C   0  0  0  0  0  0  0  0  0  0  0  0
  143.3464   79.9760  222.2115 H   0  0  0  0  0  0  0  0  0  0  0  0
  142.2283   81.1110  223.0696 H   0  0  0  0  0  0  0  0  0  0  0  0
  141.7710   79.0250  223.3440 C   0  0  0  0  0  0  0  0  0  0  0  0
  142.5985   78.3369  223.5715 H   0  0  0  0  0  0  0  0  0  0  0  0
  141.3504   79.4402  224.2718 H   0  0  0  0  0  0  0  0  0  0  0  0
  140.6650   78.2550  222.6050 C   0  0  0  0  0  0  0  0  0  0  0  0
  139.7466   78.2908  223.2094 H   0  0  0  0  0  0  0  0  0  0  0  0
  140.5241   78.7332  221.6244 H   0  0  0  0  0  0  0  0  0  0  0  0
  141.0340   76.7840  222.3570 C   0  0  0  0  0  0  0  0  0  0  0  0
  141.9106   76.7493  221.6934 H   0  0  0  0  0  0  0  0  0  0  0  0
  141.2424   76.3269  223.3356 H   0  0  0  0  0  0  0  0  0  0  0  0
  139.8950   75.9820  221.7070 C   0  0  0  0  0  0  0  0  0  0  0  0
  138.9298   76.4249  221.9937 H   0  0  0  0  0  0  0  0  0  0  0  0
  140.0140   76.0130  220.6139 H   0  0  0  0  0  0  0  0  0  0  0  0
  139.9380   74.5730  222.1560 N   0  0  0  0  0  0  0  0  0  0  0  0
  141.0940   73.8570  221.5910 C   0  0  0  0  0  0  0  0  0  0  0  0
  141.8953   74.5724  221.3541 H   0  0  0  0  0  0  0  0  0  0  0  0
  141.4786   73.1250  222.3165 H   0  0  0  0  0  0  0  0  0  0  0  0
  140.6420   73.1490  220.3190 C   0  0  0  0  0  0  0  0  0  0  0  0
  141.0483   73.6568  219.4318 H   0  0  0  0  0  0  0  0  0  0  0  0
  140.9966   72.1083  220.2843 H   0  0  0  0  0  0  0  0  0  0  0  0
  139.1280   73.2260  220.3260 C   0  0  0  0  0  0  0  0  0  0  0  0
  138.7703   73.8716  219.5104 H   0  0  0  0  0  0  0  0  0  0  0  0
  138.6643   72.2400  220.1749 H   0  0  0  0  0  0  0  0  0  0  0  0
  138.7690   73.8230  221.6750 C   0  0  0  0  0  0  0  0  0  0  0  0
  137.9078   74.4990  221.5685 H   0  0  0  0  0  0  0  0  0  0  0  0
  138.4993   73.0301  222.3882 H   0  0  0  0  0  0  0  0  0  0  0  0
  142.2030   80.8740  219.1290 N   0  0  0  0  0  0  0  0  0  0  0  0
  142.6370   80.4930  217.8970 C   0  0  0  0  0  0  0  0  0  0  0  0
  142.9350   81.4990  216.8990 N   0  0  0  0  0  0  0  0  0  0  0  0
  142.0630   81.6740  215.7270 C   0  0  0  0  0  0  0  0  0  0  0  0
  141.3920   80.8061  215.6464 H   0  0  0  0  0  0  0  0  0  0  0  0
  141.4851   82.6007  215.8585 H   0  0  0  0  0  0  0  0  0  0  0  0
  142.8900   81.7940  214.4270 C   0  0  0  0  0  0  0  0  0  0  0  0
  142.9359   80.8034  213.9511 H   0  0  0  0  0  0  0  0  0  0  0  0
  142.3883   82.5393  213.7924 H   0  0  0  0  0  0  0  0  0  0  0  0
  144.2710   82.2710  214.6480 N   0  0  0  0  0  0  0  0  0  0  0  0
  144.6030   82.7650  213.7850 H   0  0  0  0  0  0  0  0  0  0  0  0
  144.9030   81.4500  214.8080 H   0  0  0  0  0  0  0  0  0  0  0  0
  144.3700   83.1870  215.7900 C   0  0  0  0  0  0  0  0  0  0  0  0
  145.3918   83.5906  215.8458 H   0  0  0  0  0  0  0  0  0  0  0  0
  143.6511   84.0089  215.6571 H   0  0  0  0  0  0  0  0  0  0  0  0
  144.0470   82.4410  217.0900 C   0  0  0  0  0  0  0  0  0  0  0  0
  144.9379   81.8836  217.4148 H   0  0  0  0  0  0  0  0  0  0  0  0
  143.7525   83.1784  217.8513 H   0  0  0  0  0  0  0  0  0  0  0  0
  142.7730   79.1610  217.6220 N   0  0  0  0  0  0  0  0  0  0  0  0
  143.0970   78.8480  216.6830 H   0  0  0  0  0  0  0  0  0  0  0  0
  142.9950   76.3750  216.9410 C   0  0  0  0  0  0  0  0  0  0  0  0
  143.8656   76.9654  216.6192 H   0  0  0  0  0  0  0  0  0  0  0  0
  142.1282   76.5250  216.2806 H   0  0  0  0  0  0  0  0  0  0  0  0
  143.3660   74.8810  216.8790 C   0  0  0  0  0  0  0  0  0  0  0  0
  144.0112   74.7081  216.0050 H   0  0  0  0  0  0  0  0  0  0  0  0
  142.4378   74.2960  216.7997 H   0  0  0  0  0  0  0  0  0  0  0  0
  1  2  1  0
  2  3  2  0
  3  4  1  0
  3  5  1  0
  5  6  1  0
  5  7  2  0
  7  8  1  0
  8  9  2  0
  9 10  1  0
  8 11  1  0
 11 12  1  0
 11 13  1  0
 11 14  1  0
 14 15  1  0
 15 16  2  0
 16 17  1  0
 17 18  2  0
 18 19  1  0
 18 20  1  0
 20 21  1  0
 20 22  1  0
 20 23  1  0
 23 24  1  0
 23 25  1  0
 23 26  1  0
 26 27  1  0
 26 28  1  0
 26 29  1  0
 29 30  1  0
 29 31  1  0
 29 32  1  0
 32 33  1  0
 32 34  1  0
 32 35  1  0
 35 36  1  0
 36 37  1  0
 36 38  1  0
 36 39  1  0
 39 40  1  0
 39 41  1  0
 39 42  1  0
 42 43  1  0
 42 44  1  0
 42 45  1  0
 45 46  1  0
 45 47  1  0
 17 48  1  0
 48 49  2  0
 49 50  1  0
 50 51  1  0
 51 52  1  0
 51 53  1  0
 51 54  1  0
 54 55  1  0
 54 56  1  0
 54 57  1  0
 57 58  1  0
 57 59  1  0
 57 60  1  0
 60 61  1  0
 60 62  1  0
 60 63  1  0
 63 64  1  0
 63 65  1  0
 49 66  1  0
 66 67  1  0
 14 68  1  0
 68 69  1  0
 68 70  1  0
 68 71  1  0
 71 72  1  0
 71 73  1  0
  9  2  1  0
 66 15  1  0
 71  7  1  0
 45 35  1  0
 63 50  1  0
M  CHG  2  18   1  57   1
M  END
>  <UniqueID>  (37) 
481

>  <SMILES>  (37) 
c1ccc2c(c1)CCN(c1n/c(=[NH+]/CCCCCN3CCCC3)nc(N3CC[NH2+]CC3)[nH]1)C2

>  <Energy>  (37) 
79.9890088026592

>  <Genealogy>  (37) 
c1ccc2c(c1)CCN(c1nc([NH2+]CCCCCN3CCCC3)nc(N3CC[NH2+]CC3)n1)C2 (protonated)
c1ccc2c(c1)CCN(c1nc(=[NH+]CCCCCN3CCCC3)nc(N3CC[NH2+]CC3)[nH]1)C2 (tautomer)
c1ccc2c(c1)CCN(c1n/c(=[NH+]/CCCCCN3CCCC3)nc(N3CC[NH2+]CC3)[nH]1)C2 (cis-trans isomerization)
c1ccc2c(c1)CCN(c1n/c(=[NH+]/CCCCCN3CCCC3)nc(N3CC[NH2+]CC3)[nH]1)C2 (3D coordinates assigned)
c1ccc2c(c1)CCN(c1n/c(=[NH+]/CCCCCN3CCCC3)nc(N3CC[NH2+]CC3)[nH]1)C2 (nonaromatic ring conformer: 79.9890088026592 kcal/mol)

>  <smiles>  (37) 
c1ccc2c(c1)CCN(c1nc(NCCCCCN3CCCC3)nc(N3CCNCC3)n1)C2

>  <score_type>  (37) 
oracle

>  <origin>  (37) 
autodockgpu

>  <m_score__min__energy>  (37) 
-9.7300000000000004

>  <m_primary>  (37) 
energy

>  <meeko>  (37) 
{"free_energy": -8.35, "intermolecular_energy": -11.03, "internal_energy": -1.39, "cluster_size": 8, "cluster_id": 3, "rank_in_cluster": 1}

>  <energy>  (37) 
-7.14

>  <cluster_rmsd>  (37) 
0.0

>  <rmsd>  (37) 
270.94

>  <cluster>  (37) 
6

$$$$
MTUVCRSRZGPGQU-NMOKVYIGNA-P
     RDKit          3D

 73 77  0  0  0  0  0  0  0  0999 V2000
  145.5146   72.9822  221.9159 H   0  0  0  0  0  0  0  0  0  0  0  0
  145.2000   73.3360  220.9230 C   0  0  0  0  0  0  0  0  0  0  0  0
  145.9010   72.9300  219.7830 C   0  0  0  0  0  0  0  0  0  0  0  0
  146.7666   72.2585  219.8818 H   0  0  0  0  0  0  0  0  0  0  0  0
  145.5050   73.3750  218.5180 C   0  0  0  0  0  0  0  0  0  0  0  0
  146.0499   73.0425  217.6222 H   0  0  0  0  0  0  0  0  0  0  0  0
  144.4120   74.2460  218.3920 C   0  0  0  0  0  0  0  0  0  0  0  0
  143.7070   74.6500  219.5370 C   0  0  0  0  0  0  0  0  0  0  0  0
  144.1010   74.1900  220.8030 C   0  0  0  0  0  0  0  0  0  0  0  0
  143.5451   74.5015  221.6996 H   0  0  0  0  0  0  0  0  0  0  0  0
  142.5210   75.5510  219.3600 C   0  0  0  0  0  0  0  0  0  0  0  0
  142.2926   76.0490  220.3139 H   0  0  0  0  0  0  0  0  0  0  0  0
  141.6520   74.9568  219.0408 H   0  0  0  0  0  0  0  0  0  0  0  0
  142.8270   76.5660  218.3360 N   0  0  0  0  0  0  0  0  0  0  0  0
  142.5990   77.9610  218.6240 C   0  0  0  0  0  0  0  0  0  0  0  0
  142.1680   78.3280  219.8570 N   0  0  0  0  0  0  0  0  0  0  0  0
  141.9300   79.6300  220.1530 C   0  0  0  0  0  0  0  0  0  0  0  0
  141.5090   79.9800  221.3380 N   0  0  0  0  0  0  0  0  0  0  0  0
  141.4750   80.9960  221.5830 H   0  0  0  0  0  0  0  0  0  0  0  0
  141.1590   79.0190  222.3910 C   0  0  0  0  0  0  0  0  0  0  0  0
  141.5134   78.0199  222.0974 H   0  0  0  0  0  0  0  0  0  0  0  0
  141.6369   79.3396  223.3285 H   0  0  0  0  0  0  0  0  0  0  0  0
  139.6400   78.9670  222.6120 C   0  0  0  0  0  0  0  0  0  0  0  0
  139.4142   79.2904  223.6389 H   0  0  0  0  0  0  0  0  0  0  0  0
  139.1559   79.6343  221.8838 H   0  0  0  0  0  0  0  0  0  0  0  0
  139.1040   77.5420  222.4040 C   0  0  0  0  0  0  0  0  0  0  0  0
  139.1582   77.0021  223.3609 H   0  0  0  0  0  0  0  0  0  0  0  0
  138.0683   77.6252  222.0430 H   0  0  0  0  0  0  0  0  0  0  0  0
  139.9020   76.7580  221.3510 C   0  0  0  0  0  0  0  0  0  0  0  0
  139.1954   76.3141  220.6342 H   0  0  0  0  0  0  0  0  0  0  0  0
  140.5894   77.4655  220.8643 H   0  0  0  0  0  0  0  0  0  0  0  0
  140.7540   75.6330  221.9600 C   0  0  0  0  0  0  0  0  0  0  0  0
  141.6342   75.4595  221.3235 H   0  0  0  0  0  0  0  0  0  0  0  0
  141.0716   75.9320  222.9698 H   0  0  0  0  0  0  0  0  0  0  0  0
  139.9660   74.3840  222.0540 N   0  0  0  0  0  0  0  0  0  0  0  0
  140.8230   73.1910  221.9530 C   0  0  0  0  0  0  0  0  0  0  0  0
  141.8433   73.4368  222.2826 H   0  0  0  0  0  0  0  0  0  0  0  0
  140.4303   72.3867  222.5924 H   0  0  0  0  0  0  0  0  0  0  0  0
  140.8460   72.7410  220.4970 C   0  0  0  0  0  0  0  0  0  0  0  0
  141.8198   72.9700  220.0395 H   0  0  0  0  0  0  0  0  0  0  0  0
  140.6946   71.6555  220.4036 H   0  0  0  0  0  0  0  0  0  0  0  0
  139.7420   73.5230  219.8120 C   0  0  0  0  0  0  0  0  0  0  0  0
  140.1651   74.2359  219.0890 H   0  0  0  0  0  0  0  0  0  0  0  0
  139.0614   72.8679  219.2484 H   0  0  0  0  0  0  0  0  0  0  0  0
  139.0270   74.2590  220.9300 C   0  0  0  0  0  0  0  0  0  0  0  0
  138.7202   75.2575  220.5851 H   0  0  0  0  0  0  0  0  0  0  0  0
  138.1262   73.7087  221.2395 H   0  0  0  0  0  0  0  0  0  0  0  0
  142.1380   80.5750  219.2030 N   0  0  0  0  0  0  0  0  0  0  0  0
  142.5840   80.2350  217.9630 C   0  0  0  0  0  0  0  0  0  0  0  0
  142.7950   81.2650  216.9680 N   0  0  0  0  0  0  0  0  0  0  0  0
  141.9000   81.3820  215.8070 C   0  0  0  0  0  0  0  0  0  0  0  0
  141.2939   80.4675  215.7280 H   0  0  0  0  0  0  0  0  0  0  0  0
  141.2572   82.2630  215.9509 H   0  0  0  0  0  0  0  0  0  0  0  0
  142.7000   81.5700  214.5000 C   0  0  0  0  0  0  0  0  0  0  0  0
  142.8137   80.5880  214.0176 H   0  0  0  0  0  0  0  0  0  0  0  0
  142.1368   82.2798  213.8764 H   0  0  0  0  0  0  0  0  0  0  0  0
  144.0440   82.1470  214.7070 N   0  0  0  0  0  0  0  0  0  0  0  0
  144.3280   82.6700  213.8440 H   0  0  0  0  0  0  0  0  0  0  0  0
  144.7370   81.3750  214.8550 H   0  0  0  0  0  0  0  0  0  0  0  0
  144.0880   83.0620  215.8550 C   0  0  0  0  0  0  0  0  0  0  0  0
  145.0776   83.5399  215.9023 H   0  0  0  0  0  0  0  0  0  0  0  0
  143.3087   83.8291  215.7355 H   0  0  0  0  0  0  0  0  0  0  0  0
  143.8360   82.2860  217.1540 C   0  0  0  0  0  0  0  0  0  0  0  0
  144.7695   81.7945  217.4655 H   0  0  0  0  0  0  0  0  0  0  0  0
  143.4962   82.9947  217.9236 H   0  0  0  0  0  0  0  0  0  0  0  0
  142.8160   78.9180  217.6780 N   0  0  0  0  0  0  0  0  0  0  0  0
  143.1530   78.6360  216.7340 H   0  0  0  0  0  0  0  0  0  0  0  0
  143.4920   76.1820  217.0740 C   0  0  0  0  0  0  0  0  0  0  0  0
  144.3867   76.8087  216.9447 H   0  0  0  0  0  0  0  0  0  0  0  0
  142.7653   76.3299  216.2616 H   0  0  0  0  0  0  0  0  0  0  0  0
  143.9210   74.7020  217.0440 C   0  0  0  0  0  0  0  0  0  0  0  0
  144.7290   74.5783  216.3080 H   0  0  0  0  0  0  0  0  0  0  0  0
  143.0469   74.0933  216.7694 H   0  0  0  0  0  0  0  0  0  0  0  0
  1  2  1  0
  2  3  2  0
  3  4  1  0
  3  5  1  0
  5  6  1  0
  5  7  2  0
  7  8  1  0
  8  9  2  0
  9 10  1  0
  8 11  1  0
 11 12  1  0
 11 13  1  0
 11 14  1  0
 14 15  1  0
 15 16  2  0
 16 17  1  0
 17 18  2  0
 18 19  1  0
 18 20  1  0
 20 21  1  0
 20 22  1  0
 20 23  1  0
 23 24  1  0
 23 25  1  0
 23 26  1  0
 26 27  1  0
 26 28  1  0
 26 29  1  0
 29 30  1  0
 29 31  1  0
 29 32  1  0
 32 33  1  0
 32 34  1  0
 32 35  1  0
 35 36  1  0
 36 37  1  0
 36 38  1  0
 36 39  1  0
 39 40  1  0
 39 41  1  0
 39 42  1  0
 42 43  1  0
 42 44  1  0
 42 45  1  0
 45 46  1  0
 45 47  1  0
 17 48  1  0
 48 49  2  0
 49 50  1  0
 50 51  1  0
 51 52  1  0
 51 53  1  0
 51 54  1  0
 54 55  1  0
 54 56  1  0
 54 57  1  0
 57 58  1  0
 57 59  1  0
 57 60  1  0
 60 61  1  0
 60 62  1  0
 60 63  1  0
 63 64  1  0
 63 65  1  0
 49 66  1  0
 66 67  1  0
 14 68  1  0
 68 69  1  0
 68 70  1  0
 68 71  1  0
 71 72  1  0
 71 73  1  0
  9  2  1  0
 66 15  1  0
 71  7  1  0
 45 35  1  0
 63 50  1  0
M  CHG  2  18   1  57   1
M  END
>  <UniqueID>  (38) 
481

>  <SMILES>  (38) 
c1ccc2c(c1)CCN(c1n/c(=[NH+]/CCCCCN3CCCC3)nc(N3CC[NH2+]CC3)[nH]1)C2

>  <Energy>  (38) 
79.9890088026592

>  <Genealogy>  (38) 
c1ccc2c(c1)CCN(c1nc([NH2+]CCCCCN3CCCC3)nc(N3CC[NH2+]CC3)n1)C2 (protonated)
c1ccc2c(c1)CCN(c1nc(=[NH+]CCCCCN3CCCC3)nc(N3CC[NH2+]CC3)[nH]1)C2 (tautomer)
c1ccc2c(c1)CCN(c1n/c(=[NH+]/CCCCCN3CCCC3)nc(N3CC[NH2+]CC3)[nH]1)C2 (cis-trans isomerization)
c1ccc2c(c1)CCN(c1n/c(=[NH+]/CCCCCN3CCCC3)nc(N3CC[NH2+]CC3)[nH]1)C2 (3D coordinates assigned)
c1ccc2c(c1)CCN(c1n/c(=[NH+]/CCCCCN3CCCC3)nc(N3CC[NH2+]CC3)[nH]1)C2 (nonaromatic ring conformer: 79.9890088026592 kcal/mol)

>  <smiles>  (38) 
c1ccc2c(c1)CCN(c1nc(NCCCCCN3CCCC3)nc(N3CCNCC3)n1)C2

>  <score_type>  (38) 
oracle

>  <origin>  (38) 
autodockgpu

>  <m_score__min__energy>  (38) 
-9.7300000000000004

>  <m_primary>  (38) 
energy

>  <meeko>  (38) 
{"free_energy": -7.73, "intermolecular_energy": -10.42, "internal_energy": -1.52, "cluster_size": 8, "cluster_id": 3, "rank_in_cluster": 7}

>  <energy>  (38) 
-6.5

>  <cluster_rmsd>  (38) 
0.56

>  <rmsd>  (38) 
270.89

>  <cluster>  (38) 
6

$$$$
MTUVCRSRZGPGQU-NMOKVYIGNA-P
     RDKit          3D

 73 77  0  0  0  0  0  0  0  0999 V2000
  145.4722   73.2400  221.8009 H   0  0  0  0  0  0  0  0  0  0  0  0
  145.0750   73.5740  220.8310 C   0  0  0  0  0  0  0  0  0  0  0  0
  145.6290   73.0840  219.6430 C   0  0  0  0  0  0  0  0  0  0  0  0
  146.4614   72.3659  219.6812 H   0  0  0  0  0  0  0  0  0  0  0  0
  145.1270   73.5050  218.4070 C   0  0  0  0  0  0  0  0  0  0  0  0
  145.5557   73.1083  217.4749 H   0  0  0  0  0  0  0  0  0  0  0  0
  144.0770   74.4330  218.3570 C   0  0  0  0  0  0  0  0  0  0  0  0
  143.5200   74.9220  219.5500 C   0  0  0  0  0  0  0  0  0  0  0  0
  144.0180   74.4870  220.7870 C   0  0  0  0  0  0  0  0  0  0  0  0
  143.5770   74.8642  221.7215 H   0  0  0  0  0  0  0  0  0  0  0  0
  142.3740   75.8840  219.4560 C   0  0  0  0  0  0  0  0  0  0  0  0
  142.2739   76.4294  220.4060 H   0  0  0  0  0  0  0  0  0  0  0  0
  141.4456   75.3304  219.2522 H   0  0  0  0  0  0  0  0  0  0  0  0
  142.6260   76.8410  218.3640 N   0  0  0  0  0  0  0  0  0  0  0  0
  142.5080   78.2560  218.6130 C   0  0  0  0  0  0  0  0  0  0  0  0
  142.1000   78.6900  219.8320 N   0  0  0  0  0  0  0  0  0  0  0  0
  141.9650   80.0140  220.0920 C   0  0  0  0  0  0  0  0  0  0  0  0
  141.5660   80.4280  221.2630 N   0  0  0  0  0  0  0  0  0  0  0  0
  140.5490   80.6170  221.4140 H   0  0  0  0  0  0  0  0  0  0  0  0
  142.4810   80.7310  222.3710 C   0  0  0  0  0  0  0  0  0  0  0  0
  143.5168   80.5835  222.0313 H   0  0  0  0  0  0  0  0  0  0  0  0
  142.3188   81.7739  222.6809 H   0  0  0  0  0  0  0  0  0  0  0  0
  142.2150   79.8190  223.5770 C   0  0  0  0  0  0  0  0  0  0  0  0
  143.1755   79.5295  224.0283 H   0  0  0  0  0  0  0  0  0  0  0  0
  141.5988   80.3686  224.3038 H   0  0  0  0  0  0  0  0  0  0  0  0
  141.4570   78.5510  223.1500 C   0  0  0  0  0  0  0  0  0  0  0  0
  141.6062   78.3980  222.0710 H   0  0  0  0  0  0  0  0  0  0  0  0
  141.8554   77.7110  223.7380 H   0  0  0  0  0  0  0  0  0  0  0  0
  139.9500   78.6410  223.4300 C   0  0  0  0  0  0  0  0  0  0  0  0
  139.6198   77.6933  223.8804 H   0  0  0  0  0  0  0  0  0  0  0  0
  139.7909   79.4939  224.1062 H   0  0  0  0  0  0  0  0  0  0  0  0
  139.1190   78.8970  222.1630 C   0  0  0  0  0  0  0  0  0  0  0  0
  139.7586   78.7678  221.2774 H   0  0  0  0  0  0  0  0  0  0  0  0
  138.2838   78.1818  222.1325 H   0  0  0  0  0  0  0  0  0  0  0  0
  138.5740   80.2730  222.1750 N   0  0  0  0  0  0  0  0  0  0  0  0
  138.9980   81.0150  223.3740 C   0  0  0  0  0  0  0  0  0  0  0  0
  139.9439   80.6006  223.7528 H   0  0  0  0  0  0  0  0  0  0  0  0
  139.1514   82.0763  223.1288 H   0  0  0  0  0  0  0  0  0  0  0  0
  137.9110   80.8720  224.4340 C   0  0  0  0  0  0  0  0  0  0  0  0
  138.2452   80.2008  225.2389 H   0  0  0  0  0  0  0  0  0  0  0  0
  137.6680   81.8377  224.9013 H   0  0  0  0  0  0  0  0  0  0  0  0
  136.7150   80.2800  223.7130 C   0  0  0  0  0  0  0  0  0  0  0  0
  136.5153   79.2589  224.0700 H   0  0  0  0  0  0  0  0  0  0  0  0
  135.7979   80.8612  223.8894 H   0  0  0  0  0  0  0  0  0  0  0  0
  137.1060   80.2650  222.2460 C   0  0  0  0  0  0  0  0  0  0  0  0
  136.7124   79.3587  221.7626 H   0  0  0  0  0  0  0  0  0  0  0  0
  136.6903   81.1415  221.7274 H   0  0  0  0  0  0  0  0  0  0  0  0
  142.2510   80.9140  219.1180 N   0  0  0  0  0  0  0  0  0  0  0  0
  142.6760   80.5060  217.8920 C   0  0  0  0  0  0  0  0  0  0  0  0
  142.9740   81.4890  216.8710 N   0  0  0  0  0  0  0  0  0  0  0  0
  142.1320   81.6010  215.6690 C   0  0  0  0  0  0  0  0  0  0  0  0
  141.4903   80.7105  215.5963 H   0  0  0  0  0  0  0  0  0  0  0  0
  141.5226   82.5127  215.7547 H   0  0  0  0  0  0  0  0  0  0  0  0
  142.9930   81.7070  214.3910 C   0  0  0  0  0  0  0  0  0  0  0  0
  143.0827   80.7042  213.9478 H   0  0  0  0  0  0  0  0  0  0  0  0
  142.4881   82.4171  213.7195 H   0  0  0  0  0  0  0  0  0  0  0  0
  144.3520   82.2330  214.6360 N   0  0  0  0  0  0  0  0  0  0  0  0
  144.6940   82.7110  213.7680 H   0  0  0  0  0  0  0  0  0  0  0  0
  145.0030   81.4370  214.8390 H   0  0  0  0  0  0  0  0  0  0  0  0
  144.3890   83.1860  215.7510 C   0  0  0  0  0  0  0  0  0  0  0  0
  145.3959   83.6228  215.8237 H   0  0  0  0  0  0  0  0  0  0  0  0
  143.6498   83.9806  215.5716 H   0  0  0  0  0  0  0  0  0  0  0  0
  144.0500   82.4700  217.0640 C   0  0  0  0  0  0  0  0  0  0  0  0
  144.9473   81.9508  217.4317 H   0  0  0  0  0  0  0  0  0  0  0  0
  143.7106   83.2207  217.7928 H   0  0  0  0  0  0  0  0  0  0  0  0
  142.8050   79.1680  217.6430 N   0  0  0  0  0  0  0  0  0  0  0  0
  143.1230   78.8340  216.7090 H   0  0  0  0  0  0  0  0  0  0  0  0
  143.1330   76.3700  217.0580 C   0  0  0  0  0  0  0  0  0  0  0  0
  144.0429   76.9366  216.8107 H   0  0  0  0  0  0  0  0  0  0  0  0
  142.3343   76.5304  216.3189 H   0  0  0  0  0  0  0  0  0  0  0  0
  143.4730   74.8680  217.0480 C   0  0  0  0  0  0  0  0  0  0  0  0
  144.1910   74.6689  216.2388 H   0  0  0  0  0  0  0  0  0  0  0  0
  142.5421   74.3032  216.8914 H   0  0  0  0  0  0  0  0  0  0  0  0
  1  2  1  0
  2  3  2  0
  3  4  1  0
  3  5  1  0
  5  6  1  0
  5  7  2  0
  7  8  1  0
  8  9  2  0
  9 10  1  0
  8 11  1  0
 11 12  1  0
 11 13  1  0
 11 14  1  0
 14 15  1  0
 15 16  2  0
 16 17  1  0
 17 18  2  0
 18 19  1  0
 18 20  1  0
 20 21  1  0
 20 22  1  0
 20 23  1  0
 23 24  1  0
 23 25  1  0
 23 26  1  0
 26 27  1  0
 26 28  1  0
 26 29  1  0
 29 30  1  0
 29 31  1  0
 29 32  1  0
 32 33  1  0
 32 34  1  0
 32 35  1  0
 35 36  1  0
 36 37  1  0
 36 38  1  0
 36 39  1  0
 39 40  1  0
 39 41  1  0
 39 42  1  0
 42 43  1  0
 42 44  1  0
 42 45  1  0
 45 46  1  0
 45 47  1  0
 17 48  1  0
 48 49  2  0
 49 50  1  0
 50 51  1  0
 51 52  1  0
 51 53  1  0
 51 54  1  0
 54 55  1  0
 54 56  1  0
 54 57  1  0
 57 58  1  0
 57 59  1  0
 57 60  1  0
 60 61  1  0
 60 62  1  0
 60 63  1  0
 63 64  1  0
 63 65  1  0
 49 66  1  0
 66 67  1  0
 14 68  1  0
 68 69  1  0
 68 70  1  0
 68 71  1  0
 71 72  1  0
 71 73  1  0
  9  2  1  0
 66 15  1  0
 71  7  1  0
 45 35  1  0
 63 50  1  0
M  CHG  2  18   1  57   1
M  END
>  <UniqueID>  (39) 
481

>  <SMILES>  (39) 
c1ccc2c(c1)CCN(c1n/c(=[NH+]/CCCCCN3CCCC3)nc(N3CC[NH2+]CC3)[nH]1)C2

>  <Energy>  (39) 
79.9890088026592

>  <Genealogy>  (39) 
c1ccc2c(c1)CCN(c1nc([NH2+]CCCCCN3CCCC3)nc(N3CC[NH2+]CC3)n1)C2 (protonated)
c1ccc2c(c1)CCN(c1nc(=[NH+]CCCCCN3CCCC3)nc(N3CC[NH2+]CC3)[nH]1)C2 (tautomer)
c1ccc2c(c1)CCN(c1n/c(=[NH+]/CCCCCN3CCCC3)nc(N3CC[NH2+]CC3)[nH]1)C2 (cis-trans isomerization)
c1ccc2c(c1)CCN(c1n/c(=[NH+]/CCCCCN3CCCC3)nc(N3CC[NH2+]CC3)[nH]1)C2 (3D coordinates assigned)
c1ccc2c(c1)CCN(c1n/c(=[NH+]/CCCCCN3CCCC3)nc(N3CC[NH2+]CC3)[nH]1)C2 (nonaromatic ring conformer: 79.9890088026592 kcal/mol)

>  <smiles>  (39) 
c1ccc2c(c1)CCN(c1nc(NCCCCCN3CCCC3)nc(N3CCNCC3)n1)C2

>  <score_type>  (39) 
oracle

>  <origin>  (39) 
autodockgpu

>  <m_score__min__energy>  (39) 
-9.7300000000000004

>  <m_primary>  (39) 
energy

>  <meeko>  (39) 
{"free_energy": -7.89, "intermolecular_energy": -10.58, "internal_energy": -1.52, "cluster_size": 8, "cluster_id": 3, "rank_in_cluster": 6}

>  <energy>  (39) 
-7.03

>  <cluster_rmsd>  (39) 
0.0

>  <rmsd>  (39) 
270.89

>  <cluster>  (39) 
7

$$$$
MTUVCRSRZGPGQU-NMOKVYIGNA-P
     RDKit          3D

 73 77  0  0  0  0  0  0  0  0999 V2000
  144.1576   81.2210  223.4272 H   0  0  0  0  0  0  0  0  0  0  0  0
  143.1350   80.8300  223.3200 C   0  0  0  0  0  0  0  0  0  0  0  0
  142.1170   81.3000  224.1560 C   0  0  0  0  0  0  0  0  0  0  0  0
  142.3411   82.0591  224.9200 H   0  0  0  0  0  0  0  0  0  0  0  0
  140.8140   80.8070  224.0230 C   0  0  0  0  0  0  0  0  0  0  0  0
  140.0124   81.1881  224.6727 H   0  0  0  0  0  0  0  0  0  0  0  0
  140.5310   79.8270  223.0610 C   0  0  0  0  0  0  0  0  0  0  0  0
  141.5530   79.3580  222.2200 C   0  0  0  0  0  0  0  0  0  0  0  0
  142.8560   79.8650  222.3490 C   0  0  0  0  0  0  0  0  0  0  0  0
  143.6560   79.5029  221.6865 H   0  0  0  0  0  0  0  0  0  0  0  0
  141.2050   78.3370  221.1790 C   0  0  0  0  0  0  0  0  0  0  0  0
  142.1200   77.8241  220.8476 H   0  0  0  0  0  0  0  0  0  0  0  0
  140.7330   78.8350  220.3192 H   0  0  0  0  0  0  0  0  0  0  0  0
  140.2700   77.3530  221.7520 N   0  0  0  0  0  0  0  0  0  0  0  0
  140.5500   75.9440  221.6240 C   0  0  0  0  0  0  0  0  0  0  0  0
  139.6330   75.0380  222.0470 N   0  0  0  0  0  0  0  0  0  0  0  0
  139.8720   73.7070  221.9530 C   0  0  0  0  0  0  0  0  0  0  0  0
  138.9910   72.8380  222.3660 N   0  0  0  0  0  0  0  0  0  0  0  0
  138.4960   73.0110  223.2710 H   0  0  0  0  0  0  0  0  0  0  0  0
  138.7120   71.5740  221.6750 C   0  0  0  0  0  0  0  0  0  0  0  0
  137.9370   71.7452  220.9134 H   0  0  0  0  0  0  0  0  0  0  0  0
  139.6432   71.2196  221.2089 H   0  0  0  0  0  0  0  0  0  0  0  0
  138.2210   70.5000  222.6560 C   0  0  0  0  0  0  0  0  0  0  0  0
  137.1621   70.2830  222.4521 H   0  0  0  0  0  0  0  0  0  0  0  0
  138.8315   69.5950  222.5209 H   0  0  0  0  0  0  0  0  0  0  0  0
  138.3660   70.9780  224.1100 C   0  0  0  0  0  0  0  0  0  0  0  0
  138.4061   72.0772  224.1171 H   0  0  0  0  0  0  0  0  0  0  0  0
  137.4999   70.5998  224.6729 H   0  0  0  0  0  0  0  0  0  0  0  0
  139.6340   70.4350  224.7870 C   0  0  0  0  0  0  0  0  0  0  0  0
  139.3565   70.0109  225.7633 H   0  0  0  0  0  0  0  0  0  0  0  0
  140.0657   69.6754  224.1187 H   0  0  0  0  0  0  0  0  0  0  0  0
  140.7030   71.5160  225.0080 C   0  0  0  0  0  0  0  0  0  0  0  0
  141.3397   71.5849  224.1137 H   0  0  0  0  0  0  0  0  0  0  0  0
  140.2050   72.4796  225.1911 H   0  0  0  0  0  0  0  0  0  0  0  0
  141.5420   71.1770  226.1800 N   0  0  0  0  0  0  0  0  0  0  0  0
  141.0830   69.9430  226.8380 C   0  0  0  0  0  0  0  0  0  0  0  0
  140.5520   69.3096  226.1122 H   0  0  0  0  0  0  0  0  0  0  0  0
  141.9424   69.3814  227.2331 H   0  0  0  0  0  0  0  0  0  0  0  0
  140.1400   70.3290  227.9730 C   0  0  0  0  0  0  0  0  0  0  0  0
  139.1008   70.0829  227.7095 H   0  0  0  0  0  0  0  0  0  0  0  0
  140.3739   69.7848  228.8999 H   0  0  0  0  0  0  0  0  0  0  0  0
  140.3020   71.8260  228.1450 C   0  0  0  0  0  0  0  0  0  0  0  0
  139.3795   72.3501  227.8546 H   0  0  0  0  0  0  0  0  0  0  0  0
  140.5062   72.1010  229.1903 H   0  0  0  0  0  0  0  0  0  0  0  0
  141.4460   72.2090  227.2220 C   0  0  0  0  0  0  0  0  0  0  0  0
  141.2454   73.1881  226.7626 H   0  0  0  0  0  0  0  0  0  0  0  0
  142.3888   72.2786  227.7843 H   0  0  0  0  0  0  0  0  0  0  0  0
  141.0440   73.2800  221.4190 N   0  0  0  0  0  0  0  0  0  0  0  0
  141.9750   74.1670  220.9740 C   0  0  0  0  0  0  0  0  0  0  0  0
  143.2170   73.6830  220.4110 N   0  0  0  0  0  0  0  0  0  0  0  0
  143.2440   72.4620  219.5900 C   0  0  0  0  0  0  0  0  0  0  0  0
  142.2938   71.9228  219.7182 H   0  0  0  0  0  0  0  0  0  0  0  0
  143.3872   72.7532  218.5390 H   0  0  0  0  0  0  0  0  0  0  0  0
  144.4080   71.5350  220.0020 C   0  0  0  0  0  0  0  0  0  0  0  0
  144.0194   70.7769  220.6979 H   0  0  0  0  0  0  0  0  0  0  0  0
  144.8081   71.0894  219.0793 H   0  0  0  0  0  0  0  0  0  0  0  0
  145.5240   72.2450  220.6600 N   0  0  0  0  0  0  0  0  0  0  0  0
  146.4130   71.7170  220.4880 H   0  0  0  0  0  0  0  0  0  0  0  0
  145.3610   72.2680  221.6950 H   0  0  0  0  0  0  0  0  0  0  0  0
  145.6820   73.6180  220.1650 C   0  0  0  0  0  0  0  0  0  0  0  0
  146.5839   74.0640  220.6096 H   0  0  0  0  0  0  0  0  0  0  0  0
  145.7770   73.5981  219.0693 H   0  0  0  0  0  0  0  0  0  0  0  0
  144.4580   74.4580  220.5490 C   0  0  0  0  0  0  0  0  0  0  0  0
  144.5616   74.7864  221.5937 H   0  0  0  0  0  0  0  0  0  0  0  0
  144.4044   75.3245  219.8735 H   0  0  0  0  0  0  0  0  0  0  0  0
  141.7200   75.5060  221.0780 N   0  0  0  0  0  0  0  0  0  0  0  0
  142.4210   76.2030  220.7490 H   0  0  0  0  0  0  0  0  0  0  0  0
  139.1260   77.7960  222.5760 C   0  0  0  0  0  0  0  0  0  0  0  0
  139.1620   77.2659  223.5392 H   0  0  0  0  0  0  0  0  0  0  0  0
  138.2084   77.5668  222.0143 H   0  0  0  0  0  0  0  0  0  0  0  0
  139.1310   79.3120  222.8500 C   0  0  0  0  0  0  0  0  0  0  0  0
  138.5351   79.5148  223.7521 H   0  0  0  0  0  0  0  0  0  0  0  0
  138.7016   79.8236  221.9760 H   0  0  0  0  0  0  0  0  0  0  0  0
  1  2  1  0
  2  3  2  0
  3  4  1  0
  3  5  1  0
  5  6  1  0
  5  7  2  0
  7  8  1  0
  8  9  2  0
  9 10  1  0
  8 11  1  0
 11 12  1  0
 11 13  1  0
 11 14  1  0
 14 15  1  0
 15 16  2  0
 16 17  1  0
 17 18  2  0
 18 19  1  0
 18 20  1  0
 20 21  1  0
 20 22  1  0
 20 23  1  0
 23 24  1  0
 23 25  1  0
 23 26  1  0
 26 27  1  0
 26 28  1  0
 26 29  1  0
 29 30  1  0
 29 31  1  0
 29 32  1  0
 32 33  1  0
 32 34  1  0
 32 35  1  0
 35 36  1  0
 36 37  1  0
 36 38  1  0
 36 39  1  0
 39 40  1  0
 39 41  1  0
 39 42  1  0
 42 43  1  0
 42 44  1  0
 42 45  1  0
 45 46  1  0
 45 47  1  0
 17 48  1  0
 48 49  2  0
 49 50  1  0
 50 51  1  0
 51 52  1  0
 51 53  1  0
 51 54  1  0
 54 55  1  0
 54 56  1  0
 54 57  1  0
 57 58  1  0
 57 59  1  0
 57 60  1  0
 60 61  1  0
 60 62  1  0
 60 63  1  0
 63 64  1  0
 63 65  1  0
 49 66  1  0
 66 67  1  0
 14 68  1  0
 68 69  1  0
 68 70  1  0
 68 71  1  0
 71 72  1  0
 71 73  1  0
  9  2  1  0
 66 15  1  0
 71  7  1  0
 45 35  1  0
 63 50  1  0
M  CHG  2  18   1  57   1
M  END
>  <UniqueID>  (40) 
481

>  <SMILES>  (40) 
c1ccc2c(c1)CCN(c1n/c(=[NH+]/CCCCCN3CCCC3)nc(N3CC[NH2+]CC3)[nH]1)C2

>  <Energy>  (40) 
79.9890088026592

>  <Genealogy>  (40) 
c1ccc2c(c1)CCN(c1nc([NH2+]CCCCCN3CCCC3)nc(N3CC[NH2+]CC3)n1)C2 (protonated)
c1ccc2c(c1)CCN(c1nc(=[NH+]CCCCCN3CCCC3)nc(N3CC[NH2+]CC3)[nH]1)C2 (tautomer)
c1ccc2c(c1)CCN(c1n/c(=[NH+]/CCCCCN3CCCC3)nc(N3CC[NH2+]CC3)[nH]1)C2 (cis-trans isomerization)
c1ccc2c(c1)CCN(c1n/c(=[NH+]/CCCCCN3CCCC3)nc(N3CC[NH2+]CC3)[nH]1)C2 (3D coordinates assigned)
c1ccc2c(c1)CCN(c1n/c(=[NH+]/CCCCCN3CCCC3)nc(N3CC[NH2+]CC3)[nH]1)C2 (nonaromatic ring conformer: 79.9890088026592 kcal/mol)

>  <smiles>  (40) 
c1ccc2c(c1)CCN(c1nc(NCCCCCN3CCCC3)nc(N3CCNCC3)n1)C2

>  <score_type>  (40) 
oracle

>  <origin>  (40) 
autodockgpu

>  <m_score__min__energy>  (40) 
-9.7300000000000004

>  <m_primary>  (40) 
energy

>  <meeko>  (40) 
{"free_energy": -9.73, "intermolecular_energy": -12.41, "internal_energy": -0.49, "cluster_size": 2, "cluster_id": 1, "rank_in_cluster": 1}

>  <energy>  (40) 
-6.69

>  <cluster_rmsd>  (40) 
0.0

>  <rmsd>  (40) 
271.05

>  <cluster>  (40) 
8

$$$$
MTUVCRSRZGPGQU-NMOKVYIGNA-P
     RDKit          3D

 73 77  0  0  0  0  0  0  0  0999 V2000
  142.5021   66.4194  219.3067 H   0  0  0  0  0  0  0  0  0  0  0  0
  143.0160   67.3910  219.3500 C   0  0  0  0  0  0  0  0  0  0  0  0
  144.3890   67.4430  219.6090 C   0  0  0  0  0  0  0  0  0  0  0  0
  144.9526   66.5120  219.7692 H   0  0  0  0  0  0  0  0  0  0  0  0
  145.0480   68.6760  219.6650 C   0  0  0  0  0  0  0  0  0  0  0  0
  146.1307   68.7132  219.8555 H   0  0  0  0  0  0  0  0  0  0  0  0
  144.3270   69.8650  219.4780 C   0  0  0  0  0  0  0  0  0  0  0  0
  142.9490   69.8110  219.2140 C   0  0  0  0  0  0  0  0  0  0  0  0
  142.2950   68.5710  219.1460 C   0  0  0  0  0  0  0  0  0  0  0  0
  141.2168   68.5278  218.9325 H   0  0  0  0  0  0  0  0  0  0  0  0
  142.2200   71.1000  218.9820 C   0  0  0  0  0  0  0  0  0  0  0  0
  141.1416   70.9439  219.1325 H   0  0  0  0  0  0  0  0  0  0  0  0
  142.3998   71.4435  217.9526 H   0  0  0  0  0  0  0  0  0  0  0  0
  142.7070   72.1160  219.9320 N   0  0  0  0  0  0  0  0  0  0  0  0
  141.7620   72.8670  220.7210 C   0  0  0  0  0  0  0  0  0  0  0  0
  140.8500   72.2080  221.4790 N   0  0  0  0  0  0  0  0  0  0  0  0
  139.9380   72.8860  222.2200 C   0  0  0  0  0  0  0  0  0  0  0  0
  139.0580   72.2500  222.9430 N   0  0  0  0  0  0  0  0  0  0  0  0
  138.0930   72.6450  223.0280 H   0  0  0  0  0  0  0  0  0  0  0  0
  139.3660   71.0460  223.7230 C   0  0  0  0  0  0  0  0  0  0  0  0
  138.6200   70.9367  224.5239 H   0  0  0  0  0  0  0  0  0  0  0  0
  139.3404   70.1776  223.0483 H   0  0  0  0  0  0  0  0  0  0  0  0
  140.7650   71.1340  224.3500 C   0  0  0  0  0  0  0  0  0  0  0  0
  141.1693   70.1183  224.4722 H   0  0  0  0  0  0  0  0  0  0  0  0
  141.4106   71.7276  223.6861 H   0  0  0  0  0  0  0  0  0  0  0  0
  140.7090   71.8220  225.7240 C   0  0  0  0  0  0  0  0  0  0  0  0
  141.3178   72.7373  225.6846 H   0  0  0  0  0  0  0  0  0  0  0  0
  139.6541   72.0450  225.9418 H   0  0  0  0  0  0  0  0  0  0  0  0
  141.2380   70.9280  226.8550 C   0  0  0  0  0  0  0  0  0  0  0  0
  141.3598   69.9060  226.4667 H   0  0  0  0  0  0  0  0  0  0  0  0
  142.1941   71.3543  227.1929 H   0  0  0  0  0  0  0  0  0  0  0  0
  140.2980   70.8820  228.0710 C   0  0  0  0  0  0  0  0  0  0  0  0
  140.8873   71.0135  228.9905 H   0  0  0  0  0  0  0  0  0  0  0  0
  139.5560   71.6890  227.9807 H   0  0  0  0  0  0  0  0  0  0  0  0
  139.5920   69.5820  228.1250 N   0  0  0  0  0  0  0  0  0  0  0  0
  140.4830   68.4980  228.5730 C   0  0  0  0  0  0  0  0  0  0  0  0
  141.2965   68.9139  229.1856 H   0  0  0  0  0  0  0  0  0  0  0  0
  139.9224   67.7715  229.1795 H   0  0  0  0  0  0  0  0  0  0  0  0
  141.0630   67.8170  227.3380 C   0  0  0  0  0  0  0  0  0  0  0  0
  142.1246   68.0790  227.2180 H   0  0  0  0  0  0  0  0  0  0  0  0
  141.0087   66.7210  227.4145 H   0  0  0  0  0  0  0  0  0  0  0  0
  140.2540   68.3380  226.1670 C   0  0  0  0  0  0  0  0  0  0  0  0
  140.8791   68.9648  225.5141 H   0  0  0  0  0  0  0  0  0  0  0  0
  139.8622   67.5226  225.5412 H   0  0  0  0  0  0  0  0  0  0  0  0
  139.1410   69.1620  226.7910 C   0  0  0  0  0  0  0  0  0  0  0  0
  138.9352   70.0459  226.1693 H   0  0  0  0  0  0  0  0  0  0  0  0
  138.2172   68.5695  226.8648 H   0  0  0  0  0  0  0  0  0  0  0  0
  139.9500   74.2430  222.2060 N   0  0  0  0  0  0  0  0  0  0  0  0
  140.8630   74.9270  221.4670 C   0  0  0  0  0  0  0  0  0  0  0  0
  140.8510   76.3750  221.4710 N   0  0  0  0  0  0  0  0  0  0  0  0
  140.6260   77.1270  220.2260 C   0  0  0  0  0  0  0  0  0  0  0  0
  140.7381   76.4454  219.3699 H   0  0  0  0  0  0  0  0  0  0  0  0
  139.6115   77.5512  220.2538 H   0  0  0  0  0  0  0  0  0  0  0  0
  141.6370   78.2860  220.0830 C   0  0  0  0  0  0  0  0  0  0  0  0
  142.4692   77.9452  219.4495 H   0  0  0  0  0  0  0  0  0  0  0  0
  141.0941   79.1343  219.6407 H   0  0  0  0  0  0  0  0  0  0  0  0
  142.1910   78.7510  221.3710 N   0  0  0  0  0  0  0  0  0  0  0  0
  142.4600   79.7600  221.2820 H   0  0  0  0  0  0  0  0  0  0  0  0
  143.0590   78.2080  221.5950 H   0  0  0  0  0  0  0  0  0  0  0  0
  141.2330   78.6080  222.4740 C   0  0  0  0  0  0  0  0  0  0  0  0
  141.6545   79.0611  223.3834 H   0  0  0  0  0  0  0  0  0  0  0  0
  140.2946   79.1148  222.2048 H   0  0  0  0  0  0  0  0  0  0  0  0
  140.9470   77.1240  222.7320 C   0  0  0  0  0  0  0  0  0  0  0  0
  141.7613   76.7018  223.3392 H   0  0  0  0  0  0  0  0  0  0  0  0
  139.9861   77.0409  223.2609 H   0  0  0  0  0  0  0  0  0  0  0  0
  141.7740   74.2300  220.7230 N   0  0  0  0  0  0  0  0  0  0  0  0
  142.4780   74.7350  220.1450 H   0  0  0  0  0  0  0  0  0  0  0  0
  144.1540   72.2730  220.1840 C   0  0  0  0  0  0  0  0  0  0  0  0
  144.3305   72.2001  221.2673 H   0  0  0  0  0  0  0  0  0  0  0  0
  144.4520   73.2529  219.7828 H   0  0  0  0  0  0  0  0  0  0  0  0
  145.0110   71.2070  219.4750 C   0  0  0  0  0  0  0  0  0  0  0  0
  145.9760   71.1186  219.9955 H   0  0  0  0  0  0  0  0  0  0  0  0
  145.1596   71.5189  218.4307 H   0  0  0  0  0  0  0  0  0  0  0  0
  1  2  1  0
  2  3  2  0
  3  4  1  0
  3  5  1  0
  5  6  1  0
  5  7  2  0
  7  8  1  0
  8  9  2  0
  9 10  1  0
  8 11  1  0
 11 12  1  0
 11 13  1  0
 11 14  1  0
 14 15  1  0
 15 16  2  0
 16 17  1  0
 17 18  2  0
 18 19  1  0
 18 20  1  0
 20 21  1  0
 20 22  1  0
 20 23  1  0
 23 24  1  0
 23 25  1  0
 23 26  1  0
 26 27  1  0
 26 28  1  0
 26 29  1  0
 29 30  1  0
 29 31  1  0
 29 32  1  0
 32 33  1  0
 32 34  1  0
 32 35  1  0
 35 36  1  0
 36 37  1  0
 36 38  1  0
 36 39  1  0
 39 40  1  0
 39 41  1  0
 39 42  1  0
 42 43  1  0
 42 44  1  0
 42 45  1  0
 45 46  1  0
 45 47  1  0
 17 48  1  0
 48 49  2  0
 49 50  1  0
 50 51  1  0
 51 52  1  0
 51 53  1  0
 51 54  1  0
 54 55  1  0
 54 56  1  0
 54 57  1  0
 57 58  1  0
 57 59  1  0
 57 60  1  0
 60 61  1  0
 60 62  1  0
 60 63  1  0
 63 64  1  0
 63 65  1  0
 49 66  1  0
 66 67  1  0
 14 68  1  0
 68 69  1  0
 68 70  1  0
 68 71  1  0
 71 72  1  0
 71 73  1  0
  9  2  1  0
 66 15  1  0
 71  7  1  0
 45 35  1  0
 63 50  1  0
M  CHG  2  18   1  57   1
M  END
>  <UniqueID>  (41) 
482

>  <SMILES>  (41) 
c1ccc2c(c1)CCN(c1n/c(=[NH+]\CCCCCN3CCCC3)nc(N3CC[NH2+]CC3)[nH]1)C2

>  <Energy>  (41) 
81.83170711428579

>  <Genealogy>  (41) 
c1ccc2c(c1)CCN(c1nc([NH2+]CCCCCN3CCCC3)nc(N3CC[NH2+]CC3)n1)C2 (protonated)
c1ccc2c(c1)CCN(c1nc(=[NH+]CCCCCN3CCCC3)nc(N3CC[NH2+]CC3)[nH]1)C2 (tautomer)
c1ccc2c(c1)CCN(c1n/c(=[NH+]\CCCCCN3CCCC3)nc(N3CC[NH2+]CC3)[nH]1)C2 (cis-trans isomerization)
c1ccc2c(c1)CCN(c1n/c(=[NH+]\CCCCCN3CCCC3)nc(N3CC[NH2+]CC3)[nH]1)C2 (3D coordinates assigned)
c1ccc2c(c1)CCN(c1n/c(=[NH+]\CCCCCN3CCCC3)nc(N3CC[NH2+]CC3)[nH]1)C2 (nonaromatic ring conformer: 81.83170711428579 kcal/mol)

>  <smiles>  (41) 
c1ccc2c(c1)CCN(c1nc(NCCCCCN3CCCC3)nc(N3CCNCC3)n1)C2

>  <score_type>  (41) 
oracle

>  <origin>  (41) 
autodockgpu

>  <m_score__min__energy>  (41) 
-9.7300000000000004

>  <m_primary>  (41) 
energy

>  <meeko>  (41) 
{"free_energy": -8.65, "intermolecular_energy": -11.33, "internal_energy": -0.29, "cluster_size": 1, "cluster_id": 2, "rank_in_cluster": 1}

>  <energy>  (41) 
-9.73

>  <cluster_rmsd>  (41) 
0.0

>  <rmsd>  (41) 
272.1

>  <cluster>  (41) 
1

$$$$
MTUVCRSRZGPGQU-NMOKVYIGNA-P
     RDKit          3D

 73 77  0  0  0  0  0  0  0  0999 V2000
  138.4000   81.6913  225.1141 H   0  0  0  0  0  0  0  0  0  0  0  0
  138.0800   81.1970  224.1850 C   0  0  0  0  0  0  0  0  0  0  0  0
  137.1130   80.1880  224.2290 C   0  0  0  0  0  0  0  0  0  0  0  0
  136.6759   79.8888  225.1930 H   0  0  0  0  0  0  0  0  0  0  0  0
  136.7000   79.5580  223.0500 C   0  0  0  0  0  0  0  0  0  0  0  0
  135.9279   78.7753  223.0856 H   0  0  0  0  0  0  0  0  0  0  0  0
  137.2710   79.9250  221.8230 C   0  0  0  0  0  0  0  0  0  0  0  0
  138.2390   80.9400  221.7800 C   0  0  0  0  0  0  0  0  0  0  0  0
  138.6410   81.5790  222.9630 C   0  0  0  0  0  0  0  0  0  0  0  0
  139.3957   82.3785  222.9287 H   0  0  0  0  0  0  0  0  0  0  0  0
  138.7990   81.3320  220.4450 C   0  0  0  0  0  0  0  0  0  0  0  0
  139.7534   81.8599  220.5880 H   0  0  0  0  0  0  0  0  0  0  0  0
  138.0886   81.9943  219.9286 H   0  0  0  0  0  0  0  0  0  0  0  0
  139.0230   80.1220  219.6340 N   0  0  0  0  0  0  0  0  0  0  0  0
  140.3030   79.9110  219.0040 C   0  0  0  0  0  0  0  0  0  0  0  0
  141.0200   78.7980  219.3000 N   0  0  0  0  0  0  0  0  0  0  0  0
  142.2340   78.5790  218.7360 C   0  0  0  0  0  0  0  0  0  0  0  0
  142.9240   77.5110  219.0280 N   0  0  0  0  0  0  0  0  0  0  0  0
  143.9490   77.6050  219.2100 H   0  0  0  0  0  0  0  0  0  0  0  0
  142.3600   76.1560  219.0310 C   0  0  0  0  0  0  0  0  0  0  0  0
  141.4646   76.1388  218.3923 H   0  0  0  0  0  0  0  0  0  0  0  0
  143.1224   75.4609  218.6496 H   0  0  0  0  0  0  0  0  0  0  0  0
  141.9710   75.7190  220.4500 C   0  0  0  0  0  0  0  0  0  0  0  0
  141.8596   74.6249  220.4717 H   0  0  0  0  0  0  0  0  0  0  0  0
  142.7614   76.0395  221.1447 H   0  0  0  0  0  0  0  0  0  0  0  0
  140.6460   76.3680  220.8820 C   0  0  0  0  0  0  0  0  0  0  0  0
  140.4086   77.1830  220.1825 H   0  0  0  0  0  0  0  0  0  0  0  0
  139.8731   75.5853  220.8712 H   0  0  0  0  0  0  0  0  0  0  0  0
  140.7050   76.9430  222.3050 C   0  0  0  0  0  0  0  0  0  0  0  0
  139.8548   76.5461  222.8792 H   0  0  0  0  0  0  0  0  0  0  0  0
  141.6696   76.6444  222.7414 H   0  0  0  0  0  0  0  0  0  0  0  0
  140.6420   78.4780  222.3340 C   0  0  0  0  0  0  0  0  0  0  0  0
  140.2100   78.8413  221.3899 H   0  0  0  0  0  0  0  0  0  0  0  0
  140.0160   78.7944  223.1814 H   0  0  0  0  0  0  0  0  0  0  0  0
  141.9990   79.0450  222.5000 N   0  0  0  0  0  0  0  0  0  0  0  0
  142.1920   79.6080  223.8460 C   0  0  0  0  0  0  0  0  0  0  0  0
  141.5155   79.1118  224.5574 H   0  0  0  0  0  0  0  0  0  0  0  0
  143.2290   79.4510  224.1777 H   0  0  0  0  0  0  0  0  0  0  0  0
  141.8780   81.0990  223.7900 C   0  0  0  0  0  0  0  0  0  0  0  0
  140.9215   81.3092  224.2909 H   0  0  0  0  0  0  0  0  0  0  0  0
  142.6467   81.6967  224.3017 H   0  0  0  0  0  0  0  0  0  0  0  0
  141.7900   81.4410  222.3160 C   0  0  0  0  0  0  0  0  0  0  0  0
  140.7592   81.7111  222.0430 H   0  0  0  0  0  0  0  0  0  0  0  0
  142.4221   82.3023  222.0541 H   0  0  0  0  0  0  0  0  0  0  0  0
  142.2200   80.1780  221.5910 C   0  0  0  0  0  0  0  0  0  0  0  0
  141.6212   80.0479  220.6775 H   0  0  0  0  0  0  0  0  0  0  0  0
  143.2798   80.2404  221.3031 H   0  0  0  0  0  0  0  0  0  0  0  0
  142.7290   79.4850  217.8560 N   0  0  0  0  0  0  0  0  0  0  0  0
  142.0230   80.6020  217.5300 C   0  0  0  0  0  0  0  0  0  0  0  0
  142.5770   81.5520  216.5890 N   0  0  0  0  0  0  0  0  0  0  0  0
  141.9250   81.7920  215.2920 C   0  0  0  0  0  0  0  0  0  0  0  0
  141.1890   80.9955  215.1079 H   0  0  0  0  0  0  0  0  0  0  0  0
  141.4332   82.7753  215.3270 H   0  0  0  0  0  0  0  0  0  0  0  0
  142.9540   81.8020  214.1410 C   0  0  0  0  0  0  0  0  0  0  0  0
  142.9720   80.8025  213.6819 H   0  0  0  0  0  0  0  0  0  0  0  0
  142.6381   82.5821  213.4327 H   0  0  0  0  0  0  0  0  0  0  0  0
  144.3250   82.1410  214.5760 N   0  0  0  0  0  0  0  0  0  0  0  0
  144.8380   82.5820  213.7760 H   0  0  0  0  0  0  0  0  0  0  0  0
  144.8350   81.2630  214.8370 H   0  0  0  0  0  0  0  0  0  0  0  0
  144.3370   83.0650  215.7170 C   0  0  0  0  0  0  0  0  0  0  0  0
  145.3734   83.3631  215.9337 H   0  0  0  0  0  0  0  0  0  0  0  0
  143.7380   83.9536  215.4690 H   0  0  0  0  0  0  0  0  0  0  0  0
  143.7360   82.3800  216.9520 C   0  0  0  0  0  0  0  0  0  0  0  0
  144.5018   81.7414  217.4165 H   0  0  0  0  0  0  0  0  0  0  0  0
  143.4021   83.1581  217.6541 H   0  0  0  0  0  0  0  0  0  0  0  0
  140.8030   80.8110  218.1100 N   0  0  0  0  0  0  0  0  0  0  0  0
  140.2490   81.6620  217.8790 H   0  0  0  0  0  0  0  0  0  0  0  0
  137.9990   79.0590  219.5750 C   0  0  0  0  0  0  0  0  0  0  0  0
  138.4706   78.1031  219.8466 H   0  0  0  0  0  0  0  0  0  0  0  0
  137.5997   79.0445  218.5501 H   0  0  0  0  0  0  0  0  0  0  0  0
  136.8130   79.3090  220.5270 C   0  0  0  0  0  0  0  0  0  0  0  0
  136.3176   78.3506  220.7413 H   0  0  0  0  0  0  0  0  0  0  0  0
  136.1170   80.0066  220.0382 H   0  0  0  0  0  0  0  0  0  0  0  0
  1  2  1  0
  2  3  2  0
  3  4  1  0
  3  5  1  0
  5  6  1  0
  5  7  2  0
  7  8  1  0
  8  9  2  0
  9 10  1  0
  8 11  1  0
 11 12  1  0
 11 13  1  0
 11 14  1  0
 14 15  1  0
 15 16  2  0
 16 17  1  0
 17 18  2  0
 18 19  1  0
 18 20  1  0
 20 21  1  0
 20 22  1  0
 20 23  1  0
 23 24  1  0
 23 25  1  0
 23 26  1  0
 26 27  1  0
 26 28  1  0
 26 29  1  0
 29 30  1  0
 29 31  1  0
 29 32  1  0
 32 33  1  0
 32 34  1  0
 32 35  1  0
 35 36  1  0
 36 37  1  0
 36 38  1  0
 36 39  1  0
 39 40  1  0
 39 41  1  0
 39 42  1  0
 42 43  1  0
 42 44  1  0
 42 45  1  0
 45 46  1  0
 45 47  1  0
 17 48  1  0
 48 49  2  0
 49 50  1  0
 50 51  1  0
 51 52  1  0
 51 53  1  0
 51 54  1  0
 54 55  1  0
 54 56  1  0
 54 57  1  0
 57 58  1  0
 57 59  1  0
 57 60  1  0
 60 61  1  0
 60 62  1  0
 60 63  1  0
 63 64  1  0
 63 65  1  0
 49 66  1  0
 66 67  1  0
 14 68  1  0
 68 69  1  0
 68 70  1  0
 68 71  1  0
 71 72  1  0
 71 73  1  0
  9  2  1  0
 66 15  1  0
 71  7  1  0
 45 35  1  0
 63 50  1  0
M  CHG  2  18   1  57   1
M  END
>  <UniqueID>  (42) 
482

>  <SMILES>  (42) 
c1ccc2c(c1)CCN(c1n/c(=[NH+]\CCCCCN3CCCC3)nc(N3CC[NH2+]CC3)[nH]1)C2

>  <Energy>  (42) 
81.83170711428579

>  <Genealogy>  (42) 
c1ccc2c(c1)CCN(c1nc([NH2+]CCCCCN3CCCC3)nc(N3CC[NH2+]CC3)n1)C2 (protonated)
c1ccc2c(c1)CCN(c1nc(=[NH+]CCCCCN3CCCC3)nc(N3CC[NH2+]CC3)[nH]1)C2 (tautomer)
c1ccc2c(c1)CCN(c1n/c(=[NH+]\CCCCCN3CCCC3)nc(N3CC[NH2+]CC3)[nH]1)C2 (cis-trans isomerization)
c1ccc2c(c1)CCN(c1n/c(=[NH+]\CCCCCN3CCCC3)nc(N3CC[NH2+]CC3)[nH]1)C2 (3D coordinates assigned)
c1ccc2c(c1)CCN(c1n/c(=[NH+]\CCCCCN3CCCC3)nc(N3CC[NH2+]CC3)[nH]1)C2 (nonaromatic ring conformer: 81.83170711428579 kcal/mol)

>  <smiles>  (42) 
c1ccc2c(c1)CCN(c1nc(NCCCCCN3CCCC3)nc(N3CCNCC3)n1)C2

>  <score_type>  (42) 
oracle

>  <origin>  (42) 
autodockgpu

>  <m_score__min__energy>  (42) 
-9.7300000000000004

>  <m_primary>  (42) 
energy

>  <meeko>  (42) 
{"free_energy": -7.14, "intermolecular_energy": -9.82, "internal_energy": -2.22, "cluster_size": 2, "cluster_id": 6, "rank_in_cluster": 1}

>  <energy>  (42) 
-8.74

>  <cluster_rmsd>  (42) 
1.37

>  <rmsd>  (42) 
271.86

>  <cluster>  (42) 
1

$$$$
MTUVCRSRZGPGQU-NMOKVYIGNA-P
     RDKit          3D

 73 77  0  0  0  0  0  0  0  0999 V2000
  138.1279   77.8556  223.0004 H   0  0  0  0  0  0  0  0  0  0  0  0
  138.9560   77.6720  222.3000 C   0  0  0  0  0  0  0  0  0  0  0  0
  140.0070   76.8260  222.6680 C   0  0  0  0  0  0  0  0  0  0  0  0
  140.0040   76.3463  223.6579 H   0  0  0  0  0  0  0  0  0  0  0  0
  141.0620   76.5880  221.7810 C   0  0  0  0  0  0  0  0  0  0  0  0
  141.8805   75.9116  222.0684 H   0  0  0  0  0  0  0  0  0  0  0  0
  141.0760   77.2120  220.5250 C   0  0  0  0  0  0  0  0  0  0  0  0
  140.0180   78.0590  220.1550 C   0  0  0  0  0  0  0  0  0  0  0  0
  138.9560   78.2850  221.0430 C   0  0  0  0  0  0  0  0  0  0  0  0
  138.1245   78.9433  220.7512 H   0  0  0  0  0  0  0  0  0  0  0  0
  140.0490   78.6780  218.7900 C   0  0  0  0  0  0  0  0  0  0  0  0
  139.3790   79.5501  218.7672 H   0  0  0  0  0  0  0  0  0  0  0  0
  139.7154   77.9410  218.0446 H   0  0  0  0  0  0  0  0  0  0  0  0
  141.4240   79.1060  218.4780 N   0  0  0  0  0  0  0  0  0  0  0  0
  141.6660   80.4490  218.0130 C   0  0  0  0  0  0  0  0  0  0  0  0
  141.2120   81.5010  218.7390 N   0  0  0  0  0  0  0  0  0  0  0  0
  141.4100   82.7760  218.3200 C   0  0  0  0  0  0  0  0  0  0  0  0
  140.9660   83.7850  219.0180 N   0  0  0  0  0  0  0  0  0  0  0  0
  140.8500   84.7130  218.5490 H   0  0  0  0  0  0  0  0  0  0  0  0
  140.7000   83.7200  220.4600 C   0  0  0  0  0  0  0  0  0  0  0  0
  141.3501   82.9557  220.9108 H   0  0  0  0  0  0  0  0  0  0  0  0
  140.9037   84.7088  220.8969 H   0  0  0  0  0  0  0  0  0  0  0  0
  139.2340   83.3580  220.7380 C   0  0  0  0  0  0  0  0  0  0  0  0
  138.8943   83.8956  221.6356 H   0  0  0  0  0  0  0  0  0  0  0  0
  138.6293   83.6463  219.8655 H   0  0  0  0  0  0  0  0  0  0  0  0
  139.0760   81.8460  220.9670 C   0  0  0  0  0  0  0  0  0  0  0  0
  138.2519   81.4786  220.3378 H   0  0  0  0  0  0  0  0  0  0  0  0
  140.0312   81.3678  220.7045 H   0  0  0  0  0  0  0  0  0  0  0  0
  138.7690   81.4990  222.4320 C   0  0  0  0  0  0  0  0  0  0  0  0
  138.5397   82.4293  222.9724 H   0  0  0  0  0  0  0  0  0  0  0  0
  137.9170   80.8032  222.4347 H   0  0  0  0  0  0  0  0  0  0  0  0
  139.9400   80.7970  223.1390 C   0  0  0  0  0  0  0  0  0  0  0  0
  139.8456   80.9395  224.2257 H   0  0  0  0  0  0  0  0  0  0  0  0
  139.9136   79.7246  222.8955 H   0  0  0  0  0  0  0  0  0  0  0  0
  141.2290   81.3620  222.6830 N   0  0  0  0  0  0  0  0  0  0  0  0
  141.9710   80.4120  221.8380 C   0  0  0  0  0  0  0  0  0  0  0  0
  141.2690   79.7145  221.3577 H   0  0  0  0  0  0  0  0  0  0  0  0
  142.5227   80.9522  221.0545 H   0  0  0  0  0  0  0  0  0  0  0  0
  142.9400   79.6390  222.7250 C   0  0  0  0  0  0  0  0  0  0  0  0
  142.5921   78.6047  222.8638 H   0  0  0  0  0  0  0  0  0  0  0  0
  143.9441   79.5831  222.2794 H   0  0  0  0  0  0  0  0  0  0  0  0
  142.9540   80.3750  224.0500 C   0  0  0  0  0  0  0  0  0  0  0  0
  142.5032   79.7565  224.8401 H   0  0  0  0  0  0  0  0  0  0  0  0
  143.9765   80.6121  224.3789 H   0  0  0  0  0  0  0  0  0  0  0  0
  142.1270   81.6270  223.8160 C   0  0  0  0  0  0  0  0  0  0  0  0
  141.5376   81.8605  224.7149 H   0  0  0  0  0  0  0  0  0  0  0  0
  142.7794   82.4856  223.5988 H   0  0  0  0  0  0  0  0  0  0  0  0
  142.0810   82.9960  217.1620 N   0  0  0  0  0  0  0  0  0  0  0  0
  142.5590   81.9600  216.4230 C   0  0  0  0  0  0  0  0  0  0  0  0
  143.2710   82.2260  215.1900 N   0  0  0  0  0  0  0  0  0  0  0  0
  142.7240   81.7840  213.8970 C   0  0  0  0  0  0  0  0  0  0  0  0
  141.9134   81.0628  214.0781 H   0  0  0  0  0  0  0  0  0  0  0  0
  142.3458   82.6659  213.3592 H   0  0  0  0  0  0  0  0  0  0  0  0
  143.8120   81.1120  213.0300 C   0  0  0  0  0  0  0  0  0  0  0  0
  143.7419   80.0227  213.1664 H   0  0  0  0  0  0  0  0  0  0  0  0
  143.6283   81.4156  211.9888 H   0  0  0  0  0  0  0  0  0  0  0  0
  145.1850   81.5380  213.3700 N   0  0  0  0  0  0  0  0  0  0  0  0
  145.7890   81.4520  212.5180 H   0  0  0  0  0  0  0  0  0  0  0  0
  145.5760   80.9020  214.1040 H   0  0  0  0  0  0  0  0  0  0  0  0
  145.2370   82.9240  213.8520 C   0  0  0  0  0  0  0  0  0  0  0  0
  146.2866   83.2226  213.9908 H   0  0  0  0  0  0  0  0  0  0  0  0
  144.7573   83.5824  213.1127 H   0  0  0  0  0  0  0  0  0  0  0  0
  144.4940   83.0410  215.1890 C   0  0  0  0  0  0  0  0  0  0  0  0
  145.1550   82.6972  215.9982 H   0  0  0  0  0  0  0  0  0  0  0  0
  144.2116   84.0934  215.3398 H   0  0  0  0  0  0  0  0  0  0  0  0
  142.3490   80.6800  216.8560 N   0  0  0  0  0  0  0  0  0  0  0  0
  142.7020   79.8720  216.3010 H   0  0  0  0  0  0  0  0  0  0  0  0
  142.5700   78.2180  218.7680 C   0  0  0  0  0  0  0  0  0  0  0  0
  143.2954   78.7715  219.3824 H   0  0  0  0  0  0  0  0  0  0  0  0
  142.9989   77.9095  217.8032 H   0  0  0  0  0  0  0  0  0  0  0  0
  142.1650   76.9370  219.5220 C   0  0  0  0  0  0  0  0  0  0  0  0
  143.0445   76.5383  220.0487 H   0  0  0  0  0  0  0  0  0  0  0  0
  141.7859   76.2090  218.7897 H   0  0  0  0  0  0  0  0  0  0  0  0
  1  2  1  0
  2  3  2  0
  3  4  1  0
  3  5  1  0
  5  6  1  0
  5  7  2  0
  7  8  1  0
  8  9  2  0
  9 10  1  0
  8 11  1  0
 11 12  1  0
 11 13  1  0
 11 14  1  0
 14 15  1  0
 15 16  2  0
 16 17  1  0
 17 18  2  0
 18 19  1  0
 18 20  1  0
 20 21  1  0
 20 22  1  0
 20 23  1  0
 23 24  1  0
 23 25  1  0
 23 26  1  0
 26 27  1  0
 26 28  1  0
 26 29  1  0
 29 30  1  0
 29 31  1  0
 29 32  1  0
 32 33  1  0
 32 34  1  0
 32 35  1  0
 35 36  1  0
 36 37  1  0
 36 38  1  0
 36 39  1  0
 39 40  1  0
 39 41  1  0
 39 42  1  0
 42 43  1  0
 42 44  1  0
 42 45  1  0
 45 46  1  0
 45 47  1  0
 17 48  1  0
 48 49  2  0
 49 50  1  0
 50 51  1  0
 51 52  1  0
 51 53  1  0
 51 54  1  0
 54 55  1  0
 54 56  1  0
 54 57  1  0
 57 58  1  0
 57 59  1  0
 57 60  1  0
 60 61  1  0
 60 62  1  0
 60 63  1  0
 63 64  1  0
 63 65  1  0
 49 66  1  0
 66 67  1  0
 14 68  1  0
 68 69  1  0
 68 70  1  0
 68 71  1  0
 71 72  1  0
 71 73  1  0
  9  2  1  0
 66 15  1  0
 71  7  1  0
 45 35  1  0
 63 50  1  0
M  CHG  2  18   1  57   1
M  END
>  <UniqueID>  (43) 
482

>  <SMILES>  (43) 
c1ccc2c(c1)CCN(c1n/c(=[NH+]\CCCCCN3CCCC3)nc(N3CC[NH2+]CC3)[nH]1)C2

>  <Energy>  (43) 
81.83170711428579

>  <Genealogy>  (43) 
c1ccc2c(c1)CCN(c1nc([NH2+]CCCCCN3CCCC3)nc(N3CC[NH2+]CC3)n1)C2 (protonated)
c1ccc2c(c1)CCN(c1nc(=[NH+]CCCCCN3CCCC3)nc(N3CC[NH2+]CC3)[nH]1)C2 (tautomer)
c1ccc2c(c1)CCN(c1n/c(=[NH+]\CCCCCN3CCCC3)nc(N3CC[NH2+]CC3)[nH]1)C2 (cis-trans isomerization)
c1ccc2c(c1)CCN(c1n/c(=[NH+]\CCCCCN3CCCC3)nc(N3CC[NH2+]CC3)[nH]1)C2 (3D coordinates assigned)
c1ccc2c(c1)CCN(c1n/c(=[NH+]\CCCCCN3CCCC3)nc(N3CC[NH2+]CC3)[nH]1)C2 (nonaromatic ring conformer: 81.83170711428579 kcal/mol)

>  <smiles>  (43) 
c1ccc2c(c1)CCN(c1nc(NCCCCCN3CCCC3)nc(N3CCNCC3)n1)C2

>  <score_type>  (43) 
oracle

>  <origin>  (43) 
autodockgpu

>  <m_score__min__energy>  (43) 
-9.7300000000000004

>  <m_primary>  (43) 
energy

>  <meeko>  (43) 
{"free_energy": -7.03, "intermolecular_energy": -9.71, "internal_energy": -2.25, "cluster_size": 1, "cluster_id": 7, "rank_in_cluster": 1}

>  <energy>  (43) 
-8.65

>  <cluster_rmsd>  (43) 
0.0

>  <rmsd>  (43) 
271.29

>  <cluster>  (43) 
2

$$$$
MTUVCRSRZGPGQU-NMOKVYIGNA-P
     RDKit          3D

 73 77  0  0  0  0  0  0  0  0999 V2000
  141.1456   69.3303  228.2999 H   0  0  0  0  0  0  0  0  0  0  0  0
  140.6990   69.2480  227.2980 C   0  0  0  0  0  0  0  0  0  0  0  0
  140.5210   67.9900  226.7150 C   0  0  0  0  0  0  0  0  0  0  0  0
  140.8292   67.0849  227.2588 H   0  0  0  0  0  0  0  0  0  0  0  0
  139.9520   67.8790  225.4420 C   0  0  0  0  0  0  0  0  0  0  0  0
  139.8003   66.8869  224.9917 H   0  0  0  0  0  0  0  0  0  0  0  0
  139.5750   69.0330  224.7400 C   0  0  0  0  0  0  0  0  0  0  0  0
  139.7520   70.2960  225.3280 C   0  0  0  0  0  0  0  0  0  0  0  0
  140.3110   70.4010  226.6110 C   0  0  0  0  0  0  0  0  0  0  0  0
  140.4435   71.3895  227.0750 H   0  0  0  0  0  0  0  0  0  0  0  0
  139.3020   71.5050  224.5630 C   0  0  0  0  0  0  0  0  0  0  0  0
  139.7986   72.4001  224.9658 H   0  0  0  0  0  0  0  0  0  0  0  0
  138.2120   71.6167  224.6601 H   0  0  0  0  0  0  0  0  0  0  0  0
  139.6560   71.3440  223.1410 N   0  0  0  0  0  0  0  0  0  0  0  0
  140.3680   72.3960  222.4590 C   0  0  0  0  0  0  0  0  0  0  0  0
  139.9410   73.6780  222.5780 N   0  0  0  0  0  0  0  0  0  0  0  0
  140.5790   74.6890  221.9360 C   0  0  0  0  0  0  0  0  0  0  0  0
  140.1630   75.9200  222.0470 N   0  0  0  0  0  0  0  0  0  0  0  0
  140.8500   76.6660  222.3030 H   0  0  0  0  0  0  0  0  0  0  0  0
  138.7550   76.3150  221.9180 C   0  0  0  0  0  0  0  0  0  0  0  0
  138.1177   75.4391  222.1095 H   0  0  0  0  0  0  0  0  0  0  0  0
  138.5486   77.1119  222.6476 H   0  0  0  0  0  0  0  0  0  0  0  0
  138.4560   76.8540  220.5120 C   0  0  0  0  0  0  0  0  0  0  0  0
  138.0797   76.0329  219.8841 H   0  0  0  0  0  0  0  0  0  0  0  0
  137.7027   77.6513  220.5944 H   0  0  0  0  0  0  0  0  0  0  0  0
  139.7220   77.4400  219.8680 C   0  0  0  0  0  0  0  0  0  0  0  0
  140.5447   76.7202  219.9902 H   0  0  0  0  0  0  0  0  0  0  0  0
  139.4998   77.6266  218.8070 H   0  0  0  0  0  0  0  0  0  0  0  0
  140.1410   78.7770  220.4970 C   0  0  0  0  0  0  0  0  0  0  0  0
  140.0843   79.5602  219.7267 H   0  0  0  0  0  0  0  0  0  0  0  0
  139.4567   78.9762  221.3349 H   0  0  0  0  0  0  0  0  0  0  0  0
  141.5700   78.7500  221.0650 C   0  0  0  0  0  0  0  0  0  0  0  0
  142.1067   77.8813  220.6560 H   0  0  0  0  0  0  0  0  0  0  0  0
  142.0856   79.6793  220.7811 H   0  0  0  0  0  0  0  0  0  0  0  0
  141.5340   78.6510  222.5410 N   0  0  0  0  0  0  0  0  0  0  0  0
  140.2880   79.2080  223.0930 C   0  0  0  0  0  0  0  0  0  0  0  0
  139.4901   79.1552  222.3376 H   0  0  0  0  0  0  0  0  0  0  0  0
  139.9747   78.6334  223.9771 H   0  0  0  0  0  0  0  0  0  0  0  0
  140.5420   80.6620  223.4740 C   0  0  0  0  0  0  0  0  0  0  0  0
  140.0414   81.3378  222.7651 H   0  0  0  0  0  0  0  0  0  0  0  0
  140.1478   80.8957  224.4740 H   0  0  0  0  0  0  0  0  0  0  0  0
  142.0450   80.8440  223.4070 C   0  0  0  0  0  0  0  0  0  0  0  0
  142.3156   81.5223  222.5844 H   0  0  0  0  0  0  0  0  0  0  0  0
  142.4479   81.2888  224.3289 H   0  0  0  0  0  0  0  0  0  0  0  0
  142.6010   79.4530  223.1560 C   0  0  0  0  0  0  0  0  0  0  0  0
  143.4647   79.5114  222.4773 H   0  0  0  0  0  0  0  0  0  0  0  0
  142.9336   78.9945  224.0990 H   0  0  0  0  0  0  0  0  0  0  0  0
  141.6650   74.4080  221.1730 N   0  0  0  0  0  0  0  0  0  0  0  0
  142.1230   73.1330  221.0500 C   0  0  0  0  0  0  0  0  0  0  0  0
  143.2830   72.8630  220.2280 N   0  0  0  0  0  0  0  0  0  0  0  0
  144.6020   72.6410  220.8400 C   0  0  0  0  0  0  0  0  0  0  0  0
  144.5674   72.9608  221.8919 H   0  0  0  0  0  0  0  0  0  0  0  0
  144.8432   71.5703  220.7667 H   0  0  0  0  0  0  0  0  0  0  0  0
  145.7020   73.4400  220.1070 C   0  0  0  0  0  0  0  0  0  0  0  0
  145.8686   74.3817  220.6505 H   0  0  0  0  0  0  0  0  0  0  0  0
  146.6006   72.8060  220.0841 H   0  0  0  0  0  0  0  0  0  0  0  0
  145.3630   73.7630  218.7050 N   0  0  0  0  0  0  0  0  0  0  0  0
  146.2490   73.8560  218.1530 H   0  0  0  0  0  0  0  0  0  0  0  0
  144.8660   74.6850  218.6700 H   0  0  0  0  0  0  0  0  0  0  0  0
  144.5200   72.7340  218.0840 C   0  0  0  0  0  0  0  0  0  0  0  0
  144.3835   72.9693  217.0182 H   0  0  0  0  0  0  0  0  0  0  0  0
  145.0088   71.7543  218.1901 H   0  0  0  0  0  0  0  0  0  0  0  0
  143.1510   72.6910  218.7740 C   0  0  0  0  0  0  0  0  0  0  0  0
  142.5214   73.4989  218.3728 H   0  0  0  0  0  0  0  0  0  0  0  0
  142.6935   71.7098  218.5794 H   0  0  0  0  0  0  0  0  0  0  0  0
  141.4670   72.1250  221.7000 N   0  0  0  0  0  0  0  0  0  0  0  0
  141.7970   71.1410  221.6140 H   0  0  0  0  0  0  0  0  0  0  0  0
  139.4130   70.0610  222.4490 C   0  0  0  0  0  0  0  0  0  0  0  0
  140.3547   69.7277  221.9884 H   0  0  0  0  0  0  0  0  0  0  0  0
  138.6274   70.2363  221.6993 H   0  0  0  0  0  0  0  0  0  0  0  0
  138.9090   68.9520  223.3920 C   0  0  0  0  0  0  0  0  0  0  0  0
  139.1289   67.9725  222.9424 H   0  0  0  0  0  0  0  0  0  0  0  0
  137.8258   69.0825  223.5324 H   0  0  0  0  0  0  0  0  0  0  0  0
  1  2  1  0
  2  3  2  0
  3  4  1  0
  3  5  1  0
  5  6  1  0
  5  7  2  0
  7  8  1  0
  8  9  2  0
  9 10  1  0
  8 11  1  0
 11 12  1  0
 11 13  1  0
 11 14  1  0
 14 15  1  0
 15 16  2  0
 16 17  1  0
 17 18  2  0
 18 19  1  0
 18 20  1  0
 20 21  1  0
 20 22  1  0
 20 23  1  0
 23 24  1  0
 23 25  1  0
 23 26  1  0
 26 27  1  0
 26 28  1  0
 26 29  1  0
 29 30  1  0
 29 31  1  0
 29 32  1  0
 32 33  1  0
 32 34  1  0
 32 35  1  0
 35 36  1  0
 36 37  1  0
 36 38  1  0
 36 39  1  0
 39 40  1  0
 39 41  1  0
 39 42  1  0
 42 43  1  0
 42 44  1  0
 42 45  1  0
 45 46  1  0
 45 47  1  0
 17 48  1  0
 48 49  2  0
 49 50  1  0
 50 51  1  0
 51 52  1  0
 51 53  1  0
 51 54  1  0
 54 55  1  0
 54 56  1  0
 54 57  1  0
 57 58  1  0
 57 59  1  0
 57 60  1  0
 60 61  1  0
 60 62  1  0
 60 63  1  0
 63 64  1  0
 63 65  1  0
 49 66  1  0
 66 67  1  0
 14 68  1  0
 68 69  1  0
 68 70  1  0
 68 71  1  0
 71 72  1  0
 71 73  1  0
  9  2  1  0
 66 15  1  0
 71  7  1  0
 45 35  1  0
 63 50  1  0
M  CHG  2  18   1  57   1
M  END
>  <UniqueID>  (44) 
482

>  <SMILES>  (44) 
c1ccc2c(c1)CCN(c1n/c(=[NH+]\CCCCCN3CCCC3)nc(N3CC[NH2+]CC3)[nH]1)C2

>  <Energy>  (44) 
81.83170711428579

>  <Genealogy>  (44) 
c1ccc2c(c1)CCN(c1nc([NH2+]CCCCCN3CCCC3)nc(N3CC[NH2+]CC3)n1)C2 (protonated)
c1ccc2c(c1)CCN(c1nc(=[NH+]CCCCCN3CCCC3)nc(N3CC[NH2+]CC3)[nH]1)C2 (tautomer)
c1ccc2c(c1)CCN(c1n/c(=[NH+]\CCCCCN3CCCC3)nc(N3CC[NH2+]CC3)[nH]1)C2 (cis-trans isomerization)
c1ccc2c(c1)CCN(c1n/c(=[NH+]\CCCCCN3CCCC3)nc(N3CC[NH2+]CC3)[nH]1)C2 (3D coordinates assigned)
c1ccc2c(c1)CCN(c1n/c(=[NH+]\CCCCCN3CCCC3)nc(N3CC[NH2+]CC3)[nH]1)C2 (nonaromatic ring conformer: 81.83170711428579 kcal/mol)

>  <smiles>  (44) 
c1ccc2c(c1)CCN(c1nc(NCCCCCN3CCCC3)nc(N3CCNCC3)n1)C2

>  <score_type>  (44) 
oracle

>  <origin>  (44) 
autodockgpu

>  <m_score__min__energy>  (44) 
-9.7300000000000004

>  <m_primary>  (44) 
energy

>  <meeko>  (44) 
{"free_energy": -7.55, "intermolecular_energy": -10.23, "internal_energy": -1.46, "cluster_size": 4, "cluster_id": 5, "rank_in_cluster": 2}

>  <energy>  (44) 
-8.35

>  <cluster_rmsd>  (44) 
0.0

>  <rmsd>  (44) 
270.54

>  <cluster>  (44) 
3

$$$$
MTUVCRSRZGPGQU-NMOKVYIGNA-P
     RDKit          3D

 73 77  0  0  0  0  0  0  0  0999 V2000
  143.6813   80.7468  223.0887 H   0  0  0  0  0  0  0  0  0  0  0  0
  142.7070   80.2390  223.0350 C   0  0  0  0  0  0  0  0  0  0  0  0
  141.6730   80.6200  223.8970 C   0  0  0  0  0  0  0  0  0  0  0  0
  141.8369   81.4257  224.6278 H   0  0  0  0  0  0  0  0  0  0  0  0
  140.4310   79.9790  223.8320 C   0  0  0  0  0  0  0  0  0  0  0  0
  139.6154   80.2895  224.5016 H   0  0  0  0  0  0  0  0  0  0  0  0
  140.2270   78.9400  222.9120 C   0  0  0  0  0  0  0  0  0  0  0  0
  141.2650   78.5610  222.0450 C   0  0  0  0  0  0  0  0  0  0  0  0
  142.5050   79.2150  222.1060 C   0  0  0  0  0  0  0  0  0  0  0  0
  143.3166   78.9221  221.4237 H   0  0  0  0  0  0  0  0  0  0  0  0
  140.9970   77.4710  221.0510 C   0  0  0  0  0  0  0  0  0  0  0  0
  141.9515   77.0537  220.6978 H   0  0  0  0  0  0  0  0  0  0  0  0
  140.4388   77.8820  220.1968 H   0  0  0  0  0  0  0  0  0  0  0  0
  140.2030   76.4080  221.6920 N   0  0  0  0  0  0  0  0  0  0  0  0
  140.6360   75.0360  221.5950 C   0  0  0  0  0  0  0  0  0  0  0  0
  139.8330   74.0460  222.0600 N   0  0  0  0  0  0  0  0  0  0  0  0
  140.2190   72.7470  221.9970 C   0  0  0  0  0  0  0  0  0  0  0  0
  139.4480   71.7980  222.4500 N   0  0  0  0  0  0  0  0  0  0  0  0
  138.7980   71.3140  221.7880 H   0  0  0  0  0  0  0  0  0  0  0  0
  139.3720   71.4210  223.8660 C   0  0  0  0  0  0  0  0  0  0  0  0
  140.1319   70.6534  224.0741 H   0  0  0  0  0  0  0  0  0  0  0  0
  139.5505   72.3193  224.4753 H   0  0  0  0  0  0  0  0  0  0  0  0
  137.9860   70.8620  224.2190 C   0  0  0  0  0  0  0  0  0  0  0  0
  137.5143   71.5153  224.9678 H   0  0  0  0  0  0  0  0  0  0  0  0
  137.3782   70.8258  223.3029 H   0  0  0  0  0  0  0  0  0  0  0  0
  138.0970   69.4390  224.7910 C   0  0  0  0  0  0  0  0  0  0  0  0
  137.0897   69.0871  225.0583 H   0  0  0  0  0  0  0  0  0  0  0  0
  138.5566   68.8042  224.0191 H   0  0  0  0  0  0  0  0  0  0  0  0
  138.9890   69.3730  226.0400 C   0  0  0  0  0  0  0  0  0  0  0  0
  139.0760   70.3848  226.4628 H   0  0  0  0  0  0  0  0  0  0  0  0
  138.5172   68.6731  226.7454 H   0  0  0  0  0  0  0  0  0  0  0  0
  140.4000   68.8440  225.7410 C   0  0  0  0  0  0  0  0  0  0  0  0
  140.4245   67.7580  225.9144 H   0  0  0  0  0  0  0  0  0  0  0  0
  140.6496   69.0645  224.6926 H   0  0  0  0  0  0  0  0  0  0  0  0
  141.3930   69.5010  226.6200 N   0  0  0  0  0  0  0  0  0  0  0  0
  140.8350   69.7840  227.9530 C   0  0  0  0  0  0  0  0  0  0  0  0
  140.0183   69.0803  228.1715 H   0  0  0  0  0  0  0  0  0  0  0  0
  141.6134   69.6702  228.7219 H   0  0  0  0  0  0  0  0  0  0  0  0
  140.3000   71.2110  227.9540 C   0  0  0  0  0  0  0  0  0  0  0  0
  139.2000   71.2086  227.9503 H   0  0  0  0  0  0  0  0  0  0  0  0
  140.6175   71.7640  228.8503 H   0  0  0  0  0  0  0  0  0  0  0  0
  140.8320   71.8470  226.6850 C   0  0  0  0  0  0  0  0  0  0  0  0
  140.0101   72.0597  225.9855 H   0  0  0  0  0  0  0  0  0  0  0  0
  141.3339   72.8056  226.8829 H   0  0  0  0  0  0  0  0  0  0  0  0
  141.7810   70.8180  226.0960 C   0  0  0  0  0  0  0  0  0  0  0  0
  141.7040   70.8222  224.9987 H   0  0  0  0  0  0  0  0  0  0  0  0
  142.8205   71.0509  226.3704 H   0  0  0  0  0  0  0  0  0  0  0  0
  141.4230   72.4390  221.4520 N   0  0  0  0  0  0  0  0  0  0  0  0
  142.2400   73.4120  220.9660 C   0  0  0  0  0  0  0  0  0  0  0  0
  143.5200   73.0530  220.3920 N   0  0  0  0  0  0  0  0  0  0  0  0
  144.7450   73.0900  221.2050 C   0  0  0  0  0  0  0  0  0  0  0  0
  144.5423   73.6440  222.1334 H   0  0  0  0  0  0  0  0  0  0  0  0
  145.0458   72.0555  221.4270 H   0  0  0  0  0  0  0  0  0  0  0  0
  145.9000   73.7820  220.4480 C   0  0  0  0  0  0  0  0  0  0  0  0
  145.9402   74.8354  220.7623 H   0  0  0  0  0  0  0  0  0  0  0  0
  146.8221   73.2363  220.6969 H   0  0  0  0  0  0  0  0  0  0  0  0
  145.7530   73.7380  218.9790 N   0  0  0  0  0  0  0  0  0  0  0  0
  146.7040   73.7720  218.5400 H   0  0  0  0  0  0  0  0  0  0  0  0
  145.2220   74.5830  218.6560 H   0  0  0  0  0  0  0  0  0  0  0  0
  145.0600   72.5270  218.5220 C   0  0  0  0  0  0  0  0  0  0  0  0
  145.0685   72.4952  217.4225 H   0  0  0  0  0  0  0  0  0  0  0  0
  145.5750   71.6422  218.9243 H   0  0  0  0  0  0  0  0  0  0  0  0
  143.6090   72.5350  219.0190 C   0  0  0  0  0  0  0  0  0  0  0  0
  143.0060   73.1721  218.3554 H   0  0  0  0  0  0  0  0  0  0  0  0
  143.2327   71.5014  219.0117 H   0  0  0  0  0  0  0  0  0  0  0  0
  141.8390   74.7160  221.0390 N   0  0  0  0  0  0  0  0  0  0  0  0
  142.4520   75.4770  220.6780 H   0  0  0  0  0  0  0  0  0  0  0  0
  139.0460   76.7480  222.5460 C   0  0  0  0  0  0  0  0  0  0  0  0
  139.1759   76.2587  223.5226 H   0  0  0  0  0  0  0  0  0  0  0  0
  138.1413   76.3982  222.0273 H   0  0  0  0  0  0  0  0  0  0  0  0
  138.8880   78.2640  222.7740 C   0  0  0  0  0  0  0  0  0  0  0  0
  138.3069   78.4293  223.6932 H   0  0  0  0  0  0  0  0  0  0  0  0
  138.3706   78.6936  221.9035 H   0  0  0  0  0  0  0  0  0  0  0  0
  1  2  1  0
  2  3  2  0
  3  4  1  0
  3  5  1  0
  5  6  1  0
  5  7  2  0
  7  8  1  0
  8  9  2  0
  9 10  1  0
  8 11  1  0
 11 12  1  0
 11 13  1  0
 11 14  1  0
 14 15  1  0
 15 16  2  0
 16 17  1  0
 17 18  2  0
 18 19  1  0
 18 20  1  0
 20 21  1  0
 20 22  1  0
 20 23  1  0
 23 24  1  0
 23 25  1  0
 23 26  1  0
 26 27  1  0
 26 28  1  0
 26 29  1  0
 29 30  1  0
 29 31  1  0
 29 32  1  0
 32 33  1  0
 32 34  1  0
 32 35  1  0
 35 36  1  0
 36 37  1  0
 36 38  1  0
 36 39  1  0
 39 40  1  0
 39 41  1  0
 39 42  1  0
 42 43  1  0
 42 44  1  0
 42 45  1  0
 45 46  1  0
 45 47  1  0
 17 48  1  0
 48 49  2  0
 49 50  1  0
 50 51  1  0
 51 52  1  0
 51 53  1  0
 51 54  1  0
 54 55  1  0
 54 56  1  0
 54 57  1  0
 57 58  1  0
 57 59  1  0
 57 60  1  0
 60 61  1  0
 60 62  1  0
 60 63  1  0
 63 64  1  0
 63 65  1  0
 49 66  1  0
 66 67  1  0
 14 68  1  0
 68 69  1  0
 68 70  1  0
 68 71  1  0
 71 72  1  0
 71 73  1  0
  9  2  1  0
 66 15  1  0
 71  7  1  0
 45 35  1  0
 63 50  1  0
M  CHG  2  18   1  57   1
M  END
>  <UniqueID>  (45) 
482

>  <SMILES>  (45) 
c1ccc2c(c1)CCN(c1n/c(=[NH+]\CCCCCN3CCCC3)nc(N3CC[NH2+]CC3)[nH]1)C2

>  <Energy>  (45) 
81.83170711428579

>  <Genealogy>  (45) 
c1ccc2c(c1)CCN(c1nc([NH2+]CCCCCN3CCCC3)nc(N3CC[NH2+]CC3)n1)C2 (protonated)
c1ccc2c(c1)CCN(c1nc(=[NH+]CCCCCN3CCCC3)nc(N3CC[NH2+]CC3)[nH]1)C2 (tautomer)
c1ccc2c(c1)CCN(c1n/c(=[NH+]\CCCCCN3CCCC3)nc(N3CC[NH2+]CC3)[nH]1)C2 (cis-trans isomerization)
c1ccc2c(c1)CCN(c1n/c(=[NH+]\CCCCCN3CCCC3)nc(N3CC[NH2+]CC3)[nH]1)C2 (3D coordinates assigned)
c1ccc2c(c1)CCN(c1n/c(=[NH+]\CCCCCN3CCCC3)nc(N3CC[NH2+]CC3)[nH]1)C2 (nonaromatic ring conformer: 81.83170711428579 kcal/mol)

>  <smiles>  (45) 
c1ccc2c(c1)CCN(c1nc(NCCCCCN3CCCC3)nc(N3CCNCC3)n1)C2

>  <score_type>  (45) 
oracle

>  <origin>  (45) 
autodockgpu

>  <m_score__min__energy>  (45) 
-9.7300000000000004

>  <m_primary>  (45) 
energy

>  <meeko>  (45) 
{"free_energy": -8.74, "intermolecular_energy": -11.42, "internal_energy": -0.34, "cluster_size": 2, "cluster_id": 1, "rank_in_cluster": 2}

>  <energy>  (45) 
-8.25

>  <cluster_rmsd>  (45) 
0.9

>  <rmsd>  (45) 
270.89

>  <cluster>  (45) 
3

$$$$
MTUVCRSRZGPGQU-NMOKVYIGNA-P
     RDKit          3D

 73 77  0  0  0  0  0  0  0  0999 V2000
  138.5584   73.3697  220.5151 H   0  0  0  0  0  0  0  0  0  0  0  0
  139.5860   73.7020  220.3060 C   0  0  0  0  0  0  0  0  0  0  0  0
  140.6650   73.0660  220.9280 C   0  0  0  0  0  0  0  0  0  0  0  0
  140.4843   72.2354  221.6262 H   0  0  0  0  0  0  0  0  0  0  0  0
  141.9740   73.4840  220.6640 C   0  0  0  0  0  0  0  0  0  0  0  0
  142.8218   72.9731  221.1438 H   0  0  0  0  0  0  0  0  0  0  0  0
  142.2050   74.5540  219.7880 C   0  0  0  0  0  0  0  0  0  0  0  0
  141.1200   75.1890  219.1620 C   0  0  0  0  0  0  0  0  0  0  0  0
  139.8100   74.7580  219.4200 C   0  0  0  0  0  0  0  0  0  0  0  0
  138.9604   75.2512  218.9250 H   0  0  0  0  0  0  0  0  0  0  0  0
  141.4090   76.3050  218.2030 C   0  0  0  0  0  0  0  0  0  0  0  0
  140.5036   76.9145  218.0659 H   0  0  0  0  0  0  0  0  0  0  0  0
  141.7184   75.8855  217.2343 H   0  0  0  0  0  0  0  0  0  0  0  0
  142.4910   77.1470  218.7420 N   0  0  0  0  0  0  0  0  0  0  0  0
  142.3150   78.5760  218.8140 C   0  0  0  0  0  0  0  0  0  0  0  0
  141.7690   79.1280  219.9270 N   0  0  0  0  0  0  0  0  0  0  0  0
  141.5770   80.4680  220.0190 C   0  0  0  0  0  0  0  0  0  0  0  0
  141.0460   80.9950  221.0880 N   0  0  0  0  0  0  0  0  0  0  0  0
  140.0680   80.7300  221.3510 H   0  0  0  0  0  0  0  0  0  0  0  0
  141.7120   82.0150  221.9060 C   0  0  0  0  0  0  0  0  0  0  0  0
  142.7234   82.1886  221.5097 H   0  0  0  0  0  0  0  0  0  0  0  0
  141.1156   82.9384  221.8650 H   0  0  0  0  0  0  0  0  0  0  0  0
  141.8180   81.5690  223.3720 C   0  0  0  0  0  0  0  0  0  0  0  0
  142.3101   82.3616  223.9548 H   0  0  0  0  0  0  0  0  0  0  0  0
  140.8044   81.3821  223.7564 H   0  0  0  0  0  0  0  0  0  0  0  0
  142.6360   80.2730  223.4940 C   0  0  0  0  0  0  0  0  0  0  0  0
  143.0637   80.0322  222.5096 H   0  0  0  0  0  0  0  0  0  0  0  0
  143.4204   80.4434  224.2461 H   0  0  0  0  0  0  0  0  0  0  0  0
  141.7880   79.0820  223.9670 C   0  0  0  0  0  0  0  0  0  0  0  0
  142.1806   78.1653  223.5028 H   0  0  0  0  0  0  0  0  0  0  0  0
  141.8533   79.0456  225.0645 H   0  0  0  0  0  0  0  0  0  0  0  0
  140.3030   79.2210  223.5980 C   0  0  0  0  0  0  0  0  0  0  0  0
  139.6973   78.6339  224.3040 H   0  0  0  0  0  0  0  0  0  0  0  0
  140.0197   80.2826  223.6499 H   0  0  0  0  0  0  0  0  0  0  0  0
  140.0660   78.7270  222.2240 N   0  0  0  0  0  0  0  0  0  0  0  0
  138.6400   78.4500  221.9840 C   0  0  0  0  0  0  0  0  0  0  0  0
  138.0232   79.0653  222.6555 H   0  0  0  0  0  0  0  0  0  0  0  0
  138.3765   78.6915  220.9437 H   0  0  0  0  0  0  0  0  0  0  0  0
  138.3870   76.9720  222.2610 C   0  0  0  0  0  0  0  0  0  0  0  0
  137.8267   76.8474  223.1994 H   0  0  0  0  0  0  0  0  0  0  0  0
  137.7883   76.5049  221.4651 H   0  0  0  0  0  0  0  0  0  0  0  0
  139.7600   76.3390  222.3760 C   0  0  0  0  0  0  0  0  0  0  0  0
  139.9438   75.9997  223.4061 H   0  0  0  0  0  0  0  0  0  0  0  0
  139.8619   75.4551  221.7293 H   0  0  0  0  0  0  0  0  0  0  0  0
  140.7350   77.4380  221.9950 C   0  0  0  0  0  0  0  0  0  0  0  0
  141.6393   77.3692  222.6176 H   0  0  0  0  0  0  0  0  0  0  0  0
  141.0334   77.3403  220.9408 H   0  0  0  0  0  0  0  0  0  0  0  0
  141.9460   81.2630  218.9840 N   0  0  0  0  0  0  0  0  0  0  0  0
  142.5090   80.7360  217.8630 C   0  0  0  0  0  0  0  0  0  0  0  0
  142.8910   81.6100  216.7740 N   0  0  0  0  0  0  0  0  0  0  0  0
  142.0930   81.6650  215.5390 C   0  0  0  0  0  0  0  0  0  0  0  0
  141.4024   80.8090  215.5200 H   0  0  0  0  0  0  0  0  0  0  0  0
  141.5366   82.6138  215.5268 H   0  0  0  0  0  0  0  0  0  0  0  0
  142.9950   81.6120  214.2860 C   0  0  0  0  0  0  0  0  0  0  0  0
  143.0397   80.5711  213.9332 H   0  0  0  0  0  0  0  0  0  0  0  0
  142.5513   82.2874  213.5397 H   0  0  0  0  0  0  0  0  0  0  0  0
  144.3740   82.0820  214.5310 N   0  0  0  0  0  0  0  0  0  0  0  0
  144.7680   82.4630  213.6380 H   0  0  0  0  0  0  0  0  0  0  0  0
  144.9720   81.2720  214.8230 H   0  0  0  0  0  0  0  0  0  0  0  0
  144.4350   83.1240  215.5630 C   0  0  0  0  0  0  0  0  0  0  0  0
  145.4634   83.5081  215.6325 H   0  0  0  0  0  0  0  0  0  0  0  0
  143.7493   83.9405  215.2927 H   0  0  0  0  0  0  0  0  0  0  0  0
  144.0170   82.5440  216.9190 C   0  0  0  0  0  0  0  0  0  0  0  0
  144.8717   82.0098  217.3595 H   0  0  0  0  0  0  0  0  0  0  0  0
  143.7003   83.3727  217.5693 H   0  0  0  0  0  0  0  0  0  0  0  0
  142.6940   79.3840  217.7830 N   0  0  0  0  0  0  0  0  0  0  0  0
  143.1170   78.9600  216.9320 H   0  0  0  0  0  0  0  0  0  0  0  0
  143.6950   76.5300  219.3360 C   0  0  0  0  0  0  0  0  0  0  0  0
  143.8351   76.9388  220.3475 H   0  0  0  0  0  0  0  0  0  0  0  0
  144.5432   76.7643  218.6759 H   0  0  0  0  0  0  0  0  0  0  0  0
  143.6010   74.9960  219.4360 C   0  0  0  0  0  0  0  0  0  0  0  0
  144.2947   74.6447  220.2140 H   0  0  0  0  0  0  0  0  0  0  0  0
  143.8638   74.5680  218.4574 H   0  0  0  0  0  0  0  0  0  0  0  0
  1  2  1  0
  2  3  2  0
  3  4  1  0
  3  5  1  0
  5  6  1  0
  5  7  2  0
  7  8  1  0
  8  9  2  0
  9 10  1  0
  8 11  1  0
 11 12  1  0
 11 13  1  0
 11 14  1  0
 14 15  1  0
 15 16  2  0
 16 17  1  0
 17 18  2  0
 18 19  1  0
 18 20  1  0
 20 21  1  0
 20 22  1  0
 20 23  1  0
 23 24  1  0
 23 25  1  0
 23 26  1  0
 26 27  1  0
 26 28  1  0
 26 29  1  0
 29 30  1  0
 29 31  1  0
 29 32  1  0
 32 33  1  0
 32 34  1  0
 32 35  1  0
 35 36  1  0
 36 37  1  0
 36 38  1  0
 36 39  1  0
 39 40  1  0
 39 41  1  0
 39 42  1  0
 42 43  1  0
 42 44  1  0
 42 45  1  0
 45 46  1  0
 45 47  1  0
 17 48  1  0
 48 49  2  0
 49 50  1  0
 50 51  1  0
 51 52  1  0
 51 53  1  0
 51 54  1  0
 54 55  1  0
 54 56  1  0
 54 57  1  0
 57 58  1  0
 57 59  1  0
 57 60  1  0
 60 61  1  0
 60 62  1  0
 60 63  1  0
 63 64  1  0
 63 65  1  0
 49 66  1  0
 66 67  1  0
 14 68  1  0
 68 69  1  0
 68 70  1  0
 68 71  1  0
 71 72  1  0
 71 73  1  0
  9  2  1  0
 66 15  1  0
 71  7  1  0
 45 35  1  0
 63 50  1  0
M  CHG  2  18   1  57   1
M  END
>  <UniqueID>  (46) 
482

>  <SMILES>  (46) 
c1ccc2c(c1)CCN(c1n/c(=[NH+]\CCCCCN3CCCC3)nc(N3CC[NH2+]CC3)[nH]1)C2

>  <Energy>  (46) 
81.83170711428579

>  <Genealogy>  (46) 
c1ccc2c(c1)CCN(c1nc([NH2+]CCCCCN3CCCC3)nc(N3CC[NH2+]CC3)n1)C2 (protonated)
c1ccc2c(c1)CCN(c1nc(=[NH+]CCCCCN3CCCC3)nc(N3CC[NH2+]CC3)[nH]1)C2 (tautomer)
c1ccc2c(c1)CCN(c1n/c(=[NH+]\CCCCCN3CCCC3)nc(N3CC[NH2+]CC3)[nH]1)C2 (cis-trans isomerization)
c1ccc2c(c1)CCN(c1n/c(=[NH+]\CCCCCN3CCCC3)nc(N3CC[NH2+]CC3)[nH]1)C2 (3D coordinates assigned)
c1ccc2c(c1)CCN(c1n/c(=[NH+]\CCCCCN3CCCC3)nc(N3CC[NH2+]CC3)[nH]1)C2 (nonaromatic ring conformer: 81.83170711428579 kcal/mol)

>  <smiles>  (46) 
c1ccc2c(c1)CCN(c1nc(NCCCCCN3CCCC3)nc(N3CCNCC3)n1)C2

>  <score_type>  (46) 
oracle

>  <origin>  (46) 
autodockgpu

>  <m_score__min__energy>  (46) 
-9.7300000000000004

>  <m_primary>  (46) 
energy

>  <meeko>  (46) 
{"free_energy": -7.52, "intermolecular_energy": -10.21, "internal_energy": -2.45, "cluster_size": 8, "cluster_id": 3, "rank_in_cluster": 8}

>  <energy>  (46) 
-8.22

>  <cluster_rmsd>  (46) 
1.43

>  <rmsd>  (46) 
270.96

>  <cluster>  (46) 
3

$$$$
MTUVCRSRZGPGQU-NMOKVYIGNA-P
     RDKit          3D

 73 77  0  0  0  0  0  0  0  0999 V2000
  145.7735   73.4217  221.2294 H   0  0  0  0  0  0  0  0  0  0  0  0
  145.2200   73.7520  220.3380 C   0  0  0  0  0  0  0  0  0  0  0  0
  145.5640   73.2520  219.0780 C   0  0  0  0  0  0  0  0  0  0  0  0
  146.3883   72.5302  218.9809 H   0  0  0  0  0  0  0  0  0  0  0  0
  144.8630   73.6670  217.9410 C   0  0  0  0  0  0  0  0  0  0  0  0
  145.1268   73.2616  216.9530 H   0  0  0  0  0  0  0  0  0  0  0  0
  143.8230   74.6010  218.0620 C   0  0  0  0  0  0  0  0  0  0  0  0
  143.4760   75.0990  219.3280 C   0  0  0  0  0  0  0  0  0  0  0  0
  144.1750   74.6700  220.4670 C   0  0  0  0  0  0  0  0  0  0  0  0
  143.9004   75.0561  221.4597 H   0  0  0  0  0  0  0  0  0  0  0  0
  142.3350   76.0670  219.4220 C   0  0  0  0  0  0  0  0  0  0  0  0
  142.3996   76.6193  220.3711 H   0  0  0  0  0  0  0  0  0  0  0  0
  141.3829   75.5175  219.3825 H   0  0  0  0  0  0  0  0  0  0  0  0
  142.4030   77.0150  218.2960 N   0  0  0  0  0  0  0  0  0  0  0  0
  142.3340   78.4330  218.5510 C   0  0  0  0  0  0  0  0  0  0  0  0
  141.9240   78.8750  219.7660 N   0  0  0  0  0  0  0  0  0  0  0  0
  141.8340   80.2020  220.0310 C   0  0  0  0  0  0  0  0  0  0  0  0
  141.4330   80.6250  221.1990 N   0  0  0  0  0  0  0  0  0  0  0  0
  140.4190   80.8440  221.3370 H   0  0  0  0  0  0  0  0  0  0  0  0
  142.3410   80.8980  222.3190 C   0  0  0  0  0  0  0  0  0  0  0  0
  143.1723   81.5239  221.9624 H   0  0  0  0  0  0  0  0  0  0  0  0
  141.7753   81.4162  223.1073 H   0  0  0  0  0  0  0  0  0  0  0  0
  142.9090   79.5970  222.9040 C   0  0  0  0  0  0  0  0  0  0  0  0
  143.3117   78.9804  222.0869 H   0  0  0  0  0  0  0  0  0  0  0  0
  143.7035   79.8516  223.6209 H   0  0  0  0  0  0  0  0  0  0  0  0
  141.8170   78.8040  223.6420 C   0  0  0  0  0  0  0  0  0  0  0  0
  142.2978   78.1471  224.3818 H   0  0  0  0  0  0  0  0  0  0  0  0
  141.1440   79.5304  224.1211 H   0  0  0  0  0  0  0  0  0  0  0  0
  140.9710   77.9410  222.6940 C   0  0  0  0  0  0  0  0  0  0  0  0
  141.3065   78.1214  221.6621 H   0  0  0  0  0  0  0  0  0  0  0  0
  141.1090   76.8913  222.9924 H   0  0  0  0  0  0  0  0  0  0  0  0
  139.4680   78.2510  222.7820 C   0  0  0  0  0  0  0  0  0  0  0  0
  138.9318   77.6672  222.0193 H   0  0  0  0  0  0  0  0  0  0  0  0
  139.1054   77.9830  223.7853 H   0  0  0  0  0  0  0  0  0  0  0  0
  139.2270   79.6930  222.5520 N   0  0  0  0  0  0  0  0  0  0  0  0
  139.1570   80.4410  223.8180 C   0  0  0  0  0  0  0  0  0  0  0  0
  139.7253   79.9101  224.5959 H   0  0  0  0  0  0  0  0  0  0  0  0
  139.5883   81.4448  223.6902 H   0  0  0  0  0  0  0  0  0  0  0  0
  137.6920   80.5460  224.2300 C   0  0  0  0  0  0  0  0  0  0  0  0
  137.4861   79.8888  225.0877 H   0  0  0  0  0  0  0  0  0  0  0  0
  137.4277   81.5684  224.5380 H   0  0  0  0  0  0  0  0  0  0  0  0
  136.8960   80.1010  223.0190 C   0  0  0  0  0  0  0  0  0  0  0  0
  136.3796   79.1516  223.2238 H   0  0  0  0  0  0  0  0  0  0  0  0
  136.1194   80.8304  222.7453 H   0  0  0  0  0  0  0  0  0  0  0  0
  137.9230   79.9220  221.9150 C   0  0  0  0  0  0  0  0  0  0  0  0
  137.6544   79.0578  221.2897 H   0  0  0  0  0  0  0  0  0  0  0  0
  137.9588   80.8146  221.2732 H   0  0  0  0  0  0  0  0  0  0  0  0
  142.1690   81.0950  219.0670 N   0  0  0  0  0  0  0  0  0  0  0  0
  142.5970   80.6780  217.8450 C   0  0  0  0  0  0  0  0  0  0  0  0
  142.9470   81.6550  216.8350 N   0  0  0  0  0  0  0  0  0  0  0  0
  142.1420   81.7900  215.6110 C   0  0  0  0  0  0  0  0  0  0  0  0
  141.4797   80.9166  215.5192 H   0  0  0  0  0  0  0  0  0  0  0  0
  141.5545   82.7173  215.6816 H   0  0  0  0  0  0  0  0  0  0  0  0
  143.0400   81.8750  214.3570 C   0  0  0  0  0  0  0  0  0  0  0  0
  143.1170   80.8705  213.9154 H   0  0  0  0  0  0  0  0  0  0  0  0
  142.5715   82.5974  213.6724 H   0  0  0  0  0  0  0  0  0  0  0  0
  144.4040   82.3670  214.6400 N   0  0  0  0  0  0  0  0  0  0  0  0
  144.7820   82.8370  213.7830 H   0  0  0  0  0  0  0  0  0  0  0  0
  145.0290   81.5550  214.8600 H   0  0  0  0  0  0  0  0  0  0  0  0
  144.4350   83.3180  215.7580 C   0  0  0  0  0  0  0  0  0  0  0  0
  145.4504   83.7288  215.8589 H   0  0  0  0  0  0  0  0  0  0  0  0
  143.7217   84.1317  215.5601 H   0  0  0  0  0  0  0  0  0  0  0  0
  144.0420   82.6090  217.0600 C   0  0  0  0  0  0  0  0  0  0  0  0
  144.9155   82.0670  217.4514 H   0  0  0  0  0  0  0  0  0  0  0  0
  143.7015   83.3670  217.7808 H   0  0  0  0  0  0  0  0  0  0  0  0
  142.6800   79.3380  217.5910 N   0  0  0  0  0  0  0  0  0  0  0  0
  143.0000   78.9970  216.6600 H   0  0  0  0  0  0  0  0  0  0  0  0
  142.6800   76.5340  216.9270 C   0  0  0  0  0  0  0  0  0  0  0  0
  143.5370   77.0947  216.5256 H   0  0  0  0  0  0  0  0  0  0  0  0
  141.7684   76.6938  216.3324 H   0  0  0  0  0  0  0  0  0  0  0  0
  143.0080   75.0300  216.8700 C   0  0  0  0  0  0  0  0  0  0  0  0
  143.5784   74.8224  215.9527 H   0  0  0  0  0  0  0  0  0  0  0  0
  142.0622   74.4683  216.8763 H   0  0  0  0  0  0  0  0  0  0  0  0
  1  2  1  0
  2  3  2  0
  3  4  1  0
  3  5  1  0
  5  6  1  0
  5  7  2  0
  7  8  1  0
  8  9  2  0
  9 10  1  0
  8 11  1  0
 11 12  1  0
 11 13  1  0
 11 14  1  0
 14 15  1  0
 15 16  2  0
 16 17  1  0
 17 18  2  0
 18 19  1  0
 18 20  1  0
 20 21  1  0
 20 22  1  0
 20 23  1  0
 23 24  1  0
 23 25  1  0
 23 26  1  0
 26 27  1  0
 26 28  1  0
 26 29  1  0
 29 30  1  0
 29 31  1  0
 29 32  1  0
 32 33  1  0
 32 34  1  0
 32 35  1  0
 35 36  1  0
 36 37  1  0
 36 38  1  0
 36 39  1  0
 39 40  1  0
 39 41  1  0
 39 42  1  0
 42 43  1  0
 42 44  1  0
 42 45  1  0
 45 46  1  0
 45 47  1  0
 17 48  1  0
 48 49  2  0
 49 50  1  0
 50 51  1  0
 51 52  1  0
 51 53  1  0
 51 54  1  0
 54 55  1  0
 54 56  1  0
 54 57  1  0
 57 58  1  0
 57 59  1  0
 57 60  1  0
 60 61  1  0
 60 62  1  0
 60 63  1  0
 63 64  1  0
 63 65  1  0
 49 66  1  0
 66 67  1  0
 14 68  1  0
 68 69  1  0
 68 70  1  0
 68 71  1  0
 71 72  1  0
 71 73  1  0
  9  2  1  0
 66 15  1  0
 71  7  1  0
 45 35  1  0
 63 50  1  0
M  CHG  2  18   1  57   1
M  END
>  <UniqueID>  (47) 
482

>  <SMILES>  (47) 
c1ccc2c(c1)CCN(c1n/c(=[NH+]\CCCCCN3CCCC3)nc(N3CC[NH2+]CC3)[nH]1)C2

>  <Energy>  (47) 
81.83170711428579

>  <Genealogy>  (47) 
c1ccc2c(c1)CCN(c1nc([NH2+]CCCCCN3CCCC3)nc(N3CC[NH2+]CC3)n1)C2 (protonated)
c1ccc2c(c1)CCN(c1nc(=[NH+]CCCCCN3CCCC3)nc(N3CC[NH2+]CC3)[nH]1)C2 (tautomer)
c1ccc2c(c1)CCN(c1n/c(=[NH+]\CCCCCN3CCCC3)nc(N3CC[NH2+]CC3)[nH]1)C2 (cis-trans isomerization)
c1ccc2c(c1)CCN(c1n/c(=[NH+]\CCCCCN3CCCC3)nc(N3CC[NH2+]CC3)[nH]1)C2 (3D coordinates assigned)
c1ccc2c(c1)CCN(c1n/c(=[NH+]\CCCCCN3CCCC3)nc(N3CC[NH2+]CC3)[nH]1)C2 (nonaromatic ring conformer: 81.83170711428579 kcal/mol)

>  <smiles>  (47) 
c1ccc2c(c1)CCN(c1nc(NCCCCCN3CCCC3)nc(N3CCNCC3)n1)C2

>  <score_type>  (47) 
oracle

>  <origin>  (47) 
autodockgpu

>  <m_score__min__energy>  (47) 
-9.7300000000000004

>  <m_primary>  (47) 
energy

>  <meeko>  (47) 
{"free_energy": -8.22, "intermolecular_energy": -10.9, "internal_energy": -1.71, "cluster_size": 8, "cluster_id": 3, "rank_in_cluster": 3}

>  <energy>  (47) 
-8.21

>  <cluster_rmsd>  (47) 
0.89

>  <rmsd>  (47) 
270.92

>  <cluster>  (47) 
3

$$$$
MTUVCRSRZGPGQU-NMOKVYIGNA-P
     RDKit          3D

 73 77  0  0  0  0  0  0  0  0999 V2000
  141.4549   69.6282  228.5740 H   0  0  0  0  0  0  0  0  0  0  0  0
  140.9900   69.4680  227.5900 C   0  0  0  0  0  0  0  0  0  0  0  0
  140.8680   68.1720  227.0780 C   0  0  0  0  0  0  0  0  0  0  0  0
  141.2385   67.3151  227.6598 H   0  0  0  0  0  0  0  0  0  0  0  0
  140.2760   67.9630  225.8280 C   0  0  0  0  0  0  0  0  0  0  0  0
  140.1689   66.9416  225.4340 H   0  0  0  0  0  0  0  0  0  0  0  0
  139.8190   69.0560  225.0770 C   0  0  0  0  0  0  0  0  0  0  0  0
  139.9390   70.3560  225.5930 C   0  0  0  0  0  0  0  0  0  0  0  0
  140.5220   70.5600  226.8530 C   0  0  0  0  0  0  0  0  0  0  0  0
  140.6107   71.5779  227.2604 H   0  0  0  0  0  0  0  0  0  0  0  0
  139.4060   71.4950  224.7780 C   0  0  0  0  0  0  0  0  0  0  0  0
  139.8620   72.4357  225.1201 H   0  0  0  0  0  0  0  0  0  0  0  0
  138.3140   71.5523  224.8977 H   0  0  0  0  0  0  0  0  0  0  0  0
  139.7340   71.2780  223.3580 N   0  0  0  0  0  0  0  0  0  0  0  0
  140.3690   72.3290  222.6030 C   0  0  0  0  0  0  0  0  0  0  0  0
  139.8770   73.5910  222.6680 N   0  0  0  0  0  0  0  0  0  0  0  0
  140.4430   74.5990  221.9580 C   0  0  0  0  0  0  0  0  0  0  0  0
  139.9640   75.8110  222.0180 N   0  0  0  0  0  0  0  0  0  0  0  0
  140.6190   76.6060  222.2000 H   0  0  0  0  0  0  0  0  0  0  0  0
  138.5320   76.1220  221.9320 C   0  0  0  0  0  0  0  0  0  0  0  0
  137.9660   75.1836  221.8373 H   0  0  0  0  0  0  0  0  0  0  0  0
  138.2372   76.6620  222.8438 H   0  0  0  0  0  0  0  0  0  0  0  0
  138.2300   77.0140  220.7190 C   0  0  0  0  0  0  0  0  0  0  0  0
  139.0950   77.0028  220.0396 H   0  0  0  0  0  0  0  0  0  0  0  0
  137.3363   76.6239  220.2100 H   0  0  0  0  0  0  0  0  0  0  0  0
  137.9530   78.4610  221.1570 C   0  0  0  0  0  0  0  0  0  0  0  0
  137.4408   78.9855  220.3369 H   0  0  0  0  0  0  0  0  0  0  0  0
  137.3316   78.4215  222.0638 H   0  0  0  0  0  0  0  0  0  0  0  0
  139.2380   79.2290  221.5060 C   0  0  0  0  0  0  0  0  0  0  0  0
  140.0423   78.8900  220.8365 H   0  0  0  0  0  0  0  0  0  0  0  0
  139.0260   80.3011  221.3811 H   0  0  0  0  0  0  0  0  0  0  0  0
  139.6870   79.0140  222.9600 C   0  0  0  0  0  0  0  0  0  0  0  0
  139.6164   79.9663  223.5061 H   0  0  0  0  0  0  0  0  0  0  0  0
  139.0351   78.2617  223.4281 H   0  0  0  0  0  0  0  0  0  0  0  0
  141.0850   78.5310  223.0000 N   0  0  0  0  0  0  0  0  0  0  0  0
  141.8010   79.0330  224.1840 C   0  0  0  0  0  0  0  0  0  0  0  0
  141.0826   79.2556  224.9867 H   0  0  0  0  0  0  0  0  0  0  0  0
  142.5114   78.2758  224.5473 H   0  0  0  0  0  0  0  0  0  0  0  0
  142.5440   80.3050  223.7890 C   0  0  0  0  0  0  0  0  0  0  0  0
  142.0525   81.1877  224.2240 H   0  0  0  0  0  0  0  0  0  0  0  0
  143.5811   80.3013  224.1556 H   0  0  0  0  0  0  0  0  0  0  0  0
  142.4840   80.3580  222.2760 C   0  0  0  0  0  0  0  0  0  0  0  0
  141.8620   81.2022  221.9436 H   0  0  0  0  0  0  0  0  0  0  0  0
  143.4786   80.5028  221.8290 H   0  0  0  0  0  0  0  0  0  0  0  0
  141.8590   79.0380  221.8580 C   0  0  0  0  0  0  0  0  0  0  0  0
  141.1953   79.1940  220.9948 H   0  0  0  0  0  0  0  0  0  0  0  0
  142.6374   78.3168  221.5683 H   0  0  0  0  0  0  0  0  0  0  0  0
  141.5220   74.3360  221.1800 N   0  0  0  0  0  0  0  0  0  0  0  0
  142.0450   73.0820  221.1080 C   0  0  0  0  0  0  0  0  0  0  0  0
  143.1960   72.8310  220.2670 N   0  0  0  0  0  0  0  0  0  0  0  0
  144.5100   72.5360  220.8620 C   0  0  0  0  0  0  0  0  0  0  0  0
  144.4853   72.7931  221.9313 H   0  0  0  0  0  0  0  0  0  0  0  0
  144.7215   71.4653  220.7247 H   0  0  0  0  0  0  0  0  0  0  0  0
  145.6300   73.3470  220.1750 C   0  0  0  0  0  0  0  0  0  0  0  0
  145.8237   74.2490  220.7740 H   0  0  0  0  0  0  0  0  0  0  0  0
  146.5104   72.6907  220.1105 H   0  0  0  0  0  0  0  0  0  0  0  0
  145.2980   73.7640  218.7960 N   0  0  0  0  0  0  0  0  0  0  0  0
  146.1850   73.8660  218.2480 H   0  0  0  0  0  0  0  0  0  0  0  0
  144.8260   74.7000  218.8190 H   0  0  0  0  0  0  0  0  0  0  0  0
  144.4260   72.7990  218.1160 C   0  0  0  0  0  0  0  0  0  0  0  0
  144.2949   73.1027  217.0669 H   0  0  0  0  0  0  0  0  0  0  0  0
  144.8873   71.8014  218.1608 H   0  0  0  0  0  0  0  0  0  0  0  0
  143.0570   72.7520  218.8060 C   0  0  0  0  0  0  0  0  0  0  0  0
  142.4498   73.6001  218.4568 H   0  0  0  0  0  0  0  0  0  0  0  0
  142.5717   71.7978  218.5531 H   0  0  0  0  0  0  0  0  0  0  0  0
  141.4610   72.0760  221.8270 N   0  0  0  0  0  0  0  0  0  0  0  0
  141.8420   71.1080  221.7820 H   0  0  0  0  0  0  0  0  0  0  0  0
  139.5460   69.9490  222.7410 C   0  0  0  0  0  0  0  0  0  0  0  0
  140.4937   69.6428  222.2739 H   0  0  0  0  0  0  0  0  0  0  0  0
  138.7343   70.0416  222.0044 H   0  0  0  0  0  0  0  0  0  0  0  0
  139.1260   68.8660  223.7530 C   0  0  0  0  0  0  0  0  0  0  0  0
  139.3892   67.8771  223.3495 H   0  0  0  0  0  0  0  0  0  0  0  0
  138.0408   68.9440  223.9147 H   0  0  0  0  0  0  0  0  0  0  0  0
  1  2  1  0
  2  3  2  0
  3  4  1  0
  3  5  1  0
  5  6  1  0
  5  7  2  0
  7  8  1  0
  8  9  2  0
  9 10  1  0
  8 11  1  0
 11 12  1  0
 11 13  1  0
 11 14  1  0
 14 15  1  0
 15 16  2  0
 16 17  1  0
 17 18  2  0
 18 19  1  0
 18 20  1  0
 20 21  1  0
 20 22  1  0
 20 23  1  0
 23 24  1  0
 23 25  1  0
 23 26  1  0
 26 27  1  0
 26 28  1  0
 26 29  1  0
 29 30  1  0
 29 31  1  0
 29 32  1  0
 32 33  1  0
 32 34  1  0
 32 35  1  0
 35 36  1  0
 36 37  1  0
 36 38  1  0
 36 39  1  0
 39 40  1  0
 39 41  1  0
 39 42  1  0
 42 43  1  0
 42 44  1  0
 42 45  1  0
 45 46  1  0
 45 47  1  0
 17 48  1  0
 48 49  2  0
 49 50  1  0
 50 51  1  0
 51 52  1  0
 51 53  1  0
 51 54  1  0
 54 55  1  0
 54 56  1  0
 54 57  1  0
 57 58  1  0
 57 59  1  0
 57 60  1  0
 60 61  1  0
 60 62  1  0
 60 63  1  0
 63 64  1  0
 63 65  1  0
 49 66  1  0
 66 67  1  0
 14 68  1  0
 68 69  1  0
 68 70  1  0
 68 71  1  0
 71 72  1  0
 71 73  1  0
  9  2  1  0
 66 15  1  0
 71  7  1  0
 45 35  1  0
 63 50  1  0
M  CHG  2  18   1  57   1
M  END
>  <UniqueID>  (48) 
482

>  <SMILES>  (48) 
c1ccc2c(c1)CCN(c1n/c(=[NH+]\CCCCCN3CCCC3)nc(N3CC[NH2+]CC3)[nH]1)C2

>  <Energy>  (48) 
81.83170711428579

>  <Genealogy>  (48) 
c1ccc2c(c1)CCN(c1nc([NH2+]CCCCCN3CCCC3)nc(N3CC[NH2+]CC3)n1)C2 (protonated)
c1ccc2c(c1)CCN(c1nc(=[NH+]CCCCCN3CCCC3)nc(N3CC[NH2+]CC3)[nH]1)C2 (tautomer)
c1ccc2c(c1)CCN(c1n/c(=[NH+]\CCCCCN3CCCC3)nc(N3CC[NH2+]CC3)[nH]1)C2 (cis-trans isomerization)
c1ccc2c(c1)CCN(c1n/c(=[NH+]\CCCCCN3CCCC3)nc(N3CC[NH2+]CC3)[nH]1)C2 (3D coordinates assigned)
c1ccc2c(c1)CCN(c1n/c(=[NH+]\CCCCCN3CCCC3)nc(N3CC[NH2+]CC3)[nH]1)C2 (nonaromatic ring conformer: 81.83170711428579 kcal/mol)

>  <smiles>  (48) 
c1ccc2c(c1)CCN(c1nc(NCCCCCN3CCCC3)nc(N3CCNCC3)n1)C2

>  <score_type>  (48) 
oracle

>  <origin>  (48) 
autodockgpu

>  <m_score__min__energy>  (48) 
-9.7300000000000004

>  <m_primary>  (48) 
energy

>  <meeko>  (48) 
{"free_energy": -7.75, "intermolecular_energy": -10.43, "internal_energy": -1.32, "cluster_size": 4, "cluster_id": 5, "rank_in_cluster": 1}

>  <energy>  (48) 
-7.98

>  <cluster_rmsd>  (48) 
1.65

>  <rmsd>  (48) 
270.97

>  <cluster>  (48) 
3

$$$$
MTUVCRSRZGPGQU-NMOKVYIGNA-P
     RDKit          3D

 73 77  0  0  0  0  0  0  0  0999 V2000
  138.6933   81.8001  224.9986 H   0  0  0  0  0  0  0  0  0  0  0  0
  138.3380   81.2610  224.1080 C   0  0  0  0  0  0  0  0  0  0  0  0
  137.3980   80.2330  224.2430 C   0  0  0  0  0  0  0  0  0  0  0  0
  137.0168   79.9653  225.2395 H   0  0  0  0  0  0  0  0  0  0  0  0
  136.9420   79.5450  223.1130 C   0  0  0  0  0  0  0  0  0  0  0  0
  136.1932   78.7464  223.2201 H   0  0  0  0  0  0  0  0  0  0  0  0
  137.4400   79.8740  221.8440 C   0  0  0  0  0  0  0  0  0  0  0  0
  138.3800   80.9080  221.7100 C   0  0  0  0  0  0  0  0  0  0  0  0
  138.8260   81.6040  222.8450 C   0  0  0  0  0  0  0  0  0  0  0  0
  139.5584   82.4179  222.7397 H   0  0  0  0  0  0  0  0  0  0  0  0
  138.8620   81.2560  220.3330 C   0  0  0  0  0  0  0  0  0  0  0  0
  139.8097   81.8098  220.4050 H   0  0  0  0  0  0  0  0  0  0  0  0
  138.1107   81.8807  219.8278 H   0  0  0  0  0  0  0  0  0  0  0  0
  139.0730   80.0190  219.5610 N   0  0  0  0  0  0  0  0  0  0  0  0
  140.3240   79.8110  218.8750 C   0  0  0  0  0  0  0  0  0  0  0  0
  140.9760   78.6300  219.0140 N   0  0  0  0  0  0  0  0  0  0  0  0
  142.1620   78.4090  218.3940 C   0  0  0  0  0  0  0  0  0  0  0  0
  142.7900   77.2740  218.5350 N   0  0  0  0  0  0  0  0  0  0  0  0
  143.2680   76.8540  217.7050 H   0  0  0  0  0  0  0  0  0  0  0  0
  142.7930   76.4980  219.7810 C   0  0  0  0  0  0  0  0  0  0  0  0
  143.4971   75.6590  219.6794 H   0  0  0  0  0  0  0  0  0  0  0  0
  143.0965   77.1619  220.6038 H   0  0  0  0  0  0  0  0  0  0  0  0
  141.3960   75.9440  220.0940 C   0  0  0  0  0  0  0  0  0  0  0  0
  140.6436   76.5391  219.5556 H   0  0  0  0  0  0  0  0  0  0  0  0
  141.3551   74.8924  219.7738 H   0  0  0  0  0  0  0  0  0  0  0  0
  141.1050   76.0100  221.6020 C   0  0  0  0  0  0  0  0  0  0  0  0
  140.9850   74.9850  221.9828 H   0  0  0  0  0  0  0  0  0  0  0  0
  141.9502   76.5249  222.0821 H   0  0  0  0  0  0  0  0  0  0  0  0
  139.8310   76.8070  221.9240 C   0  0  0  0  0  0  0  0  0  0  0  0
  139.2249   76.8843  221.0093 H   0  0  0  0  0  0  0  0  0  0  0  0
  139.2993   76.2702  222.7235 H   0  0  0  0  0  0  0  0  0  0  0  0
  140.1260   78.2250  222.4380 C   0  0  0  0  0  0  0  0  0  0  0  0
  139.8084   78.9583  221.6821 H   0  0  0  0  0  0  0  0  0  0  0  0
  139.5746   78.3873  223.3759 H   0  0  0  0  0  0  0  0  0  0  0  0
  141.5740   78.3870  222.6970 N   0  0  0  0  0  0  0  0  0  0  0  0
  141.8270   78.9840  224.0190 C   0  0  0  0  0  0  0  0  0  0  0  0
  140.9846   78.7677  224.6925 H   0  0  0  0  0  0  0  0  0  0  0  0
  142.7444   78.5631  224.4564 H   0  0  0  0  0  0  0  0  0  0  0  0
  141.9720   80.4910  223.8420 C   0  0  0  0  0  0  0  0  0  0  0  0
  141.0862   81.0108  224.2358 H   0  0  0  0  0  0  0  0  0  0  0  0
  142.8436   80.8828  224.3869 H   0  0  0  0  0  0  0  0  0  0  0  0
  142.0970   80.7160  222.3480 C   0  0  0  0  0  0  0  0  0  0  0  0
  141.2150   81.2484  221.9625 H   0  0  0  0  0  0  0  0  0  0  0  0
  142.9729   81.3317  222.0956 H   0  0  0  0  0  0  0  0  0  0  0  0
  142.1860   79.3250  221.7450 C   0  0  0  0  0  0  0  0  0  0  0  0
  141.6436   79.2956  220.7885 H   0  0  0  0  0  0  0  0  0  0  0  0
  143.2348   79.0530  221.5552 H   0  0  0  0  0  0  0  0  0  0  0  0
  142.6950   79.3850  217.6160 N   0  0  0  0  0  0  0  0  0  0  0  0
  142.0540   80.5730  217.4480 C   0  0  0  0  0  0  0  0  0  0  0  0
  142.6470   81.5970  216.6130 N   0  0  0  0  0  0  0  0  0  0  0  0
  142.0440   81.9540  215.3200 C   0  0  0  0  0  0  0  0  0  0  0  0
  141.3108   81.1828  215.0414 H   0  0  0  0  0  0  0  0  0  0  0  0
  141.5568   82.9349  215.4230 H   0  0  0  0  0  0  0  0  0  0  0  0
  143.1140   82.0550  214.2110 C   0  0  0  0  0  0  0  0  0  0  0  0
  143.1431   81.0991  213.6675 H   0  0  0  0  0  0  0  0  0  0  0  0
  142.8283   82.8961  213.5622 H   0  0  0  0  0  0  0  0  0  0  0  0
  144.4700   82.3430  214.7230 N   0  0  0  0  0  0  0  0  0  0  0  0
  145.0140   82.8470  213.9830 H   0  0  0  0  0  0  0  0  0  0  0  0
  144.9650   81.4410  214.9250 H   0  0  0  0  0  0  0  0  0  0  0  0
  144.4450   83.1640  215.9400 C   0  0  0  0  0  0  0  0  0  0  0  0
  145.4743   83.4339  216.2186 H   0  0  0  0  0  0  0  0  0  0  0  0
  143.8592   84.0753  215.7490 H   0  0  0  0  0  0  0  0  0  0  0  0
  143.7970   82.3800  217.0880 C   0  0  0  0  0  0  0  0  0  0  0  0
  144.5421   81.6967  217.5216 H   0  0  0  0  0  0  0  0  0  0  0  0
  143.4428   83.0967  217.8435 H   0  0  0  0  0  0  0  0  0  0  0  0
  140.8610   80.7820  218.0820 N   0  0  0  0  0  0  0  0  0  0  0  0
  140.3570   81.6870  217.9720 H   0  0  0  0  0  0  0  0  0  0  0  0
  138.0740   78.9320  219.5990 C   0  0  0  0  0  0  0  0  0  0  0  0
  138.5822   77.9994  219.8854 H   0  0  0  0  0  0  0  0  0  0  0  0
  137.6239   78.8652  218.5975 H   0  0  0  0  0  0  0  0  0  0  0  0
  136.9320   79.1950  220.5990 C   0  0  0  0  0  0  0  0  0  0  0  0
  136.4710   78.2357  220.8768 H   0  0  0  0  0  0  0  0  0  0  0  0
  136.1956   79.8562  220.1189 H   0  0  0  0  0  0  0  0  0  0  0  0
  1  2  1  0
  2  3  2  0
  3  4  1  0
  3  5  1  0
  5  6  1  0
  5  7  2  0
  7  8  1  0
  8  9  2  0
  9 10  1  0
  8 11  1  0
 11 12  1  0
 11 13  1  0
 11 14  1  0
 14 15  1  0
 15 16  2  0
 16 17  1  0
 17 18  2  0
 18 19  1  0
 18 20  1  0
 20 21  1  0
 20 22  1  0
 20 23  1  0
 23 24  1  0
 23 25  1  0
 23 26  1  0
 26 27  1  0
 26 28  1  0
 26 29  1  0
 29 30  1  0
 29 31  1  0
 29 32  1  0
 32 33  1  0
 32 34  1  0
 32 35  1  0
 35 36  1  0
 36 37  1  0
 36 38  1  0
 36 39  1  0
 39 40  1  0
 39 41  1  0
 39 42  1  0
 42 43  1  0
 42 44  1  0
 42 45  1  0
 45 46  1  0
 45 47  1  0
 17 48  1  0
 48 49  2  0
 49 50  1  0
 50 51  1  0
 51 52  1  0
 51 53  1  0
 51 54  1  0
 54 55  1  0
 54 56  1  0
 54 57  1  0
 57 58  1  0
 57 59  1  0
 57 60  1  0
 60 61  1  0
 60 62  1  0
 60 63  1  0
 63 64  1  0
 63 65  1  0
 49 66  1  0
 66 67  1  0
 14 68  1  0
 68 69  1  0
 68 70  1  0
 68 71  1  0
 71 72  1  0
 71 73  1  0
  9  2  1  0
 66 15  1  0
 71  7  1  0
 45 35  1  0
 63 50  1  0
M  CHG  2  18   1  57   1
M  END
>  <UniqueID>  (49) 
482

>  <SMILES>  (49) 
c1ccc2c(c1)CCN(c1n/c(=[NH+]\CCCCCN3CCCC3)nc(N3CC[NH2+]CC3)[nH]1)C2

>  <Energy>  (49) 
81.83170711428579

>  <Genealogy>  (49) 
c1ccc2c(c1)CCN(c1nc([NH2+]CCCCCN3CCCC3)nc(N3CC[NH2+]CC3)n1)C2 (protonated)
c1ccc2c(c1)CCN(c1nc(=[NH+]CCCCCN3CCCC3)nc(N3CC[NH2+]CC3)[nH]1)C2 (tautomer)
c1ccc2c(c1)CCN(c1n/c(=[NH+]\CCCCCN3CCCC3)nc(N3CC[NH2+]CC3)[nH]1)C2 (cis-trans isomerization)
c1ccc2c(c1)CCN(c1n/c(=[NH+]\CCCCCN3CCCC3)nc(N3CC[NH2+]CC3)[nH]1)C2 (3D coordinates assigned)
c1ccc2c(c1)CCN(c1n/c(=[NH+]\CCCCCN3CCCC3)nc(N3CC[NH2+]CC3)[nH]1)C2 (nonaromatic ring conformer: 81.83170711428579 kcal/mol)

>  <smiles>  (49) 
c1ccc2c(c1)CCN(c1nc(NCCCCCN3CCCC3)nc(N3CCNCC3)n1)C2

>  <score_type>  (49) 
oracle

>  <origin>  (49) 
autodockgpu

>  <m_score__min__energy>  (49) 
-9.7300000000000004

>  <m_primary>  (49) 
energy

>  <meeko>  (49) 
{"free_energy": -6.5, "intermolecular_energy": -9.18, "internal_energy": -2.41, "cluster_size": 2, "cluster_id": 6, "rank_in_cluster": 2}

>  <energy>  (49) 
-7.89

>  <cluster_rmsd>  (49) 
1.59

>  <rmsd>  (49) 
271.02

>  <cluster>  (49) 
3

$$$$
MTUVCRSRZGPGQU-NMOKVYIGNA-P
     RDKit          3D

 73 77  0  0  0  0  0  0  0  0999 V2000
  134.0848   76.7285  225.7014 H   0  0  0  0  0  0  0  0  0  0  0  0
  134.6190   76.1780  224.9130 C   0  0  0  0  0  0  0  0  0  0  0  0
  134.6880   74.7820  224.9610 C   0  0  0  0  0  0  0  0  0  0  0  0
  134.2079   74.2370  225.7872 H   0  0  0  0  0  0  0  0  0  0  0  0
  135.3660   74.0770  223.9610 C   0  0  0  0  0  0  0  0  0  0  0  0
  135.4081   72.9783  223.9942 H   0  0  0  0  0  0  0  0  0  0  0  0
  135.9920   74.7720  222.9160 C   0  0  0  0  0  0  0  0  0  0  0  0
  135.9180   76.1730  222.8670 C   0  0  0  0  0  0  0  0  0  0  0  0
  135.2270   76.8750  223.8660 C   0  0  0  0  0  0  0  0  0  0  0  0
  135.1641   77.9724  223.8249 H   0  0  0  0  0  0  0  0  0  0  0  0
  136.5690   76.8780  221.7150 C   0  0  0  0  0  0  0  0  0  0  0  0
  136.7335   77.9337  221.9767 H   0  0  0  0  0  0  0  0  0  0  0  0
  135.9166   76.8168  220.8315 H   0  0  0  0  0  0  0  0  0  0  0  0
  137.8620   76.2390  221.4160 N   0  0  0  0  0  0  0  0  0  0  0  0
  139.0490   77.0490  221.3020 C   0  0  0  0  0  0  0  0  0  0  0  0
  139.8880   77.1610  222.3620 N   0  0  0  0  0  0  0  0  0  0  0  0
  141.0050   77.9270  222.2910 C   0  0  0  0  0  0  0  0  0  0  0  0
  141.8070   78.0370  223.3140 N   0  0  0  0  0  0  0  0  0  0  0  0
  142.4340   77.2350  223.5540 H   0  0  0  0  0  0  0  0  0  0  0  0
  141.8210   79.1980  224.2120 C   0  0  0  0  0  0  0  0  0  0  0  0
  140.7907   79.5584  224.3484 H   0  0  0  0  0  0  0  0  0  0  0  0
  142.2545   78.8884  225.1744 H   0  0  0  0  0  0  0  0  0  0  0  0
  142.6770   80.3350  223.6370 C   0  0  0  0  0  0  0  0  0  0  0  0
  143.4934   80.5614  224.3386 H   0  0  0  0  0  0  0  0  0  0  0  0
  143.0826   80.0132  222.6664 H   0  0  0  0  0  0  0  0  0  0  0  0
  141.8330   81.6020  223.4210 C   0  0  0  0  0  0  0  0  0  0  0  0
  141.1007   81.6812  224.2380 H   0  0  0  0  0  0  0  0  0  0  0  0
  142.5193   82.4615  223.4071 H   0  0  0  0  0  0  0  0  0  0  0  0
  141.0780   81.5870  222.0830 C   0  0  0  0  0  0  0  0  0  0  0  0
  141.4061   82.4500  221.4850 H   0  0  0  0  0  0  0  0  0  0  0  0
  141.3073   80.6334  221.5849 H   0  0  0  0  0  0  0  0  0  0  0  0
  139.5520   81.6620  222.2570 C   0  0  0  0  0  0  0  0  0  0  0  0
  139.3154   82.3191  223.1069 H   0  0  0  0  0  0  0  0  0  0  0  0
  139.1058   82.0634  221.3351 H   0  0  0  0  0  0  0  0  0  0  0  0
  138.9980   80.3140  222.5130 N   0  0  0  0  0  0  0  0  0  0  0  0
  137.6850   80.1340  221.8720 C   0  0  0  0  0  0  0  0  0  0  0  0
  137.5989   80.8055  221.0050 H   0  0  0  0  0  0  0  0  0  0  0  0
  137.5705   79.0961  221.5261 H   0  0  0  0  0  0  0  0  0  0  0  0
  136.6050   80.4700  222.8940 C   0  0  0  0  0  0  0  0  0  0  0  0
  136.1309   81.4320  222.6495 H   0  0  0  0  0  0  0  0  0  0  0  0
  135.8074   79.7126  222.9073 H   0  0  0  0  0  0  0  0  0  0  0  0
  137.3190   80.5560  224.2280 C   0  0  0  0  0  0  0  0  0  0  0  0
  137.3094   81.5892  224.6053 H   0  0  0  0  0  0  0  0  0  0  0  0
  136.8345   79.9348  224.9957 H   0  0  0  0  0  0  0  0  0  0  0  0
  138.7410   80.1050  223.9450 C   0  0  0  0  0  0  0  0  0  0  0  0
  139.4484   80.6980  224.5433 H   0  0  0  0  0  0  0  0  0  0  0  0
  138.8694   79.0450  224.2094 H   0  0  0  0  0  0  0  0  0  0  0  0
  141.2870   78.5830  221.1370 N   0  0  0  0  0  0  0  0  0  0  0  0
  140.4700   78.4760  220.0540 C   0  0  0  0  0  0  0  0  0  0  0  0
  140.7950   79.1890  218.8370 N   0  0  0  0  0  0  0  0  0  0  0  0
  140.4290   78.6360  217.5230 C   0  0  0  0  0  0  0  0  0  0  0  0
  140.1481   77.5794  217.6443 H   0  0  0  0  0  0  0  0  0  0  0  0
  139.5861   79.2187  217.1230 H   0  0  0  0  0  0  0  0  0  0  0  0
  141.6060   78.7330  216.5270 C   0  0  0  0  0  0  0  0  0  0  0  0
  142.1375   77.7699  216.5217 H   0  0  0  0  0  0  0  0  0  0  0  0
  141.1778   78.9796  215.5443 H   0  0  0  0  0  0  0  0  0  0  0  0
  142.5740   79.7990  216.8580 N   0  0  0  0  0  0  0  0  0  0  0  0
  143.0360   80.1250  215.9760 H   0  0  0  0  0  0  0  0  0  0  0  0
  143.3190   79.4110  217.4850 H   0  0  0  0  0  0  0  0  0  0  0  0
  141.9380   80.9470  217.5160 C   0  0  0  0  0  0  0  0  0  0  0  0
  142.6794   81.7491  217.6461 H   0  0  0  0  0  0  0  0  0  0  0  0
  141.1061   81.3057  216.8921 H   0  0  0  0  0  0  0  0  0  0  0  0
  141.3950   80.5300  218.8880 C   0  0  0  0  0  0  0  0  0  0  0  0
  142.2208   80.5262  219.6147 H   0  0  0  0  0  0  0  0  0  0  0  0
  140.6177   81.2482  219.1880 H   0  0  0  0  0  0  0  0  0  0  0  0
  139.3460   77.7020  220.1420 N   0  0  0  0  0  0  0  0  0  0  0  0
  138.7040   77.6120  219.3270 H   0  0  0  0  0  0  0  0  0  0  0  0
  137.9780   74.7670  221.3700 C   0  0  0  0  0  0  0  0  0  0  0  0
  138.7876   74.4581  222.0476 H   0  0  0  0  0  0  0  0  0  0  0  0
  138.1851   74.4863  220.3268 H   0  0  0  0  0  0  0  0  0  0  0  0
  136.6830   74.0460  221.7920 C   0  0  0  0  0  0  0  0  0  0  0  0
  136.9322   73.0272  222.1236 H   0  0  0  0  0  0  0  0  0  0  0  0
  136.0036   74.0194  220.9273 H   0  0  0  0  0  0  0  0  0  0  0  0
  1  2  1  0
  2  3  2  0
  3  4  1  0
  3  5  1  0
  5  6  1  0
  5  7  2  0
  7  8  1  0
  8  9  2  0
  9 10  1  0
  8 11  1  0
 11 12  1  0
 11 13  1  0
 11 14  1  0
 14 15  1  0
 15 16  2  0
 16 17  1  0
 17 18  2  0
 18 19  1  0
 18 20  1  0
 20 21  1  0
 20 22  1  0
 20 23  1  0
 23 24  1  0
 23 25  1  0
 23 26  1  0
 26 27  1  0
 26 28  1  0
 26 29  1  0
 29 30  1  0
 29 31  1  0
 29 32  1  0
 32 33  1  0
 32 34  1  0
 32 35  1  0
 35 36  1  0
 36 37  1  0
 36 38  1  0
 36 39  1  0
 39 40  1  0
 39 41  1  0
 39 42  1  0
 42 43  1  0
 42 44  1  0
 42 45  1  0
 45 46  1  0
 45 47  1  0
 17 48  1  0
 48 49  2  0
 49 50  1  0
 50 51  1  0
 51 52  1  0
 51 53  1  0
 51 54  1  0
 54 55  1  0
 54 56  1  0
 54 57  1  0
 57 58  1  0
 57 59  1  0
 57 60  1  0
 60 61  1  0
 60 62  1  0
 60 63  1  0
 63 64  1  0
 63 65  1  0
 49 66  1  0
 66 67  1  0
 14 68  1  0
 68 69  1  0
 68 70  1  0
 68 71  1  0
 71 72  1  0
 71 73  1  0
  9  2  1  0
 66 15  1  0
 71  7  1  0
 45 35  1  0
 63 50  1  0
M  CHG  2  18   1  57   1
M  END
>  <UniqueID>  (50) 
482

>  <SMILES>  (50) 
c1ccc2c(c1)CCN(c1n/c(=[NH+]\CCCCCN3CCCC3)nc(N3CC[NH2+]CC3)[nH]1)C2

>  <Energy>  (50) 
81.83170711428579

>  <Genealogy>  (50) 
c1ccc2c(c1)CCN(c1nc([NH2+]CCCCCN3CCCC3)nc(N3CC[NH2+]CC3)n1)C2 (protonated)
c1ccc2c(c1)CCN(c1nc(=[NH+]CCCCCN3CCCC3)nc(N3CC[NH2+]CC3)[nH]1)C2 (tautomer)
c1ccc2c(c1)CCN(c1n/c(=[NH+]\CCCCCN3CCCC3)nc(N3CC[NH2+]CC3)[nH]1)C2 (cis-trans isomerization)
c1ccc2c(c1)CCN(c1n/c(=[NH+]\CCCCCN3CCCC3)nc(N3CC[NH2+]CC3)[nH]1)C2 (3D coordinates assigned)
c1ccc2c(c1)CCN(c1n/c(=[NH+]\CCCCCN3CCCC3)nc(N3CC[NH2+]CC3)[nH]1)C2 (nonaromatic ring conformer: 81.83170711428579 kcal/mol)

>  <smiles>  (50) 
c1ccc2c(c1)CCN(c1nc(NCCCCCN3CCCC3)nc(N3CCNCC3)n1)C2

>  <score_type>  (50) 
oracle

>  <origin>  (50) 
autodockgpu

>  <m_score__min__energy>  (50) 
-9.7300000000000004

>  <m_primary>  (50) 
energy

>  <meeko>  (50) 
{"free_energy": -6.69, "intermolecular_energy": -9.37, "internal_energy": -2.14, "cluster_size": 1, "cluster_id": 8, "rank_in_cluster": 1}

>  <energy>  (50) 
-7.73

>  <cluster_rmsd>  (50) 
0.62

>  <rmsd>  (50) 
270.46

>  <cluster>  (50) 
3

$$$$
MTUVCRSRZGPGQU-NMOKVYIGNA-P
     RDKit          3D

 73 77  0  0  0  0  0  0  0  0999 V2000
  145.5467   72.9700  221.9546 H   0  0  0  0  0  0  0  0  0  0  0  0
  145.2260   73.3220  220.9630 C   0  0  0  0  0  0  0  0  0  0  0  0
  145.9280   72.9240  219.8200 C   0  0  0  0  0  0  0  0  0  0  0  0
  146.8006   72.2611  219.9153 H   0  0  0  0  0  0  0  0  0  0  0  0
  145.5230   73.3670  218.5560 C   0  0  0  0  0  0  0  0  0  0  0  0
  146.0675   73.0404  217.6578 H   0  0  0  0  0  0  0  0  0  0  0  0
  144.4220   74.2280  218.4350 C   0  0  0  0  0  0  0  0  0  0  0  0
  143.7160   74.6240  219.5830 C   0  0  0  0  0  0  0  0  0  0  0  0
  144.1180   74.1660  220.8470 C   0  0  0  0  0  0  0  0  0  0  0  0
  143.5617   74.4709  221.7456 H   0  0  0  0  0  0  0  0  0  0  0  0
  142.5220   75.5140  219.4100 C   0  0  0  0  0  0  0  0  0  0  0  0
  142.2915   76.0086  220.3651 H   0  0  0  0  0  0  0  0  0  0  0  0
  141.6581   74.9119  219.0919 H   0  0  0  0  0  0  0  0  0  0  0  0
  142.8150   76.5330  218.3870 N   0  0  0  0  0  0  0  0  0  0  0  0
  142.5750   77.9250  218.6770 C   0  0  0  0  0  0  0  0  0  0  0  0
  142.1270   78.2850  219.9060 N   0  0  0  0  0  0  0  0  0  0  0  0
  141.8780   79.5850  220.2050 C   0  0  0  0  0  0  0  0  0  0  0  0
  141.4410   79.9270  221.3850 N   0  0  0  0  0  0  0  0  0  0  0  0
  140.5270   80.4310  221.4610 H   0  0  0  0  0  0  0  0  0  0  0  0
  142.2030   79.7240  222.6230 C   0  0  0  0  0  0  0  0  0  0  0  0
  143.2180   79.3850  222.3681 H   0  0  0  0  0  0  0  0  0  0  0  0
  142.2386   80.6774  223.1705 H   0  0  0  0  0  0  0  0  0  0  0  0
  141.5340   78.6720  223.5210 C   0  0  0  0  0  0  0  0  0  0  0  0
  142.2553   78.3352  224.2801 H   0  0  0  0  0  0  0  0  0  0  0  0
  140.6554   79.1273  224.0013 H   0  0  0  0  0  0  0  0  0  0  0  0
  141.0700   77.4610  222.6950 C   0  0  0  0  0  0  0  0  0  0  0  0
  141.7502   77.3365  221.8395 H   0  0  0  0  0  0  0  0  0  0  0  0
  141.0842   76.5817  223.3557 H   0  0  0  0  0  0  0  0  0  0  0  0
  139.6370   77.6220  222.1650 C   0  0  0  0  0  0  0  0  0  0  0  0
  139.6809   78.0975  221.1740 H   0  0  0  0  0  0  0  0  0  0  0  0
  139.1880   76.6189  222.1188 H   0  0  0  0  0  0  0  0  0  0  0  0
  138.7520   78.4810  223.0820 C   0  0  0  0  0  0  0  0  0  0  0  0
  137.7106   78.1343  223.0097 H   0  0  0  0  0  0  0  0  0  0  0  0
  139.1105   78.3847  224.1175 H   0  0  0  0  0  0  0  0  0  0  0  0
  138.8220   79.9030  222.6790 N   0  0  0  0  0  0  0  0  0  0  0  0
  139.0890   80.7810  223.8300 C   0  0  0  0  0  0  0  0  0  0  0  0
  139.6149   80.2169  224.6144 H   0  0  0  0  0  0  0  0  0  0  0  0
  139.7198   81.6283  223.5230 H   0  0  0  0  0  0  0  0  0  0  0  0
  137.7530   81.2860  224.3650 C   0  0  0  0  0  0  0  0  0  0  0  0
  137.5132   80.7980  225.3212 H   0  0  0  0  0  0  0  0  0  0  0  0
  137.7734   82.3696  224.5530 H   0  0  0  0  0  0  0  0  0  0  0  0
  136.7270   80.9190  223.3120 C   0  0  0  0  0  0  0  0  0  0  0  0
  136.0361   80.1540  223.6959 H   0  0  0  0  0  0  0  0  0  0  0  0
  136.1111   81.7816  223.0179 H   0  0  0  0  0  0  0  0  0  0  0  0
  137.5350   80.3720  222.1470 C   0  0  0  0  0  0  0  0  0  0  0  0
  136.9965   79.5358  221.6771 H   0  0  0  0  0  0  0  0  0  0  0  0
  137.6926   81.1514  221.3870 H   0  0  0  0  0  0  0  0  0  0  0  0
  142.0900   80.5350  219.2600 N   0  0  0  0  0  0  0  0  0  0  0  0
  142.5540   80.2020  218.0250 C   0  0  0  0  0  0  0  0  0  0  0  0
  142.7700   81.2370  217.0360 N   0  0  0  0  0  0  0  0  0  0  0  0
  141.8590   81.3820  215.8900 C   0  0  0  0  0  0  0  0  0  0  0  0
  141.2343   80.4800  215.8121 H   0  0  0  0  0  0  0  0  0  0  0  0
  141.2353   82.2735  216.0519 H   0  0  0  0  0  0  0  0  0  0  0  0
  142.6430   81.5670  214.5720 C   0  0  0  0  0  0  0  0  0  0  0  0
  142.7302   80.5877  214.0786 H   0  0  0  0  0  0  0  0  0  0  0  0
  142.0846   82.2934  213.9632 H   0  0  0  0  0  0  0  0  0  0  0  0
  144.0020   82.1160  214.7650 N   0  0  0  0  0  0  0  0  0  0  0  0
  144.2820   82.6410  213.9020 H   0  0  0  0  0  0  0  0  0  0  0  0
  144.6810   81.3290  214.8950 H   0  0  0  0  0  0  0  0  0  0  0  0
  144.0810   83.0190  215.9190 C   0  0  0  0  0  0  0  0  0  0  0  0
  145.0804   83.4770  215.9556 H   0  0  0  0  0  0  0  0  0  0  0  0
  143.3154   83.8024  215.8180 H   0  0  0  0  0  0  0  0  0  0  0  0
  143.8330   82.2360  217.2150 C   0  0  0  0  0  0  0  0  0  0  0  0
  144.7613   81.7239  217.5082 H   0  0  0  0  0  0  0  0  0  0  0  0
  143.5182   82.9442  217.9956 H   0  0  0  0  0  0  0  0  0  0  0  0
  142.7970   78.8880  217.7380 N   0  0  0  0  0  0  0  0  0  0  0  0
  143.1460   78.6110  216.7960 H   0  0  0  0  0  0  0  0  0  0  0  0
  143.4800   76.1570  217.1230 C   0  0  0  0  0  0  0  0  0  0  0  0
  144.3688   76.7918  216.9926 H   0  0  0  0  0  0  0  0  0  0  0  0
  142.7498   76.2998  216.3128 H   0  0  0  0  0  0  0  0  0  0  0  0
  143.9220   74.6810  217.0890 C   0  0  0  0  0  0  0  0  0  0  0  0
  144.7284   74.5655  216.3499 H   0  0  0  0  0  0  0  0  0  0  0  0
  143.0526   74.0647  216.8164 H   0  0  0  0  0  0  0  0  0  0  0  0
  1  2  1  0
  2  3  2  0
  3  4  1  0
  3  5  1  0
  5  6  1  0
  5  7  2  0
  7  8  1  0
  8  9  2  0
  9 10  1  0
  8 11  1  0
 11 12  1  0
 11 13  1  0
 11 14  1  0
 14 15  1  0
 15 16  2  0
 16 17  1  0
 17 18  2  0
 18 19  1  0
 18 20  1  0
 20 21  1  0
 20 22  1  0
 20 23  1  0
 23 24  1  0
 23 25  1  0
 23 26  1  0
 26 27  1  0
 26 28  1  0
 26 29  1  0
 29 30  1  0
 29 31  1  0
 29 32  1  0
 32 33  1  0
 32 34  1  0
 32 35  1  0
 35 36  1  0
 36 37  1  0
 36 38  1  0
 36 39  1  0
 39 40  1  0
 39 41  1  0
 39 42  1  0
 42 43  1  0
 42 44  1  0
 42 45  1  0
 45 46  1  0
 45 47  1  0
 17 48  1  0
 48 49  2  0
 49 50  1  0
 50 51  1  0
 51 52  1  0
 51 53  1  0
 51 54  1  0
 54 55  1  0
 54 56  1  0
 54 57  1  0
 57 58  1  0
 57 59  1  0
 57 60  1  0
 60 61  1  0
 60 62  1  0
 60 63  1  0
 63 64  1  0
 63 65  1  0
 49 66  1  0
 66 67  1  0
 14 68  1  0
 68 69  1  0
 68 70  1  0
 68 71  1  0
 71 72  1  0
 71 73  1  0
  9  2  1  0
 66 15  1  0
 71  7  1  0
 45 35  1  0
 63 50  1  0
M  CHG  2  18   1  57   1
M  END
>  <UniqueID>  (51) 
482

>  <SMILES>  (51) 
c1ccc2c(c1)CCN(c1n/c(=[NH+]\CCCCCN3CCCC3)nc(N3CC[NH2+]CC3)[nH]1)C2

>  <Energy>  (51) 
81.83170711428579

>  <Genealogy>  (51) 
c1ccc2c(c1)CCN(c1nc([NH2+]CCCCCN3CCCC3)nc(N3CC[NH2+]CC3)n1)C2 (protonated)
c1ccc2c(c1)CCN(c1nc(=[NH+]CCCCCN3CCCC3)nc(N3CC[NH2+]CC3)[nH]1)C2 (tautomer)
c1ccc2c(c1)CCN(c1n/c(=[NH+]\CCCCCN3CCCC3)nc(N3CC[NH2+]CC3)[nH]1)C2 (cis-trans isomerization)
c1ccc2c(c1)CCN(c1n/c(=[NH+]\CCCCCN3CCCC3)nc(N3CC[NH2+]CC3)[nH]1)C2 (3D coordinates assigned)
c1ccc2c(c1)CCN(c1n/c(=[NH+]\CCCCCN3CCCC3)nc(N3CC[NH2+]CC3)[nH]1)C2 (nonaromatic ring conformer: 81.83170711428579 kcal/mol)

>  <smiles>  (51) 
c1ccc2c(c1)CCN(c1nc(NCCCCCN3CCCC3)nc(N3CCNCC3)n1)C2

>  <score_type>  (51) 
oracle

>  <origin>  (51) 
autodockgpu

>  <m_score__min__energy>  (51) 
-9.7300000000000004

>  <m_primary>  (51) 
energy

>  <meeko>  (51) 
{"free_energy": -7.98, "intermolecular_energy": -10.66, "internal_energy": -1.61, "cluster_size": 8, "cluster_id": 3, "rank_in_cluster": 5}

>  <energy>  (51) 
-7.52

>  <cluster_rmsd>  (51) 
1.67

>  <rmsd>  (51) 
270.83

>  <cluster>  (51) 
3

$$$$
MTUVCRSRZGPGQU-NMOKVYIGNA-P
     RDKit          3D

 73 77  0  0  0  0  0  0  0  0999 V2000
  142.3362   67.7568  227.1004 H   0  0  0  0  0  0  0  0  0  0  0  0
  141.4320   68.1880  226.6460 C   0  0  0  0  0  0  0  0  0  0  0  0
  140.2350   67.4650  226.6530 C   0  0  0  0  0  0  0  0  0  0  0  0
  140.2002   66.4659  227.1119 H   0  0  0  0  0  0  0  0  0  0  0  0
  139.0820   68.0090  226.0780 C   0  0  0  0  0  0  0  0  0  0  0  0
  138.1385   67.4438  226.0972 H   0  0  0  0  0  0  0  0  0  0  0  0
  139.1290   69.2750  225.4770 C   0  0  0  0  0  0  0  0  0  0  0  0
  140.3310   70.0020  225.4740 C   0  0  0  0  0  0  0  0  0  0  0  0
  141.4820   69.4570  226.0630 C   0  0  0  0  0  0  0  0  0  0  0  0
  142.4223   70.0278  226.0658 H   0  0  0  0  0  0  0  0  0  0  0  0
  140.3340   71.3670  224.8550 C   0  0  0  0  0  0  0  0  0  0  0  0
  141.3672   71.6589  224.6155 H   0  0  0  0  0  0  0  0  0  0  0  0
  139.9033   72.0915  225.5618 H   0  0  0  0  0  0  0  0  0  0  0  0
  139.5300   71.3470  223.6200 N   0  0  0  0  0  0  0  0  0  0  0  0
  140.0860   71.8720  222.3980 C   0  0  0  0  0  0  0  0  0  0  0  0
  140.5570   71.0170  221.4550 N   0  0  0  0  0  0  0  0  0  0  0  0
  141.1000   71.4810  220.3020 C   0  0  0  0  0  0  0  0  0  0  0  0
  141.5570   70.6570  219.4000 N   0  0  0  0  0  0  0  0  0  0  0  0
  141.4740   70.9140  218.3900 H   0  0  0  0  0  0  0  0  0  0  0  0
  142.1100   69.3340  219.7150 C   0  0  0  0  0  0  0  0  0  0  0  0
  141.8702   69.0843  220.7591 H   0  0  0  0  0  0  0  0  0  0  0  0
  141.6658   68.5985  219.0282 H   0  0  0  0  0  0  0  0  0  0  0  0
  143.6350   69.3110  219.5320 C   0  0  0  0  0  0  0  0  0  0  0  0
  144.0795   70.1353  220.1090 H   0  0  0  0  0  0  0  0  0  0  0  0
  144.0172   68.3430  219.8881 H   0  0  0  0  0  0  0  0  0  0  0  0
  144.0120   69.4730  218.0510 C   0  0  0  0  0  0  0  0  0  0  0  0
  144.4996   68.5484  217.7084 H   0  0  0  0  0  0  0  0  0  0  0  0
  143.0865   69.6749  217.4918 H   0  0  0  0  0  0  0  0  0  0  0  0
  144.9680   70.6520  217.8100 C   0  0  0  0  0  0  0  0  0  0  0  0
  145.8019   70.3050  217.1821 H   0  0  0  0  0  0  0  0  0  0  0  0
  144.3908   71.4499  217.3199 H   0  0  0  0  0  0  0  0  0  0  0  0
  145.5430   71.2320  219.1120 C   0  0  0  0  0  0  0  0  0  0  0  0
  144.8523   71.0179  219.9409 H   0  0  0  0  0  0  0  0  0  0  0  0
  146.5216   70.7697  219.3084 H   0  0  0  0  0  0  0  0  0  0  0  0
  145.7180   72.6960  218.9880 N   0  0  0  0  0  0  0  0  0  0  0  0
  146.3450   73.2720  220.1900 C   0  0  0  0  0  0  0  0  0  0  0  0
  146.9460   72.5048  220.7001 H   0  0  0  0  0  0  0  0  0  0  0  0
  147.0037   74.1076  219.9108 H   0  0  0  0  0  0  0  0  0  0  0  0
  145.2390   73.7620  221.1180 C   0  0  0  0  0  0  0  0  0  0  0  0
  145.1476   73.0985  221.9906 H   0  0  0  0  0  0  0  0  0  0  0  0
  145.4471   74.7714  221.5025 H   0  0  0  0  0  0  0  0  0  0  0  0
  143.9690   73.7270  220.2910 C   0  0  0  0  0  0  0  0  0  0  0  0
  143.2803   72.9591  220.6732 H   0  0  0  0  0  0  0  0  0  0  0  0
  143.4271   74.6836  220.3270 H   0  0  0  0  0  0  0  0  0  0  0  0
  144.4230   73.3830  218.8840 C   0  0  0  0  0  0  0  0  0  0  0  0
  143.6861   72.7227  218.4034 H   0  0  0  0  0  0  0  0  0  0  0  0
  144.5182   74.2948  218.2761 H   0  0  0  0  0  0  0  0  0  0  0  0
  141.1620   72.8190  220.0890 N   0  0  0  0  0  0  0  0  0  0  0  0
  140.6830   73.6970  221.0120 C   0  0  0  0  0  0  0  0  0  0  0  0
  140.7640   75.1200  220.7580 N   0  0  0  0  0  0  0  0  0  0  0  0
  140.9580   75.6290  219.3910 C   0  0  0  0  0  0  0  0  0  0  0  0
  141.2677   74.7985  218.7395 H   0  0  0  0  0  0  0  0  0  0  0  0
  140.0087   76.0621  219.0427 H   0  0  0  0  0  0  0  0  0  0  0  0
  142.0410   76.7300  219.3530 C   0  0  0  0  0  0  0  0  0  0  0  0
  142.9968   76.2677  219.0654 H   0  0  0  0  0  0  0  0  0  0  0  0
  141.7067   77.4862  218.6274 H   0  0  0  0  0  0  0  0  0  0  0  0
  142.2270   77.4220  220.6450 N   0  0  0  0  0  0  0  0  0  0  0  0
  142.5760   78.3930  220.4650 H   0  0  0  0  0  0  0  0  0  0  0  0
  142.9560   76.9200  221.2070 H   0  0  0  0  0  0  0  0  0  0  0  0
  140.9840   77.4980  221.4220 C   0  0  0  0  0  0  0  0  0  0  0  0
  141.1531   78.1087  222.3212 H   0  0  0  0  0  0  0  0  0  0  0  0
  140.1983   77.9556  220.8028 H   0  0  0  0  0  0  0  0  0  0  0  0
  140.5400   76.0900  221.8400 C   0  0  0  0  0  0  0  0  0  0  0  0
  141.1153   75.7800  222.7249 H   0  0  0  0  0  0  0  0  0  0  0  0
  139.4641   76.1166  222.0674 H   0  0  0  0  0  0  0  0  0  0  0  0
  140.1420   73.2150  222.1710 N   0  0  0  0  0  0  0  0  0  0  0  0
  139.7760   73.8700  222.8930 H   0  0  0  0  0  0  0  0  0  0  0  0
  138.2170   70.6690  223.5910 C   0  0  0  0  0  0  0  0  0  0  0  0
  138.2142   69.9467  222.7614 H   0  0  0  0  0  0  0  0  0  0  0  0
  137.4493   71.4463  223.4629 H   0  0  0  0  0  0  0  0  0  0  0  0
  137.8960   69.9170  224.8970 C   0  0  0  0  0  0  0  0  0  0  0  0
  137.1507   69.1358  224.6866 H   0  0  0  0  0  0  0  0  0  0  0  0
  137.5058   70.6412  225.6273 H   0  0  0  0  0  0  0  0  0  0  0  0
  1  2  1  0
  2  3  2  0
  3  4  1  0
  3  5  1  0
  5  6  1  0
  5  7  2  0
  7  8  1  0
  8  9  2  0
  9 10  1  0
  8 11  1  0
 11 12  1  0
 11 13  1  0
 11 14  1  0
 14 15  1  0
 15 16  2  0
 16 17  1  0
 17 18  2  0
 18 19  1  0
 18 20  1  0
 20 21  1  0
 20 22  1  0
 20 23  1  0
 23 24  1  0
 23 25  1  0
 23 26  1  0
 26 27  1  0
 26 28  1  0
 26 29  1  0
 29 30  1  0
 29 31  1  0
 29 32  1  0
 32 33  1  0
 32 34  1  0
 32 35  1  0
 35 36  1  0
 36 37  1  0
 36 38  1  0
 36 39  1  0
 39 40  1  0
 39 41  1  0
 39 42  1  0
 42 43  1  0
 42 44  1  0
 42 45  1  0
 45 46  1  0
 45 47  1  0
 17 48  1  0
 48 49  2  0
 49 50  1  0
 50 51  1  0
 51 52  1  0
 51 53  1  0
 51 54  1  0
 54 55  1  0
 54 56  1  0
 54 57  1  0
 57 58  1  0
 57 59  1  0
 57 60  1  0
 60 61  1  0
 60 62  1  0
 60 63  1  0
 63 64  1  0
 63 65  1  0
 49 66  1  0
 66 67  1  0
 14 68  1  0
 68 69  1  0
 68 70  1  0
 68 71  1  0
 71 72  1  0
 71 73  1  0
  9  2  1  0
 66 15  1  0
 71  7  1  0
 45 35  1  0
 63 50  1  0
M  CHG  2  18   1  57   1
M  END
>  <UniqueID>  (52) 
482

>  <SMILES>  (52) 
c1ccc2c(c1)CCN(c1n/c(=[NH+]\CCCCCN3CCCC3)nc(N3CC[NH2+]CC3)[nH]1)C2

>  <Energy>  (52) 
81.83170711428579

>  <Genealogy>  (52) 
c1ccc2c(c1)CCN(c1nc([NH2+]CCCCCN3CCCC3)nc(N3CC[NH2+]CC3)n1)C2 (protonated)
c1ccc2c(c1)CCN(c1nc(=[NH+]CCCCCN3CCCC3)nc(N3CC[NH2+]CC3)[nH]1)C2 (tautomer)
c1ccc2c(c1)CCN(c1n/c(=[NH+]\CCCCCN3CCCC3)nc(N3CC[NH2+]CC3)[nH]1)C2 (cis-trans isomerization)
c1ccc2c(c1)CCN(c1n/c(=[NH+]\CCCCCN3CCCC3)nc(N3CC[NH2+]CC3)[nH]1)C2 (3D coordinates assigned)
c1ccc2c(c1)CCN(c1n/c(=[NH+]\CCCCCN3CCCC3)nc(N3CC[NH2+]CC3)[nH]1)C2 (nonaromatic ring conformer: 81.83170711428579 kcal/mol)

>  <smiles>  (52) 
c1ccc2c(c1)CCN(c1nc(NCCCCCN3CCCC3)nc(N3CCNCC3)n1)C2

>  <score_type>  (52) 
oracle

>  <origin>  (52) 
autodockgpu

>  <m_score__min__energy>  (52) 
-9.7300000000000004

>  <m_primary>  (52) 
energy

>  <meeko>  (52) 
{"free_energy": -8.06, "intermolecular_energy": -10.75, "internal_energy": -1.17, "cluster_size": 1, "cluster_id": 4, "rank_in_cluster": 1}

>  <energy>  (52) 
-8.06

>  <cluster_rmsd>  (52) 
0.0

>  <rmsd>  (52) 
270.75

>  <cluster>  (52) 
4

$$$$
MTUVCRSRZGPGQU-NMOKVYIGNA-P
     RDKit          3D

 73 77  0  0  0  0  0  0  0  0999 V2000
  145.2064   73.2554  221.8233 H   0  0  0  0  0  0  0  0  0  0  0  0
  144.8830   73.5970  220.8290 C   0  0  0  0  0  0  0  0  0  0  0  0
  145.5410   73.1360  219.6850 C   0  0  0  0  0  0  0  0  0  0  0  0
  146.3811   72.4324  219.7814 H   0  0  0  0  0  0  0  0  0  0  0  0
  145.1340   73.5670  218.4180 C   0  0  0  0  0  0  0  0  0  0  0  0
  145.6456   73.1927  217.5190 H   0  0  0  0  0  0  0  0  0  0  0  0
  144.0730   74.4770  218.2940 C   0  0  0  0  0  0  0  0  0  0  0  0
  143.4110   74.9360  219.4440 C   0  0  0  0  0  0  0  0  0  0  0  0
  143.8150   74.4910  220.7120 C   0  0  0  0  0  0  0  0  0  0  0  0
  143.2920   74.8452  221.6125 H   0  0  0  0  0  0  0  0  0  0  0  0
  142.2580   75.8790  219.2700 C   0  0  0  0  0  0  0  0  0  0  0  0
  142.0706   76.4081  220.2160 H   0  0  0  0  0  0  0  0  0  0  0  0
  141.3597   75.3123  218.9837 H   0  0  0  0  0  0  0  0  0  0  0  0
  142.5800   76.8560  218.2160 N   0  0  0  0  0  0  0  0  0  0  0  0
  142.4140   78.2650  218.4740 C   0  0  0  0  0  0  0  0  0  0  0  0
  141.9040   78.6720  219.6630 N   0  0  0  0  0  0  0  0  0  0  0  0
  141.7220   79.9900  219.9300 C   0  0  0  0  0  0  0  0  0  0  0  0
  141.2260   80.3780  221.0730 N   0  0  0  0  0  0  0  0  0  0  0  0
  140.4370   79.8350  221.4930 H   0  0  0  0  0  0  0  0  0  0  0  0
  141.6540   81.5960  221.7710 C   0  0  0  0  0  0  0  0  0  0  0  0
  142.5185   82.0263  221.2442 H   0  0  0  0  0  0  0  0  0  0  0  0
  140.8132   82.3051  221.7809 H   0  0  0  0  0  0  0  0  0  0  0  0
  142.0520   81.2940  223.2230 C   0  0  0  0  0  0  0  0  0  0  0  0
  142.8527   81.9839  223.5279 H   0  0  0  0  0  0  0  0  0  0  0  0
  141.1677   81.4243  223.8642 H   0  0  0  0  0  0  0  0  0  0  0  0
  142.5530   79.8470  223.3650 C   0  0  0  0  0  0  0  0  0  0  0  0
  142.8627   79.4826  222.3744 H   0  0  0  0  0  0  0  0  0  0  0  0
  143.3926   79.8532  224.0756 H   0  0  0  0  0  0  0  0  0  0  0  0
  141.4780   78.9020  223.9230 C   0  0  0  0  0  0  0  0  0  0  0  0
  141.8081   78.5371  224.9068 H   0  0  0  0  0  0  0  0  0  0  0  0
  140.5403   79.4729  223.9912 H   0  0  0  0  0  0  0  0  0  0  0  0
  141.2150   77.6910  223.0140 C   0  0  0  0  0  0  0  0  0  0  0  0
  142.1399   77.4323  222.4777 H   0  0  0  0  0  0  0  0  0  0  0  0
  140.8887   76.8429  223.6338 H   0  0  0  0  0  0  0  0  0  0  0  0
  140.1530   78.0060  222.0320 N   0  0  0  0  0  0  0  0  0  0  0  0
  138.8670   78.2860  222.6940 C   0  0  0  0  0  0  0  0  0  0  0  0
  139.0460   78.6457  223.7180 H   0  0  0  0  0  0  0  0  0  0  0  0
  138.3156   79.0603  222.1404 H   0  0  0  0  0  0  0  0  0  0  0  0
  138.0600   76.9930  222.7350 C   0  0  0  0  0  0  0  0  0  0  0  0
  138.0264   76.5935  223.7593 H   0  0  0  0  0  0  0  0  0  0  0  0
  137.0188   77.1524  222.4181 H   0  0  0  0  0  0  0  0  0  0  0  0
  138.7860   76.0310  221.8150 C   0  0  0  0  0  0  0  0  0  0  0  0
  139.2247   75.2028  222.3908 H   0  0  0  0  0  0  0  0  0  0  0  0
  138.1093   75.5782  221.0754 H   0  0  0  0  0  0  0  0  0  0  0  0
  139.8760   76.8590  221.1570 C   0  0  0  0  0  0  0  0  0  0  0  0
  140.7855   76.2524  221.0348 H   0  0  0  0  0  0  0  0  0  0  0  0
  139.5535   77.2012  220.1626 H   0  0  0  0  0  0  0  0  0  0  0  0
  142.0640   80.9090  218.9930 N   0  0  0  0  0  0  0  0  0  0  0  0
  142.5910   80.5280  217.7980 C   0  0  0  0  0  0  0  0  0  0  0  0
  142.9450   81.5320  216.8170 N   0  0  0  0  0  0  0  0  0  0  0  0
  142.1530   81.6940  215.5880 C   0  0  0  0  0  0  0  0  0  0  0  0
  141.4972   80.8193  215.4663 H   0  0  0  0  0  0  0  0  0  0  0  0
  141.5594   82.6158  215.6762 H   0  0  0  0  0  0  0  0  0  0  0  0
  143.0630   81.8170  214.3470 C   0  0  0  0  0  0  0  0  0  0  0  0
  143.1497   80.8251  213.8795 H   0  0  0  0  0  0  0  0  0  0  0  0
  142.5978   82.5555  213.6774 H   0  0  0  0  0  0  0  0  0  0  0  0
  144.4220   82.3080  214.6570 N   0  0  0  0  0  0  0  0  0  0  0  0
  144.8050   82.8020  213.8160 H   0  0  0  0  0  0  0  0  0  0  0  0
  145.0490   81.4940  214.8630 H   0  0  0  0  0  0  0  0  0  0  0  0
  144.4350   83.2310  215.7990 C   0  0  0  0  0  0  0  0  0  0  0  0
  145.4467   83.6451  215.9216 H   0  0  0  0  0  0  0  0  0  0  0  0
  143.7193   84.0456  215.6140 H   0  0  0  0  0  0  0  0  0  0  0  0
  144.0320   82.4860  217.0780 C   0  0  0  0  0  0  0  0  0  0  0  0
  144.9045   81.9389  217.4646 H   0  0  0  0  0  0  0  0  0  0  0  0
  143.6792   83.2233  217.8142 H   0  0  0  0  0  0  0  0  0  0  0  0
  142.7660   79.1970  217.5430 N   0  0  0  0  0  0  0  0  0  0  0  0
  143.1610   78.8830  216.6320 H   0  0  0  0  0  0  0  0  0  0  0  0
  143.2000   76.4160  216.9490 C   0  0  0  0  0  0  0  0  0  0  0  0
  144.1152   77.0036  216.7843 H   0  0  0  0  0  0  0  0  0  0  0  0
  142.4609   76.5732  216.1496 H   0  0  0  0  0  0  0  0  0  0  0  0
  143.5700   74.9200  216.9460 C   0  0  0  0  0  0  0  0  0  0  0  0
  144.3559   74.7470  216.1960 H   0  0  0  0  0  0  0  0  0  0  0  0
  142.6669   74.3400  216.7052 H   0  0  0  0  0  0  0  0  0  0  0  0
  1  2  1  0
  2  3  2  0
  3  4  1  0
  3  5  1  0
  5  6  1  0
  5  7  2  0
  7  8  1  0
  8  9  2  0
  9 10  1  0
  8 11  1  0
 11 12  1  0
 11 13  1  0
 11 14  1  0
 14 15  1  0
 15 16  2  0
 16 17  1  0
 17 18  2  0
 18 19  1  0
 18 20  1  0
 20 21  1  0
 20 22  1  0
 20 23  1  0
 23 24  1  0
 23 25  1  0
 23 26  1  0
 26 27  1  0
 26 28  1  0
 26 29  1  0
 29 30  1  0
 29 31  1  0
 29 32  1  0
 32 33  1  0
 32 34  1  0
 32 35  1  0
 35 36  1  0
 36 37  1  0
 36 38  1  0
 36 39  1  0
 39 40  1  0
 39 41  1  0
 39 42  1  0
 42 43  1  0
 42 44  1  0
 42 45  1  0
 45 46  1  0
 45 47  1  0
 17 48  1  0
 48 49  2  0
 49 50  1  0
 50 51  1  0
 51 52  1  0
 51 53  1  0
 51 54  1  0
 54 55  1  0
 54 56  1  0
 54 57  1  0
 57 58  1  0
 57 59  1  0
 57 60  1  0
 60 61  1  0
 60 62  1  0
 60 63  1  0
 63 64  1  0
 63 65  1  0
 49 66  1  0
 66 67  1  0
 14 68  1  0
 68 69  1  0
 68 70  1  0
 68 71  1  0
 71 72  1  0
 71 73  1  0
  9  2  1  0
 66 15  1  0
 71  7  1  0
 45 35  1  0
 63 50  1  0
M  CHG  2  18   1  57   1
M  END
>  <UniqueID>  (53) 
482

>  <SMILES>  (53) 
c1ccc2c(c1)CCN(c1n/c(=[NH+]\CCCCCN3CCCC3)nc(N3CC[NH2+]CC3)[nH]1)C2

>  <Energy>  (53) 
81.83170711428579

>  <Genealogy>  (53) 
c1ccc2c(c1)CCN(c1nc([NH2+]CCCCCN3CCCC3)nc(N3CC[NH2+]CC3)n1)C2 (protonated)
c1ccc2c(c1)CCN(c1nc(=[NH+]CCCCCN3CCCC3)nc(N3CC[NH2+]CC3)[nH]1)C2 (tautomer)
c1ccc2c(c1)CCN(c1n/c(=[NH+]\CCCCCN3CCCC3)nc(N3CC[NH2+]CC3)[nH]1)C2 (cis-trans isomerization)
c1ccc2c(c1)CCN(c1n/c(=[NH+]\CCCCCN3CCCC3)nc(N3CC[NH2+]CC3)[nH]1)C2 (3D coordinates assigned)
c1ccc2c(c1)CCN(c1n/c(=[NH+]\CCCCCN3CCCC3)nc(N3CC[NH2+]CC3)[nH]1)C2 (nonaromatic ring conformer: 81.83170711428579 kcal/mol)

>  <smiles>  (53) 
c1ccc2c(c1)CCN(c1nc(NCCCCCN3CCCC3)nc(N3CCNCC3)n1)C2

>  <score_type>  (53) 
oracle

>  <origin>  (53) 
autodockgpu

>  <m_score__min__energy>  (53) 
-9.7300000000000004

>  <m_primary>  (53) 
energy

>  <meeko>  (53) 
{"free_energy": -8.25, "intermolecular_energy": -10.93, "internal_energy": -2.0, "cluster_size": 8, "cluster_id": 3, "rank_in_cluster": 2}

>  <energy>  (53) 
-7.75

>  <cluster_rmsd>  (53) 
0.0

>  <rmsd>  (53) 
271.58

>  <cluster>  (53) 
5

$$$$
MTUVCRSRZGPGQU-NMOKVYIGNA-P
     RDKit          3D

 73 77  0  0  0  0  0  0  0  0999 V2000
  145.2113   73.2034  221.8561 H   0  0  0  0  0  0  0  0  0  0  0  0
  144.8820   73.5460  220.8640 C   0  0  0  0  0  0  0  0  0  0  0  0
  145.5240   73.0740  219.7140 C   0  0  0  0  0  0  0  0  0  0  0  0
  146.3575   72.3618  219.8038 H   0  0  0  0  0  0  0  0  0  0  0  0
  145.1080   73.5060  218.4500 C   0  0  0  0  0  0  0  0  0  0  0  0
  145.6053   73.1232  217.5466 H   0  0  0  0  0  0  0  0  0  0  0  0
  144.0570   74.4270  218.3350 C   0  0  0  0  0  0  0  0  0  0  0  0
  143.4110   74.8970  219.4900 C   0  0  0  0  0  0  0  0  0  0  0  0
  143.8230   74.4520  220.7550 C   0  0  0  0  0  0  0  0  0  0  0  0
  143.3136   74.8154  221.6597 H   0  0  0  0  0  0  0  0  0  0  0  0
  142.2670   75.8520  219.3250 C   0  0  0  0  0  0  0  0  0  0  0  0
  142.0952   76.3859  220.2713 H   0  0  0  0  0  0  0  0  0  0  0  0
  141.3597   75.2944  219.0497 H   0  0  0  0  0  0  0  0  0  0  0  0
  142.5890   76.8230  218.2640 N   0  0  0  0  0  0  0  0  0  0  0  0
  142.4420   78.2340  218.5200 C   0  0  0  0  0  0  0  0  0  0  0  0
  141.9690   78.6520  219.7210 N   0  0  0  0  0  0  0  0  0  0  0  0
  141.8040   79.9720  219.9860 C   0  0  0  0  0  0  0  0  0  0  0  0
  141.3430   80.3690  221.1400 N   0  0  0  0  0  0  0  0  0  0  0  0
  140.5420   79.8530  221.5700 H   0  0  0  0  0  0  0  0  0  0  0  0
  141.8290   81.5650  221.8390 C   0  0  0  0  0  0  0  0  0  0  0  0
  142.8818   81.7353  221.5696 H   0  0  0  0  0  0  0  0  0  0  0  0
  141.2084   82.4216  221.5372 H   0  0  0  0  0  0  0  0  0  0  0  0
  141.7220   81.3990  223.3620 C   0  0  0  0  0  0  0  0  0  0  0  0
  142.3259   82.1769  223.8522 H   0  0  0  0  0  0  0  0  0  0  0  0
  140.6650   81.4928  223.6519 H   0  0  0  0  0  0  0  0  0  0  0  0
  142.2300   80.0170  223.8010 C   0  0  0  0  0  0  0  0  0  0  0  0
  142.9367   79.6449  223.0447 H   0  0  0  0  0  0  0  0  0  0  0  0
  142.7116   80.1356  224.7828 H   0  0  0  0  0  0  0  0  0  0  0  0
  141.0950   78.9930  223.9600 C   0  0  0  0  0  0  0  0  0  0  0  0
  141.0674   78.6596  225.0079 H   0  0  0  0  0  0  0  0  0  0  0  0
  140.1591   79.4890  223.6633 H   0  0  0  0  0  0  0  0  0  0  0  0
  141.2700   77.7610  223.0580 C   0  0  0  0  0  0  0  0  0  0  0  0
  142.2863   77.7607  222.6371 H   0  0  0  0  0  0  0  0  0  0  0  0
  141.1105   76.8527  223.6576 H   0  0  0  0  0  0  0  0  0  0  0  0
  140.2840   77.7890  221.9540 N   0  0  0  0  0  0  0  0  0  0  0  0
  138.9600   78.2360  222.4180 C   0  0  0  0  0  0  0  0  0  0  0  0
  139.0724   78.8661  223.3126 H   0  0  0  0  0  0  0  0  0  0  0  0
  138.4616   78.8241  221.6334 H   0  0  0  0  0  0  0  0  0  0  0  0
  138.1310   77.0020  222.7570 C   0  0  0  0  0  0  0  0  0  0  0  0
  138.0203   76.9010  223.8468 H   0  0  0  0  0  0  0  0  0  0  0  0
  137.1168   77.0640  222.3356 H   0  0  0  0  0  0  0  0  0  0  0  0
  138.9030   75.8260  222.1920 C   0  0  0  0  0  0  0  0  0  0  0  0
  139.2861   75.1899  223.0036 H   0  0  0  0  0  0  0  0  0  0  0  0
  138.2720   75.1851  221.5587 H   0  0  0  0  0  0  0  0  0  0  0  0
  140.0500   76.4430  221.4120 C   0  0  0  0  0  0  0  0  0  0  0  0
  140.9555   75.8293  221.5284 H   0  0  0  0  0  0  0  0  0  0  0  0
  139.8042   76.4956  220.3411 H   0  0  0  0  0  0  0  0  0  0  0  0
  142.1280   80.8840  219.0350 N   0  0  0  0  0  0  0  0  0  0  0  0
  142.6180   80.4930  217.8280 C   0  0  0  0  0  0  0  0  0  0  0  0
  142.9530   81.4890  216.8330 N   0  0  0  0  0  0  0  0  0  0  0  0
  142.1620   81.6130  215.5980 C   0  0  0  0  0  0  0  0  0  0  0  0
  141.5270   80.7216  215.4880 H   0  0  0  0  0  0  0  0  0  0  0  0
  141.5468   82.5221  215.6690 H   0  0  0  0  0  0  0  0  0  0  0  0
  143.0750   81.7370  214.3580 C   0  0  0  0  0  0  0  0  0  0  0  0
  143.1871   80.7399  213.9073 H   0  0  0  0  0  0  0  0  0  0  0  0
  142.5957   82.4530  213.6742 H   0  0  0  0  0  0  0  0  0  0  0  0
  144.4210   82.2650  214.6660 N   0  0  0  0  0  0  0  0  0  0  0  0
  144.7960   82.7550  213.8190 H   0  0  0  0  0  0  0  0  0  0  0  0
  145.0660   81.4690  214.8870 H   0  0  0  0  0  0  0  0  0  0  0  0
  144.4070   83.2060  215.7930 C   0  0  0  0  0  0  0  0  0  0  0  0
  145.4079   83.6464  215.9128 H   0  0  0  0  0  0  0  0  0  0  0  0
  143.6726   84.0000  215.5924 H   0  0  0  0  0  0  0  0  0  0  0  0
  144.0170   82.4720  217.0820 C   0  0  0  0  0  0  0  0  0  0  0  0
  144.9006   81.9513  217.4797 H   0  0  0  0  0  0  0  0  0  0  0  0
  143.6447   83.2124  217.8053 H   0  0  0  0  0  0  0  0  0  0  0  0
  142.7750   79.1590  217.5750 N   0  0  0  0  0  0  0  0  0  0  0  0
  143.1430   78.8380  216.6550 H   0  0  0  0  0  0  0  0  0  0  0  0
  143.1920   76.3720  216.9930 C   0  0  0  0  0  0  0  0  0  0  0  0
  144.1123   76.9486  216.8181 H   0  0  0  0  0  0  0  0  0  0  0  0
  142.4469   76.5352  216.2004 H   0  0  0  0  0  0  0  0  0  0  0  0
  143.5450   74.8720  216.9900 C   0  0  0  0  0  0  0  0  0  0  0  0
  144.3211   74.6882  216.2325 H   0  0  0  0  0  0  0  0  0  0  0  0
  142.6332   74.3014  216.7597 H   0  0  0  0  0  0  0  0  0  0  0  0
  1  2  1  0
  2  3  2  0
  3  4  1  0
  3  5  1  0
  5  6  1  0
  5  7  2  0
  7  8  1  0
  8  9  2  0
  9 10  1  0
  8 11  1  0
 11 12  1  0
 11 13  1  0
 11 14  1  0
 14 15  1  0
 15 16  2  0
 16 17  1  0
 17 18  2  0
 18 19  1  0
 18 20  1  0
 20 21  1  0
 20 22  1  0
 20 23  1  0
 23 24  1  0
 23 25  1  0
 23 26  1  0
 26 27  1  0
 26 28  1  0
 26 29  1  0
 29 30  1  0
 29 31  1  0
 29 32  1  0
 32 33  1  0
 32 34  1  0
 32 35  1  0
 35 36  1  0
 36 37  1  0
 36 38  1  0
 36 39  1  0
 39 40  1  0
 39 41  1  0
 39 42  1  0
 42 43  1  0
 42 44  1  0
 42 45  1  0
 45 46  1  0
 45 47  1  0
 17 48  1  0
 48 49  2  0
 49 50  1  0
 50 51  1  0
 51 52  1  0
 51 53  1  0
 51 54  1  0
 54 55  1  0
 54 56  1  0
 54 57  1  0
 57 58  1  0
 57 59  1  0
 57 60  1  0
 60 61  1  0
 60 62  1  0
 60 63  1  0
 63 64  1  0
 63 65  1  0
 49 66  1  0
 66 67  1  0
 14 68  1  0
 68 69  1  0
 68 70  1  0
 68 71  1  0
 71 72  1  0
 71 73  1  0
  9  2  1  0
 66 15  1  0
 71  7  1  0
 45 35  1  0
 63 50  1  0
M  CHG  2  18   1  57   1
M  END
>  <UniqueID>  (54) 
482

>  <SMILES>  (54) 
c1ccc2c(c1)CCN(c1n/c(=[NH+]\CCCCCN3CCCC3)nc(N3CC[NH2+]CC3)[nH]1)C2

>  <Energy>  (54) 
81.83170711428579

>  <Genealogy>  (54) 
c1ccc2c(c1)CCN(c1nc([NH2+]CCCCCN3CCCC3)nc(N3CC[NH2+]CC3)n1)C2 (protonated)
c1ccc2c(c1)CCN(c1nc(=[NH+]CCCCCN3CCCC3)nc(N3CC[NH2+]CC3)[nH]1)C2 (tautomer)
c1ccc2c(c1)CCN(c1n/c(=[NH+]\CCCCCN3CCCC3)nc(N3CC[NH2+]CC3)[nH]1)C2 (cis-trans isomerization)
c1ccc2c(c1)CCN(c1n/c(=[NH+]\CCCCCN3CCCC3)nc(N3CC[NH2+]CC3)[nH]1)C2 (3D coordinates assigned)
c1ccc2c(c1)CCN(c1n/c(=[NH+]\CCCCCN3CCCC3)nc(N3CC[NH2+]CC3)[nH]1)C2 (nonaromatic ring conformer: 81.83170711428579 kcal/mol)

>  <smiles>  (54) 
c1ccc2c(c1)CCN(c1nc(NCCCCCN3CCCC3)nc(N3CCNCC3)n1)C2

>  <score_type>  (54) 
oracle

>  <origin>  (54) 
autodockgpu

>  <m_score__min__energy>  (54) 
-9.7300000000000004

>  <m_primary>  (54) 
energy

>  <meeko>  (54) 
{"free_energy": -8.21, "intermolecular_energy": -10.89, "internal_energy": -1.93, "cluster_size": 8, "cluster_id": 3, "rank_in_cluster": 4}

>  <energy>  (54) 
-7.55

>  <cluster_rmsd>  (54) 
0.63

>  <rmsd>  (54) 
271.42

>  <cluster>  (54) 
5

$$$$
MTUVCRSRZGPGQU-NMOKVYIGNA-P
     RDKit          3D

 73 77  0  0  0  0  0  0  0  0999 V2000
  141.5854   69.6721  228.4521 H   0  0  0  0  0  0  0  0  0  0  0  0
  141.0850   69.5040  227.4870 C   0  0  0  0  0  0  0  0  0  0  0  0
  140.9210   68.2020  227.0040 C   0  0  0  0  0  0  0  0  0  0  0  0
  141.2928   67.3486  227.5900 H   0  0  0  0  0  0  0  0  0  0  0  0
  140.2850   67.9820  225.7770 C   0  0  0  0  0  0  0  0  0  0  0  0
  140.1451   66.9561  225.4056 H   0  0  0  0  0  0  0  0  0  0  0  0
  139.8260   69.0710  225.0210 C   0  0  0  0  0  0  0  0  0  0  0  0
  139.9880   70.3780  225.5100 C   0  0  0  0  0  0  0  0  0  0  0  0
  140.6150   70.5920  226.7470 C   0  0  0  0  0  0  0  0  0  0  0  0
  140.7363   71.6147  227.1335 H   0  0  0  0  0  0  0  0  0  0  0  0
  139.4510   71.5130  224.6910 C   0  0  0  0  0  0  0  0  0  0  0  0
  139.9358   72.4505  225.0009 H   0  0  0  0  0  0  0  0  0  0  0  0
  138.3648   71.5943  224.8442 H   0  0  0  0  0  0  0  0  0  0  0  0
  139.7290   71.2640  223.2660 N   0  0  0  0  0  0  0  0  0  0  0  0
  140.3600   72.2890  222.4720 C   0  0  0  0  0  0  0  0  0  0  0  0
  139.7570   73.4960  222.3340 N   0  0  0  0  0  0  0  0  0  0  0  0
  140.3180   74.4750  221.5820 C   0  0  0  0  0  0  0  0  0  0  0  0
  139.7310   75.6330  221.4460 N   0  0  0  0  0  0  0  0  0  0  0  0
  139.7800   76.1200  220.5210 H   0  0  0  0  0  0  0  0  0  0  0  0
  139.0740   76.3440  222.5490 C   0  0  0  0  0  0  0  0  0  0  0  0
  138.0661   75.9281  222.6941 H   0  0  0  0  0  0  0  0  0  0  0  0
  139.6813   76.2152  223.4571 H   0  0  0  0  0  0  0  0  0  0  0  0
  138.9580   77.8450  222.2510 C   0  0  0  0  0  0  0  0  0  0  0  0
  139.1214   78.0123  221.1762 H   0  0  0  0  0  0  0  0  0  0  0  0
  137.9539   78.1846  222.5449 H   0  0  0  0  0  0  0  0  0  0  0  0
  140.0000   78.6460  223.0490 C   0  0  0  0  0  0  0  0  0  0  0  0
  139.8497   79.7172  222.8493 H   0  0  0  0  0  0  0  0  0  0  0  0
  139.8593   78.4089  224.1139 H   0  0  0  0  0  0  0  0  0  0  0  0
  141.4430   78.2730  222.6750 C   0  0  0  0  0  0  0  0  0  0  0  0
  142.1292   78.8059  223.3496 H   0  0  0  0  0  0  0  0  0  0  0  0
  141.5376   77.1815  222.7731 H   0  0  0  0  0  0  0  0  0  0  0  0
  141.7990   78.6380  221.2250 C   0  0  0  0  0  0  0  0  0  0  0  0
  141.2636   79.5556  220.9398 H   0  0  0  0  0  0  0  0  0  0  0  0
  142.8849   78.7975  221.1523 H   0  0  0  0  0  0  0  0  0  0  0  0
  141.4110   77.5420  220.3100 N   0  0  0  0  0  0  0  0  0  0  0  0
  142.5860   76.8100  219.8090 C   0  0  0  0  0  0  0  0  0  0  0  0
  143.4163   76.9046  220.5244 H   0  0  0  0  0  0  0  0  0  0  0  0
  142.3454   75.7435  219.6879 H   0  0  0  0  0  0  0  0  0  0  0  0
  142.9890   77.4140  218.4680 C   0  0  0  0  0  0  0  0  0  0  0  0
  143.9154   77.9978  218.5726 H   0  0  0  0  0  0  0  0  0  0  0  0
  143.1820   76.6375  217.7131 H   0  0  0  0  0  0  0  0  0  0  0  0
  141.8380   78.3150  218.0650 C   0  0  0  0  0  0  0  0  0  0  0  0
  142.1492   79.3699  218.0812 H   0  0  0  0  0  0  0  0  0  0  0  0
  141.4877   78.1048  217.0437 H   0  0  0  0  0  0  0  0  0  0  0  0
  140.7570   78.0620  219.1010 C   0  0  0  0  0  0  0  0  0  0  0  0
  140.2329   79.0009  219.3328 H   0  0  0  0  0  0  0  0  0  0  0  0
  140.0196   77.3399  218.7205 H   0  0  0  0  0  0  0  0  0  0  0  0
  141.5040   74.2410  220.9670 N   0  0  0  0  0  0  0  0  0  0  0  0
  142.1380   73.0450  221.1010 C   0  0  0  0  0  0  0  0  0  0  0  0
  143.4030   72.8230  220.4330 N   0  0  0  0  0  0  0  0  0  0  0  0
  144.6720   72.9640  221.1630 C   0  0  0  0  0  0  0  0  0  0  0  0
  144.4818   73.4781  222.1167 H   0  0  0  0  0  0  0  0  0  0  0  0
  145.0856   71.9600  221.3386 H   0  0  0  0  0  0  0  0  0  0  0  0
  145.7000   73.7800  220.3470 C   0  0  0  0  0  0  0  0  0  0  0  0
  145.6610   74.8261  220.6849 H   0  0  0  0  0  0  0  0  0  0  0  0
  146.6853   73.3220  220.5184 H   0  0  0  0  0  0  0  0  0  0  0  0
  145.4550   73.7500  218.8900 N   0  0  0  0  0  0  0  0  0  0  0  0
  146.3660   73.8850  218.3890 H   0  0  0  0  0  0  0  0  0  0  0  0
  144.8250   74.5450  218.6260 H   0  0  0  0  0  0  0  0  0  0  0  0
  144.8510   72.4860  218.4510 C   0  0  0  0  0  0  0  0  0  0  0  0
  144.7863   72.4752  217.3530 H   0  0  0  0  0  0  0  0  0  0  0  0
  145.4751   71.6486  218.7963 H   0  0  0  0  0  0  0  0  0  0  0  0
  143.4440   72.3430  219.0440 C   0  0  0  0  0  0  0  0  0  0  0  0
  142.7381   72.9316  218.4397 H   0  0  0  0  0  0  0  0  0  0  0  0
  143.1677   71.2783  219.0343 H   0  0  0  0  0  0  0  0  0  0  0  0
  141.5580   72.0670  221.8600 N   0  0  0  0  0  0  0  0  0  0  0  0
  142.0240   71.1410  221.9710 H   0  0  0  0  0  0  0  0  0  0  0  0
  139.4950   69.9290  222.6790 C   0  0  0  0  0  0  0  0  0  0  0  0
  140.4207   69.5958  222.1870 H   0  0  0  0  0  0  0  0  0  0  0  0
  138.6618   70.0252  221.9672 H   0  0  0  0  0  0  0  0  0  0  0  0
  139.0870   68.8720  223.7240 C   0  0  0  0  0  0  0  0  0  0  0  0
  139.3176   67.8711  223.3302 H   0  0  0  0  0  0  0  0  0  0  0  0
  138.0093   68.9747  223.9192 H   0  0  0  0  0  0  0  0  0  0  0  0
  1  2  1  0
  2  3  2  0
  3  4  1  0
  3  5  1  0
  5  6  1  0
  5  7  2  0
  7  8  1  0
  8  9  2  0
  9 10  1  0
  8 11  1  0
 11 12  1  0
 11 13  1  0
 11 14  1  0
 14 15  1  0
 15 16  2  0
 16 17  1  0
 17 18  2  0
 18 19  1  0
 18 20  1  0
 20 21  1  0
 20 22  1  0
 20 23  1  0
 23 24  1  0
 23 25  1  0
 23 26  1  0
 26 27  1  0
 26 28  1  0
 26 29  1  0
 29 30  1  0
 29 31  1  0
 29 32  1  0
 32 33  1  0
 32 34  1  0
 32 35  1  0
 35 36  1  0
 36 37  1  0
 36 38  1  0
 36 39  1  0
 39 40  1  0
 39 41  1  0
 39 42  1  0
 42 43  1  0
 42 44  1  0
 42 45  1  0
 45 46  1  0
 45 47  1  0
 17 48  1  0
 48 49  2  0
 49 50  1  0
 50 51  1  0
 51 52  1  0
 51 53  1  0
 51 54  1  0
 54 55  1  0
 54 56  1  0
 54 57  1  0
 57 58  1  0
 57 59  1  0
 57 60  1  0
 60 61  1  0
 60 62  1  0
 60 63  1  0
 63 64  1  0
 63 65  1  0
 49 66  1  0
 66 67  1  0
 14 68  1  0
 68 69  1  0
 68 70  1  0
 68 71  1  0
 71 72  1  0
 71 73  1  0
  9  2  1  0
 66 15  1  0
 71  7  1  0
 45 35  1  0
 63 50  1  0
M  CHG  2  18   1  57   1
M  END
>  <UniqueID>  (55) 
482

>  <SMILES>  (55) 
c1ccc2c(c1)CCN(c1n/c(=[NH+]\CCCCCN3CCCC3)nc(N3CC[NH2+]CC3)[nH]1)C2

>  <Energy>  (55) 
81.83170711428579

>  <Genealogy>  (55) 
c1ccc2c(c1)CCN(c1nc([NH2+]CCCCCN3CCCC3)nc(N3CC[NH2+]CC3)n1)C2 (protonated)
c1ccc2c(c1)CCN(c1nc(=[NH+]CCCCCN3CCCC3)nc(N3CC[NH2+]CC3)[nH]1)C2 (tautomer)
c1ccc2c(c1)CCN(c1n/c(=[NH+]\CCCCCN3CCCC3)nc(N3CC[NH2+]CC3)[nH]1)C2 (cis-trans isomerization)
c1ccc2c(c1)CCN(c1n/c(=[NH+]\CCCCCN3CCCC3)nc(N3CC[NH2+]CC3)[nH]1)C2 (3D coordinates assigned)
c1ccc2c(c1)CCN(c1n/c(=[NH+]\CCCCCN3CCCC3)nc(N3CC[NH2+]CC3)[nH]1)C2 (nonaromatic ring conformer: 81.83170711428579 kcal/mol)

>  <smiles>  (55) 
c1ccc2c(c1)CCN(c1nc(NCCCCCN3CCCC3)nc(N3CCNCC3)n1)C2

>  <score_type>  (55) 
oracle

>  <origin>  (55) 
autodockgpu

>  <m_score__min__energy>  (55) 
-9.7300000000000004

>  <m_primary>  (55) 
energy

>  <meeko>  (55) 
{"free_energy": -7.32, "intermolecular_energy": -10.0, "internal_energy": -1.72, "cluster_size": 4, "cluster_id": 5, "rank_in_cluster": 3}

>  <energy>  (55) 
-7.32

>  <cluster_rmsd>  (55) 
1.37

>  <rmsd>  (55) 
271.21

>  <cluster>  (55) 
5

$$$$
MTUVCRSRZGPGQU-NMOKVYIGNA-P
     RDKit          3D

 73 77  0  0  0  0  0  0  0  0999 V2000
  141.5394   69.7615  228.4548 H   0  0  0  0  0  0  0  0  0  0  0  0
  141.0530   69.5700  227.4870 C   0  0  0  0  0  0  0  0  0  0  0  0
  140.9230   68.2580  227.0180 C   0  0  0  0  0  0  0  0  0  0  0  0
  141.3090   67.4203  227.6174 H   0  0  0  0  0  0  0  0  0  0  0  0
  140.3030   68.0090  225.7880 C   0  0  0  0  0  0  0  0  0  0  0  0
  140.1892   66.9758  225.4280 H   0  0  0  0  0  0  0  0  0  0  0  0
  139.8270   69.0780  225.0150 C   0  0  0  0  0  0  0  0  0  0  0  0
  139.9550   70.3940  225.4880 C   0  0  0  0  0  0  0  0  0  0  0  0
  140.5660   70.6370  226.7280 C   0  0  0  0  0  0  0  0  0  0  0  0
  140.6613   71.6671  227.1020 H   0  0  0  0  0  0  0  0  0  0  0  0
  139.4010   71.5070  224.6510 C   0  0  0  0  0  0  0  0  0  0  0  0
  139.8625   72.4585  224.9536 H   0  0  0  0  0  0  0  0  0  0  0  0
  138.3119   71.5671  224.7937 H   0  0  0  0  0  0  0  0  0  0  0  0
  139.6980   71.2460  223.2310 N   0  0  0  0  0  0  0  0  0  0  0  0
  140.3130   72.2750  222.4300 C   0  0  0  0  0  0  0  0  0  0  0  0
  139.7290   73.4970  222.3450 N   0  0  0  0  0  0  0  0  0  0  0  0
  140.2750   74.4800  221.5880 C   0  0  0  0  0  0  0  0  0  0  0  0
  139.7080   75.6520  221.5030 N   0  0  0  0  0  0  0  0  0  0  0  0
  139.7090   76.1500  220.5830 H   0  0  0  0  0  0  0  0  0  0  0  0
  139.1360   76.3620  222.6530 C   0  0  0  0  0  0  0  0  0  0  0  0
  138.0387   76.3097  222.5972 H   0  0  0  0  0  0  0  0  0  0  0  0
  139.5011   75.8839  223.5739 H   0  0  0  0  0  0  0  0  0  0  0  0
  139.5670   77.8360  222.6670 C   0  0  0  0  0  0  0  0  0  0  0  0
  139.0630   78.3665  221.8457 H   0  0  0  0  0  0  0  0  0  0  0  0
  139.2876   78.2748  223.6362 H   0  0  0  0  0  0  0  0  0  0  0  0
  141.0890   77.9640  222.4900 C   0  0  0  0  0  0  0  0  0  0  0  0
  141.5471   78.1167  223.4784 H   0  0  0  0  0  0  0  0  0  0  0  0
  141.4483   77.0391  222.0151 H   0  0  0  0  0  0  0  0  0  0  0  0
  141.4810   79.1380  221.5790 C   0  0  0  0  0  0  0  0  0  0  0  0
  140.7415   79.9425  221.7052 H   0  0  0  0  0  0  0  0  0  0  0  0
  142.4908   79.4610  221.8723 H   0  0  0  0  0  0  0  0  0  0  0  0
  141.5340   78.7490  220.0930 C   0  0  0  0  0  0  0  0  0  0  0  0
  140.6887   79.2152  219.5656 H   0  0  0  0  0  0  0  0  0  0  0  0
  142.4849   79.0995  219.6653 H   0  0  0  0  0  0  0  0  0  0  0  0
  141.4520   77.2790  219.9430 N   0  0  0  0  0  0  0  0  0  0  0  0
  142.7870   76.6660  219.8520 C   0  0  0  0  0  0  0  0  0  0  0  0
  143.5265   77.3085  220.3523 H   0  0  0  0  0  0  0  0  0  0  0  0
  142.7870   75.6815  220.3427 H   0  0  0  0  0  0  0  0  0  0  0  0
  143.1450   76.5190  218.3770 C   0  0  0  0  0  0  0  0  0  0  0  0
  143.9161   77.2507  218.0941 H   0  0  0  0  0  0  0  0  0  0  0  0
  143.5515   75.5215  218.1540 H   0  0  0  0  0  0  0  0  0  0  0  0
  141.8600   76.7840  217.6180 C   0  0  0  0  0  0  0  0  0  0  0  0
  141.9379   77.7170  217.0406 H   0  0  0  0  0  0  0  0  0  0  0  0
  141.6346   75.9842  216.8972 H   0  0  0  0  0  0  0  0  0  0  0  0
  140.7880   76.9060  218.6860 C   0  0  0  0  0  0  0  0  0  0  0  0
  140.0616   77.6814  218.4013 H   0  0  0  0  0  0  0  0  0  0  0  0
  140.2488   75.9542  218.8021 H   0  0  0  0  0  0  0  0  0  0  0  0
  141.4280   74.2360  220.9150 N   0  0  0  0  0  0  0  0  0  0  0  0
  142.0420   73.0250  220.9950 C   0  0  0  0  0  0  0  0  0  0  0  0
  143.2700   72.7930  220.2650 N   0  0  0  0  0  0  0  0  0  0  0  0
  144.5570   72.6950  220.9710 C   0  0  0  0  0  0  0  0  0  0  0  0
  144.4312   73.0666  221.9987 H   0  0  0  0  0  0  0  0  0  0  0  0
  144.8720   71.6411  220.9741 H   0  0  0  0  0  0  0  0  0  0  0  0
  145.6490   73.5280  220.2650 C   0  0  0  0  0  0  0  0  0  0  0  0
  145.7173   74.5061  220.7636 H   0  0  0  0  0  0  0  0  0  0  0  0
  146.5866   72.9570  220.3349 H   0  0  0  0  0  0  0  0  0  0  0  0
  145.3840   73.7530  218.8290 N   0  0  0  0  0  0  0  0  0  0  0  0
  146.2970   73.8790  218.3300 H   0  0  0  0  0  0  0  0  0  0  0  0
  144.8310   74.6360  218.7100 H   0  0  0  0  0  0  0  0  0  0  0  0
  144.6530   72.6380  218.2140 C   0  0  0  0  0  0  0  0  0  0  0  0
  144.5732   72.8083  217.1302 H   0  0  0  0  0  0  0  0  0  0  0  0
  145.1962   71.7008  218.4053 H   0  0  0  0  0  0  0  0  0  0  0  0
  143.2470   72.5370  218.8170 C   0  0  0  0  0  0  0  0  0  0  0  0
  142.5944   73.2778  218.3319 H   0  0  0  0  0  0  0  0  0  0  0  0
  142.8683   71.5180  218.6493 H   0  0  0  0  0  0  0  0  0  0  0  0
  141.4780   72.0430  221.7600 N   0  0  0  0  0  0  0  0  0  0  0  0
  141.9280   71.1060  221.8300 H   0  0  0  0  0  0  0  0  0  0  0  0
  139.5000   69.8990  222.6590 C   0  0  0  0  0  0  0  0  0  0  0  0
  140.4377   69.5807  222.1801 H   0  0  0  0  0  0  0  0  0  0  0  0
  138.6720   69.9672  221.9381 H   0  0  0  0  0  0  0  0  0  0  0  0
  139.1060   68.8470  223.7130 C   0  0  0  0  0  0  0  0  0  0  0  0
  139.3629   67.8468  223.3340 H   0  0  0  0  0  0  0  0  0  0  0  0
  138.0245   68.9285  223.8965 H   0  0  0  0  0  0  0  0  0  0  0  0
  1  2  1  0
  2  3  2  0
  3  4  1  0
  3  5  1  0
  5  6  1  0
  5  7  2  0
  7  8  1  0
  8  9  2  0
  9 10  1  0
  8 11  1  0
 11 12  1  0
 11 13  1  0
 11 14  1  0
 14 15  1  0
 15 16  2  0
 16 17  1  0
 17 18  2  0
 18 19  1  0
 18 20  1  0
 20 21  1  0
 20 22  1  0
 20 23  1  0
 23 24  1  0
 23 25  1  0
 23 26  1  0
 26 27  1  0
 26 28  1  0
 26 29  1  0
 29 30  1  0
 29 31  1  0
 29 32  1  0
 32 33  1  0
 32 34  1  0
 32 35  1  0
 35 36  1  0
 36 37  1  0
 36 38  1  0
 36 39  1  0
 39 40  1  0
 39 41  1  0
 39 42  1  0
 42 43  1  0
 42 44  1  0
 42 45  1  0
 45 46  1  0
 45 47  1  0
 17 48  1  0
 48 49  2  0
 49 50  1  0
 50 51  1  0
 51 52  1  0
 51 53  1  0
 51 54  1  0
 54 55  1  0
 54 56  1  0
 54 57  1  0
 57 58  1  0
 57 59  1  0
 57 60  1  0
 60 61  1  0
 60 62  1  0
 60 63  1  0
 63 64  1  0
 63 65  1  0
 49 66  1  0
 66 67  1  0
 14 68  1  0
 68 69  1  0
 68 70  1  0
 68 71  1  0
 71 72  1  0
 71 73  1  0
  9  2  1  0
 66 15  1  0
 71  7  1  0
 45 35  1  0
 63 50  1  0
M  CHG  2  18   1  57   1
M  END
>  <UniqueID>  (56) 
482

>  <SMILES>  (56) 
c1ccc2c(c1)CCN(c1n/c(=[NH+]\CCCCCN3CCCC3)nc(N3CC[NH2+]CC3)[nH]1)C2

>  <Energy>  (56) 
81.83170711428579

>  <Genealogy>  (56) 
c1ccc2c(c1)CCN(c1nc([NH2+]CCCCCN3CCCC3)nc(N3CC[NH2+]CC3)n1)C2 (protonated)
c1ccc2c(c1)CCN(c1nc(=[NH+]CCCCCN3CCCC3)nc(N3CC[NH2+]CC3)[nH]1)C2 (tautomer)
c1ccc2c(c1)CCN(c1n/c(=[NH+]\CCCCCN3CCCC3)nc(N3CC[NH2+]CC3)[nH]1)C2 (cis-trans isomerization)
c1ccc2c(c1)CCN(c1n/c(=[NH+]\CCCCCN3CCCC3)nc(N3CC[NH2+]CC3)[nH]1)C2 (3D coordinates assigned)
c1ccc2c(c1)CCN(c1n/c(=[NH+]\CCCCCN3CCCC3)nc(N3CC[NH2+]CC3)[nH]1)C2 (nonaromatic ring conformer: 81.83170711428579 kcal/mol)

>  <smiles>  (56) 
c1ccc2c(c1)CCN(c1nc(NCCCCCN3CCCC3)nc(N3CCNCC3)n1)C2

>  <score_type>  (56) 
oracle

>  <origin>  (56) 
autodockgpu

>  <m_score__min__energy>  (56) 
-9.7300000000000004

>  <m_primary>  (56) 
energy

>  <meeko>  (56) 
{"free_energy": -7.09, "intermolecular_energy": -9.78, "internal_energy": -1.94, "cluster_size": 4, "cluster_id": 5, "rank_in_cluster": 4}

>  <energy>  (56) 
-7.09

>  <cluster_rmsd>  (56) 
1.45

>  <rmsd>  (56) 
271.08

>  <cluster>  (56) 
5

$$$$
MTUVCRSRZGPGQU-NMOKVYIGNA-P
     RDKit          3D

 73 77  0  0  0  0  0  0  0  0999 V2000
  145.8292   73.2467  221.4068 H   0  0  0  0  0  0  0  0  0  0  0  0
  145.3370   73.5820  220.4820 C   0  0  0  0  0  0  0  0  0  0  0  0
  145.7900   73.1180  219.2430 C   0  0  0  0  0  0  0  0  0  0  0  0
  146.6376   72.4185  219.1952 H   0  0  0  0  0  0  0  0  0  0  0  0
  145.1670   73.5420  218.0640 C   0  0  0  0  0  0  0  0  0  0  0  0
  145.5169   73.1659  217.0913 H   0  0  0  0  0  0  0  0  0  0  0  0
  144.0970   74.4460  218.1220 C   0  0  0  0  0  0  0  0  0  0  0  0
  143.6410   74.9080  219.3670 C   0  0  0  0  0  0  0  0  0  0  0  0
  144.2600   74.4710  220.5480 C   0  0  0  0  0  0  0  0  0  0  0  0
  143.8985   74.8272  221.5239 H   0  0  0  0  0  0  0  0  0  0  0  0
  142.4710   75.8450  219.3920 C   0  0  0  0  0  0  0  0  0  0  0  0
  142.4482   76.3780  220.3540 H   0  0  0  0  0  0  0  0  0  0  0  0
  141.5396   75.2730  219.2685 H   0  0  0  0  0  0  0  0  0  0  0  0
  142.6000   76.8190  218.2930 N   0  0  0  0  0  0  0  0  0  0  0  0
  142.4750   78.2290  218.5710 C   0  0  0  0  0  0  0  0  0  0  0  0
  142.0580   78.6350  219.7960 N   0  0  0  0  0  0  0  0  0  0  0  0
  141.9150   79.9530  220.0830 C   0  0  0  0  0  0  0  0  0  0  0  0
  141.5090   80.3410  221.2610 N   0  0  0  0  0  0  0  0  0  0  0  0
  140.5980   80.8500  221.3390 H   0  0  0  0  0  0  0  0  0  0  0  0
  142.3010   80.1820  222.4850 C   0  0  0  0  0  0  0  0  0  0  0  0
  143.3464   79.9760  222.2115 H   0  0  0  0  0  0  0  0  0  0  0  0
  142.2283   81.1110  223.0696 H   0  0  0  0  0  0  0  0  0  0  0  0
  141.7710   79.0250  223.3440 C   0  0  0  0  0  0  0  0  0  0  0  0
  142.5985   78.3369  223.5715 H   0  0  0  0  0  0  0  0  0  0  0  0
  141.3504   79.4402  224.2718 H   0  0  0  0  0  0  0  0  0  0  0  0
  140.6650   78.2550  222.6050 C   0  0  0  0  0  0  0  0  0  0  0  0
  139.7466   78.2908  223.2094 H   0  0  0  0  0  0  0  0  0  0  0  0
  140.5241   78.7332  221.6244 H   0  0  0  0  0  0  0  0  0  0  0  0
  141.0340   76.7840  222.3570 C   0  0  0  0  0  0  0  0  0  0  0  0
  141.9106   76.7493  221.6934 H   0  0  0  0  0  0  0  0  0  0  0  0
  141.2424   76.3269  223.3356 H   0  0  0  0  0  0  0  0  0  0  0  0
  139.8950   75.9820  221.7070 C   0  0  0  0  0  0  0  0  0  0  0  0
  138.9298   76.4249  221.9937 H   0  0  0  0  0  0  0  0  0  0  0  0
  140.0140   76.0130  220.6139 H   0  0  0  0  0  0  0  0  0  0  0  0
  139.9380   74.5730  222.1560 N   0  0  0  0  0  0  0  0  0  0  0  0
  141.0940   73.8570  221.5910 C   0  0  0  0  0  0  0  0  0  0  0  0
  141.8953   74.5724  221.3541 H   0  0  0  0  0  0  0  0  0  0  0  0
  141.4786   73.1250  222.3165 H   0  0  0  0  0  0  0  0  0  0  0  0
  140.6420   73.1490  220.3190 C   0  0  0  0  0  0  0  0  0  0  0  0
  141.0483   73.6568  219.4318 H   0  0  0  0  0  0  0  0  0  0  0  0
  140.9966   72.1083  220.2843 H   0  0  0  0  0  0  0  0  0  0  0  0
  139.1280   73.2260  220.3260 C   0  0  0  0  0  0  0  0  0  0  0  0
  138.7703   73.8716  219.5104 H   0  0  0  0  0  0  0  0  0  0  0  0
  138.6643   72.2400  220.1749 H   0  0  0  0  0  0  0  0  0  0  0  0
  138.7690   73.8230  221.6750 C   0  0  0  0  0  0  0  0  0  0  0  0
  137.9078   74.4990  221.5685 H   0  0  0  0  0  0  0  0  0  0  0  0
  138.4993   73.0301  222.3882 H   0  0  0  0  0  0  0  0  0  0  0  0
  142.2030   80.8740  219.1290 N   0  0  0  0  0  0  0  0  0  0  0  0
  142.6370   80.4930  217.8970 C   0  0  0  0  0  0  0  0  0  0  0  0
  142.9350   81.4990  216.8990 N   0  0  0  0  0  0  0  0  0  0  0  0
  142.0630   81.6740  215.7270 C   0  0  0  0  0  0  0  0  0  0  0  0
  141.3920   80.8061  215.6464 H   0  0  0  0  0  0  0  0  0  0  0  0
  141.4851   82.6007  215.8585 H   0  0  0  0  0  0  0  0  0  0  0  0
  142.8900   81.7940  214.4270 C   0  0  0  0  0  0  0  0  0  0  0  0
  142.9359   80.8034  213.9511 H   0  0  0  0  0  0  0  0  0  0  0  0
  142.3883   82.5393  213.7924 H   0  0  0  0  0  0  0  0  0  0  0  0
  144.2710   82.2710  214.6480 N   0  0  0  0  0  0  0  0  0  0  0  0
  144.6030   82.7650  213.7850 H   0  0  0  0  0  0  0  0  0  0  0  0
  144.9030   81.4500  214.8080 H   0  0  0  0  0  0  0  0  0  0  0  0
  144.3700   83.1870  215.7900 C   0  0  0  0  0  0  0  0  0  0  0  0
  145.3918   83.5906  215.8458 H   0  0  0  0  0  0  0  0  0  0  0  0
  143.6511   84.0089  215.6571 H   0  0  0  0  0  0  0  0  0  0  0  0
  144.0470   82.4410  217.0900 C   0  0  0  0  0  0  0  0  0  0  0  0
  144.9379   81.8836  217.4148 H   0  0  0  0  0  0  0  0  0  0  0  0
  143.7525   83.1784  217.8513 H   0  0  0  0  0  0  0  0  0  0  0  0
  142.7730   79.1610  217.6220 N   0  0  0  0  0  0  0  0  0  0  0  0
  143.0970   78.8480  216.6830 H   0  0  0  0  0  0  0  0  0  0  0  0
  142.9950   76.3750  216.9410 C   0  0  0  0  0  0  0  0  0  0  0  0
  143.8656   76.9654  216.6192 H   0  0  0  0  0  0  0  0  0  0  0  0
  142.1282   76.5250  216.2806 H   0  0  0  0  0  0  0  0  0  0  0  0
  143.3660   74.8810  216.8790 C   0  0  0  0  0  0  0  0  0  0  0  0
  144.0112   74.7081  216.0050 H   0  0  0  0  0  0  0  0  0  0  0  0
  142.4378   74.2960  216.7997 H   0  0  0  0  0  0  0  0  0  0  0  0
  1  2  1  0
  2  3  2  0
  3  4  1  0
  3  5  1  0
  5  6  1  0
  5  7  2  0
  7  8  1  0
  8  9  2  0
  9 10  1  0
  8 11  1  0
 11 12  1  0
 11 13  1  0
 11 14  1  0
 14 15  1  0
 15 16  2  0
 16 17  1  0
 17 18  2  0
 18 19  1  0
 18 20  1  0
 20 21  1  0
 20 22  1  0
 20 23  1  0
 23 24  1  0
 23 25  1  0
 23 26  1  0
 26 27  1  0
 26 28  1  0
 26 29  1  0
 29 30  1  0
 29 31  1  0
 29 32  1  0
 32 33  1  0
 32 34  1  0
 32 35  1  0
 35 36  1  0
 36 37  1  0
 36 38  1  0
 36 39  1  0
 39 40  1  0
 39 41  1  0
 39 42  1  0
 42 43  1  0
 42 44  1  0
 42 45  1  0
 45 46  1  0
 45 47  1  0
 17 48  1  0
 48 49  2  0
 49 50  1  0
 50 51  1  0
 51 52  1  0
 51 53  1  0
 51 54  1  0
 54 55  1  0
 54 56  1  0
 54 57  1  0
 57 58  1  0
 57 59  1  0
 57 60  1  0
 60 61  1  0
 60 62  1  0
 60 63  1  0
 63 64  1  0
 63 65  1  0
 49 66  1  0
 66 67  1  0
 14 68  1  0
 68 69  1  0
 68 70  1  0
 68 71  1  0
 71 72  1  0
 71 73  1  0
  9  2  1  0
 66 15  1  0
 71  7  1  0
 45 35  1  0
 63 50  1  0
M  CHG  2  18   1  57   1
M  END
>  <UniqueID>  (57) 
482

>  <SMILES>  (57) 
c1ccc2c(c1)CCN(c1n/c(=[NH+]\CCCCCN3CCCC3)nc(N3CC[NH2+]CC3)[nH]1)C2

>  <Energy>  (57) 
81.83170711428579

>  <Genealogy>  (57) 
c1ccc2c(c1)CCN(c1nc([NH2+]CCCCCN3CCCC3)nc(N3CC[NH2+]CC3)n1)C2 (protonated)
c1ccc2c(c1)CCN(c1nc(=[NH+]CCCCCN3CCCC3)nc(N3CC[NH2+]CC3)[nH]1)C2 (tautomer)
c1ccc2c(c1)CCN(c1n/c(=[NH+]\CCCCCN3CCCC3)nc(N3CC[NH2+]CC3)[nH]1)C2 (cis-trans isomerization)
c1ccc2c(c1)CCN(c1n/c(=[NH+]\CCCCCN3CCCC3)nc(N3CC[NH2+]CC3)[nH]1)C2 (3D coordinates assigned)
c1ccc2c(c1)CCN(c1n/c(=[NH+]\CCCCCN3CCCC3)nc(N3CC[NH2+]CC3)[nH]1)C2 (nonaromatic ring conformer: 81.83170711428579 kcal/mol)

>  <smiles>  (57) 
c1ccc2c(c1)CCN(c1nc(NCCCCCN3CCCC3)nc(N3CCNCC3)n1)C2

>  <score_type>  (57) 
oracle

>  <origin>  (57) 
autodockgpu

>  <m_score__min__energy>  (57) 
-9.7300000000000004

>  <m_primary>  (57) 
energy

>  <meeko>  (57) 
{"free_energy": -8.35, "intermolecular_energy": -11.03, "internal_energy": -1.39, "cluster_size": 8, "cluster_id": 3, "rank_in_cluster": 1}

>  <energy>  (57) 
-7.14

>  <cluster_rmsd>  (57) 
0.0

>  <rmsd>  (57) 
270.94

>  <cluster>  (57) 
6

$$$$
MTUVCRSRZGPGQU-NMOKVYIGNA-P
     RDKit          3D

 73 77  0  0  0  0  0  0  0  0999 V2000
  145.5146   72.9822  221.9159 H   0  0  0  0  0  0  0  0  0  0  0  0
  145.2000   73.3360  220.9230 C   0  0  0  0  0  0  0  0  0  0  0  0
  145.9010   72.9300  219.7830 C   0  0  0  0  0  0  0  0  0  0  0  0
  146.7666   72.2585  219.8818 H   0  0  0  0  0  0  0  0  0  0  0  0
  145.5050   73.3750  218.5180 C   0  0  0  0  0  0  0  0  0  0  0  0
  146.0499   73.0425  217.6222 H   0  0  0  0  0  0  0  0  0  0  0  0
  144.4120   74.2460  218.3920 C   0  0  0  0  0  0  0  0  0  0  0  0
  143.7070   74.6500  219.5370 C   0  0  0  0  0  0  0  0  0  0  0  0
  144.1010   74.1900  220.8030 C   0  0  0  0  0  0  0  0  0  0  0  0
  143.5451   74.5015  221.6996 H   0  0  0  0  0  0  0  0  0  0  0  0
  142.5210   75.5510  219.3600 C   0  0  0  0  0  0  0  0  0  0  0  0
  142.2926   76.0490  220.3139 H   0  0  0  0  0  0  0  0  0  0  0  0
  141.6520   74.9568  219.0408 H   0  0  0  0  0  0  0  0  0  0  0  0
  142.8270   76.5660  218.3360 N   0  0  0  0  0  0  0  0  0  0  0  0
  142.5990   77.9610  218.6240 C   0  0  0  0  0  0  0  0  0  0  0  0
  142.1680   78.3280  219.8570 N   0  0  0  0  0  0  0  0  0  0  0  0
  141.9300   79.6300  220.1530 C   0  0  0  0  0  0  0  0  0  0  0  0
  141.5090   79.9800  221.3380 N   0  0  0  0  0  0  0  0  0  0  0  0
  141.4750   80.9960  221.5830 H   0  0  0  0  0  0  0  0  0  0  0  0
  141.1590   79.0190  222.3910 C   0  0  0  0  0  0  0  0  0  0  0  0
  141.5134   78.0199  222.0974 H   0  0  0  0  0  0  0  0  0  0  0  0
  141.6369   79.3396  223.3285 H   0  0  0  0  0  0  0  0  0  0  0  0
  139.6400   78.9670  222.6120 C   0  0  0  0  0  0  0  0  0  0  0  0
  139.4142   79.2904  223.6389 H   0  0  0  0  0  0  0  0  0  0  0  0
  139.1559   79.6343  221.8838 H   0  0  0  0  0  0  0  0  0  0  0  0
  139.1040   77.5420  222.4040 C   0  0  0  0  0  0  0  0  0  0  0  0
  139.1582   77.0021  223.3609 H   0  0  0  0  0  0  0  0  0  0  0  0
  138.0683   77.6252  222.0430 H   0  0  0  0  0  0  0  0  0  0  0  0
  139.9020   76.7580  221.3510 C   0  0  0  0  0  0  0  0  0  0  0  0
  139.1954   76.3141  220.6342 H   0  0  0  0  0  0  0  0  0  0  0  0
  140.5894   77.4655  220.8643 H   0  0  0  0  0  0  0  0  0  0  0  0
  140.7540   75.6330  221.9600 C   0  0  0  0  0  0  0  0  0  0  0  0
  141.6342   75.4595  221.3235 H   0  0  0  0  0  0  0  0  0  0  0  0
  141.0716   75.9320  222.9698 H   0  0  0  0  0  0  0  0  0  0  0  0
  139.9660   74.3840  222.0540 N   0  0  0  0  0  0  0  0  0  0  0  0
  140.8230   73.1910  221.9530 C   0  0  0  0  0  0  0  0  0  0  0  0
  141.8433   73.4368  222.2826 H   0  0  0  0  0  0  0  0  0  0  0  0
  140.4303   72.3867  222.5924 H   0  0  0  0  0  0  0  0  0  0  0  0
  140.8460   72.7410  220.4970 C   0  0  0  0  0  0  0  0  0  0  0  0
  141.8198   72.9700  220.0395 H   0  0  0  0  0  0  0  0  0  0  0  0
  140.6946   71.6555  220.4036 H   0  0  0  0  0  0  0  0  0  0  0  0
  139.7420   73.5230  219.8120 C   0  0  0  0  0  0  0  0  0  0  0  0
  140.1651   74.2359  219.0890 H   0  0  0  0  0  0  0  0  0  0  0  0
  139.0614   72.8679  219.2484 H   0  0  0  0  0  0  0  0  0  0  0  0
  139.0270   74.2590  220.9300 C   0  0  0  0  0  0  0  0  0  0  0  0
  138.7202   75.2575  220.5851 H   0  0  0  0  0  0  0  0  0  0  0  0
  138.1262   73.7087  221.2395 H   0  0  0  0  0  0  0  0  0  0  0  0
  142.1380   80.5750  219.2030 N   0  0  0  0  0  0  0  0  0  0  0  0
  142.5840   80.2350  217.9630 C   0  0  0  0  0  0  0  0  0  0  0  0
  142.7950   81.2650  216.9680 N   0  0  0  0  0  0  0  0  0  0  0  0
  141.9000   81.3820  215.8070 C   0  0  0  0  0  0  0  0  0  0  0  0
  141.2939   80.4675  215.7280 H   0  0  0  0  0  0  0  0  0  0  0  0
  141.2572   82.2630  215.9509 H   0  0  0  0  0  0  0  0  0  0  0  0
  142.7000   81.5700  214.5000 C   0  0  0  0  0  0  0  0  0  0  0  0
  142.8137   80.5880  214.0176 H   0  0  0  0  0  0  0  0  0  0  0  0
  142.1368   82.2798  213.8764 H   0  0  0  0  0  0  0  0  0  0  0  0
  144.0440   82.1470  214.7070 N   0  0  0  0  0  0  0  0  0  0  0  0
  144.3280   82.6700  213.8440 H   0  0  0  0  0  0  0  0  0  0  0  0
  144.7370   81.3750  214.8550 H   0  0  0  0  0  0  0  0  0  0  0  0
  144.0880   83.0620  215.8550 C   0  0  0  0  0  0  0  0  0  0  0  0
  145.0776   83.5399  215.9023 H   0  0  0  0  0  0  0  0  0  0  0  0
  143.3087   83.8291  215.7355 H   0  0  0  0  0  0  0  0  0  0  0  0
  143.8360   82.2860  217.1540 C   0  0  0  0  0  0  0  0  0  0  0  0
  144.7695   81.7945  217.4655 H   0  0  0  0  0  0  0  0  0  0  0  0
  143.4962   82.9947  217.9236 H   0  0  0  0  0  0  0  0  0  0  0  0
  142.8160   78.9180  217.6780 N   0  0  0  0  0  0  0  0  0  0  0  0
  143.1530   78.6360  216.7340 H   0  0  0  0  0  0  0  0  0  0  0  0
  143.4920   76.1820  217.0740 C   0  0  0  0  0  0  0  0  0  0  0  0
  144.3867   76.8087  216.9447 H   0  0  0  0  0  0  0  0  0  0  0  0
  142.7653   76.3299  216.2616 H   0  0  0  0  0  0  0  0  0  0  0  0
  143.9210   74.7020  217.0440 C   0  0  0  0  0  0  0  0  0  0  0  0
  144.7290   74.5783  216.3080 H   0  0  0  0  0  0  0  0  0  0  0  0
  143.0469   74.0933  216.7694 H   0  0  0  0  0  0  0  0  0  0  0  0
  1  2  1  0
  2  3  2  0
  3  4  1  0
  3  5  1  0
  5  6  1  0
  5  7  2  0
  7  8  1  0
  8  9  2  0
  9 10  1  0
  8 11  1  0
 11 12  1  0
 11 13  1  0
 11 14  1  0
 14 15  1  0
 15 16  2  0
 16 17  1  0
 17 18  2  0
 18 19  1  0
 18 20  1  0
 20 21  1  0
 20 22  1  0
 20 23  1  0
 23 24  1  0
 23 25  1  0
 23 26  1  0
 26 27  1  0
 26 28  1  0
 26 29  1  0
 29 30  1  0
 29 31  1  0
 29 32  1  0
 32 33  1  0
 32 34  1  0
 32 35  1  0
 35 36  1  0
 36 37  1  0
 36 38  1  0
 36 39  1  0
 39 40  1  0
 39 41  1  0
 39 42  1  0
 42 43  1  0
 42 44  1  0
 42 45  1  0
 45 46  1  0
 45 47  1  0
 17 48  1  0
 48 49  2  0
 49 50  1  0
 50 51  1  0
 51 52  1  0
 51 53  1  0
 51 54  1  0
 54 55  1  0
 54 56  1  0
 54 57  1  0
 57 58  1  0
 57 59  1  0
 57 60  1  0
 60 61  1  0
 60 62  1  0
 60 63  1  0
 63 64  1  0
 63 65  1  0
 49 66  1  0
 66 67  1  0
 14 68  1  0
 68 69  1  0
 68 70  1  0
 68 71  1  0
 71 72  1  0
 71 73  1  0
  9  2  1  0
 66 15  1  0
 71  7  1  0
 45 35  1  0
 63 50  1  0
M  CHG  2  18   1  57   1
M  END
>  <UniqueID>  (58) 
482

>  <SMILES>  (58) 
c1ccc2c(c1)CCN(c1n/c(=[NH+]\CCCCCN3CCCC3)nc(N3CC[NH2+]CC3)[nH]1)C2

>  <Energy>  (58) 
81.83170711428579

>  <Genealogy>  (58) 
c1ccc2c(c1)CCN(c1nc([NH2+]CCCCCN3CCCC3)nc(N3CC[NH2+]CC3)n1)C2 (protonated)
c1ccc2c(c1)CCN(c1nc(=[NH+]CCCCCN3CCCC3)nc(N3CC[NH2+]CC3)[nH]1)C2 (tautomer)
c1ccc2c(c1)CCN(c1n/c(=[NH+]\CCCCCN3CCCC3)nc(N3CC[NH2+]CC3)[nH]1)C2 (cis-trans isomerization)
c1ccc2c(c1)CCN(c1n/c(=[NH+]\CCCCCN3CCCC3)nc(N3CC[NH2+]CC3)[nH]1)C2 (3D coordinates assigned)
c1ccc2c(c1)CCN(c1n/c(=[NH+]\CCCCCN3CCCC3)nc(N3CC[NH2+]CC3)[nH]1)C2 (nonaromatic ring conformer: 81.83170711428579 kcal/mol)

>  <smiles>  (58) 
c1ccc2c(c1)CCN(c1nc(NCCCCCN3CCCC3)nc(N3CCNCC3)n1)C2

>  <score_type>  (58) 
oracle

>  <origin>  (58) 
autodockgpu

>  <m_score__min__energy>  (58) 
-9.7300000000000004

>  <m_primary>  (58) 
energy

>  <meeko>  (58) 
{"free_energy": -7.73, "intermolecular_energy": -10.42, "internal_energy": -1.52, "cluster_size": 8, "cluster_id": 3, "rank_in_cluster": 7}

>  <energy>  (58) 
-6.5

>  <cluster_rmsd>  (58) 
0.56

>  <rmsd>  (58) 
270.89

>  <cluster>  (58) 
6

$$$$
MTUVCRSRZGPGQU-NMOKVYIGNA-P
     RDKit          3D

 73 77  0  0  0  0  0  0  0  0999 V2000
  145.4722   73.2400  221.8009 H   0  0  0  0  0  0  0  0  0  0  0  0
  145.0750   73.5740  220.8310 C   0  0  0  0  0  0  0  0  0  0  0  0
  145.6290   73.0840  219.6430 C   0  0  0  0  0  0  0  0  0  0  0  0
  146.4614   72.3659  219.6812 H   0  0  0  0  0  0  0  0  0  0  0  0
  145.1270   73.5050  218.4070 C   0  0  0  0  0  0  0  0  0  0  0  0
  145.5557   73.1083  217.4749 H   0  0  0  0  0  0  0  0  0  0  0  0
  144.0770   74.4330  218.3570 C   0  0  0  0  0  0  0  0  0  0  0  0
  143.5200   74.9220  219.5500 C   0  0  0  0  0  0  0  0  0  0  0  0
  144.0180   74.4870  220.7870 C   0  0  0  0  0  0  0  0  0  0  0  0
  143.5770   74.8642  221.7215 H   0  0  0  0  0  0  0  0  0  0  0  0
  142.3740   75.8840  219.4560 C   0  0  0  0  0  0  0  0  0  0  0  0
  142.2739   76.4294  220.4060 H   0  0  0  0  0  0  0  0  0  0  0  0
  141.4456   75.3304  219.2522 H   0  0  0  0  0  0  0  0  0  0  0  0
  142.6260   76.8410  218.3640 N   0  0  0  0  0  0  0  0  0  0  0  0
  142.5080   78.2560  218.6130 C   0  0  0  0  0  0  0  0  0  0  0  0
  142.1000   78.6900  219.8320 N   0  0  0  0  0  0  0  0  0  0  0  0
  141.9650   80.0140  220.0920 C   0  0  0  0  0  0  0  0  0  0  0  0
  141.5660   80.4280  221.2630 N   0  0  0  0  0  0  0  0  0  0  0  0
  140.5490   80.6170  221.4140 H   0  0  0  0  0  0  0  0  0  0  0  0
  142.4810   80.7310  222.3710 C   0  0  0  0  0  0  0  0  0  0  0  0
  143.5168   80.5835  222.0313 H   0  0  0  0  0  0  0  0  0  0  0  0
  142.3188   81.7739  222.6809 H   0  0  0  0  0  0  0  0  0  0  0  0
  142.2150   79.8190  223.5770 C   0  0  0  0  0  0  0  0  0  0  0  0
  143.1755   79.5295  224.0283 H   0  0  0  0  0  0  0  0  0  0  0  0
  141.5988   80.3686  224.3038 H   0  0  0  0  0  0  0  0  0  0  0  0
  141.4570   78.5510  223.1500 C   0  0  0  0  0  0  0  0  0  0  0  0
  141.6062   78.3980  222.0710 H   0  0  0  0  0  0  0  0  0  0  0  0
  141.8554   77.7110  223.7380 H   0  0  0  0  0  0  0  0  0  0  0  0
  139.9500   78.6410  223.4300 C   0  0  0  0  0  0  0  0  0  0  0  0
  139.6198   77.6933  223.8804 H   0  0  0  0  0  0  0  0  0  0  0  0
  139.7909   79.4939  224.1062 H   0  0  0  0  0  0  0  0  0  0  0  0
  139.1190   78.8970  222.1630 C   0  0  0  0  0  0  0  0  0  0  0  0
  139.7586   78.7678  221.2774 H   0  0  0  0  0  0  0  0  0  0  0  0
  138.2838   78.1818  222.1325 H   0  0  0  0  0  0  0  0  0  0  0  0
  138.5740   80.2730  222.1750 N   0  0  0  0  0  0  0  0  0  0  0  0
  138.9980   81.0150  223.3740 C   0  0  0  0  0  0  0  0  0  0  0  0
  139.9439   80.6006  223.7528 H   0  0  0  0  0  0  0  0  0  0  0  0
  139.1514   82.0763  223.1288 H   0  0  0  0  0  0  0  0  0  0  0  0
  137.9110   80.8720  224.4340 C   0  0  0  0  0  0  0  0  0  0  0  0
  138.2452   80.2008  225.2389 H   0  0  0  0  0  0  0  0  0  0  0  0
  137.6680   81.8377  224.9013 H   0  0  0  0  0  0  0  0  0  0  0  0
  136.7150   80.2800  223.7130 C   0  0  0  0  0  0  0  0  0  0  0  0
  136.5153   79.2589  224.0700 H   0  0  0  0  0  0  0  0  0  0  0  0
  135.7979   80.8612  223.8894 H   0  0  0  0  0  0  0  0  0  0  0  0
  137.1060   80.2650  222.2460 C   0  0  0  0  0  0  0  0  0  0  0  0
  136.7124   79.3587  221.7626 H   0  0  0  0  0  0  0  0  0  0  0  0
  136.6903   81.1415  221.7274 H   0  0  0  0  0  0  0  0  0  0  0  0
  142.2510   80.9140  219.1180 N   0  0  0  0  0  0  0  0  0  0  0  0
  142.6760   80.5060  217.8920 C   0  0  0  0  0  0  0  0  0  0  0  0
  142.9740   81.4890  216.8710 N   0  0  0  0  0  0  0  0  0  0  0  0
  142.1320   81.6010  215.6690 C   0  0  0  0  0  0  0  0  0  0  0  0
  141.4903   80.7105  215.5963 H   0  0  0  0  0  0  0  0  0  0  0  0
  141.5226   82.5127  215.7547 H   0  0  0  0  0  0  0  0  0  0  0  0
  142.9930   81.7070  214.3910 C   0  0  0  0  0  0  0  0  0  0  0  0
  143.0827   80.7042  213.9478 H   0  0  0  0  0  0  0  0  0  0  0  0
  142.4881   82.4171  213.7195 H   0  0  0  0  0  0  0  0  0  0  0  0
  144.3520   82.2330  214.6360 N   0  0  0  0  0  0  0  0  0  0  0  0
  144.6940   82.7110  213.7680 H   0  0  0  0  0  0  0  0  0  0  0  0
  145.0030   81.4370  214.8390 H   0  0  0  0  0  0  0  0  0  0  0  0
  144.3890   83.1860  215.7510 C   0  0  0  0  0  0  0  0  0  0  0  0
  145.3959   83.6228  215.8237 H   0  0  0  0  0  0  0  0  0  0  0  0
  143.6498   83.9806  215.5716 H   0  0  0  0  0  0  0  0  0  0  0  0
  144.0500   82.4700  217.0640 C   0  0  0  0  0  0  0  0  0  0  0  0
  144.9473   81.9508  217.4317 H   0  0  0  0  0  0  0  0  0  0  0  0
  143.7106   83.2207  217.7928 H   0  0  0  0  0  0  0  0  0  0  0  0
  142.8050   79.1680  217.6430 N   0  0  0  0  0  0  0  0  0  0  0  0
  143.1230   78.8340  216.7090 H   0  0  0  0  0  0  0  0  0  0  0  0
  143.1330   76.3700  217.0580 C   0  0  0  0  0  0  0  0  0  0  0  0
  144.0429   76.9366  216.8107 H   0  0  0  0  0  0  0  0  0  0  0  0
  142.3343   76.5304  216.3189 H   0  0  0  0  0  0  0  0  0  0  0  0
  143.4730   74.8680  217.0480 C   0  0  0  0  0  0  0  0  0  0  0  0
  144.1910   74.6689  216.2388 H   0  0  0  0  0  0  0  0  0  0  0  0
  142.5421   74.3032  216.8914 H   0  0  0  0  0  0  0  0  0  0  0  0
  1  2  1  0
  2  3  2  0
  3  4  1  0
  3  5  1  0
  5  6  1  0
  5  7  2  0
  7  8  1  0
  8  9  2  0
  9 10  1  0
  8 11  1  0
 11 12  1  0
 11 13  1  0
 11 14  1  0
 14 15  1  0
 15 16  2  0
 16 17  1  0
 17 18  2  0
 18 19  1  0
 18 20  1  0
 20 21  1  0
 20 22  1  0
 20 23  1  0
 23 24  1  0
 23 25  1  0
 23 26  1  0
 26 27  1  0
 26 28  1  0
 26 29  1  0
 29 30  1  0
 29 31  1  0
 29 32  1  0
 32 33  1  0
 32 34  1  0
 32 35  1  0
 35 36  1  0
 36 37  1  0
 36 38  1  0
 36 39  1  0
 39 40  1  0
 39 41  1  0
 39 42  1  0
 42 43  1  0
 42 44  1  0
 42 45  1  0
 45 46  1  0
 45 47  1  0
 17 48  1  0
 48 49  2  0
 49 50  1  0
 50 51  1  0
 51 52  1  0
 51 53  1  0
 51 54  1  0
 54 55  1  0
 54 56  1  0
 54 57  1  0
 57 58  1  0
 57 59  1  0
 57 60  1  0
 60 61  1  0
 60 62  1  0
 60 63  1  0
 63 64  1  0
 63 65  1  0
 49 66  1  0
 66 67  1  0
 14 68  1  0
 68 69  1  0
 68 70  1  0
 68 71  1  0
 71 72  1  0
 71 73  1  0
  9  2  1  0
 66 15  1  0
 71  7  1  0
 45 35  1  0
 63 50  1  0
M  CHG  2  18   1  57   1
M  END
>  <UniqueID>  (59) 
482

>  <SMILES>  (59) 
c1ccc2c(c1)CCN(c1n/c(=[NH+]\CCCCCN3CCCC3)nc(N3CC[NH2+]CC3)[nH]1)C2

>  <Energy>  (59) 
81.83170711428579

>  <Genealogy>  (59) 
c1ccc2c(c1)CCN(c1nc([NH2+]CCCCCN3CCCC3)nc(N3CC[NH2+]CC3)n1)C2 (protonated)
c1ccc2c(c1)CCN(c1nc(=[NH+]CCCCCN3CCCC3)nc(N3CC[NH2+]CC3)[nH]1)C2 (tautomer)
c1ccc2c(c1)CCN(c1n/c(=[NH+]\CCCCCN3CCCC3)nc(N3CC[NH2+]CC3)[nH]1)C2 (cis-trans isomerization)
c1ccc2c(c1)CCN(c1n/c(=[NH+]\CCCCCN3CCCC3)nc(N3CC[NH2+]CC3)[nH]1)C2 (3D coordinates assigned)
c1ccc2c(c1)CCN(c1n/c(=[NH+]\CCCCCN3CCCC3)nc(N3CC[NH2+]CC3)[nH]1)C2 (nonaromatic ring conformer: 81.83170711428579 kcal/mol)

>  <smiles>  (59) 
c1ccc2c(c1)CCN(c1nc(NCCCCCN3CCCC3)nc(N3CCNCC3)n1)C2

>  <score_type>  (59) 
oracle

>  <origin>  (59) 
autodockgpu

>  <m_score__min__energy>  (59) 
-9.7300000000000004

>  <m_primary>  (59) 
energy

>  <meeko>  (59) 
{"free_energy": -7.89, "intermolecular_energy": -10.58, "internal_energy": -1.52, "cluster_size": 8, "cluster_id": 3, "rank_in_cluster": 6}

>  <energy>  (59) 
-7.03

>  <cluster_rmsd>  (59) 
0.0

>  <rmsd>  (59) 
270.89

>  <cluster>  (59) 
7

$$$$
MTUVCRSRZGPGQU-NMOKVYIGNA-P
     RDKit          3D

 73 77  0  0  0  0  0  0  0  0999 V2000
  144.1576   81.2210  223.4272 H   0  0  0  0  0  0  0  0  0  0  0  0
  143.1350   80.8300  223.3200 C   0  0  0  0  0  0  0  0  0  0  0  0
  142.1170   81.3000  224.1560 C   0  0  0  0  0  0  0  0  0  0  0  0
  142.3411   82.0591  224.9200 H   0  0  0  0  0  0  0  0  0  0  0  0
  140.8140   80.8070  224.0230 C   0  0  0  0  0  0  0  0  0  0  0  0
  140.0124   81.1881  224.6727 H   0  0  0  0  0  0  0  0  0  0  0  0
  140.5310   79.8270  223.0610 C   0  0  0  0  0  0  0  0  0  0  0  0
  141.5530   79.3580  222.2200 C   0  0  0  0  0  0  0  0  0  0  0  0
  142.8560   79.8650  222.3490 C   0  0  0  0  0  0  0  0  0  0  0  0
  143.6560   79.5029  221.6865 H   0  0  0  0  0  0  0  0  0  0  0  0
  141.2050   78.3370  221.1790 C   0  0  0  0  0  0  0  0  0  0  0  0
  142.1200   77.8241  220.8476 H   0  0  0  0  0  0  0  0  0  0  0  0
  140.7330   78.8350  220.3192 H   0  0  0  0  0  0  0  0  0  0  0  0
  140.2700   77.3530  221.7520 N   0  0  0  0  0  0  0  0  0  0  0  0
  140.5500   75.9440  221.6240 C   0  0  0  0  0  0  0  0  0  0  0  0
  139.6330   75.0380  222.0470 N   0  0  0  0  0  0  0  0  0  0  0  0
  139.8720   73.7070  221.9530 C   0  0  0  0  0  0  0  0  0  0  0  0
  138.9910   72.8380  222.3660 N   0  0  0  0  0  0  0  0  0  0  0  0
  138.4960   73.0110  223.2710 H   0  0  0  0  0  0  0  0  0  0  0  0
  138.7120   71.5740  221.6750 C   0  0  0  0  0  0  0  0  0  0  0  0
  137.9370   71.7452  220.9134 H   0  0  0  0  0  0  0  0  0  0  0  0
  139.6432   71.2196  221.2089 H   0  0  0  0  0  0  0  0  0  0  0  0
  138.2210   70.5000  222.6560 C   0  0  0  0  0  0  0  0  0  0  0  0
  137.1621   70.2830  222.4521 H   0  0  0  0  0  0  0  0  0  0  0  0
  138.8315   69.5950  222.5209 H   0  0  0  0  0  0  0  0  0  0  0  0
  138.3660   70.9780  224.1100 C   0  0  0  0  0  0  0  0  0  0  0  0
  138.4061   72.0772  224.1171 H   0  0  0  0  0  0  0  0  0  0  0  0
  137.4999   70.5998  224.6729 H   0  0  0  0  0  0  0  0  0  0  0  0
  139.6340   70.4350  224.7870 C   0  0  0  0  0  0  0  0  0  0  0  0
  139.3565   70.0109  225.7633 H   0  0  0  0  0  0  0  0  0  0  0  0
  140.0657   69.6754  224.1187 H   0  0  0  0  0  0  0  0  0  0  0  0
  140.7030   71.5160  225.0080 C   0  0  0  0  0  0  0  0  0  0  0  0
  141.3397   71.5849  224.1137 H   0  0  0  0  0  0  0  0  0  0  0  0
  140.2050   72.4796  225.1911 H   0  0  0  0  0  0  0  0  0  0  0  0
  141.5420   71.1770  226.1800 N   0  0  0  0  0  0  0  0  0  0  0  0
  141.0830   69.9430  226.8380 C   0  0  0  0  0  0  0  0  0  0  0  0
  140.5520   69.3096  226.1122 H   0  0  0  0  0  0  0  0  0  0  0  0
  141.9424   69.3814  227.2331 H   0  0  0  0  0  0  0  0  0  0  0  0
  140.1400   70.3290  227.9730 C   0  0  0  0  0  0  0  0  0  0  0  0
  139.1008   70.0829  227.7095 H   0  0  0  0  0  0  0  0  0  0  0  0
  140.3739   69.7848  228.8999 H   0  0  0  0  0  0  0  0  0  0  0  0
  140.3020   71.8260  228.1450 C   0  0  0  0  0  0  0  0  0  0  0  0
  139.3795   72.3501  227.8546 H   0  0  0  0  0  0  0  0  0  0  0  0
  140.5062   72.1010  229.1903 H   0  0  0  0  0  0  0  0  0  0  0  0
  141.4460   72.2090  227.2220 C   0  0  0  0  0  0  0  0  0  0  0  0
  141.2454   73.1881  226.7626 H   0  0  0  0  0  0  0  0  0  0  0  0
  142.3888   72.2786  227.7843 H   0  0  0  0  0  0  0  0  0  0  0  0
  141.0440   73.2800  221.4190 N   0  0  0  0  0  0  0  0  0  0  0  0
  141.9750   74.1670  220.9740 C   0  0  0  0  0  0  0  0  0  0  0  0
  143.2170   73.6830  220.4110 N   0  0  0  0  0  0  0  0  0  0  0  0
  143.2440   72.4620  219.5900 C   0  0  0  0  0  0  0  0  0  0  0  0
  142.2938   71.9228  219.7182 H   0  0  0  0  0  0  0  0  0  0  0  0
  143.3872   72.7532  218.5390 H   0  0  0  0  0  0  0  0  0  0  0  0
  144.4080   71.5350  220.0020 C   0  0  0  0  0  0  0  0  0  0  0  0
  144.0194   70.7769  220.6979 H   0  0  0  0  0  0  0  0  0  0  0  0
  144.8081   71.0894  219.0793 H   0  0  0  0  0  0  0  0  0  0  0  0
  145.5240   72.2450  220.6600 N   0  0  0  0  0  0  0  0  0  0  0  0
  146.4130   71.7170  220.4880 H   0  0  0  0  0  0  0  0  0  0  0  0
  145.3610   72.2680  221.6950 H   0  0  0  0  0  0  0  0  0  0  0  0
  145.6820   73.6180  220.1650 C   0  0  0  0  0  0  0  0  0  0  0  0
  146.5839   74.0640  220.6096 H   0  0  0  0  0  0  0  0  0  0  0  0
  145.7770   73.5981  219.0693 H   0  0  0  0  0  0  0  0  0  0  0  0
  144.4580   74.4580  220.5490 C   0  0  0  0  0  0  0  0  0  0  0  0
  144.5616   74.7864  221.5937 H   0  0  0  0  0  0  0  0  0  0  0  0
  144.4044   75.3245  219.8735 H   0  0  0  0  0  0  0  0  0  0  0  0
  141.7200   75.5060  221.0780 N   0  0  0  0  0  0  0  0  0  0  0  0
  142.4210   76.2030  220.7490 H   0  0  0  0  0  0  0  0  0  0  0  0
  139.1260   77.7960  222.5760 C   0  0  0  0  0  0  0  0  0  0  0  0
  139.1620   77.2659  223.5392 H   0  0  0  0  0  0  0  0  0  0  0  0
  138.2084   77.5668  222.0143 H   0  0  0  0  0  0  0  0  0  0  0  0
  139.1310   79.3120  222.8500 C   0  0  0  0  0  0  0  0  0  0  0  0
  138.5351   79.5148  223.7521 H   0  0  0  0  0  0  0  0  0  0  0  0
  138.7016   79.8236  221.9760 H   0  0  0  0  0  0  0  0  0  0  0  0
  1  2  1  0
  2  3  2  0
  3  4  1  0
  3  5  1  0
  5  6  1  0
  5  7  2  0
  7  8  1  0
  8  9  2  0
  9 10  1  0
  8 11  1  0
 11 12  1  0
 11 13  1  0
 11 14  1  0
 14 15  1  0
 15 16  2  0
 16 17  1  0
 17 18  2  0
 18 19  1  0
 18 20  1  0
 20 21  1  0
 20 22  1  0
 20 23  1  0
 23 24  1  0
 23 25  1  0
 23 26  1  0
 26 27  1  0
 26 28  1  0
 26 29  1  0
 29 30  1  0
 29 31  1  0
 29 32  1  0
 32 33  1  0
 32 34  1  0
 32 35  1  0
 35 36  1  0
 36 37  1  0
 36 38  1  0
 36 39  1  0
 39 40  1  0
 39 41  1  0
 39 42  1  0
 42 43  1  0
 42 44  1  0
 42 45  1  0
 45 46  1  0
 45 47  1  0
 17 48  1  0
 48 49  2  0
 49 50  1  0
 50 51  1  0
 51 52  1  0
 51 53  1  0
 51 54  1  0
 54 55  1  0
 54 56  1  0
 54 57  1  0
 57 58  1  0
 57 59  1  0
 57 60  1  0
 60 61  1  0
 60 62  1  0
 60 63  1  0
 63 64  1  0
 63 65  1  0
 49 66  1  0
 66 67  1  0
 14 68  1  0
 68 69  1  0
 68 70  1  0
 68 71  1  0
 71 72  1  0
 71 73  1  0
  9  2  1  0
 66 15  1  0
 71  7  1  0
 45 35  1  0
 63 50  1  0
M  CHG  2  18   1  57   1
M  END
>  <UniqueID>  (60) 
482

>  <SMILES>  (60) 
c1ccc2c(c1)CCN(c1n/c(=[NH+]\CCCCCN3CCCC3)nc(N3CC[NH2+]CC3)[nH]1)C2

>  <Energy>  (60) 
81.83170711428579

>  <Genealogy>  (60) 
c1ccc2c(c1)CCN(c1nc([NH2+]CCCCCN3CCCC3)nc(N3CC[NH2+]CC3)n1)C2 (protonated)
c1ccc2c(c1)CCN(c1nc(=[NH+]CCCCCN3CCCC3)nc(N3CC[NH2+]CC3)[nH]1)C2 (tautomer)
c1ccc2c(c1)CCN(c1n/c(=[NH+]\CCCCCN3CCCC3)nc(N3CC[NH2+]CC3)[nH]1)C2 (cis-trans isomerization)
c1ccc2c(c1)CCN(c1n/c(=[NH+]\CCCCCN3CCCC3)nc(N3CC[NH2+]CC3)[nH]1)C2 (3D coordinates assigned)
c1ccc2c(c1)CCN(c1n/c(=[NH+]\CCCCCN3CCCC3)nc(N3CC[NH2+]CC3)[nH]1)C2 (nonaromatic ring conformer: 81.83170711428579 kcal/mol)

>  <smiles>  (60) 
c1ccc2c(c1)CCN(c1nc(NCCCCCN3CCCC3)nc(N3CCNCC3)n1)C2

>  <score_type>  (60) 
oracle

>  <origin>  (60) 
autodockgpu

>  <m_score__min__energy>  (60) 
-9.7300000000000004

>  <m_primary>  (60) 
energy

>  <meeko>  (60) 
{"free_energy": -9.73, "intermolecular_energy": -12.41, "internal_energy": -0.49, "cluster_size": 2, "cluster_id": 1, "rank_in_cluster": 1}

>  <energy>  (60) 
-6.69

>  <cluster_rmsd>  (60) 
0.0

>  <rmsd>  (60) 
271.05

>  <cluster>  (60) 
8

$$$$
MTUVCRSRZGPGQU-NMOKVYIGNA-P
     RDKit          3D

 73 77  0  0  0  0  0  0  0  0999 V2000
  142.5021   66.4194  219.3067 H   0  0  0  0  0  0  0  0  0  0  0  0
  143.0160   67.3910  219.3500 C   0  0  0  0  0  0  0  0  0  0  0  0
  144.3890   67.4430  219.6090 C   0  0  0  0  0  0  0  0  0  0  0  0
  144.9526   66.5120  219.7692 H   0  0  0  0  0  0  0  0  0  0  0  0
  145.0480   68.6760  219.6650 C   0  0  0  0  0  0  0  0  0  0  0  0
  146.1307   68.7132  219.8555 H   0  0  0  0  0  0  0  0  0  0  0  0
  144.3270   69.8650  219.4780 C   0  0  0  0  0  0  0  0  0  0  0  0
  142.9490   69.8110  219.2140 C   0  0  0  0  0  0  0  0  0  0  0  0
  142.2950   68.5710  219.1460 C   0  0  0  0  0  0  0  0  0  0  0  0
  141.2168   68.5278  218.9325 H   0  0  0  0  0  0  0  0  0  0  0  0
  142.2200   71.1000  218.9820 C   0  0  0  0  0  0  0  0  0  0  0  0
  141.1416   70.9439  219.1325 H   0  0  0  0  0  0  0  0  0  0  0  0
  142.3998   71.4435  217.9526 H   0  0  0  0  0  0  0  0  0  0  0  0
  142.7070   72.1160  219.9320 N   0  0  0  0  0  0  0  0  0  0  0  0
  141.7620   72.8670  220.7210 C   0  0  0  0  0  0  0  0  0  0  0  0
  140.8500   72.2080  221.4790 N   0  0  0  0  0  0  0  0  0  0  0  0
  139.9380   72.8860  222.2200 C   0  0  0  0  0  0  0  0  0  0  0  0
  139.0580   72.2500  222.9430 N   0  0  0  0  0  0  0  0  0  0  0  0
  138.0930   72.6450  223.0280 H   0  0  0  0  0  0  0  0  0  0  0  0
  139.3660   71.0460  223.7230 C   0  0  0  0  0  0  0  0  0  0  0  0
  138.6200   70.9367  224.5239 H   0  0  0  0  0  0  0  0  0  0  0  0
  139.3404   70.1776  223.0483 H   0  0  0  0  0  0  0  0  0  0  0  0
  140.7650   71.1340  224.3500 C   0  0  0  0  0  0  0  0  0  0  0  0
  141.1693   70.1183  224.4722 H   0  0  0  0  0  0  0  0  0  0  0  0
  141.4106   71.7276  223.6861 H   0  0  0  0  0  0  0  0  0  0  0  0
  140.7090   71.8220  225.7240 C   0  0  0  0  0  0  0  0  0  0  0  0
  141.3178   72.7373  225.6846 H   0  0  0  0  0  0  0  0  0  0  0  0
  139.6541   72.0450  225.9418 H   0  0  0  0  0  0  0  0  0  0  0  0
  141.2380   70.9280  226.8550 C   0  0  0  0  0  0  0  0  0  0  0  0
  141.3598   69.9060  226.4667 H   0  0  0  0  0  0  0  0  0  0  0  0
  142.1941   71.3543  227.1929 H   0  0  0  0  0  0  0  0  0  0  0  0
  140.2980   70.8820  228.0710 C   0  0  0  0  0  0  0  0  0  0  0  0
  140.8873   71.0135  228.9905 H   0  0  0  0  0  0  0  0  0  0  0  0
  139.5560   71.6890  227.9807 H   0  0  0  0  0  0  0  0  0  0  0  0
  139.5920   69.5820  228.1250 N   0  0  0  0  0  0  0  0  0  0  0  0
  140.4830   68.4980  228.5730 C   0  0  0  0  0  0  0  0  0  0  0  0
  141.2965   68.9139  229.1856 H   0  0  0  0  0  0  0  0  0  0  0  0
  139.9224   67.7715  229.1795 H   0  0  0  0  0  0  0  0  0  0  0  0
  141.0630   67.8170  227.3380 C   0  0  0  0  0  0  0  0  0  0  0  0
  142.1246   68.0790  227.2180 H   0  0  0  0  0  0  0  0  0  0  0  0
  141.0087   66.7210  227.4145 H   0  0  0  0  0  0  0  0  0  0  0  0
  140.2540   68.3380  226.1670 C   0  0  0  0  0  0  0  0  0  0  0  0
  140.8791   68.9648  225.5141 H   0  0  0  0  0  0  0  0  0  0  0  0
  139.8622   67.5226  225.5412 H   0  0  0  0  0  0  0  0  0  0  0  0
  139.1410   69.1620  226.7910 C   0  0  0  0  0  0  0  0  0  0  0  0
  138.9352   70.0459  226.1693 H   0  0  0  0  0  0  0  0  0  0  0  0
  138.2172   68.5695  226.8648 H   0  0  0  0  0  0  0  0  0  0  0  0
  139.9500   74.2430  222.2060 N   0  0  0  0  0  0  0  0  0  0  0  0
  140.8630   74.9270  221.4670 C   0  0  0  0  0  0  0  0  0  0  0  0
  140.8510   76.3750  221.4710 N   0  0  0  0  0  0  0  0  0  0  0  0
  140.6260   77.1270  220.2260 C   0  0  0  0  0  0  0  0  0  0  0  0
  140.7381   76.4454  219.3699 H   0  0  0  0  0  0  0  0  0  0  0  0
  139.6115   77.5512  220.2538 H   0  0  0  0  0  0  0  0  0  0  0  0
  141.6370   78.2860  220.0830 C   0  0  0  0  0  0  0  0  0  0  0  0
  142.4692   77.9452  219.4495 H   0  0  0  0  0  0  0  0  0  0  0  0
  141.0941   79.1343  219.6407 H   0  0  0  0  0  0  0  0  0  0  0  0
  142.1910   78.7510  221.3710 N   0  0  0  0  0  0  0  0  0  0  0  0
  142.4600   79.7600  221.2820 H   0  0  0  0  0  0  0  0  0  0  0  0
  143.0590   78.2080  221.5950 H   0  0  0  0  0  0  0  0  0  0  0  0
  141.2330   78.6080  222.4740 C   0  0  0  0  0  0  0  0  0  0  0  0
  141.6545   79.0611  223.3834 H   0  0  0  0  0  0  0  0  0  0  0  0
  140.2946   79.1148  222.2048 H   0  0  0  0  0  0  0  0  0  0  0  0
  140.9470   77.1240  222.7320 C   0  0  0  0  0  0  0  0  0  0  0  0
  141.7613   76.7018  223.3392 H   0  0  0  0  0  0  0  0  0  0  0  0
  139.9861   77.0409  223.2609 H   0  0  0  0  0  0  0  0  0  0  0  0
  141.7740   74.2300  220.7230 N   0  0  0  0  0  0  0  0  0  0  0  0
  142.4780   74.7350  220.1450 H   0  0  0  0  0  0  0  0  0  0  0  0
  144.1540   72.2730  220.1840 C   0  0  0  0  0  0  0  0  0  0  0  0
  144.3305   72.2001  221.2673 H   0  0  0  0  0  0  0  0  0  0  0  0
  144.4520   73.2529  219.7828 H   0  0  0  0  0  0  0  0  0  0  0  0
  145.0110   71.2070  219.4750 C   0  0  0  0  0  0  0  0  0  0  0  0
  145.9760   71.1186  219.9955 H   0  0  0  0  0  0  0  0  0  0  0  0
  145.1596   71.5189  218.4307 H   0  0  0  0  0  0  0  0  0  0  0  0
  1  2  1  0
  2  3  2  0
  3  4  1  0
  3  5  1  0
  5  6  1  0
  5  7  2  0
  7  8  1  0
  8  9  2  0
  9 10  1  0
  8 11  1  0
 11 12  1  0
 11 13  1  0
 11 14  1  0
 14 15  1  0
 15 16  2  0
 16 17  1  0
 17 18  2  0
 18 19  1  0
 18 20  1  0
 20 21  1  0
 20 22  1  0
 20 23  1  0
 23 24  1  0
 23 25  1  0
 23 26  1  0
 26 27  1  0
 26 28  1  0
 26 29  1  0
 29 30  1  0
 29 31  1  0
 29 32  1  0
 32 33  1  0
 32 34  1  0
 32 35  1  0
 35 36  1  0
 36 37  1  0
 36 38  1  0
 36 39  1  0
 39 40  1  0
 39 41  1  0
 39 42  1  0
 42 43  1  0
 42 44  1  0
 42 45  1  0
 45 46  1  0
 45 47  1  0
 17 48  1  0
 48 49  2  0
 49 50  1  0
 50 51  1  0
 51 52  1  0
 51 53  1  0
 51 54  1  0
 54 55  1  0
 54 56  1  0
 54 57  1  0
 57 58  1  0
 57 59  1  0
 57 60  1  0
 60 61  1  0
 60 62  1  0
 60 63  1  0
 63 64  1  0
 63 65  1  0
 49 66  1  0
 66 67  1  0
 14 68  1  0
 68 69  1  0
 68 70  1  0
 68 71  1  0
 71 72  1  0
 71 73  1  0
  9  2  1  0
 66 15  1  0
 71  7  1  0
 45 35  1  0
 63 50  1  0
M  CHG  2  18   1  57   1
M  END
>  <UniqueID>  (61) 
483

>  <SMILES>  (61) 
c1ccc2c(c1)CCN(c1n/c(=[NH+]\CCCCCN3CCCC3)nc(N3CC[NH2+]CC3)[nH]1)C2

>  <Energy>  (61) 
82.96491159646912

>  <Genealogy>  (61) 
c1ccc2c(c1)CCN(c1nc([NH2+]CCCCCN3CCCC3)nc(N3CC[NH2+]CC3)n1)C2 (protonated)
c1ccc2c(c1)CCN(c1nc(=[NH+]CCCCCN3CCCC3)nc(N3CC[NH2+]CC3)[nH]1)C2 (tautomer)
c1ccc2c(c1)CCN(c1n/c(=[NH+]\CCCCCN3CCCC3)nc(N3CC[NH2+]CC3)[nH]1)C2 (cis-trans isomerization)
c1ccc2c(c1)CCN(c1n/c(=[NH+]\CCCCCN3CCCC3)nc(N3CC[NH2+]CC3)[nH]1)C2 (3D coordinates assigned)
c1ccc2c(c1)CCN(c1n/c(=[NH+]\CCCCCN3CCCC3)nc(N3CC[NH2+]CC3)[nH]1)C2 (nonaromatic ring conformer: 82.96491159646912 kcal/mol)

>  <smiles>  (61) 
c1ccc2c(c1)CCN(c1nc(NCCCCCN3CCCC3)nc(N3CCNCC3)n1)C2

>  <score_type>  (61) 
oracle

>  <origin>  (61) 
autodockgpu

>  <m_score__min__energy>  (61) 
-9.7300000000000004

>  <m_primary>  (61) 
energy

>  <meeko>  (61) 
{"free_energy": -8.65, "intermolecular_energy": -11.33, "internal_energy": -0.29, "cluster_size": 1, "cluster_id": 2, "rank_in_cluster": 1}

>  <energy>  (61) 
-9.73

>  <cluster_rmsd>  (61) 
0.0

>  <rmsd>  (61) 
272.1

>  <cluster>  (61) 
1

$$$$
MTUVCRSRZGPGQU-NMOKVYIGNA-P
     RDKit          3D

 73 77  0  0  0  0  0  0  0  0999 V2000
  138.4000   81.6913  225.1141 H   0  0  0  0  0  0  0  0  0  0  0  0
  138.0800   81.1970  224.1850 C   0  0  0  0  0  0  0  0  0  0  0  0
  137.1130   80.1880  224.2290 C   0  0  0  0  0  0  0  0  0  0  0  0
  136.6759   79.8888  225.1930 H   0  0  0  0  0  0  0  0  0  0  0  0
  136.7000   79.5580  223.0500 C   0  0  0  0  0  0  0  0  0  0  0  0
  135.9279   78.7753  223.0856 H   0  0  0  0  0  0  0  0  0  0  0  0
  137.2710   79.9250  221.8230 C   0  0  0  0  0  0  0  0  0  0  0  0
  138.2390   80.9400  221.7800 C   0  0  0  0  0  0  0  0  0  0  0  0
  138.6410   81.5790  222.9630 C   0  0  0  0  0  0  0  0  0  0  0  0
  139.3957   82.3785  222.9287 H   0  0  0  0  0  0  0  0  0  0  0  0
  138.7990   81.3320  220.4450 C   0  0  0  0  0  0  0  0  0  0  0  0
  139.7534   81.8599  220.5880 H   0  0  0  0  0  0  0  0  0  0  0  0
  138.0886   81.9943  219.9286 H   0  0  0  0  0  0  0  0  0  0  0  0
  139.0230   80.1220  219.6340 N   0  0  0  0  0  0  0  0  0  0  0  0
  140.3030   79.9110  219.0040 C   0  0  0  0  0  0  0  0  0  0  0  0
  141.0200   78.7980  219.3000 N   0  0  0  0  0  0  0  0  0  0  0  0
  142.2340   78.5790  218.7360 C   0  0  0  0  0  0  0  0  0  0  0  0
  142.9240   77.5110  219.0280 N   0  0  0  0  0  0  0  0  0  0  0  0
  143.9490   77.6050  219.2100 H   0  0  0  0  0  0  0  0  0  0  0  0
  142.3600   76.1560  219.0310 C   0  0  0  0  0  0  0  0  0  0  0  0
  141.4646   76.1388  218.3923 H   0  0  0  0  0  0  0  0  0  0  0  0
  143.1224   75.4609  218.6496 H   0  0  0  0  0  0  0  0  0  0  0  0
  141.9710   75.7190  220.4500 C   0  0  0  0  0  0  0  0  0  0  0  0
  141.8596   74.6249  220.4717 H   0  0  0  0  0  0  0  0  0  0  0  0
  142.7614   76.0395  221.1447 H   0  0  0  0  0  0  0  0  0  0  0  0
  140.6460   76.3680  220.8820 C   0  0  0  0  0  0  0  0  0  0  0  0
  140.4086   77.1830  220.1825 H   0  0  0  0  0  0  0  0  0  0  0  0
  139.8731   75.5853  220.8712 H   0  0  0  0  0  0  0  0  0  0  0  0
  140.7050   76.9430  222.3050 C   0  0  0  0  0  0  0  0  0  0  0  0
  139.8548   76.5461  222.8792 H   0  0  0  0  0  0  0  0  0  0  0  0
  141.6696   76.6444  222.7414 H   0  0  0  0  0  0  0  0  0  0  0  0
  140.6420   78.4780  222.3340 C   0  0  0  0  0  0  0  0  0  0  0  0
  140.2100   78.8413  221.3899 H   0  0  0  0  0  0  0  0  0  0  0  0
  140.0160   78.7944  223.1814 H   0  0  0  0  0  0  0  0  0  0  0  0
  141.9990   79.0450  222.5000 N   0  0  0  0  0  0  0  0  0  0  0  0
  142.1920   79.6080  223.8460 C   0  0  0  0  0  0  0  0  0  0  0  0
  141.5155   79.1118  224.5574 H   0  0  0  0  0  0  0  0  0  0  0  0
  143.2290   79.4510  224.1777 H   0  0  0  0  0  0  0  0  0  0  0  0
  141.8780   81.0990  223.7900 C   0  0  0  0  0  0  0  0  0  0  0  0
  140.9215   81.3092  224.2909 H   0  0  0  0  0  0  0  0  0  0  0  0
  142.6467   81.6967  224.3017 H   0  0  0  0  0  0  0  0  0  0  0  0
  141.7900   81.4410  222.3160 C   0  0  0  0  0  0  0  0  0  0  0  0
  140.7592   81.7111  222.0430 H   0  0  0  0  0  0  0  0  0  0  0  0
  142.4221   82.3023  222.0541 H   0  0  0  0  0  0  0  0  0  0  0  0
  142.2200   80.1780  221.5910 C   0  0  0  0  0  0  0  0  0  0  0  0
  141.6212   80.0479  220.6775 H   0  0  0  0  0  0  0  0  0  0  0  0
  143.2798   80.2404  221.3031 H   0  0  0  0  0  0  0  0  0  0  0  0
  142.7290   79.4850  217.8560 N   0  0  0  0  0  0  0  0  0  0  0  0
  142.0230   80.6020  217.5300 C   0  0  0  0  0  0  0  0  0  0  0  0
  142.5770   81.5520  216.5890 N   0  0  0  0  0  0  0  0  0  0  0  0
  141.9250   81.7920  215.2920 C   0  0  0  0  0  0  0  0  0  0  0  0
  141.1890   80.9955  215.1079 H   0  0  0  0  0  0  0  0  0  0  0  0
  141.4332   82.7753  215.3270 H   0  0  0  0  0  0  0  0  0  0  0  0
  142.9540   81.8020  214.1410 C   0  0  0  0  0  0  0  0  0  0  0  0
  142.9720   80.8025  213.6819 H   0  0  0  0  0  0  0  0  0  0  0  0
  142.6381   82.5821  213.4327 H   0  0  0  0  0  0  0  0  0  0  0  0
  144.3250   82.1410  214.5760 N   0  0  0  0  0  0  0  0  0  0  0  0
  144.8380   82.5820  213.7760 H   0  0  0  0  0  0  0  0  0  0  0  0
  144.8350   81.2630  214.8370 H   0  0  0  0  0  0  0  0  0  0  0  0
  144.3370   83.0650  215.7170 C   0  0  0  0  0  0  0  0  0  0  0  0
  145.3734   83.3631  215.9337 H   0  0  0  0  0  0  0  0  0  0  0  0
  143.7380   83.9536  215.4690 H   0  0  0  0  0  0  0  0  0  0  0  0
  143.7360   82.3800  216.9520 C   0  0  0  0  0  0  0  0  0  0  0  0
  144.5018   81.7414  217.4165 H   0  0  0  0  0  0  0  0  0  0  0  0
  143.4021   83.1581  217.6541 H   0  0  0  0  0  0  0  0  0  0  0  0
  140.8030   80.8110  218.1100 N   0  0  0  0  0  0  0  0  0  0  0  0
  140.2490   81.6620  217.8790 H   0  0  0  0  0  0  0  0  0  0  0  0
  137.9990   79.0590  219.5750 C   0  0  0  0  0  0  0  0  0  0  0  0
  138.4706   78.1031  219.8466 H   0  0  0  0  0  0  0  0  0  0  0  0
  137.5997   79.0445  218.5501 H   0  0  0  0  0  0  0  0  0  0  0  0
  136.8130   79.3090  220.5270 C   0  0  0  0  0  0  0  0  0  0  0  0
  136.3176   78.3506  220.7413 H   0  0  0  0  0  0  0  0  0  0  0  0
  136.1170   80.0066  220.0382 H   0  0  0  0  0  0  0  0  0  0  0  0
  1  2  1  0
  2  3  2  0
  3  4  1  0
  3  5  1  0
  5  6  1  0
  5  7  2  0
  7  8  1  0
  8  9  2  0
  9 10  1  0
  8 11  1  0
 11 12  1  0
 11 13  1  0
 11 14  1  0
 14 15  1  0
 15 16  2  0
 16 17  1  0
 17 18  2  0
 18 19  1  0
 18 20  1  0
 20 21  1  0
 20 22  1  0
 20 23  1  0
 23 24  1  0
 23 25  1  0
 23 26  1  0
 26 27  1  0
 26 28  1  0
 26 29  1  0
 29 30  1  0
 29 31  1  0
 29 32  1  0
 32 33  1  0
 32 34  1  0
 32 35  1  0
 35 36  1  0
 36 37  1  0
 36 38  1  0
 36 39  1  0
 39 40  1  0
 39 41  1  0
 39 42  1  0
 42 43  1  0
 42 44  1  0
 42 45  1  0
 45 46  1  0
 45 47  1  0
 17 48  1  0
 48 49  2  0
 49 50  1  0
 50 51  1  0
 51 52  1  0
 51 53  1  0
 51 54  1  0
 54 55  1  0
 54 56  1  0
 54 57  1  0
 57 58  1  0
 57 59  1  0
 57 60  1  0
 60 61  1  0
 60 62  1  0
 60 63  1  0
 63 64  1  0
 63 65  1  0
 49 66  1  0
 66 67  1  0
 14 68  1  0
 68 69  1  0
 68 70  1  0
 68 71  1  0
 71 72  1  0
 71 73  1  0
  9  2  1  0
 66 15  1  0
 71  7  1  0
 45 35  1  0
 63 50  1  0
M  CHG  2  18   1  57   1
M  END
>  <UniqueID>  (62) 
483

>  <SMILES>  (62) 
c1ccc2c(c1)CCN(c1n/c(=[NH+]\CCCCCN3CCCC3)nc(N3CC[NH2+]CC3)[nH]1)C2

>  <Energy>  (62) 
82.96491159646912

>  <Genealogy>  (62) 
c1ccc2c(c1)CCN(c1nc([NH2+]CCCCCN3CCCC3)nc(N3CC[NH2+]CC3)n1)C2 (protonated)
c1ccc2c(c1)CCN(c1nc(=[NH+]CCCCCN3CCCC3)nc(N3CC[NH2+]CC3)[nH]1)C2 (tautomer)
c1ccc2c(c1)CCN(c1n/c(=[NH+]\CCCCCN3CCCC3)nc(N3CC[NH2+]CC3)[nH]1)C2 (cis-trans isomerization)
c1ccc2c(c1)CCN(c1n/c(=[NH+]\CCCCCN3CCCC3)nc(N3CC[NH2+]CC3)[nH]1)C2 (3D coordinates assigned)
c1ccc2c(c1)CCN(c1n/c(=[NH+]\CCCCCN3CCCC3)nc(N3CC[NH2+]CC3)[nH]1)C2 (nonaromatic ring conformer: 82.96491159646912 kcal/mol)

>  <smiles>  (62) 
c1ccc2c(c1)CCN(c1nc(NCCCCCN3CCCC3)nc(N3CCNCC3)n1)C2

>  <score_type>  (62) 
oracle

>  <origin>  (62) 
autodockgpu

>  <m_score__min__energy>  (62) 
-9.7300000000000004

>  <m_primary>  (62) 
energy

>  <meeko>  (62) 
{"free_energy": -7.14, "intermolecular_energy": -9.82, "internal_energy": -2.22, "cluster_size": 2, "cluster_id": 6, "rank_in_cluster": 1}

>  <energy>  (62) 
-8.74

>  <cluster_rmsd>  (62) 
1.37

>  <rmsd>  (62) 
271.86

>  <cluster>  (62) 
1

$$$$
MTUVCRSRZGPGQU-NMOKVYIGNA-P
     RDKit          3D

 73 77  0  0  0  0  0  0  0  0999 V2000
  138.1279   77.8556  223.0004 H   0  0  0  0  0  0  0  0  0  0  0  0
  138.9560   77.6720  222.3000 C   0  0  0  0  0  0  0  0  0  0  0  0
  140.0070   76.8260  222.6680 C   0  0  0  0  0  0  0  0  0  0  0  0
  140.0040   76.3463  223.6579 H   0  0  0  0  0  0  0  0  0  0  0  0
  141.0620   76.5880  221.7810 C   0  0  0  0  0  0  0  0  0  0  0  0
  141.8805   75.9116  222.0684 H   0  0  0  0  0  0  0  0  0  0  0  0
  141.0760   77.2120  220.5250 C   0  0  0  0  0  0  0  0  0  0  0  0
  140.0180   78.0590  220.1550 C   0  0  0  0  0  0  0  0  0  0  0  0
  138.9560   78.2850  221.0430 C   0  0  0  0  0  0  0  0  0  0  0  0
  138.1245   78.9433  220.7512 H   0  0  0  0  0  0  0  0  0  0  0  0
  140.0490   78.6780  218.7900 C   0  0  0  0  0  0  0  0  0  0  0  0
  139.3790   79.5501  218.7672 H   0  0  0  0  0  0  0  0  0  0  0  0
  139.7154   77.9410  218.0446 H   0  0  0  0  0  0  0  0  0  0  0  0
  141.4240   79.1060  218.4780 N   0  0  0  0  0  0  0  0  0  0  0  0
  141.6660   80.4490  218.0130 C   0  0  0  0  0  0  0  0  0  0  0  0
  141.2120   81.5010  218.7390 N   0  0  0  0  0  0  0  0  0  0  0  0
  141.4100   82.7760  218.3200 C   0  0  0  0  0  0  0  0  0  0  0  0
  140.9660   83.7850  219.0180 N   0  0  0  0  0  0  0  0  0  0  0  0
  140.8500   84.7130  218.5490 H   0  0  0  0  0  0  0  0  0  0  0  0
  140.7000   83.7200  220.4600 C   0  0  0  0  0  0  0  0  0  0  0  0
  141.3501   82.9557  220.9108 H   0  0  0  0  0  0  0  0  0  0  0  0
  140.9037   84.7088  220.8969 H   0  0  0  0  0  0  0  0  0  0  0  0
  139.2340   83.3580  220.7380 C   0  0  0  0  0  0  0  0  0  0  0  0
  138.8943   83.8956  221.6356 H   0  0  0  0  0  0  0  0  0  0  0  0
  138.6293   83.6463  219.8655 H   0  0  0  0  0  0  0  0  0  0  0  0
  139.0760   81.8460  220.9670 C   0  0  0  0  0  0  0  0  0  0  0  0
  138.2519   81.4786  220.3378 H   0  0  0  0  0  0  0  0  0  0  0  0
  140.0312   81.3678  220.7045 H   0  0  0  0  0  0  0  0  0  0  0  0
  138.7690   81.4990  222.4320 C   0  0  0  0  0  0  0  0  0  0  0  0
  138.5397   82.4293  222.9724 H   0  0  0  0  0  0  0  0  0  0  0  0
  137.9170   80.8032  222.4347 H   0  0  0  0  0  0  0  0  0  0  0  0
  139.9400   80.7970  223.1390 C   0  0  0  0  0  0  0  0  0  0  0  0
  139.8456   80.9395  224.2257 H   0  0  0  0  0  0  0  0  0  0  0  0
  139.9136   79.7246  222.8955 H   0  0  0  0  0  0  0  0  0  0  0  0
  141.2290   81.3620  222.6830 N   0  0  0  0  0  0  0  0  0  0  0  0
  141.9710   80.4120  221.8380 C   0  0  0  0  0  0  0  0  0  0  0  0
  141.2690   79.7145  221.3577 H   0  0  0  0  0  0  0  0  0  0  0  0
  142.5227   80.9522  221.0545 H   0  0  0  0  0  0  0  0  0  0  0  0
  142.9400   79.6390  222.7250 C   0  0  0  0  0  0  0  0  0  0  0  0
  142.5921   78.6047  222.8638 H   0  0  0  0  0  0  0  0  0  0  0  0
  143.9441   79.5831  222.2794 H   0  0  0  0  0  0  0  0  0  0  0  0
  142.9540   80.3750  224.0500 C   0  0  0  0  0  0  0  0  0  0  0  0
  142.5032   79.7565  224.8401 H   0  0  0  0  0  0  0  0  0  0  0  0
  143.9765   80.6121  224.3789 H   0  0  0  0  0  0  0  0  0  0  0  0
  142.1270   81.6270  223.8160 C   0  0  0  0  0  0  0  0  0  0  0  0
  141.5376   81.8605  224.7149 H   0  0  0  0  0  0  0  0  0  0  0  0
  142.7794   82.4856  223.5988 H   0  0  0  0  0  0  0  0  0  0  0  0
  142.0810   82.9960  217.1620 N   0  0  0  0  0  0  0  0  0  0  0  0
  142.5590   81.9600  216.4230 C   0  0  0  0  0  0  0  0  0  0  0  0
  143.2710   82.2260  215.1900 N   0  0  0  0  0  0  0  0  0  0  0  0
  142.7240   81.7840  213.8970 C   0  0  0  0  0  0  0  0  0  0  0  0
  141.9134   81.0628  214.0781 H   0  0  0  0  0  0  0  0  0  0  0  0
  142.3458   82.6659  213.3592 H   0  0  0  0  0  0  0  0  0  0  0  0
  143.8120   81.1120  213.0300 C   0  0  0  0  0  0  0  0  0  0  0  0
  143.7419   80.0227  213.1664 H   0  0  0  0  0  0  0  0  0  0  0  0
  143.6283   81.4156  211.9888 H   0  0  0  0  0  0  0  0  0  0  0  0
  145.1850   81.5380  213.3700 N   0  0  0  0  0  0  0  0  0  0  0  0
  145.7890   81.4520  212.5180 H   0  0  0  0  0  0  0  0  0  0  0  0
  145.5760   80.9020  214.1040 H   0  0  0  0  0  0  0  0  0  0  0  0
  145.2370   82.9240  213.8520 C   0  0  0  0  0  0  0  0  0  0  0  0
  146.2866   83.2226  213.9908 H   0  0  0  0  0  0  0  0  0  0  0  0
  144.7573   83.5824  213.1127 H   0  0  0  0  0  0  0  0  0  0  0  0
  144.4940   83.0410  215.1890 C   0  0  0  0  0  0  0  0  0  0  0  0
  145.1550   82.6972  215.9982 H   0  0  0  0  0  0  0  0  0  0  0  0
  144.2116   84.0934  215.3398 H   0  0  0  0  0  0  0  0  0  0  0  0
  142.3490   80.6800  216.8560 N   0  0  0  0  0  0  0  0  0  0  0  0
  142.7020   79.8720  216.3010 H   0  0  0  0  0  0  0  0  0  0  0  0
  142.5700   78.2180  218.7680 C   0  0  0  0  0  0  0  0  0  0  0  0
  143.2954   78.7715  219.3824 H   0  0  0  0  0  0  0  0  0  0  0  0
  142.9989   77.9095  217.8032 H   0  0  0  0  0  0  0  0  0  0  0  0
  142.1650   76.9370  219.5220 C   0  0  0  0  0  0  0  0  0  0  0  0
  143.0445   76.5383  220.0487 H   0  0  0  0  0  0  0  0  0  0  0  0
  141.7859   76.2090  218.7897 H   0  0  0  0  0  0  0  0  0  0  0  0
  1  2  1  0
  2  3  2  0
  3  4  1  0
  3  5  1  0
  5  6  1  0
  5  7  2  0
  7  8  1  0
  8  9  2  0
  9 10  1  0
  8 11  1  0
 11 12  1  0
 11 13  1  0
 11 14  1  0
 14 15  1  0
 15 16  2  0
 16 17  1  0
 17 18  2  0
 18 19  1  0
 18 20  1  0
 20 21  1  0
 20 22  1  0
 20 23  1  0
 23 24  1  0
 23 25  1  0
 23 26  1  0
 26 27  1  0
 26 28  1  0
 26 29  1  0
 29 30  1  0
 29 31  1  0
 29 32  1  0
 32 33  1  0
 32 34  1  0
 32 35  1  0
 35 36  1  0
 36 37  1  0
 36 38  1  0
 36 39  1  0
 39 40  1  0
 39 41  1  0
 39 42  1  0
 42 43  1  0
 42 44  1  0
 42 45  1  0
 45 46  1  0
 45 47  1  0
 17 48  1  0
 48 49  2  0
 49 50  1  0
 50 51  1  0
 51 52  1  0
 51 53  1  0
 51 54  1  0
 54 55  1  0
 54 56  1  0
 54 57  1  0
 57 58  1  0
 57 59  1  0
 57 60  1  0
 60 61  1  0
 60 62  1  0
 60 63  1  0
 63 64  1  0
 63 65  1  0
 49 66  1  0
 66 67  1  0
 14 68  1  0
 68 69  1  0
 68 70  1  0
 68 71  1  0
 71 72  1  0
 71 73  1  0
  9  2  1  0
 66 15  1  0
 71  7  1  0
 45 35  1  0
 63 50  1  0
M  CHG  2  18   1  57   1
M  END
>  <UniqueID>  (63) 
483

>  <SMILES>  (63) 
c1ccc2c(c1)CCN(c1n/c(=[NH+]\CCCCCN3CCCC3)nc(N3CC[NH2+]CC3)[nH]1)C2

>  <Energy>  (63) 
82.96491159646912

>  <Genealogy>  (63) 
c1ccc2c(c1)CCN(c1nc([NH2+]CCCCCN3CCCC3)nc(N3CC[NH2+]CC3)n1)C2 (protonated)
c1ccc2c(c1)CCN(c1nc(=[NH+]CCCCCN3CCCC3)nc(N3CC[NH2+]CC3)[nH]1)C2 (tautomer)
c1ccc2c(c1)CCN(c1n/c(=[NH+]\CCCCCN3CCCC3)nc(N3CC[NH2+]CC3)[nH]1)C2 (cis-trans isomerization)
c1ccc2c(c1)CCN(c1n/c(=[NH+]\CCCCCN3CCCC3)nc(N3CC[NH2+]CC3)[nH]1)C2 (3D coordinates assigned)
c1ccc2c(c1)CCN(c1n/c(=[NH+]\CCCCCN3CCCC3)nc(N3CC[NH2+]CC3)[nH]1)C2 (nonaromatic ring conformer: 82.96491159646912 kcal/mol)

>  <smiles>  (63) 
c1ccc2c(c1)CCN(c1nc(NCCCCCN3CCCC3)nc(N3CCNCC3)n1)C2

>  <score_type>  (63) 
oracle

>  <origin>  (63) 
autodockgpu

>  <m_score__min__energy>  (63) 
-9.7300000000000004

>  <m_primary>  (63) 
energy

>  <meeko>  (63) 
{"free_energy": -7.03, "intermolecular_energy": -9.71, "internal_energy": -2.25, "cluster_size": 1, "cluster_id": 7, "rank_in_cluster": 1}

>  <energy>  (63) 
-8.65

>  <cluster_rmsd>  (63) 
0.0

>  <rmsd>  (63) 
271.29

>  <cluster>  (63) 
2

$$$$
MTUVCRSRZGPGQU-NMOKVYIGNA-P
     RDKit          3D

 73 77  0  0  0  0  0  0  0  0999 V2000
  141.1456   69.3303  228.2999 H   0  0  0  0  0  0  0  0  0  0  0  0
  140.6990   69.2480  227.2980 C   0  0  0  0  0  0  0  0  0  0  0  0
  140.5210   67.9900  226.7150 C   0  0  0  0  0  0  0  0  0  0  0  0
  140.8292   67.0849  227.2588 H   0  0  0  0  0  0  0  0  0  0  0  0
  139.9520   67.8790  225.4420 C   0  0  0  0  0  0  0  0  0  0  0  0
  139.8003   66.8869  224.9917 H   0  0  0  0  0  0  0  0  0  0  0  0
  139.5750   69.0330  224.7400 C   0  0  0  0  0  0  0  0  0  0  0  0
  139.7520   70.2960  225.3280 C   0  0  0  0  0  0  0  0  0  0  0  0
  140.3110   70.4010  226.6110 C   0  0  0  0  0  0  0  0  0  0  0  0
  140.4435   71.3895  227.0750 H   0  0  0  0  0  0  0  0  0  0  0  0
  139.3020   71.5050  224.5630 C   0  0  0  0  0  0  0  0  0  0  0  0
  139.7986   72.4001  224.9658 H   0  0  0  0  0  0  0  0  0  0  0  0
  138.2120   71.6167  224.6601 H   0  0  0  0  0  0  0  0  0  0  0  0
  139.6560   71.3440  223.1410 N   0  0  0  0  0  0  0  0  0  0  0  0
  140.3680   72.3960  222.4590 C   0  0  0  0  0  0  0  0  0  0  0  0
  139.9410   73.6780  222.5780 N   0  0  0  0  0  0  0  0  0  0  0  0
  140.5790   74.6890  221.9360 C   0  0  0  0  0  0  0  0  0  0  0  0
  140.1630   75.9200  222.0470 N   0  0  0  0  0  0  0  0  0  0  0  0
  140.8500   76.6660  222.3030 H   0  0  0  0  0  0  0  0  0  0  0  0
  138.7550   76.3150  221.9180 C   0  0  0  0  0  0  0  0  0  0  0  0
  138.1177   75.4391  222.1095 H   0  0  0  0  0  0  0  0  0  0  0  0
  138.5486   77.1119  222.6476 H   0  0  0  0  0  0  0  0  0  0  0  0
  138.4560   76.8540  220.5120 C   0  0  0  0  0  0  0  0  0  0  0  0
  138.0797   76.0329  219.8841 H   0  0  0  0  0  0  0  0  0  0  0  0
  137.7027   77.6513  220.5944 H   0  0  0  0  0  0  0  0  0  0  0  0
  139.7220   77.4400  219.8680 C   0  0  0  0  0  0  0  0  0  0  0  0
  140.5447   76.7202  219.9902 H   0  0  0  0  0  0  0  0  0  0  0  0
  139.4998   77.6266  218.8070 H   0  0  0  0  0  0  0  0  0  0  0  0
  140.1410   78.7770  220.4970 C   0  0  0  0  0  0  0  0  0  0  0  0
  140.0843   79.5602  219.7267 H   0  0  0  0  0  0  0  0  0  0  0  0
  139.4567   78.9762  221.3349 H   0  0  0  0  0  0  0  0  0  0  0  0
  141.5700   78.7500  221.0650 C   0  0  0  0  0  0  0  0  0  0  0  0
  142.1067   77.8813  220.6560 H   0  0  0  0  0  0  0  0  0  0  0  0
  142.0856   79.6793  220.7811 H   0  0  0  0  0  0  0  0  0  0  0  0
  141.5340   78.6510  222.5410 N   0  0  0  0  0  0  0  0  0  0  0  0
  140.2880   79.2080  223.0930 C   0  0  0  0  0  0  0  0  0  0  0  0
  139.4901   79.1552  222.3376 H   0  0  0  0  0  0  0  0  0  0  0  0
  139.9747   78.6334  223.9771 H   0  0  0  0  0  0  0  0  0  0  0  0
  140.5420   80.6620  223.4740 C   0  0  0  0  0  0  0  0  0  0  0  0
  140.0414   81.3378  222.7651 H   0  0  0  0  0  0  0  0  0  0  0  0
  140.1478   80.8957  224.4740 H   0  0  0  0  0  0  0  0  0  0  0  0
  142.0450   80.8440  223.4070 C   0  0  0  0  0  0  0  0  0  0  0  0
  142.3156   81.5223  222.5844 H   0  0  0  0  0  0  0  0  0  0  0  0
  142.4479   81.2888  224.3289 H   0  0  0  0  0  0  0  0  0  0  0  0
  142.6010   79.4530  223.1560 C   0  0  0  0  0  0  0  0  0  0  0  0
  143.4647   79.5114  222.4773 H   0  0  0  0  0  0  0  0  0  0  0  0
  142.9336   78.9945  224.0990 H   0  0  0  0  0  0  0  0  0  0  0  0
  141.6650   74.4080  221.1730 N   0  0  0  0  0  0  0  0  0  0  0  0
  142.1230   73.1330  221.0500 C   0  0  0  0  0  0  0  0  0  0  0  0
  143.2830   72.8630  220.2280 N   0  0  0  0  0  0  0  0  0  0  0  0
  144.6020   72.6410  220.8400 C   0  0  0  0  0  0  0  0  0  0  0  0
  144.5674   72.9608  221.8919 H   0  0  0  0  0  0  0  0  0  0  0  0
  144.8432   71.5703  220.7667 H   0  0  0  0  0  0  0  0  0  0  0  0
  145.7020   73.4400  220.1070 C   0  0  0  0  0  0  0  0  0  0  0  0
  145.8686   74.3817  220.6505 H   0  0  0  0  0  0  0  0  0  0  0  0
  146.6006   72.8060  220.0841 H   0  0  0  0  0  0  0  0  0  0  0  0
  145.3630   73.7630  218.7050 N   0  0  0  0  0  0  0  0  0  0  0  0
  146.2490   73.8560  218.1530 H   0  0  0  0  0  0  0  0  0  0  0  0
  144.8660   74.6850  218.6700 H   0  0  0  0  0  0  0  0  0  0  0  0
  144.5200   72.7340  218.0840 C   0  0  0  0  0  0  0  0  0  0  0  0
  144.3835   72.9693  217.0182 H   0  0  0  0  0  0  0  0  0  0  0  0
  145.0088   71.7543  218.1901 H   0  0  0  0  0  0  0  0  0  0  0  0
  143.1510   72.6910  218.7740 C   0  0  0  0  0  0  0  0  0  0  0  0
  142.5214   73.4989  218.3728 H   0  0  0  0  0  0  0  0  0  0  0  0
  142.6935   71.7098  218.5794 H   0  0  0  0  0  0  0  0  0  0  0  0
  141.4670   72.1250  221.7000 N   0  0  0  0  0  0  0  0  0  0  0  0
  141.7970   71.1410  221.6140 H   0  0  0  0  0  0  0  0  0  0  0  0
  139.4130   70.0610  222.4490 C   0  0  0  0  0  0  0  0  0  0  0  0
  140.3547   69.7277  221.9884 H   0  0  0  0  0  0  0  0  0  0  0  0
  138.6274   70.2363  221.6993 H   0  0  0  0  0  0  0  0  0  0  0  0
  138.9090   68.9520  223.3920 C   0  0  0  0  0  0  0  0  0  0  0  0
  139.1289   67.9725  222.9424 H   0  0  0  0  0  0  0  0  0  0  0  0
  137.8258   69.0825  223.5324 H   0  0  0  0  0  0  0  0  0  0  0  0
  1  2  1  0
  2  3  2  0
  3  4  1  0
  3  5  1  0
  5  6  1  0
  5  7  2  0
  7  8  1  0
  8  9  2  0
  9 10  1  0
  8 11  1  0
 11 12  1  0
 11 13  1  0
 11 14  1  0
 14 15  1  0
 15 16  2  0
 16 17  1  0
 17 18  2  0
 18 19  1  0
 18 20  1  0
 20 21  1  0
 20 22  1  0
 20 23  1  0
 23 24  1  0
 23 25  1  0
 23 26  1  0
 26 27  1  0
 26 28  1  0
 26 29  1  0
 29 30  1  0
 29 31  1  0
 29 32  1  0
 32 33  1  0
 32 34  1  0
 32 35  1  0
 35 36  1  0
 36 37  1  0
 36 38  1  0
 36 39  1  0
 39 40  1  0
 39 41  1  0
 39 42  1  0
 42 43  1  0
 42 44  1  0
 42 45  1  0
 45 46  1  0
 45 47  1  0
 17 48  1  0
 48 49  2  0
 49 50  1  0
 50 51  1  0
 51 52  1  0
 51 53  1  0
 51 54  1  0
 54 55  1  0
 54 56  1  0
 54 57  1  0
 57 58  1  0
 57 59  1  0
 57 60  1  0
 60 61  1  0
 60 62  1  0
 60 63  1  0
 63 64  1  0
 63 65  1  0
 49 66  1  0
 66 67  1  0
 14 68  1  0
 68 69  1  0
 68 70  1  0
 68 71  1  0
 71 72  1  0
 71 73  1  0
  9  2  1  0
 66 15  1  0
 71  7  1  0
 45 35  1  0
 63 50  1  0
M  CHG  2  18   1  57   1
M  END
>  <UniqueID>  (64) 
483

>  <SMILES>  (64) 
c1ccc2c(c1)CCN(c1n/c(=[NH+]\CCCCCN3CCCC3)nc(N3CC[NH2+]CC3)[nH]1)C2

>  <Energy>  (64) 
82.96491159646912

>  <Genealogy>  (64) 
c1ccc2c(c1)CCN(c1nc([NH2+]CCCCCN3CCCC3)nc(N3CC[NH2+]CC3)n1)C2 (protonated)
c1ccc2c(c1)CCN(c1nc(=[NH+]CCCCCN3CCCC3)nc(N3CC[NH2+]CC3)[nH]1)C2 (tautomer)
c1ccc2c(c1)CCN(c1n/c(=[NH+]\CCCCCN3CCCC3)nc(N3CC[NH2+]CC3)[nH]1)C2 (cis-trans isomerization)
c1ccc2c(c1)CCN(c1n/c(=[NH+]\CCCCCN3CCCC3)nc(N3CC[NH2+]CC3)[nH]1)C2 (3D coordinates assigned)
c1ccc2c(c1)CCN(c1n/c(=[NH+]\CCCCCN3CCCC3)nc(N3CC[NH2+]CC3)[nH]1)C2 (nonaromatic ring conformer: 82.96491159646912 kcal/mol)

>  <smiles>  (64) 
c1ccc2c(c1)CCN(c1nc(NCCCCCN3CCCC3)nc(N3CCNCC3)n1)C2

>  <score_type>  (64) 
oracle

>  <origin>  (64) 
autodockgpu

>  <m_score__min__energy>  (64) 
-9.7300000000000004

>  <m_primary>  (64) 
energy

>  <meeko>  (64) 
{"free_energy": -7.55, "intermolecular_energy": -10.23, "internal_energy": -1.46, "cluster_size": 4, "cluster_id": 5, "rank_in_cluster": 2}

>  <energy>  (64) 
-8.35

>  <cluster_rmsd>  (64) 
0.0

>  <rmsd>  (64) 
270.54

>  <cluster>  (64) 
3

$$$$
MTUVCRSRZGPGQU-NMOKVYIGNA-P
     RDKit          3D

 73 77  0  0  0  0  0  0  0  0999 V2000
  143.6813   80.7468  223.0887 H   0  0  0  0  0  0  0  0  0  0  0  0
  142.7070   80.2390  223.0350 C   0  0  0  0  0  0  0  0  0  0  0  0
  141.6730   80.6200  223.8970 C   0  0  0  0  0  0  0  0  0  0  0  0
  141.8369   81.4257  224.6278 H   0  0  0  0  0  0  0  0  0  0  0  0
  140.4310   79.9790  223.8320 C   0  0  0  0  0  0  0  0  0  0  0  0
  139.6154   80.2895  224.5016 H   0  0  0  0  0  0  0  0  0  0  0  0
  140.2270   78.9400  222.9120 C   0  0  0  0  0  0  0  0  0  0  0  0
  141.2650   78.5610  222.0450 C   0  0  0  0  0  0  0  0  0  0  0  0
  142.5050   79.2150  222.1060 C   0  0  0  0  0  0  0  0  0  0  0  0
  143.3166   78.9221  221.4237 H   0  0  0  0  0  0  0  0  0  0  0  0
  140.9970   77.4710  221.0510 C   0  0  0  0  0  0  0  0  0  0  0  0
  141.9515   77.0537  220.6978 H   0  0  0  0  0  0  0  0  0  0  0  0
  140.4388   77.8820  220.1968 H   0  0  0  0  0  0  0  0  0  0  0  0
  140.2030   76.4080  221.6920 N   0  0  0  0  0  0  0  0  0  0  0  0
  140.6360   75.0360  221.5950 C   0  0  0  0  0  0  0  0  0  0  0  0
  139.8330   74.0460  222.0600 N   0  0  0  0  0  0  0  0  0  0  0  0
  140.2190   72.7470  221.9970 C   0  0  0  0  0  0  0  0  0  0  0  0
  139.4480   71.7980  222.4500 N   0  0  0  0  0  0  0  0  0  0  0  0
  138.7980   71.3140  221.7880 H   0  0  0  0  0  0  0  0  0  0  0  0
  139.3720   71.4210  223.8660 C   0  0  0  0  0  0  0  0  0  0  0  0
  140.1319   70.6534  224.0741 H   0  0  0  0  0  0  0  0  0  0  0  0
  139.5505   72.3193  224.4753 H   0  0  0  0  0  0  0  0  0  0  0  0
  137.9860   70.8620  224.2190 C   0  0  0  0  0  0  0  0  0  0  0  0
  137.5143   71.5153  224.9678 H   0  0  0  0  0  0  0  0  0  0  0  0
  137.3782   70.8258  223.3029 H   0  0  0  0  0  0  0  0  0  0  0  0
  138.0970   69.4390  224.7910 C   0  0  0  0  0  0  0  0  0  0  0  0
  137.0897   69.0871  225.0583 H   0  0  0  0  0  0  0  0  0  0  0  0
  138.5566   68.8042  224.0191 H   0  0  0  0  0  0  0  0  0  0  0  0
  138.9890   69.3730  226.0400 C   0  0  0  0  0  0  0  0  0  0  0  0
  139.0760   70.3848  226.4628 H   0  0  0  0  0  0  0  0  0  0  0  0
  138.5172   68.6731  226.7454 H   0  0  0  0  0  0  0  0  0  0  0  0
  140.4000   68.8440  225.7410 C   0  0  0  0  0  0  0  0  0  0  0  0
  140.4245   67.7580  225.9144 H   0  0  0  0  0  0  0  0  0  0  0  0
  140.6496   69.0645  224.6926 H   0  0  0  0  0  0  0  0  0  0  0  0
  141.3930   69.5010  226.6200 N   0  0  0  0  0  0  0  0  0  0  0  0
  140.8350   69.7840  227.9530 C   0  0  0  0  0  0  0  0  0  0  0  0
  140.0183   69.0803  228.1715 H   0  0  0  0  0  0  0  0  0  0  0  0
  141.6134   69.6702  228.7219 H   0  0  0  0  0  0  0  0  0  0  0  0
  140.3000   71.2110  227.9540 C   0  0  0  0  0  0  0  0  0  0  0  0
  139.2000   71.2086  227.9503 H   0  0  0  0  0  0  0  0  0  0  0  0
  140.6175   71.7640  228.8503 H   0  0  0  0  0  0  0  0  0  0  0  0
  140.8320   71.8470  226.6850 C   0  0  0  0  0  0  0  0  0  0  0  0
  140.0101   72.0597  225.9855 H   0  0  0  0  0  0  0  0  0  0  0  0
  141.3339   72.8056  226.8829 H   0  0  0  0  0  0  0  0  0  0  0  0
  141.7810   70.8180  226.0960 C   0  0  0  0  0  0  0  0  0  0  0  0
  141.7040   70.8222  224.9987 H   0  0  0  0  0  0  0  0  0  0  0  0
  142.8205   71.0509  226.3704 H   0  0  0  0  0  0  0  0  0  0  0  0
  141.4230   72.4390  221.4520 N   0  0  0  0  0  0  0  0  0  0  0  0
  142.2400   73.4120  220.9660 C   0  0  0  0  0  0  0  0  0  0  0  0
  143.5200   73.0530  220.3920 N   0  0  0  0  0  0  0  0  0  0  0  0
  144.7450   73.0900  221.2050 C   0  0  0  0  0  0  0  0  0  0  0  0
  144.5423   73.6440  222.1334 H   0  0  0  0  0  0  0  0  0  0  0  0
  145.0458   72.0555  221.4270 H   0  0  0  0  0  0  0  0  0  0  0  0
  145.9000   73.7820  220.4480 C   0  0  0  0  0  0  0  0  0  0  0  0
  145.9402   74.8354  220.7623 H   0  0  0  0  0  0  0  0  0  0  0  0
  146.8221   73.2363  220.6969 H   0  0  0  0  0  0  0  0  0  0  0  0
  145.7530   73.7380  218.9790 N   0  0  0  0  0  0  0  0  0  0  0  0
  146.7040   73.7720  218.5400 H   0  0  0  0  0  0  0  0  0  0  0  0
  145.2220   74.5830  218.6560 H   0  0  0  0  0  0  0  0  0  0  0  0
  145.0600   72.5270  218.5220 C   0  0  0  0  0  0  0  0  0  0  0  0
  145.0685   72.4952  217.4225 H   0  0  0  0  0  0  0  0  0  0  0  0
  145.5750   71.6422  218.9243 H   0  0  0  0  0  0  0  0  0  0  0  0
  143.6090   72.5350  219.0190 C   0  0  0  0  0  0  0  0  0  0  0  0
  143.0060   73.1721  218.3554 H   0  0  0  0  0  0  0  0  0  0  0  0
  143.2327   71.5014  219.0117 H   0  0  0  0  0  0  0  0  0  0  0  0
  141.8390   74.7160  221.0390 N   0  0  0  0  0  0  0  0  0  0  0  0
  142.4520   75.4770  220.6780 H   0  0  0  0  0  0  0  0  0  0  0  0
  139.0460   76.7480  222.5460 C   0  0  0  0  0  0  0  0  0  0  0  0
  139.1759   76.2587  223.5226 H   0  0  0  0  0  0  0  0  0  0  0  0
  138.1413   76.3982  222.0273 H   0  0  0  0  0  0  0  0  0  0  0  0
  138.8880   78.2640  222.7740 C   0  0  0  0  0  0  0  0  0  0  0  0
  138.3069   78.4293  223.6932 H   0  0  0  0  0  0  0  0  0  0  0  0
  138.3706   78.6936  221.9035 H   0  0  0  0  0  0  0  0  0  0  0  0
  1  2  1  0
  2  3  2  0
  3  4  1  0
  3  5  1  0
  5  6  1  0
  5  7  2  0
  7  8  1  0
  8  9  2  0
  9 10  1  0
  8 11  1  0
 11 12  1  0
 11 13  1  0
 11 14  1  0
 14 15  1  0
 15 16  2  0
 16 17  1  0
 17 18  2  0
 18 19  1  0
 18 20  1  0
 20 21  1  0
 20 22  1  0
 20 23  1  0
 23 24  1  0
 23 25  1  0
 23 26  1  0
 26 27  1  0
 26 28  1  0
 26 29  1  0
 29 30  1  0
 29 31  1  0
 29 32  1  0
 32 33  1  0
 32 34  1  0
 32 35  1  0
 35 36  1  0
 36 37  1  0
 36 38  1  0
 36 39  1  0
 39 40  1  0
 39 41  1  0
 39 42  1  0
 42 43  1  0
 42 44  1  0
 42 45  1  0
 45 46  1  0
 45 47  1  0
 17 48  1  0
 48 49  2  0
 49 50  1  0
 50 51  1  0
 51 52  1  0
 51 53  1  0
 51 54  1  0
 54 55  1  0
 54 56  1  0
 54 57  1  0
 57 58  1  0
 57 59  1  0
 57 60  1  0
 60 61  1  0
 60 62  1  0
 60 63  1  0
 63 64  1  0
 63 65  1  0
 49 66  1  0
 66 67  1  0
 14 68  1  0
 68 69  1  0
 68 70  1  0
 68 71  1  0
 71 72  1  0
 71 73  1  0
  9  2  1  0
 66 15  1  0
 71  7  1  0
 45 35  1  0
 63 50  1  0
M  CHG  2  18   1  57   1
M  END
>  <UniqueID>  (65) 
483

>  <SMILES>  (65) 
c1ccc2c(c1)CCN(c1n/c(=[NH+]\CCCCCN3CCCC3)nc(N3CC[NH2+]CC3)[nH]1)C2

>  <Energy>  (65) 
82.96491159646912

>  <Genealogy>  (65) 
c1ccc2c(c1)CCN(c1nc([NH2+]CCCCCN3CCCC3)nc(N3CC[NH2+]CC3)n1)C2 (protonated)
c1ccc2c(c1)CCN(c1nc(=[NH+]CCCCCN3CCCC3)nc(N3CC[NH2+]CC3)[nH]1)C2 (tautomer)
c1ccc2c(c1)CCN(c1n/c(=[NH+]\CCCCCN3CCCC3)nc(N3CC[NH2+]CC3)[nH]1)C2 (cis-trans isomerization)
c1ccc2c(c1)CCN(c1n/c(=[NH+]\CCCCCN3CCCC3)nc(N3CC[NH2+]CC3)[nH]1)C2 (3D coordinates assigned)
c1ccc2c(c1)CCN(c1n/c(=[NH+]\CCCCCN3CCCC3)nc(N3CC[NH2+]CC3)[nH]1)C2 (nonaromatic ring conformer: 82.96491159646912 kcal/mol)

>  <smiles>  (65) 
c1ccc2c(c1)CCN(c1nc(NCCCCCN3CCCC3)nc(N3CCNCC3)n1)C2

>  <score_type>  (65) 
oracle

>  <origin>  (65) 
autodockgpu

>  <m_score__min__energy>  (65) 
-9.7300000000000004

>  <m_primary>  (65) 
energy

>  <meeko>  (65) 
{"free_energy": -8.74, "intermolecular_energy": -11.42, "internal_energy": -0.34, "cluster_size": 2, "cluster_id": 1, "rank_in_cluster": 2}

>  <energy>  (65) 
-8.25

>  <cluster_rmsd>  (65) 
0.9

>  <rmsd>  (65) 
270.89

>  <cluster>  (65) 
3

$$$$
MTUVCRSRZGPGQU-NMOKVYIGNA-P
     RDKit          3D

 73 77  0  0  0  0  0  0  0  0999 V2000
  138.5584   73.3697  220.5151 H   0  0  0  0  0  0  0  0  0  0  0  0
  139.5860   73.7020  220.3060 C   0  0  0  0  0  0  0  0  0  0  0  0
  140.6650   73.0660  220.9280 C   0  0  0  0  0  0  0  0  0  0  0  0
  140.4843   72.2354  221.6262 H   0  0  0  0  0  0  0  0  0  0  0  0
  141.9740   73.4840  220.6640 C   0  0  0  0  0  0  0  0  0  0  0  0
  142.8218   72.9731  221.1438 H   0  0  0  0  0  0  0  0  0  0  0  0
  142.2050   74.5540  219.7880 C   0  0  0  0  0  0  0  0  0  0  0  0
  141.1200   75.1890  219.1620 C   0  0  0  0  0  0  0  0  0  0  0  0
  139.8100   74.7580  219.4200 C   0  0  0  0  0  0  0  0  0  0  0  0
  138.9604   75.2512  218.9250 H   0  0  0  0  0  0  0  0  0  0  0  0
  141.4090   76.3050  218.2030 C   0  0  0  0  0  0  0  0  0  0  0  0
  140.5036   76.9145  218.0659 H   0  0  0  0  0  0  0  0  0  0  0  0
  141.7184   75.8855  217.2343 H   0  0  0  0  0  0  0  0  0  0  0  0
  142.4910   77.1470  218.7420 N   0  0  0  0  0  0  0  0  0  0  0  0
  142.3150   78.5760  218.8140 C   0  0  0  0  0  0  0  0  0  0  0  0
  141.7690   79.1280  219.9270 N   0  0  0  0  0  0  0  0  0  0  0  0
  141.5770   80.4680  220.0190 C   0  0  0  0  0  0  0  0  0  0  0  0
  141.0460   80.9950  221.0880 N   0  0  0  0  0  0  0  0  0  0  0  0
  140.0680   80.7300  221.3510 H   0  0  0  0  0  0  0  0  0  0  0  0
  141.7120   82.0150  221.9060 C   0  0  0  0  0  0  0  0  0  0  0  0
  142.7234   82.1886  221.5097 H   0  0  0  0  0  0  0  0  0  0  0  0
  141.1156   82.9384  221.8650 H   0  0  0  0  0  0  0  0  0  0  0  0
  141.8180   81.5690  223.3720 C   0  0  0  0  0  0  0  0  0  0  0  0
  142.3101   82.3616  223.9548 H   0  0  0  0  0  0  0  0  0  0  0  0
  140.8044   81.3821  223.7564 H   0  0  0  0  0  0  0  0  0  0  0  0
  142.6360   80.2730  223.4940 C   0  0  0  0  0  0  0  0  0  0  0  0
  143.0637   80.0322  222.5096 H   0  0  0  0  0  0  0  0  0  0  0  0
  143.4204   80.4434  224.2461 H   0  0  0  0  0  0  0  0  0  0  0  0
  141.7880   79.0820  223.9670 C   0  0  0  0  0  0  0  0  0  0  0  0
  142.1806   78.1653  223.5028 H   0  0  0  0  0  0  0  0  0  0  0  0
  141.8533   79.0456  225.0645 H   0  0  0  0  0  0  0  0  0  0  0  0
  140.3030   79.2210  223.5980 C   0  0  0  0  0  0  0  0  0  0  0  0
  139.6973   78.6339  224.3040 H   0  0  0  0  0  0  0  0  0  0  0  0
  140.0197   80.2826  223.6499 H   0  0  0  0  0  0  0  0  0  0  0  0
  140.0660   78.7270  222.2240 N   0  0  0  0  0  0  0  0  0  0  0  0
  138.6400   78.4500  221.9840 C   0  0  0  0  0  0  0  0  0  0  0  0
  138.0232   79.0653  222.6555 H   0  0  0  0  0  0  0  0  0  0  0  0
  138.3765   78.6915  220.9437 H   0  0  0  0  0  0  0  0  0  0  0  0
  138.3870   76.9720  222.2610 C   0  0  0  0  0  0  0  0  0  0  0  0
  137.8267   76.8474  223.1994 H   0  0  0  0  0  0  0  0  0  0  0  0
  137.7883   76.5049  221.4651 H   0  0  0  0  0  0  0  0  0  0  0  0
  139.7600   76.3390  222.3760 C   0  0  0  0  0  0  0  0  0  0  0  0
  139.9438   75.9997  223.4061 H   0  0  0  0  0  0  0  0  0  0  0  0
  139.8619   75.4551  221.7293 H   0  0  0  0  0  0  0  0  0  0  0  0
  140.7350   77.4380  221.9950 C   0  0  0  0  0  0  0  0  0  0  0  0
  141.6393   77.3692  222.6176 H   0  0  0  0  0  0  0  0  0  0  0  0
  141.0334   77.3403  220.9408 H   0  0  0  0  0  0  0  0  0  0  0  0
  141.9460   81.2630  218.9840 N   0  0  0  0  0  0  0  0  0  0  0  0
  142.5090   80.7360  217.8630 C   0  0  0  0  0  0  0  0  0  0  0  0
  142.8910   81.6100  216.7740 N   0  0  0  0  0  0  0  0  0  0  0  0
  142.0930   81.6650  215.5390 C   0  0  0  0  0  0  0  0  0  0  0  0
  141.4024   80.8090  215.5200 H   0  0  0  0  0  0  0  0  0  0  0  0
  141.5366   82.6138  215.5268 H   0  0  0  0  0  0  0  0  0  0  0  0
  142.9950   81.6120  214.2860 C   0  0  0  0  0  0  0  0  0  0  0  0
  143.0397   80.5711  213.9332 H   0  0  0  0  0  0  0  0  0  0  0  0
  142.5513   82.2874  213.5397 H   0  0  0  0  0  0  0  0  0  0  0  0
  144.3740   82.0820  214.5310 N   0  0  0  0  0  0  0  0  0  0  0  0
  144.7680   82.4630  213.6380 H   0  0  0  0  0  0  0  0  0  0  0  0
  144.9720   81.2720  214.8230 H   0  0  0  0  0  0  0  0  0  0  0  0
  144.4350   83.1240  215.5630 C   0  0  0  0  0  0  0  0  0  0  0  0
  145.4634   83.5081  215.6325 H   0  0  0  0  0  0  0  0  0  0  0  0
  143.7493   83.9405  215.2927 H   0  0  0  0  0  0  0  0  0  0  0  0
  144.0170   82.5440  216.9190 C   0  0  0  0  0  0  0  0  0  0  0  0
  144.8717   82.0098  217.3595 H   0  0  0  0  0  0  0  0  0  0  0  0
  143.7003   83.3727  217.5693 H   0  0  0  0  0  0  0  0  0  0  0  0
  142.6940   79.3840  217.7830 N   0  0  0  0  0  0  0  0  0  0  0  0
  143.1170   78.9600  216.9320 H   0  0  0  0  0  0  0  0  0  0  0  0
  143.6950   76.5300  219.3360 C   0  0  0  0  0  0  0  0  0  0  0  0
  143.8351   76.9388  220.3475 H   0  0  0  0  0  0  0  0  0  0  0  0
  144.5432   76.7643  218.6759 H   0  0  0  0  0  0  0  0  0  0  0  0
  143.6010   74.9960  219.4360 C   0  0  0  0  0  0  0  0  0  0  0  0
  144.2947   74.6447  220.2140 H   0  0  0  0  0  0  0  0  0  0  0  0
  143.8638   74.5680  218.4574 H   0  0  0  0  0  0  0  0  0  0  0  0
  1  2  1  0
  2  3  2  0
  3  4  1  0
  3  5  1  0
  5  6  1  0
  5  7  2  0
  7  8  1  0
  8  9  2  0
  9 10  1  0
  8 11  1  0
 11 12  1  0
 11 13  1  0
 11 14  1  0
 14 15  1  0
 15 16  2  0
 16 17  1  0
 17 18  2  0
 18 19  1  0
 18 20  1  0
 20 21  1  0
 20 22  1  0
 20 23  1  0
 23 24  1  0
 23 25  1  0
 23 26  1  0
 26 27  1  0
 26 28  1  0
 26 29  1  0
 29 30  1  0
 29 31  1  0
 29 32  1  0
 32 33  1  0
 32 34  1  0
 32 35  1  0
 35 36  1  0
 36 37  1  0
 36 38  1  0
 36 39  1  0
 39 40  1  0
 39 41  1  0
 39 42  1  0
 42 43  1  0
 42 44  1  0
 42 45  1  0
 45 46  1  0
 45 47  1  0
 17 48  1  0
 48 49  2  0
 49 50  1  0
 50 51  1  0
 51 52  1  0
 51 53  1  0
 51 54  1  0
 54 55  1  0
 54 56  1  0
 54 57  1  0
 57 58  1  0
 57 59  1  0
 57 60  1  0
 60 61  1  0
 60 62  1  0
 60 63  1  0
 63 64  1  0
 63 65  1  0
 49 66  1  0
 66 67  1  0
 14 68  1  0
 68 69  1  0
 68 70  1  0
 68 71  1  0
 71 72  1  0
 71 73  1  0
  9  2  1  0
 66 15  1  0
 71  7  1  0
 45 35  1  0
 63 50  1  0
M  CHG  2  18   1  57   1
M  END
>  <UniqueID>  (66) 
483

>  <SMILES>  (66) 
c1ccc2c(c1)CCN(c1n/c(=[NH+]\CCCCCN3CCCC3)nc(N3CC[NH2+]CC3)[nH]1)C2

>  <Energy>  (66) 
82.96491159646912

>  <Genealogy>  (66) 
c1ccc2c(c1)CCN(c1nc([NH2+]CCCCCN3CCCC3)nc(N3CC[NH2+]CC3)n1)C2 (protonated)
c1ccc2c(c1)CCN(c1nc(=[NH+]CCCCCN3CCCC3)nc(N3CC[NH2+]CC3)[nH]1)C2 (tautomer)
c1ccc2c(c1)CCN(c1n/c(=[NH+]\CCCCCN3CCCC3)nc(N3CC[NH2+]CC3)[nH]1)C2 (cis-trans isomerization)
c1ccc2c(c1)CCN(c1n/c(=[NH+]\CCCCCN3CCCC3)nc(N3CC[NH2+]CC3)[nH]1)C2 (3D coordinates assigned)
c1ccc2c(c1)CCN(c1n/c(=[NH+]\CCCCCN3CCCC3)nc(N3CC[NH2+]CC3)[nH]1)C2 (nonaromatic ring conformer: 82.96491159646912 kcal/mol)

>  <smiles>  (66) 
c1ccc2c(c1)CCN(c1nc(NCCCCCN3CCCC3)nc(N3CCNCC3)n1)C2

>  <score_type>  (66) 
oracle

>  <origin>  (66) 
autodockgpu

>  <m_score__min__energy>  (66) 
-9.7300000000000004

>  <m_primary>  (66) 
energy

>  <meeko>  (66) 
{"free_energy": -7.52, "intermolecular_energy": -10.21, "internal_energy": -2.45, "cluster_size": 8, "cluster_id": 3, "rank_in_cluster": 8}

>  <energy>  (66) 
-8.22

>  <cluster_rmsd>  (66) 
1.43

>  <rmsd>  (66) 
270.96

>  <cluster>  (66) 
3

$$$$
MTUVCRSRZGPGQU-NMOKVYIGNA-P
     RDKit          3D

 73 77  0  0  0  0  0  0  0  0999 V2000
  145.7735   73.4217  221.2294 H   0  0  0  0  0  0  0  0  0  0  0  0
  145.2200   73.7520  220.3380 C   0  0  0  0  0  0  0  0  0  0  0  0
  145.5640   73.2520  219.0780 C   0  0  0  0  0  0  0  0  0  0  0  0
  146.3883   72.5302  218.9809 H   0  0  0  0  0  0  0  0  0  0  0  0
  144.8630   73.6670  217.9410 C   0  0  0  0  0  0  0  0  0  0  0  0
  145.1268   73.2616  216.9530 H   0  0  0  0  0  0  0  0  0  0  0  0
  143.8230   74.6010  218.0620 C   0  0  0  0  0  0  0  0  0  0  0  0
  143.4760   75.0990  219.3280 C   0  0  0  0  0  0  0  0  0  0  0  0
  144.1750   74.6700  220.4670 C   0  0  0  0  0  0  0  0  0  0  0  0
  143.9004   75.0561  221.4597 H   0  0  0  0  0  0  0  0  0  0  0  0
  142.3350   76.0670  219.4220 C   0  0  0  0  0  0  0  0  0  0  0  0
  142.3996   76.6193  220.3711 H   0  0  0  0  0  0  0  0  0  0  0  0
  141.3829   75.5175  219.3825 H   0  0  0  0  0  0  0  0  0  0  0  0
  142.4030   77.0150  218.2960 N   0  0  0  0  0  0  0  0  0  0  0  0
  142.3340   78.4330  218.5510 C   0  0  0  0  0  0  0  0  0  0  0  0
  141.9240   78.8750  219.7660 N   0  0  0  0  0  0  0  0  0  0  0  0
  141.8340   80.2020  220.0310 C   0  0  0  0  0  0  0  0  0  0  0  0
  141.4330   80.6250  221.1990 N   0  0  0  0  0  0  0  0  0  0  0  0
  140.4190   80.8440  221.3370 H   0  0  0  0  0  0  0  0  0  0  0  0
  142.3410   80.8980  222.3190 C   0  0  0  0  0  0  0  0  0  0  0  0
  143.1723   81.5239  221.9624 H   0  0  0  0  0  0  0  0  0  0  0  0
  141.7753   81.4162  223.1073 H   0  0  0  0  0  0  0  0  0  0  0  0
  142.9090   79.5970  222.9040 C   0  0  0  0  0  0  0  0  0  0  0  0
  143.3117   78.9804  222.0869 H   0  0  0  0  0  0  0  0  0  0  0  0
  143.7035   79.8516  223.6209 H   0  0  0  0  0  0  0  0  0  0  0  0
  141.8170   78.8040  223.6420 C   0  0  0  0  0  0  0  0  0  0  0  0
  142.2978   78.1471  224.3818 H   0  0  0  0  0  0  0  0  0  0  0  0
  141.1440   79.5304  224.1211 H   0  0  0  0  0  0  0  0  0  0  0  0
  140.9710   77.9410  222.6940 C   0  0  0  0  0  0  0  0  0  0  0  0
  141.3065   78.1214  221.6621 H   0  0  0  0  0  0  0  0  0  0  0  0
  141.1090   76.8913  222.9924 H   0  0  0  0  0  0  0  0  0  0  0  0
  139.4680   78.2510  222.7820 C   0  0  0  0  0  0  0  0  0  0  0  0
  138.9318   77.6672  222.0193 H   0  0  0  0  0  0  0  0  0  0  0  0
  139.1054   77.9830  223.7853 H   0  0  0  0  0  0  0  0  0  0  0  0
  139.2270   79.6930  222.5520 N   0  0  0  0  0  0  0  0  0  0  0  0
  139.1570   80.4410  223.8180 C   0  0  0  0  0  0  0  0  0  0  0  0
  139.7253   79.9101  224.5959 H   0  0  0  0  0  0  0  0  0  0  0  0
  139.5883   81.4448  223.6902 H   0  0  0  0  0  0  0  0  0  0  0  0
  137.6920   80.5460  224.2300 C   0  0  0  0  0  0  0  0  0  0  0  0
  137.4861   79.8888  225.0877 H   0  0  0  0  0  0  0  0  0  0  0  0
  137.4277   81.5684  224.5380 H   0  0  0  0  0  0  0  0  0  0  0  0
  136.8960   80.1010  223.0190 C   0  0  0  0  0  0  0  0  0  0  0  0
  136.3796   79.1516  223.2238 H   0  0  0  0  0  0  0  0  0  0  0  0
  136.1194   80.8304  222.7453 H   0  0  0  0  0  0  0  0  0  0  0  0
  137.9230   79.9220  221.9150 C   0  0  0  0  0  0  0  0  0  0  0  0
  137.6544   79.0578  221.2897 H   0  0  0  0  0  0  0  0  0  0  0  0
  137.9588   80.8146  221.2732 H   0  0  0  0  0  0  0  0  0  0  0  0
  142.1690   81.0950  219.0670 N   0  0  0  0  0  0  0  0  0  0  0  0
  142.5970   80.6780  217.8450 C   0  0  0  0  0  0  0  0  0  0  0  0
  142.9470   81.6550  216.8350 N   0  0  0  0  0  0  0  0  0  0  0  0
  142.1420   81.7900  215.6110 C   0  0  0  0  0  0  0  0  0  0  0  0
  141.4797   80.9166  215.5192 H   0  0  0  0  0  0  0  0  0  0  0  0
  141.5545   82.7173  215.6816 H   0  0  0  0  0  0  0  0  0  0  0  0
  143.0400   81.8750  214.3570 C   0  0  0  0  0  0  0  0  0  0  0  0
  143.1170   80.8705  213.9154 H   0  0  0  0  0  0  0  0  0  0  0  0
  142.5715   82.5974  213.6724 H   0  0  0  0  0  0  0  0  0  0  0  0
  144.4040   82.3670  214.6400 N   0  0  0  0  0  0  0  0  0  0  0  0
  144.7820   82.8370  213.7830 H   0  0  0  0  0  0  0  0  0  0  0  0
  145.0290   81.5550  214.8600 H   0  0  0  0  0  0  0  0  0  0  0  0
  144.4350   83.3180  215.7580 C   0  0  0  0  0  0  0  0  0  0  0  0
  145.4504   83.7288  215.8589 H   0  0  0  0  0  0  0  0  0  0  0  0
  143.7217   84.1317  215.5601 H   0  0  0  0  0  0  0  0  0  0  0  0
  144.0420   82.6090  217.0600 C   0  0  0  0  0  0  0  0  0  0  0  0
  144.9155   82.0670  217.4514 H   0  0  0  0  0  0  0  0  0  0  0  0
  143.7015   83.3670  217.7808 H   0  0  0  0  0  0  0  0  0  0  0  0
  142.6800   79.3380  217.5910 N   0  0  0  0  0  0  0  0  0  0  0  0
  143.0000   78.9970  216.6600 H   0  0  0  0  0  0  0  0  0  0  0  0
  142.6800   76.5340  216.9270 C   0  0  0  0  0  0  0  0  0  0  0  0
  143.5370   77.0947  216.5256 H   0  0  0  0  0  0  0  0  0  0  0  0
  141.7684   76.6938  216.3324 H   0  0  0  0  0  0  0  0  0  0  0  0
  143.0080   75.0300  216.8700 C   0  0  0  0  0  0  0  0  0  0  0  0
  143.5784   74.8224  215.9527 H   0  0  0  0  0  0  0  0  0  0  0  0
  142.0622   74.4683  216.8763 H   0  0  0  0  0  0  0  0  0  0  0  0
  1  2  1  0
  2  3  2  0
  3  4  1  0
  3  5  1  0
  5  6  1  0
  5  7  2  0
  7  8  1  0
  8  9  2  0
  9 10  1  0
  8 11  1  0
 11 12  1  0
 11 13  1  0
 11 14  1  0
 14 15  1  0
 15 16  2  0
 16 17  1  0
 17 18  2  0
 18 19  1  0
 18 20  1  0
 20 21  1  0
 20 22  1  0
 20 23  1  0
 23 24  1  0
 23 25  1  0
 23 26  1  0
 26 27  1  0
 26 28  1  0
 26 29  1  0
 29 30  1  0
 29 31  1  0
 29 32  1  0
 32 33  1  0
 32 34  1  0
 32 35  1  0
 35 36  1  0
 36 37  1  0
 36 38  1  0
 36 39  1  0
 39 40  1  0
 39 41  1  0
 39 42  1  0
 42 43  1  0
 42 44  1  0
 42 45  1  0
 45 46  1  0
 45 47  1  0
 17 48  1  0
 48 49  2  0
 49 50  1  0
 50 51  1  0
 51 52  1  0
 51 53  1  0
 51 54  1  0
 54 55  1  0
 54 56  1  0
 54 57  1  0
 57 58  1  0
 57 59  1  0
 57 60  1  0
 60 61  1  0
 60 62  1  0
 60 63  1  0
 63 64  1  0
 63 65  1  0
 49 66  1  0
 66 67  1  0
 14 68  1  0
 68 69  1  0
 68 70  1  0
 68 71  1  0
 71 72  1  0
 71 73  1  0
  9  2  1  0
 66 15  1  0
 71  7  1  0
 45 35  1  0
 63 50  1  0
M  CHG  2  18   1  57   1
M  END
>  <UniqueID>  (67) 
483

>  <SMILES>  (67) 
c1ccc2c(c1)CCN(c1n/c(=[NH+]\CCCCCN3CCCC3)nc(N3CC[NH2+]CC3)[nH]1)C2

>  <Energy>  (67) 
82.96491159646912

>  <Genealogy>  (67) 
c1ccc2c(c1)CCN(c1nc([NH2+]CCCCCN3CCCC3)nc(N3CC[NH2+]CC3)n1)C2 (protonated)
c1ccc2c(c1)CCN(c1nc(=[NH+]CCCCCN3CCCC3)nc(N3CC[NH2+]CC3)[nH]1)C2 (tautomer)
c1ccc2c(c1)CCN(c1n/c(=[NH+]\CCCCCN3CCCC3)nc(N3CC[NH2+]CC3)[nH]1)C2 (cis-trans isomerization)
c1ccc2c(c1)CCN(c1n/c(=[NH+]\CCCCCN3CCCC3)nc(N3CC[NH2+]CC3)[nH]1)C2 (3D coordinates assigned)
c1ccc2c(c1)CCN(c1n/c(=[NH+]\CCCCCN3CCCC3)nc(N3CC[NH2+]CC3)[nH]1)C2 (nonaromatic ring conformer: 82.96491159646912 kcal/mol)

>  <smiles>  (67) 
c1ccc2c(c1)CCN(c1nc(NCCCCCN3CCCC3)nc(N3CCNCC3)n1)C2

>  <score_type>  (67) 
oracle

>  <origin>  (67) 
autodockgpu

>  <m_score__min__energy>  (67) 
-9.7300000000000004

>  <m_primary>  (67) 
energy

>  <meeko>  (67) 
{"free_energy": -8.22, "intermolecular_energy": -10.9, "internal_energy": -1.71, "cluster_size": 8, "cluster_id": 3, "rank_in_cluster": 3}

>  <energy>  (67) 
-8.21

>  <cluster_rmsd>  (67) 
0.89

>  <rmsd>  (67) 
270.92

>  <cluster>  (67) 
3

$$$$
MTUVCRSRZGPGQU-NMOKVYIGNA-P
     RDKit          3D

 73 77  0  0  0  0  0  0  0  0999 V2000
  141.4549   69.6282  228.5740 H   0  0  0  0  0  0  0  0  0  0  0  0
  140.9900   69.4680  227.5900 C   0  0  0  0  0  0  0  0  0  0  0  0
  140.8680   68.1720  227.0780 C   0  0  0  0  0  0  0  0  0  0  0  0
  141.2385   67.3151  227.6598 H   0  0  0  0  0  0  0  0  0  0  0  0
  140.2760   67.9630  225.8280 C   0  0  0  0  0  0  0  0  0  0  0  0
  140.1689   66.9416  225.4340 H   0  0  0  0  0  0  0  0  0  0  0  0
  139.8190   69.0560  225.0770 C   0  0  0  0  0  0  0  0  0  0  0  0
  139.9390   70.3560  225.5930 C   0  0  0  0  0  0  0  0  0  0  0  0
  140.5220   70.5600  226.8530 C   0  0  0  0  0  0  0  0  0  0  0  0
  140.6107   71.5779  227.2604 H   0  0  0  0  0  0  0  0  0  0  0  0
  139.4060   71.4950  224.7780 C   0  0  0  0  0  0  0  0  0  0  0  0
  139.8620   72.4357  225.1201 H   0  0  0  0  0  0  0  0  0  0  0  0
  138.3140   71.5523  224.8977 H   0  0  0  0  0  0  0  0  0  0  0  0
  139.7340   71.2780  223.3580 N   0  0  0  0  0  0  0  0  0  0  0  0
  140.3690   72.3290  222.6030 C   0  0  0  0  0  0  0  0  0  0  0  0
  139.8770   73.5910  222.6680 N   0  0  0  0  0  0  0  0  0  0  0  0
  140.4430   74.5990  221.9580 C   0  0  0  0  0  0  0  0  0  0  0  0
  139.9640   75.8110  222.0180 N   0  0  0  0  0  0  0  0  0  0  0  0
  140.6190   76.6060  222.2000 H   0  0  0  0  0  0  0  0  0  0  0  0
  138.5320   76.1220  221.9320 C   0  0  0  0  0  0  0  0  0  0  0  0
  137.9660   75.1836  221.8373 H   0  0  0  0  0  0  0  0  0  0  0  0
  138.2372   76.6620  222.8438 H   0  0  0  0  0  0  0  0  0  0  0  0
  138.2300   77.0140  220.7190 C   0  0  0  0  0  0  0  0  0  0  0  0
  139.0950   77.0028  220.0396 H   0  0  0  0  0  0  0  0  0  0  0  0
  137.3363   76.6239  220.2100 H   0  0  0  0  0  0  0  0  0  0  0  0
  137.9530   78.4610  221.1570 C   0  0  0  0  0  0  0  0  0  0  0  0
  137.4408   78.9855  220.3369 H   0  0  0  0  0  0  0  0  0  0  0  0
  137.3316   78.4215  222.0638 H   0  0  0  0  0  0  0  0  0  0  0  0
  139.2380   79.2290  221.5060 C   0  0  0  0  0  0  0  0  0  0  0  0
  140.0423   78.8900  220.8365 H   0  0  0  0  0  0  0  0  0  0  0  0
  139.0260   80.3011  221.3811 H   0  0  0  0  0  0  0  0  0  0  0  0
  139.6870   79.0140  222.9600 C   0  0  0  0  0  0  0  0  0  0  0  0
  139.6164   79.9663  223.5061 H   0  0  0  0  0  0  0  0  0  0  0  0
  139.0351   78.2617  223.4281 H   0  0  0  0  0  0  0  0  0  0  0  0
  141.0850   78.5310  223.0000 N   0  0  0  0  0  0  0  0  0  0  0  0
  141.8010   79.0330  224.1840 C   0  0  0  0  0  0  0  0  0  0  0  0
  141.0826   79.2556  224.9867 H   0  0  0  0  0  0  0  0  0  0  0  0
  142.5114   78.2758  224.5473 H   0  0  0  0  0  0  0  0  0  0  0  0
  142.5440   80.3050  223.7890 C   0  0  0  0  0  0  0  0  0  0  0  0
  142.0525   81.1877  224.2240 H   0  0  0  0  0  0  0  0  0  0  0  0
  143.5811   80.3013  224.1556 H   0  0  0  0  0  0  0  0  0  0  0  0
  142.4840   80.3580  222.2760 C   0  0  0  0  0  0  0  0  0  0  0  0
  141.8620   81.2022  221.9436 H   0  0  0  0  0  0  0  0  0  0  0  0
  143.4786   80.5028  221.8290 H   0  0  0  0  0  0  0  0  0  0  0  0
  141.8590   79.0380  221.8580 C   0  0  0  0  0  0  0  0  0  0  0  0
  141.1953   79.1940  220.9948 H   0  0  0  0  0  0  0  0  0  0  0  0
  142.6374   78.3168  221.5683 H   0  0  0  0  0  0  0  0  0  0  0  0
  141.5220   74.3360  221.1800 N   0  0  0  0  0  0  0  0  0  0  0  0
  142.0450   73.0820  221.1080 C   0  0  0  0  0  0  0  0  0  0  0  0
  143.1960   72.8310  220.2670 N   0  0  0  0  0  0  0  0  0  0  0  0
  144.5100   72.5360  220.8620 C   0  0  0  0  0  0  0  0  0  0  0  0
  144.4853   72.7931  221.9313 H   0  0  0  0  0  0  0  0  0  0  0  0
  144.7215   71.4653  220.7247 H   0  0  0  0  0  0  0  0  0  0  0  0
  145.6300   73.3470  220.1750 C   0  0  0  0  0  0  0  0  0  0  0  0
  145.8237   74.2490  220.7740 H   0  0  0  0  0  0  0  0  0  0  0  0
  146.5104   72.6907  220.1105 H   0  0  0  0  0  0  0  0  0  0  0  0
  145.2980   73.7640  218.7960 N   0  0  0  0  0  0  0  0  0  0  0  0
  146.1850   73.8660  218.2480 H   0  0  0  0  0  0  0  0  0  0  0  0
  144.8260   74.7000  218.8190 H   0  0  0  0  0  0  0  0  0  0  0  0
  144.4260   72.7990  218.1160 C   0  0  0  0  0  0  0  0  0  0  0  0
  144.2949   73.1027  217.0669 H   0  0  0  0  0  0  0  0  0  0  0  0
  144.8873   71.8014  218.1608 H   0  0  0  0  0  0  0  0  0  0  0  0
  143.0570   72.7520  218.8060 C   0  0  0  0  0  0  0  0  0  0  0  0
  142.4498   73.6001  218.4568 H   0  0  0  0  0  0  0  0  0  0  0  0
  142.5717   71.7978  218.5531 H   0  0  0  0  0  0  0  0  0  0  0  0
  141.4610   72.0760  221.8270 N   0  0  0  0  0  0  0  0  0  0  0  0
  141.8420   71.1080  221.7820 H   0  0  0  0  0  0  0  0  0  0  0  0
  139.5460   69.9490  222.7410 C   0  0  0  0  0  0  0  0  0  0  0  0
  140.4937   69.6428  222.2739 H   0  0  0  0  0  0  0  0  0  0  0  0
  138.7343   70.0416  222.0044 H   0  0  0  0  0  0  0  0  0  0  0  0
  139.1260   68.8660  223.7530 C   0  0  0  0  0  0  0  0  0  0  0  0
  139.3892   67.8771  223.3495 H   0  0  0  0  0  0  0  0  0  0  0  0
  138.0408   68.9440  223.9147 H   0  0  0  0  0  0  0  0  0  0  0  0
  1  2  1  0
  2  3  2  0
  3  4  1  0
  3  5  1  0
  5  6  1  0
  5  7  2  0
  7  8  1  0
  8  9  2  0
  9 10  1  0
  8 11  1  0
 11 12  1  0
 11 13  1  0
 11 14  1  0
 14 15  1  0
 15 16  2  0
 16 17  1  0
 17 18  2  0
 18 19  1  0
 18 20  1  0
 20 21  1  0
 20 22  1  0
 20 23  1  0
 23 24  1  0
 23 25  1  0
 23 26  1  0
 26 27  1  0
 26 28  1  0
 26 29  1  0
 29 30  1  0
 29 31  1  0
 29 32  1  0
 32 33  1  0
 32 34  1  0
 32 35  1  0
 35 36  1  0
 36 37  1  0
 36 38  1  0
 36 39  1  0
 39 40  1  0
 39 41  1  0
 39 42  1  0
 42 43  1  0
 42 44  1  0
 42 45  1  0
 45 46  1  0
 45 47  1  0
 17 48  1  0
 48 49  2  0
 49 50  1  0
 50 51  1  0
 51 52  1  0
 51 53  1  0
 51 54  1  0
 54 55  1  0
 54 56  1  0
 54 57  1  0
 57 58  1  0
 57 59  1  0
 57 60  1  0
 60 61  1  0
 60 62  1  0
 60 63  1  0
 63 64  1  0
 63 65  1  0
 49 66  1  0
 66 67  1  0
 14 68  1  0
 68 69  1  0
 68 70  1  0
 68 71  1  0
 71 72  1  0
 71 73  1  0
  9  2  1  0
 66 15  1  0
 71  7  1  0
 45 35  1  0
 63 50  1  0
M  CHG  2  18   1  57   1
M  END
>  <UniqueID>  (68) 
483

>  <SMILES>  (68) 
c1ccc2c(c1)CCN(c1n/c(=[NH+]\CCCCCN3CCCC3)nc(N3CC[NH2+]CC3)[nH]1)C2

>  <Energy>  (68) 
82.96491159646912

>  <Genealogy>  (68) 
c1ccc2c(c1)CCN(c1nc([NH2+]CCCCCN3CCCC3)nc(N3CC[NH2+]CC3)n1)C2 (protonated)
c1ccc2c(c1)CCN(c1nc(=[NH+]CCCCCN3CCCC3)nc(N3CC[NH2+]CC3)[nH]1)C2 (tautomer)
c1ccc2c(c1)CCN(c1n/c(=[NH+]\CCCCCN3CCCC3)nc(N3CC[NH2+]CC3)[nH]1)C2 (cis-trans isomerization)
c1ccc2c(c1)CCN(c1n/c(=[NH+]\CCCCCN3CCCC3)nc(N3CC[NH2+]CC3)[nH]1)C2 (3D coordinates assigned)
c1ccc2c(c1)CCN(c1n/c(=[NH+]\CCCCCN3CCCC3)nc(N3CC[NH2+]CC3)[nH]1)C2 (nonaromatic ring conformer: 82.96491159646912 kcal/mol)

>  <smiles>  (68) 
c1ccc2c(c1)CCN(c1nc(NCCCCCN3CCCC3)nc(N3CCNCC3)n1)C2

>  <score_type>  (68) 
oracle

>  <origin>  (68) 
autodockgpu

>  <m_score__min__energy>  (68) 
-9.7300000000000004

>  <m_primary>  (68) 
energy

>  <meeko>  (68) 
{"free_energy": -7.75, "intermolecular_energy": -10.43, "internal_energy": -1.32, "cluster_size": 4, "cluster_id": 5, "rank_in_cluster": 1}

>  <energy>  (68) 
-7.98

>  <cluster_rmsd>  (68) 
1.65

>  <rmsd>  (68) 
270.97

>  <cluster>  (68) 
3

$$$$
MTUVCRSRZGPGQU-NMOKVYIGNA-P
     RDKit          3D

 73 77  0  0  0  0  0  0  0  0999 V2000
  138.6933   81.8001  224.9986 H   0  0  0  0  0  0  0  0  0  0  0  0
  138.3380   81.2610  224.1080 C   0  0  0  0  0  0  0  0  0  0  0  0
  137.3980   80.2330  224.2430 C   0  0  0  0  0  0  0  0  0  0  0  0
  137.0168   79.9653  225.2395 H   0  0  0  0  0  0  0  0  0  0  0  0
  136.9420   79.5450  223.1130 C   0  0  0  0  0  0  0  0  0  0  0  0
  136.1932   78.7464  223.2201 H   0  0  0  0  0  0  0  0  0  0  0  0
  137.4400   79.8740  221.8440 C   0  0  0  0  0  0  0  0  0  0  0  0
  138.3800   80.9080  221.7100 C   0  0  0  0  0  0  0  0  0  0  0  0
  138.8260   81.6040  222.8450 C   0  0  0  0  0  0  0  0  0  0  0  0
  139.5584   82.4179  222.7397 H   0  0  0  0  0  0  0  0  0  0  0  0
  138.8620   81.2560  220.3330 C   0  0  0  0  0  0  0  0  0  0  0  0
  139.8097   81.8098  220.4050 H   0  0  0  0  0  0  0  0  0  0  0  0
  138.1107   81.8807  219.8278 H   0  0  0  0  0  0  0  0  0  0  0  0
  139.0730   80.0190  219.5610 N   0  0  0  0  0  0  0  0  0  0  0  0
  140.3240   79.8110  218.8750 C   0  0  0  0  0  0  0  0  0  0  0  0
  140.9760   78.6300  219.0140 N   0  0  0  0  0  0  0  0  0  0  0  0
  142.1620   78.4090  218.3940 C   0  0  0  0  0  0  0  0  0  0  0  0
  142.7900   77.2740  218.5350 N   0  0  0  0  0  0  0  0  0  0  0  0
  143.2680   76.8540  217.7050 H   0  0  0  0  0  0  0  0  0  0  0  0
  142.7930   76.4980  219.7810 C   0  0  0  0  0  0  0  0  0  0  0  0
  143.4971   75.6590  219.6794 H   0  0  0  0  0  0  0  0  0  0  0  0
  143.0965   77.1619  220.6038 H   0  0  0  0  0  0  0  0  0  0  0  0
  141.3960   75.9440  220.0940 C   0  0  0  0  0  0  0  0  0  0  0  0
  140.6436   76.5391  219.5556 H   0  0  0  0  0  0  0  0  0  0  0  0
  141.3551   74.8924  219.7738 H   0  0  0  0  0  0  0  0  0  0  0  0
  141.1050   76.0100  221.6020 C   0  0  0  0  0  0  0  0  0  0  0  0
  140.9850   74.9850  221.9828 H   0  0  0  0  0  0  0  0  0  0  0  0
  141.9502   76.5249  222.0821 H   0  0  0  0  0  0  0  0  0  0  0  0
  139.8310   76.8070  221.9240 C   0  0  0  0  0  0  0  0  0  0  0  0
  139.2249   76.8843  221.0093 H   0  0  0  0  0  0  0  0  0  0  0  0
  139.2993   76.2702  222.7235 H   0  0  0  0  0  0  0  0  0  0  0  0
  140.1260   78.2250  222.4380 C   0  0  0  0  0  0  0  0  0  0  0  0
  139.8084   78.9583  221.6821 H   0  0  0  0  0  0  0  0  0  0  0  0
  139.5746   78.3873  223.3759 H   0  0  0  0  0  0  0  0  0  0  0  0
  141.5740   78.3870  222.6970 N   0  0  0  0  0  0  0  0  0  0  0  0
  141.8270   78.9840  224.0190 C   0  0  0  0  0  0  0  0  0  0  0  0
  140.9846   78.7677  224.6925 H   0  0  0  0  0  0  0  0  0  0  0  0
  142.7444   78.5631  224.4564 H   0  0  0  0  0  0  0  0  0  0  0  0
  141.9720   80.4910  223.8420 C   0  0  0  0  0  0  0  0  0  0  0  0
  141.0862   81.0108  224.2358 H   0  0  0  0  0  0  0  0  0  0  0  0
  142.8436   80.8828  224.3869 H   0  0  0  0  0  0  0  0  0  0  0  0
  142.0970   80.7160  222.3480 C   0  0  0  0  0  0  0  0  0  0  0  0
  141.2150   81.2484  221.9625 H   0  0  0  0  0  0  0  0  0  0  0  0
  142.9729   81.3317  222.0956 H   0  0  0  0  0  0  0  0  0  0  0  0
  142.1860   79.3250  221.7450 C   0  0  0  0  0  0  0  0  0  0  0  0
  141.6436   79.2956  220.7885 H   0  0  0  0  0  0  0  0  0  0  0  0
  143.2348   79.0530  221.5552 H   0  0  0  0  0  0  0  0  0  0  0  0
  142.6950   79.3850  217.6160 N   0  0  0  0  0  0  0  0  0  0  0  0
  142.0540   80.5730  217.4480 C   0  0  0  0  0  0  0  0  0  0  0  0
  142.6470   81.5970  216.6130 N   0  0  0  0  0  0  0  0  0  0  0  0
  142.0440   81.9540  215.3200 C   0  0  0  0  0  0  0  0  0  0  0  0
  141.3108   81.1828  215.0414 H   0  0  0  0  0  0  0  0  0  0  0  0
  141.5568   82.9349  215.4230 H   0  0  0  0  0  0  0  0  0  0  0  0
  143.1140   82.0550  214.2110 C   0  0  0  0  0  0  0  0  0  0  0  0
  143.1431   81.0991  213.6675 H   0  0  0  0  0  0  0  0  0  0  0  0
  142.8283   82.8961  213.5622 H   0  0  0  0  0  0  0  0  0  0  0  0
  144.4700   82.3430  214.7230 N   0  0  0  0  0  0  0  0  0  0  0  0
  145.0140   82.8470  213.9830 H   0  0  0  0  0  0  0  0  0  0  0  0
  144.9650   81.4410  214.9250 H   0  0  0  0  0  0  0  0  0  0  0  0
  144.4450   83.1640  215.9400 C   0  0  0  0  0  0  0  0  0  0  0  0
  145.4743   83.4339  216.2186 H   0  0  0  0  0  0  0  0  0  0  0  0
  143.8592   84.0753  215.7490 H   0  0  0  0  0  0  0  0  0  0  0  0
  143.7970   82.3800  217.0880 C   0  0  0  0  0  0  0  0  0  0  0  0
  144.5421   81.6967  217.5216 H   0  0  0  0  0  0  0  0  0  0  0  0
  143.4428   83.0967  217.8435 H   0  0  0  0  0  0  0  0  0  0  0  0
  140.8610   80.7820  218.0820 N   0  0  0  0  0  0  0  0  0  0  0  0
  140.3570   81.6870  217.9720 H   0  0  0  0  0  0  0  0  0  0  0  0
  138.0740   78.9320  219.5990 C   0  0  0  0  0  0  0  0  0  0  0  0
  138.5822   77.9994  219.8854 H   0  0  0  0  0  0  0  0  0  0  0  0
  137.6239   78.8652  218.5975 H   0  0  0  0  0  0  0  0  0  0  0  0
  136.9320   79.1950  220.5990 C   0  0  0  0  0  0  0  0  0  0  0  0
  136.4710   78.2357  220.8768 H   0  0  0  0  0  0  0  0  0  0  0  0
  136.1956   79.8562  220.1189 H   0  0  0  0  0  0  0  0  0  0  0  0
  1  2  1  0
  2  3  2  0
  3  4  1  0
  3  5  1  0
  5  6  1  0
  5  7  2  0
  7  8  1  0
  8  9  2  0
  9 10  1  0
  8 11  1  0
 11 12  1  0
 11 13  1  0
 11 14  1  0
 14 15  1  0
 15 16  2  0
 16 17  1  0
 17 18  2  0
 18 19  1  0
 18 20  1  0
 20 21  1  0
 20 22  1  0
 20 23  1  0
 23 24  1  0
 23 25  1  0
 23 26  1  0
 26 27  1  0
 26 28  1  0
 26 29  1  0
 29 30  1  0
 29 31  1  0
 29 32  1  0
 32 33  1  0
 32 34  1  0
 32 35  1  0
 35 36  1  0
 36 37  1  0
 36 38  1  0
 36 39  1  0
 39 40  1  0
 39 41  1  0
 39 42  1  0
 42 43  1  0
 42 44  1  0
 42 45  1  0
 45 46  1  0
 45 47  1  0
 17 48  1  0
 48 49  2  0
 49 50  1  0
 50 51  1  0
 51 52  1  0
 51 53  1  0
 51 54  1  0
 54 55  1  0
 54 56  1  0
 54 57  1  0
 57 58  1  0
 57 59  1  0
 57 60  1  0
 60 61  1  0
 60 62  1  0
 60 63  1  0
 63 64  1  0
 63 65  1  0
 49 66  1  0
 66 67  1  0
 14 68  1  0
 68 69  1  0
 68 70  1  0
 68 71  1  0
 71 72  1  0
 71 73  1  0
  9  2  1  0
 66 15  1  0
 71  7  1  0
 45 35  1  0
 63 50  1  0
M  CHG  2  18   1  57   1
M  END
>  <UniqueID>  (69) 
483

>  <SMILES>  (69) 
c1ccc2c(c1)CCN(c1n/c(=[NH+]\CCCCCN3CCCC3)nc(N3CC[NH2+]CC3)[nH]1)C2

>  <Energy>  (69) 
82.96491159646912

>  <Genealogy>  (69) 
c1ccc2c(c1)CCN(c1nc([NH2+]CCCCCN3CCCC3)nc(N3CC[NH2+]CC3)n1)C2 (protonated)
c1ccc2c(c1)CCN(c1nc(=[NH+]CCCCCN3CCCC3)nc(N3CC[NH2+]CC3)[nH]1)C2 (tautomer)
c1ccc2c(c1)CCN(c1n/c(=[NH+]\CCCCCN3CCCC3)nc(N3CC[NH2+]CC3)[nH]1)C2 (cis-trans isomerization)
c1ccc2c(c1)CCN(c1n/c(=[NH+]\CCCCCN3CCCC3)nc(N3CC[NH2+]CC3)[nH]1)C2 (3D coordinates assigned)
c1ccc2c(c1)CCN(c1n/c(=[NH+]\CCCCCN3CCCC3)nc(N3CC[NH2+]CC3)[nH]1)C2 (nonaromatic ring conformer: 82.96491159646912 kcal/mol)

>  <smiles>  (69) 
c1ccc2c(c1)CCN(c1nc(NCCCCCN3CCCC3)nc(N3CCNCC3)n1)C2

>  <score_type>  (69) 
oracle

>  <origin>  (69) 
autodockgpu

>  <m_score__min__energy>  (69) 
-9.7300000000000004

>  <m_primary>  (69) 
energy

>  <meeko>  (69) 
{"free_energy": -6.5, "intermolecular_energy": -9.18, "internal_energy": -2.41, "cluster_size": 2, "cluster_id": 6, "rank_in_cluster": 2}

>  <energy>  (69) 
-7.89

>  <cluster_rmsd>  (69) 
1.59

>  <rmsd>  (69) 
271.02

>  <cluster>  (69) 
3

$$$$
MTUVCRSRZGPGQU-NMOKVYIGNA-P
     RDKit          3D

 73 77  0  0  0  0  0  0  0  0999 V2000
  134.0848   76.7285  225.7014 H   0  0  0  0  0  0  0  0  0  0  0  0
  134.6190   76.1780  224.9130 C   0  0  0  0  0  0  0  0  0  0  0  0
  134.6880   74.7820  224.9610 C   0  0  0  0  0  0  0  0  0  0  0  0
  134.2079   74.2370  225.7872 H   0  0  0  0  0  0  0  0  0  0  0  0
  135.3660   74.0770  223.9610 C   0  0  0  0  0  0  0  0  0  0  0  0
  135.4081   72.9783  223.9942 H   0  0  0  0  0  0  0  0  0  0  0  0
  135.9920   74.7720  222.9160 C   0  0  0  0  0  0  0  0  0  0  0  0
  135.9180   76.1730  222.8670 C   0  0  0  0  0  0  0  0  0  0  0  0
  135.2270   76.8750  223.8660 C   0  0  0  0  0  0  0  0  0  0  0  0
  135.1641   77.9724  223.8249 H   0  0  0  0  0  0  0  0  0  0  0  0
  136.5690   76.8780  221.7150 C   0  0  0  0  0  0  0  0  0  0  0  0
  136.7335   77.9337  221.9767 H   0  0  0  0  0  0  0  0  0  0  0  0
  135.9166   76.8168  220.8315 H   0  0  0  0  0  0  0  0  0  0  0  0
  137.8620   76.2390  221.4160 N   0  0  0  0  0  0  0  0  0  0  0  0
  139.0490   77.0490  221.3020 C   0  0  0  0  0  0  0  0  0  0  0  0
  139.8880   77.1610  222.3620 N   0  0  0  0  0  0  0  0  0  0  0  0
  141.0050   77.9270  222.2910 C   0  0  0  0  0  0  0  0  0  0  0  0
  141.8070   78.0370  223.3140 N   0  0  0  0  0  0  0  0  0  0  0  0
  142.4340   77.2350  223.5540 H   0  0  0  0  0  0  0  0  0  0  0  0
  141.8210   79.1980  224.2120 C   0  0  0  0  0  0  0  0  0  0  0  0
  140.7907   79.5584  224.3484 H   0  0  0  0  0  0  0  0  0  0  0  0
  142.2545   78.8884  225.1744 H   0  0  0  0  0  0  0  0  0  0  0  0
  142.6770   80.3350  223.6370 C   0  0  0  0  0  0  0  0  0  0  0  0
  143.4934   80.5614  224.3386 H   0  0  0  0  0  0  0  0  0  0  0  0
  143.0826   80.0132  222.6664 H   0  0  0  0  0  0  0  0  0  0  0  0
  141.8330   81.6020  223.4210 C   0  0  0  0  0  0  0  0  0  0  0  0
  141.1007   81.6812  224.2380 H   0  0  0  0  0  0  0  0  0  0  0  0
  142.5193   82.4615  223.4071 H   0  0  0  0  0  0  0  0  0  0  0  0
  141.0780   81.5870  222.0830 C   0  0  0  0  0  0  0  0  0  0  0  0
  141.4061   82.4500  221.4850 H   0  0  0  0  0  0  0  0  0  0  0  0
  141.3073   80.6334  221.5849 H   0  0  0  0  0  0  0  0  0  0  0  0
  139.5520   81.6620  222.2570 C   0  0  0  0  0  0  0  0  0  0  0  0
  139.3154   82.3191  223.1069 H   0  0  0  0  0  0  0  0  0  0  0  0
  139.1058   82.0634  221.3351 H   0  0  0  0  0  0  0  0  0  0  0  0
  138.9980   80.3140  222.5130 N   0  0  0  0  0  0  0  0  0  0  0  0
  137.6850   80.1340  221.8720 C   0  0  0  0  0  0  0  0  0  0  0  0
  137.5989   80.8055  221.0050 H   0  0  0  0  0  0  0  0  0  0  0  0
  137.5705   79.0961  221.5261 H   0  0  0  0  0  0  0  0  0  0  0  0
  136.6050   80.4700  222.8940 C   0  0  0  0  0  0  0  0  0  0  0  0
  136.1309   81.4320  222.6495 H   0  0  0  0  0  0  0  0  0  0  0  0
  135.8074   79.7126  222.9073 H   0  0  0  0  0  0  0  0  0  0  0  0
  137.3190   80.5560  224.2280 C   0  0  0  0  0  0  0  0  0  0  0  0
  137.3094   81.5892  224.6053 H   0  0  0  0  0  0  0  0  0  0  0  0
  136.8345   79.9348  224.9957 H   0  0  0  0  0  0  0  0  0  0  0  0
  138.7410   80.1050  223.9450 C   0  0  0  0  0  0  0  0  0  0  0  0
  139.4484   80.6980  224.5433 H   0  0  0  0  0  0  0  0  0  0  0  0
  138.8694   79.0450  224.2094 H   0  0  0  0  0  0  0  0  0  0  0  0
  141.2870   78.5830  221.1370 N   0  0  0  0  0  0  0  0  0  0  0  0
  140.4700   78.4760  220.0540 C   0  0  0  0  0  0  0  0  0  0  0  0
  140.7950   79.1890  218.8370 N   0  0  0  0  0  0  0  0  0  0  0  0
  140.4290   78.6360  217.5230 C   0  0  0  0  0  0  0  0  0  0  0  0
  140.1481   77.5794  217.6443 H   0  0  0  0  0  0  0  0  0  0  0  0
  139.5861   79.2187  217.1230 H   0  0  0  0  0  0  0  0  0  0  0  0
  141.6060   78.7330  216.5270 C   0  0  0  0  0  0  0  0  0  0  0  0
  142.1375   77.7699  216.5217 H   0  0  0  0  0  0  0  0  0  0  0  0
  141.1778   78.9796  215.5443 H   0  0  0  0  0  0  0  0  0  0  0  0
  142.5740   79.7990  216.8580 N   0  0  0  0  0  0  0  0  0  0  0  0
  143.0360   80.1250  215.9760 H   0  0  0  0  0  0  0  0  0  0  0  0
  143.3190   79.4110  217.4850 H   0  0  0  0  0  0  0  0  0  0  0  0
  141.9380   80.9470  217.5160 C   0  0  0  0  0  0  0  0  0  0  0  0
  142.6794   81.7491  217.6461 H   0  0  0  0  0  0  0  0  0  0  0  0
  141.1061   81.3057  216.8921 H   0  0  0  0  0  0  0  0  0  0  0  0
  141.3950   80.5300  218.8880 C   0  0  0  0  0  0  0  0  0  0  0  0
  142.2208   80.5262  219.6147 H   0  0  0  0  0  0  0  0  0  0  0  0
  140.6177   81.2482  219.1880 H   0  0  0  0  0  0  0  0  0  0  0  0
  139.3460   77.7020  220.1420 N   0  0  0  0  0  0  0  0  0  0  0  0
  138.7040   77.6120  219.3270 H   0  0  0  0  0  0  0  0  0  0  0  0
  137.9780   74.7670  221.3700 C   0  0  0  0  0  0  0  0  0  0  0  0
  138.7876   74.4581  222.0476 H   0  0  0  0  0  0  0  0  0  0  0  0
  138.1851   74.4863  220.3268 H   0  0  0  0  0  0  0  0  0  0  0  0
  136.6830   74.0460  221.7920 C   0  0  0  0  0  0  0  0  0  0  0  0
  136.9322   73.0272  222.1236 H   0  0  0  0  0  0  0  0  0  0  0  0
  136.0036   74.0194  220.9273 H   0  0  0  0  0  0  0  0  0  0  0  0
  1  2  1  0
  2  3  2  0
  3  4  1  0
  3  5  1  0
  5  6  1  0
  5  7  2  0
  7  8  1  0
  8  9  2  0
  9 10  1  0
  8 11  1  0
 11 12  1  0
 11 13  1  0
 11 14  1  0
 14 15  1  0
 15 16  2  0
 16 17  1  0
 17 18  2  0
 18 19  1  0
 18 20  1  0
 20 21  1  0
 20 22  1  0
 20 23  1  0
 23 24  1  0
 23 25  1  0
 23 26  1  0
 26 27  1  0
 26 28  1  0
 26 29  1  0
 29 30  1  0
 29 31  1  0
 29 32  1  0
 32 33  1  0
 32 34  1  0
 32 35  1  0
 35 36  1  0
 36 37  1  0
 36 38  1  0
 36 39  1  0
 39 40  1  0
 39 41  1  0
 39 42  1  0
 42 43  1  0
 42 44  1  0
 42 45  1  0
 45 46  1  0
 45 47  1  0
 17 48  1  0
 48 49  2  0
 49 50  1  0
 50 51  1  0
 51 52  1  0
 51 53  1  0
 51 54  1  0
 54 55  1  0
 54 56  1  0
 54 57  1  0
 57 58  1  0
 57 59  1  0
 57 60  1  0
 60 61  1  0
 60 62  1  0
 60 63  1  0
 63 64  1  0
 63 65  1  0
 49 66  1  0
 66 67  1  0
 14 68  1  0
 68 69  1  0
 68 70  1  0
 68 71  1  0
 71 72  1  0
 71 73  1  0
  9  2  1  0
 66 15  1  0
 71  7  1  0
 45 35  1  0
 63 50  1  0
M  CHG  2  18   1  57   1
M  END
>  <UniqueID>  (70) 
483

>  <SMILES>  (70) 
c1ccc2c(c1)CCN(c1n/c(=[NH+]\CCCCCN3CCCC3)nc(N3CC[NH2+]CC3)[nH]1)C2

>  <Energy>  (70) 
82.96491159646912

>  <Genealogy>  (70) 
c1ccc2c(c1)CCN(c1nc([NH2+]CCCCCN3CCCC3)nc(N3CC[NH2+]CC3)n1)C2 (protonated)
c1ccc2c(c1)CCN(c1nc(=[NH+]CCCCCN3CCCC3)nc(N3CC[NH2+]CC3)[nH]1)C2 (tautomer)
c1ccc2c(c1)CCN(c1n/c(=[NH+]\CCCCCN3CCCC3)nc(N3CC[NH2+]CC3)[nH]1)C2 (cis-trans isomerization)
c1ccc2c(c1)CCN(c1n/c(=[NH+]\CCCCCN3CCCC3)nc(N3CC[NH2+]CC3)[nH]1)C2 (3D coordinates assigned)
c1ccc2c(c1)CCN(c1n/c(=[NH+]\CCCCCN3CCCC3)nc(N3CC[NH2+]CC3)[nH]1)C2 (nonaromatic ring conformer: 82.96491159646912 kcal/mol)

>  <smiles>  (70) 
c1ccc2c(c1)CCN(c1nc(NCCCCCN3CCCC3)nc(N3CCNCC3)n1)C2

>  <score_type>  (70) 
oracle

>  <origin>  (70) 
autodockgpu

>  <m_score__min__energy>  (70) 
-9.7300000000000004

>  <m_primary>  (70) 
energy

>  <meeko>  (70) 
{"free_energy": -6.69, "intermolecular_energy": -9.37, "internal_energy": -2.14, "cluster_size": 1, "cluster_id": 8, "rank_in_cluster": 1}

>  <energy>  (70) 
-7.73

>  <cluster_rmsd>  (70) 
0.62

>  <rmsd>  (70) 
270.46

>  <cluster>  (70) 
3

$$$$
MTUVCRSRZGPGQU-NMOKVYIGNA-P
     RDKit          3D

 73 77  0  0  0  0  0  0  0  0999 V2000
  145.5467   72.9700  221.9546 H   0  0  0  0  0  0  0  0  0  0  0  0
  145.2260   73.3220  220.9630 C   0  0  0  0  0  0  0  0  0  0  0  0
  145.9280   72.9240  219.8200 C   0  0  0  0  0  0  0  0  0  0  0  0
  146.8006   72.2611  219.9153 H   0  0  0  0  0  0  0  0  0  0  0  0
  145.5230   73.3670  218.5560 C   0  0  0  0  0  0  0  0  0  0  0  0
  146.0675   73.0404  217.6578 H   0  0  0  0  0  0  0  0  0  0  0  0
  144.4220   74.2280  218.4350 C   0  0  0  0  0  0  0  0  0  0  0  0
  143.7160   74.6240  219.5830 C   0  0  0  0  0  0  0  0  0  0  0  0
  144.1180   74.1660  220.8470 C   0  0  0  0  0  0  0  0  0  0  0  0
  143.5617   74.4709  221.7456 H   0  0  0  0  0  0  0  0  0  0  0  0
  142.5220   75.5140  219.4100 C   0  0  0  0  0  0  0  0  0  0  0  0
  142.2915   76.0086  220.3651 H   0  0  0  0  0  0  0  0  0  0  0  0
  141.6581   74.9119  219.0919 H   0  0  0  0  0  0  0  0  0  0  0  0
  142.8150   76.5330  218.3870 N   0  0  0  0  0  0  0  0  0  0  0  0
  142.5750   77.9250  218.6770 C   0  0  0  0  0  0  0  0  0  0  0  0
  142.1270   78.2850  219.9060 N   0  0  0  0  0  0  0  0  0  0  0  0
  141.8780   79.5850  220.2050 C   0  0  0  0  0  0  0  0  0  0  0  0
  141.4410   79.9270  221.3850 N   0  0  0  0  0  0  0  0  0  0  0  0
  140.5270   80.4310  221.4610 H   0  0  0  0  0  0  0  0  0  0  0  0
  142.2030   79.7240  222.6230 C   0  0  0  0  0  0  0  0  0  0  0  0
  143.2180   79.3850  222.3681 H   0  0  0  0  0  0  0  0  0  0  0  0
  142.2386   80.6774  223.1705 H   0  0  0  0  0  0  0  0  0  0  0  0
  141.5340   78.6720  223.5210 C   0  0  0  0  0  0  0  0  0  0  0  0
  142.2553   78.3352  224.2801 H   0  0  0  0  0  0  0  0  0  0  0  0
  140.6554   79.1273  224.0013 H   0  0  0  0  0  0  0  0  0  0  0  0
  141.0700   77.4610  222.6950 C   0  0  0  0  0  0  0  0  0  0  0  0
  141.7502   77.3365  221.8395 H   0  0  0  0  0  0  0  0  0  0  0  0
  141.0842   76.5817  223.3557 H   0  0  0  0  0  0  0  0  0  0  0  0
  139.6370   77.6220  222.1650 C   0  0  0  0  0  0  0  0  0  0  0  0
  139.6809   78.0975  221.1740 H   0  0  0  0  0  0  0  0  0  0  0  0
  139.1880   76.6189  222.1188 H   0  0  0  0  0  0  0  0  0  0  0  0
  138.7520   78.4810  223.0820 C   0  0  0  0  0  0  0  0  0  0  0  0
  137.7106   78.1343  223.0097 H   0  0  0  0  0  0  0  0  0  0  0  0
  139.1105   78.3847  224.1175 H   0  0  0  0  0  0  0  0  0  0  0  0
  138.8220   79.9030  222.6790 N   0  0  0  0  0  0  0  0  0  0  0  0
  139.0890   80.7810  223.8300 C   0  0  0  0  0  0  0  0  0  0  0  0
  139.6149   80.2169  224.6144 H   0  0  0  0  0  0  0  0  0  0  0  0
  139.7198   81.6283  223.5230 H   0  0  0  0  0  0  0  0  0  0  0  0
  137.7530   81.2860  224.3650 C   0  0  0  0  0  0  0  0  0  0  0  0
  137.5132   80.7980  225.3212 H   0  0  0  0  0  0  0  0  0  0  0  0
  137.7734   82.3696  224.5530 H   0  0  0  0  0  0  0  0  0  0  0  0
  136.7270   80.9190  223.3120 C   0  0  0  0  0  0  0  0  0  0  0  0
  136.0361   80.1540  223.6959 H   0  0  0  0  0  0  0  0  0  0  0  0
  136.1111   81.7816  223.0179 H   0  0  0  0  0  0  0  0  0  0  0  0
  137.5350   80.3720  222.1470 C   0  0  0  0  0  0  0  0  0  0  0  0
  136.9965   79.5358  221.6771 H   0  0  0  0  0  0  0  0  0  0  0  0
  137.6926   81.1514  221.3870 H   0  0  0  0  0  0  0  0  0  0  0  0
  142.0900   80.5350  219.2600 N   0  0  0  0  0  0  0  0  0  0  0  0
  142.5540   80.2020  218.0250 C   0  0  0  0  0  0  0  0  0  0  0  0
  142.7700   81.2370  217.0360 N   0  0  0  0  0  0  0  0  0  0  0  0
  141.8590   81.3820  215.8900 C   0  0  0  0  0  0  0  0  0  0  0  0
  141.2343   80.4800  215.8121 H   0  0  0  0  0  0  0  0  0  0  0  0
  141.2353   82.2735  216.0519 H   0  0  0  0  0  0  0  0  0  0  0  0
  142.6430   81.5670  214.5720 C   0  0  0  0  0  0  0  0  0  0  0  0
  142.7302   80.5877  214.0786 H   0  0  0  0  0  0  0  0  0  0  0  0
  142.0846   82.2934  213.9632 H   0  0  0  0  0  0  0  0  0  0  0  0
  144.0020   82.1160  214.7650 N   0  0  0  0  0  0  0  0  0  0  0  0
  144.2820   82.6410  213.9020 H   0  0  0  0  0  0  0  0  0  0  0  0
  144.6810   81.3290  214.8950 H   0  0  0  0  0  0  0  0  0  0  0  0
  144.0810   83.0190  215.9190 C   0  0  0  0  0  0  0  0  0  0  0  0
  145.0804   83.4770  215.9556 H   0  0  0  0  0  0  0  0  0  0  0  0
  143.3154   83.8024  215.8180 H   0  0  0  0  0  0  0  0  0  0  0  0
  143.8330   82.2360  217.2150 C   0  0  0  0  0  0  0  0  0  0  0  0
  144.7613   81.7239  217.5082 H   0  0  0  0  0  0  0  0  0  0  0  0
  143.5182   82.9442  217.9956 H   0  0  0  0  0  0  0  0  0  0  0  0
  142.7970   78.8880  217.7380 N   0  0  0  0  0  0  0  0  0  0  0  0
  143.1460   78.6110  216.7960 H   0  0  0  0  0  0  0  0  0  0  0  0
  143.4800   76.1570  217.1230 C   0  0  0  0  0  0  0  0  0  0  0  0
  144.3688   76.7918  216.9926 H   0  0  0  0  0  0  0  0  0  0  0  0
  142.7498   76.2998  216.3128 H   0  0  0  0  0  0  0  0  0  0  0  0
  143.9220   74.6810  217.0890 C   0  0  0  0  0  0  0  0  0  0  0  0
  144.7284   74.5655  216.3499 H   0  0  0  0  0  0  0  0  0  0  0  0
  143.0526   74.0647  216.8164 H   0  0  0  0  0  0  0  0  0  0  0  0
  1  2  1  0
  2  3  2  0
  3  4  1  0
  3  5  1  0
  5  6  1  0
  5  7  2  0
  7  8  1  0
  8  9  2  0
  9 10  1  0
  8 11  1  0
 11 12  1  0
 11 13  1  0
 11 14  1  0
 14 15  1  0
 15 16  2  0
 16 17  1  0
 17 18  2  0
 18 19  1  0
 18 20  1  0
 20 21  1  0
 20 22  1  0
 20 23  1  0
 23 24  1  0
 23 25  1  0
 23 26  1  0
 26 27  1  0
 26 28  1  0
 26 29  1  0
 29 30  1  0
 29 31  1  0
 29 32  1  0
 32 33  1  0
 32 34  1  0
 32 35  1  0
 35 36  1  0
 36 37  1  0
 36 38  1  0
 36 39  1  0
 39 40  1  0
 39 41  1  0
 39 42  1  0
 42 43  1  0
 42 44  1  0
 42 45  1  0
 45 46  1  0
 45 47  1  0
 17 48  1  0
 48 49  2  0
 49 50  1  0
 50 51  1  0
 51 52  1  0
 51 53  1  0
 51 54  1  0
 54 55  1  0
 54 56  1  0
 54 57  1  0
 57 58  1  0
 57 59  1  0
 57 60  1  0
 60 61  1  0
 60 62  1  0
 60 63  1  0
 63 64  1  0
 63 65  1  0
 49 66  1  0
 66 67  1  0
 14 68  1  0
 68 69  1  0
 68 70  1  0
 68 71  1  0
 71 72  1  0
 71 73  1  0
  9  2  1  0
 66 15  1  0
 71  7  1  0
 45 35  1  0
 63 50  1  0
M  CHG  2  18   1  57   1
M  END
>  <UniqueID>  (71) 
483

>  <SMILES>  (71) 
c1ccc2c(c1)CCN(c1n/c(=[NH+]\CCCCCN3CCCC3)nc(N3CC[NH2+]CC3)[nH]1)C2

>  <Energy>  (71) 
82.96491159646912

>  <Genealogy>  (71) 
c1ccc2c(c1)CCN(c1nc([NH2+]CCCCCN3CCCC3)nc(N3CC[NH2+]CC3)n1)C2 (protonated)
c1ccc2c(c1)CCN(c1nc(=[NH+]CCCCCN3CCCC3)nc(N3CC[NH2+]CC3)[nH]1)C2 (tautomer)
c1ccc2c(c1)CCN(c1n/c(=[NH+]\CCCCCN3CCCC3)nc(N3CC[NH2+]CC3)[nH]1)C2 (cis-trans isomerization)
c1ccc2c(c1)CCN(c1n/c(=[NH+]\CCCCCN3CCCC3)nc(N3CC[NH2+]CC3)[nH]1)C2 (3D coordinates assigned)
c1ccc2c(c1)CCN(c1n/c(=[NH+]\CCCCCN3CCCC3)nc(N3CC[NH2+]CC3)[nH]1)C2 (nonaromatic ring conformer: 82.96491159646912 kcal/mol)

>  <smiles>  (71) 
c1ccc2c(c1)CCN(c1nc(NCCCCCN3CCCC3)nc(N3CCNCC3)n1)C2

>  <score_type>  (71) 
oracle

>  <origin>  (71) 
autodockgpu

>  <m_score__min__energy>  (71) 
-9.7300000000000004

>  <m_primary>  (71) 
energy

>  <meeko>  (71) 
{"free_energy": -7.98, "intermolecular_energy": -10.66, "internal_energy": -1.61, "cluster_size": 8, "cluster_id": 3, "rank_in_cluster": 5}

>  <energy>  (71) 
-7.52

>  <cluster_rmsd>  (71) 
1.67

>  <rmsd>  (71) 
270.83

>  <cluster>  (71) 
3

$$$$
MTUVCRSRZGPGQU-NMOKVYIGNA-P
     RDKit          3D

 73 77  0  0  0  0  0  0  0  0999 V2000
  142.3362   67.7568  227.1004 H   0  0  0  0  0  0  0  0  0  0  0  0
  141.4320   68.1880  226.6460 C   0  0  0  0  0  0  0  0  0  0  0  0
  140.2350   67.4650  226.6530 C   0  0  0  0  0  0  0  0  0  0  0  0
  140.2002   66.4659  227.1119 H   0  0  0  0  0  0  0  0  0  0  0  0
  139.0820   68.0090  226.0780 C   0  0  0  0  0  0  0  0  0  0  0  0
  138.1385   67.4438  226.0972 H   0  0  0  0  0  0  0  0  0  0  0  0
  139.1290   69.2750  225.4770 C   0  0  0  0  0  0  0  0  0  0  0  0
  140.3310   70.0020  225.4740 C   0  0  0  0  0  0  0  0  0  0  0  0
  141.4820   69.4570  226.0630 C   0  0  0  0  0  0  0  0  0  0  0  0
  142.4223   70.0278  226.0658 H   0  0  0  0  0  0  0  0  0  0  0  0
  140.3340   71.3670  224.8550 C   0  0  0  0  0  0  0  0  0  0  0  0
  141.3672   71.6589  224.6155 H   0  0  0  0  0  0  0  0  0  0  0  0
  139.9033   72.0915  225.5618 H   0  0  0  0  0  0  0  0  0  0  0  0
  139.5300   71.3470  223.6200 N   0  0  0  0  0  0  0  0  0  0  0  0
  140.0860   71.8720  222.3980 C   0  0  0  0  0  0  0  0  0  0  0  0
  140.5570   71.0170  221.4550 N   0  0  0  0  0  0  0  0  0  0  0  0
  141.1000   71.4810  220.3020 C   0  0  0  0  0  0  0  0  0  0  0  0
  141.5570   70.6570  219.4000 N   0  0  0  0  0  0  0  0  0  0  0  0
  141.4740   70.9140  218.3900 H   0  0  0  0  0  0  0  0  0  0  0  0
  142.1100   69.3340  219.7150 C   0  0  0  0  0  0  0  0  0  0  0  0
  141.8702   69.0843  220.7591 H   0  0  0  0  0  0  0  0  0  0  0  0
  141.6658   68.5985  219.0282 H   0  0  0  0  0  0  0  0  0  0  0  0
  143.6350   69.3110  219.5320 C   0  0  0  0  0  0  0  0  0  0  0  0
  144.0795   70.1353  220.1090 H   0  0  0  0  0  0  0  0  0  0  0  0
  144.0172   68.3430  219.8881 H   0  0  0  0  0  0  0  0  0  0  0  0
  144.0120   69.4730  218.0510 C   0  0  0  0  0  0  0  0  0  0  0  0
  144.4996   68.5484  217.7084 H   0  0  0  0  0  0  0  0  0  0  0  0
  143.0865   69.6749  217.4918 H   0  0  0  0  0  0  0  0  0  0  0  0
  144.9680   70.6520  217.8100 C   0  0  0  0  0  0  0  0  0  0  0  0
  145.8019   70.3050  217.1821 H   0  0  0  0  0  0  0  0  0  0  0  0
  144.3908   71.4499  217.3199 H   0  0  0  0  0  0  0  0  0  0  0  0
  145.5430   71.2320  219.1120 C   0  0  0  0  0  0  0  0  0  0  0  0
  144.8523   71.0179  219.9409 H   0  0  0  0  0  0  0  0  0  0  0  0
  146.5216   70.7697  219.3084 H   0  0  0  0  0  0  0  0  0  0  0  0
  145.7180   72.6960  218.9880 N   0  0  0  0  0  0  0  0  0  0  0  0
  146.3450   73.2720  220.1900 C   0  0  0  0  0  0  0  0  0  0  0  0
  146.9460   72.5048  220.7001 H   0  0  0  0  0  0  0  0  0  0  0  0
  147.0037   74.1076  219.9108 H   0  0  0  0  0  0  0  0  0  0  0  0
  145.2390   73.7620  221.1180 C   0  0  0  0  0  0  0  0  0  0  0  0
  145.1476   73.0985  221.9906 H   0  0  0  0  0  0  0  0  0  0  0  0
  145.4471   74.7714  221.5025 H   0  0  0  0  0  0  0  0  0  0  0  0
  143.9690   73.7270  220.2910 C   0  0  0  0  0  0  0  0  0  0  0  0
  143.2803   72.9591  220.6732 H   0  0  0  0  0  0  0  0  0  0  0  0
  143.4271   74.6836  220.3270 H   0  0  0  0  0  0  0  0  0  0  0  0
  144.4230   73.3830  218.8840 C   0  0  0  0  0  0  0  0  0  0  0  0
  143.6861   72.7227  218.4034 H   0  0  0  0  0  0  0  0  0  0  0  0
  144.5182   74.2948  218.2761 H   0  0  0  0  0  0  0  0  0  0  0  0
  141.1620   72.8190  220.0890 N   0  0  0  0  0  0  0  0  0  0  0  0
  140.6830   73.6970  221.0120 C   0  0  0  0  0  0  0  0  0  0  0  0
  140.7640   75.1200  220.7580 N   0  0  0  0  0  0  0  0  0  0  0  0
  140.9580   75.6290  219.3910 C   0  0  0  0  0  0  0  0  0  0  0  0
  141.2677   74.7985  218.7395 H   0  0  0  0  0  0  0  0  0  0  0  0
  140.0087   76.0621  219.0427 H   0  0  0  0  0  0  0  0  0  0  0  0
  142.0410   76.7300  219.3530 C   0  0  0  0  0  0  0  0  0  0  0  0
  142.9968   76.2677  219.0654 H   0  0  0  0  0  0  0  0  0  0  0  0
  141.7067   77.4862  218.6274 H   0  0  0  0  0  0  0  0  0  0  0  0
  142.2270   77.4220  220.6450 N   0  0  0  0  0  0  0  0  0  0  0  0
  142.5760   78.3930  220.4650 H   0  0  0  0  0  0  0  0  0  0  0  0
  142.9560   76.9200  221.2070 H   0  0  0  0  0  0  0  0  0  0  0  0
  140.9840   77.4980  221.4220 C   0  0  0  0  0  0  0  0  0  0  0  0
  141.1531   78.1087  222.3212 H   0  0  0  0  0  0  0  0  0  0  0  0
  140.1983   77.9556  220.8028 H   0  0  0  0  0  0  0  0  0  0  0  0
  140.5400   76.0900  221.8400 C   0  0  0  0  0  0  0  0  0  0  0  0
  141.1153   75.7800  222.7249 H   0  0  0  0  0  0  0  0  0  0  0  0
  139.4641   76.1166  222.0674 H   0  0  0  0  0  0  0  0  0  0  0  0
  140.1420   73.2150  222.1710 N   0  0  0  0  0  0  0  0  0  0  0  0
  139.7760   73.8700  222.8930 H   0  0  0  0  0  0  0  0  0  0  0  0
  138.2170   70.6690  223.5910 C   0  0  0  0  0  0  0  0  0  0  0  0
  138.2142   69.9467  222.7614 H   0  0  0  0  0  0  0  0  0  0  0  0
  137.4493   71.4463  223.4629 H   0  0  0  0  0  0  0  0  0  0  0  0
  137.8960   69.9170  224.8970 C   0  0  0  0  0  0  0  0  0  0  0  0
  137.1507   69.1358  224.6866 H   0  0  0  0  0  0  0  0  0  0  0  0
  137.5058   70.6412  225.6273 H   0  0  0  0  0  0  0  0  0  0  0  0
  1  2  1  0
  2  3  2  0
  3  4  1  0
  3  5  1  0
  5  6  1  0
  5  7  2  0
  7  8  1  0
  8  9  2  0
  9 10  1  0
  8 11  1  0
 11 12  1  0
 11 13  1  0
 11 14  1  0
 14 15  1  0
 15 16  2  0
 16 17  1  0
 17 18  2  0
 18 19  1  0
 18 20  1  0
 20 21  1  0
 20 22  1  0
 20 23  1  0
 23 24  1  0
 23 25  1  0
 23 26  1  0
 26 27  1  0
 26 28  1  0
 26 29  1  0
 29 30  1  0
 29 31  1  0
 29 32  1  0
 32 33  1  0
 32 34  1  0
 32 35  1  0
 35 36  1  0
 36 37  1  0
 36 38  1  0
 36 39  1  0
 39 40  1  0
 39 41  1  0
 39 42  1  0
 42 43  1  0
 42 44  1  0
 42 45  1  0
 45 46  1  0
 45 47  1  0
 17 48  1  0
 48 49  2  0
 49 50  1  0
 50 51  1  0
 51 52  1  0
 51 53  1  0
 51 54  1  0
 54 55  1  0
 54 56  1  0
 54 57  1  0
 57 58  1  0
 57 59  1  0
 57 60  1  0
 60 61  1  0
 60 62  1  0
 60 63  1  0
 63 64  1  0
 63 65  1  0
 49 66  1  0
 66 67  1  0
 14 68  1  0
 68 69  1  0
 68 70  1  0
 68 71  1  0
 71 72  1  0
 71 73  1  0
  9  2  1  0
 66 15  1  0
 71  7  1  0
 45 35  1  0
 63 50  1  0
M  CHG  2  18   1  57   1
M  END
>  <UniqueID>  (72) 
483

>  <SMILES>  (72) 
c1ccc2c(c1)CCN(c1n/c(=[NH+]\CCCCCN3CCCC3)nc(N3CC[NH2+]CC3)[nH]1)C2

>  <Energy>  (72) 
82.96491159646912

>  <Genealogy>  (72) 
c1ccc2c(c1)CCN(c1nc([NH2+]CCCCCN3CCCC3)nc(N3CC[NH2+]CC3)n1)C2 (protonated)
c1ccc2c(c1)CCN(c1nc(=[NH+]CCCCCN3CCCC3)nc(N3CC[NH2+]CC3)[nH]1)C2 (tautomer)
c1ccc2c(c1)CCN(c1n/c(=[NH+]\CCCCCN3CCCC3)nc(N3CC[NH2+]CC3)[nH]1)C2 (cis-trans isomerization)
c1ccc2c(c1)CCN(c1n/c(=[NH+]\CCCCCN3CCCC3)nc(N3CC[NH2+]CC3)[nH]1)C2 (3D coordinates assigned)
c1ccc2c(c1)CCN(c1n/c(=[NH+]\CCCCCN3CCCC3)nc(N3CC[NH2+]CC3)[nH]1)C2 (nonaromatic ring conformer: 82.96491159646912 kcal/mol)

>  <smiles>  (72) 
c1ccc2c(c1)CCN(c1nc(NCCCCCN3CCCC3)nc(N3CCNCC3)n1)C2

>  <score_type>  (72) 
oracle

>  <origin>  (72) 
autodockgpu

>  <m_score__min__energy>  (72) 
-9.7300000000000004

>  <m_primary>  (72) 
energy

>  <meeko>  (72) 
{"free_energy": -8.06, "intermolecular_energy": -10.75, "internal_energy": -1.17, "cluster_size": 1, "cluster_id": 4, "rank_in_cluster": 1}

>  <energy>  (72) 
-8.06

>  <cluster_rmsd>  (72) 
0.0

>  <rmsd>  (72) 
270.75

>  <cluster>  (72) 
4

$$$$
MTUVCRSRZGPGQU-NMOKVYIGNA-P
     RDKit          3D

 73 77  0  0  0  0  0  0  0  0999 V2000
  145.2064   73.2554  221.8233 H   0  0  0  0  0  0  0  0  0  0  0  0
  144.8830   73.5970  220.8290 C   0  0  0  0  0  0  0  0  0  0  0  0
  145.5410   73.1360  219.6850 C   0  0  0  0  0  0  0  0  0  0  0  0
  146.3811   72.4324  219.7814 H   0  0  0  0  0  0  0  0  0  0  0  0
  145.1340   73.5670  218.4180 C   0  0  0  0  0  0  0  0  0  0  0  0
  145.6456   73.1927  217.5190 H   0  0  0  0  0  0  0  0  0  0  0  0
  144.0730   74.4770  218.2940 C   0  0  0  0  0  0  0  0  0  0  0  0
  143.4110   74.9360  219.4440 C   0  0  0  0  0  0  0  0  0  0  0  0
  143.8150   74.4910  220.7120 C   0  0  0  0  0  0  0  0  0  0  0  0
  143.2920   74.8452  221.6125 H   0  0  0  0  0  0  0  0  0  0  0  0
  142.2580   75.8790  219.2700 C   0  0  0  0  0  0  0  0  0  0  0  0
  142.0706   76.4081  220.2160 H   0  0  0  0  0  0  0  0  0  0  0  0
  141.3597   75.3123  218.9837 H   0  0  0  0  0  0  0  0  0  0  0  0
  142.5800   76.8560  218.2160 N   0  0  0  0  0  0  0  0  0  0  0  0
  142.4140   78.2650  218.4740 C   0  0  0  0  0  0  0  0  0  0  0  0
  141.9040   78.6720  219.6630 N   0  0  0  0  0  0  0  0  0  0  0  0
  141.7220   79.9900  219.9300 C   0  0  0  0  0  0  0  0  0  0  0  0
  141.2260   80.3780  221.0730 N   0  0  0  0  0  0  0  0  0  0  0  0
  140.4370   79.8350  221.4930 H   0  0  0  0  0  0  0  0  0  0  0  0
  141.6540   81.5960  221.7710 C   0  0  0  0  0  0  0  0  0  0  0  0
  142.5185   82.0263  221.2442 H   0  0  0  0  0  0  0  0  0  0  0  0
  140.8132   82.3051  221.7809 H   0  0  0  0  0  0  0  0  0  0  0  0
  142.0520   81.2940  223.2230 C   0  0  0  0  0  0  0  0  0  0  0  0
  142.8527   81.9839  223.5279 H   0  0  0  0  0  0  0  0  0  0  0  0
  141.1677   81.4243  223.8642 H   0  0  0  0  0  0  0  0  0  0  0  0
  142.5530   79.8470  223.3650 C   0  0  0  0  0  0  0  0  0  0  0  0
  142.8627   79.4826  222.3744 H   0  0  0  0  0  0  0  0  0  0  0  0
  143.3926   79.8532  224.0756 H   0  0  0  0  0  0  0  0  0  0  0  0
  141.4780   78.9020  223.9230 C   0  0  0  0  0  0  0  0  0  0  0  0
  141.8081   78.5371  224.9068 H   0  0  0  0  0  0  0  0  0  0  0  0
  140.5403   79.4729  223.9912 H   0  0  0  0  0  0  0  0  0  0  0  0
  141.2150   77.6910  223.0140 C   0  0  0  0  0  0  0  0  0  0  0  0
  142.1399   77.4323  222.4777 H   0  0  0  0  0  0  0  0  0  0  0  0
  140.8887   76.8429  223.6338 H   0  0  0  0  0  0  0  0  0  0  0  0
  140.1530   78.0060  222.0320 N   0  0  0  0  0  0  0  0  0  0  0  0
  138.8670   78.2860  222.6940 C   0  0  0  0  0  0  0  0  0  0  0  0
  139.0460   78.6457  223.7180 H   0  0  0  0  0  0  0  0  0  0  0  0
  138.3156   79.0603  222.1404 H   0  0  0  0  0  0  0  0  0  0  0  0
  138.0600   76.9930  222.7350 C   0  0  0  0  0  0  0  0  0  0  0  0
  138.0264   76.5935  223.7593 H   0  0  0  0  0  0  0  0  0  0  0  0
  137.0188   77.1524  222.4181 H   0  0  0  0  0  0  0  0  0  0  0  0
  138.7860   76.0310  221.8150 C   0  0  0  0  0  0  0  0  0  0  0  0
  139.2247   75.2028  222.3908 H   0  0  0  0  0  0  0  0  0  0  0  0
  138.1093   75.5782  221.0754 H   0  0  0  0  0  0  0  0  0  0  0  0
  139.8760   76.8590  221.1570 C   0  0  0  0  0  0  0  0  0  0  0  0
  140.7855   76.2524  221.0348 H   0  0  0  0  0  0  0  0  0  0  0  0
  139.5535   77.2012  220.1626 H   0  0  0  0  0  0  0  0  0  0  0  0
  142.0640   80.9090  218.9930 N   0  0  0  0  0  0  0  0  0  0  0  0
  142.5910   80.5280  217.7980 C   0  0  0  0  0  0  0  0  0  0  0  0
  142.9450   81.5320  216.8170 N   0  0  0  0  0  0  0  0  0  0  0  0
  142.1530   81.6940  215.5880 C   0  0  0  0  0  0  0  0  0  0  0  0
  141.4972   80.8193  215.4663 H   0  0  0  0  0  0  0  0  0  0  0  0
  141.5594   82.6158  215.6762 H   0  0  0  0  0  0  0  0  0  0  0  0
  143.0630   81.8170  214.3470 C   0  0  0  0  0  0  0  0  0  0  0  0
  143.1497   80.8251  213.8795 H   0  0  0  0  0  0  0  0  0  0  0  0
  142.5978   82.5555  213.6774 H   0  0  0  0  0  0  0  0  0  0  0  0
  144.4220   82.3080  214.6570 N   0  0  0  0  0  0  0  0  0  0  0  0
  144.8050   82.8020  213.8160 H   0  0  0  0  0  0  0  0  0  0  0  0
  145.0490   81.4940  214.8630 H   0  0  0  0  0  0  0  0  0  0  0  0
  144.4350   83.2310  215.7990 C   0  0  0  0  0  0  0  0  0  0  0  0
  145.4467   83.6451  215.9216 H   0  0  0  0  0  0  0  0  0  0  0  0
  143.7193   84.0456  215.6140 H   0  0  0  0  0  0  0  0  0  0  0  0
  144.0320   82.4860  217.0780 C   0  0  0  0  0  0  0  0  0  0  0  0
  144.9045   81.9389  217.4646 H   0  0  0  0  0  0  0  0  0  0  0  0
  143.6792   83.2233  217.8142 H   0  0  0  0  0  0  0  0  0  0  0  0
  142.7660   79.1970  217.5430 N   0  0  0  0  0  0  0  0  0  0  0  0
  143.1610   78.8830  216.6320 H   0  0  0  0  0  0  0  0  0  0  0  0
  143.2000   76.4160  216.9490 C   0  0  0  0  0  0  0  0  0  0  0  0
  144.1152   77.0036  216.7843 H   0  0  0  0  0  0  0  0  0  0  0  0
  142.4609   76.5732  216.1496 H   0  0  0  0  0  0  0  0  0  0  0  0
  143.5700   74.9200  216.9460 C   0  0  0  0  0  0  0  0  0  0  0  0
  144.3559   74.7470  216.1960 H   0  0  0  0  0  0  0  0  0  0  0  0
  142.6669   74.3400  216.7052 H   0  0  0  0  0  0  0  0  0  0  0  0
  1  2  1  0
  2  3  2  0
  3  4  1  0
  3  5  1  0
  5  6  1  0
  5  7  2  0
  7  8  1  0
  8  9  2  0
  9 10  1  0
  8 11  1  0
 11 12  1  0
 11 13  1  0
 11 14  1  0
 14 15  1  0
 15 16  2  0
 16 17  1  0
 17 18  2  0
 18 19  1  0
 18 20  1  0
 20 21  1  0
 20 22  1  0
 20 23  1  0
 23 24  1  0
 23 25  1  0
 23 26  1  0
 26 27  1  0
 26 28  1  0
 26 29  1  0
 29 30  1  0
 29 31  1  0
 29 32  1  0
 32 33  1  0
 32 34  1  0
 32 35  1  0
 35 36  1  0
 36 37  1  0
 36 38  1  0
 36 39  1  0
 39 40  1  0
 39 41  1  0
 39 42  1  0
 42 43  1  0
 42 44  1  0
 42 45  1  0
 45 46  1  0
 45 47  1  0
 17 48  1  0
 48 49  2  0
 49 50  1  0
 50 51  1  0
 51 52  1  0
 51 53  1  0
 51 54  1  0
 54 55  1  0
 54 56  1  0
 54 57  1  0
 57 58  1  0
 57 59  1  0
 57 60  1  0
 60 61  1  0
 60 62  1  0
 60 63  1  0
 63 64  1  0
 63 65  1  0
 49 66  1  0
 66 67  1  0
 14 68  1  0
 68 69  1  0
 68 70  1  0
 68 71  1  0
 71 72  1  0
 71 73  1  0
  9  2  1  0
 66 15  1  0
 71  7  1  0
 45 35  1  0
 63 50  1  0
M  CHG  2  18   1  57   1
M  END
>  <UniqueID>  (73) 
483

>  <SMILES>  (73) 
c1ccc2c(c1)CCN(c1n/c(=[NH+]\CCCCCN3CCCC3)nc(N3CC[NH2+]CC3)[nH]1)C2

>  <Energy>  (73) 
82.96491159646912

>  <Genealogy>  (73) 
c1ccc2c(c1)CCN(c1nc([NH2+]CCCCCN3CCCC3)nc(N3CC[NH2+]CC3)n1)C2 (protonated)
c1ccc2c(c1)CCN(c1nc(=[NH+]CCCCCN3CCCC3)nc(N3CC[NH2+]CC3)[nH]1)C2 (tautomer)
c1ccc2c(c1)CCN(c1n/c(=[NH+]\CCCCCN3CCCC3)nc(N3CC[NH2+]CC3)[nH]1)C2 (cis-trans isomerization)
c1ccc2c(c1)CCN(c1n/c(=[NH+]\CCCCCN3CCCC3)nc(N3CC[NH2+]CC3)[nH]1)C2 (3D coordinates assigned)
c1ccc2c(c1)CCN(c1n/c(=[NH+]\CCCCCN3CCCC3)nc(N3CC[NH2+]CC3)[nH]1)C2 (nonaromatic ring conformer: 82.96491159646912 kcal/mol)

>  <smiles>  (73) 
c1ccc2c(c1)CCN(c1nc(NCCCCCN3CCCC3)nc(N3CCNCC3)n1)C2

>  <score_type>  (73) 
oracle

>  <origin>  (73) 
autodockgpu

>  <m_score__min__energy>  (73) 
-9.7300000000000004

>  <m_primary>  (73) 
energy

>  <meeko>  (73) 
{"free_energy": -8.25, "intermolecular_energy": -10.93, "internal_energy": -2.0, "cluster_size": 8, "cluster_id": 3, "rank_in_cluster": 2}

>  <energy>  (73) 
-7.75

>  <cluster_rmsd>  (73) 
0.0

>  <rmsd>  (73) 
271.58

>  <cluster>  (73) 
5

$$$$
MTUVCRSRZGPGQU-NMOKVYIGNA-P
     RDKit          3D

 73 77  0  0  0  0  0  0  0  0999 V2000
  145.2113   73.2034  221.8561 H   0  0  0  0  0  0  0  0  0  0  0  0
  144.8820   73.5460  220.8640 C   0  0  0  0  0  0  0  0  0  0  0  0
  145.5240   73.0740  219.7140 C   0  0  0  0  0  0  0  0  0  0  0  0
  146.3575   72.3618  219.8038 H   0  0  0  0  0  0  0  0  0  0  0  0
  145.1080   73.5060  218.4500 C   0  0  0  0  0  0  0  0  0  0  0  0
  145.6053   73.1232  217.5466 H   0  0  0  0  0  0  0  0  0  0  0  0
  144.0570   74.4270  218.3350 C   0  0  0  0  0  0  0  0  0  0  0  0
  143.4110   74.8970  219.4900 C   0  0  0  0  0  0  0  0  0  0  0  0
  143.8230   74.4520  220.7550 C   0  0  0  0  0  0  0  0  0  0  0  0
  143.3136   74.8154  221.6597 H   0  0  0  0  0  0  0  0  0  0  0  0
  142.2670   75.8520  219.3250 C   0  0  0  0  0  0  0  0  0  0  0  0
  142.0952   76.3859  220.2713 H   0  0  0  0  0  0  0  0  0  0  0  0
  141.3597   75.2944  219.0497 H   0  0  0  0  0  0  0  0  0  0  0  0
  142.5890   76.8230  218.2640 N   0  0  0  0  0  0  0  0  0  0  0  0
  142.4420   78.2340  218.5200 C   0  0  0  0  0  0  0  0  0  0  0  0
  141.9690   78.6520  219.7210 N   0  0  0  0  0  0  0  0  0  0  0  0
  141.8040   79.9720  219.9860 C   0  0  0  0  0  0  0  0  0  0  0  0
  141.3430   80.3690  221.1400 N   0  0  0  0  0  0  0  0  0  0  0  0
  140.5420   79.8530  221.5700 H   0  0  0  0  0  0  0  0  0  0  0  0
  141.8290   81.5650  221.8390 C   0  0  0  0  0  0  0  0  0  0  0  0
  142.8818   81.7353  221.5696 H   0  0  0  0  0  0  0  0  0  0  0  0
  141.2084   82.4216  221.5372 H   0  0  0  0  0  0  0  0  0  0  0  0
  141.7220   81.3990  223.3620 C   0  0  0  0  0  0  0  0  0  0  0  0
  142.3259   82.1769  223.8522 H   0  0  0  0  0  0  0  0  0  0  0  0
  140.6650   81.4928  223.6519 H   0  0  0  0  0  0  0  0  0  0  0  0
  142.2300   80.0170  223.8010 C   0  0  0  0  0  0  0  0  0  0  0  0
  142.9367   79.6449  223.0447 H   0  0  0  0  0  0  0  0  0  0  0  0
  142.7116   80.1356  224.7828 H   0  0  0  0  0  0  0  0  0  0  0  0
  141.0950   78.9930  223.9600 C   0  0  0  0  0  0  0  0  0  0  0  0
  141.0674   78.6596  225.0079 H   0  0  0  0  0  0  0  0  0  0  0  0
  140.1591   79.4890  223.6633 H   0  0  0  0  0  0  0  0  0  0  0  0
  141.2700   77.7610  223.0580 C   0  0  0  0  0  0  0  0  0  0  0  0
  142.2863   77.7607  222.6371 H   0  0  0  0  0  0  0  0  0  0  0  0
  141.1105   76.8527  223.6576 H   0  0  0  0  0  0  0  0  0  0  0  0
  140.2840   77.7890  221.9540 N   0  0  0  0  0  0  0  0  0  0  0  0
  138.9600   78.2360  222.4180 C   0  0  0  0  0  0  0  0  0  0  0  0
  139.0724   78.8661  223.3126 H   0  0  0  0  0  0  0  0  0  0  0  0
  138.4616   78.8241  221.6334 H   0  0  0  0  0  0  0  0  0  0  0  0
  138.1310   77.0020  222.7570 C   0  0  0  0  0  0  0  0  0  0  0  0
  138.0203   76.9010  223.8468 H   0  0  0  0  0  0  0  0  0  0  0  0
  137.1168   77.0640  222.3356 H   0  0  0  0  0  0  0  0  0  0  0  0
  138.9030   75.8260  222.1920 C   0  0  0  0  0  0  0  0  0  0  0  0
  139.2861   75.1899  223.0036 H   0  0  0  0  0  0  0  0  0  0  0  0
  138.2720   75.1851  221.5587 H   0  0  0  0  0  0  0  0  0  0  0  0
  140.0500   76.4430  221.4120 C   0  0  0  0  0  0  0  0  0  0  0  0
  140.9555   75.8293  221.5284 H   0  0  0  0  0  0  0  0  0  0  0  0
  139.8042   76.4956  220.3411 H   0  0  0  0  0  0  0  0  0  0  0  0
  142.1280   80.8840  219.0350 N   0  0  0  0  0  0  0  0  0  0  0  0
  142.6180   80.4930  217.8280 C   0  0  0  0  0  0  0  0  0  0  0  0
  142.9530   81.4890  216.8330 N   0  0  0  0  0  0  0  0  0  0  0  0
  142.1620   81.6130  215.5980 C   0  0  0  0  0  0  0  0  0  0  0  0
  141.5270   80.7216  215.4880 H   0  0  0  0  0  0  0  0  0  0  0  0
  141.5468   82.5221  215.6690 H   0  0  0  0  0  0  0  0  0  0  0  0
  143.0750   81.7370  214.3580 C   0  0  0  0  0  0  0  0  0  0  0  0
  143.1871   80.7399  213.9073 H   0  0  0  0  0  0  0  0  0  0  0  0
  142.5957   82.4530  213.6742 H   0  0  0  0  0  0  0  0  0  0  0  0
  144.4210   82.2650  214.6660 N   0  0  0  0  0  0  0  0  0  0  0  0
  144.7960   82.7550  213.8190 H   0  0  0  0  0  0  0  0  0  0  0  0
  145.0660   81.4690  214.8870 H   0  0  0  0  0  0  0  0  0  0  0  0
  144.4070   83.2060  215.7930 C   0  0  0  0  0  0  0  0  0  0  0  0
  145.4079   83.6464  215.9128 H   0  0  0  0  0  0  0  0  0  0  0  0
  143.6726   84.0000  215.5924 H   0  0  0  0  0  0  0  0  0  0  0  0
  144.0170   82.4720  217.0820 C   0  0  0  0  0  0  0  0  0  0  0  0
  144.9006   81.9513  217.4797 H   0  0  0  0  0  0  0  0  0  0  0  0
  143.6447   83.2124  217.8053 H   0  0  0  0  0  0  0  0  0  0  0  0
  142.7750   79.1590  217.5750 N   0  0  0  0  0  0  0  0  0  0  0  0
  143.1430   78.8380  216.6550 H   0  0  0  0  0  0  0  0  0  0  0  0
  143.1920   76.3720  216.9930 C   0  0  0  0  0  0  0  0  0  0  0  0
  144.1123   76.9486  216.8181 H   0  0  0  0  0  0  0  0  0  0  0  0
  142.4469   76.5352  216.2004 H   0  0  0  0  0  0  0  0  0  0  0  0
  143.5450   74.8720  216.9900 C   0  0  0  0  0  0  0  0  0  0  0  0
  144.3211   74.6882  216.2325 H   0  0  0  0  0  0  0  0  0  0  0  0
  142.6332   74.3014  216.7597 H   0  0  0  0  0  0  0  0  0  0  0  0
  1  2  1  0
  2  3  2  0
  3  4  1  0
  3  5  1  0
  5  6  1  0
  5  7  2  0
  7  8  1  0
  8  9  2  0
  9 10  1  0
  8 11  1  0
 11 12  1  0
 11 13  1  0
 11 14  1  0
 14 15  1  0
 15 16  2  0
 16 17  1  0
 17 18  2  0
 18 19  1  0
 18 20  1  0
 20 21  1  0
 20 22  1  0
 20 23  1  0
 23 24  1  0
 23 25  1  0
 23 26  1  0
 26 27  1  0
 26 28  1  0
 26 29  1  0
 29 30  1  0
 29 31  1  0
 29 32  1  0
 32 33  1  0
 32 34  1  0
 32 35  1  0
 35 36  1  0
 36 37  1  0
 36 38  1  0
 36 39  1  0
 39 40  1  0
 39 41  1  0
 39 42  1  0
 42 43  1  0
 42 44  1  0
 42 45  1  0
 45 46  1  0
 45 47  1  0
 17 48  1  0
 48 49  2  0
 49 50  1  0
 50 51  1  0
 51 52  1  0
 51 53  1  0
 51 54  1  0
 54 55  1  0
 54 56  1  0
 54 57  1  0
 57 58  1  0
 57 59  1  0
 57 60  1  0
 60 61  1  0
 60 62  1  0
 60 63  1  0
 63 64  1  0
 63 65  1  0
 49 66  1  0
 66 67  1  0
 14 68  1  0
 68 69  1  0
 68 70  1  0
 68 71  1  0
 71 72  1  0
 71 73  1  0
  9  2  1  0
 66 15  1  0
 71  7  1  0
 45 35  1  0
 63 50  1  0
M  CHG  2  18   1  57   1
M  END
>  <UniqueID>  (74) 
483

>  <SMILES>  (74) 
c1ccc2c(c1)CCN(c1n/c(=[NH+]\CCCCCN3CCCC3)nc(N3CC[NH2+]CC3)[nH]1)C2

>  <Energy>  (74) 
82.96491159646912

>  <Genealogy>  (74) 
c1ccc2c(c1)CCN(c1nc([NH2+]CCCCCN3CCCC3)nc(N3CC[NH2+]CC3)n1)C2 (protonated)
c1ccc2c(c1)CCN(c1nc(=[NH+]CCCCCN3CCCC3)nc(N3CC[NH2+]CC3)[nH]1)C2 (tautomer)
c1ccc2c(c1)CCN(c1n/c(=[NH+]\CCCCCN3CCCC3)nc(N3CC[NH2+]CC3)[nH]1)C2 (cis-trans isomerization)
c1ccc2c(c1)CCN(c1n/c(=[NH+]\CCCCCN3CCCC3)nc(N3CC[NH2+]CC3)[nH]1)C2 (3D coordinates assigned)
c1ccc2c(c1)CCN(c1n/c(=[NH+]\CCCCCN3CCCC3)nc(N3CC[NH2+]CC3)[nH]1)C2 (nonaromatic ring conformer: 82.96491159646912 kcal/mol)

>  <smiles>  (74) 
c1ccc2c(c1)CCN(c1nc(NCCCCCN3CCCC3)nc(N3CCNCC3)n1)C2

>  <score_type>  (74) 
oracle

>  <origin>  (74) 
autodockgpu

>  <m_score__min__energy>  (74) 
-9.7300000000000004

>  <m_primary>  (74) 
energy

>  <meeko>  (74) 
{"free_energy": -8.21, "intermolecular_energy": -10.89, "internal_energy": -1.93, "cluster_size": 8, "cluster_id": 3, "rank_in_cluster": 4}

>  <energy>  (74) 
-7.55

>  <cluster_rmsd>  (74) 
0.63

>  <rmsd>  (74) 
271.42

>  <cluster>  (74) 
5

$$$$
MTUVCRSRZGPGQU-NMOKVYIGNA-P
     RDKit          3D

 73 77  0  0  0  0  0  0  0  0999 V2000
  141.5854   69.6721  228.4521 H   0  0  0  0  0  0  0  0  0  0  0  0
  141.0850   69.5040  227.4870 C   0  0  0  0  0  0  0  0  0  0  0  0
  140.9210   68.2020  227.0040 C   0  0  0  0  0  0  0  0  0  0  0  0
  141.2928   67.3486  227.5900 H   0  0  0  0  0  0  0  0  0  0  0  0
  140.2850   67.9820  225.7770 C   0  0  0  0  0  0  0  0  0  0  0  0
  140.1451   66.9561  225.4056 H   0  0  0  0  0  0  0  0  0  0  0  0
  139.8260   69.0710  225.0210 C   0  0  0  0  0  0  0  0  0  0  0  0
  139.9880   70.3780  225.5100 C   0  0  0  0  0  0  0  0  0  0  0  0
  140.6150   70.5920  226.7470 C   0  0  0  0  0  0  0  0  0  0  0  0
  140.7363   71.6147  227.1335 H   0  0  0  0  0  0  0  0  0  0  0  0
  139.4510   71.5130  224.6910 C   0  0  0  0  0  0  0  0  0  0  0  0
  139.9358   72.4505  225.0009 H   0  0  0  0  0  0  0  0  0  0  0  0
  138.3648   71.5943  224.8442 H   0  0  0  0  0  0  0  0  0  0  0  0
  139.7290   71.2640  223.2660 N   0  0  0  0  0  0  0  0  0  0  0  0
  140.3600   72.2890  222.4720 C   0  0  0  0  0  0  0  0  0  0  0  0
  139.7570   73.4960  222.3340 N   0  0  0  0  0  0  0  0  0  0  0  0
  140.3180   74.4750  221.5820 C   0  0  0  0  0  0  0  0  0  0  0  0
  139.7310   75.6330  221.4460 N   0  0  0  0  0  0  0  0  0  0  0  0
  139.7800   76.1200  220.5210 H   0  0  0  0  0  0  0  0  0  0  0  0
  139.0740   76.3440  222.5490 C   0  0  0  0  0  0  0  0  0  0  0  0
  138.0661   75.9281  222.6941 H   0  0  0  0  0  0  0  0  0  0  0  0
  139.6813   76.2152  223.4571 H   0  0  0  0  0  0  0  0  0  0  0  0
  138.9580   77.8450  222.2510 C   0  0  0  0  0  0  0  0  0  0  0  0
  139.1214   78.0123  221.1762 H   0  0  0  0  0  0  0  0  0  0  0  0
  137.9539   78.1846  222.5449 H   0  0  0  0  0  0  0  0  0  0  0  0
  140.0000   78.6460  223.0490 C   0  0  0  0  0  0  0  0  0  0  0  0
  139.8497   79.7172  222.8493 H   0  0  0  0  0  0  0  0  0  0  0  0
  139.8593   78.4089  224.1139 H   0  0  0  0  0  0  0  0  0  0  0  0
  141.4430   78.2730  222.6750 C   0  0  0  0  0  0  0  0  0  0  0  0
  142.1292   78.8059  223.3496 H   0  0  0  0  0  0  0  0  0  0  0  0
  141.5376   77.1815  222.7731 H   0  0  0  0  0  0  0  0  0  0  0  0
  141.7990   78.6380  221.2250 C   0  0  0  0  0  0  0  0  0  0  0  0
  141.2636   79.5556  220.9398 H   0  0  0  0  0  0  0  0  0  0  0  0
  142.8849   78.7975  221.1523 H   0  0  0  0  0  0  0  0  0  0  0  0
  141.4110   77.5420  220.3100 N   0  0  0  0  0  0  0  0  0  0  0  0
  142.5860   76.8100  219.8090 C   0  0  0  0  0  0  0  0  0  0  0  0
  143.4163   76.9046  220.5244 H   0  0  0  0  0  0  0  0  0  0  0  0
  142.3454   75.7435  219.6879 H   0  0  0  0  0  0  0  0  0  0  0  0
  142.9890   77.4140  218.4680 C   0  0  0  0  0  0  0  0  0  0  0  0
  143.9154   77.9978  218.5726 H   0  0  0  0  0  0  0  0  0  0  0  0
  143.1820   76.6375  217.7131 H   0  0  0  0  0  0  0  0  0  0  0  0
  141.8380   78.3150  218.0650 C   0  0  0  0  0  0  0  0  0  0  0  0
  142.1492   79.3699  218.0812 H   0  0  0  0  0  0  0  0  0  0  0  0
  141.4877   78.1048  217.0437 H   0  0  0  0  0  0  0  0  0  0  0  0
  140.7570   78.0620  219.1010 C   0  0  0  0  0  0  0  0  0  0  0  0
  140.2329   79.0009  219.3328 H   0  0  0  0  0  0  0  0  0  0  0  0
  140.0196   77.3399  218.7205 H   0  0  0  0  0  0  0  0  0  0  0  0
  141.5040   74.2410  220.9670 N   0  0  0  0  0  0  0  0  0  0  0  0
  142.1380   73.0450  221.1010 C   0  0  0  0  0  0  0  0  0  0  0  0
  143.4030   72.8230  220.4330 N   0  0  0  0  0  0  0  0  0  0  0  0
  144.6720   72.9640  221.1630 C   0  0  0  0  0  0  0  0  0  0  0  0
  144.4818   73.4781  222.1167 H   0  0  0  0  0  0  0  0  0  0  0  0
  145.0856   71.9600  221.3386 H   0  0  0  0  0  0  0  0  0  0  0  0
  145.7000   73.7800  220.3470 C   0  0  0  0  0  0  0  0  0  0  0  0
  145.6610   74.8261  220.6849 H   0  0  0  0  0  0  0  0  0  0  0  0
  146.6853   73.3220  220.5184 H   0  0  0  0  0  0  0  0  0  0  0  0
  145.4550   73.7500  218.8900 N   0  0  0  0  0  0  0  0  0  0  0  0
  146.3660   73.8850  218.3890 H   0  0  0  0  0  0  0  0  0  0  0  0
  144.8250   74.5450  218.6260 H   0  0  0  0  0  0  0  0  0  0  0  0
  144.8510   72.4860  218.4510 C   0  0  0  0  0  0  0  0  0  0  0  0
  144.7863   72.4752  217.3530 H   0  0  0  0  0  0  0  0  0  0  0  0
  145.4751   71.6486  218.7963 H   0  0  0  0  0  0  0  0  0  0  0  0
  143.4440   72.3430  219.0440 C   0  0  0  0  0  0  0  0  0  0  0  0
  142.7381   72.9316  218.4397 H   0  0  0  0  0  0  0  0  0  0  0  0
  143.1677   71.2783  219.0343 H   0  0  0  0  0  0  0  0  0  0  0  0
  141.5580   72.0670  221.8600 N   0  0  0  0  0  0  0  0  0  0  0  0
  142.0240   71.1410  221.9710 H   0  0  0  0  0  0  0  0  0  0  0  0
  139.4950   69.9290  222.6790 C   0  0  0  0  0  0  0  0  0  0  0  0
  140.4207   69.5958  222.1870 H   0  0  0  0  0  0  0  0  0  0  0  0
  138.6618   70.0252  221.9672 H   0  0  0  0  0  0  0  0  0  0  0  0
  139.0870   68.8720  223.7240 C   0  0  0  0  0  0  0  0  0  0  0  0
  139.3176   67.8711  223.3302 H   0  0  0  0  0  0  0  0  0  0  0  0
  138.0093   68.9747  223.9192 H   0  0  0  0  0  0  0  0  0  0  0  0
  1  2  1  0
  2  3  2  0
  3  4  1  0
  3  5  1  0
  5  6  1  0
  5  7  2  0
  7  8  1  0
  8  9  2  0
  9 10  1  0
  8 11  1  0
 11 12  1  0
 11 13  1  0
 11 14  1  0
 14 15  1  0
 15 16  2  0
 16 17  1  0
 17 18  2  0
 18 19  1  0
 18 20  1  0
 20 21  1  0
 20 22  1  0
 20 23  1  0
 23 24  1  0
 23 25  1  0
 23 26  1  0
 26 27  1  0
 26 28  1  0
 26 29  1  0
 29 30  1  0
 29 31  1  0
 29 32  1  0
 32 33  1  0
 32 34  1  0
 32 35  1  0
 35 36  1  0
 36 37  1  0
 36 38  1  0
 36 39  1  0
 39 40  1  0
 39 41  1  0
 39 42  1  0
 42 43  1  0
 42 44  1  0
 42 45  1  0
 45 46  1  0
 45 47  1  0
 17 48  1  0
 48 49  2  0
 49 50  1  0
 50 51  1  0
 51 52  1  0
 51 53  1  0
 51 54  1  0
 54 55  1  0
 54 56  1  0
 54 57  1  0
 57 58  1  0
 57 59  1  0
 57 60  1  0
 60 61  1  0
 60 62  1  0
 60 63  1  0
 63 64  1  0
 63 65  1  0
 49 66  1  0
 66 67  1  0
 14 68  1  0
 68 69  1  0
 68 70  1  0
 68 71  1  0
 71 72  1  0
 71 73  1  0
  9  2  1  0
 66 15  1  0
 71  7  1  0
 45 35  1  0
 63 50  1  0
M  CHG  2  18   1  57   1
M  END
>  <UniqueID>  (75) 
483

>  <SMILES>  (75) 
c1ccc2c(c1)CCN(c1n/c(=[NH+]\CCCCCN3CCCC3)nc(N3CC[NH2+]CC3)[nH]1)C2

>  <Energy>  (75) 
82.96491159646912

>  <Genealogy>  (75) 
c1ccc2c(c1)CCN(c1nc([NH2+]CCCCCN3CCCC3)nc(N3CC[NH2+]CC3)n1)C2 (protonated)
c1ccc2c(c1)CCN(c1nc(=[NH+]CCCCCN3CCCC3)nc(N3CC[NH2+]CC3)[nH]1)C2 (tautomer)
c1ccc2c(c1)CCN(c1n/c(=[NH+]\CCCCCN3CCCC3)nc(N3CC[NH2+]CC3)[nH]1)C2 (cis-trans isomerization)
c1ccc2c(c1)CCN(c1n/c(=[NH+]\CCCCCN3CCCC3)nc(N3CC[NH2+]CC3)[nH]1)C2 (3D coordinates assigned)
c1ccc2c(c1)CCN(c1n/c(=[NH+]\CCCCCN3CCCC3)nc(N3CC[NH2+]CC3)[nH]1)C2 (nonaromatic ring conformer: 82.96491159646912 kcal/mol)

>  <smiles>  (75) 
c1ccc2c(c1)CCN(c1nc(NCCCCCN3CCCC3)nc(N3CCNCC3)n1)C2

>  <score_type>  (75) 
oracle

>  <origin>  (75) 
autodockgpu

>  <m_score__min__energy>  (75) 
-9.7300000000000004

>  <m_primary>  (75) 
energy

>  <meeko>  (75) 
{"free_energy": -7.32, "intermolecular_energy": -10.0, "internal_energy": -1.72, "cluster_size": 4, "cluster_id": 5, "rank_in_cluster": 3}

>  <energy>  (75) 
-7.32

>  <cluster_rmsd>  (75) 
1.37

>  <rmsd>  (75) 
271.21

>  <cluster>  (75) 
5

$$$$
MTUVCRSRZGPGQU-NMOKVYIGNA-P
     RDKit          3D

 73 77  0  0  0  0  0  0  0  0999 V2000
  141.5394   69.7615  228.4548 H   0  0  0  0  0  0  0  0  0  0  0  0
  141.0530   69.5700  227.4870 C   0  0  0  0  0  0  0  0  0  0  0  0
  140.9230   68.2580  227.0180 C   0  0  0  0  0  0  0  0  0  0  0  0
  141.3090   67.4203  227.6174 H   0  0  0  0  0  0  0  0  0  0  0  0
  140.3030   68.0090  225.7880 C   0  0  0  0  0  0  0  0  0  0  0  0
  140.1892   66.9758  225.4280 H   0  0  0  0  0  0  0  0  0  0  0  0
  139.8270   69.0780  225.0150 C   0  0  0  0  0  0  0  0  0  0  0  0
  139.9550   70.3940  225.4880 C   0  0  0  0  0  0  0  0  0  0  0  0
  140.5660   70.6370  226.7280 C   0  0  0  0  0  0  0  0  0  0  0  0
  140.6613   71.6671  227.1020 H   0  0  0  0  0  0  0  0  0  0  0  0
  139.4010   71.5070  224.6510 C   0  0  0  0  0  0  0  0  0  0  0  0
  139.8625   72.4585  224.9536 H   0  0  0  0  0  0  0  0  0  0  0  0
  138.3119   71.5671  224.7937 H   0  0  0  0  0  0  0  0  0  0  0  0
  139.6980   71.2460  223.2310 N   0  0  0  0  0  0  0  0  0  0  0  0
  140.3130   72.2750  222.4300 C   0  0  0  0  0  0  0  0  0  0  0  0
  139.7290   73.4970  222.3450 N   0  0  0  0  0  0  0  0  0  0  0  0
  140.2750   74.4800  221.5880 C   0  0  0  0  0  0  0  0  0  0  0  0
  139.7080   75.6520  221.5030 N   0  0  0  0  0  0  0  0  0  0  0  0
  139.7090   76.1500  220.5830 H   0  0  0  0  0  0  0  0  0  0  0  0
  139.1360   76.3620  222.6530 C   0  0  0  0  0  0  0  0  0  0  0  0
  138.0387   76.3097  222.5972 H   0  0  0  0  0  0  0  0  0  0  0  0
  139.5011   75.8839  223.5739 H   0  0  0  0  0  0  0  0  0  0  0  0
  139.5670   77.8360  222.6670 C   0  0  0  0  0  0  0  0  0  0  0  0
  139.0630   78.3665  221.8457 H   0  0  0  0  0  0  0  0  0  0  0  0
  139.2876   78.2748  223.6362 H   0  0  0  0  0  0  0  0  0  0  0  0
  141.0890   77.9640  222.4900 C   0  0  0  0  0  0  0  0  0  0  0  0
  141.5471   78.1167  223.4784 H   0  0  0  0  0  0  0  0  0  0  0  0
  141.4483   77.0391  222.0151 H   0  0  0  0  0  0  0  0  0  0  0  0
  141.4810   79.1380  221.5790 C   0  0  0  0  0  0  0  0  0  0  0  0
  140.7415   79.9425  221.7052 H   0  0  0  0  0  0  0  0  0  0  0  0
  142.4908   79.4610  221.8723 H   0  0  0  0  0  0  0  0  0  0  0  0
  141.5340   78.7490  220.0930 C   0  0  0  0  0  0  0  0  0  0  0  0
  140.6887   79.2152  219.5656 H   0  0  0  0  0  0  0  0  0  0  0  0
  142.4849   79.0995  219.6653 H   0  0  0  0  0  0  0  0  0  0  0  0
  141.4520   77.2790  219.9430 N   0  0  0  0  0  0  0  0  0  0  0  0
  142.7870   76.6660  219.8520 C   0  0  0  0  0  0  0  0  0  0  0  0
  143.5265   77.3085  220.3523 H   0  0  0  0  0  0  0  0  0  0  0  0
  142.7870   75.6815  220.3427 H   0  0  0  0  0  0  0  0  0  0  0  0
  143.1450   76.5190  218.3770 C   0  0  0  0  0  0  0  0  0  0  0  0
  143.9161   77.2507  218.0941 H   0  0  0  0  0  0  0  0  0  0  0  0
  143.5515   75.5215  218.1540 H   0  0  0  0  0  0  0  0  0  0  0  0
  141.8600   76.7840  217.6180 C   0  0  0  0  0  0  0  0  0  0  0  0
  141.9379   77.7170  217.0406 H   0  0  0  0  0  0  0  0  0  0  0  0
  141.6346   75.9842  216.8972 H   0  0  0  0  0  0  0  0  0  0  0  0
  140.7880   76.9060  218.6860 C   0  0  0  0  0  0  0  0  0  0  0  0
  140.0616   77.6814  218.4013 H   0  0  0  0  0  0  0  0  0  0  0  0
  140.2488   75.9542  218.8021 H   0  0  0  0  0  0  0  0  0  0  0  0
  141.4280   74.2360  220.9150 N   0  0  0  0  0  0  0  0  0  0  0  0
  142.0420   73.0250  220.9950 C   0  0  0  0  0  0  0  0  0  0  0  0
  143.2700   72.7930  220.2650 N   0  0  0  0  0  0  0  0  0  0  0  0
  144.5570   72.6950  220.9710 C   0  0  0  0  0  0  0  0  0  0  0  0
  144.4312   73.0666  221.9987 H   0  0  0  0  0  0  0  0  0  0  0  0
  144.8720   71.6411  220.9741 H   0  0  0  0  0  0  0  0  0  0  0  0
  145.6490   73.5280  220.2650 C   0  0  0  0  0  0  0  0  0  0  0  0
  145.7173   74.5061  220.7636 H   0  0  0  0  0  0  0  0  0  0  0  0
  146.5866   72.9570  220.3349 H   0  0  0  0  0  0  0  0  0  0  0  0
  145.3840   73.7530  218.8290 N   0  0  0  0  0  0  0  0  0  0  0  0
  146.2970   73.8790  218.3300 H   0  0  0  0  0  0  0  0  0  0  0  0
  144.8310   74.6360  218.7100 H   0  0  0  0  0  0  0  0  0  0  0  0
  144.6530   72.6380  218.2140 C   0  0  0  0  0  0  0  0  0  0  0  0
  144.5732   72.8083  217.1302 H   0  0  0  0  0  0  0  0  0  0  0  0
  145.1962   71.7008  218.4053 H   0  0  0  0  0  0  0  0  0  0  0  0
  143.2470   72.5370  218.8170 C   0  0  0  0  0  0  0  0  0  0  0  0
  142.5944   73.2778  218.3319 H   0  0  0  0  0  0  0  0  0  0  0  0
  142.8683   71.5180  218.6493 H   0  0  0  0  0  0  0  0  0  0  0  0
  141.4780   72.0430  221.7600 N   0  0  0  0  0  0  0  0  0  0  0  0
  141.9280   71.1060  221.8300 H   0  0  0  0  0  0  0  0  0  0  0  0
  139.5000   69.8990  222.6590 C   0  0  0  0  0  0  0  0  0  0  0  0
  140.4377   69.5807  222.1801 H   0  0  0  0  0  0  0  0  0  0  0  0
  138.6720   69.9672  221.9381 H   0  0  0  0  0  0  0  0  0  0  0  0
  139.1060   68.8470  223.7130 C   0  0  0  0  0  0  0  0  0  0  0  0
  139.3629   67.8468  223.3340 H   0  0  0  0  0  0  0  0  0  0  0  0
  138.0245   68.9285  223.8965 H   0  0  0  0  0  0  0  0  0  0  0  0
  1  2  1  0
  2  3  2  0
  3  4  1  0
  3  5  1  0
  5  6  1  0
  5  7  2  0
  7  8  1  0
  8  9  2  0
  9 10  1  0
  8 11  1  0
 11 12  1  0
 11 13  1  0
 11 14  1  0
 14 15  1  0
 15 16  2  0
 16 17  1  0
 17 18  2  0
 18 19  1  0
 18 20  1  0
 20 21  1  0
 20 22  1  0
 20 23  1  0
 23 24  1  0
 23 25  1  0
 23 26  1  0
 26 27  1  0
 26 28  1  0
 26 29  1  0
 29 30  1  0
 29 31  1  0
 29 32  1  0
 32 33  1  0
 32 34  1  0
 32 35  1  0
 35 36  1  0
 36 37  1  0
 36 38  1  0
 36 39  1  0
 39 40  1  0
 39 41  1  0
 39 42  1  0
 42 43  1  0
 42 44  1  0
 42 45  1  0
 45 46  1  0
 45 47  1  0
 17 48  1  0
 48 49  2  0
 49 50  1  0
 50 51  1  0
 51 52  1  0
 51 53  1  0
 51 54  1  0
 54 55  1  0
 54 56  1  0
 54 57  1  0
 57 58  1  0
 57 59  1  0
 57 60  1  0
 60 61  1  0
 60 62  1  0
 60 63  1  0
 63 64  1  0
 63 65  1  0
 49 66  1  0
 66 67  1  0
 14 68  1  0
 68 69  1  0
 68 70  1  0
 68 71  1  0
 71 72  1  0
 71 73  1  0
  9  2  1  0
 66 15  1  0
 71  7  1  0
 45 35  1  0
 63 50  1  0
M  CHG  2  18   1  57   1
M  END
>  <UniqueID>  (76) 
483

>  <SMILES>  (76) 
c1ccc2c(c1)CCN(c1n/c(=[NH+]\CCCCCN3CCCC3)nc(N3CC[NH2+]CC3)[nH]1)C2

>  <Energy>  (76) 
82.96491159646912

>  <Genealogy>  (76) 
c1ccc2c(c1)CCN(c1nc([NH2+]CCCCCN3CCCC3)nc(N3CC[NH2+]CC3)n1)C2 (protonated)
c1ccc2c(c1)CCN(c1nc(=[NH+]CCCCCN3CCCC3)nc(N3CC[NH2+]CC3)[nH]1)C2 (tautomer)
c1ccc2c(c1)CCN(c1n/c(=[NH+]\CCCCCN3CCCC3)nc(N3CC[NH2+]CC3)[nH]1)C2 (cis-trans isomerization)
c1ccc2c(c1)CCN(c1n/c(=[NH+]\CCCCCN3CCCC3)nc(N3CC[NH2+]CC3)[nH]1)C2 (3D coordinates assigned)
c1ccc2c(c1)CCN(c1n/c(=[NH+]\CCCCCN3CCCC3)nc(N3CC[NH2+]CC3)[nH]1)C2 (nonaromatic ring conformer: 82.96491159646912 kcal/mol)

>  <smiles>  (76) 
c1ccc2c(c1)CCN(c1nc(NCCCCCN3CCCC3)nc(N3CCNCC3)n1)C2

>  <score_type>  (76) 
oracle

>  <origin>  (76) 
autodockgpu

>  <m_score__min__energy>  (76) 
-9.7300000000000004

>  <m_primary>  (76) 
energy

>  <meeko>  (76) 
{"free_energy": -7.09, "intermolecular_energy": -9.78, "internal_energy": -1.94, "cluster_size": 4, "cluster_id": 5, "rank_in_cluster": 4}

>  <energy>  (76) 
-7.09

>  <cluster_rmsd>  (76) 
1.45

>  <rmsd>  (76) 
271.08

>  <cluster>  (76) 
5

$$$$
MTUVCRSRZGPGQU-NMOKVYIGNA-P
     RDKit          3D

 73 77  0  0  0  0  0  0  0  0999 V2000
  145.8292   73.2467  221.4068 H   0  0  0  0  0  0  0  0  0  0  0  0
  145.3370   73.5820  220.4820 C   0  0  0  0  0  0  0  0  0  0  0  0
  145.7900   73.1180  219.2430 C   0  0  0  0  0  0  0  0  0  0  0  0
  146.6376   72.4185  219.1952 H   0  0  0  0  0  0  0  0  0  0  0  0
  145.1670   73.5420  218.0640 C   0  0  0  0  0  0  0  0  0  0  0  0
  145.5169   73.1659  217.0913 H   0  0  0  0  0  0  0  0  0  0  0  0
  144.0970   74.4460  218.1220 C   0  0  0  0  0  0  0  0  0  0  0  0
  143.6410   74.9080  219.3670 C   0  0  0  0  0  0  0  0  0  0  0  0
  144.2600   74.4710  220.5480 C   0  0  0  0  0  0  0  0  0  0  0  0
  143.8985   74.8272  221.5239 H   0  0  0  0  0  0  0  0  0  0  0  0
  142.4710   75.8450  219.3920 C   0  0  0  0  0  0  0  0  0  0  0  0
  142.4482   76.3780  220.3540 H   0  0  0  0  0  0  0  0  0  0  0  0
  141.5396   75.2730  219.2685 H   0  0  0  0  0  0  0  0  0  0  0  0
  142.6000   76.8190  218.2930 N   0  0  0  0  0  0  0  0  0  0  0  0
  142.4750   78.2290  218.5710 C   0  0  0  0  0  0  0  0  0  0  0  0
  142.0580   78.6350  219.7960 N   0  0  0  0  0  0  0  0  0  0  0  0
  141.9150   79.9530  220.0830 C   0  0  0  0  0  0  0  0  0  0  0  0
  141.5090   80.3410  221.2610 N   0  0  0  0  0  0  0  0  0  0  0  0
  140.5980   80.8500  221.3390 H   0  0  0  0  0  0  0  0  0  0  0  0
  142.3010   80.1820  222.4850 C   0  0  0  0  0  0  0  0  0  0  0  0
  143.3464   79.9760  222.2115 H   0  0  0  0  0  0  0  0  0  0  0  0
  142.2283   81.1110  223.0696 H   0  0  0  0  0  0  0  0  0  0  0  0
  141.7710   79.0250  223.3440 C   0  0  0  0  0  0  0  0  0  0  0  0
  142.5985   78.3369  223.5715 H   0  0  0  0  0  0  0  0  0  0  0  0
  141.3504   79.4402  224.2718 H   0  0  0  0  0  0  0  0  0  0  0  0
  140.6650   78.2550  222.6050 C   0  0  0  0  0  0  0  0  0  0  0  0
  139.7466   78.2908  223.2094 H   0  0  0  0  0  0  0  0  0  0  0  0
  140.5241   78.7332  221.6244 H   0  0  0  0  0  0  0  0  0  0  0  0
  141.0340   76.7840  222.3570 C   0  0  0  0  0  0  0  0  0  0  0  0
  141.9106   76.7493  221.6934 H   0  0  0  0  0  0  0  0  0  0  0  0
  141.2424   76.3269  223.3356 H   0  0  0  0  0  0  0  0  0  0  0  0
  139.8950   75.9820  221.7070 C   0  0  0  0  0  0  0  0  0  0  0  0
  138.9298   76.4249  221.9937 H   0  0  0  0  0  0  0  0  0  0  0  0
  140.0140   76.0130  220.6139 H   0  0  0  0  0  0  0  0  0  0  0  0
  139.9380   74.5730  222.1560 N   0  0  0  0  0  0  0  0  0  0  0  0
  141.0940   73.8570  221.5910 C   0  0  0  0  0  0  0  0  0  0  0  0
  141.8953   74.5724  221.3541 H   0  0  0  0  0  0  0  0  0  0  0  0
  141.4786   73.1250  222.3165 H   0  0  0  0  0  0  0  0  0  0  0  0
  140.6420   73.1490  220.3190 C   0  0  0  0  0  0  0  0  0  0  0  0
  141.0483   73.6568  219.4318 H   0  0  0  0  0  0  0  0  0  0  0  0
  140.9966   72.1083  220.2843 H   0  0  0  0  0  0  0  0  0  0  0  0
  139.1280   73.2260  220.3260 C   0  0  0  0  0  0  0  0  0  0  0  0
  138.7703   73.8716  219.5104 H   0  0  0  0  0  0  0  0  0  0  0  0
  138.6643   72.2400  220.1749 H   0  0  0  0  0  0  0  0  0  0  0  0
  138.7690   73.8230  221.6750 C   0  0  0  0  0  0  0  0  0  0  0  0
  137.9078   74.4990  221.5685 H   0  0  0  0  0  0  0  0  0  0  0  0
  138.4993   73.0301  222.3882 H   0  0  0  0  0  0  0  0  0  0  0  0
  142.2030   80.8740  219.1290 N   0  0  0  0  0  0  0  0  0  0  0  0
  142.6370   80.4930  217.8970 C   0  0  0  0  0  0  0  0  0  0  0  0
  142.9350   81.4990  216.8990 N   0  0  0  0  0  0  0  0  0  0  0  0
  142.0630   81.6740  215.7270 C   0  0  0  0  0  0  0  0  0  0  0  0
  141.3920   80.8061  215.6464 H   0  0  0  0  0  0  0  0  0  0  0  0
  141.4851   82.6007  215.8585 H   0  0  0  0  0  0  0  0  0  0  0  0
  142.8900   81.7940  214.4270 C   0  0  0  0  0  0  0  0  0  0  0  0
  142.9359   80.8034  213.9511 H   0  0  0  0  0  0  0  0  0  0  0  0
  142.3883   82.5393  213.7924 H   0  0  0  0  0  0  0  0  0  0  0  0
  144.2710   82.2710  214.6480 N   0  0  0  0  0  0  0  0  0  0  0  0
  144.6030   82.7650  213.7850 H   0  0  0  0  0  0  0  0  0  0  0  0
  144.9030   81.4500  214.8080 H   0  0  0  0  0  0  0  0  0  0  0  0
  144.3700   83.1870  215.7900 C   0  0  0  0  0  0  0  0  0  0  0  0
  145.3918   83.5906  215.8458 H   0  0  0  0  0  0  0  0  0  0  0  0
  143.6511   84.0089  215.6571 H   0  0  0  0  0  0  0  0  0  0  0  0
  144.0470   82.4410  217.0900 C   0  0  0  0  0  0  0  0  0  0  0  0
  144.9379   81.8836  217.4148 H   0  0  0  0  0  0  0  0  0  0  0  0
  143.7525   83.1784  217.8513 H   0  0  0  0  0  0  0  0  0  0  0  0
  142.7730   79.1610  217.6220 N   0  0  0  0  0  0  0  0  0  0  0  0
  143.0970   78.8480  216.6830 H   0  0  0  0  0  0  0  0  0  0  0  0
  142.9950   76.3750  216.9410 C   0  0  0  0  0  0  0  0  0  0  0  0
  143.8656   76.9654  216.6192 H   0  0  0  0  0  0  0  0  0  0  0  0
  142.1282   76.5250  216.2806 H   0  0  0  0  0  0  0  0  0  0  0  0
  143.3660   74.8810  216.8790 C   0  0  0  0  0  0  0  0  0  0  0  0
  144.0112   74.7081  216.0050 H   0  0  0  0  0  0  0  0  0  0  0  0
  142.4378   74.2960  216.7997 H   0  0  0  0  0  0  0  0  0  0  0  0
  1  2  1  0
  2  3  2  0
  3  4  1  0
  3  5  1  0
  5  6  1  0
  5  7  2  0
  7  8  1  0
  8  9  2  0
  9 10  1  0
  8 11  1  0
 11 12  1  0
 11 13  1  0
 11 14  1  0
 14 15  1  0
 15 16  2  0
 16 17  1  0
 17 18  2  0
 18 19  1  0
 18 20  1  0
 20 21  1  0
 20 22  1  0
 20 23  1  0
 23 24  1  0
 23 25  1  0
 23 26  1  0
 26 27  1  0
 26 28  1  0
 26 29  1  0
 29 30  1  0
 29 31  1  0
 29 32  1  0
 32 33  1  0
 32 34  1  0
 32 35  1  0
 35 36  1  0
 36 37  1  0
 36 38  1  0
 36 39  1  0
 39 40  1  0
 39 41  1  0
 39 42  1  0
 42 43  1  0
 42 44  1  0
 42 45  1  0
 45 46  1  0
 45 47  1  0
 17 48  1  0
 48 49  2  0
 49 50  1  0
 50 51  1  0
 51 52  1  0
 51 53  1  0
 51 54  1  0
 54 55  1  0
 54 56  1  0
 54 57  1  0
 57 58  1  0
 57 59  1  0
 57 60  1  0
 60 61  1  0
 60 62  1  0
 60 63  1  0
 63 64  1  0
 63 65  1  0
 49 66  1  0
 66 67  1  0
 14 68  1  0
 68 69  1  0
 68 70  1  0
 68 71  1  0
 71 72  1  0
 71 73  1  0
  9  2  1  0
 66 15  1  0
 71  7  1  0
 45 35  1  0
 63 50  1  0
M  CHG  2  18   1  57   1
M  END
>  <UniqueID>  (77) 
483

>  <SMILES>  (77) 
c1ccc2c(c1)CCN(c1n/c(=[NH+]\CCCCCN3CCCC3)nc(N3CC[NH2+]CC3)[nH]1)C2

>  <Energy>  (77) 
82.96491159646912

>  <Genealogy>  (77) 
c1ccc2c(c1)CCN(c1nc([NH2+]CCCCCN3CCCC3)nc(N3CC[NH2+]CC3)n1)C2 (protonated)
c1ccc2c(c1)CCN(c1nc(=[NH+]CCCCCN3CCCC3)nc(N3CC[NH2+]CC3)[nH]1)C2 (tautomer)
c1ccc2c(c1)CCN(c1n/c(=[NH+]\CCCCCN3CCCC3)nc(N3CC[NH2+]CC3)[nH]1)C2 (cis-trans isomerization)
c1ccc2c(c1)CCN(c1n/c(=[NH+]\CCCCCN3CCCC3)nc(N3CC[NH2+]CC3)[nH]1)C2 (3D coordinates assigned)
c1ccc2c(c1)CCN(c1n/c(=[NH+]\CCCCCN3CCCC3)nc(N3CC[NH2+]CC3)[nH]1)C2 (nonaromatic ring conformer: 82.96491159646912 kcal/mol)

>  <smiles>  (77) 
c1ccc2c(c1)CCN(c1nc(NCCCCCN3CCCC3)nc(N3CCNCC3)n1)C2

>  <score_type>  (77) 
oracle

>  <origin>  (77) 
autodockgpu

>  <m_score__min__energy>  (77) 
-9.7300000000000004

>  <m_primary>  (77) 
energy

>  <meeko>  (77) 
{"free_energy": -8.35, "intermolecular_energy": -11.03, "internal_energy": -1.39, "cluster_size": 8, "cluster_id": 3, "rank_in_cluster": 1}

>  <energy>  (77) 
-7.14

>  <cluster_rmsd>  (77) 
0.0

>  <rmsd>  (77) 
270.94

>  <cluster>  (77) 
6

$$$$
MTUVCRSRZGPGQU-NMOKVYIGNA-P
     RDKit          3D

 73 77  0  0  0  0  0  0  0  0999 V2000
  145.5146   72.9822  221.9159 H   0  0  0  0  0  0  0  0  0  0  0  0
  145.2000   73.3360  220.9230 C   0  0  0  0  0  0  0  0  0  0  0  0
  145.9010   72.9300  219.7830 C   0  0  0  0  0  0  0  0  0  0  0  0
  146.7666   72.2585  219.8818 H   0  0  0  0  0  0  0  0  0  0  0  0
  145.5050   73.3750  218.5180 C   0  0  0  0  0  0  0  0  0  0  0  0
  146.0499   73.0425  217.6222 H   0  0  0  0  0  0  0  0  0  0  0  0
  144.4120   74.2460  218.3920 C   0  0  0  0  0  0  0  0  0  0  0  0
  143.7070   74.6500  219.5370 C   0  0  0  0  0  0  0  0  0  0  0  0
  144.1010   74.1900  220.8030 C   0  0  0  0  0  0  0  0  0  0  0  0
  143.5451   74.5015  221.6996 H   0  0  0  0  0  0  0  0  0  0  0  0
  142.5210   75.5510  219.3600 C   0  0  0  0  0  0  0  0  0  0  0  0
  142.2926   76.0490  220.3139 H   0  0  0  0  0  0  0  0  0  0  0  0
  141.6520   74.9568  219.0408 H   0  0  0  0  0  0  0  0  0  0  0  0
  142.8270   76.5660  218.3360 N   0  0  0  0  0  0  0  0  0  0  0  0
  142.5990   77.9610  218.6240 C   0  0  0  0  0  0  0  0  0  0  0  0
  142.1680   78.3280  219.8570 N   0  0  0  0  0  0  0  0  0  0  0  0
  141.9300   79.6300  220.1530 C   0  0  0  0  0  0  0  0  0  0  0  0
  141.5090   79.9800  221.3380 N   0  0  0  0  0  0  0  0  0  0  0  0
  141.4750   80.9960  221.5830 H   0  0  0  0  0  0  0  0  0  0  0  0
  141.1590   79.0190  222.3910 C   0  0  0  0  0  0  0  0  0  0  0  0
  141.5134   78.0199  222.0974 H   0  0  0  0  0  0  0  0  0  0  0  0
  141.6369   79.3396  223.3285 H   0  0  0  0  0  0  0  0  0  0  0  0
  139.6400   78.9670  222.6120 C   0  0  0  0  0  0  0  0  0  0  0  0
  139.4142   79.2904  223.6389 H   0  0  0  0  0  0  0  0  0  0  0  0
  139.1559   79.6343  221.8838 H   0  0  0  0  0  0  0  0  0  0  0  0
  139.1040   77.5420  222.4040 C   0  0  0  0  0  0  0  0  0  0  0  0
  139.1582   77.0021  223.3609 H   0  0  0  0  0  0  0  0  0  0  0  0
  138.0683   77.6252  222.0430 H   0  0  0  0  0  0  0  0  0  0  0  0
  139.9020   76.7580  221.3510 C   0  0  0  0  0  0  0  0  0  0  0  0
  139.1954   76.3141  220.6342 H   0  0  0  0  0  0  0  0  0  0  0  0
  140.5894   77.4655  220.8643 H   0  0  0  0  0  0  0  0  0  0  0  0
  140.7540   75.6330  221.9600 C   0  0  0  0  0  0  0  0  0  0  0  0
  141.6342   75.4595  221.3235 H   0  0  0  0  0  0  0  0  0  0  0  0
  141.0716   75.9320  222.9698 H   0  0  0  0  0  0  0  0  0  0  0  0
  139.9660   74.3840  222.0540 N   0  0  0  0  0  0  0  0  0  0  0  0
  140.8230   73.1910  221.9530 C   0  0  0  0  0  0  0  0  0  0  0  0
  141.8433   73.4368  222.2826 H   0  0  0  0  0  0  0  0  0  0  0  0
  140.4303   72.3867  222.5924 H   0  0  0  0  0  0  0  0  0  0  0  0
  140.8460   72.7410  220.4970 C   0  0  0  0  0  0  0  0  0  0  0  0
  141.8198   72.9700  220.0395 H   0  0  0  0  0  0  0  0  0  0  0  0
  140.6946   71.6555  220.4036 H   0  0  0  0  0  0  0  0  0  0  0  0
  139.7420   73.5230  219.8120 C   0  0  0  0  0  0  0  0  0  0  0  0
  140.1651   74.2359  219.0890 H   0  0  0  0  0  0  0  0  0  0  0  0
  139.0614   72.8679  219.2484 H   0  0  0  0  0  0  0  0  0  0  0  0
  139.0270   74.2590  220.9300 C   0  0  0  0  0  0  0  0  0  0  0  0
  138.7202   75.2575  220.5851 H   0  0  0  0  0  0  0  0  0  0  0  0
  138.1262   73.7087  221.2395 H   0  0  0  0  0  0  0  0  0  0  0  0
  142.1380   80.5750  219.2030 N   0  0  0  0  0  0  0  0  0  0  0  0
  142.5840   80.2350  217.9630 C   0  0  0  0  0  0  0  0  0  0  0  0
  142.7950   81.2650  216.9680 N   0  0  0  0  0  0  0  0  0  0  0  0
  141.9000   81.3820  215.8070 C   0  0  0  0  0  0  0  0  0  0  0  0
  141.2939   80.4675  215.7280 H   0  0  0  0  0  0  0  0  0  0  0  0
  141.2572   82.2630  215.9509 H   0  0  0  0  0  0  0  0  0  0  0  0
  142.7000   81.5700  214.5000 C   0  0  0  0  0  0  0  0  0  0  0  0
  142.8137   80.5880  214.0176 H   0  0  0  0  0  0  0  0  0  0  0  0
  142.1368   82.2798  213.8764 H   0  0  0  0  0  0  0  0  0  0  0  0
  144.0440   82.1470  214.7070 N   0  0  0  0  0  0  0  0  0  0  0  0
  144.3280   82.6700  213.8440 H   0  0  0  0  0  0  0  0  0  0  0  0
  144.7370   81.3750  214.8550 H   0  0  0  0  0  0  0  0  0  0  0  0
  144.0880   83.0620  215.8550 C   0  0  0  0  0  0  0  0  0  0  0  0
  145.0776   83.5399  215.9023 H   0  0  0  0  0  0  0  0  0  0  0  0
  143.3087   83.8291  215.7355 H   0  0  0  0  0  0  0  0  0  0  0  0
  143.8360   82.2860  217.1540 C   0  0  0  0  0  0  0  0  0  0  0  0
  144.7695   81.7945  217.4655 H   0  0  0  0  0  0  0  0  0  0  0  0
  143.4962   82.9947  217.9236 H   0  0  0  0  0  0  0  0  0  0  0  0
  142.8160   78.9180  217.6780 N   0  0  0  0  0  0  0  0  0  0  0  0
  143.1530   78.6360  216.7340 H   0  0  0  0  0  0  0  0  0  0  0  0
  143.4920   76.1820  217.0740 C   0  0  0  0  0  0  0  0  0  0  0  0
  144.3867   76.8087  216.9447 H   0  0  0  0  0  0  0  0  0  0  0  0
  142.7653   76.3299  216.2616 H   0  0  0  0  0  0  0  0  0  0  0  0
  143.9210   74.7020  217.0440 C   0  0  0  0  0  0  0  0  0  0  0  0
  144.7290   74.5783  216.3080 H   0  0  0  0  0  0  0  0  0  0  0  0
  143.0469   74.0933  216.7694 H   0  0  0  0  0  0  0  0  0  0  0  0
  1  2  1  0
  2  3  2  0
  3  4  1  0
  3  5  1  0
  5  6  1  0
  5  7  2  0
  7  8  1  0
  8  9  2  0
  9 10  1  0
  8 11  1  0
 11 12  1  0
 11 13  1  0
 11 14  1  0
 14 15  1  0
 15 16  2  0
 16 17  1  0
 17 18  2  0
 18 19  1  0
 18 20  1  0
 20 21  1  0
 20 22  1  0
 20 23  1  0
 23 24  1  0
 23 25  1  0
 23 26  1  0
 26 27  1  0
 26 28  1  0
 26 29  1  0
 29 30  1  0
 29 31  1  0
 29 32  1  0
 32 33  1  0
 32 34  1  0
 32 35  1  0
 35 36  1  0
 36 37  1  0
 36 38  1  0
 36 39  1  0
 39 40  1  0
 39 41  1  0
 39 42  1  0
 42 43  1  0
 42 44  1  0
 42 45  1  0
 45 46  1  0
 45 47  1  0
 17 48  1  0
 48 49  2  0
 49 50  1  0
 50 51  1  0
 51 52  1  0
 51 53  1  0
 51 54  1  0
 54 55  1  0
 54 56  1  0
 54 57  1  0
 57 58  1  0
 57 59  1  0
 57 60  1  0
 60 61  1  0
 60 62  1  0
 60 63  1  0
 63 64  1  0
 63 65  1  0
 49 66  1  0
 66 67  1  0
 14 68  1  0
 68 69  1  0
 68 70  1  0
 68 71  1  0
 71 72  1  0
 71 73  1  0
  9  2  1  0
 66 15  1  0
 71  7  1  0
 45 35  1  0
 63 50  1  0
M  CHG  2  18   1  57   1
M  END
>  <UniqueID>  (78) 
483

>  <SMILES>  (78) 
c1ccc2c(c1)CCN(c1n/c(=[NH+]\CCCCCN3CCCC3)nc(N3CC[NH2+]CC3)[nH]1)C2

>  <Energy>  (78) 
82.96491159646912

>  <Genealogy>  (78) 
c1ccc2c(c1)CCN(c1nc([NH2+]CCCCCN3CCCC3)nc(N3CC[NH2+]CC3)n1)C2 (protonated)
c1ccc2c(c1)CCN(c1nc(=[NH+]CCCCCN3CCCC3)nc(N3CC[NH2+]CC3)[nH]1)C2 (tautomer)
c1ccc2c(c1)CCN(c1n/c(=[NH+]\CCCCCN3CCCC3)nc(N3CC[NH2+]CC3)[nH]1)C2 (cis-trans isomerization)
c1ccc2c(c1)CCN(c1n/c(=[NH+]\CCCCCN3CCCC3)nc(N3CC[NH2+]CC3)[nH]1)C2 (3D coordinates assigned)
c1ccc2c(c1)CCN(c1n/c(=[NH+]\CCCCCN3CCCC3)nc(N3CC[NH2+]CC3)[nH]1)C2 (nonaromatic ring conformer: 82.96491159646912 kcal/mol)

>  <smiles>  (78) 
c1ccc2c(c1)CCN(c1nc(NCCCCCN3CCCC3)nc(N3CCNCC3)n1)C2

>  <score_type>  (78) 
oracle

>  <origin>  (78) 
autodockgpu

>  <m_score__min__energy>  (78) 
-9.7300000000000004

>  <m_primary>  (78) 
energy

>  <meeko>  (78) 
{"free_energy": -7.73, "intermolecular_energy": -10.42, "internal_energy": -1.52, "cluster_size": 8, "cluster_id": 3, "rank_in_cluster": 7}

>  <energy>  (78) 
-6.5

>  <cluster_rmsd>  (78) 
0.56

>  <rmsd>  (78) 
270.89

>  <cluster>  (78) 
6

$$$$
MTUVCRSRZGPGQU-NMOKVYIGNA-P
     RDKit          3D

 73 77  0  0  0  0  0  0  0  0999 V2000
  145.4722   73.2400  221.8009 H   0  0  0  0  0  0  0  0  0  0  0  0
  145.0750   73.5740  220.8310 C   0  0  0  0  0  0  0  0  0  0  0  0
  145.6290   73.0840  219.6430 C   0  0  0  0  0  0  0  0  0  0  0  0
  146.4614   72.3659  219.6812 H   0  0  0  0  0  0  0  0  0  0  0  0
  145.1270   73.5050  218.4070 C   0  0  0  0  0  0  0  0  0  0  0  0
  145.5557   73.1083  217.4749 H   0  0  0  0  0  0  0  0  0  0  0  0
  144.0770   74.4330  218.3570 C   0  0  0  0  0  0  0  0  0  0  0  0
  143.5200   74.9220  219.5500 C   0  0  0  0  0  0  0  0  0  0  0  0
  144.0180   74.4870  220.7870 C   0  0  0  0  0  0  0  0  0  0  0  0
  143.5770   74.8642  221.7215 H   0  0  0  0  0  0  0  0  0  0  0  0
  142.3740   75.8840  219.4560 C   0  0  0  0  0  0  0  0  0  0  0  0
  142.2739   76.4294  220.4060 H   0  0  0  0  0  0  0  0  0  0  0  0
  141.4456   75.3304  219.2522 H   0  0  0  0  0  0  0  0  0  0  0  0
  142.6260   76.8410  218.3640 N   0  0  0  0  0  0  0  0  0  0  0  0
  142.5080   78.2560  218.6130 C   0  0  0  0  0  0  0  0  0  0  0  0
  142.1000   78.6900  219.8320 N   0  0  0  0  0  0  0  0  0  0  0  0
  141.9650   80.0140  220.0920 C   0  0  0  0  0  0  0  0  0  0  0  0
  141.5660   80.4280  221.2630 N   0  0  0  0  0  0  0  0  0  0  0  0
  140.5490   80.6170  221.4140 H   0  0  0  0  0  0  0  0  0  0  0  0
  142.4810   80.7310  222.3710 C   0  0  0  0  0  0  0  0  0  0  0  0
  143.5168   80.5835  222.0313 H   0  0  0  0  0  0  0  0  0  0  0  0
  142.3188   81.7739  222.6809 H   0  0  0  0  0  0  0  0  0  0  0  0
  142.2150   79.8190  223.5770 C   0  0  0  0  0  0  0  0  0  0  0  0
  143.1755   79.5295  224.0283 H   0  0  0  0  0  0  0  0  0  0  0  0
  141.5988   80.3686  224.3038 H   0  0  0  0  0  0  0  0  0  0  0  0
  141.4570   78.5510  223.1500 C   0  0  0  0  0  0  0  0  0  0  0  0
  141.6062   78.3980  222.0710 H   0  0  0  0  0  0  0  0  0  0  0  0
  141.8554   77.7110  223.7380 H   0  0  0  0  0  0  0  0  0  0  0  0
  139.9500   78.6410  223.4300 C   0  0  0  0  0  0  0  0  0  0  0  0
  139.6198   77.6933  223.8804 H   0  0  0  0  0  0  0  0  0  0  0  0
  139.7909   79.4939  224.1062 H   0  0  0  0  0  0  0  0  0  0  0  0
  139.1190   78.8970  222.1630 C   0  0  0  0  0  0  0  0  0  0  0  0
  139.7586   78.7678  221.2774 H   0  0  0  0  0  0  0  0  0  0  0  0
  138.2838   78.1818  222.1325 H   0  0  0  0  0  0  0  0  0  0  0  0
  138.5740   80.2730  222.1750 N   0  0  0  0  0  0  0  0  0  0  0  0
  138.9980   81.0150  223.3740 C   0  0  0  0  0  0  0  0  0  0  0  0
  139.9439   80.6006  223.7528 H   0  0  0  0  0  0  0  0  0  0  0  0
  139.1514   82.0763  223.1288 H   0  0  0  0  0  0  0  0  0  0  0  0
  137.9110   80.8720  224.4340 C   0  0  0  0  0  0  0  0  0  0  0  0
  138.2452   80.2008  225.2389 H   0  0  0  0  0  0  0  0  0  0  0  0
  137.6680   81.8377  224.9013 H   0  0  0  0  0  0  0  0  0  0  0  0
  136.7150   80.2800  223.7130 C   0  0  0  0  0  0  0  0  0  0  0  0
  136.5153   79.2589  224.0700 H   0  0  0  0  0  0  0  0  0  0  0  0
  135.7979   80.8612  223.8894 H   0  0  0  0  0  0  0  0  0  0  0  0
  137.1060   80.2650  222.2460 C   0  0  0  0  0  0  0  0  0  0  0  0
  136.7124   79.3587  221.7626 H   0  0  0  0  0  0  0  0  0  0  0  0
  136.6903   81.1415  221.7274 H   0  0  0  0  0  0  0  0  0  0  0  0
  142.2510   80.9140  219.1180 N   0  0  0  0  0  0  0  0  0  0  0  0
  142.6760   80.5060  217.8920 C   0  0  0  0  0  0  0  0  0  0  0  0
  142.9740   81.4890  216.8710 N   0  0  0  0  0  0  0  0  0  0  0  0
  142.1320   81.6010  215.6690 C   0  0  0  0  0  0  0  0  0  0  0  0
  141.4903   80.7105  215.5963 H   0  0  0  0  0  0  0  0  0  0  0  0
  141.5226   82.5127  215.7547 H   0  0  0  0  0  0  0  0  0  0  0  0
  142.9930   81.7070  214.3910 C   0  0  0  0  0  0  0  0  0  0  0  0
  143.0827   80.7042  213.9478 H   0  0  0  0  0  0  0  0  0  0  0  0
  142.4881   82.4171  213.7195 H   0  0  0  0  0  0  0  0  0  0  0  0
  144.3520   82.2330  214.6360 N   0  0  0  0  0  0  0  0  0  0  0  0
  144.6940   82.7110  213.7680 H   0  0  0  0  0  0  0  0  0  0  0  0
  145.0030   81.4370  214.8390 H   0  0  0  0  0  0  0  0  0  0  0  0
  144.3890   83.1860  215.7510 C   0  0  0  0  0  0  0  0  0  0  0  0
  145.3959   83.6228  215.8237 H   0  0  0  0  0  0  0  0  0  0  0  0
  143.6498   83.9806  215.5716 H   0  0  0  0  0  0  0  0  0  0  0  0
  144.0500   82.4700  217.0640 C   0  0  0  0  0  0  0  0  0  0  0  0
  144.9473   81.9508  217.4317 H   0  0  0  0  0  0  0  0  0  0  0  0
  143.7106   83.2207  217.7928 H   0  0  0  0  0  0  0  0  0  0  0  0
  142.8050   79.1680  217.6430 N   0  0  0  0  0  0  0  0  0  0  0  0
  143.1230   78.8340  216.7090 H   0  0  0  0  0  0  0  0  0  0  0  0
  143.1330   76.3700  217.0580 C   0  0  0  0  0  0  0  0  0  0  0  0
  144.0429   76.9366  216.8107 H   0  0  0  0  0  0  0  0  0  0  0  0
  142.3343   76.5304  216.3189 H   0  0  0  0  0  0  0  0  0  0  0  0
  143.4730   74.8680  217.0480 C   0  0  0  0  0  0  0  0  0  0  0  0
  144.1910   74.6689  216.2388 H   0  0  0  0  0  0  0  0  0  0  0  0
  142.5421   74.3032  216.8914 H   0  0  0  0  0  0  0  0  0  0  0  0
  1  2  1  0
  2  3  2  0
  3  4  1  0
  3  5  1  0
  5  6  1  0
  5  7  2  0
  7  8  1  0
  8  9  2  0
  9 10  1  0
  8 11  1  0
 11 12  1  0
 11 13  1  0
 11 14  1  0
 14 15  1  0
 15 16  2  0
 16 17  1  0
 17 18  2  0
 18 19  1  0
 18 20  1  0
 20 21  1  0
 20 22  1  0
 20 23  1  0
 23 24  1  0
 23 25  1  0
 23 26  1  0
 26 27  1  0
 26 28  1  0
 26 29  1  0
 29 30  1  0
 29 31  1  0
 29 32  1  0
 32 33  1  0
 32 34  1  0
 32 35  1  0
 35 36  1  0
 36 37  1  0
 36 38  1  0
 36 39  1  0
 39 40  1  0
 39 41  1  0
 39 42  1  0
 42 43  1  0
 42 44  1  0
 42 45  1  0
 45 46  1  0
 45 47  1  0
 17 48  1  0
 48 49  2  0
 49 50  1  0
 50 51  1  0
 51 52  1  0
 51 53  1  0
 51 54  1  0
 54 55  1  0
 54 56  1  0
 54 57  1  0
 57 58  1  0
 57 59  1  0
 57 60  1  0
 60 61  1  0
 60 62  1  0
 60 63  1  0
 63 64  1  0
 63 65  1  0
 49 66  1  0
 66 67  1  0
 14 68  1  0
 68 69  1  0
 68 70  1  0
 68 71  1  0
 71 72  1  0
 71 73  1  0
  9  2  1  0
 66 15  1  0
 71  7  1  0
 45 35  1  0
 63 50  1  0
M  CHG  2  18   1  57   1
M  END
>  <UniqueID>  (79) 
483

>  <SMILES>  (79) 
c1ccc2c(c1)CCN(c1n/c(=[NH+]\CCCCCN3CCCC3)nc(N3CC[NH2+]CC3)[nH]1)C2

>  <Energy>  (79) 
82.96491159646912

>  <Genealogy>  (79) 
c1ccc2c(c1)CCN(c1nc([NH2+]CCCCCN3CCCC3)nc(N3CC[NH2+]CC3)n1)C2 (protonated)
c1ccc2c(c1)CCN(c1nc(=[NH+]CCCCCN3CCCC3)nc(N3CC[NH2+]CC3)[nH]1)C2 (tautomer)
c1ccc2c(c1)CCN(c1n/c(=[NH+]\CCCCCN3CCCC3)nc(N3CC[NH2+]CC3)[nH]1)C2 (cis-trans isomerization)
c1ccc2c(c1)CCN(c1n/c(=[NH+]\CCCCCN3CCCC3)nc(N3CC[NH2+]CC3)[nH]1)C2 (3D coordinates assigned)
c1ccc2c(c1)CCN(c1n/c(=[NH+]\CCCCCN3CCCC3)nc(N3CC[NH2+]CC3)[nH]1)C2 (nonaromatic ring conformer: 82.96491159646912 kcal/mol)

>  <smiles>  (79) 
c1ccc2c(c1)CCN(c1nc(NCCCCCN3CCCC3)nc(N3CCNCC3)n1)C2

>  <score_type>  (79) 
oracle

>  <origin>  (79) 
autodockgpu

>  <m_score__min__energy>  (79) 
-9.7300000000000004

>  <m_primary>  (79) 
energy

>  <meeko>  (79) 
{"free_energy": -7.89, "intermolecular_energy": -10.58, "internal_energy": -1.52, "cluster_size": 8, "cluster_id": 3, "rank_in_cluster": 6}

>  <energy>  (79) 
-7.03

>  <cluster_rmsd>  (79) 
0.0

>  <rmsd>  (79) 
270.89

>  <cluster>  (79) 
7

$$$$
MTUVCRSRZGPGQU-NMOKVYIGNA-P
     RDKit          3D

 73 77  0  0  0  0  0  0  0  0999 V2000
  144.1576   81.2210  223.4272 H   0  0  0  0  0  0  0  0  0  0  0  0
  143.1350   80.8300  223.3200 C   0  0  0  0  0  0  0  0  0  0  0  0
  142.1170   81.3000  224.1560 C   0  0  0  0  0  0  0  0  0  0  0  0
  142.3411   82.0591  224.9200 H   0  0  0  0  0  0  0  0  0  0  0  0
  140.8140   80.8070  224.0230 C   0  0  0  0  0  0  0  0  0  0  0  0
  140.0124   81.1881  224.6727 H   0  0  0  0  0  0  0  0  0  0  0  0
  140.5310   79.8270  223.0610 C   0  0  0  0  0  0  0  0  0  0  0  0
  141.5530   79.3580  222.2200 C   0  0  0  0  0  0  0  0  0  0  0  0
  142.8560   79.8650  222.3490 C   0  0  0  0  0  0  0  0  0  0  0  0
  143.6560   79.5029  221.6865 H   0  0  0  0  0  0  0  0  0  0  0  0
  141.2050   78.3370  221.1790 C   0  0  0  0  0  0  0  0  0  0  0  0
  142.1200   77.8241  220.8476 H   0  0  0  0  0  0  0  0  0  0  0  0
  140.7330   78.8350  220.3192 H   0  0  0  0  0  0  0  0  0  0  0  0
  140.2700   77.3530  221.7520 N   0  0  0  0  0  0  0  0  0  0  0  0
  140.5500   75.9440  221.6240 C   0  0  0  0  0  0  0  0  0  0  0  0
  139.6330   75.0380  222.0470 N   0  0  0  0  0  0  0  0  0  0  0  0
  139.8720   73.7070  221.9530 C   0  0  0  0  0  0  0  0  0  0  0  0
  138.9910   72.8380  222.3660 N   0  0  0  0  0  0  0  0  0  0  0  0
  138.4960   73.0110  223.2710 H   0  0  0  0  0  0  0  0  0  0  0  0
  138.7120   71.5740  221.6750 C   0  0  0  0  0  0  0  0  0  0  0  0
  137.9370   71.7452  220.9134 H   0  0  0  0  0  0  0  0  0  0  0  0
  139.6432   71.2196  221.2089 H   0  0  0  0  0  0  0  0  0  0  0  0
  138.2210   70.5000  222.6560 C   0  0  0  0  0  0  0  0  0  0  0  0
  137.1621   70.2830  222.4521 H   0  0  0  0  0  0  0  0  0  0  0  0
  138.8315   69.5950  222.5209 H   0  0  0  0  0  0  0  0  0  0  0  0
  138.3660   70.9780  224.1100 C   0  0  0  0  0  0  0  0  0  0  0  0
  138.4061   72.0772  224.1171 H   0  0  0  0  0  0  0  0  0  0  0  0
  137.4999   70.5998  224.6729 H   0  0  0  0  0  0  0  0  0  0  0  0
  139.6340   70.4350  224.7870 C   0  0  0  0  0  0  0  0  0  0  0  0
  139.3565   70.0109  225.7633 H   0  0  0  0  0  0  0  0  0  0  0  0
  140.0657   69.6754  224.1187 H   0  0  0  0  0  0  0  0  0  0  0  0
  140.7030   71.5160  225.0080 C   0  0  0  0  0  0  0  0  0  0  0  0
  141.3397   71.5849  224.1137 H   0  0  0  0  0  0  0  0  0  0  0  0
  140.2050   72.4796  225.1911 H   0  0  0  0  0  0  0  0  0  0  0  0
  141.5420   71.1770  226.1800 N   0  0  0  0  0  0  0  0  0  0  0  0
  141.0830   69.9430  226.8380 C   0  0  0  0  0  0  0  0  0  0  0  0
  140.5520   69.3096  226.1122 H   0  0  0  0  0  0  0  0  0  0  0  0
  141.9424   69.3814  227.2331 H   0  0  0  0  0  0  0  0  0  0  0  0
  140.1400   70.3290  227.9730 C   0  0  0  0  0  0  0  0  0  0  0  0
  139.1008   70.0829  227.7095 H   0  0  0  0  0  0  0  0  0  0  0  0
  140.3739   69.7848  228.8999 H   0  0  0  0  0  0  0  0  0  0  0  0
  140.3020   71.8260  228.1450 C   0  0  0  0  0  0  0  0  0  0  0  0
  139.3795   72.3501  227.8546 H   0  0  0  0  0  0  0  0  0  0  0  0
  140.5062   72.1010  229.1903 H   0  0  0  0  0  0  0  0  0  0  0  0
  141.4460   72.2090  227.2220 C   0  0  0  0  0  0  0  0  0  0  0  0
  141.2454   73.1881  226.7626 H   0  0  0  0  0  0  0  0  0  0  0  0
  142.3888   72.2786  227.7843 H   0  0  0  0  0  0  0  0  0  0  0  0
  141.0440   73.2800  221.4190 N   0  0  0  0  0  0  0  0  0  0  0  0
  141.9750   74.1670  220.9740 C   0  0  0  0  0  0  0  0  0  0  0  0
  143.2170   73.6830  220.4110 N   0  0  0  0  0  0  0  0  0  0  0  0
  143.2440   72.4620  219.5900 C   0  0  0  0  0  0  0  0  0  0  0  0
  142.2938   71.9228  219.7182 H   0  0  0  0  0  0  0  0  0  0  0  0
  143.3872   72.7532  218.5390 H   0  0  0  0  0  0  0  0  0  0  0  0
  144.4080   71.5350  220.0020 C   0  0  0  0  0  0  0  0  0  0  0  0
  144.0194   70.7769  220.6979 H   0  0  0  0  0  0  0  0  0  0  0  0
  144.8081   71.0894  219.0793 H   0  0  0  0  0  0  0  0  0  0  0  0
  145.5240   72.2450  220.6600 N   0  0  0  0  0  0  0  0  0  0  0  0
  146.4130   71.7170  220.4880 H   0  0  0  0  0  0  0  0  0  0  0  0
  145.3610   72.2680  221.6950 H   0  0  0  0  0  0  0  0  0  0  0  0
  145.6820   73.6180  220.1650 C   0  0  0  0  0  0  0  0  0  0  0  0
  146.5839   74.0640  220.6096 H   0  0  0  0  0  0  0  0  0  0  0  0
  145.7770   73.5981  219.0693 H   0  0  0  0  0  0  0  0  0  0  0  0
  144.4580   74.4580  220.5490 C   0  0  0  0  0  0  0  0  0  0  0  0
  144.5616   74.7864  221.5937 H   0  0  0  0  0  0  0  0  0  0  0  0
  144.4044   75.3245  219.8735 H   0  0  0  0  0  0  0  0  0  0  0  0
  141.7200   75.5060  221.0780 N   0  0  0  0  0  0  0  0  0  0  0  0
  142.4210   76.2030  220.7490 H   0  0  0  0  0  0  0  0  0  0  0  0
  139.1260   77.7960  222.5760 C   0  0  0  0  0  0  0  0  0  0  0  0
  139.1620   77.2659  223.5392 H   0  0  0  0  0  0  0  0  0  0  0  0
  138.2084   77.5668  222.0143 H   0  0  0  0  0  0  0  0  0  0  0  0
  139.1310   79.3120  222.8500 C   0  0  0  0  0  0  0  0  0  0  0  0
  138.5351   79.5148  223.7521 H   0  0  0  0  0  0  0  0  0  0  0  0
  138.7016   79.8236  221.9760 H   0  0  0  0  0  0  0  0  0  0  0  0
  1  2  1  0
  2  3  2  0
  3  4  1  0
  3  5  1  0
  5  6  1  0
  5  7  2  0
  7  8  1  0
  8  9  2  0
  9 10  1  0
  8 11  1  0
 11 12  1  0
 11 13  1  0
 11 14  1  0
 14 15  1  0
 15 16  2  0
 16 17  1  0
 17 18  2  0
 18 19  1  0
 18 20  1  0
 20 21  1  0
 20 22  1  0
 20 23  1  0
 23 24  1  0
 23 25  1  0
 23 26  1  0
 26 27  1  0
 26 28  1  0
 26 29  1  0
 29 30  1  0
 29 31  1  0
 29 32  1  0
 32 33  1  0
 32 34  1  0
 32 35  1  0
 35 36  1  0
 36 37  1  0
 36 38  1  0
 36 39  1  0
 39 40  1  0
 39 41  1  0
 39 42  1  0
 42 43  1  0
 42 44  1  0
 42 45  1  0
 45 46  1  0
 45 47  1  0
 17 48  1  0
 48 49  2  0
 49 50  1  0
 50 51  1  0
 51 52  1  0
 51 53  1  0
 51 54  1  0
 54 55  1  0
 54 56  1  0
 54 57  1  0
 57 58  1  0
 57 59  1  0
 57 60  1  0
 60 61  1  0
 60 62  1  0
 60 63  1  0
 63 64  1  0
 63 65  1  0
 49 66  1  0
 66 67  1  0
 14 68  1  0
 68 69  1  0
 68 70  1  0
 68 71  1  0
 71 72  1  0
 71 73  1  0
  9  2  1  0
 66 15  1  0
 71  7  1  0
 45 35  1  0
 63 50  1  0
M  CHG  2  18   1  57   1
M  END
>  <UniqueID>  (80) 
483

>  <SMILES>  (80) 
c1ccc2c(c1)CCN(c1n/c(=[NH+]\CCCCCN3CCCC3)nc(N3CC[NH2+]CC3)[nH]1)C2

>  <Energy>  (80) 
82.96491159646912

>  <Genealogy>  (80) 
c1ccc2c(c1)CCN(c1nc([NH2+]CCCCCN3CCCC3)nc(N3CC[NH2+]CC3)n1)C2 (protonated)
c1ccc2c(c1)CCN(c1nc(=[NH+]CCCCCN3CCCC3)nc(N3CC[NH2+]CC3)[nH]1)C2 (tautomer)
c1ccc2c(c1)CCN(c1n/c(=[NH+]\CCCCCN3CCCC3)nc(N3CC[NH2+]CC3)[nH]1)C2 (cis-trans isomerization)
c1ccc2c(c1)CCN(c1n/c(=[NH+]\CCCCCN3CCCC3)nc(N3CC[NH2+]CC3)[nH]1)C2 (3D coordinates assigned)
c1ccc2c(c1)CCN(c1n/c(=[NH+]\CCCCCN3CCCC3)nc(N3CC[NH2+]CC3)[nH]1)C2 (nonaromatic ring conformer: 82.96491159646912 kcal/mol)

>  <smiles>  (80) 
c1ccc2c(c1)CCN(c1nc(NCCCCCN3CCCC3)nc(N3CCNCC3)n1)C2

>  <score_type>  (80) 
oracle

>  <origin>  (80) 
autodockgpu

>  <m_score__min__energy>  (80) 
-9.7300000000000004

>  <m_primary>  (80) 
energy

>  <meeko>  (80) 
{"free_energy": -9.73, "intermolecular_energy": -12.41, "internal_energy": -0.49, "cluster_size": 2, "cluster_id": 1, "rank_in_cluster": 1}

>  <energy>  (80) 
-6.69

>  <cluster_rmsd>  (80) 
0.0

>  <rmsd>  (80) 
271.05

>  <cluster>  (80) 
8

$$$$
