
     RDKit          3D

 45 48  0  0  0  0  0  0  0  0999 V2000
  138.0990   68.5260  225.6500 O   0  0  0  0  0  0  0  0  0  0  0  0
  137.9020   69.4560  224.8240 C   0  0  0  0  0  0  0  0  0  0  0  0
  136.6020   69.7900  224.5660 C   0  0  0  0  0  0  0  0  0  0  0  0
  135.5660   69.1460  225.1780 C   0  0  0  0  0  0  0  0  0  0  0  0
  134.2830   69.5510  224.8570 C   0  0  0  0  0  0  0  0  0  0  0  0
  134.0710   70.5690  223.9490 C   0  0  0  0  0  0  0  0  0  0  0  0
  132.4220   71.0740  223.5500 Cl  0  0  0  0  0  0  0  0  0  0  0  0
  135.1250   71.2310  223.3190 C   0  0  0  0  0  0  0  0  0  0  0  0
  136.3890   70.8020  223.6620 C   0  0  0  0  0  0  0  0  0  0  0  0
  137.4330   71.3810  223.1090 N   0  0  0  0  0  0  0  0  0  0  0  0
  138.7460   71.0800  223.3390 C   0  0  0  0  0  0  0  0  0  0  0  0
  139.7010   71.8110  222.5590 C   0  0  0  0  0  0  0  0  0  0  0  0
  140.7550   71.3720  221.8270 C   0  0  0  0  0  0  0  0  0  0  0  0
  141.6270   72.2310  221.1380 C   0  0  0  0  0  0  0  0  0  0  0  0
  141.4210   73.5870  221.1940 C   0  0  0  0  0  0  0  0  0  0  0  0
  140.3900   74.0280  221.9100 N   0  0  0  0  0  0  0  0  0  0  0  0
  139.5590   73.2150  222.5660 C   0  0  0  0  0  0  0  0  0  0  0  0
  138.9670   70.0970  224.2150 N   0  0  0  0  0  0  0  0  0  0  0  0
  140.2490   69.6190  224.6040 C   0  0  0  0  0  0  0  0  0  0  0  0
  140.9620   70.3220  225.6950 C   0  0  0  0  0  0  0  0  0  0  0  0
  140.5910   71.7660  225.9170 C   0  0  0  0  0  0  0  0  0  0  0  0
  141.4600   72.2010  227.1170 C   0  0  0  0  0  0  0  0  0  0  0  0
  140.7600   71.6600  228.3480 C   0  0  0  0  0  0  0  0  0  0  0  0
  139.9490   70.4170  228.0040 C   0  0  0  0  0  0  0  0  0  0  0  0
  140.6970   69.5770  226.9860 C   0  0  0  0  0  0  0  0  0  0  0  0
  135.7446   68.3352  225.8996 H   0  0  0  0  0  0  0  0  0  0  0  0
  133.4221   69.0564  225.3305 H   0  0  0  0  0  0  0  0  0  0  0  0
  134.9581   72.0426  222.5955 H   0  0  0  0  0  0  0  0  0  0  0  0
  140.9361   70.2885  221.7700 H   0  0  0  0  0  0  0  0  0  0  0  0
  142.4674   71.8208  220.5588 H   0  0  0  0  0  0  0  0  0  0  0  0
  142.0859   74.2854  220.6648 H   0  0  0  0  0  0  0  0  0  0  0  0
  138.7289   73.6579  223.1358 H   0  0  0  0  0  0  0  0  0  0  0  0
  140.1240   68.5724  224.9188 H   0  0  0  0  0  0  0  0  0  0  0  0
  140.8795   69.7853  223.7181 H   0  0  0  0  0  0  0  0  0  0  0  0
  142.0180   70.3324  225.3870 H   0  0  0  0  0  0  0  0  0  0  0  0
  140.8241   72.3697  225.0275 H   0  0  0  0  0  0  0  0  0  0  0  0
  139.5156   71.9002  226.1053 H   0  0  0  0  0  0  0  0  0  0  0  0
  142.4709   71.7756  227.0326 H   0  0  0  0  0  0  0  0  0  0  0  0
  141.5725   73.2943  227.1616 H   0  0  0  0  0  0  0  0  0  0  0  0
  141.5129   71.4012  229.1070 H   0  0  0  0  0  0  0  0  0  0  0  0
  140.0778   72.4315  228.7345 H   0  0  0  0  0  0  0  0  0  0  0  0
  139.7855   69.8244  228.9162 H   0  0  0  0  0  0  0  0  0  0  0  0
  138.9810   70.7224  227.5800 H   0  0  0  0  0  0  0  0  0  0  0  0
  141.6605   69.2726  227.4207 H   0  0  0  0  0  0  0  0  0  0  0  0
  140.0668   68.7083  226.7448 H   0  0  0  0  0  0  0  0  0  0  0  0
  1  2  2  0
  2  3  1  0
  3  4  2  0
  4  5  1  0
  5  6  2  0
  6  7  1  0
  6  8  1  0
  8  9  2  0
  9 10  1  0
 10 11  2  0
 11 12  1  0
 12 13  2  0
 13 14  1  0
 14 15  2  0
 15 16  1  0
 16 17  2  0
 11 18  1  0
 18 19  1  0
 19 20  1  0
 20 21  1  0
 21 22  1  0
 22 23  1  0
 23 24  1  0
 24 25  1  0
 18  2  1  0
 25 20  1  0
  9  3  1  0
 17 12  1  0
  4 26  1  0
  5 27  1  0
  8 28  1  0
 13 29  1  0
 14 30  1  0
 15 31  1  0
 17 32  1  0
 19 33  1  0
 19 34  1  0
 20 35  1  0
 21 36  1  0
 21 37  1  0
 22 38  1  0
 22 39  1  0
 23 40  1  0
 23 41  1  0
 24 42  1  0
 24 43  1  0
 25 44  1  0
 25 45  1  0
M  END
>  <smiles>  (1) 
O=c1c2ccc(Cl)cc2nc(-c2cccnc2)n1CC1CCCCC1

>  <score_type>  (1) 
oracle

>  <origin>  (1) 
autodockgpu

>  <m_score__min__energy>  (1) 
-6.9400000000000004

>  <m_primary>  (1) 
energy

>  <meeko>  (1) 
{"free_energy": -6.72, "intermolecular_energy": -7.61, "internal_energy": -1.32, "cluster_size": 1, "cluster_id": 2, "rank_in_cluster": 1}

>  <energy>  (1) 
-6.94

>  <cluster_rmsd>  (1) 
0.0

>  <rmsd>  (1) 
272.61

>  <cluster>  (1) 
1

$$$$

     RDKit          3D

 45 48  0  0  0  0  0  0  0  0999 V2000
  140.3870   75.0960  222.1040 O   0  0  0  0  0  0  0  0  0  0  0  0
  141.1730   75.5280  221.2210 C   0  0  0  0  0  0  0  0  0  0  0  0
  142.1050   74.6510  220.7400 C   0  0  0  0  0  0  0  0  0  0  0  0
  142.1750   73.3660  221.1930 C   0  0  0  0  0  0  0  0  0  0  0  0
  143.1490   72.5480  220.6480 C   0  0  0  0  0  0  0  0  0  0  0  0
  144.0110   73.0260  219.6820 C   0  0  0  0  0  0  0  0  0  0  0  0
  145.2510   71.9660  218.9960 Cl  0  0  0  0  0  0  0  0  0  0  0  0
  143.9460   74.3390  219.2140 C   0  0  0  0  0  0  0  0  0  0  0  0
  142.9650   75.1250  219.7790 C   0  0  0  0  0  0  0  0  0  0  0  0
  142.8420   76.3740  219.3860 N   0  0  0  0  0  0  0  0  0  0  0  0
  141.9270   77.2820  219.8390 C   0  0  0  0  0  0  0  0  0  0  0  0
  142.0410   78.6060  219.3010 C   0  0  0  0  0  0  0  0  0  0  0  0
  141.8760   79.8130  219.8990 C   0  0  0  0  0  0  0  0  0  0  0  0
  141.9910   81.0340  219.2160 C   0  0  0  0  0  0  0  0  0  0  0  0
  142.2850   81.0310  217.8750 C   0  0  0  0  0  0  0  0  0  0  0  0
  142.4480   79.8530  217.2790 N   0  0  0  0  0  0  0  0  0  0  0  0
  142.3400   78.6890  217.9240 C   0  0  0  0  0  0  0  0  0  0  0  0
  141.0850   76.8340  220.7740 N   0  0  0  0  0  0  0  0  0  0  0  0
  140.0560   77.6030  221.3850 C   0  0  0  0  0  0  0  0  0  0  0  0
  140.3710   78.3390  222.6310 C   0  0  0  0  0  0  0  0  0  0  0  0
  141.8260   78.6410  222.8810 C   0  0  0  0  0  0  0  0  0  0  0  0
  141.8270   79.4290  224.2090 C   0  0  0  0  0  0  0  0  0  0  0  0
  141.4260   80.8450  223.8450 C   0  0  0  0  0  0  0  0  0  0  0  0
  140.5610   80.8550  222.5910 C   0  0  0  0  0  0  0  0  0  0  0  0
  139.6280   79.6590  222.5970 C   0  0  0  0  0  0  0  0  0  0  0  0
  141.4829   72.9940  221.9628 H   0  0  0  0  0  0  0  0  0  0  0  0
  143.2371   71.5057  220.9883 H   0  0  0  0  0  0  0  0  0  0  0  0
  144.6327   74.7216  218.4446 H   0  0  0  0  0  0  0  0  0  0  0  0
  141.6403   79.8357  220.9732 H   0  0  0  0  0  0  0  0  0  0  0  0
  141.8468   81.9846  219.7504 H   0  0  0  0  0  0  0  0  0  0  0  0
  142.3825   81.9711  217.3123 H   0  0  0  0  0  0  0  0  0  0  0  0
  142.4901   77.7569  217.3594 H   0  0  0  0  0  0  0  0  0  0  0  0
  139.7217   78.3450  220.6449 H   0  0  0  0  0  0  0  0  0  0  0  0
  139.3086   76.8572  221.6936 H   0  0  0  0  0  0  0  0  0  0  0  0
  140.0643   77.6675  223.4465 H   0  0  0  0  0  0  0  0  0  0  0  0
  142.4061   77.7115  222.9785 H   0  0  0  0  0  0  0  0  0  0  0  0
  142.2869   79.2047  222.0564 H   0  0  0  0  0  0  0  0  0  0  0  0
  141.1028   78.9943  224.9137 H   0  0  0  0  0  0  0  0  0  0  0  0
  142.8115   79.3986  224.6988 H   0  0  0  0  0  0  0  0  0  0  0  0
  140.8586   81.2850  224.6784 H   0  0  0  0  0  0  0  0  0  0  0  0
  142.3363   81.4312  223.6510 H   0  0  0  0  0  0  0  0  0  0  0  0
  139.9672   81.7806  222.5651 H   0  0  0  0  0  0  0  0  0  0  0  0
  141.2093   80.8038  221.7038 H   0  0  0  0  0  0  0  0  0  0  0  0
  138.9809   79.7217  223.4843 H   0  0  0  0  0  0  0  0  0  0  0  0
  139.0440   79.6881  221.6653 H   0  0  0  0  0  0  0  0  0  0  0  0
  1  2  2  0
  2  3  1  0
  3  4  2  0
  4  5  1  0
  5  6  2  0
  6  7  1  0
  6  8  1  0
  8  9  2  0
  9 10  1  0
 10 11  2  0
 11 12  1  0
 12 13  2  0
 13 14  1  0
 14 15  2  0
 15 16  1  0
 16 17  2  0
 11 18  1  0
 18 19  1  0
 19 20  1  0
 20 21  1  0
 21 22  1  0
 22 23  1  0
 23 24  1  0
 24 25  1  0
 18  2  1  0
 25 20  1  0
  9  3  1  0
 17 12  1  0
  4 26  1  0
  5 27  1  0
  8 28  1  0
 13 29  1  0
 14 30  1  0
 15 31  1  0
 17 32  1  0
 19 33  1  0
 19 34  1  0
 20 35  1  0
 21 36  1  0
 21 37  1  0
 22 38  1  0
 22 39  1  0
 23 40  1  0
 23 41  1  0
 24 42  1  0
 24 43  1  0
 25 44  1  0
 25 45  1  0
M  END
>  <smiles>  (2) 
O=c1c2ccc(Cl)cc2nc(-c2cccnc2)n1CC1CCCCC1

>  <score_type>  (2) 
oracle

>  <origin>  (2) 
autodockgpu

>  <m_score__min__energy>  (2) 
-6.9400000000000004

>  <m_primary>  (2) 
energy

>  <meeko>  (2) 
{"free_energy": -6.89, "intermolecular_energy": -7.78, "internal_energy": -1.24, "cluster_size": 19, "cluster_id": 1, "rank_in_cluster": 16}

>  <energy>  (2) 
-6.94

>  <cluster_rmsd>  (2) 
0.03

>  <rmsd>  (2) 
272.63

>  <cluster>  (2) 
1

$$$$

     RDKit          3D

 45 48  0  0  0  0  0  0  0  0999 V2000
  140.3910   75.0300  222.1220 O   0  0  0  0  0  0  0  0  0  0  0  0
  141.1850   75.4640  221.2470 C   0  0  0  0  0  0  0  0  0  0  0  0
  142.1210   74.5880  220.7720 C   0  0  0  0  0  0  0  0  0  0  0  0
  142.1870   73.3020  221.2220 C   0  0  0  0  0  0  0  0  0  0  0  0
  143.1660   72.4850  220.6840 C   0  0  0  0  0  0  0  0  0  0  0  0
  144.0370   72.9660  219.7270 C   0  0  0  0  0  0  0  0  0  0  0  0
  145.2830   71.9070  219.0490 Cl  0  0  0  0  0  0  0  0  0  0  0  0
  143.9760   74.2800  219.2620 C   0  0  0  0  0  0  0  0  0  0  0  0
  142.9900   75.0650  219.8200 C   0  0  0  0  0  0  0  0  0  0  0  0
  142.8700   76.3150  219.4280 N   0  0  0  0  0  0  0  0  0  0  0  0
  141.9510   77.2220  219.8760 C   0  0  0  0  0  0  0  0  0  0  0  0
  142.0700   78.5470  219.3430 C   0  0  0  0  0  0  0  0  0  0  0  0
  141.8430   79.7510  219.9250 C   0  0  0  0  0  0  0  0  0  0  0  0
  141.9740   80.9740  219.2470 C   0  0  0  0  0  0  0  0  0  0  0  0
  142.3500   80.9750  217.9270 C   0  0  0  0  0  0  0  0  0  0  0  0
  142.5740   79.7990  217.3460 N   0  0  0  0  0  0  0  0  0  0  0  0
  142.4500   78.6350  217.9860 C   0  0  0  0  0  0  0  0  0  0  0  0
  141.1010   76.7720  220.8020 N   0  0  0  0  0  0  0  0  0  0  0  0
  140.0670   77.5390  221.4070 C   0  0  0  0  0  0  0  0  0  0  0  0
  140.3770   78.2900  222.6440 C   0  0  0  0  0  0  0  0  0  0  0  0
  141.8250   78.6410  222.8700 C   0  0  0  0  0  0  0  0  0  0  0  0
  141.8210   79.4340  224.1950 C   0  0  0  0  0  0  0  0  0  0  0  0
  141.3660   80.8340  223.8330 C   0  0  0  0  0  0  0  0  0  0  0  0
  140.4810   80.8100  222.5940 C   0  0  0  0  0  0  0  0  0  0  0  0
  139.5900   79.5840  222.6190 C   0  0  0  0  0  0  0  0  0  0  0  0
  141.4878   72.9281  221.9844 H   0  0  0  0  0  0  0  0  0  0  0  0
  143.2510   71.4418  221.0224 H   0  0  0  0  0  0  0  0  0  0  0  0
  144.6696   74.6645  218.4997 H   0  0  0  0  0  0  0  0  0  0  0  0
  141.5407   79.7705  220.9825 H   0  0  0  0  0  0  0  0  0  0  0  0
  141.7771   81.9221  219.7689 H   0  0  0  0  0  0  0  0  0  0  0  0
  142.4624   81.9159  217.3684 H   0  0  0  0  0  0  0  0  0  0  0  0
  142.6521   77.7054  217.4337 H   0  0  0  0  0  0  0  0  0  0  0  0
  139.7256   78.2706  220.6598 H   0  0  0  0  0  0  0  0  0  0  0  0
  139.3267   76.7901  221.7248 H   0  0  0  0  0  0  0  0  0  0  0  0
  140.1056   77.6114  223.4661 H   0  0  0  0  0  0  0  0  0  0  0  0
  142.4370   77.7316  222.9616 H   0  0  0  0  0  0  0  0  0  0  0  0
  142.2538   79.2163  222.0363 H   0  0  0  0  0  0  0  0  0  0  0  0
  141.1238   78.9777  224.9131 H   0  0  0  0  0  0  0  0  0  0  0  0
  142.8139   79.4392  224.6684 H   0  0  0  0  0  0  0  0  0  0  0  0
  140.7978   81.2576  224.6742 H   0  0  0  0  0  0  0  0  0  0  0  0
  142.2526   81.4500  223.6219 H   0  0  0  0  0  0  0  0  0  0  0  0
  139.8557   81.7148  222.5750 H   0  0  0  0  0  0  0  0  0  0  0  0
  141.1160   80.7774  221.6964 H   0  0  0  0  0  0  0  0  0  0  0  0
  138.9562   79.6278  223.5170 H   0  0  0  0  0  0  0  0  0  0  0  0
  138.9901   79.5903  221.6970 H   0  0  0  0  0  0  0  0  0  0  0  0
  1  2  2  0
  2  3  1  0
  3  4  2  0
  4  5  1  0
  5  6  2  0
  6  7  1  0
  6  8  1  0
  8  9  2  0
  9 10  1  0
 10 11  2  0
 11 12  1  0
 12 13  2  0
 13 14  1  0
 14 15  2  0
 15 16  1  0
 16 17  2  0
 11 18  1  0
 18 19  1  0
 19 20  1  0
 20 21  1  0
 21 22  1  0
 22 23  1  0
 23 24  1  0
 24 25  1  0
 18  2  1  0
 25 20  1  0
  9  3  1  0
 17 12  1  0
  4 26  1  0
  5 27  1  0
  8 28  1  0
 13 29  1  0
 14 30  1  0
 15 31  1  0
 17 32  1  0
 19 33  1  0
 19 34  1  0
 20 35  1  0
 21 36  1  0
 21 37  1  0
 22 38  1  0
 22 39  1  0
 23 40  1  0
 23 41  1  0
 24 42  1  0
 24 43  1  0
 25 44  1  0
 25 45  1  0
M  END
>  <smiles>  (3) 
O=c1c2ccc(Cl)cc2nc(-c2cccnc2)n1CC1CCCCC1

>  <score_type>  (3) 
oracle

>  <origin>  (3) 
autodockgpu

>  <m_score__min__energy>  (3) 
-6.9400000000000004

>  <m_primary>  (3) 
energy

>  <meeko>  (3) 
{"free_energy": -6.94, "intermolecular_energy": -7.84, "internal_energy": -1.21, "cluster_size": 19, "cluster_id": 1, "rank_in_cluster": 3}

>  <energy>  (3) 
-6.94

>  <cluster_rmsd>  (3) 
0.04

>  <rmsd>  (3) 
272.62

>  <cluster>  (3) 
1

$$$$

     RDKit          3D

 45 48  0  0  0  0  0  0  0  0999 V2000
  140.3750   75.0250  222.1260 O   0  0  0  0  0  0  0  0  0  0  0  0
  141.1620   75.4600  221.2440 C   0  0  0  0  0  0  0  0  0  0  0  0
  142.0900   74.5820  220.7570 C   0  0  0  0  0  0  0  0  0  0  0  0
  142.1570   73.2940  221.2020 C   0  0  0  0  0  0  0  0  0  0  0  0
  143.1270   72.4760  220.6510 C   0  0  0  0  0  0  0  0  0  0  0  0
  143.9900   72.9570  219.6870 C   0  0  0  0  0  0  0  0  0  0  0  0
  145.2260   71.8970  218.9940 Cl  0  0  0  0  0  0  0  0  0  0  0  0
  143.9290   74.2730  219.2270 C   0  0  0  0  0  0  0  0  0  0  0  0
  142.9510   75.0590  219.7980 C   0  0  0  0  0  0  0  0  0  0  0  0
  142.8320   76.3110  219.4120 N   0  0  0  0  0  0  0  0  0  0  0  0
  141.9210   77.2190  219.8720 C   0  0  0  0  0  0  0  0  0  0  0  0
  142.0380   78.5460  219.3420 C   0  0  0  0  0  0  0  0  0  0  0  0
  141.7910   79.7480  219.9210 C   0  0  0  0  0  0  0  0  0  0  0  0
  141.9250   80.9720  219.2470 C   0  0  0  0  0  0  0  0  0  0  0  0
  142.3250   80.9770  217.9330 C   0  0  0  0  0  0  0  0  0  0  0  0
  142.5680   79.8040  217.3560 N   0  0  0  0  0  0  0  0  0  0  0  0
  142.4430   78.6380  217.9920 C   0  0  0  0  0  0  0  0  0  0  0  0
  141.0780   76.7690  220.8050 N   0  0  0  0  0  0  0  0  0  0  0  0
  140.0520   77.5380  221.4220 C   0  0  0  0  0  0  0  0  0  0  0  0
  140.3770   78.2840  222.6580 C   0  0  0  0  0  0  0  0  0  0  0  0
  141.8270   78.6390  222.8650 C   0  0  0  0  0  0  0  0  0  0  0  0
  141.8390   79.4260  224.1940 C   0  0  0  0  0  0  0  0  0  0  0  0
  141.3750   80.8260  223.8450 C   0  0  0  0  0  0  0  0  0  0  0  0
  140.4730   80.8050  222.6180 C   0  0  0  0  0  0  0  0  0  0  0  0
  139.5860   79.5750  222.6500 C   0  0  0  0  0  0  0  0  0  0  0  0
  141.4650   72.9197  221.9708 H   0  0  0  0  0  0  0  0  0  0  0  0
  143.2115   71.4312  220.9846 H   0  0  0  0  0  0  0  0  0  0  0  0
  144.6162   74.6579  218.4592 H   0  0  0  0  0  0  0  0  0  0  0  0
  141.4692   79.7641  220.9728 H   0  0  0  0  0  0  0  0  0  0  0  0
  141.7117   81.9181  219.7661 H   0  0  0  0  0  0  0  0  0  0  0  0
  142.4403   81.9191  217.3771 H   0  0  0  0  0  0  0  0  0  0  0  0
  142.6642   77.7109  217.4429 H   0  0  0  0  0  0  0  0  0  0  0  0
  139.7061   78.2730  220.6803 H   0  0  0  0  0  0  0  0  0  0  0  0
  139.3117   76.7910  221.7444 H   0  0  0  0  0  0  0  0  0  0  0  0
  140.1196   77.6007  223.4807 H   0  0  0  0  0  0  0  0  0  0  0  0
  142.4434   77.7313  222.9436 H   0  0  0  0  0  0  0  0  0  0  0  0
  142.2420   79.2196  222.0280 H   0  0  0  0  0  0  0  0  0  0  0  0
  141.1532   78.9642  224.9195 H   0  0  0  0  0  0  0  0  0  0  0  0
  142.8384   79.4320  224.6536 H   0  0  0  0  0  0  0  0  0  0  0  0
  140.8171   81.2439  224.6959 H   0  0  0  0  0  0  0  0  0  0  0  0
  142.2567   81.4457  223.6247 H   0  0  0  0  0  0  0  0  0  0  0  0
  139.8445   81.7078  222.6119 H   0  0  0  0  0  0  0  0  0  0  0  0
  141.0955   80.7790  221.7115 H   0  0  0  0  0  0  0  0  0  0  0  0
  138.9648   79.6127  223.5570 H   0  0  0  0  0  0  0  0  0  0  0  0
  138.9733   79.5835  221.7365 H   0  0  0  0  0  0  0  0  0  0  0  0
  1  2  2  0
  2  3  1  0
  3  4  2  0
  4  5  1  0
  5  6  2  0
  6  7  1  0
  6  8  1  0
  8  9  2  0
  9 10  1  0
 10 11  2  0
 11 12  1  0
 12 13  2  0
 13 14  1  0
 14 15  2  0
 15 16  1  0
 16 17  2  0
 11 18  1  0
 18 19  1  0
 19 20  1  0
 20 21  1  0
 21 22  1  0
 22 23  1  0
 23 24  1  0
 24 25  1  0
 18  2  1  0
 25 20  1  0
  9  3  1  0
 17 12  1  0
  4 26  1  0
  5 27  1  0
  8 28  1  0
 13 29  1  0
 14 30  1  0
 15 31  1  0
 17 32  1  0
 19 33  1  0
 19 34  1  0
 20 35  1  0
 21 36  1  0
 21 37  1  0
 22 38  1  0
 22 39  1  0
 23 40  1  0
 23 41  1  0
 24 42  1  0
 24 43  1  0
 25 44  1  0
 25 45  1  0
M  END
>  <smiles>  (4) 
O=c1c2ccc(Cl)cc2nc(-c2cccnc2)n1CC1CCCCC1

>  <score_type>  (4) 
oracle

>  <origin>  (4) 
autodockgpu

>  <m_score__min__energy>  (4) 
-6.9400000000000004

>  <m_primary>  (4) 
energy

>  <meeko>  (4) 
{"free_energy": -6.94, "intermolecular_energy": -7.84, "internal_energy": -1.2, "cluster_size": 19, "cluster_id": 1, "rank_in_cluster": 1}

>  <energy>  (4) 
-6.94

>  <cluster_rmsd>  (4) 
0.03

>  <rmsd>  (4) 
272.62

>  <cluster>  (4) 
1

$$$$

     RDKit          3D

 45 48  0  0  0  0  0  0  0  0999 V2000
  140.3140   74.6560  221.9860 O   0  0  0  0  0  0  0  0  0  0  0  0
  141.1560   75.1290  221.1790 C   0  0  0  0  0  0  0  0  0  0  0  0
  142.1590   74.2950  220.7700 C   0  0  0  0  0  0  0  0  0  0  0  0
  142.2390   73.0070  221.2130 C   0  0  0  0  0  0  0  0  0  0  0  0
  143.2870   72.2340  220.7450 C   0  0  0  0  0  0  0  0  0  0  0  0
  144.2100   72.7580  219.8620 C   0  0  0  0  0  0  0  0  0  0  0  0
  145.5440   71.7550  219.2740 Cl  0  0  0  0  0  0  0  0  0  0  0  0
  144.1340   74.0740  219.4050 C   0  0  0  0  0  0  0  0  0  0  0  0
  143.0790   74.8150  219.8920 C   0  0  0  0  0  0  0  0  0  0  0  0
  142.9420   76.0640  219.5030 N   0  0  0  0  0  0  0  0  0  0  0  0
  141.9570   76.9300  219.8860 C   0  0  0  0  0  0  0  0  0  0  0  0
  142.0650   78.2650  219.3750 C   0  0  0  0  0  0  0  0  0  0  0  0
  141.8310   79.4570  219.9780 C   0  0  0  0  0  0  0  0  0  0  0  0
  141.9530   80.6920  219.3200 C   0  0  0  0  0  0  0  0  0  0  0  0
  142.3250   80.7180  217.9990 C   0  0  0  0  0  0  0  0  0  0  0  0
  142.5560   79.5540  217.3980 N   0  0  0  0  0  0  0  0  0  0  0  0
  142.4420   78.3780  218.0190 C   0  0  0  0  0  0  0  0  0  0  0  0
  141.0560   76.4380  220.7400 N   0  0  0  0  0  0  0  0  0  0  0  0
  139.9500   77.1590  221.2690 C   0  0  0  0  0  0  0  0  0  0  0  0
  140.1350   77.9080  222.5320 C   0  0  0  0  0  0  0  0  0  0  0  0
  141.5500   78.2920  222.8820 C   0  0  0  0  0  0  0  0  0  0  0  0
  141.4140   79.0750  224.2060 C   0  0  0  0  0  0  0  0  0  0  0  0
  140.9590   80.4670  223.8130 C   0  0  0  0  0  0  0  0  0  0  0  0
  140.1840   80.4310  222.5020 C   0  0  0  0  0  0  0  0  0  0  0  0
  139.3230   79.1840  222.4450 C   0  0  0  0  0  0  0  0  0  0  0  0
  141.4981   72.5983  221.9159 H   0  0  0  0  0  0  0  0  0  0  0  0
  143.3858   71.1909  221.0800 H   0  0  0  0  0  0  0  0  0  0  0  0
  144.8686   74.4930  218.7015 H   0  0  0  0  0  0  0  0  0  0  0  0
  141.5304   79.4567  221.0361 H   0  0  0  0  0  0  0  0  0  0  0  0
  141.7522   81.6299  219.8585 H   0  0  0  0  0  0  0  0  0  0  0  0
  142.4285   81.6690  217.4559 H   0  0  0  0  0  0  0  0  0  0  0  0
  142.6503   77.4592  217.4511 H   0  0  0  0  0  0  0  0  0  0  0  0
  139.6393   77.8850  220.5033 H   0  0  0  0  0  0  0  0  0  0  0  0
  139.2166   76.3795  221.5228 H   0  0  0  0  0  0  0  0  0  0  0  0
  139.8106   77.2177  223.3247 H   0  0  0  0  0  0  0  0  0  0  0  0
  142.1742   77.3969  223.0206 H   0  0  0  0  0  0  0  0  0  0  0  0
  142.0339   78.8834  222.0907 H   0  0  0  0  0  0  0  0  0  0  0  0
  140.6687   78.5978  224.8593 H   0  0  0  0  0  0  0  0  0  0  0  0
  142.3622   79.0994  224.7631 H   0  0  0  0  0  0  0  0  0  0  0  0
  140.3110   80.8718  224.6044 H   0  0  0  0  0  0  0  0  0  0  0  0
  141.8457   81.1046  223.6819 H   0  0  0  0  0  0  0  0  0  0  0  0
  139.5415   81.3212  222.4337 H   0  0  0  0  0  0  0  0  0  0  0  0
  140.8941   80.4193  221.6620 H   0  0  0  0  0  0  0  0  0  0  0  0
  138.6136   79.2076  223.2853 H   0  0  0  0  0  0  0  0  0  0  0  0
  138.8047   79.1823  221.4748 H   0  0  0  0  0  0  0  0  0  0  0  0
  1  2  2  0
  2  3  1  0
  3  4  2  0
  4  5  1  0
  5  6  2  0
  6  7  1  0
  6  8  1  0
  8  9  2  0
  9 10  1  0
 10 11  2  0
 11 12  1  0
 12 13  2  0
 13 14  1  0
 14 15  2  0
 15 16  1  0
 16 17  2  0
 11 18  1  0
 18 19  1  0
 19 20  1  0
 20 21  1  0
 21 22  1  0
 22 23  1  0
 23 24  1  0
 24 25  1  0
 18  2  1  0
 25 20  1  0
  9  3  1  0
 17 12  1  0
  4 26  1  0
  5 27  1  0
  8 28  1  0
 13 29  1  0
 14 30  1  0
 15 31  1  0
 17 32  1  0
 19 33  1  0
 19 34  1  0
 20 35  1  0
 21 36  1  0
 21 37  1  0
 22 38  1  0
 22 39  1  0
 23 40  1  0
 23 41  1  0
 24 42  1  0
 24 43  1  0
 25 44  1  0
 25 45  1  0
M  END
>  <smiles>  (5) 
O=c1c2ccc(Cl)cc2nc(-c2cccnc2)n1CC1CCCCC1

>  <score_type>  (5) 
oracle

>  <origin>  (5) 
autodockgpu

>  <m_score__min__energy>  (5) 
-6.9400000000000004

>  <m_primary>  (5) 
energy

>  <meeko>  (5) 
{"free_energy": -6.9, "intermolecular_energy": -7.8, "internal_energy": -1.22, "cluster_size": 19, "cluster_id": 1, "rank_in_cluster": 14}

>  <energy>  (5) 
-6.93

>  <cluster_rmsd>  (5) 
0.04

>  <rmsd>  (5) 
272.62

>  <cluster>  (5) 
1

$$$$

     RDKit          3D

 45 48  0  0  0  0  0  0  0  0999 V2000
  140.8830   75.4130  222.2290 O   0  0  0  0  0  0  0  0  0  0  0  0
  141.4450   75.9270  221.2250 C   0  0  0  0  0  0  0  0  0  0  0  0
  142.2750   75.1190  220.4990 C   0  0  0  0  0  0  0  0  0  0  0  0
  142.4830   73.8160  220.8450 C   0  0  0  0  0  0  0  0  0  0  0  0
  143.3380   73.0720  220.0530 C   0  0  0  0  0  0  0  0  0  0  0  0
  143.9540   73.6400  218.9550 C   0  0  0  0  0  0  0  0  0  0  0  0
  145.0470   72.6740  217.9520 Cl  0  0  0  0  0  0  0  0  0  0  0  0
  143.7480   74.9720  218.5960 C   0  0  0  0  0  0  0  0  0  0  0  0
  142.8900   75.6820  219.4080 C   0  0  0  0  0  0  0  0  0  0  0  0
  142.6450   76.9450  219.1290 N   0  0  0  0  0  0  0  0  0  0  0  0
  141.8240   77.7850  219.8250 C   0  0  0  0  0  0  0  0  0  0  0  0
  141.7760   79.1400  219.3600 C   0  0  0  0  0  0  0  0  0  0  0  0
  141.0090   80.1820  219.7690 C   0  0  0  0  0  0  0  0  0  0  0  0
  141.0590   81.4560  219.1790 C   0  0  0  0  0  0  0  0  0  0  0  0
  141.9220   81.6810  218.1350 C   0  0  0  0  0  0  0  0  0  0  0  0
  142.6780   80.6660  217.7260 N   0  0  0  0  0  0  0  0  0  0  0  0
  142.6330   79.4540  218.2830 C   0  0  0  0  0  0  0  0  0  0  0  0
  141.2200   77.2510  220.8900 N   0  0  0  0  0  0  0  0  0  0  0  0
  140.3260   77.9390  221.7570 C   0  0  0  0  0  0  0  0  0  0  0  0
  140.8950   78.7570  222.8520 C   0  0  0  0  0  0  0  0  0  0  0  0
  142.2730   79.3230  222.6200 C   0  0  0  0  0  0  0  0  0  0  0  0
  142.5680   80.1380  223.8980 C   0  0  0  0  0  0  0  0  0  0  0  0
  141.8220   81.4470  223.7310 C   0  0  0  0  0  0  0  0  0  0  0  0
  140.6060   81.2630  222.8320 C   0  0  0  0  0  0  0  0  0  0  0  0
  139.9580   79.9190  223.1060 C   0  0  0  0  0  0  0  0  0  0  0  0
  141.9885   73.3733  221.7222 H   0  0  0  0  0  0  0  0  0  0  0  0
  143.5295   72.0173  220.2998 H   0  0  0  0  0  0  0  0  0  0  0  0
  144.2382   75.4260  217.7221 H   0  0  0  0  0  0  0  0  0  0  0  0
  140.3126   80.0209  220.6051 H   0  0  0  0  0  0  0  0  0  0  0  0
  140.4130   82.2655  219.5498 H   0  0  0  0  0  0  0  0  0  0  0  0
  141.9860   82.6677  217.6530 H   0  0  0  0  0  0  0  0  0  0  0  0
  143.2911   78.6669  217.8864 H   0  0  0  0  0  0  0  0  0  0  0  0
  139.7189   78.6102  221.1317 H   0  0  0  0  0  0  0  0  0  0  0  0
  139.7812   77.1361  222.2751 H   0  0  0  0  0  0  0  0  0  0  0  0
  140.9994   78.0660  223.7015 H   0  0  0  0  0  0  0  0  0  0  0  0
  143.0098   78.5162  222.4931 H   0  0  0  0  0  0  0  0  0  0  0  0
  142.3289   79.9351  221.7077 H   0  0  0  0  0  0  0  0  0  0  0  0
  142.2062   79.6011  224.7873 H   0  0  0  0  0  0  0  0  0  0  0  0
  143.6472   80.3004  224.0359 H   0  0  0  0  0  0  0  0  0  0  0  0
  141.4909   81.8024  224.7180 H   0  0  0  0  0  0  0  0  0  0  0  0
  142.4966   82.1818  223.2673 H   0  0  0  0  0  0  0  0  0  0  0  0
  139.8802   82.0651  223.0320 H   0  0  0  0  0  0  0  0  0  0  0  0
  140.9249   81.3028  221.7800 H   0  0  0  0  0  0  0  0  0  0  0  0
  139.6384   79.8901  224.1582 H   0  0  0  0  0  0  0  0  0  0  0  0
  139.1050   79.8148  222.4193 H   0  0  0  0  0  0  0  0  0  0  0  0
  1  2  2  0
  2  3  1  0
  3  4  2  0
  4  5  1  0
  5  6  2  0
  6  7  1  0
  6  8  1  0
  8  9  2  0
  9 10  1  0
 10 11  2  0
 11 12  1  0
 12 13  2  0
 13 14  1  0
 14 15  2  0
 15 16  1  0
 16 17  2  0
 11 18  1  0
 18 19  1  0
 19 20  1  0
 20 21  1  0
 21 22  1  0
 22 23  1  0
 23 24  1  0
 24 25  1  0
 18  2  1  0
 25 20  1  0
  9  3  1  0
 17 12  1  0
  4 26  1  0
  5 27  1  0
  8 28  1  0
 13 29  1  0
 14 30  1  0
 15 31  1  0
 17 32  1  0
 19 33  1  0
 19 34  1  0
 20 35  1  0
 21 36  1  0
 21 37  1  0
 22 38  1  0
 22 39  1  0
 23 40  1  0
 23 41  1  0
 24 42  1  0
 24 43  1  0
 25 44  1  0
 25 45  1  0
M  END
>  <smiles>  (6) 
O=c1c2ccc(Cl)cc2nc(-c2cccnc2)n1CC1CCCCC1

>  <score_type>  (6) 
oracle

>  <origin>  (6) 
autodockgpu

>  <m_score__min__energy>  (6) 
-6.9400000000000004

>  <m_primary>  (6) 
energy

>  <meeko>  (6) 
{"free_energy": -6.86, "intermolecular_energy": -7.75, "internal_energy": -1.19, "cluster_size": 19, "cluster_id": 1, "rank_in_cluster": 18}

>  <energy>  (6) 
-6.93

>  <cluster_rmsd>  (6) 
0.05

>  <rmsd>  (6) 
272.62

>  <cluster>  (6) 
1

$$$$

     RDKit          3D

 45 48  0  0  0  0  0  0  0  0999 V2000
  140.3750   75.0480  222.1080 O   0  0  0  0  0  0  0  0  0  0  0  0
  141.1690   75.4800  221.2320 C   0  0  0  0  0  0  0  0  0  0  0  0
  142.1040   74.6020  220.7560 C   0  0  0  0  0  0  0  0  0  0  0  0
  142.1680   73.3170  221.2080 C   0  0  0  0  0  0  0  0  0  0  0  0
  143.1450   72.4970  220.6700 C   0  0  0  0  0  0  0  0  0  0  0  0
  144.0160   72.9750  219.7110 C   0  0  0  0  0  0  0  0  0  0  0  0
  145.2590   71.9140  219.0330 Cl  0  0  0  0  0  0  0  0  0  0  0  0
  143.9560   74.2890  219.2450 C   0  0  0  0  0  0  0  0  0  0  0  0
  142.9720   75.0760  219.8030 C   0  0  0  0  0  0  0  0  0  0  0  0
  142.8540   76.3260  219.4100 N   0  0  0  0  0  0  0  0  0  0  0  0
  141.9370   77.2350  219.8580 C   0  0  0  0  0  0  0  0  0  0  0  0
  142.0570   78.5590  219.3230 C   0  0  0  0  0  0  0  0  0  0  0  0
  141.8310   79.7640  219.9040 C   0  0  0  0  0  0  0  0  0  0  0  0
  141.9640   80.9860  219.2240 C   0  0  0  0  0  0  0  0  0  0  0  0
  142.3400   80.9850  217.9040 C   0  0  0  0  0  0  0  0  0  0  0  0
  142.5630   79.8080  217.3240 N   0  0  0  0  0  0  0  0  0  0  0  0
  142.4380   78.6450  217.9660 C   0  0  0  0  0  0  0  0  0  0  0  0
  141.0870   76.7870  220.7850 N   0  0  0  0  0  0  0  0  0  0  0  0
  140.0540   77.5570  221.3900 C   0  0  0  0  0  0  0  0  0  0  0  0
  140.3620   78.2950  222.6350 C   0  0  0  0  0  0  0  0  0  0  0  0
  141.8120   78.6310  222.8740 C   0  0  0  0  0  0  0  0  0  0  0  0
  141.8060   79.4140  224.2050 C   0  0  0  0  0  0  0  0  0  0  0  0
  141.3670   80.8210  223.8510 C   0  0  0  0  0  0  0  0  0  0  0  0
  140.4910   80.8150  222.6040 C   0  0  0  0  0  0  0  0  0  0  0  0
  139.5870   79.5970  222.6140 C   0  0  0  0  0  0  0  0  0  0  0  0
  141.4690   72.9457  221.9719 H   0  0  0  0  0  0  0  0  0  0  0  0
  143.2283   71.4541  221.0099 H   0  0  0  0  0  0  0  0  0  0  0  0
  144.6493   74.6718  218.4816 H   0  0  0  0  0  0  0  0  0  0  0  0
  141.5282   79.7852  220.9613 H   0  0  0  0  0  0  0  0  0  0  0  0
  141.7686   81.9350  219.7447 H   0  0  0  0  0  0  0  0  0  0  0  0
  142.4532   81.9252  217.3443 H   0  0  0  0  0  0  0  0  0  0  0  0
  142.6402   77.7145  217.4153 H   0  0  0  0  0  0  0  0  0  0  0  0
  139.7228   78.2973  220.6469 H   0  0  0  0  0  0  0  0  0  0  0  0
  139.3058   76.8112  221.6965 H   0  0  0  0  0  0  0  0  0  0  0  0
  140.0786   77.6127  223.4499 H   0  0  0  0  0  0  0  0  0  0  0  0
  142.4149   77.7153  222.9630 H   0  0  0  0  0  0  0  0  0  0  0  0
  142.2520   79.2087  222.0477 H   0  0  0  0  0  0  0  0  0  0  0  0
  141.0994   78.9588  224.9146 H   0  0  0  0  0  0  0  0  0  0  0  0
  142.7956   79.4061  224.6852 H   0  0  0  0  0  0  0  0  0  0  0  0
  140.7961   81.2431  224.6912 H   0  0  0  0  0  0  0  0  0  0  0  0
  142.2608   81.4305  223.6520 H   0  0  0  0  0  0  0  0  0  0  0  0
  139.8751   81.7262  222.5866 H   0  0  0  0  0  0  0  0  0  0  0  0
  141.1324   80.7826  221.7110 H   0  0  0  0  0  0  0  0  0  0  0  0
  138.9474   79.6405  223.5079 H   0  0  0  0  0  0  0  0  0  0  0  0
  138.9931   79.6158  221.6883 H   0  0  0  0  0  0  0  0  0  0  0  0
  1  2  2  0
  2  3  1  0
  3  4  2  0
  4  5  1  0
  5  6  2  0
  6  7  1  0
  6  8  1  0
  8  9  2  0
  9 10  1  0
 10 11  2  0
 11 12  1  0
 12 13  2  0
 13 14  1  0
 14 15  2  0
 15 16  1  0
 16 17  2  0
 11 18  1  0
 18 19  1  0
 19 20  1  0
 20 21  1  0
 21 22  1  0
 22 23  1  0
 23 24  1  0
 24 25  1  0
 18  2  1  0
 25 20  1  0
  9  3  1  0
 17 12  1  0
  4 26  1  0
  5 27  1  0
  8 28  1  0
 13 29  1  0
 14 30  1  0
 15 31  1  0
 17 32  1  0
 19 33  1  0
 19 34  1  0
 20 35  1  0
 21 36  1  0
 21 37  1  0
 22 38  1  0
 22 39  1  0
 23 40  1  0
 23 41  1  0
 24 42  1  0
 24 43  1  0
 25 44  1  0
 25 45  1  0
M  END
>  <smiles>  (7) 
O=c1c2ccc(Cl)cc2nc(-c2cccnc2)n1CC1CCCCC1

>  <score_type>  (7) 
oracle

>  <origin>  (7) 
autodockgpu

>  <m_score__min__energy>  (7) 
-6.9400000000000004

>  <m_primary>  (7) 
energy

>  <meeko>  (7) 
{"free_energy": -6.92, "intermolecular_energy": -7.81, "internal_energy": -1.23, "cluster_size": 19, "cluster_id": 1, "rank_in_cluster": 9}

>  <energy>  (7) 
-6.92

>  <cluster_rmsd>  (7) 
0.03

>  <rmsd>  (7) 
272.63

>  <cluster>  (7) 
1

$$$$

     RDKit          3D

 45 48  0  0  0  0  0  0  0  0999 V2000
  140.3940   75.0520  222.1130 O   0  0  0  0  0  0  0  0  0  0  0  0
  141.1890   75.4840  221.2370 C   0  0  0  0  0  0  0  0  0  0  0  0
  142.1230   74.6060  220.7620 C   0  0  0  0  0  0  0  0  0  0  0  0
  142.1880   73.3210  221.2150 C   0  0  0  0  0  0  0  0  0  0  0  0
  143.1650   72.5020  220.6770 C   0  0  0  0  0  0  0  0  0  0  0  0
  144.0370   72.9800  219.7180 C   0  0  0  0  0  0  0  0  0  0  0  0
  145.2810   71.9190  219.0410 Cl  0  0  0  0  0  0  0  0  0  0  0  0
  143.9770   74.2930  219.2510 C   0  0  0  0  0  0  0  0  0  0  0  0
  142.9920   75.0800  219.8090 C   0  0  0  0  0  0  0  0  0  0  0  0
  142.8740   76.3300  219.4150 N   0  0  0  0  0  0  0  0  0  0  0  0
  141.9560   77.2380  219.8620 C   0  0  0  0  0  0  0  0  0  0  0  0
  142.0750   78.5630  219.3260 C   0  0  0  0  0  0  0  0  0  0  0  0
  141.8550   79.7680  219.9090 C   0  0  0  0  0  0  0  0  0  0  0  0
  141.9870   80.9890  219.2290 C   0  0  0  0  0  0  0  0  0  0  0  0
  142.3550   80.9880  217.9060 C   0  0  0  0  0  0  0  0  0  0  0  0
  142.5720   79.8110  217.3250 N   0  0  0  0  0  0  0  0  0  0  0  0
  142.4490   78.6470  217.9680 C   0  0  0  0  0  0  0  0  0  0  0  0
  141.1060   76.7910  220.7900 N   0  0  0  0  0  0  0  0  0  0  0  0
  140.0730   77.5600  221.3930 C   0  0  0  0  0  0  0  0  0  0  0  0
  140.3810   78.3030  222.6360 C   0  0  0  0  0  0  0  0  0  0  0  0
  141.8320   78.6350  222.8760 C   0  0  0  0  0  0  0  0  0  0  0  0
  141.8260   79.4230  224.2040 C   0  0  0  0  0  0  0  0  0  0  0  0
  141.3930   80.8300  223.8430 C   0  0  0  0  0  0  0  0  0  0  0  0
  140.5190   80.8220  222.5950 C   0  0  0  0  0  0  0  0  0  0  0  0
  139.6110   79.6070  222.6080 C   0  0  0  0  0  0  0  0  0  0  0  0
  141.4897   72.9496  221.9795 H   0  0  0  0  0  0  0  0  0  0  0  0
  143.2482   71.4590  221.0166 H   0  0  0  0  0  0  0  0  0  0  0  0
  144.6703   74.6756  218.4874 H   0  0  0  0  0  0  0  0  0  0  0  0
  141.5582   79.7894  220.9680 H   0  0  0  0  0  0  0  0  0  0  0  0
  141.7973   81.9383  219.7514 H   0  0  0  0  0  0  0  0  0  0  0  0
  142.4665   81.9281  217.3458 H   0  0  0  0  0  0  0  0  0  0  0  0
  142.6473   77.7160  217.4167 H   0  0  0  0  0  0  0  0  0  0  0  0
  139.7395   78.2972  220.6479 H   0  0  0  0  0  0  0  0  0  0  0  0
  139.3266   76.8136  221.7026 H   0  0  0  0  0  0  0  0  0  0  0  0
  140.0933   77.6255  223.4534 H   0  0  0  0  0  0  0  0  0  0  0  0
  142.4318   77.7176  222.9695 H   0  0  0  0  0  0  0  0  0  0  0  0
  142.2755   79.2079  222.0483 H   0  0  0  0  0  0  0  0  0  0  0  0
  141.1161   78.9733  224.9138 H   0  0  0  0  0  0  0  0  0  0  0  0
  142.8144   79.4132  224.6868 H   0  0  0  0  0  0  0  0  0  0  0  0
  140.8225   81.2581  224.6804 H   0  0  0  0  0  0  0  0  0  0  0  0
  142.2895   81.4350  223.6425 H   0  0  0  0  0  0  0  0  0  0  0  0
  139.9060   81.7351  222.5732 H   0  0  0  0  0  0  0  0  0  0  0  0
  141.1618   80.7841  221.7031 H   0  0  0  0  0  0  0  0  0  0  0  0
  138.9696   79.6564  223.5003 H   0  0  0  0  0  0  0  0  0  0  0  0
  139.0194   79.6240  221.6808 H   0  0  0  0  0  0  0  0  0  0  0  0
  1  2  2  0
  2  3  1  0
  3  4  2  0
  4  5  1  0
  5  6  2  0
  6  7  1  0
  6  8  1  0
  8  9  2  0
  9 10  1  0
 10 11  2  0
 11 12  1  0
 12 13  2  0
 13 14  1  0
 14 15  2  0
 15 16  1  0
 16 17  2  0
 11 18  1  0
 18 19  1  0
 19 20  1  0
 20 21  1  0
 21 22  1  0
 22 23  1  0
 23 24  1  0
 24 25  1  0
 18  2  1  0
 25 20  1  0
  9  3  1  0
 17 12  1  0
  4 26  1  0
  5 27  1  0
  8 28  1  0
 13 29  1  0
 14 30  1  0
 15 31  1  0
 17 32  1  0
 19 33  1  0
 19 34  1  0
 20 35  1  0
 21 36  1  0
 21 37  1  0
 22 38  1  0
 22 39  1  0
 23 40  1  0
 23 41  1  0
 24 42  1  0
 24 43  1  0
 25 44  1  0
 25 45  1  0
M  END
>  <smiles>  (8) 
O=c1c2ccc(Cl)cc2nc(-c2cccnc2)n1CC1CCCCC1

>  <score_type>  (8) 
oracle

>  <origin>  (8) 
autodockgpu

>  <m_score__min__energy>  (8) 
-6.9400000000000004

>  <m_primary>  (8) 
energy

>  <meeko>  (8) 
{"free_energy": -6.93, "intermolecular_energy": -7.82, "internal_energy": -1.22, "cluster_size": 19, "cluster_id": 1, "rank_in_cluster": 6}

>  <energy>  (8) 
-6.92

>  <cluster_rmsd>  (8) 
0.04

>  <rmsd>  (8) 
272.62

>  <cluster>  (8) 
1

$$$$

     RDKit          3D

 45 48  0  0  0  0  0  0  0  0999 V2000
  140.6400   75.4340  222.0980 O   0  0  0  0  0  0  0  0  0  0  0  0
  141.3590   75.8000  221.1320 C   0  0  0  0  0  0  0  0  0  0  0  0
  142.2400   74.8810  220.6320 C   0  0  0  0  0  0  0  0  0  0  0  0
  142.3300   73.6240  221.1540 C   0  0  0  0  0  0  0  0  0  0  0  0
  143.2480   72.7600  220.5850 C   0  0  0  0  0  0  0  0  0  0  0  0
  144.0370   73.1660  219.5270 C   0  0  0  0  0  0  0  0  0  0  0  0
  145.2060   72.0470  218.8100 Cl  0  0  0  0  0  0  0  0  0  0  0  0
  143.9500   74.4500  218.9880 C   0  0  0  0  0  0  0  0  0  0  0  0
  143.0260   75.2840  219.5800 C   0  0  0  0  0  0  0  0  0  0  0  0
  142.8870   76.5100  219.1230 N   0  0  0  0  0  0  0  0  0  0  0  0
  142.0220   77.4580  219.5920 C   0  0  0  0  0  0  0  0  0  0  0  0
  142.1070   78.7450  218.9680 C   0  0  0  0  0  0  0  0  0  0  0  0
  142.1260   79.9860  219.5170 C   0  0  0  0  0  0  0  0  0  0  0  0
  142.1810   81.1650  218.7560 C   0  0  0  0  0  0  0  0  0  0  0  0
  142.2180   81.0820  217.3860 C   0  0  0  0  0  0  0  0  0  0  0  0
  142.1980   79.8700  216.8390 N   0  0  0  0  0  0  0  0  0  0  0  0
  142.1470   78.7470  217.5570 C   0  0  0  0  0  0  0  0  0  0  0  0
  141.2510   77.0790  220.6150 N   0  0  0  0  0  0  0  0  0  0  0  0
  140.2830   77.9000  221.2580 C   0  0  0  0  0  0  0  0  0  0  0  0
  140.6970   78.6800  222.4460 C   0  0  0  0  0  0  0  0  0  0  0  0
  142.1610   79.0240  222.5450 C   0  0  0  0  0  0  0  0  0  0  0  0
  142.2700   79.8510  223.8440 C   0  0  0  0  0  0  0  0  0  0  0  0
  141.7970   81.2460  223.4830 C   0  0  0  0  0  0  0  0  0  0  0  0
  140.8150   81.1970  222.3190 C   0  0  0  0  0  0  0  0  0  0  0  0
  139.9200   79.9800  222.4490 C   0  0  0  0  0  0  0  0  0  0  0  0
  141.6961   73.3092  221.9961 H   0  0  0  0  0  0  0  0  0  0  0  0
  143.3507   71.7384  220.9796 H   0  0  0  0  0  0  0  0  0  0  0  0
  144.5779   74.7755  218.1455 H   0  0  0  0  0  0  0  0  0  0  0  0
  142.0969   80.0727  220.6132 H   0  0  0  0  0  0  0  0  0  0  0  0
  142.1943   82.1462  219.2531 H   0  0  0  0  0  0  0  0  0  0  0  0
  142.2627   81.9870  216.7623 H   0  0  0  0  0  0  0  0  0  0  0  0
  142.1357   77.7828  217.0278 H   0  0  0  0  0  0  0  0  0  0  0  0
  139.9170   78.6180  220.5093 H   0  0  0  0  0  0  0  0  0  0  0  0
  139.5413   77.1875  221.6482 H   0  0  0  0  0  0  0  0  0  0  0  0
  140.4881   78.0257  223.3052 H   0  0  0  0  0  0  0  0  0  0  0  0
  142.7723   78.1119  222.6110 H   0  0  0  0  0  0  0  0  0  0  0  0
  142.5246   79.5738  221.6643 H   0  0  0  0  0  0  0  0  0  0  0  0
  141.6301   79.4199  224.6280 H   0  0  0  0  0  0  0  0  0  0  0  0
  143.2981   79.8593  224.2350 H   0  0  0  0  0  0  0  0  0  0  0  0
  141.3008   81.6961  224.3554 H   0  0  0  0  0  0  0  0  0  0  0  0
  142.6677   81.8490  223.1861 H   0  0  0  0  0  0  0  0  0  0  0  0
  140.1966   82.1067  222.3251 H   0  0  0  0  0  0  0  0  0  0  0  0
  141.3758   81.1346  221.3748 H   0  0  0  0  0  0  0  0  0  0  0  0
  139.3609   80.0536  223.3935 H   0  0  0  0  0  0  0  0  0  0  0  0
  139.2479   79.9674  221.5783 H   0  0  0  0  0  0  0  0  0  0  0  0
  1  2  2  0
  2  3  1  0
  3  4  2  0
  4  5  1  0
  5  6  2  0
  6  7  1  0
  6  8  1  0
  8  9  2  0
  9 10  1  0
 10 11  2  0
 11 12  1  0
 12 13  2  0
 13 14  1  0
 14 15  2  0
 15 16  1  0
 16 17  2  0
 11 18  1  0
 18 19  1  0
 19 20  1  0
 20 21  1  0
 21 22  1  0
 22 23  1  0
 23 24  1  0
 24 25  1  0
 18  2  1  0
 25 20  1  0
  9  3  1  0
 17 12  1  0
  4 26  1  0
  5 27  1  0
  8 28  1  0
 13 29  1  0
 14 30  1  0
 15 31  1  0
 17 32  1  0
 19 33  1  0
 19 34  1  0
 20 35  1  0
 21 36  1  0
 21 37  1  0
 22 38  1  0
 22 39  1  0
 23 40  1  0
 23 41  1  0
 24 42  1  0
 24 43  1  0
 25 44  1  0
 25 45  1  0
M  END
>  <smiles>  (9) 
O=c1c2ccc(Cl)cc2nc(-c2cccnc2)n1CC1CCCCC1

>  <score_type>  (9) 
oracle

>  <origin>  (9) 
autodockgpu

>  <m_score__min__energy>  (9) 
-6.9400000000000004

>  <m_primary>  (9) 
energy

>  <meeko>  (9) 
{"free_energy": -6.83, "intermolecular_energy": -7.72, "internal_energy": -1.28, "cluster_size": 19, "cluster_id": 1, "rank_in_cluster": 19}

>  <energy>  (9) 
-6.92

>  <cluster_rmsd>  (9) 
0.03

>  <rmsd>  (9) 
272.61

>  <cluster>  (9) 
1

$$$$

     RDKit          3D

 45 48  0  0  0  0  0  0  0  0999 V2000
  140.3990   75.0500  222.1230 O   0  0  0  0  0  0  0  0  0  0  0  0
  141.1850   75.4820  221.2390 C   0  0  0  0  0  0  0  0  0  0  0  0
  142.1170   74.6050  220.7580 C   0  0  0  0  0  0  0  0  0  0  0  0
  142.1890   73.3210  221.2130 C   0  0  0  0  0  0  0  0  0  0  0  0
  143.1630   72.5030  220.6680 C   0  0  0  0  0  0  0  0  0  0  0  0
  144.0250   72.9810  219.7020 C   0  0  0  0  0  0  0  0  0  0  0  0
  145.2660   71.9210  219.0160 Cl  0  0  0  0  0  0  0  0  0  0  0  0
  143.9590   74.2940  219.2330 C   0  0  0  0  0  0  0  0  0  0  0  0
  142.9770   75.0790  219.7970 C   0  0  0  0  0  0  0  0  0  0  0  0
  142.8530   76.3280  219.4030 N   0  0  0  0  0  0  0  0  0  0  0  0
  141.9370   77.2360  219.8560 C   0  0  0  0  0  0  0  0  0  0  0  0
  142.0490   78.5590  219.3170 C   0  0  0  0  0  0  0  0  0  0  0  0
  141.8360   79.7650  219.9010 C   0  0  0  0  0  0  0  0  0  0  0  0
  141.9590   80.9860  219.2170 C   0  0  0  0  0  0  0  0  0  0  0  0
  142.3100   80.9820  217.8900 C   0  0  0  0  0  0  0  0  0  0  0  0
  142.5200   79.8050  217.3080 N   0  0  0  0  0  0  0  0  0  0  0  0
  142.4050   78.6420  217.9530 C   0  0  0  0  0  0  0  0  0  0  0  0
  141.0950   76.7880  220.7910 N   0  0  0  0  0  0  0  0  0  0  0  0
  140.0660   77.5560  221.4020 C   0  0  0  0  0  0  0  0  0  0  0  0
  140.3820   78.2970  222.6440 C   0  0  0  0  0  0  0  0  0  0  0  0
  141.8310   78.6450  222.8660 C   0  0  0  0  0  0  0  0  0  0  0  0
  141.8330   79.4280  224.1970 C   0  0  0  0  0  0  0  0  0  0  0  0
  141.3790   80.8320  223.8470 C   0  0  0  0  0  0  0  0  0  0  0  0
  140.4890   80.8180  222.6110 C   0  0  0  0  0  0  0  0  0  0  0  0
  139.5960   79.5930  222.6300 C   0  0  0  0  0  0  0  0  0  0  0  0
  141.4984   72.9497  221.9845 H   0  0  0  0  0  0  0  0  0  0  0  0
  143.2511   71.4607  221.0083 H   0  0  0  0  0  0  0  0  0  0  0  0
  144.6458   74.6769  218.4637 H   0  0  0  0  0  0  0  0  0  0  0  0
  141.5527   79.7879  220.9636 H   0  0  0  0  0  0  0  0  0  0  0  0
  141.7758   81.9362  219.7399 H   0  0  0  0  0  0  0  0  0  0  0  0
  142.4141   81.9211  217.3268 H   0  0  0  0  0  0  0  0  0  0  0  0
  142.5952   77.7106  217.3996 H   0  0  0  0  0  0  0  0  0  0  0  0
  139.7276   78.2944  220.6602 H   0  0  0  0  0  0  0  0  0  0  0  0
  139.3217   76.8091  221.7154 H   0  0  0  0  0  0  0  0  0  0  0  0
  140.1136   77.6131  223.4627 H   0  0  0  0  0  0  0  0  0  0  0  0
  142.4427   77.7345  222.9481 H   0  0  0  0  0  0  0  0  0  0  0  0
  142.2569   79.2261  222.0347 H   0  0  0  0  0  0  0  0  0  0  0  0
  141.1375   78.9675  224.9141 H   0  0  0  0  0  0  0  0  0  0  0  0
  142.8276   79.4279  224.6669 H   0  0  0  0  0  0  0  0  0  0  0  0
  140.8148   81.2505  224.6934 H   0  0  0  0  0  0  0  0  0  0  0  0
  142.2657   81.4482  223.6372 H   0  0  0  0  0  0  0  0  0  0  0  0
  139.8649   81.7238  222.6010 H   0  0  0  0  0  0  0  0  0  0  0  0
  141.1208   80.7908  221.7109 H   0  0  0  0  0  0  0  0  0  0  0  0
  138.9647   79.6315  223.5300 H   0  0  0  0  0  0  0  0  0  0  0  0
  138.9934   79.6065  221.7099 H   0  0  0  0  0  0  0  0  0  0  0  0
  1  2  2  0
  2  3  1  0
  3  4  2  0
  4  5  1  0
  5  6  2  0
  6  7  1  0
  6  8  1  0
  8  9  2  0
  9 10  1  0
 10 11  2  0
 11 12  1  0
 12 13  2  0
 13 14  1  0
 14 15  2  0
 15 16  1  0
 16 17  2  0
 11 18  1  0
 18 19  1  0
 19 20  1  0
 20 21  1  0
 21 22  1  0
 22 23  1  0
 23 24  1  0
 24 25  1  0
 18  2  1  0
 25 20  1  0
  9  3  1  0
 17 12  1  0
  4 26  1  0
  5 27  1  0
  8 28  1  0
 13 29  1  0
 14 30  1  0
 15 31  1  0
 17 32  1  0
 19 33  1  0
 19 34  1  0
 20 35  1  0
 21 36  1  0
 21 37  1  0
 22 38  1  0
 22 39  1  0
 23 40  1  0
 23 41  1  0
 24 42  1  0
 24 43  1  0
 25 44  1  0
 25 45  1  0
M  END
>  <smiles>  (10) 
O=c1c2ccc(Cl)cc2nc(-c2cccnc2)n1CC1CCCCC1

>  <score_type>  (10) 
oracle

>  <origin>  (10) 
autodockgpu

>  <m_score__min__energy>  (10) 
-6.9400000000000004

>  <m_primary>  (10) 
energy

>  <meeko>  (10) 
{"free_energy": -6.91, "intermolecular_energy": -7.81, "internal_energy": -1.23, "cluster_size": 19, "cluster_id": 1, "rank_in_cluster": 10}

>  <energy>  (10) 
-6.91

>  <cluster_rmsd>  (10) 
0.04

>  <rmsd>  (10) 
272.61

>  <cluster>  (10) 
1

$$$$

     RDKit          3D

 45 48  0  0  0  0  0  0  0  0999 V2000
  140.3830   75.0300  222.1370 O   0  0  0  0  0  0  0  0  0  0  0  0
  141.1730   75.4650  221.2590 C   0  0  0  0  0  0  0  0  0  0  0  0
  142.1060   74.5900  220.7760 C   0  0  0  0  0  0  0  0  0  0  0  0
  142.1740   73.3030  221.2240 C   0  0  0  0  0  0  0  0  0  0  0  0
  143.1490   72.4860  220.6790 C   0  0  0  0  0  0  0  0  0  0  0  0
  144.0150   72.9680  219.7180 C   0  0  0  0  0  0  0  0  0  0  0  0
  145.2570   71.9100  219.0320 Cl  0  0  0  0  0  0  0  0  0  0  0  0
  143.9520   74.2830  219.2560 C   0  0  0  0  0  0  0  0  0  0  0  0
  142.9690   75.0670  219.8210 C   0  0  0  0  0  0  0  0  0  0  0  0
  142.8490   76.3180  219.4320 N   0  0  0  0  0  0  0  0  0  0  0  0
  141.9330   77.2250  219.8870 C   0  0  0  0  0  0  0  0  0  0  0  0
  142.0490   78.5510  219.3550 C   0  0  0  0  0  0  0  0  0  0  0  0
  141.8150   79.7530  219.9380 C   0  0  0  0  0  0  0  0  0  0  0  0
  141.9450   80.9770  219.2620 C   0  0  0  0  0  0  0  0  0  0  0  0
  142.3270   80.9810  217.9430 C   0  0  0  0  0  0  0  0  0  0  0  0
  142.5580   79.8070  217.3620 N   0  0  0  0  0  0  0  0  0  0  0  0
  142.4350   78.6410  218.0000 C   0  0  0  0  0  0  0  0  0  0  0  0
  141.0870   76.7740  220.8170 N   0  0  0  0  0  0  0  0  0  0  0  0
  140.0560   77.5400  221.4280 C   0  0  0  0  0  0  0  0  0  0  0  0
  140.3740   78.2900  222.6640 C   0  0  0  0  0  0  0  0  0  0  0  0
  141.8260   78.6280  222.8890 C   0  0  0  0  0  0  0  0  0  0  0  0
  141.8300   79.4220  224.2130 C   0  0  0  0  0  0  0  0  0  0  0  0
  141.3880   80.8270  223.8490 C   0  0  0  0  0  0  0  0  0  0  0  0
  140.5030   80.8090  222.6100 C   0  0  0  0  0  0  0  0  0  0  0  0
  139.5990   79.5910  222.6370 C   0  0  0  0  0  0  0  0  0  0  0  0
  141.4793   72.9286  221.9903 H   0  0  0  0  0  0  0  0  0  0  0  0
  143.2348   71.4421  221.0149 H   0  0  0  0  0  0  0  0  0  0  0  0
  144.6417   74.6689  218.4909 H   0  0  0  0  0  0  0  0  0  0  0  0
  141.5078   79.7700  220.9941 H   0  0  0  0  0  0  0  0  0  0  0  0
  141.7427   81.9238  219.7842 H   0  0  0  0  0  0  0  0  0  0  0  0
  142.4382   81.9230  217.3859 H   0  0  0  0  0  0  0  0  0  0  0  0
  142.6428   77.7127  217.4477 H   0  0  0  0  0  0  0  0  0  0  0  0
  139.7101   78.2721  220.6834 H   0  0  0  0  0  0  0  0  0  0  0  0
  139.3170   76.7911  221.7489 H   0  0  0  0  0  0  0  0  0  0  0  0
  140.0971   77.6152  223.4874 H   0  0  0  0  0  0  0  0  0  0  0  0
  142.4297   77.7131  222.9811 H   0  0  0  0  0  0  0  0  0  0  0  0
  142.2597   79.1986  222.0545 H   0  0  0  0  0  0  0  0  0  0  0  0
  141.1286   78.9732  224.9318 H   0  0  0  0  0  0  0  0  0  0  0  0
  142.8229   79.4180  224.6864 H   0  0  0  0  0  0  0  0  0  0  0  0
  140.8237   81.2571  224.6896 H   0  0  0  0  0  0  0  0  0  0  0  0
  142.2802   81.4347  223.6374 H   0  0  0  0  0  0  0  0  0  0  0  0
  139.8867   81.7199  222.5891 H   0  0  0  0  0  0  0  0  0  0  0  0
  141.1380   80.7681  221.7127 H   0  0  0  0  0  0  0  0  0  0  0  0
  138.9657   79.6423  223.5349 H   0  0  0  0  0  0  0  0  0  0  0  0
  138.9986   79.6017  221.7154 H   0  0  0  0  0  0  0  0  0  0  0  0
  1  2  2  0
  2  3  1  0
  3  4  2  0
  4  5  1  0
  5  6  2  0
  6  7  1  0
  6  8  1  0
  8  9  2  0
  9 10  1  0
 10 11  2  0
 11 12  1  0
 12 13  2  0
 13 14  1  0
 14 15  2  0
 15 16  1  0
 16 17  2  0
 11 18  1  0
 18 19  1  0
 19 20  1  0
 20 21  1  0
 21 22  1  0
 22 23  1  0
 23 24  1  0
 24 25  1  0
 18  2  1  0
 25 20  1  0
  9  3  1  0
 17 12  1  0
  4 26  1  0
  5 27  1  0
  8 28  1  0
 13 29  1  0
 14 30  1  0
 15 31  1  0
 17 32  1  0
 19 33  1  0
 19 34  1  0
 20 35  1  0
 21 36  1  0
 21 37  1  0
 22 38  1  0
 22 39  1  0
 23 40  1  0
 23 41  1  0
 24 42  1  0
 24 43  1  0
 25 44  1  0
 25 45  1  0
M  END
>  <smiles>  (11) 
O=c1c2ccc(Cl)cc2nc(-c2cccnc2)n1CC1CCCCC1

>  <score_type>  (11) 
oracle

>  <origin>  (11) 
autodockgpu

>  <m_score__min__energy>  (11) 
-6.9400000000000004

>  <m_primary>  (11) 
energy

>  <meeko>  (11) 
{"free_energy": -6.94, "intermolecular_energy": -7.84, "internal_energy": -1.21, "cluster_size": 19, "cluster_id": 1, "rank_in_cluster": 2}

>  <energy>  (11) 
-6.91

>  <cluster_rmsd>  (11) 
0.05

>  <rmsd>  (11) 
272.6

>  <cluster>  (11) 
1

$$$$

     RDKit          3D

 45 48  0  0  0  0  0  0  0  0999 V2000
  140.3830   75.0240  222.1170 O   0  0  0  0  0  0  0  0  0  0  0  0
  141.1780   75.4590  221.2440 C   0  0  0  0  0  0  0  0  0  0  0  0
  142.1160   74.5840  220.7700 C   0  0  0  0  0  0  0  0  0  0  0  0
  142.1820   73.2980  221.2210 C   0  0  0  0  0  0  0  0  0  0  0  0
  143.1620   72.4820  220.6840 C   0  0  0  0  0  0  0  0  0  0  0  0
  144.0350   72.9630  219.7290 C   0  0  0  0  0  0  0  0  0  0  0  0
  145.2830   71.9050  219.0540 Cl  0  0  0  0  0  0  0  0  0  0  0  0
  143.9740   74.2770  219.2640 C   0  0  0  0  0  0  0  0  0  0  0  0
  142.9860   75.0610  219.8200 C   0  0  0  0  0  0  0  0  0  0  0  0
  142.8670   76.3110  219.4280 N   0  0  0  0  0  0  0  0  0  0  0  0
  141.9460   77.2170  219.8740 C   0  0  0  0  0  0  0  0  0  0  0  0
  142.0650   78.5430  219.3410 C   0  0  0  0  0  0  0  0  0  0  0  0
  141.8440   79.7470  219.9260 C   0  0  0  0  0  0  0  0  0  0  0  0
  141.9750   80.9690  219.2480 C   0  0  0  0  0  0  0  0  0  0  0  0
  142.3430   80.9710  217.9250 C   0  0  0  0  0  0  0  0  0  0  0  0
  142.5620   79.7950  217.3430 N   0  0  0  0  0  0  0  0  0  0  0  0
  142.4390   78.6300  217.9830 C   0  0  0  0  0  0  0  0  0  0  0  0
  141.0940   76.7670  220.7990 N   0  0  0  0  0  0  0  0  0  0  0  0
  140.0580   77.5330  221.4010 C   0  0  0  0  0  0  0  0  0  0  0  0
  140.3640   78.2780  222.6430 C   0  0  0  0  0  0  0  0  0  0  0  0
  141.8120   78.6180  222.8820 C   0  0  0  0  0  0  0  0  0  0  0  0
  141.8030   79.4080  224.2090 C   0  0  0  0  0  0  0  0  0  0  0  0
  141.3620   80.8120  223.8480 C   0  0  0  0  0  0  0  0  0  0  0  0
  140.4870   80.7980  222.6000 C   0  0  0  0  0  0  0  0  0  0  0  0
  139.5860   79.5780  222.6140 C   0  0  0  0  0  0  0  0  0  0  0  0
  141.4824   72.9239  221.9829 H   0  0  0  0  0  0  0  0  0  0  0  0
  143.2463   71.4386  221.0218 H   0  0  0  0  0  0  0  0  0  0  0  0
  144.6690   74.6622  218.5033 H   0  0  0  0  0  0  0  0  0  0  0  0
  141.5472   79.7665  220.9850 H   0  0  0  0  0  0  0  0  0  0  0  0
  141.7845   81.9172  219.7721 H   0  0  0  0  0  0  0  0  0  0  0  0
  142.4528   81.9120  217.3661 H   0  0  0  0  0  0  0  0  0  0  0  0
  142.6372   77.7003  217.4295 H   0  0  0  0  0  0  0  0  0  0  0  0
  139.7219   78.2684  220.6551 H   0  0  0  0  0  0  0  0  0  0  0  0
  139.3138   76.7847  221.7111 H   0  0  0  0  0  0  0  0  0  0  0  0
  140.0820   77.5991  223.4613 H   0  0  0  0  0  0  0  0  0  0  0  0
  142.4167   77.7040  222.9765 H   0  0  0  0  0  0  0  0  0  0  0  0
  142.2517   79.1924  222.0533 H   0  0  0  0  0  0  0  0  0  0  0  0
  141.0964   78.9551  224.9201 H   0  0  0  0  0  0  0  0  0  0  0  0
  142.7922   79.4045  224.6900 H   0  0  0  0  0  0  0  0  0  0  0  0
  140.7895   81.2372  224.6856 H   0  0  0  0  0  0  0  0  0  0  0  0
  142.2548   81.4223  223.6470 H   0  0  0  0  0  0  0  0  0  0  0  0
  139.8688   81.7076  222.5779 H   0  0  0  0  0  0  0  0  0  0  0  0
  141.1296   80.7630  221.7079 H   0  0  0  0  0  0  0  0  0  0  0  0
  138.9444   79.6243  223.5063 H   0  0  0  0  0  0  0  0  0  0  0  0
  138.9941   79.5909  221.6869 H   0  0  0  0  0  0  0  0  0  0  0  0
  1  2  2  0
  2  3  1  0
  3  4  2  0
  4  5  1  0
  5  6  2  0
  6  7  1  0
  6  8  1  0
  8  9  2  0
  9 10  1  0
 10 11  2  0
 11 12  1  0
 12 13  2  0
 13 14  1  0
 14 15  2  0
 15 16  1  0
 16 17  2  0
 11 18  1  0
 18 19  1  0
 19 20  1  0
 20 21  1  0
 21 22  1  0
 22 23  1  0
 23 24  1  0
 24 25  1  0
 18  2  1  0
 25 20  1  0
  9  3  1  0
 17 12  1  0
  4 26  1  0
  5 27  1  0
  8 28  1  0
 13 29  1  0
 14 30  1  0
 15 31  1  0
 17 32  1  0
 19 33  1  0
 19 34  1  0
 20 35  1  0
 21 36  1  0
 21 37  1  0
 22 38  1  0
 22 39  1  0
 23 40  1  0
 23 41  1  0
 24 42  1  0
 24 43  1  0
 25 44  1  0
 25 45  1  0
M  END
>  <smiles>  (12) 
O=c1c2ccc(Cl)cc2nc(-c2cccnc2)n1CC1CCCCC1

>  <score_type>  (12) 
oracle

>  <origin>  (12) 
autodockgpu

>  <m_score__min__energy>  (12) 
-6.9400000000000004

>  <m_primary>  (12) 
energy

>  <meeko>  (12) 
{"free_energy": -6.93, "intermolecular_energy": -7.82, "internal_energy": -1.22, "cluster_size": 19, "cluster_id": 1, "rank_in_cluster": 5}

>  <energy>  (12) 
-6.91

>  <cluster_rmsd>  (12) 
0.06

>  <rmsd>  (12) 
272.63

>  <cluster>  (12) 
1

$$$$

     RDKit          3D

 45 48  0  0  0  0  0  0  0  0999 V2000
  140.3930   75.0960  222.1220 O   0  0  0  0  0  0  0  0  0  0  0  0
  141.1780   75.5220  221.2340 C   0  0  0  0  0  0  0  0  0  0  0  0
  142.1110   74.6420  220.7600 C   0  0  0  0  0  0  0  0  0  0  0  0
  142.1840   73.3610  221.2250 C   0  0  0  0  0  0  0  0  0  0  0  0
  143.1580   72.5400  220.6870 C   0  0  0  0  0  0  0  0  0  0  0  0
  144.0200   73.0100  219.7160 C   0  0  0  0  0  0  0  0  0  0  0  0
  145.2610   71.9460  219.0380 Cl  0  0  0  0  0  0  0  0  0  0  0  0
  143.9520   74.3190  219.2360 C   0  0  0  0  0  0  0  0  0  0  0  0
  142.9700   75.1080  219.7940 C   0  0  0  0  0  0  0  0  0  0  0  0
  142.8440   76.3540  219.3890 N   0  0  0  0  0  0  0  0  0  0  0  0
  141.9280   77.2640  219.8350 C   0  0  0  0  0  0  0  0  0  0  0  0
  142.0390   78.5830  219.2850 C   0  0  0  0  0  0  0  0  0  0  0  0
  141.8740   79.7950  219.8720 C   0  0  0  0  0  0  0  0  0  0  0  0
  141.9870   81.0110  219.1780 C   0  0  0  0  0  0  0  0  0  0  0  0
  142.2770   80.9960  217.8360 C   0  0  0  0  0  0  0  0  0  0  0  0
  142.4400   79.8120  217.2510 N   0  0  0  0  0  0  0  0  0  0  0  0
  142.3340   78.6540  217.9060 C   0  0  0  0  0  0  0  0  0  0  0  0
  141.0870   76.8240  220.7750 N   0  0  0  0  0  0  0  0  0  0  0  0
  140.0580   77.5960  221.3800 C   0  0  0  0  0  0  0  0  0  0  0  0
  140.3680   78.3320  222.6260 C   0  0  0  0  0  0  0  0  0  0  0  0
  141.8230   78.6310  222.8830 C   0  0  0  0  0  0  0  0  0  0  0  0
  141.8190   79.4200  224.2110 C   0  0  0  0  0  0  0  0  0  0  0  0
  141.4220   80.8370  223.8450 C   0  0  0  0  0  0  0  0  0  0  0  0
  140.5630   80.8480  222.5870 C   0  0  0  0  0  0  0  0  0  0  0  0
  139.6280   79.6530  222.5890 C   0  0  0  0  0  0  0  0  0  0  0  0
  141.4935   72.9951  221.9992 H   0  0  0  0  0  0  0  0  0  0  0  0
  143.2471   71.5008  221.0365 H   0  0  0  0  0  0  0  0  0  0  0  0
  144.6376   74.6959  218.4628 H   0  0  0  0  0  0  0  0  0  0  0  0
  141.6397   79.8270  220.9463 H   0  0  0  0  0  0  0  0  0  0  0  0
  141.8445   81.9662  219.7046 H   0  0  0  0  0  0  0  0  0  0  0  0
  142.3713   81.9308  217.2640 H   0  0  0  0  0  0  0  0  0  0  0  0
  142.4824   77.7171  217.3491 H   0  0  0  0  0  0  0  0  0  0  0  0
  139.7295   78.3382  220.6375 H   0  0  0  0  0  0  0  0  0  0  0  0
  139.3075   76.8523  221.6859 H   0  0  0  0  0  0  0  0  0  0  0  0
  140.0555   77.6614  223.4401 H   0  0  0  0  0  0  0  0  0  0  0  0
  142.4006   77.7003  222.9839 H   0  0  0  0  0  0  0  0  0  0  0  0
  142.2893   79.1931  222.0604 H   0  0  0  0  0  0  0  0  0  0  0  0
  141.0908   78.9867  224.9124 H   0  0  0  0  0  0  0  0  0  0  0  0
  142.8013   79.3883  224.7051 H   0  0  0  0  0  0  0  0  0  0  0  0
  140.8514   81.2780  224.6756 H   0  0  0  0  0  0  0  0  0  0  0  0
  142.3341   81.4219  223.6554 H   0  0  0  0  0  0  0  0  0  0  0  0
  139.9706   81.7744  222.5581 H   0  0  0  0  0  0  0  0  0  0  0  0
  141.2153   80.7957  221.7029 H   0  0  0  0  0  0  0  0  0  0  0  0
  138.9773   79.7168  223.4736 H   0  0  0  0  0  0  0  0  0  0  0  0
  139.0483   79.6831  221.6546 H   0  0  0  0  0  0  0  0  0  0  0  0
  1  2  2  0
  2  3  1  0
  3  4  2  0
  4  5  1  0
  5  6  2  0
  6  7  1  0
  6  8  1  0
  8  9  2  0
  9 10  1  0
 10 11  2  0
 11 12  1  0
 12 13  2  0
 13 14  1  0
 14 15  2  0
 15 16  1  0
 16 17  2  0
 11 18  1  0
 18 19  1  0
 19 20  1  0
 20 21  1  0
 21 22  1  0
 22 23  1  0
 23 24  1  0
 24 25  1  0
 18  2  1  0
 25 20  1  0
  9  3  1  0
 17 12  1  0
  4 26  1  0
  5 27  1  0
  8 28  1  0
 13 29  1  0
 14 30  1  0
 15 31  1  0
 17 32  1  0
 19 33  1  0
 19 34  1  0
 20 35  1  0
 21 36  1  0
 21 37  1  0
 22 38  1  0
 22 39  1  0
 23 40  1  0
 23 41  1  0
 24 42  1  0
 24 43  1  0
 25 44  1  0
 25 45  1  0
M  END
>  <smiles>  (13) 
O=c1c2ccc(Cl)cc2nc(-c2cccnc2)n1CC1CCCCC1

>  <score_type>  (13) 
oracle

>  <origin>  (13) 
autodockgpu

>  <m_score__min__energy>  (13) 
-6.9400000000000004

>  <m_primary>  (13) 
energy

>  <meeko>  (13) 
{"free_energy": -6.88, "intermolecular_energy": -7.77, "internal_energy": -1.25, "cluster_size": 19, "cluster_id": 1, "rank_in_cluster": 17}

>  <energy>  (13) 
-6.91

>  <cluster_rmsd>  (13) 
0.39

>  <rmsd>  (13) 
272.52

>  <cluster>  (13) 
1

$$$$

     RDKit          3D

 45 48  0  0  0  0  0  0  0  0999 V2000
  140.3850   75.0370  222.1240 O   0  0  0  0  0  0  0  0  0  0  0  0
  141.1770   75.4730  221.2480 C   0  0  0  0  0  0  0  0  0  0  0  0
  142.1110   74.5980  220.7660 C   0  0  0  0  0  0  0  0  0  0  0  0
  142.1770   73.3100  221.2140 C   0  0  0  0  0  0  0  0  0  0  0  0
  143.1530   72.4940  220.6700 C   0  0  0  0  0  0  0  0  0  0  0  0
  144.0210   72.9770  219.7110 C   0  0  0  0  0  0  0  0  0  0  0  0
  145.2640   71.9190  219.0260 Cl  0  0  0  0  0  0  0  0  0  0  0  0
  143.9600   74.2920  219.2490 C   0  0  0  0  0  0  0  0  0  0  0  0
  142.9760   75.0760  219.8130 C   0  0  0  0  0  0  0  0  0  0  0  0
  142.8560   76.3270  219.4250 N   0  0  0  0  0  0  0  0  0  0  0  0
  141.9400   77.2340  219.8780 C   0  0  0  0  0  0  0  0  0  0  0  0
  142.0570   78.5600  219.3480 C   0  0  0  0  0  0  0  0  0  0  0  0
  141.8310   79.7630  219.9340 C   0  0  0  0  0  0  0  0  0  0  0  0
  141.9610   80.9870  219.2590 C   0  0  0  0  0  0  0  0  0  0  0  0
  142.3350   80.9910  217.9380 C   0  0  0  0  0  0  0  0  0  0  0  0
  142.5580   79.8170  217.3530 N   0  0  0  0  0  0  0  0  0  0  0  0
  142.4360   78.6510  217.9910 C   0  0  0  0  0  0  0  0  0  0  0  0
  141.0920   76.7820  220.8060 N   0  0  0  0  0  0  0  0  0  0  0  0
  140.0600   77.5480  221.4160 C   0  0  0  0  0  0  0  0  0  0  0  0
  140.3740   78.2900  222.6580 C   0  0  0  0  0  0  0  0  0  0  0  0
  141.8240   78.6310  222.8880 C   0  0  0  0  0  0  0  0  0  0  0  0
  141.8230   79.4170  224.2170 C   0  0  0  0  0  0  0  0  0  0  0  0
  141.3770   80.8220  223.8630 C   0  0  0  0  0  0  0  0  0  0  0  0
  140.4940   80.8100  222.6220 C   0  0  0  0  0  0  0  0  0  0  0  0
  139.5940   79.5890  222.6390 C   0  0  0  0  0  0  0  0  0  0  0  0
  141.4806   72.9352  221.9785 H   0  0  0  0  0  0  0  0  0  0  0  0
  143.2383   71.4497  221.0050 H   0  0  0  0  0  0  0  0  0  0  0  0
  144.6513   74.6778  218.4853 H   0  0  0  0  0  0  0  0  0  0  0  0
  141.5306   79.7799  220.9920 H   0  0  0  0  0  0  0  0  0  0  0  0
  141.7651   81.9339  219.7835 H   0  0  0  0  0  0  0  0  0  0  0  0
  142.4466   81.9334  217.3818 H   0  0  0  0  0  0  0  0  0  0  0  0
  142.6391   77.7228  217.4368 H   0  0  0  0  0  0  0  0  0  0  0  0
  139.7203   78.2854  220.6738 H   0  0  0  0  0  0  0  0  0  0  0  0
  139.3169   76.7997  221.7288 H   0  0  0  0  0  0  0  0  0  0  0  0
  140.0986   77.6083  223.4762 H   0  0  0  0  0  0  0  0  0  0  0  0
  142.4303   77.7174  222.9757 H   0  0  0  0  0  0  0  0  0  0  0  0
  142.2576   79.2081  222.0579 H   0  0  0  0  0  0  0  0  0  0  0  0
  141.1222   78.9609  224.9317 H   0  0  0  0  0  0  0  0  0  0  0  0
  142.8156   79.4137  224.6911 H   0  0  0  0  0  0  0  0  0  0  0  0
  140.8097   81.2438  224.7057 H   0  0  0  0  0  0  0  0  0  0  0  0
  142.2673   81.4344  223.6576 H   0  0  0  0  0  0  0  0  0  0  0  0
  139.8748   81.7190  222.6064 H   0  0  0  0  0  0  0  0  0  0  0  0
  141.1306   80.7775  221.7255 H   0  0  0  0  0  0  0  0  0  0  0  0
  138.9592   79.6318  223.5363 H   0  0  0  0  0  0  0  0  0  0  0  0
  138.9947   79.6041  221.7167 H   0  0  0  0  0  0  0  0  0  0  0  0
  1  2  2  0
  2  3  1  0
  3  4  2  0
  4  5  1  0
  5  6  2  0
  6  7  1  0
  6  8  1  0
  8  9  2  0
  9 10  1  0
 10 11  2  0
 11 12  1  0
 12 13  2  0
 13 14  1  0
 14 15  2  0
 15 16  1  0
 16 17  2  0
 11 18  1  0
 18 19  1  0
 19 20  1  0
 20 21  1  0
 21 22  1  0
 22 23  1  0
 23 24  1  0
 24 25  1  0
 18  2  1  0
 25 20  1  0
  9  3  1  0
 17 12  1  0
  4 26  1  0
  5 27  1  0
  8 28  1  0
 13 29  1  0
 14 30  1  0
 15 31  1  0
 17 32  1  0
 19 33  1  0
 19 34  1  0
 20 35  1  0
 21 36  1  0
 21 37  1  0
 22 38  1  0
 22 39  1  0
 23 40  1  0
 23 41  1  0
 24 42  1  0
 24 43  1  0
 25 44  1  0
 25 45  1  0
M  END
>  <smiles>  (14) 
O=c1c2ccc(Cl)cc2nc(-c2cccnc2)n1CC1CCCCC1

>  <score_type>  (14) 
oracle

>  <origin>  (14) 
autodockgpu

>  <m_score__min__energy>  (14) 
-6.9400000000000004

>  <m_primary>  (14) 
energy

>  <meeko>  (14) 
{"free_energy": -6.92, "intermolecular_energy": -7.82, "internal_energy": -1.21, "cluster_size": 19, "cluster_id": 1, "rank_in_cluster": 7}

>  <energy>  (14) 
-6.9

>  <cluster_rmsd>  (14) 
0.37

>  <rmsd>  (14) 
272.52

>  <cluster>  (14) 
1

$$$$

     RDKit          3D

 45 48  0  0  0  0  0  0  0  0999 V2000
  140.3740   75.0280  222.1260 O   0  0  0  0  0  0  0  0  0  0  0  0
  141.1670   75.4610  221.2490 C   0  0  0  0  0  0  0  0  0  0  0  0
  142.1000   74.5840  220.7710 C   0  0  0  0  0  0  0  0  0  0  0  0
  142.1650   73.2970  221.2210 C   0  0  0  0  0  0  0  0  0  0  0  0
  143.1410   72.4790  220.6800 C   0  0  0  0  0  0  0  0  0  0  0  0
  144.0110   72.9590  219.7210 C   0  0  0  0  0  0  0  0  0  0  0  0
  145.2540   71.8980  219.0400 Cl  0  0  0  0  0  0  0  0  0  0  0  0
  143.9510   74.2730  219.2570 C   0  0  0  0  0  0  0  0  0  0  0  0
  142.9670   75.0590  219.8180 C   0  0  0  0  0  0  0  0  0  0  0  0
  142.8490   76.3100  219.4270 N   0  0  0  0  0  0  0  0  0  0  0  0
  141.9330   77.2180  219.8770 C   0  0  0  0  0  0  0  0  0  0  0  0
  142.0520   78.5430  219.3440 C   0  0  0  0  0  0  0  0  0  0  0  0
  141.8250   79.7470  219.9260 C   0  0  0  0  0  0  0  0  0  0  0  0
  141.9570   80.9700  219.2490 C   0  0  0  0  0  0  0  0  0  0  0  0
  142.3350   80.9710  217.9280 C   0  0  0  0  0  0  0  0  0  0  0  0
  142.5590   79.7950  217.3480 N   0  0  0  0  0  0  0  0  0  0  0  0
  142.4350   78.6310  217.9880 C   0  0  0  0  0  0  0  0  0  0  0  0
  141.0840   76.7690  220.8050 N   0  0  0  0  0  0  0  0  0  0  0  0
  140.0520   77.5380  221.4120 C   0  0  0  0  0  0  0  0  0  0  0  0
  140.3650   78.2840  222.6510 C   0  0  0  0  0  0  0  0  0  0  0  0
  141.8160   78.6150  222.8860 C   0  0  0  0  0  0  0  0  0  0  0  0
  141.8160   79.4080  224.2110 C   0  0  0  0  0  0  0  0  0  0  0  0
  141.3830   80.8150  223.8460 C   0  0  0  0  0  0  0  0  0  0  0  0
  140.5050   80.8030  222.6010 C   0  0  0  0  0  0  0  0  0  0  0  0
  139.5960   79.5890  222.6210 C   0  0  0  0  0  0  0  0  0  0  0  0
  141.4674   72.9240  221.9853 H   0  0  0  0  0  0  0  0  0  0  0  0
  143.2248   71.4354  221.0173 H   0  0  0  0  0  0  0  0  0  0  0  0
  144.6435   74.6570  218.4935 H   0  0  0  0  0  0  0  0  0  0  0  0
  141.5218   79.7663  220.9832 H   0  0  0  0  0  0  0  0  0  0  0  0
  141.7597   81.9179  219.7710 H   0  0  0  0  0  0  0  0  0  0  0  0
  142.4485   81.9118  217.3693 H   0  0  0  0  0  0  0  0  0  0  0  0
  142.6396   77.7015  217.4364 H   0  0  0  0  0  0  0  0  0  0  0  0
  139.7133   78.2729  220.6669 H   0  0  0  0  0  0  0  0  0  0  0  0
  139.3086   76.7910  221.7272 H   0  0  0  0  0  0  0  0  0  0  0  0
  140.0796   77.6090  223.4713 H   0  0  0  0  0  0  0  0  0  0  0  0
  142.4147   77.6971  222.9811 H   0  0  0  0  0  0  0  0  0  0  0  0
  142.2573   79.1847  222.0549 H   0  0  0  0  0  0  0  0  0  0  0  0
  141.1083   78.9618  224.9252 H   0  0  0  0  0  0  0  0  0  0  0  0
  142.8061   79.3989  224.6901 H   0  0  0  0  0  0  0  0  0  0  0  0
  140.8157   81.2468  224.6836 H   0  0  0  0  0  0  0  0  0  0  0  0
  142.2794   81.4185  223.6404 H   0  0  0  0  0  0  0  0  0  0  0  0
  139.8927   81.7166  222.5778 H   0  0  0  0  0  0  0  0  0  0  0  0
  141.1450   80.7611  221.7073 H   0  0  0  0  0  0  0  0  0  0  0  0
  138.9575   79.6420  223.5152 H   0  0  0  0  0  0  0  0  0  0  0  0
  139.0015   79.6034  221.6956 H   0  0  0  0  0  0  0  0  0  0  0  0
  1  2  2  0
  2  3  1  0
  3  4  2  0
  4  5  1  0
  5  6  2  0
  6  7  1  0
  6  8  1  0
  8  9  2  0
  9 10  1  0
 10 11  2  0
 11 12  1  0
 12 13  2  0
 13 14  1  0
 14 15  2  0
 15 16  1  0
 16 17  2  0
 11 18  1  0
 18 19  1  0
 19 20  1  0
 20 21  1  0
 21 22  1  0
 22 23  1  0
 23 24  1  0
 24 25  1  0
 18  2  1  0
 25 20  1  0
  9  3  1  0
 17 12  1  0
  4 26  1  0
  5 27  1  0
  8 28  1  0
 13 29  1  0
 14 30  1  0
 15 31  1  0
 17 32  1  0
 19 33  1  0
 19 34  1  0
 20 35  1  0
 21 36  1  0
 21 37  1  0
 22 38  1  0
 22 39  1  0
 23 40  1  0
 23 41  1  0
 24 42  1  0
 24 43  1  0
 25 44  1  0
 25 45  1  0
M  END
>  <smiles>  (15) 
O=c1c2ccc(Cl)cc2nc(-c2cccnc2)n1CC1CCCCC1

>  <score_type>  (15) 
oracle

>  <origin>  (15) 
autodockgpu

>  <m_score__min__energy>  (15) 
-6.9400000000000004

>  <m_primary>  (15) 
energy

>  <meeko>  (15) 
{"free_energy": -6.94, "intermolecular_energy": -7.84, "internal_energy": -1.21, "cluster_size": 19, "cluster_id": 1, "rank_in_cluster": 4}

>  <energy>  (15) 
-6.89

>  <cluster_rmsd>  (15) 
0.38

>  <rmsd>  (15) 
272.52

>  <cluster>  (15) 
1

$$$$

     RDKit          3D

 45 48  0  0  0  0  0  0  0  0999 V2000
  140.3180   74.6480  221.9890 O   0  0  0  0  0  0  0  0  0  0  0  0
  141.1580   75.1200  221.1790 C   0  0  0  0  0  0  0  0  0  0  0  0
  142.1580   74.2840  220.7660 C   0  0  0  0  0  0  0  0  0  0  0  0
  142.2380   72.9960  221.2100 C   0  0  0  0  0  0  0  0  0  0  0  0
  143.2820   72.2210  220.7380 C   0  0  0  0  0  0  0  0  0  0  0  0
  144.2030   72.7440  219.8520 C   0  0  0  0  0  0  0  0  0  0  0  0
  145.5340   71.7380  219.2590 Cl  0  0  0  0  0  0  0  0  0  0  0  0
  144.1280   74.0600  219.3950 C   0  0  0  0  0  0  0  0  0  0  0  0
  143.0760   74.8020  219.8860 C   0  0  0  0  0  0  0  0  0  0  0  0
  142.9390   76.0520  219.4970 N   0  0  0  0  0  0  0  0  0  0  0  0
  141.9580   76.9200  219.8830 C   0  0  0  0  0  0  0  0  0  0  0  0
  142.0660   78.2540  219.3710 C   0  0  0  0  0  0  0  0  0  0  0  0
  141.8360   79.4470  219.9750 C   0  0  0  0  0  0  0  0  0  0  0  0
  141.9570   80.6810  219.3170 C   0  0  0  0  0  0  0  0  0  0  0  0
  142.3260   80.7060  217.9940 C   0  0  0  0  0  0  0  0  0  0  0  0
  142.5520   79.5420  217.3930 N   0  0  0  0  0  0  0  0  0  0  0  0
  142.4390   78.3660  218.0140 C   0  0  0  0  0  0  0  0  0  0  0  0
  141.0580   76.4290  220.7400 N   0  0  0  0  0  0  0  0  0  0  0  0
  139.9550   77.1520  221.2730 C   0  0  0  0  0  0  0  0  0  0  0  0
  140.1440   77.8930  222.5410 C   0  0  0  0  0  0  0  0  0  0  0  0
  141.5600   78.2660  222.8950 C   0  0  0  0  0  0  0  0  0  0  0  0
  141.4280   79.0430  224.2230 C   0  0  0  0  0  0  0  0  0  0  0  0
  140.9810   80.4400  223.8370 C   0  0  0  0  0  0  0  0  0  0  0  0
  140.2070   80.4150  222.5250 C   0  0  0  0  0  0  0  0  0  0  0  0
  139.3390   79.1740  222.4600 C   0  0  0  0  0  0  0  0  0  0  0  0
  141.4998   72.5893  221.9169 H   0  0  0  0  0  0  0  0  0  0  0  0
  143.3795   71.1774  221.0718 H   0  0  0  0  0  0  0  0  0  0  0  0
  144.8607   74.4778  218.6889 H   0  0  0  0  0  0  0  0  0  0  0  0
  141.5396   79.4472  221.0343 H   0  0  0  0  0  0  0  0  0  0  0  0
  141.7582   81.6192  219.8557 H   0  0  0  0  0  0  0  0  0  0  0  0
  142.4309   81.6566  217.4506 H   0  0  0  0  0  0  0  0  0  0  0  0
  142.6448   77.4470  217.4456 H   0  0  0  0  0  0  0  0  0  0  0  0
  139.6477   77.8839  220.5115 H   0  0  0  0  0  0  0  0  0  0  0  0
  139.2177   76.3746  221.5220 H   0  0  0  0  0  0  0  0  0  0  0  0
  139.8155   77.2002  223.3298 H   0  0  0  0  0  0  0  0  0  0  0  0
  142.1782   77.3661  223.0296 H   0  0  0  0  0  0  0  0  0  0  0  0
  142.0484   78.8587  222.1075 H   0  0  0  0  0  0  0  0  0  0  0  0
  140.6797   78.5667  224.8735 H   0  0  0  0  0  0  0  0  0  0  0  0
  142.3761   79.0591  224.7805 H   0  0  0  0  0  0  0  0  0  0  0  0
  140.3345   80.8442  224.6299 H   0  0  0  0  0  0  0  0  0  0  0  0
  141.8713   81.0735  223.7102 H   0  0  0  0  0  0  0  0  0  0  0  0
  139.5697   81.3093  222.4607 H   0  0  0  0  0  0  0  0  0  0  0  0
  140.9181   80.4032  221.6859 H   0  0  0  0  0  0  0  0  0  0  0  0
  138.6286   79.1970  223.2995 H   0  0  0  0  0  0  0  0  0  0  0  0
  138.8216   79.1807  221.4893 H   0  0  0  0  0  0  0  0  0  0  0  0
  1  2  2  0
  2  3  1  0
  3  4  2  0
  4  5  1  0
  5  6  2  0
  6  7  1  0
  6  8  1  0
  8  9  2  0
  9 10  1  0
 10 11  2  0
 11 12  1  0
 12 13  2  0
 13 14  1  0
 14 15  2  0
 15 16  1  0
 16 17  2  0
 11 18  1  0
 18 19  1  0
 19 20  1  0
 20 21  1  0
 21 22  1  0
 22 23  1  0
 23 24  1  0
 24 25  1  0
 18  2  1  0
 25 20  1  0
  9  3  1  0
 17 12  1  0
  4 26  1  0
  5 27  1  0
  8 28  1  0
 13 29  1  0
 14 30  1  0
 15 31  1  0
 17 32  1  0
 19 33  1  0
 19 34  1  0
 20 35  1  0
 21 36  1  0
 21 37  1  0
 22 38  1  0
 22 39  1  0
 23 40  1  0
 23 41  1  0
 24 42  1  0
 24 43  1  0
 25 44  1  0
 25 45  1  0
M  END
>  <smiles>  (16) 
O=c1c2ccc(Cl)cc2nc(-c2cccnc2)n1CC1CCCCC1

>  <score_type>  (16) 
oracle

>  <origin>  (16) 
autodockgpu

>  <m_score__min__energy>  (16) 
-6.9400000000000004

>  <m_primary>  (16) 
energy

>  <meeko>  (16) 
{"free_energy": -6.89, "intermolecular_energy": -7.79, "internal_energy": -1.23, "cluster_size": 19, "cluster_id": 1, "rank_in_cluster": 15}

>  <energy>  (16) 
-6.89

>  <cluster_rmsd>  (16) 
0.08

>  <rmsd>  (16) 
272.61

>  <cluster>  (16) 
1

$$$$

     RDKit          3D

 45 48  0  0  0  0  0  0  0  0999 V2000
  140.4070   75.0720  222.1120 O   0  0  0  0  0  0  0  0  0  0  0  0
  141.1990   75.5020  221.2330 C   0  0  0  0  0  0  0  0  0  0  0  0
  142.1330   74.6240  220.7570 C   0  0  0  0  0  0  0  0  0  0  0  0
  142.2000   73.3390  221.2130 C   0  0  0  0  0  0  0  0  0  0  0  0
  143.1760   72.5200  220.6740 C   0  0  0  0  0  0  0  0  0  0  0  0
  144.0440   72.9960  219.7130 C   0  0  0  0  0  0  0  0  0  0  0  0
  145.2870   71.9330  219.0350 Cl  0  0  0  0  0  0  0  0  0  0  0  0
  143.9830   74.3080  219.2430 C   0  0  0  0  0  0  0  0  0  0  0  0
  142.9990   75.0960  219.8010 C   0  0  0  0  0  0  0  0  0  0  0  0
  142.8800   76.3450  219.4060 N   0  0  0  0  0  0  0  0  0  0  0  0
  141.9630   77.2540  219.8530 C   0  0  0  0  0  0  0  0  0  0  0  0
  142.0800   78.5770  219.3140 C   0  0  0  0  0  0  0  0  0  0  0  0
  141.8620   79.7840  219.8940 C   0  0  0  0  0  0  0  0  0  0  0  0
  141.9920   81.0040  219.2110 C   0  0  0  0  0  0  0  0  0  0  0  0
  142.3560   80.9990  217.8880 C   0  0  0  0  0  0  0  0  0  0  0  0
  142.5710   79.8210  217.3090 N   0  0  0  0  0  0  0  0  0  0  0  0
  142.4500   78.6590  217.9540 C   0  0  0  0  0  0  0  0  0  0  0  0
  141.1150   76.8080  220.7830 N   0  0  0  0  0  0  0  0  0  0  0  0
  140.0830   77.5790  221.3880 C   0  0  0  0  0  0  0  0  0  0  0  0
  140.3920   78.3180  222.6320 C   0  0  0  0  0  0  0  0  0  0  0  0
  141.8430   78.6500  222.8710 C   0  0  0  0  0  0  0  0  0  0  0  0
  141.8380   79.4350  224.2010 C   0  0  0  0  0  0  0  0  0  0  0  0
  141.4030   80.8430  223.8440 C   0  0  0  0  0  0  0  0  0  0  0  0
  140.5280   80.8380  222.5970 C   0  0  0  0  0  0  0  0  0  0  0  0
  139.6210   79.6220  222.6080 C   0  0  0  0  0  0  0  0  0  0  0  0
  141.5041   72.9687  221.9802 H   0  0  0  0  0  0  0  0  0  0  0  0
  143.2609   71.4778  221.0154 H   0  0  0  0  0  0  0  0  0  0  0  0
  144.6748   74.6889  218.4773 H   0  0  0  0  0  0  0  0  0  0  0  0
  141.5683   79.8081  220.9538 H   0  0  0  0  0  0  0  0  0  0  0  0
  141.8039   81.9546  219.7316 H   0  0  0  0  0  0  0  0  0  0  0  0
  142.4663   81.9377  217.3252 H   0  0  0  0  0  0  0  0  0  0  0  0
  142.6465   77.7271  217.4036 H   0  0  0  0  0  0  0  0  0  0  0  0
  139.7517   78.3188  220.6444 H   0  0  0  0  0  0  0  0  0  0  0  0
  139.3348   76.8338  221.6958 H   0  0  0  0  0  0  0  0  0  0  0  0
  140.1059   77.6382  223.4481 H   0  0  0  0  0  0  0  0  0  0  0  0
  142.4433   77.7327  222.9617 H   0  0  0  0  0  0  0  0  0  0  0  0
  142.2854   79.2249  222.0441 H   0  0  0  0  0  0  0  0  0  0  0  0
  141.1295   78.9829  224.9107 H   0  0  0  0  0  0  0  0  0  0  0  0
  142.8271   79.4251  224.6823 H   0  0  0  0  0  0  0  0  0  0  0  0
  140.8329   81.2682  224.6831 H   0  0  0  0  0  0  0  0  0  0  0  0
  142.2988   81.4493  223.6442 H   0  0  0  0  0  0  0  0  0  0  0  0
  139.9143   81.7507  222.5783 H   0  0  0  0  0  0  0  0  0  0  0  0
  141.1697   80.8033  221.7043 H   0  0  0  0  0  0  0  0  0  0  0  0
  138.9806   79.6687  223.5011 H   0  0  0  0  0  0  0  0  0  0  0  0
  139.0286   79.6408  221.6813 H   0  0  0  0  0  0  0  0  0  0  0  0
  1  2  2  0
  2  3  1  0
  3  4  2  0
  4  5  1  0
  5  6  2  0
  6  7  1  0
  6  8  1  0
  8  9  2  0
  9 10  1  0
 10 11  2  0
 11 12  1  0
 12 13  2  0
 13 14  1  0
 14 15  2  0
 15 16  1  0
 16 17  2  0
 11 18  1  0
 18 19  1  0
 19 20  1  0
 20 21  1  0
 21 22  1  0
 22 23  1  0
 23 24  1  0
 24 25  1  0
 18  2  1  0
 25 20  1  0
  9  3  1  0
 17 12  1  0
  4 26  1  0
  5 27  1  0
  8 28  1  0
 13 29  1  0
 14 30  1  0
 15 31  1  0
 17 32  1  0
 19 33  1  0
 19 34  1  0
 20 35  1  0
 21 36  1  0
 21 37  1  0
 22 38  1  0
 22 39  1  0
 23 40  1  0
 23 41  1  0
 24 42  1  0
 24 43  1  0
 25 44  1  0
 25 45  1  0
M  END
>  <smiles>  (17) 
O=c1c2ccc(Cl)cc2nc(-c2cccnc2)n1CC1CCCCC1

>  <score_type>  (17) 
oracle

>  <origin>  (17) 
autodockgpu

>  <m_score__min__energy>  (17) 
-6.9400000000000004

>  <m_primary>  (17) 
energy

>  <meeko>  (17) 
{"free_energy": -6.91, "intermolecular_energy": -7.8, "internal_energy": -1.23, "cluster_size": 19, "cluster_id": 1, "rank_in_cluster": 12}

>  <energy>  (17) 
-6.88

>  <cluster_rmsd>  (17) 
0.08

>  <rmsd>  (17) 
272.61

>  <cluster>  (17) 
1

$$$$

     RDKit          3D

 45 48  0  0  0  0  0  0  0  0999 V2000
  140.3840   75.0670  222.1300 O   0  0  0  0  0  0  0  0  0  0  0  0
  141.1720   75.4970  221.2470 C   0  0  0  0  0  0  0  0  0  0  0  0
  142.1040   74.6180  220.7680 C   0  0  0  0  0  0  0  0  0  0  0  0
  142.1720   73.3340  221.2230 C   0  0  0  0  0  0  0  0  0  0  0  0
  143.1460   72.5140  220.6810 C   0  0  0  0  0  0  0  0  0  0  0  0
  144.0100   72.9900  219.7150 C   0  0  0  0  0  0  0  0  0  0  0  0
  145.2500   71.9270  219.0320 Cl  0  0  0  0  0  0  0  0  0  0  0  0
  143.9470   74.3020  219.2450 C   0  0  0  0  0  0  0  0  0  0  0  0
  142.9660   75.0900  219.8080 C   0  0  0  0  0  0  0  0  0  0  0  0
  142.8450   76.3390  219.4120 N   0  0  0  0  0  0  0  0  0  0  0  0
  141.9300   77.2480  219.8630 C   0  0  0  0  0  0  0  0  0  0  0  0
  142.0450   78.5710  219.3230 C   0  0  0  0  0  0  0  0  0  0  0  0
  141.8260   79.7770  219.9040 C   0  0  0  0  0  0  0  0  0  0  0  0
  141.9530   80.9970  219.2200 C   0  0  0  0  0  0  0  0  0  0  0  0
  142.3160   80.9930  217.8960 C   0  0  0  0  0  0  0  0  0  0  0  0
  142.5330   79.8140  217.3170 N   0  0  0  0  0  0  0  0  0  0  0  0
  142.4140   78.6530  217.9630 C   0  0  0  0  0  0  0  0  0  0  0  0
  141.0860   76.8030  220.7970 N   0  0  0  0  0  0  0  0  0  0  0  0
  140.0570   77.5730  221.4060 C   0  0  0  0  0  0  0  0  0  0  0  0
  140.3720   78.3150  222.6480 C   0  0  0  0  0  0  0  0  0  0  0  0
  141.8250   78.6400  222.8840 C   0  0  0  0  0  0  0  0  0  0  0  0
  141.8270   79.4290  224.2110 C   0  0  0  0  0  0  0  0  0  0  0  0
  141.3990   80.8380  223.8510 C   0  0  0  0  0  0  0  0  0  0  0  0
  140.5220   80.8330  222.6050 C   0  0  0  0  0  0  0  0  0  0  0  0
  139.6090   79.6230  222.6210 C   0  0  0  0  0  0  0  0  0  0  0  0
  141.4783   72.9640  221.9923 H   0  0  0  0  0  0  0  0  0  0  0  0
  143.2328   71.4722  221.0233 H   0  0  0  0  0  0  0  0  0  0  0  0
  144.6349   74.6827  218.4757 H   0  0  0  0  0  0  0  0  0  0  0  0
  141.5342   79.8006  220.9643 H   0  0  0  0  0  0  0  0  0  0  0  0
  141.7633   81.9473  219.7405 H   0  0  0  0  0  0  0  0  0  0  0  0
  142.4238   81.9317  217.3329 H   0  0  0  0  0  0  0  0  0  0  0  0
  142.6116   77.7210  217.4132 H   0  0  0  0  0  0  0  0  0  0  0  0
  139.7206   78.3111  220.6630 H   0  0  0  0  0  0  0  0  0  0  0  0
  139.3116   76.8272  221.7192 H   0  0  0  0  0  0  0  0  0  0  0  0
  140.0829   77.6392  223.4664 H   0  0  0  0  0  0  0  0  0  0  0  0
  142.4204   77.7197  222.9766 H   0  0  0  0  0  0  0  0  0  0  0  0
  142.2689   79.2102  222.0546 H   0  0  0  0  0  0  0  0  0  0  0  0
  141.1176   78.9829  224.9235 H   0  0  0  0  0  0  0  0  0  0  0  0
  142.8171   79.4153  224.6900 H   0  0  0  0  0  0  0  0  0  0  0  0
  140.8322   81.2686  224.6897 H   0  0  0  0  0  0  0  0  0  0  0  0
  142.2974   81.4395  223.6486 H   0  0  0  0  0  0  0  0  0  0  0  0
  139.9132   81.7489  222.5839 H   0  0  0  0  0  0  0  0  0  0  0  0
  141.1625   80.7913  221.7117 H   0  0  0  0  0  0  0  0  0  0  0  0
  138.9701   79.6761  223.5148 H   0  0  0  0  0  0  0  0  0  0  0  0
  139.0157   79.6424  221.6949 H   0  0  0  0  0  0  0  0  0  0  0  0
  1  2  2  0
  2  3  1  0
  3  4  2  0
  4  5  1  0
  5  6  2  0
  6  7  1  0
  6  8  1  0
  8  9  2  0
  9 10  1  0
 10 11  2  0
 11 12  1  0
 12 13  2  0
 13 14  1  0
 14 15  2  0
 15 16  1  0
 16 17  2  0
 11 18  1  0
 18 19  1  0
 19 20  1  0
 20 21  1  0
 21 22  1  0
 22 23  1  0
 23 24  1  0
 24 25  1  0
 18  2  1  0
 25 20  1  0
  9  3  1  0
 17 12  1  0
  4 26  1  0
  5 27  1  0
  8 28  1  0
 13 29  1  0
 14 30  1  0
 15 31  1  0
 17 32  1  0
 19 33  1  0
 19 34  1  0
 20 35  1  0
 21 36  1  0
 21 37  1  0
 22 38  1  0
 22 39  1  0
 23 40  1  0
 23 41  1  0
 24 42  1  0
 24 43  1  0
 25 44  1  0
 25 45  1  0
M  END
>  <smiles>  (18) 
O=c1c2ccc(Cl)cc2nc(-c2cccnc2)n1CC1CCCCC1

>  <score_type>  (18) 
oracle

>  <origin>  (18) 
autodockgpu

>  <m_score__min__energy>  (18) 
-6.9400000000000004

>  <m_primary>  (18) 
energy

>  <meeko>  (18) 
{"free_energy": -6.92, "intermolecular_energy": -7.82, "internal_energy": -1.23, "cluster_size": 19, "cluster_id": 1, "rank_in_cluster": 8}

>  <energy>  (18) 
-6.86

>  <cluster_rmsd>  (18) 
0.79

>  <rmsd>  (18) 
272.71

>  <cluster>  (18) 
1

$$$$

     RDKit          3D

 45 48  0  0  0  0  0  0  0  0999 V2000
  140.3880   75.0620  222.1290 O   0  0  0  0  0  0  0  0  0  0  0  0
  141.1710   75.4910  221.2420 C   0  0  0  0  0  0  0  0  0  0  0  0
  142.1030   74.6140  220.7610 C   0  0  0  0  0  0  0  0  0  0  0  0
  142.1760   73.3310  221.2190 C   0  0  0  0  0  0  0  0  0  0  0  0
  143.1490   72.5120  220.6740 C   0  0  0  0  0  0  0  0  0  0  0  0
  144.0090   72.9870  219.7040 C   0  0  0  0  0  0  0  0  0  0  0  0
  145.2480   71.9260  219.0180 Cl  0  0  0  0  0  0  0  0  0  0  0  0
  143.9400   74.2980  219.2320 C   0  0  0  0  0  0  0  0  0  0  0  0
  142.9600   75.0850  219.7960 C   0  0  0  0  0  0  0  0  0  0  0  0
  142.8340   76.3330  219.3980 N   0  0  0  0  0  0  0  0  0  0  0  0
  141.9190   77.2410  219.8510 C   0  0  0  0  0  0  0  0  0  0  0  0
  142.0290   78.5630  219.3080 C   0  0  0  0  0  0  0  0  0  0  0  0
  141.8360   79.7720  219.8940 C   0  0  0  0  0  0  0  0  0  0  0  0
  141.9530   80.9900  219.2060 C   0  0  0  0  0  0  0  0  0  0  0  0
  142.2770   80.9830  217.8720 C   0  0  0  0  0  0  0  0  0  0  0  0
  142.4670   79.8030  217.2880 N   0  0  0  0  0  0  0  0  0  0  0  0
  142.3580   78.6420  217.9370 C   0  0  0  0  0  0  0  0  0  0  0  0
  141.0800   76.7960  220.7900 N   0  0  0  0  0  0  0  0  0  0  0  0
  140.0520   77.5660  221.4010 C   0  0  0  0  0  0  0  0  0  0  0  0
  140.3700   78.3070  222.6430 C   0  0  0  0  0  0  0  0  0  0  0  0
  141.8230   78.6300  222.8770 C   0  0  0  0  0  0  0  0  0  0  0  0
  141.8270   79.4200  224.2040 C   0  0  0  0  0  0  0  0  0  0  0  0
  141.4010   80.8300  223.8430 C   0  0  0  0  0  0  0  0  0  0  0  0
  140.5230   80.8260  222.5990 C   0  0  0  0  0  0  0  0  0  0  0  0
  139.6080   79.6160  222.6160 C   0  0  0  0  0  0  0  0  0  0  0  0
  141.4870   72.9614  221.9927 H   0  0  0  0  0  0  0  0  0  0  0  0
  143.2383   71.4708  221.0174 H   0  0  0  0  0  0  0  0  0  0  0  0
  144.6240   74.6788  218.4593 H   0  0  0  0  0  0  0  0  0  0  0  0
  141.5746   79.7987  220.9622 H   0  0  0  0  0  0  0  0  0  0  0  0
  141.7865   81.9420  219.7313 H   0  0  0  0  0  0  0  0  0  0  0  0
  142.3761   81.9207  217.3056 H   0  0  0  0  0  0  0  0  0  0  0  0
  142.5315   77.7086  217.3814 H   0  0  0  0  0  0  0  0  0  0  0  0
  139.7146   78.3047  220.6591 H   0  0  0  0  0  0  0  0  0  0  0  0
  139.3064   76.8206  221.7146 H   0  0  0  0  0  0  0  0  0  0  0  0
  140.0820   77.6317  223.4622 H   0  0  0  0  0  0  0  0  0  0  0  0
  142.4173   77.7090  222.9696 H   0  0  0  0  0  0  0  0  0  0  0  0
  142.2670   79.1989  222.0468 H   0  0  0  0  0  0  0  0  0  0  0  0
  141.1172   78.9755  224.9172 H   0  0  0  0  0  0  0  0  0  0  0  0
  142.8173   79.4049  224.6827 H   0  0  0  0  0  0  0  0  0  0  0  0
  140.8362   81.2624  224.6821 H   0  0  0  0  0  0  0  0  0  0  0  0
  142.3004   81.4294  223.6387 H   0  0  0  0  0  0  0  0  0  0  0  0
  139.9151   81.7426  222.5788 H   0  0  0  0  0  0  0  0  0  0  0  0
  141.1624   80.7837  221.7049 H   0  0  0  0  0  0  0  0  0  0  0  0
  138.9697   79.6701  223.5102 H   0  0  0  0  0  0  0  0  0  0  0  0
  139.0141   79.6356  221.6903 H   0  0  0  0  0  0  0  0  0  0  0  0
  1  2  2  0
  2  3  1  0
  3  4  2  0
  4  5  1  0
  5  6  2  0
  6  7  1  0
  6  8  1  0
  8  9  2  0
  9 10  1  0
 10 11  2  0
 11 12  1  0
 12 13  2  0
 13 14  1  0
 14 15  2  0
 15 16  1  0
 16 17  2  0
 11 18  1  0
 18 19  1  0
 19 20  1  0
 20 21  1  0
 21 22  1  0
 22 23  1  0
 23 24  1  0
 24 25  1  0
 18  2  1  0
 25 20  1  0
  9  3  1  0
 17 12  1  0
  4 26  1  0
  5 27  1  0
  8 28  1  0
 13 29  1  0
 14 30  1  0
 15 31  1  0
 17 32  1  0
 19 33  1  0
 19 34  1  0
 20 35  1  0
 21 36  1  0
 21 37  1  0
 22 38  1  0
 22 39  1  0
 23 40  1  0
 23 41  1  0
 24 42  1  0
 24 43  1  0
 25 44  1  0
 25 45  1  0
M  END
>  <smiles>  (19) 
O=c1c2ccc(Cl)cc2nc(-c2cccnc2)n1CC1CCCCC1

>  <score_type>  (19) 
oracle

>  <origin>  (19) 
autodockgpu

>  <m_score__min__energy>  (19) 
-6.9400000000000004

>  <m_primary>  (19) 
energy

>  <meeko>  (19) 
{"free_energy": -6.91, "intermolecular_energy": -7.81, "internal_energy": -1.23, "cluster_size": 19, "cluster_id": 1, "rank_in_cluster": 11}

>  <energy>  (19) 
-6.83

>  <cluster_rmsd>  (19) 
0.49

>  <rmsd>  (19) 
272.55

>  <cluster>  (19) 
1

$$$$

     RDKit          3D

 45 48  0  0  0  0  0  0  0  0999 V2000
  140.3280   74.6380  221.9900 O   0  0  0  0  0  0  0  0  0  0  0  0
  141.1670   75.1120  221.1810 C   0  0  0  0  0  0  0  0  0  0  0  0
  142.1700   74.2780  220.7690 C   0  0  0  0  0  0  0  0  0  0  0  0
  142.2520   72.9910  221.2140 C   0  0  0  0  0  0  0  0  0  0  0  0
  143.2990   72.2180  220.7440 C   0  0  0  0  0  0  0  0  0  0  0  0
  144.2200   72.7410  219.8580 C   0  0  0  0  0  0  0  0  0  0  0  0
  145.5530   71.7380  219.2680 Cl  0  0  0  0  0  0  0  0  0  0  0  0
  144.1420   74.0570  219.4000 C   0  0  0  0  0  0  0  0  0  0  0  0
  143.0870   74.7970  219.8890 C   0  0  0  0  0  0  0  0  0  0  0  0
  142.9480   76.0460  219.4990 N   0  0  0  0  0  0  0  0  0  0  0  0
  141.9640   76.9120  219.8840 C   0  0  0  0  0  0  0  0  0  0  0  0
  142.0700   78.2460  219.3710 C   0  0  0  0  0  0  0  0  0  0  0  0
  141.8320   79.4390  219.9720 C   0  0  0  0  0  0  0  0  0  0  0  0
  141.9520   80.6730  219.3130 C   0  0  0  0  0  0  0  0  0  0  0  0
  142.3270   80.6980  217.9920 C   0  0  0  0  0  0  0  0  0  0  0  0
  142.5610   79.5330  217.3930 N   0  0  0  0  0  0  0  0  0  0  0  0
  142.4490   78.3580  218.0150 C   0  0  0  0  0  0  0  0  0  0  0  0
  141.0650   76.4200  220.7400 N   0  0  0  0  0  0  0  0  0  0  0  0
  139.9600   77.1400  221.2710 C   0  0  0  0  0  0  0  0  0  0  0  0
  140.1490   77.8930  222.5320 C   0  0  0  0  0  0  0  0  0  0  0  0
  141.5640   78.2800  222.8760 C   0  0  0  0  0  0  0  0  0  0  0  0
  141.4320   79.0670  224.1980 C   0  0  0  0  0  0  0  0  0  0  0  0
  140.9720   80.4570  223.8040 C   0  0  0  0  0  0  0  0  0  0  0  0
  140.1920   80.4160  222.4960 C   0  0  0  0  0  0  0  0  0  0  0  0
  139.3330   79.1670  222.4450 C   0  0  0  0  0  0  0  0  0  0  0  0
  141.5135   72.5831  221.9199 H   0  0  0  0  0  0  0  0  0  0  0  0
  143.3988   71.1753  221.0799 H   0  0  0  0  0  0  0  0  0  0  0  0
  144.8747   74.4763  218.6948 H   0  0  0  0  0  0  0  0  0  0  0  0
  141.5296   79.4394  221.0296 H   0  0  0  0  0  0  0  0  0  0  0  0
  141.7475   81.6111  219.8498 H   0  0  0  0  0  0  0  0  0  0  0  0
  142.4303   81.6484  217.4478 H   0  0  0  0  0  0  0  0  0  0  0  0
  142.6605   77.4390  217.4487 H   0  0  0  0  0  0  0  0  0  0  0  0
  139.6450   77.8635  220.5046 H   0  0  0  0  0  0  0  0  0  0  0  0
  139.2288   76.3599  221.5295 H   0  0  0  0  0  0  0  0  0  0  0  0
  139.8297   77.2042  223.3280 H   0  0  0  0  0  0  0  0  0  0  0  0
  142.1898   77.3862  223.0152 H   0  0  0  0  0  0  0  0  0  0  0  0
  142.0441   78.8698  222.0812 H   0  0  0  0  0  0  0  0  0  0  0  0
  140.6908   78.5899  224.8560 H   0  0  0  0  0  0  0  0  0  0  0  0
  142.3830   79.0954  224.7502 H   0  0  0  0  0  0  0  0  0  0  0  0
  140.3260   80.8618  224.5970 H   0  0  0  0  0  0  0  0  0  0  0  0
  141.8565   81.0968  223.6682 H   0  0  0  0  0  0  0  0  0  0  0  0
  139.5475   81.3048  222.4279 H   0  0  0  0  0  0  0  0  0  0  0  0
  140.8991   80.4034  221.6534 H   0  0  0  0  0  0  0  0  0  0  0  0
  138.6266   79.1909  223.2879 H   0  0  0  0  0  0  0  0  0  0  0  0
  138.8106   79.1619  221.4770 H   0  0  0  0  0  0  0  0  0  0  0  0
  1  2  2  0
  2  3  1  0
  3  4  2  0
  4  5  1  0
  5  6  2  0
  6  7  1  0
  6  8  1  0
  8  9  2  0
  9 10  1  0
 10 11  2  0
 11 12  1  0
 12 13  2  0
 13 14  1  0
 14 15  2  0
 15 16  1  0
 16 17  2  0
 11 18  1  0
 18 19  1  0
 19 20  1  0
 20 21  1  0
 21 22  1  0
 22 23  1  0
 23 24  1  0
 24 25  1  0
 18  2  1  0
 25 20  1  0
  9  3  1  0
 17 12  1  0
  4 26  1  0
  5 27  1  0
  8 28  1  0
 13 29  1  0
 14 30  1  0
 15 31  1  0
 17 32  1  0
 19 33  1  0
 19 34  1  0
 20 35  1  0
 21 36  1  0
 21 37  1  0
 22 38  1  0
 22 39  1  0
 23 40  1  0
 23 41  1  0
 24 42  1  0
 24 43  1  0
 25 44  1  0
 25 45  1  0
M  END
>  <smiles>  (20) 
O=c1c2ccc(Cl)cc2nc(-c2cccnc2)n1CC1CCCCC1

>  <score_type>  (20) 
oracle

>  <origin>  (20) 
autodockgpu

>  <m_score__min__energy>  (20) 
-6.9400000000000004

>  <m_primary>  (20) 
energy

>  <meeko>  (20) 
{"free_energy": -6.91, "intermolecular_energy": -7.8, "internal_energy": -1.22, "cluster_size": 19, "cluster_id": 1, "rank_in_cluster": 13}

>  <energy>  (20) 
-6.72

>  <cluster_rmsd>  (20) 
0.0

>  <rmsd>  (20) 
272.18

>  <cluster>  (20) 
2

$$$$
