
     RDKit          3D

 45 47  0  0  1  0  0  0  0  0999 V2000
  139.0840   77.9130  222.8980 O   0  0  0  0  0  0  0  0  0  0  0  0
  140.3240   77.8210  222.7140 C   0  0  0  0  0  0  0  0  0  0  0  0
  140.8350   76.5810  222.2370 N   0  0  0  0  0  0  0  0  0  0  0  0
  139.9500   75.4620  221.9730 C   0  0  0  0  0  0  0  0  0  0  0  0
  140.7970   74.3190  221.5650 C   0  0  0  0  0  0  0  0  0  0  0  0
  142.0140   74.4190  221.2600 O   0  0  0  0  0  0  0  0  0  0  0  0
  140.2140   73.0390  221.5140 N   0  0  0  0  0  0  0  0  0  0  0  0
  139.1680   72.6470  220.5710 C   0  0  0  0  0  0  0  0  0  0  0  0
  138.9830   71.1640  220.7580 C   0  0  0  0  0  0  0  0  0  0  0  0
  140.3050   70.7520  221.3860 C   0  0  0  0  0  0  0  0  0  0  0  0
  140.5140   71.8740  222.3580 C   0  0  2  0  0  0  0  0  0  0  0  0
  139.4830   71.8900  223.4400 C   0  0  0  0  0  0  0  0  0  0  0  0
  140.0060   71.2240  224.6450 C   0  0  0  0  0  0  0  0  0  0  0  0
  140.6970   71.8840  225.6410 C   0  0  0  0  0  0  0  0  0  0  0  0
  141.1730   71.2180  226.7610 C   0  0  0  0  0  0  0  0  0  0  0  0
  140.9750   69.8600  226.9240 C   0  0  0  0  0  0  0  0  0  0  0  0
  140.2820   69.1820  225.9300 C   0  0  0  0  0  0  0  0  0  0  0  0
  139.8140   69.8700  224.8150 C   0  0  0  0  0  0  0  0  0  0  0  0
  141.1370   78.9800  223.0000 C   0  0  0  0  0  0  0  0  0  0  0  0
  140.5100   80.0990  223.5030 C   0  0  0  0  0  0  0  0  0  0  0  0
  141.2700   81.2340  223.7890 C   0  0  0  0  0  0  0  0  0  0  0  0
  142.5880   81.2540  223.5850 N   0  0  0  0  0  0  0  0  0  0  0  0
  143.2350   80.1720  223.0920 C   0  0  0  0  0  0  0  0  0  0  0  0
  142.4950   79.0520  222.8080 C   0  0  0  0  0  0  0  0  0  0  0  0
  141.8690   76.5340  222.0930 H   0  0  0  0  0  0  0  0  0  0  0  0
  139.3847   75.2065  222.8814 H   0  0  0  0  0  0  0  0  0  0  0  0
  139.2281   75.7141  221.1823 H   0  0  0  0  0  0  0  0  0  0  0  0
  138.2322   73.1809  220.7930 H   0  0  0  0  0  0  0  0  0  0  0  0
  139.4433   72.8936  219.5349 H   0  0  0  0  0  0  0  0  0  0  0  0
  138.1384   70.9489  221.4292 H   0  0  0  0  0  0  0  0  0  0  0  0
  138.7504   70.6271  219.8265 H   0  0  0  0  0  0  0  0  0  0  0  0
  140.2252   69.7818  221.8983 H   0  0  0  0  0  0  0  0  0  0  0  0
  141.1266   70.6113  220.6683 H   0  0  0  0  0  0  0  0  0  0  0  0
  141.5035   71.8213  222.8356 H   0  0  0  0  0  0  0  0  0  0  0  0
  139.2256   72.9316  223.6824 H   0  0  0  0  0  0  0  0  0  0  0  0
  138.5869   71.3551  223.0924 H   0  0  0  0  0  0  0  0  0  0  0  0
  140.8747   72.9652  225.5443 H   0  0  0  0  0  0  0  0  0  0  0  0
  141.7178   71.7809  227.5332 H   0  0  0  0  0  0  0  0  0  0  0  0
  141.3541   69.3334  227.8122 H   0  0  0  0  0  0  0  0  0  0  0  0
  140.1030   68.1008  226.0241 H   0  0  0  0  0  0  0  0  0  0  0  0
  139.2697   69.3116  224.0392 H   0  0  0  0  0  0  0  0  0  0  0  0
  139.4238   80.0978  223.6770 H   0  0  0  0  0  0  0  0  0  0  0  0
  140.7726   82.1293  224.1903 H   0  0  0  0  0  0  0  0  0  0  0  0
  144.3219   80.1901  222.9240 H   0  0  0  0  0  0  0  0  0  0  0  0
  143.0145   78.1691  222.4072 H   0  0  0  0  0  0  0  0  0  0  0  0
  1  2  2  0
  2  3  1  0
  3  4  1  0
  4  5  1  0
  5  6  2  0
  5  7  1  0
  7  8  1  0
  8  9  1  0
  9 10  1  0
 10 11  1  0
 11 12  1  0
 12 13  1  0
 13 14  2  0
 14 15  1  0
 15 16  2  0
 16 17  1  0
 17 18  2  0
  2 19  1  0
 19 20  2  0
 20 21  1  0
 21 22  2  0
 22 23  1  0
 23 24  2  0
 11  7  1  0
 18 13  1  0
 24 19  1  0
  3 25  1  0
  4 26  1  0
  4 27  1  0
  8 28  1  0
  8 29  1  0
  9 30  1  0
  9 31  1  0
 10 32  1  0
 10 33  1  0
 11 34  1  1
 12 35  1  0
 12 36  1  0
 14 37  1  0
 15 38  1  0
 16 39  1  0
 17 40  1  0
 18 41  1  0
 20 42  1  0
 21 43  1  0
 23 44  1  0
 24 45  1  0
M  END
>  <smiles>  (1) 
O=C(NCC(=O)N1CCCC1Cc1ccccc1)c1ccncc1

>  <score_type>  (1) 
oracle

>  <origin>  (1) 
autodockgpu

>  <m_score__min__energy>  (1) 
-7.1100000000000003

>  <m_primary>  (1) 
energy

>  <meeko>  (1) 
{"free_energy": -6.82, "intermolecular_energy": -8.61, "internal_energy": -1.59, "cluster_size": 4, "cluster_id": 3, "rank_in_cluster": 4}

>  <energy>  (1) 
-7.11

>  <cluster_rmsd>  (1) 
0.0

>  <rmsd>  (1) 
270.71

>  <cluster>  (1) 
1

$$$$

     RDKit          3D

 45 47  0  0  1  0  0  0  0  0999 V2000
  143.5090   76.5340  219.4660 O   0  0  0  0  0  0  0  0  0  0  0  0
  143.3580   75.4370  220.0590 C   0  0  0  0  0  0  0  0  0  0  0  0
  142.1810   75.2580  220.8390 N   0  0  0  0  0  0  0  0  0  0  0  0
  141.1880   76.3110  220.9420 C   0  0  0  0  0  0  0  0  0  0  0  0
  140.0190   75.7440  221.6510 C   0  0  0  0  0  0  0  0  0  0  0  0
  140.0150   74.6180  222.2110 O   0  0  0  0  0  0  0  0  0  0  0  0
  138.8390   76.5080  221.7090 N   0  0  0  0  0  0  0  0  0  0  0  0
  137.7290   76.3830  220.7650 C   0  0  0  0  0  0  0  0  0  0  0  0
  136.6250   77.2490  221.3120 C   0  0  0  0  0  0  0  0  0  0  0  0
  136.9970   77.3510  222.7830 C   0  0  0  0  0  0  0  0  0  0  0  0
  138.4790   77.5480  222.6840 C   0  0  2  0  0  0  0  0  0  0  0  0
  138.8400   78.8440  222.0350 C   0  0  0  0  0  0  0  0  0  0  0  0
  140.2050   79.2400  222.4240 C   0  0  0  0  0  0  0  0  0  0  0  0
  140.8790   78.6940  223.4990 C   0  0  0  0  0  0  0  0  0  0  0  0
  142.1640   79.0950  223.8310 C   0  0  0  0  0  0  0  0  0  0  0  0
  142.8240   80.0630  223.0970 C   0  0  0  0  0  0  0  0  0  0  0  0
  142.1600   80.6210  222.0140 C   0  0  0  0  0  0  0  0  0  0  0  0
  140.8700   80.2030  221.6980 C   0  0  0  0  0  0  0  0  0  0  0  0
  144.3920   74.4390  219.9060 C   0  0  0  0  0  0  0  0  0  0  0  0
  144.4330   73.7290  218.7250 C   0  0  0  0  0  0  0  0  0  0  0  0
  145.4200   72.7590  218.5480 C   0  0  0  0  0  0  0  0  0  0  0  0
  146.3220   72.5080  219.4990 N   0  0  0  0  0  0  0  0  0  0  0  0
  146.3090   73.1870  220.6700 C   0  0  0  0  0  0  0  0  0  0  0  0
  145.3420   74.1420  220.8520 C   0  0  0  0  0  0  0  0  0  0  0  0
  142.0840   74.3350  221.3200 H   0  0  0  0  0  0  0  0  0  0  0  0
  141.5970   77.1602  221.5091 H   0  0  0  0  0  0  0  0  0  0  0  0
  140.9004   76.6747  219.9445 H   0  0  0  0  0  0  0  0  0  0  0  0
  138.0329   76.7343  219.7679 H   0  0  0  0  0  0  0  0  0  0  0  0
  137.4064   75.3370  220.6559 H   0  0  0  0  0  0  0  0  0  0  0  0
  136.6195   78.2389  220.8323 H   0  0  0  0  0  0  0  0  0  0  0  0
  135.6175   76.8431  221.1380 H   0  0  0  0  0  0  0  0  0  0  0  0
  136.5059   78.2084  223.2664 H   0  0  0  0  0  0  0  0  0  0  0  0
  136.6918   76.4868  223.3913 H   0  0  0  0  0  0  0  0  0  0  0  0
  138.9607   77.5204  223.6726 H   0  0  0  0  0  0  0  0  0  0  0  0
  138.7914   78.7299  220.9420 H   0  0  0  0  0  0  0  0  0  0  0  0
  138.1323   79.6204  222.3611 H   0  0  0  0  0  0  0  0  0  0  0  0
  140.3841   77.9221  224.1066 H   0  0  0  0  0  0  0  0  0  0  0  0
  142.6674   78.6347  224.6939 H   0  0  0  0  0  0  0  0  0  0  0  0
  143.8430   80.3807  223.3631 H   0  0  0  0  0  0  0  0  0  0  0  0
  142.6526   81.3935  221.4052 H   0  0  0  0  0  0  0  0  0  0  0  0
  140.3625   80.6595  220.8354 H   0  0  0  0  0  0  0  0  0  0  0  0
  143.6964   73.9249  217.9319 H   0  0  0  0  0  0  0  0  0  0  0  0
  145.4554   72.1905  217.6070 H   0  0  0  0  0  0  0  0  0  0  0  0
  147.0529   72.9786  221.4531 H   0  0  0  0  0  0  0  0  0  0  0  0
  145.3265   74.6970  221.8016 H   0  0  0  0  0  0  0  0  0  0  0  0
  1  2  2  0
  2  3  1  0
  3  4  1  0
  4  5  1  0
  5  6  2  0
  5  7  1  0
  7  8  1  0
  8  9  1  0
  9 10  1  0
 10 11  1  0
 11 12  1  0
 12 13  1  0
 13 14  2  0
 14 15  1  0
 15 16  2  0
 16 17  1  0
 17 18  2  0
  2 19  1  0
 19 20  2  0
 20 21  1  0
 21 22  2  0
 22 23  1  0
 23 24  2  0
 11  7  1  0
 18 13  1  0
 24 19  1  0
  3 25  1  0
  4 26  1  0
  4 27  1  0
  8 28  1  0
  8 29  1  0
  9 30  1  0
  9 31  1  0
 10 32  1  0
 10 33  1  0
 11 34  1  1
 12 35  1  0
 12 36  1  0
 14 37  1  0
 15 38  1  0
 16 39  1  0
 17 40  1  0
 18 41  1  0
 20 42  1  0
 21 43  1  0
 23 44  1  0
 24 45  1  0
M  END
>  <smiles>  (2) 
O=C(NCC(=O)N1CCCC1Cc1ccccc1)c1ccncc1

>  <score_type>  (2) 
oracle

>  <origin>  (2) 
autodockgpu

>  <m_score__min__energy>  (2) 
-7.1100000000000003

>  <m_primary>  (2) 
energy

>  <meeko>  (2) 
{"free_energy": -6.52, "intermolecular_energy": -8.31, "internal_energy": -1.91, "cluster_size": 7, "cluster_id": 4, "rank_in_cluster": 6}

>  <energy>  (2) 
-7.09

>  <cluster_rmsd>  (2) 
0.07

>  <rmsd>  (2) 
270.73

>  <cluster>  (2) 
1

$$$$

     RDKit          3D

 45 47  0  0  1  0  0  0  0  0999 V2000
  135.3820   76.8840  223.2400 O   0  0  0  0  0  0  0  0  0  0  0  0
  135.7220   75.7450  223.6450 C   0  0  0  0  0  0  0  0  0  0  0  0
  136.8380   75.1220  223.0200 N   0  0  0  0  0  0  0  0  0  0  0  0
  137.5590   75.7850  221.9490 C   0  0  0  0  0  0  0  0  0  0  0  0
  138.9410   75.2570  221.9570 C   0  0  0  0  0  0  0  0  0  0  0  0
  139.2510   74.1030  222.3490 O   0  0  0  0  0  0  0  0  0  0  0  0
  139.9780   76.0910  221.4980 N   0  0  0  0  0  0  0  0  0  0  0  0
  141.0650   75.6510  220.6250 C   0  0  0  0  0  0  0  0  0  0  0  0
  141.8220   76.8980  220.2510 C   0  0  0  0  0  0  0  0  0  0  0  0
  140.7860   77.9860  220.4900 C   0  0  0  0  0  0  0  0  0  0  0  0
  140.1840   77.5190  221.7810 C   0  0  2  0  0  0  0  0  0  0  0  0
  141.1580   77.5640  222.9130 C   0  0  0  0  0  0  0  0  0  0  0  0
  141.5280   78.9590  223.2040 C   0  0  0  0  0  0  0  0  0  0  0  0
  142.8270   79.4270  223.1600 C   0  0  0  0  0  0  0  0  0  0  0  0
  143.1320   80.7500  223.4410 C   0  0  0  0  0  0  0  0  0  0  0  0
  142.1460   81.6580  223.7800 C   0  0  0  0  0  0  0  0  0  0  0  0
  140.8350   81.2020  223.8280 C   0  0  0  0  0  0  0  0  0  0  0  0
  140.5510   79.8690  223.5420 C   0  0  0  0  0  0  0  0  0  0  0  0
  134.9540   75.1510  224.7150 C   0  0  0  0  0  0  0  0  0  0  0  0
  134.3450   75.9960  225.6180 C   0  0  0  0  0  0  0  0  0  0  0  0
  133.5960   75.4530  226.6620 C   0  0  0  0  0  0  0  0  0  0  0  0
  133.4600   74.1320  226.8010 N   0  0  0  0  0  0  0  0  0  0  0  0
  134.0450   73.2750  225.9320 C   0  0  0  0  0  0  0  0  0  0  0  0
  134.7830   73.8020  224.9030 C   0  0  0  0  0  0  0  0  0  0  0  0
  137.0970   74.1750  223.3770 H   0  0  0  0  0  0  0  0  0  0  0  0
  137.0794   75.5699  220.9827 H   0  0  0  0  0  0  0  0  0  0  0  0
  137.5576   76.8753  222.0950 H   0  0  0  0  0  0  0  0  0  0  0  0
  141.7232   74.9486  221.1573 H   0  0  0  0  0  0  0  0  0  0  0  0
  140.6833   75.1274  219.7361 H   0  0  0  0  0  0  0  0  0  0  0  0
  142.7031   77.0379  220.8945 H   0  0  0  0  0  0  0  0  0  0  0  0
  142.2184   76.8832  219.2250 H   0  0  0  0  0  0  0  0  0  0  0  0
  141.2547   78.9755  220.5960 H   0  0  0  0  0  0  0  0  0  0  0  0
  140.0638   78.1162  219.6706 H   0  0  0  0  0  0  0  0  0  0  0  0
  139.3089   78.1222  222.0646 H   0  0  0  0  0  0  0  0  0  0  0  0
  140.6993   77.1149  223.8063 H   0  0  0  0  0  0  0  0  0  0  0  0
  142.0614   77.0015  222.6345 H   0  0  0  0  0  0  0  0  0  0  0  0
  143.6388   78.7334  222.8957 H   0  0  0  0  0  0  0  0  0  0  0  0
  144.1790   81.0838  223.3933 H   0  0  0  0  0  0  0  0  0  0  0  0
  142.3916   82.7065  224.0042 H   0  0  0  0  0  0  0  0  0  0  0  0
  140.0213   81.8935  224.0918 H   0  0  0  0  0  0  0  0  0  0  0  0
  139.5056   79.5297  223.5879 H   0  0  0  0  0  0  0  0  0  0  0  0
  134.4486   77.0864  225.5164 H   0  0  0  0  0  0  0  0  0  0  0  0
  133.1087   76.1251  227.3837 H   0  0  0  0  0  0  0  0  0  0  0  0
  133.9318   72.1870  226.0477 H   0  0  0  0  0  0  0  0  0  0  0  0
  135.2611   73.1101  224.1940 H   0  0  0  0  0  0  0  0  0  0  0  0
  1  2  2  0
  2  3  1  0
  3  4  1  0
  4  5  1  0
  5  6  2  0
  5  7  1  0
  7  8  1  0
  8  9  1  0
  9 10  1  0
 10 11  1  0
 11 12  1  0
 12 13  1  0
 13 14  2  0
 14 15  1  0
 15 16  2  0
 16 17  1  0
 17 18  2  0
  2 19  1  0
 19 20  2  0
 20 21  1  0
 21 22  2  0
 22 23  1  0
 23 24  2  0
 11  7  1  0
 18 13  1  0
 24 19  1  0
  3 25  1  0
  4 26  1  0
  4 27  1  0
  8 28  1  0
  8 29  1  0
  9 30  1  0
  9 31  1  0
 10 32  1  0
 10 33  1  0
 11 34  1  1
 12 35  1  0
 12 36  1  0
 14 37  1  0
 15 38  1  0
 16 39  1  0
 17 40  1  0
 18 41  1  0
 20 42  1  0
 21 43  1  0
 23 44  1  0
 24 45  1  0
M  END
>  <smiles>  (3) 
O=C(NCC(=O)N1CCCC1Cc1ccccc1)c1ccncc1

>  <score_type>  (3) 
oracle

>  <origin>  (3) 
autodockgpu

>  <m_score__min__energy>  (3) 
-7.1100000000000003

>  <m_primary>  (3) 
energy

>  <meeko>  (3) 
{"free_energy": -6.96, "intermolecular_energy": -8.75, "internal_energy": -1.52, "cluster_size": 7, "cluster_id": 1, "rank_in_cluster": 7}

>  <energy>  (3) 
-7.09

>  <cluster_rmsd>  (3) 
0.07

>  <rmsd>  (3) 
270.69

>  <cluster>  (3) 
1

$$$$

     RDKit          3D

 45 47  0  0  1  0  0  0  0  0999 V2000
  134.8560   68.6360  225.1700 O   0  0  0  0  0  0  0  0  0  0  0  0
  135.2650   69.8010  224.9390 C   0  0  0  0  0  0  0  0  0  0  0  0
  136.3360   69.9600  224.0150 N   0  0  0  0  0  0  0  0  0  0  0  0
  136.9340   68.8100  223.3630 C   0  0  0  0  0  0  0  0  0  0  0  0
  138.3660   68.7880  223.7360 C   0  0  0  0  0  0  0  0  0  0  0  0
  138.9140   67.8470  224.3660 O   0  0  0  0  0  0  0  0  0  0  0  0
  139.1690   69.8830  223.3670 N   0  0  0  0  0  0  0  0  0  0  0  0
  139.8370   70.0160  222.0730 C   0  0  0  0  0  0  0  0  0  0  0  0
  140.4220   71.4030  222.0540 C   0  0  0  0  0  0  0  0  0  0  0  0
  139.5760   72.1230  223.0930 C   0  0  0  0  0  0  0  0  0  0  0  0
  139.4960   71.0760  224.1620 C   0  0  2  0  0  0  0  0  0  0  0  0
  140.8260   70.7890  224.7800 C   0  0  0  0  0  0  0  0  0  0  0  0
  140.6470   70.0380  226.0350 C   0  0  0  0  0  0  0  0  0  0  0  0
  140.0020   70.5500  227.1430 C   0  0  0  0  0  0  0  0  0  0  0  0
  139.8550   69.8080  228.3060 C   0  0  0  0  0  0  0  0  0  0  0  0
  140.3520   68.5220  228.4020 C   0  0  0  0  0  0  0  0  0  0  0  0
  141.0020   67.9930  227.2960 C   0  0  0  0  0  0  0  0  0  0  0  0
  141.1390   68.7550  226.1390 C   0  0  0  0  0  0  0  0  0  0  0  0
  134.6170   70.8930  225.6280 C   0  0  0  0  0  0  0  0  0  0  0  0
  134.6460   72.1380  225.0370 C   0  0  0  0  0  0  0  0  0  0  0  0
  134.0290   73.2110  225.6790 C   0  0  0  0  0  0  0  0  0  0  0  0
  133.4120   73.0540  226.8520 N   0  0  0  0  0  0  0  0  0  0  0  0
  133.3650   71.8460  227.4600 C   0  0  0  0  0  0  0  0  0  0  0  0
  133.9700   70.7850  226.8350 C   0  0  0  0  0  0  0  0  0  0  0  0
  136.6540   70.9400  223.8430 H   0  0  0  0  0  0  0  0  0  0  0  0
  136.4422   67.8866  223.7029 H   0  0  0  0  0  0  0  0  0  0  0  0
  136.8169   68.8767  222.2713 H   0  0  0  0  0  0  0  0  0  0  0  0
  140.6329   69.2632  221.9736 H   0  0  0  0  0  0  0  0  0  0  0  0
  139.1376   69.8601  221.2384 H   0  0  0  0  0  0  0  0  0  0  0  0
  141.4835   71.3921  222.3421 H   0  0  0  0  0  0  0  0  0  0  0  0
  140.4010   71.8774  221.0618 H   0  0  0  0  0  0  0  0  0  0  0  0
  140.0707   73.0359  223.4563 H   0  0  0  0  0  0  0  0  0  0  0  0
  138.6008   72.4733  222.7239 H   0  0  0  0  0  0  0  0  0  0  0  0
  138.8055   71.3678  224.9670 H   0  0  0  0  0  0  0  0  0  0  0  0
  141.4311   70.1923  224.0816 H   0  0  0  0  0  0  0  0  0  0  0  0
  141.3358   71.7392  224.9974 H   0  0  0  0  0  0  0  0  0  0  0  0
  139.5947   71.5710  227.1028 H   0  0  0  0  0  0  0  0  0  0  0  0
  139.3335   70.2512  229.1672 H   0  0  0  0  0  0  0  0  0  0  0  0
  140.2360   67.9363  229.3259 H   0  0  0  0  0  0  0  0  0  0  0  0
  141.4089   66.9717  227.3335 H   0  0  0  0  0  0  0  0  0  0  0  0
  141.6597   68.3163  225.2751 H   0  0  0  0  0  0  0  0  0  0  0  0
  135.1500   72.2833  224.0701 H   0  0  0  0  0  0  0  0  0  0  0  0
  134.0512   74.2057  225.2098 H   0  0  0  0  0  0  0  0  0  0  0  0
  132.8566   71.7184  228.4271 H   0  0  0  0  0  0  0  0  0  0  0  0
  133.9353   69.8003  227.3240 H   0  0  0  0  0  0  0  0  0  0  0  0
  1  2  2  0
  2  3  1  0
  3  4  1  0
  4  5  1  0
  5  6  2  0
  5  7  1  0
  7  8  1  0
  8  9  1  0
  9 10  1  0
 10 11  1  0
 11 12  1  0
 12 13  1  0
 13 14  2  0
 14 15  1  0
 15 16  2  0
 16 17  1  0
 17 18  2  0
  2 19  1  0
 19 20  2  0
 20 21  1  0
 21 22  2  0
 22 23  1  0
 23 24  2  0
 11  7  1  0
 18 13  1  0
 24 19  1  0
  3 25  1  0
  4 26  1  0
  4 27  1  0
  8 28  1  0
  8 29  1  0
  9 30  1  0
  9 31  1  0
 10 32  1  0
 10 33  1  0
 11 34  1  1
 12 35  1  0
 12 36  1  0
 14 37  1  0
 15 38  1  0
 16 39  1  0
 17 40  1  0
 18 41  1  0
 20 42  1  0
 21 43  1  0
 23 44  1  0
 24 45  1  0
M  END
>  <smiles>  (4) 
O=C(NCC(=O)N1CCCC1Cc1ccccc1)c1ccncc1

>  <score_type>  (4) 
oracle

>  <origin>  (4) 
autodockgpu

>  <m_score__min__energy>  (4) 
-7.1100000000000003

>  <m_primary>  (4) 
energy

>  <meeko>  (4) 
{"free_energy": -6.9, "intermolecular_energy": -8.69, "internal_energy": -1.62, "cluster_size": 2, "cluster_id": 2, "rank_in_cluster": 1}

>  <energy>  (4) 
-7.09

>  <cluster_rmsd>  (4) 
0.08

>  <rmsd>  (4) 
270.68

>  <cluster>  (4) 
1

$$$$

     RDKit          3D

 45 47  0  0  1  0  0  0  0  0999 V2000
  135.5800   76.5070  222.7760 O   0  0  0  0  0  0  0  0  0  0  0  0
  135.8860   75.4000  223.2850 C   0  0  0  0  0  0  0  0  0  0  0  0
  136.9770   74.6850  222.7170 N   0  0  0  0  0  0  0  0  0  0  0  0
  137.7100   75.2210  221.5850 C   0  0  0  0  0  0  0  0  0  0  0  0
  139.1420   74.9140  221.8030 C   0  0  0  0  0  0  0  0  0  0  0  0
  139.5590   73.8590  222.3470 O   0  0  0  0  0  0  0  0  0  0  0  0
  140.0990   75.8530  221.3780 N   0  0  0  0  0  0  0  0  0  0  0  0
  141.2610   75.5300  220.5520 C   0  0  0  0  0  0  0  0  0  0  0  0
  141.8930   76.8500  220.1980 C   0  0  0  0  0  0  0  0  0  0  0  0
  140.7380   77.8210  220.3890 C   0  0  0  0  0  0  0  0  0  0  0  0
  140.1390   77.2960  221.6590 C   0  0  2  0  0  0  0  0  0  0  0  0
  141.0570   77.4490  222.8270 C   0  0  0  0  0  0  0  0  0  0  0  0
  141.2970   78.8770  223.0960 C   0  0  0  0  0  0  0  0  0  0  0  0
  140.2860   79.7880  223.3290 C   0  0  0  0  0  0  0  0  0  0  0  0
  140.5550   81.1260  223.5780 C   0  0  0  0  0  0  0  0  0  0  0  0
  141.8530   81.6030  223.6030 C   0  0  0  0  0  0  0  0  0  0  0  0
  142.8800   80.6980  223.3720 C   0  0  0  0  0  0  0  0  0  0  0  0
  142.5870   79.3600  223.1230 C   0  0  0  0  0  0  0  0  0  0  0  0
  135.1070   74.9360  224.4100 C   0  0  0  0  0  0  0  0  0  0  0  0
  134.6370   75.8760  225.3010 C   0  0  0  0  0  0  0  0  0  0  0  0
  133.8820   75.4570  226.3970 C   0  0  0  0  0  0  0  0  0  0  0  0
  133.6080   74.1660  226.5970 N   0  0  0  0  0  0  0  0  0  0  0  0
  134.0560   73.2170  225.7410 C   0  0  0  0  0  0  0  0  0  0  0  0
  134.7980   73.6210  224.6610 C   0  0  0  0  0  0  0  0  0  0  0  0
  137.2090   73.7680  223.1610 H   0  0  0  0  0  0  0  0  0  0  0  0
  137.3616   74.7504  220.6538 H   0  0  0  0  0  0  0  0  0  0  0  0
  137.5531   76.3063  221.4978 H   0  0  0  0  0  0  0  0  0  0  0  0
  141.9695   74.9050  221.1154 H   0  0  0  0  0  0  0  0  0  0  0  0
  140.9739   74.9648  219.6530 H   0  0  0  0  0  0  0  0  0  0  0  0
  142.7284   77.0861  220.8736 H   0  0  0  0  0  0  0  0  0  0  0  0
  142.3279   76.8745  219.1879 H   0  0  0  0  0  0  0  0  0  0  0  0
  141.0935   78.8554  220.5061 H   0  0  0  0  0  0  0  0  0  0  0  0
  140.0388   77.8704  219.5413 H   0  0  0  0  0  0  0  0  0  0  0  0
  139.1937   77.8022  221.9043 H   0  0  0  0  0  0  0  0  0  0  0  0
  140.6002   76.9833  223.7127 H   0  0  0  0  0  0  0  0  0  0  0  0
  142.0151   76.9586  222.5997 H   0  0  0  0  0  0  0  0  0  0  0  0
  139.2411   79.4443  223.3169 H   0  0  0  0  0  0  0  0  0  0  0  0
  139.7210   81.8200  223.7588 H   0  0  0  0  0  0  0  0  0  0  0  0
  142.0645   82.6644  223.7994 H   0  0  0  0  0  0  0  0  0  0  0  0
  143.9259   81.0383  223.3857 H   0  0  0  0  0  0  0  0  0  0  0  0
  143.4172   78.6617  222.9409 H   0  0  0  0  0  0  0  0  0  0  0  0
  134.8543   76.9437  225.1501 H   0  0  0  0  0  0  0  0  0  0  0  0
  133.5053   76.2051  227.1101 H   0  0  0  0  0  0  0  0  0  0  0  0
  133.8312   72.1531  225.9073 H   0  0  0  0  0  0  0  0  0  0  0  0
  135.1637   72.8549  223.9614 H   0  0  0  0  0  0  0  0  0  0  0  0
  1  2  2  0
  2  3  1  0
  3  4  1  0
  4  5  1  0
  5  6  2  0
  5  7  1  0
  7  8  1  0
  8  9  1  0
  9 10  1  0
 10 11  1  0
 11 12  1  0
 12 13  1  0
 13 14  2  0
 14 15  1  0
 15 16  2  0
 16 17  1  0
 17 18  2  0
  2 19  1  0
 19 20  2  0
 20 21  1  0
 21 22  2  0
 22 23  1  0
 23 24  2  0
 11  7  1  0
 18 13  1  0
 24 19  1  0
  3 25  1  0
  4 26  1  0
  4 27  1  0
  8 28  1  0
  8 29  1  0
  9 30  1  0
  9 31  1  0
 10 32  1  0
 10 33  1  0
 11 34  1  1
 12 35  1  0
 12 36  1  0
 14 37  1  0
 15 38  1  0
 16 39  1  0
 17 40  1  0
 18 41  1  0
 20 42  1  0
 21 43  1  0
 23 44  1  0
 24 45  1  0
M  END
>  <smiles>  (5) 
O=C(NCC(=O)N1CCCC1Cc1ccccc1)c1ccncc1

>  <score_type>  (5) 
oracle

>  <origin>  (5) 
autodockgpu

>  <m_score__min__energy>  (5) 
-7.1100000000000003

>  <m_primary>  (5) 
energy

>  <meeko>  (5) 
{"free_energy": -7.09, "intermolecular_energy": -8.88, "internal_energy": -1.44, "cluster_size": 7, "cluster_id": 1, "rank_in_cluster": 3}

>  <energy>  (5) 
-7.08

>  <cluster_rmsd>  (5) 
0.1

>  <rmsd>  (5) 
270.72

>  <cluster>  (5) 
1

$$$$

     RDKit          3D

 45 47  0  0  1  0  0  0  0  0999 V2000
  143.4880   76.3880  219.4840 O   0  0  0  0  0  0  0  0  0  0  0  0
  143.3120   75.2850  220.0590 C   0  0  0  0  0  0  0  0  0  0  0  0
  142.1000   75.0970  220.7810 N   0  0  0  0  0  0  0  0  0  0  0  0
  141.1010   76.1480  220.8480 C   0  0  0  0  0  0  0  0  0  0  0  0
  139.9740   75.6320  221.6570 C   0  0  0  0  0  0  0  0  0  0  0  0
  139.9950   74.5350  222.2720 O   0  0  0  0  0  0  0  0  0  0  0  0
  138.8070   76.4130  221.7500 N   0  0  0  0  0  0  0  0  0  0  0  0
  137.6580   76.2880  220.8540 C   0  0  0  0  0  0  0  0  0  0  0  0
  136.5890   77.1780  221.4320 C   0  0  0  0  0  0  0  0  0  0  0  0
  137.0220   77.2980  222.8850 C   0  0  0  0  0  0  0  0  0  0  0  0
  138.5020   77.4730  222.7220 C   0  0  2  0  0  0  0  0  0  0  0  0
  138.8520   78.7530  222.0380 C   0  0  0  0  0  0  0  0  0  0  0  0
  140.0590   79.3370  222.6480 C   0  0  0  0  0  0  0  0  0  0  0  0
  140.2920   80.6960  222.7270 C   0  0  0  0  0  0  0  0  0  0  0  0
  141.4420   81.2040  223.3110 C   0  0  0  0  0  0  0  0  0  0  0  0
  142.4070   80.3670  223.8390 C   0  0  0  0  0  0  0  0  0  0  0  0
  142.1870   78.9980  223.7680 C   0  0  0  0  0  0  0  0  0  0  0  0
  141.0260   78.5100  223.1770 C   0  0  0  0  0  0  0  0  0  0  0  0
  144.3530   74.2900  219.9440 C   0  0  0  0  0  0  0  0  0  0  0  0
  144.3390   73.4660  218.8410 C   0  0  0  0  0  0  0  0  0  0  0  0
  145.3320   72.4960  218.7020 C   0  0  0  0  0  0  0  0  0  0  0  0
  146.2920   72.3530  219.6180 N   0  0  0  0  0  0  0  0  0  0  0  0
  146.3350   73.1460  220.7150 C   0  0  0  0  0  0  0  0  0  0  0  0
  145.3620   74.1020  220.8570 C   0  0  0  0  0  0  0  0  0  0  0  0
  141.9810   74.1700  221.2480 H   0  0  0  0  0  0  0  0  0  0  0  0
  141.5275   77.0432  221.3242 H   0  0  0  0  0  0  0  0  0  0  0  0
  140.7612   76.4276  219.8399 H   0  0  0  0  0  0  0  0  0  0  0  0
  137.9253   76.6193  219.8397 H   0  0  0  0  0  0  0  0  0  0  0  0
  137.3176   75.2450  220.7747 H   0  0  0  0  0  0  0  0  0  0  0  0
  136.5771   78.1602  220.9370 H   0  0  0  0  0  0  0  0  0  0  0  0
  135.5700   76.7833  221.3060 H   0  0  0  0  0  0  0  0  0  0  0  0
  136.5625   78.1696  223.3739 H   0  0  0  0  0  0  0  0  0  0  0  0
  136.7305   76.4479  223.5194 H   0  0  0  0  0  0  0  0  0  0  0  0
  139.0243   77.4542  223.6899 H   0  0  0  0  0  0  0  0  0  0  0  0
  139.0411   78.5566  220.9723 H   0  0  0  0  0  0  0  0  0  0  0  0
  138.0157   79.4596  222.1447 H   0  0  0  0  0  0  0  0  0  0  0  0
  139.5464   81.3927  222.3163 H   0  0  0  0  0  0  0  0  0  0  0  0
  141.5893   82.2932  223.3550 H   0  0  0  0  0  0  0  0  0  0  0  0
  143.3196   80.7724  224.3004 H   0  0  0  0  0  0  0  0  0  0  0  0
  142.9306   78.2993  224.1790 H   0  0  0  0  0  0  0  0  0  0  0  0
  140.8740   77.4216  223.1302 H   0  0  0  0  0  0  0  0  0  0  0  0
  143.5537   73.5713  218.0780 H   0  0  0  0  0  0  0  0  0  0  0  0
  145.3235   71.8370  217.8213 H   0  0  0  0  0  0  0  0  0  0  0  0
  147.1266   73.0269  221.4695 H   0  0  0  0  0  0  0  0  0  0  0  0
  145.3910   74.7499  221.7454 H   0  0  0  0  0  0  0  0  0  0  0  0
  1  2  2  0
  2  3  1  0
  3  4  1  0
  4  5  1  0
  5  6  2  0
  5  7  1  0
  7  8  1  0
  8  9  1  0
  9 10  1  0
 10 11  1  0
 11 12  1  0
 12 13  1  0
 13 14  2  0
 14 15  1  0
 15 16  2  0
 16 17  1  0
 17 18  2  0
  2 19  1  0
 19 20  2  0
 20 21  1  0
 21 22  2  0
 22 23  1  0
 23 24  2  0
 11  7  1  0
 18 13  1  0
 24 19  1  0
  3 25  1  0
  4 26  1  0
  4 27  1  0
  8 28  1  0
  8 29  1  0
  9 30  1  0
  9 31  1  0
 10 32  1  0
 10 33  1  0
 11 34  1  1
 12 35  1  0
 12 36  1  0
 14 37  1  0
 15 38  1  0
 16 39  1  0
 17 40  1  0
 18 41  1  0
 20 42  1  0
 21 43  1  0
 23 44  1  0
 24 45  1  0
M  END
>  <smiles>  (6) 
O=C(NCC(=O)N1CCCC1Cc1ccccc1)c1ccncc1

>  <score_type>  (6) 
oracle

>  <origin>  (6) 
autodockgpu

>  <m_score__min__energy>  (6) 
-7.1100000000000003

>  <m_primary>  (6) 
energy

>  <meeko>  (6) 
{"free_energy": -6.64, "intermolecular_energy": -8.43, "internal_energy": -1.79, "cluster_size": 7, "cluster_id": 4, "rank_in_cluster": 4}

>  <energy>  (6) 
-7.06

>  <cluster_rmsd>  (6) 
0.05

>  <rmsd>  (6) 
270.69

>  <cluster>  (6) 
1

$$$$

     RDKit          3D

 45 47  0  0  1  0  0  0  0  0999 V2000
  143.7190   76.3810  219.5060 O   0  0  0  0  0  0  0  0  0  0  0  0
  143.4350   75.2720  220.0250 C   0  0  0  0  0  0  0  0  0  0  0  0
  142.1920   75.1570  220.7080 N   0  0  0  0  0  0  0  0  0  0  0  0
  141.2840   76.2850  220.7990 C   0  0  0  0  0  0  0  0  0  0  0  0
  140.1110   75.8430  221.5870 C   0  0  0  0  0  0  0  0  0  0  0  0
  140.0180   74.7150  222.1360 O   0  0  0  0  0  0  0  0  0  0  0  0
  139.0330   76.7340  221.7370 N   0  0  0  0  0  0  0  0  0  0  0  0
  137.8320   76.7240  220.9030 C   0  0  0  0  0  0  0  0  0  0  0  0
  136.8870   77.7140  221.5310 C   0  0  0  0  0  0  0  0  0  0  0  0
  137.4050   77.7900  222.9590 C   0  0  0  0  0  0  0  0  0  0  0  0
  138.8840   77.8180  222.7190 C   0  0  2  0  0  0  0  0  0  0  0  0
  139.3230   79.0590  222.0120 C   0  0  0  0  0  0  0  0  0  0  0  0
  140.5770   79.5590  222.6020 C   0  0  0  0  0  0  0  0  0  0  0  0
  141.7830   78.8940  222.5040 C   0  0  0  0  0  0  0  0  0  0  0  0
  142.9410   79.4010  223.0750 C   0  0  0  0  0  0  0  0  0  0  0  0
  142.9340   80.5960  223.7690 C   0  0  0  0  0  0  0  0  0  0  0  0
  141.7280   81.2760  223.8760 C   0  0  0  0  0  0  0  0  0  0  0  0
  140.5780   80.7500  223.2960 C   0  0  0  0  0  0  0  0  0  0  0  0
  144.3920   74.1980  219.8900 C   0  0  0  0  0  0  0  0  0  0  0  0
  145.3830   74.0940  220.8420 C   0  0  0  0  0  0  0  0  0  0  0  0
  146.3210   73.0670  220.7380 C   0  0  0  0  0  0  0  0  0  0  0  0
  146.2750   72.1870  219.7360 N   0  0  0  0  0  0  0  0  0  0  0  0
  145.3150   72.2610  218.7840 C   0  0  0  0  0  0  0  0  0  0  0  0
  144.3890   73.2680  218.8800 C   0  0  0  0  0  0  0  0  0  0  0  0
  141.9830   74.2240  221.1290 H   0  0  0  0  0  0  0  0  0  0  0  0
  141.7799   77.1279  221.3026 H   0  0  0  0  0  0  0  0  0  0  0  0
  140.9767   76.6196  219.7972 H   0  0  0  0  0  0  0  0  0  0  0  0
  138.0774   77.0281  219.8747 H   0  0  0  0  0  0  0  0  0  0  0  0
  137.3870   75.7196  220.8468 H   0  0  0  0  0  0  0  0  0  0  0  0
  136.9456   78.6929  221.0327 H   0  0  0  0  0  0  0  0  0  0  0  0
  135.8290   77.4214  221.4597 H   0  0  0  0  0  0  0  0  0  0  0  0
  137.0598   78.7026  223.4670 H   0  0  0  0  0  0  0  0  0  0  0  0
  137.0645   76.9725  223.6115 H   0  0  0  0  0  0  0  0  0  0  0  0
  139.4510   77.7466  223.6589 H   0  0  0  0  0  0  0  0  0  0  0  0
  139.4858   78.8335  220.9477 H   0  0  0  0  0  0  0  0  0  0  0  0
  138.5436   79.8282  222.1157 H   0  0  0  0  0  0  0  0  0  0  0  0
  141.8266   77.9390  221.9599 H   0  0  0  0  0  0  0  0  0  0  0  0
  143.8825   78.8414  222.9735 H   0  0  0  0  0  0  0  0  0  0  0  0
  143.8535   80.9954  224.2217 H   0  0  0  0  0  0  0  0  0  0  0  0
  141.6819   82.2311  224.4197 H   0  0  0  0  0  0  0  0  0  0  0  0
  139.6338   81.3056  223.3950 H   0  0  0  0  0  0  0  0  0  0  0  0
  145.4336   74.8121  221.6737 H   0  0  0  0  0  0  0  0  0  0  0  0
  147.1134   72.9809  221.4961 H   0  0  0  0  0  0  0  0  0  0  0  0
  145.2789   71.5351  217.9583 H   0  0  0  0  0  0  0  0  0  0  0  0
  143.6058   73.3338  218.1104 H   0  0  0  0  0  0  0  0  0  0  0  0
  1  2  2  0
  2  3  1  0
  3  4  1  0
  4  5  1  0
  5  6  2  0
  5  7  1  0
  7  8  1  0
  8  9  1  0
  9 10  1  0
 10 11  1  0
 11 12  1  0
 12 13  1  0
 13 14  2  0
 14 15  1  0
 15 16  2  0
 16 17  1  0
 17 18  2  0
  2 19  1  0
 19 20  2  0
 20 21  1  0
 21 22  2  0
 22 23  1  0
 23 24  2  0
 11  7  1  0
 18 13  1  0
 24 19  1  0
  3 25  1  0
  4 26  1  0
  4 27  1  0
  8 28  1  0
  8 29  1  0
  9 30  1  0
  9 31  1  0
 10 32  1  0
 10 33  1  0
 11 34  1  1
 12 35  1  0
 12 36  1  0
 14 37  1  0
 15 38  1  0
 16 39  1  0
 17 40  1  0
 18 41  1  0
 20 42  1  0
 21 43  1  0
 23 44  1  0
 24 45  1  0
M  END
>  <smiles>  (7) 
O=C(NCC(=O)N1CCCC1Cc1ccccc1)c1ccncc1

>  <score_type>  (7) 
oracle

>  <origin>  (7) 
autodockgpu

>  <m_score__min__energy>  (7) 
-7.1100000000000003

>  <m_primary>  (7) 
energy

>  <meeko>  (7) 
{"free_energy": -6.67, "intermolecular_energy": -8.46, "internal_energy": -1.76, "cluster_size": 7, "cluster_id": 4, "rank_in_cluster": 2}

>  <energy>  (7) 
-6.96

>  <cluster_rmsd>  (7) 
0.37

>  <rmsd>  (7) 
270.89

>  <cluster>  (7) 
1

$$$$

     RDKit          3D

 45 47  0  0  1  0  0  0  0  0999 V2000
  135.5900   76.4810  222.7560 O   0  0  0  0  0  0  0  0  0  0  0  0
  135.8940   75.3720  223.2630 C   0  0  0  0  0  0  0  0  0  0  0  0
  136.9870   74.6580  222.6960 N   0  0  0  0  0  0  0  0  0  0  0  0
  137.7250   75.1970  221.5680 C   0  0  0  0  0  0  0  0  0  0  0  0
  139.1560   74.9010  221.7980 C   0  0  0  0  0  0  0  0  0  0  0  0
  139.5770   73.8500  222.3460 O   0  0  0  0  0  0  0  0  0  0  0  0
  140.1100   75.8460  221.3780 N   0  0  0  0  0  0  0  0  0  0  0  0
  141.2720   75.5310  220.5470 C   0  0  0  0  0  0  0  0  0  0  0  0
  141.8990   76.8560  220.2010 C   0  0  0  0  0  0  0  0  0  0  0  0
  140.7410   77.8220  220.4000 C   0  0  0  0  0  0  0  0  0  0  0  0
  140.1460   77.2870  221.6680 C   0  0  2  0  0  0  0  0  0  0  0  0
  141.0660   77.4340  222.8360 C   0  0  0  0  0  0  0  0  0  0  0  0
  141.3260   78.8610  223.0950 C   0  0  0  0  0  0  0  0  0  0  0  0
  140.3290   79.7890  223.3180 C   0  0  0  0  0  0  0  0  0  0  0  0
  140.6180   81.1240  223.5590 C   0  0  0  0  0  0  0  0  0  0  0  0
  141.9220   81.5810  223.5830 C   0  0  0  0  0  0  0  0  0  0  0  0
  142.9360   80.6590  223.3610 C   0  0  0  0  0  0  0  0  0  0  0  0
  142.6240   79.3250  223.1210 C   0  0  0  0  0  0  0  0  0  0  0  0
  135.1110   74.9050  224.3830 C   0  0  0  0  0  0  0  0  0  0  0  0
  134.6440   75.8410  225.2800 C   0  0  0  0  0  0  0  0  0  0  0  0
  133.8850   75.4200  226.3720 C   0  0  0  0  0  0  0  0  0  0  0  0
  133.6050   74.1290  226.5630 N   0  0  0  0  0  0  0  0  0  0  0  0
  134.0480   73.1830  225.7020 C   0  0  0  0  0  0  0  0  0  0  0  0
  134.7950   73.5900  224.6260 C   0  0  0  0  0  0  0  0  0  0  0  0
  137.2160   73.7400  223.1380 H   0  0  0  0  0  0  0  0  0  0  0  0
  137.3873   74.7217  220.6352 H   0  0  0  0  0  0  0  0  0  0  0  0
  137.5608   76.2808  221.4767 H   0  0  0  0  0  0  0  0  0  0  0  0
  141.9835   74.9043  221.1048 H   0  0  0  0  0  0  0  0  0  0  0  0
  140.9852   74.9705  219.6450 H   0  0  0  0  0  0  0  0  0  0  0  0
  142.7345   77.0904  220.8771 H   0  0  0  0  0  0  0  0  0  0  0  0
  142.3323   76.8887  219.1905 H   0  0  0  0  0  0  0  0  0  0  0  0
  141.0932   78.8568  220.5228 H   0  0  0  0  0  0  0  0  0  0  0  0
  140.0401   77.8743  219.5538 H   0  0  0  0  0  0  0  0  0  0  0  0
  139.2000   77.7895  221.9180 H   0  0  0  0  0  0  0  0  0  0  0  0
  140.6021   76.9809  223.7246 H   0  0  0  0  0  0  0  0  0  0  0  0
  142.0169   76.9279  222.6131 H   0  0  0  0  0  0  0  0  0  0  0  0
  139.2789   79.4617  223.3042 H   0  0  0  0  0  0  0  0  0  0  0  0
  139.7944   81.8318  223.7342 H   0  0  0  0  0  0  0  0  0  0  0  0
  142.1491   82.6406  223.7718 H   0  0  0  0  0  0  0  0  0  0  0  0
  143.9869   80.9838  223.3749 H   0  0  0  0  0  0  0  0  0  0  0  0
  143.4440   78.6131  222.9453 H   0  0  0  0  0  0  0  0  0  0  0  0
  134.8673   76.9085  225.1365 H   0  0  0  0  0  0  0  0  0  0  0  0
  133.5104   76.1656  227.0888 H   0  0  0  0  0  0  0  0  0  0  0  0
  133.8158   72.1195  225.8605 H   0  0  0  0  0  0  0  0  0  0  0  0
  135.1590   72.8262  223.9231 H   0  0  0  0  0  0  0  0  0  0  0  0
  1  2  2  0
  2  3  1  0
  3  4  1  0
  4  5  1  0
  5  6  2  0
  5  7  1  0
  7  8  1  0
  8  9  1  0
  9 10  1  0
 10 11  1  0
 11 12  1  0
 12 13  1  0
 13 14  2  0
 14 15  1  0
 15 16  2  0
 16 17  1  0
 17 18  2  0
  2 19  1  0
 19 20  2  0
 20 21  1  0
 21 22  2  0
 22 23  1  0
 23 24  2  0
 11  7  1  0
 18 13  1  0
 24 19  1  0
  3 25  1  0
  4 26  1  0
  4 27  1  0
  8 28  1  0
  8 29  1  0
  9 30  1  0
  9 31  1  0
 10 32  1  0
 10 33  1  0
 11 34  1  1
 12 35  1  0
 12 36  1  0
 14 37  1  0
 15 38  1  0
 16 39  1  0
 17 40  1  0
 18 41  1  0
 20 42  1  0
 21 43  1  0
 23 44  1  0
 24 45  1  0
M  END
>  <smiles>  (8) 
O=C(NCC(=O)N1CCCC1Cc1ccccc1)c1ccncc1

>  <score_type>  (8) 
oracle

>  <origin>  (8) 
autodockgpu

>  <m_score__min__energy>  (8) 
-7.1100000000000003

>  <m_primary>  (8) 
energy

>  <meeko>  (8) 
{"free_energy": -7.09, "intermolecular_energy": -8.88, "internal_energy": -1.44, "cluster_size": 7, "cluster_id": 1, "rank_in_cluster": 4}

>  <energy>  (8) 
-6.9

>  <cluster_rmsd>  (8) 
0.0

>  <rmsd>  (8) 
270.32

>  <cluster>  (8) 
2

$$$$

     RDKit          3D

 45 47  0  0  1  0  0  0  0  0999 V2000
  135.5950   76.5960  222.8180 O   0  0  0  0  0  0  0  0  0  0  0  0
  135.8840   75.4710  223.2960 C   0  0  0  0  0  0  0  0  0  0  0  0
  136.9670   74.7570  222.7110 N   0  0  0  0  0  0  0  0  0  0  0  0
  137.7120   75.3160  221.5970 C   0  0  0  0  0  0  0  0  0  0  0  0
  139.1330   74.9520  221.7930 C   0  0  0  0  0  0  0  0  0  0  0  0
  139.5170   73.8720  222.3120 O   0  0  0  0  0  0  0  0  0  0  0  0
  140.1200   75.8630  221.3740 N   0  0  0  0  0  0  0  0  0  0  0  0
  141.2890   75.5010  220.5730 C   0  0  0  0  0  0  0  0  0  0  0  0
  141.9590   76.8020  220.2140 C   0  0  0  0  0  0  0  0  0  0  0  0
  140.8230   77.8010  220.3710 C   0  0  0  0  0  0  0  0  0  0  0  0
  140.1890   77.3080  221.6360 C   0  0  2  0  0  0  0  0  0  0  0  0
  141.0890   77.4550  222.8200 C   0  0  0  0  0  0  0  0  0  0  0  0
  141.3790   78.8790  223.0590 C   0  0  0  0  0  0  0  0  0  0  0  0
  142.6550   79.4060  223.0670 C   0  0  0  0  0  0  0  0  0  0  0  0
  142.8830   80.7550  223.2960 C   0  0  0  0  0  0  0  0  0  0  0  0
  141.8380   81.6290  223.5270 C   0  0  0  0  0  0  0  0  0  0  0  0
  140.5490   81.1140  223.5210 C   0  0  0  0  0  0  0  0  0  0  0  0
  140.3420   79.7580  223.2890 C   0  0  0  0  0  0  0  0  0  0  0  0
  135.0940   74.9850  224.4040 C   0  0  0  0  0  0  0  0  0  0  0  0
  134.6060   75.9080  225.3030 C   0  0  0  0  0  0  0  0  0  0  0  0
  133.8410   75.4690  226.3830 C   0  0  0  0  0  0  0  0  0  0  0  0
  133.5740   74.1730  226.5600 N   0  0  0  0  0  0  0  0  0  0  0  0
  134.0380   73.2400  225.6970 C   0  0  0  0  0  0  0  0  0  0  0  0
  134.7920   73.6650  224.6320 C   0  0  0  0  0  0  0  0  0  0  0  0
  137.1840   73.8250  223.1290 H   0  0  0  0  0  0  0  0  0  0  0  0
  137.3431   74.8971  220.6491 H   0  0  0  0  0  0  0  0  0  0  0  0
  137.5913   76.4086  221.5561 H   0  0  0  0  0  0  0  0  0  0  0  0
  141.9721   74.8667  221.1570 H   0  0  0  0  0  0  0  0  0  0  0  0
  141.0048   74.9308  219.6763 H   0  0  0  0  0  0  0  0  0  0  0  0
  142.7869   77.0277  220.9023 H   0  0  0  0  0  0  0  0  0  0  0  0
  142.4136   76.8034  219.2124 H   0  0  0  0  0  0  0  0  0  0  0  0
  141.1998   78.8286  220.4807 H   0  0  0  0  0  0  0  0  0  0  0  0
  140.1406   77.8539  219.5099 H   0  0  0  0  0  0  0  0  0  0  0  0
  139.2518   77.8401  221.8565 H   0  0  0  0  0  0  0  0  0  0  0  0
  140.5965   77.0298  223.7069 H   0  0  0  0  0  0  0  0  0  0  0  0
  142.0316   76.9225  222.6252 H   0  0  0  0  0  0  0  0  0  0  0  0
  143.5118   78.7399  222.8874 H   0  0  0  0  0  0  0  0  0  0  0  0
  143.9149   81.1360  223.2937 H   0  0  0  0  0  0  0  0  0  0  0  0
  142.0216   82.6981  223.7097 H   0  0  0  0  0  0  0  0  0  0  0  0
  139.6907   81.7784  223.6998 H   0  0  0  0  0  0  0  0  0  0  0  0
  139.3118   79.3725  223.2891 H   0  0  0  0  0  0  0  0  0  0  0  0
  134.8175   76.9793  225.1702 H   0  0  0  0  0  0  0  0  0  0  0  0
  133.4504   76.2039  227.1022 H   0  0  0  0  0  0  0  0  0  0  0  0
  133.8174   72.1725  225.8446 H   0  0  0  0  0  0  0  0  0  0  0  0
  135.1730   72.9117  223.9268 H   0  0  0  0  0  0  0  0  0  0  0  0
  1  2  2  0
  2  3  1  0
  3  4  1  0
  4  5  1  0
  5  6  2  0
  5  7  1  0
  7  8  1  0
  8  9  1  0
  9 10  1  0
 10 11  1  0
 11 12  1  0
 12 13  1  0
 13 14  2  0
 14 15  1  0
 15 16  2  0
 16 17  1  0
 17 18  2  0
  2 19  1  0
 19 20  2  0
 20 21  1  0
 21 22  2  0
 22 23  1  0
 23 24  2  0
 11  7  1  0
 18 13  1  0
 24 19  1  0
  3 25  1  0
  4 26  1  0
  4 27  1  0
  8 28  1  0
  8 29  1  0
  9 30  1  0
  9 31  1  0
 10 32  1  0
 10 33  1  0
 11 34  1  1
 12 35  1  0
 12 36  1  0
 14 37  1  0
 15 38  1  0
 16 39  1  0
 17 40  1  0
 18 41  1  0
 20 42  1  0
 21 43  1  0
 23 44  1  0
 24 45  1  0
M  END
>  <smiles>  (9) 
O=C(NCC(=O)N1CCCC1Cc1ccccc1)c1ccncc1

>  <score_type>  (9) 
oracle

>  <origin>  (9) 
autodockgpu

>  <m_score__min__energy>  (9) 
-7.1100000000000003

>  <m_primary>  (9) 
energy

>  <meeko>  (9) 
{"free_energy": -7.06, "intermolecular_energy": -8.85, "internal_energy": -1.46, "cluster_size": 7, "cluster_id": 1, "rank_in_cluster": 6}

>  <energy>  (9) 
-6.85

>  <cluster_rmsd>  (9) 
0.11

>  <rmsd>  (9) 
270.33

>  <cluster>  (9) 
2

$$$$

     RDKit          3D

 45 47  0  0  1  0  0  0  0  0999 V2000
  135.6680   76.5940  222.8540 O   0  0  0  0  0  0  0  0  0  0  0  0
  135.9330   75.4560  223.3160 C   0  0  0  0  0  0  0  0  0  0  0  0
  136.9920   74.7230  222.7120 N   0  0  0  0  0  0  0  0  0  0  0  0
  137.7410   75.2750  221.5980 C   0  0  0  0  0  0  0  0  0  0  0  0
  139.1650   74.9340  221.8140 C   0  0  0  0  0  0  0  0  0  0  0  0
  139.5590   73.8670  222.3510 O   0  0  0  0  0  0  0  0  0  0  0  0
  140.1430   75.8540  221.3940 N   0  0  0  0  0  0  0  0  0  0  0  0
  141.3270   75.4990  220.6110 C   0  0  0  0  0  0  0  0  0  0  0  0
  141.9810   76.8040  220.2420 C   0  0  0  0  0  0  0  0  0  0  0  0
  140.8300   77.7890  220.3730 C   0  0  0  0  0  0  0  0  0  0  0  0
  140.1890   77.3030  221.6380 C   0  0  2  0  0  0  0  0  0  0  0  0
  141.0730   77.4790  222.8290 C   0  0  0  0  0  0  0  0  0  0  0  0
  141.3070   78.9120  223.0760 C   0  0  0  0  0  0  0  0  0  0  0  0
  140.2920   79.8260  223.2770 C   0  0  0  0  0  0  0  0  0  0  0  0
  140.5570   81.1680  223.5060 C   0  0  0  0  0  0  0  0  0  0  0  0
  141.8540   81.6460  223.5420 C   0  0  0  0  0  0  0  0  0  0  0  0
  142.8850   80.7390  223.3420 C   0  0  0  0  0  0  0  0  0  0  0  0
  142.5970   79.3970  223.1130 C   0  0  0  0  0  0  0  0  0  0  0  0
  135.1420   74.9770  224.4260 C   0  0  0  0  0  0  0  0  0  0  0  0
  134.6300   75.9090  225.3030 C   0  0  0  0  0  0  0  0  0  0  0  0
  133.8620   75.4760  226.3840 C   0  0  0  0  0  0  0  0  0  0  0  0
  133.6150   74.1800  226.5830 N   0  0  0  0  0  0  0  0  0  0  0  0
  134.1030   73.2390  225.7400 C   0  0  0  0  0  0  0  0  0  0  0  0
  134.8590   73.6570  224.6750 C   0  0  0  0  0  0  0  0  0  0  0  0
  137.1890   73.7800  223.1170 H   0  0  0  0  0  0  0  0  0  0  0  0
  137.3880   74.8367  220.6529 H   0  0  0  0  0  0  0  0  0  0  0  0
  137.6058   76.3651  221.5394 H   0  0  0  0  0  0  0  0  0  0  0  0
  142.0128   74.8831  221.2113 H   0  0  0  0  0  0  0  0  0  0  0  0
  141.0617   74.9126  219.7190 H   0  0  0  0  0  0  0  0  0  0  0  0
  142.7980   77.0508  220.9360 H   0  0  0  0  0  0  0  0  0  0  0  0
  142.4458   76.7984  219.2451 H   0  0  0  0  0  0  0  0  0  0  0  0
  141.1913   78.8231  220.4733 H   0  0  0  0  0  0  0  0  0  0  0  0
  140.1565   77.8216  219.5039 H   0  0  0  0  0  0  0  0  0  0  0  0
  139.2419   77.8240  221.8416 H   0  0  0  0  0  0  0  0  0  0  0  0
  140.5900   77.0317  223.7103 H   0  0  0  0  0  0  0  0  0  0  0  0
  142.0366   76.9834  222.6395 H   0  0  0  0  0  0  0  0  0  0  0  0
  139.2476   79.4815  223.2550 H   0  0  0  0  0  0  0  0  0  0  0  0
  139.7202   81.8647  223.6618 H   0  0  0  0  0  0  0  0  0  0  0  0
  142.0618   82.7109  223.7233 H   0  0  0  0  0  0  0  0  0  0  0  0
  143.9302   81.0810  223.3645 H   0  0  0  0  0  0  0  0  0  0  0  0
  143.4303   78.6965  222.9555 H   0  0  0  0  0  0  0  0  0  0  0  0
  134.8246   76.9811  225.1523 H   0  0  0  0  0  0  0  0  0  0  0  0
  133.4522   76.2172  227.0858 H   0  0  0  0  0  0  0  0  0  0  0  0
  133.8989   72.1707  225.9048 H   0  0  0  0  0  0  0  0  0  0  0  0
  135.2581   72.8975  223.9866 H   0  0  0  0  0  0  0  0  0  0  0  0
  1  2  2  0
  2  3  1  0
  3  4  1  0
  4  5  1  0
  5  6  2  0
  5  7  1  0
  7  8  1  0
  8  9  1  0
  9 10  1  0
 10 11  1  0
 11 12  1  0
 12 13  1  0
 13 14  2  0
 14 15  1  0
 15 16  2  0
 16 17  1  0
 17 18  2  0
  2 19  1  0
 19 20  2  0
 20 21  1  0
 21 22  2  0
 22 23  1  0
 23 24  2  0
 11  7  1  0
 18 13  1  0
 24 19  1  0
  3 25  1  0
  4 26  1  0
  4 27  1  0
  8 28  1  0
  8 29  1  0
  9 30  1  0
  9 31  1  0
 10 32  1  0
 10 33  1  0
 11 34  1  1
 12 35  1  0
 12 36  1  0
 14 37  1  0
 15 38  1  0
 16 39  1  0
 17 40  1  0
 18 41  1  0
 20 42  1  0
 21 43  1  0
 23 44  1  0
 24 45  1  0
M  END
>  <smiles>  (10) 
O=C(NCC(=O)N1CCCC1Cc1ccccc1)c1ccncc1

>  <score_type>  (10) 
oracle

>  <origin>  (10) 
autodockgpu

>  <m_score__min__energy>  (10) 
-7.1100000000000003

>  <m_primary>  (10) 
energy

>  <meeko>  (10) 
{"free_energy": -7.11, "intermolecular_energy": -8.9, "internal_energy": -1.45, "cluster_size": 7, "cluster_id": 1, "rank_in_cluster": 1}

>  <energy>  (10) 
-6.86

>  <cluster_rmsd>  (10) 
0.0

>  <rmsd>  (10) 
271.14

>  <cluster>  (10) 
3

$$$$

     RDKit          3D

 45 47  0  0  1  0  0  0  0  0999 V2000
  143.6340   76.3770  219.3210 O   0  0  0  0  0  0  0  0  0  0  0  0
  143.4120   75.3160  219.9560 C   0  0  0  0  0  0  0  0  0  0  0  0
  142.1950   75.2220  220.6880 N   0  0  0  0  0  0  0  0  0  0  0  0
  141.2440   76.3170  220.6970 C   0  0  0  0  0  0  0  0  0  0  0  0
  140.1130   75.9100  221.5600 C   0  0  0  0  0  0  0  0  0  0  0  0
  140.0620   74.8190  222.1840 O   0  0  0  0  0  0  0  0  0  0  0  0
  139.0260   76.7930  221.6990 N   0  0  0  0  0  0  0  0  0  0  0  0
  137.8260   76.7610  220.8630 C   0  0  0  0  0  0  0  0  0  0  0  0
  136.8720   77.7500  221.4780 C   0  0  0  0  0  0  0  0  0  0  0  0
  137.3870   77.8490  222.9050 C   0  0  0  0  0  0  0  0  0  0  0  0
  138.8660   77.8880  222.6670 C   0  0  2  0  0  0  0  0  0  0  0  0
  139.2940   79.1240  221.9440 C   0  0  0  0  0  0  0  0  0  0  0  0
  140.5500   79.6350  222.5200 C   0  0  0  0  0  0  0  0  0  0  0  0
  140.6200   80.7650  223.3110 C   0  0  0  0  0  0  0  0  0  0  0  0
  141.8240   81.2120  223.8340 C   0  0  0  0  0  0  0  0  0  0  0  0
  143.0070   80.5430  223.5840 C   0  0  0  0  0  0  0  0  0  0  0  0
  142.9520   79.4040  222.7910 C   0  0  0  0  0  0  0  0  0  0  0  0
  141.7330   78.9730  222.2760 C   0  0  0  0  0  0  0  0  0  0  0  0
  144.4090   74.2720  219.8970 C   0  0  0  0  0  0  0  0  0  0  0  0
  144.3720   73.4050  218.8260 C   0  0  0  0  0  0  0  0  0  0  0  0
  145.3220   72.3870  218.7410 C   0  0  0  0  0  0  0  0  0  0  0  0
  146.2620   72.2380  219.6770 N   0  0  0  0  0  0  0  0  0  0  0  0
  146.3260   73.0720  220.7410 C   0  0  0  0  0  0  0  0  0  0  0  0
  145.3950   74.0750  220.8310 C   0  0  0  0  0  0  0  0  0  0  0  0
  142.0380   74.3280  221.2060 H   0  0  0  0  0  0  0  0  0  0  0  0
  141.7180   77.2240  221.1004 H   0  0  0  0  0  0  0  0  0  0  0  0
  140.8958   76.5390  219.6774 H   0  0  0  0  0  0  0  0  0  0  0  0
  138.0698   77.0545  219.8313 H   0  0  0  0  0  0  0  0  0  0  0  0
  137.3903   75.7520  220.8181 H   0  0  0  0  0  0  0  0  0  0  0  0
  136.9224   78.7231  220.9675 H   0  0  0  0  0  0  0  0  0  0  0  0
  135.8169   77.4466  221.4096 H   0  0  0  0  0  0  0  0  0  0  0  0
  137.0324   78.7646  223.4009 H   0  0  0  0  0  0  0  0  0  0  0  0
  137.0533   77.0366  223.5673 H   0  0  0  0  0  0  0  0  0  0  0  0
  139.4325   77.8342  223.6084 H   0  0  0  0  0  0  0  0  0  0  0  0
  139.4500   78.8886  220.8809 H   0  0  0  0  0  0  0  0  0  0  0  0
  138.5119   79.8908  222.0453 H   0  0  0  0  0  0  0  0  0  0  0  0
  139.6985   81.3238  223.5314 H   0  0  0  0  0  0  0  0  0  0  0  0
  141.8376   82.1165  224.4599 H   0  0  0  0  0  0  0  0  0  0  0  0
  143.9607   80.9007  223.9993 H   0  0  0  0  0  0  0  0  0  0  0  0
  143.8718   78.8427  222.5700 H   0  0  0  0  0  0  0  0  0  0  0  0
  141.7135   78.0688  221.6499 H   0  0  0  0  0  0  0  0  0  0  0  0
  143.6025   73.5145  218.0476 H   0  0  0  0  0  0  0  0  0  0  0  0
  145.2960   71.6943  217.8869 H   0  0  0  0  0  0  0  0  0  0  0  0
  147.1019   72.9490  221.5109 H   0  0  0  0  0  0  0  0  0  0  0  0
  145.4409   74.7551  221.6944 H   0  0  0  0  0  0  0  0  0  0  0  0
  1  2  2  0
  2  3  1  0
  3  4  1  0
  4  5  1  0
  5  6  2  0
  5  7  1  0
  7  8  1  0
  8  9  1  0
  9 10  1  0
 10 11  1  0
 11 12  1  0
 12 13  1  0
 13 14  2  0
 14 15  1  0
 15 16  2  0
 16 17  1  0
 17 18  2  0
  2 19  1  0
 19 20  2  0
 20 21  1  0
 21 22  2  0
 22 23  1  0
 23 24  2  0
 11  7  1  0
 18 13  1  0
 24 19  1  0
  3 25  1  0
  4 26  1  0
  4 27  1  0
  8 28  1  0
  8 29  1  0
  9 30  1  0
  9 31  1  0
 10 32  1  0
 10 33  1  0
 11 34  1  1
 12 35  1  0
 12 36  1  0
 14 37  1  0
 15 38  1  0
 16 39  1  0
 17 40  1  0
 18 41  1  0
 20 42  1  0
 21 43  1  0
 23 44  1  0
 24 45  1  0
M  END
>  <smiles>  (11) 
O=C(NCC(=O)N1CCCC1Cc1ccccc1)c1ccncc1

>  <score_type>  (11) 
oracle

>  <origin>  (11) 
autodockgpu

>  <m_score__min__energy>  (11) 
-7.1100000000000003

>  <m_primary>  (11) 
energy

>  <meeko>  (11) 
{"free_energy": -6.67, "intermolecular_energy": -8.46, "internal_energy": -1.77, "cluster_size": 7, "cluster_id": 4, "rank_in_cluster": 1}

>  <energy>  (11) 
-6.83

>  <cluster_rmsd>  (11) 
0.84

>  <rmsd>  (11) 
271.31

>  <cluster>  (11) 
3

$$$$

     RDKit          3D

 45 47  0  0  1  0  0  0  0  0999 V2000
  135.7060   76.6650  222.8140 O   0  0  0  0  0  0  0  0  0  0  0  0
  135.9600   75.5400  223.3110 C   0  0  0  0  0  0  0  0  0  0  0  0
  137.0100   74.7760  222.7300 N   0  0  0  0  0  0  0  0  0  0  0  0
  137.7630   75.2850  221.5980 C   0  0  0  0  0  0  0  0  0  0  0  0
  139.1820   74.9230  221.8160 C   0  0  0  0  0  0  0  0  0  0  0  0
  139.5590   73.8470  222.3450 O   0  0  0  0  0  0  0  0  0  0  0  0
  140.1740   75.8330  221.4060 N   0  0  0  0  0  0  0  0  0  0  0  0
  141.3710   75.4640  220.6520 C   0  0  0  0  0  0  0  0  0  0  0  0
  142.0400   76.7610  220.2830 C   0  0  0  0  0  0  0  0  0  0  0  0
  140.8920   77.7540  220.3800 C   0  0  0  0  0  0  0  0  0  0  0  0
  140.2220   77.2850  221.6360 C   0  0  2  0  0  0  0  0  0  0  0  0
  141.0820   77.4680  222.8430 C   0  0  0  0  0  0  0  0  0  0  0  0
  141.3020   78.9030  223.0910 C   0  0  0  0  0  0  0  0  0  0  0  0
  140.2780   79.8090  223.2880 C   0  0  0  0  0  0  0  0  0  0  0  0
  140.5300   81.1530  223.5190 C   0  0  0  0  0  0  0  0  0  0  0  0
  141.8220   81.6430  223.5610 C   0  0  0  0  0  0  0  0  0  0  0  0
  142.8620   80.7440  223.3660 C   0  0  0  0  0  0  0  0  0  0  0  0
  142.5870   79.4000  223.1360 C   0  0  0  0  0  0  0  0  0  0  0  0
  135.1650   75.1050  224.4370 C   0  0  0  0  0  0  0  0  0  0  0  0
  134.9420   73.7530  224.5850 C   0  0  0  0  0  0  0  0  0  0  0  0
  134.1790   73.3030  225.6630 C   0  0  0  0  0  0  0  0  0  0  0  0
  133.6620   74.1560  226.5490 N   0  0  0  0  0  0  0  0  0  0  0  0
  133.8620   75.4900  226.4330 C   0  0  0  0  0  0  0  0  0  0  0  0
  134.6120   75.9400  225.3760 C   0  0  0  0  0  0  0  0  0  0  0  0
  137.1980   73.8450  223.1650 H   0  0  0  0  0  0  0  0  0  0  0  0
  137.3968   74.8290  220.6664 H   0  0  0  0  0  0  0  0  0  0  0  0
  137.6476   76.3755  221.5116 H   0  0  0  0  0  0  0  0  0  0  0  0
  142.0407   74.8507  221.2728 H   0  0  0  0  0  0  0  0  0  0  0  0
  141.1206   74.8699  219.7607 H   0  0  0  0  0  0  0  0  0  0  0  0
  142.8440   77.0105  220.9910 H   0  0  0  0  0  0  0  0  0  0  0  0
  142.5252   76.7422  219.2960 H   0  0  0  0  0  0  0  0  0  0  0  0
  141.2572   78.7870  220.4772 H   0  0  0  0  0  0  0  0  0  0  0  0
  140.2369   77.7813  219.4967 H   0  0  0  0  0  0  0  0  0  0  0  0
  139.2738   77.8133  221.8142 H   0  0  0  0  0  0  0  0  0  0  0  0
  140.5852   77.0193  223.7159 H   0  0  0  0  0  0  0  0  0  0  0  0
  142.0520   76.9777  222.6733 H   0  0  0  0  0  0  0  0  0  0  0  0
  139.2367   79.4556  223.2610 H   0  0  0  0  0  0  0  0  0  0  0  0
  139.6862   81.8420  223.6716 H   0  0  0  0  0  0  0  0  0  0  0  0
  142.0196   82.7097  223.7429 H   0  0  0  0  0  0  0  0  0  0  0  0
  143.9042   81.0949  223.3934 H   0  0  0  0  0  0  0  0  0  0  0  0
  143.4275   78.7069  222.9841 H   0  0  0  0  0  0  0  0  0  0  0  0
  135.3605   73.0374  223.8620 H   0  0  0  0  0  0  0  0  0  0  0  0
  134.0003   72.2244  225.7847 H   0  0  0  0  0  0  0  0  0  0  0  0
  133.4358   76.1922  227.1646 H   0  0  0  0  0  0  0  0  0  0  0  0
  134.7784   77.0227  225.2760 H   0  0  0  0  0  0  0  0  0  0  0  0
  1  2  2  0
  2  3  1  0
  3  4  1  0
  4  5  1  0
  5  6  2  0
  5  7  1  0
  7  8  1  0
  8  9  1  0
  9 10  1  0
 10 11  1  0
 11 12  1  0
 12 13  1  0
 13 14  2  0
 14 15  1  0
 15 16  2  0
 16 17  1  0
 17 18  2  0
  2 19  1  0
 19 20  2  0
 20 21  1  0
 21 22  2  0
 22 23  1  0
 23 24  2  0
 11  7  1  0
 18 13  1  0
 24 19  1  0
  3 25  1  0
  4 26  1  0
  4 27  1  0
  8 28  1  0
  8 29  1  0
  9 30  1  0
  9 31  1  0
 10 32  1  0
 10 33  1  0
 11 34  1  1
 12 35  1  0
 12 36  1  0
 14 37  1  0
 15 38  1  0
 16 39  1  0
 17 40  1  0
 18 41  1  0
 20 42  1  0
 21 43  1  0
 23 44  1  0
 24 45  1  0
M  END
>  <smiles>  (12) 
O=C(NCC(=O)N1CCCC1Cc1ccccc1)c1ccncc1

>  <score_type>  (12) 
oracle

>  <origin>  (12) 
autodockgpu

>  <m_score__min__energy>  (12) 
-7.1100000000000003

>  <m_primary>  (12) 
energy

>  <meeko>  (12) 
{"free_energy": -7.09, "intermolecular_energy": -8.88, "internal_energy": -1.44, "cluster_size": 7, "cluster_id": 1, "rank_in_cluster": 2}

>  <energy>  (12) 
-6.83

>  <cluster_rmsd>  (12) 
0.83

>  <rmsd>  (12) 
271.31

>  <cluster>  (12) 
3

$$$$

     RDKit          3D

 45 47  0  0  1  0  0  0  0  0999 V2000
  134.8810   68.6560  225.0950 O   0  0  0  0  0  0  0  0  0  0  0  0
  135.3500   69.7990  224.8700 C   0  0  0  0  0  0  0  0  0  0  0  0
  136.4660   69.9010  223.9940 N   0  0  0  0  0  0  0  0  0  0  0  0
  137.0420   68.7180  223.3800 C   0  0  0  0  0  0  0  0  0  0  0  0
  138.4880   68.7180  223.6970 C   0  0  0  0  0  0  0  0  0  0  0  0
  139.0830   67.7650  224.2620 O   0  0  0  0  0  0  0  0  0  0  0  0
  139.2490   69.8480  223.3460 N   0  0  0  0  0  0  0  0  0  0  0  0
  139.9380   70.0130  222.0660 C   0  0  0  0  0  0  0  0  0  0  0  0
  140.4600   71.4250  222.0610 C   0  0  0  0  0  0  0  0  0  0  0  0
  139.5610   72.1050  223.0820 C   0  0  0  0  0  0  0  0  0  0  0  0
  139.5050   71.0530  224.1490 C   0  0  2  0  0  0  0  0  0  0  0  0
  140.8330   70.8250  224.7950 C   0  0  0  0  0  0  0  0  0  0  0  0
  140.6600   70.0790  226.0530 C   0  0  0  0  0  0  0  0  0  0  0  0
  140.0290   70.6000  227.1660 C   0  0  0  0  0  0  0  0  0  0  0  0
  139.8870   69.8630  228.3320 C   0  0  0  0  0  0  0  0  0  0  0  0
  140.3730   68.5730  228.4280 C   0  0  0  0  0  0  0  0  0  0  0  0
  141.0090   68.0350  227.3170 C   0  0  0  0  0  0  0  0  0  0  0  0
  141.1410   68.7930  226.1570 C   0  0  0  0  0  0  0  0  0  0  0  0
  134.7210   70.9270  225.5190 C   0  0  0  0  0  0  0  0  0  0  0  0
  134.1500   70.7220  226.7570 C   0  0  0  0  0  0  0  0  0  0  0  0
  133.5350   71.7920  227.4090 C   0  0  0  0  0  0  0  0  0  0  0  0
  133.4900   73.0050  226.8550 N   0  0  0  0  0  0  0  0  0  0  0  0
  134.0410   73.2400  225.6400 C   0  0  0  0  0  0  0  0  0  0  0  0
  134.6470   72.1930  224.9940 C   0  0  0  0  0  0  0  0  0  0  0  0
  136.8340   70.8640  223.8260 H   0  0  0  0  0  0  0  0  0  0  0  0
  136.5672   67.8132  223.7874 H   0  0  0  0  0  0  0  0  0  0  0  0
  136.8816   68.7264  222.2918 H   0  0  0  0  0  0  0  0  0  0  0  0
  140.7689   69.2970  221.9830 H   0  0  0  0  0  0  0  0  0  0  0  0
  139.2645   69.8271  221.2164 H   0  0  0  0  0  0  0  0  0  0  0  0
  141.5146   71.4612  222.3717 H   0  0  0  0  0  0  0  0  0  0  0  0
  140.4384   71.8997  221.0689 H   0  0  0  0  0  0  0  0  0  0  0  0
  140.0067   73.0384  223.4563 H   0  0  0  0  0  0  0  0  0  0  0  0
  138.5793   72.4123  222.6924 H   0  0  0  0  0  0  0  0  0  0  0  0
  138.7850   71.3119  224.9393 H   0  0  0  0  0  0  0  0  0  0  0  0
  141.4748   70.2468  224.1140 H   0  0  0  0  0  0  0  0  0  0  0  0
  141.3000   71.7968  225.0129 H   0  0  0  0  0  0  0  0  0  0  0  0
  139.6296   71.6242  227.1264 H   0  0  0  0  0  0  0  0  0  0  0  0
  139.3779   70.3137  229.1967 H   0  0  0  0  0  0  0  0  0  0  0  0
  140.2597   67.9911  229.3546 H   0  0  0  0  0  0  0  0  0  0  0  0
  141.4082   67.0106  227.3536 H   0  0  0  0  0  0  0  0  0  0  0  0
  141.6495   68.3472  225.2894 H   0  0  0  0  0  0  0  0  0  0  0  0
  134.1787   69.7271  227.2253 H   0  0  0  0  0  0  0  0  0  0  0  0
  133.0792   71.6324  228.3973 H   0  0  0  0  0  0  0  0  0  0  0  0
  134.0035   74.2408  225.1851 H   0  0  0  0  0  0  0  0  0  0  0  0
  135.0958   72.3768  224.0067 H   0  0  0  0  0  0  0  0  0  0  0  0
  1  2  2  0
  2  3  1  0
  3  4  1  0
  4  5  1  0
  5  6  2  0
  5  7  1  0
  7  8  1  0
  8  9  1  0
  9 10  1  0
 10 11  1  0
 11 12  1  0
 12 13  1  0
 13 14  2  0
 14 15  1  0
 15 16  2  0
 16 17  1  0
 17 18  2  0
  2 19  1  0
 19 20  2  0
 20 21  1  0
 21 22  2  0
 22 23  1  0
 23 24  2  0
 11  7  1  0
 18 13  1  0
 24 19  1  0
  3 25  1  0
  4 26  1  0
  4 27  1  0
  8 28  1  0
  8 29  1  0
  9 30  1  0
  9 31  1  0
 10 32  1  0
 10 33  1  0
 11 34  1  1
 12 35  1  0
 12 36  1  0
 14 37  1  0
 15 38  1  0
 16 39  1  0
 17 40  1  0
 18 41  1  0
 20 42  1  0
 21 43  1  0
 23 44  1  0
 24 45  1  0
M  END
>  <smiles>  (13) 
O=C(NCC(=O)N1CCCC1Cc1ccccc1)c1ccncc1

>  <score_type>  (13) 
oracle

>  <origin>  (13) 
autodockgpu

>  <m_score__min__energy>  (13) 
-7.1100000000000003

>  <m_primary>  (13) 
energy

>  <meeko>  (13) 
{"free_energy": -6.85, "intermolecular_energy": -8.64, "internal_energy": -1.63, "cluster_size": 2, "cluster_id": 2, "rank_in_cluster": 2}

>  <energy>  (13) 
-6.82

>  <cluster_rmsd>  (13) 
0.85

>  <rmsd>  (13) 
271.31

>  <cluster>  (13) 
3

$$$$

     RDKit          3D

 45 47  0  0  1  0  0  0  0  0999 V2000
  143.4890   76.5390  219.4790 O   0  0  0  0  0  0  0  0  0  0  0  0
  143.3440   75.4370  220.0650 C   0  0  0  0  0  0  0  0  0  0  0  0
  142.1740   75.2500  220.8520 N   0  0  0  0  0  0  0  0  0  0  0  0
  141.1800   76.3010  220.9700 C   0  0  0  0  0  0  0  0  0  0  0  0
  140.0180   75.7280  221.6870 C   0  0  0  0  0  0  0  0  0  0  0  0
  140.0210   74.5980  222.2400 O   0  0  0  0  0  0  0  0  0  0  0  0
  138.8360   76.4880  221.7590 N   0  0  0  0  0  0  0  0  0  0  0  0
  137.7020   76.3380  220.8480 C   0  0  0  0  0  0  0  0  0  0  0  0
  136.6100   77.2120  221.4040 C   0  0  0  0  0  0  0  0  0  0  0  0
  137.0200   77.3500  222.8620 C   0  0  0  0  0  0  0  0  0  0  0  0
  138.4990   77.5500  222.7180 C   0  0  2  0  0  0  0  0  0  0  0  0
  138.8370   78.8320  222.0290 C   0  0  0  0  0  0  0  0  0  0  0  0
  140.2100   79.2400  222.3700 C   0  0  0  0  0  0  0  0  0  0  0  0
  140.9340   80.1620  221.6410 C   0  0  0  0  0  0  0  0  0  0  0  0
  142.2260   80.5200  221.9970 C   0  0  0  0  0  0  0  0  0  0  0  0
  142.8440   79.9640  223.1020 C   0  0  0  0  0  0  0  0  0  0  0  0
  142.1280   79.0350  223.8460 C   0  0  0  0  0  0  0  0  0  0  0  0
  140.8330   78.6910  223.4700 C   0  0  0  0  0  0  0  0  0  0  0  0
  144.3780   74.4420  219.8960 C   0  0  0  0  0  0  0  0  0  0  0  0
  144.4120   73.7420  218.7100 C   0  0  0  0  0  0  0  0  0  0  0  0
  145.3990   72.7750  218.5170 C   0  0  0  0  0  0  0  0  0  0  0  0
  146.3080   72.5170  219.4600 N   0  0  0  0  0  0  0  0  0  0  0  0
  146.3030   73.1870  220.6370 C   0  0  0  0  0  0  0  0  0  0  0  0
  145.3350   74.1390  220.8330 C   0  0  0  0  0  0  0  0  0  0  0  0
  142.0810   74.3240  221.3260 H   0  0  0  0  0  0  0  0  0  0  0  0
  141.5928   77.1478  221.5379 H   0  0  0  0  0  0  0  0  0  0  0  0
  140.8825   76.6696  219.9772 H   0  0  0  0  0  0  0  0  0  0  0  0
  137.9780   76.6676  219.8355 H   0  0  0  0  0  0  0  0  0  0  0  0
  137.3808   75.2888  220.7712 H   0  0  0  0  0  0  0  0  0  0  0  0
  136.5876   78.1904  220.9017 H   0  0  0  0  0  0  0  0  0  0  0  0
  135.6001   76.7981  221.2666 H   0  0  0  0  0  0  0  0  0  0  0  0
  136.5384   78.2168  223.3380 H   0  0  0  0  0  0  0  0  0  0  0  0
  136.7345   76.4997  223.4987 H   0  0  0  0  0  0  0  0  0  0  0  0
  139.0079   77.5479  223.6932 H   0  0  0  0  0  0  0  0  0  0  0  0
  138.7581   78.6925  220.9407 H   0  0  0  0  0  0  0  0  0  0  0  0
  138.1360   79.6138  222.3567 H   0  0  0  0  0  0  0  0  0  0  0  0
  140.4746   80.6247  220.7551 H   0  0  0  0  0  0  0  0  0  0  0  0
  142.7686   81.2593  221.3895 H   0  0  0  0  0  0  0  0  0  0  0  0
  143.8690   80.2481  223.3826 H   0  0  0  0  0  0  0  0  0  0  0  0
  142.5847   78.5710  224.7327 H   0  0  0  0  0  0  0  0  0  0  0  0
  140.2855   77.9525  224.0740 H   0  0  0  0  0  0  0  0  0  0  0  0
  143.6693   73.9432  217.9240 H   0  0  0  0  0  0  0  0  0  0  0  0
  145.4287   72.2150  217.5707 H   0  0  0  0  0  0  0  0  0  0  0  0
  147.0531   72.9740  221.4129 H   0  0  0  0  0  0  0  0  0  0  0  0
  145.3249   74.6863  221.7871 H   0  0  0  0  0  0  0  0  0  0  0  0
  1  2  2  0
  2  3  1  0
  3  4  1  0
  4  5  1  0
  5  6  2  0
  5  7  1  0
  7  8  1  0
  8  9  1  0
  9 10  1  0
 10 11  1  0
 11 12  1  0
 12 13  1  0
 13 14  2  0
 14 15  1  0
 15 16  2  0
 16 17  1  0
 17 18  2  0
  2 19  1  0
 19 20  2  0
 20 21  1  0
 21 22  2  0
 22 23  1  0
 23 24  2  0
 11  7  1  0
 18 13  1  0
 24 19  1  0
  3 25  1  0
  4 26  1  0
  4 27  1  0
  8 28  1  0
  8 29  1  0
  9 30  1  0
  9 31  1  0
 10 32  1  0
 10 33  1  0
 11 34  1  1
 12 35  1  0
 12 36  1  0
 14 37  1  0
 15 38  1  0
 16 39  1  0
 17 40  1  0
 18 41  1  0
 20 42  1  0
 21 43  1  0
 23 44  1  0
 24 45  1  0
M  END
>  <smiles>  (14) 
O=C(NCC(=O)N1CCCC1Cc1ccccc1)c1ccncc1

>  <score_type>  (14) 
oracle

>  <origin>  (14) 
autodockgpu

>  <m_score__min__energy>  (14) 
-7.1100000000000003

>  <m_primary>  (14) 
energy

>  <meeko>  (14) 
{"free_energy": -6.51, "intermolecular_energy": -8.3, "internal_energy": -1.93, "cluster_size": 7, "cluster_id": 4, "rank_in_cluster": 7}

>  <energy>  (14) 
-6.67

>  <cluster_rmsd>  (14) 
0.0

>  <rmsd>  (14) 
270.89

>  <cluster>  (14) 
4

$$$$

     RDKit          3D

 45 47  0  0  1  0  0  0  0  0999 V2000
  139.0880   77.8950  222.8970 O   0  0  0  0  0  0  0  0  0  0  0  0
  140.3270   77.8060  222.7080 C   0  0  0  0  0  0  0  0  0  0  0  0
  140.8380   76.5700  222.2220 N   0  0  0  0  0  0  0  0  0  0  0  0
  139.9540   75.4510  221.9550 C   0  0  0  0  0  0  0  0  0  0  0  0
  140.8030   74.3020  221.5690 C   0  0  0  0  0  0  0  0  0  0  0  0
  142.0230   74.3960  221.2770 O   0  0  0  0  0  0  0  0  0  0  0  0
  140.2180   73.0230  221.5270 N   0  0  0  0  0  0  0  0  0  0  0  0
  139.1660   72.6280  220.5910 C   0  0  0  0  0  0  0  0  0  0  0  0
  138.9810   71.1460  220.7840 C   0  0  0  0  0  0  0  0  0  0  0  0
  140.3050   70.7340  221.4080 C   0  0  0  0  0  0  0  0  0  0  0  0
  140.5210   71.8600  222.3740 C   0  0  2  0  0  0  0  0  0  0  0  0
  139.4960   71.8810  223.4610 C   0  0  0  0  0  0  0  0  0  0  0  0
  140.0170   71.1990  224.6580 C   0  0  0  0  0  0  0  0  0  0  0  0
  140.7010   71.8480  225.6680 C   0  0  0  0  0  0  0  0  0  0  0  0
  141.1740   71.1670  226.7790 C   0  0  0  0  0  0  0  0  0  0  0  0
  140.9810   69.8050  226.9210 C   0  0  0  0  0  0  0  0  0  0  0  0
  140.2950   69.1390  225.9140 C   0  0  0  0  0  0  0  0  0  0  0  0
  139.8290   69.8420  224.8080 C   0  0  0  0  0  0  0  0  0  0  0  0
  141.1390   78.9650  222.9970 C   0  0  0  0  0  0  0  0  0  0  0  0
  140.5130   80.0810  223.5070 C   0  0  0  0  0  0  0  0  0  0  0  0
  141.2720   81.2150  223.7970 C   0  0  0  0  0  0  0  0  0  0  0  0
  142.5900   81.2370  223.5890 N   0  0  0  0  0  0  0  0  0  0  0  0
  143.2360   80.1580  223.0890 C   0  0  0  0  0  0  0  0  0  0  0  0
  142.4970   79.0390  222.8020 C   0  0  0  0  0  0  0  0  0  0  0  0
  141.8720   76.5250  222.0740 H   0  0  0  0  0  0  0  0  0  0  0  0
  139.3751   75.2049  222.8574 H   0  0  0  0  0  0  0  0  0  0  0  0
  139.2444   75.6982  221.1516 H   0  0  0  0  0  0  0  0  0  0  0  0
  138.2318   73.1633  220.8164 H   0  0  0  0  0  0  0  0  0  0  0  0
  139.4357   72.8707  219.5526 H   0  0  0  0  0  0  0  0  0  0  0  0
  138.1390   70.9341  221.4594 H   0  0  0  0  0  0  0  0  0  0  0  0
  138.7445   70.6065  219.8550 H   0  0  0  0  0  0  0  0  0  0  0  0
  140.2254   69.7664  221.9251 H   0  0  0  0  0  0  0  0  0  0  0  0
  141.1231   70.5883  220.6872 H   0  0  0  0  0  0  0  0  0  0  0  0
  141.5132   71.8083  222.8460 H   0  0  0  0  0  0  0  0  0  0  0  0
  139.2533   72.9239  223.7127 H   0  0  0  0  0  0  0  0  0  0  0  0
  138.5911   71.3606  223.1141 H   0  0  0  0  0  0  0  0  0  0  0  0
  140.8744   72.9313  225.5886 H   0  0  0  0  0  0  0  0  0  0  0  0
  141.7129   71.7203  227.5622 H   0  0  0  0  0  0  0  0  0  0  0  0
  141.3586   69.2668  227.8029 H   0  0  0  0  0  0  0  0  0  0  0  0
  140.1202   68.0557  225.9910 H   0  0  0  0  0  0  0  0  0  0  0  0
  139.2892   69.2933  224.0222 H   0  0  0  0  0  0  0  0  0  0  0  0
  139.4273   80.0781  223.6836 H   0  0  0  0  0  0  0  0  0  0  0  0
  140.7749   82.1076  224.2047 H   0  0  0  0  0  0  0  0  0  0  0  0
  144.3224   80.1780  222.9178 H   0  0  0  0  0  0  0  0  0  0  0  0
  143.0164   78.1584  222.3962 H   0  0  0  0  0  0  0  0  0  0  0  0
  1  2  2  0
  2  3  1  0
  3  4  1  0
  4  5  1  0
  5  6  2  0
  5  7  1  0
  7  8  1  0
  8  9  1  0
  9 10  1  0
 10 11  1  0
 11 12  1  0
 12 13  1  0
 13 14  2  0
 14 15  1  0
 15 16  2  0
 16 17  1  0
 17 18  2  0
  2 19  1  0
 19 20  2  0
 20 21  1  0
 21 22  2  0
 22 23  1  0
 23 24  2  0
 11  7  1  0
 18 13  1  0
 24 19  1  0
  3 25  1  0
  4 26  1  0
  4 27  1  0
  8 28  1  0
  8 29  1  0
  9 30  1  0
  9 31  1  0
 10 32  1  0
 10 33  1  0
 11 34  1  1
 12 35  1  0
 12 36  1  0
 14 37  1  0
 15 38  1  0
 16 39  1  0
 17 40  1  0
 18 41  1  0
 20 42  1  0
 21 43  1  0
 23 44  1  0
 24 45  1  0
M  END
>  <smiles>  (15) 
O=C(NCC(=O)N1CCCC1Cc1ccccc1)c1ccncc1

>  <score_type>  (15) 
oracle

>  <origin>  (15) 
autodockgpu

>  <m_score__min__energy>  (15) 
-7.1100000000000003

>  <m_primary>  (15) 
energy

>  <meeko>  (15) 
{"free_energy": -6.83, "intermolecular_energy": -8.61, "internal_energy": -1.59, "cluster_size": 4, "cluster_id": 3, "rank_in_cluster": 3}

>  <energy>  (15) 
-6.67

>  <cluster_rmsd>  (15) 
0.13

>  <rmsd>  (15) 
270.92

>  <cluster>  (15) 
4

$$$$

     RDKit          3D

 45 47  0  0  1  0  0  0  0  0999 V2000
  139.0560   77.5540  222.4100 O   0  0  0  0  0  0  0  0  0  0  0  0
  140.2960   77.3800  222.3090 C   0  0  0  0  0  0  0  0  0  0  0  0
  140.7620   76.0680  222.0180 N   0  0  0  0  0  0  0  0  0  0  0  0
  139.8310   74.9680  221.8430 C   0  0  0  0  0  0  0  0  0  0  0  0
  140.6330   73.7290  221.7230 C   0  0  0  0  0  0  0  0  0  0  0  0
  141.8780   73.7120  221.5480 O   0  0  0  0  0  0  0  0  0  0  0  0
  139.9680   72.4920  221.8120 N   0  0  0  0  0  0  0  0  0  0  0  0
  138.8110   72.1180  220.9990 C   0  0  0  0  0  0  0  0  0  0  0  0
  138.5520   70.6650  221.2990 C   0  0  0  0  0  0  0  0  0  0  0  0
  139.9010   70.2000  221.8260 C   0  0  0  0  0  0  0  0  0  0  0  0
  140.2750   71.3600  222.6990 C   0  0  2  0  0  0  0  0  0  0  0  0
  139.3590   71.5120  223.8690 C   0  0  0  0  0  0  0  0  0  0  0  0
  139.9080   70.7970  225.0340 C   0  0  0  0  0  0  0  0  0  0  0  0
  139.8400   69.4270  225.1890 C   0  0  0  0  0  0  0  0  0  0  0  0
  140.3710   68.7930  226.3020 C   0  0  0  0  0  0  0  0  0  0  0  0
  140.9910   69.5110  227.3080 C   0  0  0  0  0  0  0  0  0  0  0  0
  141.0680   70.8910  227.1660 C   0  0  0  0  0  0  0  0  0  0  0  0
  140.5280   71.5060  226.0400 C   0  0  0  0  0  0  0  0  0  0  0  0
  141.1570   78.5260  222.4970 C   0  0  0  0  0  0  0  0  0  0  0  0
  141.3990   79.3350  221.4080 C   0  0  0  0  0  0  0  0  0  0  0  0
  142.2260   80.4490  221.5580 C   0  0  0  0  0  0  0  0  0  0  0  0
  142.7840   80.7420  222.7350 N   0  0  0  0  0  0  0  0  0  0  0  0
  142.5670   79.9680  223.8230 C   0  0  0  0  0  0  0  0  0  0  0  0
  141.7550   78.8710  223.6830 C   0  0  0  0  0  0  0  0  0  0  0  0
  141.7980   75.9530  221.9390 H   0  0  0  0  0  0  0  0  0  0  0  0
  139.1606   74.9000  222.7124 H   0  0  0  0  0  0  0  0  0  0  0  0
  139.2117   75.1201  220.9467 H   0  0  0  0  0  0  0  0  0  0  0  0
  137.9372   72.7275  221.2728 H   0  0  0  0  0  0  0  0  0  0  0  0
  138.9981   72.2834  219.9277 H   0  0  0  0  0  0  0  0  0  0  0  0
  137.7654   70.5488  222.0591 H   0  0  0  0  0  0  0  0  0  0  0  0
  138.1959   70.0916  220.4305 H   0  0  0  0  0  0  0  0  0  0  0  0
  139.8105   69.2695  222.4056 H   0  0  0  0  0  0  0  0  0  0  0  0
  140.6378   69.9609  221.0450 H   0  0  0  0  0  0  0  0  0  0  0  0
  141.3011   71.2663  223.0842 H   0  0  0  0  0  0  0  0  0  0  0  0
  139.2536   72.5794  224.1130 H   0  0  0  0  0  0  0  0  0  0  0  0
  138.3758   71.0887  223.6156 H   0  0  0  0  0  0  0  0  0  0  0  0
  139.3522   68.8229  224.4098 H   0  0  0  0  0  0  0  0  0  0  0  0
  140.2977   67.6987  226.3862 H   0  0  0  0  0  0  0  0  0  0  0  0
  141.4094   69.0064  228.1914 H   0  0  0  0  0  0  0  0  0  0  0  0
  141.5557   71.4975  227.9434 H   0  0  0  0  0  0  0  0  0  0  0  0
  140.5989   72.6000  225.9497 H   0  0  0  0  0  0  0  0  0  0  0  0
  140.9458   79.1055  220.4323 H   0  0  0  0  0  0  0  0  0  0  0  0
  142.4216   81.0972  220.6911 H   0  0  0  0  0  0  0  0  0  0  0  0
  143.0281   80.2110  224.7917 H   0  0  0  0  0  0  0  0  0  0  0  0
  141.5746   78.2374  224.5639 H   0  0  0  0  0  0  0  0  0  0  0  0
  1  2  2  0
  2  3  1  0
  3  4  1  0
  4  5  1  0
  5  6  2  0
  5  7  1  0
  7  8  1  0
  8  9  1  0
  9 10  1  0
 10 11  1  0
 11 12  1  0
 12 13  1  0
 13 14  2  0
 14 15  1  0
 15 16  2  0
 16 17  1  0
 17 18  2  0
  2 19  1  0
 19 20  2  0
 20 21  1  0
 21 22  2  0
 22 23  1  0
 23 24  2  0
 11  7  1  0
 18 13  1  0
 24 19  1  0
  3 25  1  0
  4 26  1  0
  4 27  1  0
  8 28  1  0
  8 29  1  0
  9 30  1  0
  9 31  1  0
 10 32  1  0
 10 33  1  0
 11 34  1  1
 12 35  1  0
 12 36  1  0
 14 37  1  0
 15 38  1  0
 16 39  1  0
 17 40  1  0
 18 41  1  0
 20 42  1  0
 21 43  1  0
 23 44  1  0
 24 45  1  0
M  END
>  <smiles>  (16) 
O=C(NCC(=O)N1CCCC1Cc1ccccc1)c1ccncc1

>  <score_type>  (16) 
oracle

>  <origin>  (16) 
autodockgpu

>  <m_score__min__energy>  (16) 
-7.1100000000000003

>  <m_primary>  (16) 
energy

>  <meeko>  (16) 
{"free_energy": -6.86, "intermolecular_energy": -8.65, "internal_energy": -1.57, "cluster_size": 4, "cluster_id": 3, "rank_in_cluster": 1}

>  <energy>  (16) 
-6.64

>  <cluster_rmsd>  (16) 
0.56

>  <rmsd>  (16) 
270.79

>  <cluster>  (16) 
4

$$$$

     RDKit          3D

 45 47  0  0  1  0  0  0  0  0999 V2000
  143.4760   76.5210  219.4300 O   0  0  0  0  0  0  0  0  0  0  0  0
  143.3350   75.4320  220.0390 C   0  0  0  0  0  0  0  0  0  0  0  0
  142.1660   75.2600  220.8320 N   0  0  0  0  0  0  0  0  0  0  0  0
  141.1710   76.3120  220.9310 C   0  0  0  0  0  0  0  0  0  0  0  0
  140.0020   75.7450  221.6410 C   0  0  0  0  0  0  0  0  0  0  0  0
  139.9870   74.6050  222.1740 O   0  0  0  0  0  0  0  0  0  0  0  0
  138.8330   76.5230  221.7300 N   0  0  0  0  0  0  0  0  0  0  0  0
  137.6950   76.4090  220.8180 C   0  0  0  0  0  0  0  0  0  0  0  0
  136.6180   77.2900  221.3940 C   0  0  0  0  0  0  0  0  0  0  0  0
  137.0330   77.3920  222.8540 C   0  0  0  0  0  0  0  0  0  0  0  0
  138.5150   77.5700  222.7110 C   0  0  2  0  0  0  0  0  0  0  0  0
  138.8720   78.8600  222.0470 C   0  0  0  0  0  0  0  0  0  0  0  0
  140.1270   79.3860  222.6120 C   0  0  0  0  0  0  0  0  0  0  0  0
  141.0220   78.6160  223.3280 C   0  0  0  0  0  0  0  0  0  0  0  0
  142.1930   79.1520  223.8430 C   0  0  0  0  0  0  0  0  0  0  0  0
  142.5120   80.4840  223.6600 C   0  0  0  0  0  0  0  0  0  0  0  0
  141.6220   81.2710  222.9420 C   0  0  0  0  0  0  0  0  0  0  0  0
  140.4530   80.7130  222.4340 C   0  0  0  0  0  0  0  0  0  0  0  0
  144.3700   74.4350  219.8890 C   0  0  0  0  0  0  0  0  0  0  0  0
  144.4280   73.7390  218.7010 C   0  0  0  0  0  0  0  0  0  0  0  0
  145.4170   72.7710  218.5260 C   0  0  0  0  0  0  0  0  0  0  0  0
  146.3040   72.5080  219.4880 N   0  0  0  0  0  0  0  0  0  0  0  0
  146.2750   73.1720  220.6670 C   0  0  0  0  0  0  0  0  0  0  0  0
  145.3050   74.1260  220.8450 C   0  0  0  0  0  0  0  0  0  0  0  0
  142.0760   74.3440  221.3270 H   0  0  0  0  0  0  0  0  0  0  0  0
  141.5781   77.1636  221.4958 H   0  0  0  0  0  0  0  0  0  0  0  0
  140.8836   76.6723  219.9322 H   0  0  0  0  0  0  0  0  0  0  0  0
  137.9746   76.7539  219.8116 H   0  0  0  0  0  0  0  0  0  0  0  0
  137.3568   75.3668  220.7208 H   0  0  0  0  0  0  0  0  0  0  0  0
  136.6108   78.2785  220.9114 H   0  0  0  0  0  0  0  0  0  0  0  0
  135.6012   76.8956  221.2505 H   0  0  0  0  0  0  0  0  0  0  0  0
  136.5669   78.2571  223.3482 H   0  0  0  0  0  0  0  0  0  0  0  0
  136.7343   76.5340  223.4742 H   0  0  0  0  0  0  0  0  0  0  0  0
  139.0256   77.5391  223.6848 H   0  0  0  0  0  0  0  0  0  0  0  0
  139.0008   78.6910  220.9677 H   0  0  0  0  0  0  0  0  0  0  0  0
  138.0658   79.5890  222.2163 H   0  0  0  0  0  0  0  0  0  0  0  0
  140.8009   77.5513  223.4940 H   0  0  0  0  0  0  0  0  0  0  0  0
  142.8804   78.5049  224.4075 H   0  0  0  0  0  0  0  0  0  0  0  0
  143.4410   80.9070  224.0700 H   0  0  0  0  0  0  0  0  0  0  0  0
  141.8410   82.3359  222.7746 H   0  0  0  0  0  0  0  0  0  0  0  0
  139.7624   81.3559  221.8685 H   0  0  0  0  0  0  0  0  0  0  0  0
  143.7027   73.9444  217.8999 H   0  0  0  0  0  0  0  0  0  0  0  0
  145.4668   72.2146  217.5784 H   0  0  0  0  0  0  0  0  0  0  0  0
  147.0069   72.9535  221.4586 H   0  0  0  0  0  0  0  0  0  0  0  0
  145.2753   74.6698  221.8007 H   0  0  0  0  0  0  0  0  0  0  0  0
  1  2  2  0
  2  3  1  0
  3  4  1  0
  4  5  1  0
  5  6  2  0
  5  7  1  0
  7  8  1  0
  8  9  1  0
  9 10  1  0
 10 11  1  0
 11 12  1  0
 12 13  1  0
 13 14  2  0
 14 15  1  0
 15 16  2  0
 16 17  1  0
 17 18  2  0
  2 19  1  0
 19 20  2  0
 20 21  1  0
 21 22  2  0
 22 23  1  0
 23 24  2  0
 11  7  1  0
 18 13  1  0
 24 19  1  0
  3 25  1  0
  4 26  1  0
  4 27  1  0
  8 28  1  0
  8 29  1  0
  9 30  1  0
  9 31  1  0
 10 32  1  0
 10 33  1  0
 11 34  1  1
 12 35  1  0
 12 36  1  0
 14 37  1  0
 15 38  1  0
 16 39  1  0
 17 40  1  0
 18 41  1  0
 20 42  1  0
 21 43  1  0
 23 44  1  0
 24 45  1  0
M  END
>  <smiles>  (17) 
O=C(NCC(=O)N1CCCC1Cc1ccccc1)c1ccncc1

>  <score_type>  (17) 
oracle

>  <origin>  (17) 
autodockgpu

>  <m_score__min__energy>  (17) 
-7.1100000000000003

>  <m_primary>  (17) 
energy

>  <meeko>  (17) 
{"free_energy": -6.64, "intermolecular_energy": -8.43, "internal_energy": -1.79, "cluster_size": 7, "cluster_id": 4, "rank_in_cluster": 3}

>  <energy>  (17) 
-6.64

>  <cluster_rmsd>  (17) 
0.54

>  <rmsd>  (17) 
270.78

>  <cluster>  (17) 
4

$$$$

     RDKit          3D

 45 47  0  0  1  0  0  0  0  0999 V2000
  143.5080   76.5210  219.4350 O   0  0  0  0  0  0  0  0  0  0  0  0
  143.3490   75.4270  220.0320 C   0  0  0  0  0  0  0  0  0  0  0  0
  142.1620   75.2530  220.7970 N   0  0  0  0  0  0  0  0  0  0  0  0
  141.1690   76.3080  220.8820 C   0  0  0  0  0  0  0  0  0  0  0  0
  140.0330   75.7800  221.6700 C   0  0  0  0  0  0  0  0  0  0  0  0
  140.0540   74.6830  222.2850 O   0  0  0  0  0  0  0  0  0  0  0  0
  138.8560   76.5480  221.7430 N   0  0  0  0  0  0  0  0  0  0  0  0
  137.7320   76.4230  220.8160 C   0  0  0  0  0  0  0  0  0  0  0  0
  136.6390   77.2950  221.3770 C   0  0  0  0  0  0  0  0  0  0  0  0
  137.0330   77.4020  222.8420 C   0  0  0  0  0  0  0  0  0  0  0  0
  138.5150   77.5930  222.7190 C   0  0  2  0  0  0  0  0  0  0  0  0
  138.8700   78.8850  222.0590 C   0  0  0  0  0  0  0  0  0  0  0  0
  140.1130   79.4220  222.6390 C   0  0  0  0  0  0  0  0  0  0  0  0
  140.4660   80.7560  222.5810 C   0  0  0  0  0  0  0  0  0  0  0  0
  141.6470   81.2200  223.1410 C   0  0  0  0  0  0  0  0  0  0  0  0
  142.5230   80.3620  223.7810 C   0  0  0  0  0  0  0  0  0  0  0  0
  142.1810   79.0180  223.8470 C   0  0  0  0  0  0  0  0  0  0  0  0
  140.9910   78.5740  223.2790 C   0  0  0  0  0  0  0  0  0  0  0  0
  144.3830   74.4270  219.8970 C   0  0  0  0  0  0  0  0  0  0  0  0
  144.4310   73.7030  218.7260 C   0  0  0  0  0  0  0  0  0  0  0  0
  145.4190   72.7310  218.5670 C   0  0  0  0  0  0  0  0  0  0  0  0
  146.3150   72.4910  219.5270 N   0  0  0  0  0  0  0  0  0  0  0  0
  146.2950   73.1840  220.6900 C   0  0  0  0  0  0  0  0  0  0  0  0
  145.3270   74.1410  220.8530 C   0  0  0  0  0  0  0  0  0  0  0  0
  142.0560   74.3340  221.2820 H   0  0  0  0  0  0  0  0  0  0  0  0
  141.5974   77.1888  221.3826 H   0  0  0  0  0  0  0  0  0  0  0  0
  140.8384   76.6137  219.8784 H   0  0  0  0  0  0  0  0  0  0  0  0
  138.0220   76.7698  219.8132 H   0  0  0  0  0  0  0  0  0  0  0  0
  137.4046   75.3777  220.7150 H   0  0  0  0  0  0  0  0  0  0  0  0
  136.6294   78.2830  220.8935 H   0  0  0  0  0  0  0  0  0  0  0  0
  135.6279   76.8912  221.2202 H   0  0  0  0  0  0  0  0  0  0  0  0
  136.5525   78.2634  223.3289 H   0  0  0  0  0  0  0  0  0  0  0  0
  136.7335   76.5420  223.4590 H   0  0  0  0  0  0  0  0  0  0  0  0
  139.0121   77.5674  223.6999 H   0  0  0  0  0  0  0  0  0  0  0  0
  139.0139   78.7162  220.9816 H   0  0  0  0  0  0  0  0  0  0  0  0
  138.0558   79.6074  222.2179 H   0  0  0  0  0  0  0  0  0  0  0  0
  139.7943   81.4676  222.0785 H   0  0  0  0  0  0  0  0  0  0  0  0
  141.8916   82.2904  223.0749 H   0  0  0  0  0  0  0  0  0  0  0  0
  143.4597   80.7323  224.2231 H   0  0  0  0  0  0  0  0  0  0  0  0
  142.8510   78.3041  224.3484 H   0  0  0  0  0  0  0  0  0  0  0  0
  140.7412   77.5047  223.3432 H   0  0  0  0  0  0  0  0  0  0  0  0
  143.6992   73.8890  217.9261 H   0  0  0  0  0  0  0  0  0  0  0  0
  145.4605   72.1514  217.6330 H   0  0  0  0  0  0  0  0  0  0  0  0
  147.0335   72.9850  221.4806 H   0  0  0  0  0  0  0  0  0  0  0  0
  145.3052   74.7076  221.7956 H   0  0  0  0  0  0  0  0  0  0  0  0
  1  2  2  0
  2  3  1  0
  3  4  1  0
  4  5  1  0
  5  6  2  0
  5  7  1  0
  7  8  1  0
  8  9  1  0
  9 10  1  0
 10 11  1  0
 11 12  1  0
 12 13  1  0
 13 14  2  0
 14 15  1  0
 15 16  2  0
 16 17  1  0
 17 18  2  0
  2 19  1  0
 19 20  2  0
 20 21  1  0
 21 22  2  0
 22 23  1  0
 23 24  2  0
 11  7  1  0
 18 13  1  0
 24 19  1  0
  3 25  1  0
  4 26  1  0
  4 27  1  0
  8 28  1  0
  8 29  1  0
  9 30  1  0
  9 31  1  0
 10 32  1  0
 10 33  1  0
 11 34  1  1
 12 35  1  0
 12 36  1  0
 14 37  1  0
 15 38  1  0
 16 39  1  0
 17 40  1  0
 18 41  1  0
 20 42  1  0
 21 43  1  0
 23 44  1  0
 24 45  1  0
M  END
>  <smiles>  (18) 
O=C(NCC(=O)N1CCCC1Cc1ccccc1)c1ccncc1

>  <score_type>  (18) 
oracle

>  <origin>  (18) 
autodockgpu

>  <m_score__min__energy>  (18) 
-7.1100000000000003

>  <m_primary>  (18) 
energy

>  <meeko>  (18) 
{"free_energy": -6.63, "intermolecular_energy": -8.42, "internal_energy": -1.79, "cluster_size": 7, "cluster_id": 4, "rank_in_cluster": 5}

>  <energy>  (18) 
-6.63

>  <cluster_rmsd>  (18) 
0.53

>  <rmsd>  (18) 
270.81

>  <cluster>  (18) 
4

$$$$

     RDKit          3D

 45 47  0  0  1  0  0  0  0  0999 V2000
  135.7330   76.6270  222.7470 O   0  0  0  0  0  0  0  0  0  0  0  0
  135.9970   75.5110  223.2600 C   0  0  0  0  0  0  0  0  0  0  0  0
  137.0450   74.7430  222.6810 N   0  0  0  0  0  0  0  0  0  0  0  0
  137.7850   75.2360  221.5340 C   0  0  0  0  0  0  0  0  0  0  0  0
  139.2150   74.9410  221.7740 C   0  0  0  0  0  0  0  0  0  0  0  0
  139.6340   73.8880  222.3200 O   0  0  0  0  0  0  0  0  0  0  0  0
  140.1700   75.8910  221.3670 N   0  0  0  0  0  0  0  0  0  0  0  0
  141.3530   75.5810  220.5660 C   0  0  0  0  0  0  0  0  0  0  0  0
  141.9770   76.9080  220.2230 C   0  0  0  0  0  0  0  0  0  0  0  0
  140.8060   77.8650  220.3870 C   0  0  0  0  0  0  0  0  0  0  0  0
  140.1870   77.3350  221.6460 C   0  0  2  0  0  0  0  0  0  0  0  0
  141.0780   77.5010  222.8330 C   0  0  0  0  0  0  0  0  0  0  0  0
  141.3580   78.9290  223.0570 C   0  0  0  0  0  0  0  0  0  0  0  0
  140.3720   79.8790  223.2410 C   0  0  0  0  0  0  0  0  0  0  0  0
  140.6790   81.2150  223.4500 C   0  0  0  0  0  0  0  0  0  0  0  0
  141.9900   81.6520  223.4820 C   0  0  0  0  0  0  0  0  0  0  0  0
  142.9930   80.7090  223.2990 C   0  0  0  0  0  0  0  0  0  0  0  0
  142.6620   79.3740  223.0910 C   0  0  0  0  0  0  0  0  0  0  0  0
  135.2150   75.0910  224.4010 C   0  0  0  0  0  0  0  0  0  0  0  0
  134.9980   73.7410  224.5730 C   0  0  0  0  0  0  0  0  0  0  0  0
  134.2470   73.3060  225.6650 C   0  0  0  0  0  0  0  0  0  0  0  0
  133.7380   74.1720  226.5430 N   0  0  0  0  0  0  0  0  0  0  0  0
  133.9320   75.5040  226.4040 C   0  0  0  0  0  0  0  0  0  0  0  0
  134.6700   75.9400  225.3330 C   0  0  0  0  0  0  0  0  0  0  0  0
  137.2420   73.8200  223.1300 H   0  0  0  0  0  0  0  0  0  0  0  0
  137.4441   74.7285  220.6195 H   0  0  0  0  0  0  0  0  0  0  0  0
  137.6266   76.3166  221.4031 H   0  0  0  0  0  0  0  0  0  0  0  0
  142.0569   74.9652  221.1451 H   0  0  0  0  0  0  0  0  0  0  0  0
  141.0914   75.0115  219.6620 H   0  0  0  0  0  0  0  0  0  0  0  0
  142.7945   77.1555  220.9161 H   0  0  0  0  0  0  0  0  0  0  0  0
  142.4338   76.9361  219.2227 H   0  0  0  0  0  0  0  0  0  0  0  0
  141.1459   78.9041  220.5088 H   0  0  0  0  0  0  0  0  0  0  0  0
  140.1242   77.9038  219.5246 H   0  0  0  0  0  0  0  0  0  0  0  0
  139.2310   77.8306  221.8706 H   0  0  0  0  0  0  0  0  0  0  0  0
  140.5824   77.0832  223.7217 H   0  0  0  0  0  0  0  0  0  0  0  0
  142.0249   76.9718  222.6504 H   0  0  0  0  0  0  0  0  0  0  0  0
  139.3171   79.5679  223.2212 H   0  0  0  0  0  0  0  0  0  0  0  0
  139.8644   81.9403  223.5929 H   0  0  0  0  0  0  0  0  0  0  0  0
  142.2311   82.7125  223.6471 H   0  0  0  0  0  0  0  0  0  0  0  0
  144.0486   81.0176  223.3185 H   0  0  0  0  0  0  0  0  0  0  0  0
  143.4730   78.6447  222.9480 H   0  0  0  0  0  0  0  0  0  0  0  0
  135.4121   73.0151  223.8577 H   0  0  0  0  0  0  0  0  0  0  0  0
  134.0712   72.2292  225.8048 H   0  0  0  0  0  0  0  0  0  0  0  0
  133.5103   76.2162  227.1285 H   0  0  0  0  0  0  0  0  0  0  0  0
  134.8331   77.0214  225.2149 H   0  0  0  0  0  0  0  0  0  0  0  0
  1  2  2  0
  2  3  1  0
  3  4  1  0
  4  5  1  0
  5  6  2  0
  5  7  1  0
  7  8  1  0
  8  9  1  0
  9 10  1  0
 10 11  1  0
 11 12  1  0
 12 13  1  0
 13 14  2  0
 14 15  1  0
 15 16  2  0
 16 17  1  0
 17 18  2  0
  2 19  1  0
 19 20  2  0
 20 21  1  0
 21 22  2  0
 22 23  1  0
 23 24  2  0
 11  7  1  0
 18 13  1  0
 24 19  1  0
  3 25  1  0
  4 26  1  0
  4 27  1  0
  8 28  1  0
  8 29  1  0
  9 30  1  0
  9 31  1  0
 10 32  1  0
 10 33  1  0
 11 34  1  1
 12 35  1  0
 12 36  1  0
 14 37  1  0
 15 38  1  0
 16 39  1  0
 17 40  1  0
 18 41  1  0
 20 42  1  0
 21 43  1  0
 23 44  1  0
 24 45  1  0
M  END
>  <smiles>  (19) 
O=C(NCC(=O)N1CCCC1Cc1ccccc1)c1ccncc1

>  <score_type>  (19) 
oracle

>  <origin>  (19) 
autodockgpu

>  <m_score__min__energy>  (19) 
-7.1100000000000003

>  <m_primary>  (19) 
energy

>  <meeko>  (19) 
{"free_energy": -7.08, "intermolecular_energy": -8.87, "internal_energy": -1.42, "cluster_size": 7, "cluster_id": 1, "rank_in_cluster": 5}

>  <energy>  (19) 
-6.52

>  <cluster_rmsd>  (19) 
0.65

>  <rmsd>  (19) 
270.72

>  <cluster>  (19) 
4

$$$$

     RDKit          3D

 45 47  0  0  1  0  0  0  0  0999 V2000
  139.0940   77.8870  222.8860 O   0  0  0  0  0  0  0  0  0  0  0  0
  140.3340   77.7970  222.7040 C   0  0  0  0  0  0  0  0  0  0  0  0
  140.8480   76.5600  222.2240 N   0  0  0  0  0  0  0  0  0  0  0  0
  139.9640   75.4410  221.9540 C   0  0  0  0  0  0  0  0  0  0  0  0
  140.8140   74.2980  221.5520 C   0  0  0  0  0  0  0  0  0  0  0  0
  142.0310   74.3980  221.2500 O   0  0  0  0  0  0  0  0  0  0  0  0
  140.2330   73.0170  221.5040 N   0  0  0  0  0  0  0  0  0  0  0  0
  139.1820   72.6230  220.5660 C   0  0  0  0  0  0  0  0  0  0  0  0
  139.0010   71.1400  220.7530 C   0  0  0  0  0  0  0  0  0  0  0  0
  140.3270   70.7300  221.3740 C   0  0  0  0  0  0  0  0  0  0  0  0
  140.5390   71.8510  222.3460 C   0  0  2  0  0  0  0  0  0  0  0  0
  139.5150   71.8650  223.4330 C   0  0  0  0  0  0  0  0  0  0  0  0
  140.0220   71.1430  224.6120 C   0  0  0  0  0  0  0  0  0  0  0  0
  139.8360   69.7900  224.8150 C   0  0  0  0  0  0  0  0  0  0  0  0
  140.3310   69.1480  225.9400 C   0  0  0  0  0  0  0  0  0  0  0  0
  141.0320   69.8400  226.9090 C   0  0  0  0  0  0  0  0  0  0  0  0
  141.2280   71.2020  226.7190 C   0  0  0  0  0  0  0  0  0  0  0  0
  140.7220   71.8250  225.5830 C   0  0  0  0  0  0  0  0  0  0  0  0
  141.1450   78.9570  222.9950 C   0  0  0  0  0  0  0  0  0  0  0  0
  140.5170   80.0710  223.5080 C   0  0  0  0  0  0  0  0  0  0  0  0
  141.2750   81.2060  223.7990 C   0  0  0  0  0  0  0  0  0  0  0  0
  142.5930   81.2300  223.5900 N   0  0  0  0  0  0  0  0  0  0  0  0
  143.2400   80.1530  223.0880 C   0  0  0  0  0  0  0  0  0  0  0  0
  142.5020   79.0340  222.7990 C   0  0  0  0  0  0  0  0  0  0  0  0
  141.8820   76.5150  222.0810 H   0  0  0  0  0  0  0  0  0  0  0  0
  139.3924   75.1857  222.8585 H   0  0  0  0  0  0  0  0  0  0  0  0
  139.2473   75.6930  221.1585 H   0  0  0  0  0  0  0  0  0  0  0  0
  138.2464   73.1549  220.7934 H   0  0  0  0  0  0  0  0  0  0  0  0
  139.4512   72.8706  219.5286 H   0  0  0  0  0  0  0  0  0  0  0  0
  138.1603   70.9229  221.4284 H   0  0  0  0  0  0  0  0  0  0  0  0
  138.7647   70.6033  219.8223 H   0  0  0  0  0  0  0  0  0  0  0  0
  140.2517   69.7591  221.8856 H   0  0  0  0  0  0  0  0  0  0  0  0
  141.1452   70.5918  220.6519 H   0  0  0  0  0  0  0  0  0  0  0  0
  141.5309   71.7989  222.8186 H   0  0  0  0  0  0  0  0  0  0  0  0
  139.2930   72.9059  223.7109 H   0  0  0  0  0  0  0  0  0  0  0  0
  138.6000   71.3716  223.0734 H   0  0  0  0  0  0  0  0  0  0  0  0
  139.2812   69.2067  224.0654 H   0  0  0  0  0  0  0  0  0  0  0  0
  140.1625   68.0680  226.0633 H   0  0  0  0  0  0  0  0  0  0  0  0
  141.4221   69.3291  227.8016 H   0  0  0  0  0  0  0  0  0  0  0  0
  141.7831   71.7876  227.4666 H   0  0  0  0  0  0  0  0  0  0  0  0
  140.8873   72.9049  225.4548 H   0  0  0  0  0  0  0  0  0  0  0  0
  139.4315   80.0657  223.6860 H   0  0  0  0  0  0  0  0  0  0  0  0
  140.7770   82.0974  224.2082 H   0  0  0  0  0  0  0  0  0  0  0  0
  144.3264   80.1744  222.9167 H   0  0  0  0  0  0  0  0  0  0  0  0
  143.0223   78.1552  222.3903 H   0  0  0  0  0  0  0  0  0  0  0  0
  1  2  2  0
  2  3  1  0
  3  4  1  0
  4  5  1  0
  5  6  2  0
  5  7  1  0
  7  8  1  0
  8  9  1  0
  9 10  1  0
 10 11  1  0
 11 12  1  0
 12 13  1  0
 13 14  2  0
 14 15  1  0
 15 16  2  0
 16 17  1  0
 17 18  2  0
  2 19  1  0
 19 20  2  0
 20 21  1  0
 21 22  2  0
 22 23  1  0
 23 24  2  0
 11  7  1  0
 18 13  1  0
 24 19  1  0
  3 25  1  0
  4 26  1  0
  4 27  1  0
  8 28  1  0
  8 29  1  0
  9 30  1  0
  9 31  1  0
 10 32  1  0
 10 33  1  0
 11 34  1  1
 12 35  1  0
 12 36  1  0
 14 37  1  0
 15 38  1  0
 16 39  1  0
 17 40  1  0
 18 41  1  0
 20 42  1  0
 21 43  1  0
 23 44  1  0
 24 45  1  0
M  END
>  <smiles>  (20) 
O=C(NCC(=O)N1CCCC1Cc1ccccc1)c1ccncc1

>  <score_type>  (20) 
oracle

>  <origin>  (20) 
autodockgpu

>  <m_score__min__energy>  (20) 
-7.1100000000000003

>  <m_primary>  (20) 
energy

>  <meeko>  (20) 
{"free_energy": -6.83, "intermolecular_energy": -8.62, "internal_energy": -1.59, "cluster_size": 4, "cluster_id": 3, "rank_in_cluster": 2}

>  <energy>  (20) 
-6.51

>  <cluster_rmsd>  (20) 
0.65

>  <rmsd>  (20) 
270.72

>  <cluster>  (20) 
4

$$$$

     RDKit          3D

 45 47  0  0  1  0  0  0  0  0999 V2000
  138.6630   77.5940  222.6270 O   0  0  0  0  0  0  0  0  0  0  0  0
  139.8970   77.3360  222.4400 C   0  0  0  0  0  0  0  0  0  0  0  0
  140.2220   76.0020  222.1070 N   0  0  0  0  0  0  0  0  0  0  0  0
  139.2590   74.9450  221.9750 C   0  0  0  0  0  0  0  0  0  0  0  0
  139.9630   73.6410  222.1020 C   0  0  0  0  0  0  0  0  0  0  0  0
  141.2010   73.6430  221.9770 O   0  0  0  0  0  0  0  0  0  0  0  0
  139.1950   72.4550  222.3590 N   0  0  0  0  0  0  0  0  0  0  0  0
  138.0830   71.9900  221.5620 C   0  0  0  0  0  0  0  0  0  0  0  0
  137.8870   70.5460  221.8790 C   0  0  0  0  0  0  0  0  0  0  0  0
  139.1220   70.2000  222.6780 C   0  0  0  0  0  0  0  0  0  0  0  0
  139.3450   71.4880  223.4230 C   0  0  1  0  0  0  0  0  0  0  0  0
  140.6520   71.6080  224.1110 C   0  0  0  0  0  0  0  0  0  0  0  0
  140.5990   71.1690  225.5410 C   0  0  0  0  0  0  0  0  0  0  0  0
  139.9800   69.9630  225.8530 C   0  0  0  0  0  0  0  0  0  0  0  0
  139.8940   69.4970  227.1400 C   0  0  0  0  0  0  0  0  0  0  0  0
  140.4540   70.2850  228.1320 C   0  0  0  0  0  0  0  0  0  0  0  0
  141.0750   71.4840  227.8650 C   0  0  0  0  0  0  0  0  0  0  0  0
  141.1550   71.9410  226.5580 C   0  0  0  0  0  0  0  0  0  0  0  0
  140.8850   78.4000  222.5730 C   0  0  0  0  0  0  0  0  0  0  0  0
  141.4910   78.7360  223.7600 C   0  0  0  0  0  0  0  0  0  0  0  0
  142.4280   79.7690  223.8070 C   0  0  0  0  0  0  0  0  0  0  0  0
  142.7560   80.4570  222.6950 N   0  0  0  0  0  0  0  0  0  0  0  0
  142.1760   80.1480  221.5170 C   0  0  0  0  0  0  0  0  0  0  0  0
  141.2490   79.1290  221.4580 C   0  0  0  0  0  0  0  0  0  0  0  0
  141.2240   75.7740  221.9510 H   0  0  0  0  0  0  0  0  0  0  0  0
  138.5000   75.0346  222.7661 H   0  0  0  0  0  0  0  0  0  0  0  0
  138.7629   75.0096  220.9953 H   0  0  0  0  0  0  0  0  0  0  0  0
  137.1752   72.5578  221.8139 H   0  0  0  0  0  0  0  0  0  0  0  0
  138.2850   72.1306  220.4899 H   0  0  0  0  0  0  0  0  0  0  0  0
  136.9753   70.3927  222.4750 H   0  0  0  0  0  0  0  0  0  0  0  0
  137.7619   69.9197  220.9834 H   0  0  0  0  0  0  0  0  0  0  0  0
  138.9377   69.3613  223.3654 H   0  0  0  0  0  0  0  0  0  0  0  0
  139.9788   69.8697  222.0724 H   0  0  0  0  0  0  0  0  0  0  0  0
  138.6507   71.6050  224.2682 H   0  0  0  0  0  0  0  0  0  0  0  0
  141.3870   70.9856  223.5796 H   0  0  0  0  0  0  0  0  0  0  0  0
  140.9338   72.6712  224.1019 H   0  0  0  0  0  0  0  0  0  0  0  0
  139.5449   69.3629  225.0402 H   0  0  0  0  0  0  0  0  0  0  0  0
  139.4027   68.5410  227.3738 H   0  0  0  0  0  0  0  0  0  0  0  0
  140.4003   69.9388  229.1747 H   0  0  0  0  0  0  0  0  0  0  0  0
  141.5061   72.0773  228.6849 H   0  0  0  0  0  0  0  0  0  0  0  0
  141.6491   72.8967  226.3286 H   0  0  0  0  0  0  0  0  0  0  0  0
  141.2358   78.1872  224.6786 H   0  0  0  0  0  0  0  0  0  0  0  0
  142.9054   80.0254  224.7643 H   0  0  0  0  0  0  0  0  0  0  0  0
  142.4414   80.7066  220.6073 H   0  0  0  0  0  0  0  0  0  0  0  0
  140.7839   78.8887  220.4906 H   0  0  0  0  0  0  0  0  0  0  0  0
  1  2  2  0
  2  3  1  0
  3  4  1  0
  4  5  1  0
  5  6  2  0
  5  7  1  0
  7  8  1  0
  8  9  1  0
  9 10  1  0
 10 11  1  0
 11 12  1  0
 12 13  1  0
 13 14  2  0
 14 15  1  0
 15 16  2  0
 16 17  1  0
 17 18  2  0
  2 19  1  0
 19 20  2  0
 20 21  1  0
 21 22  2  0
 22 23  1  0
 23 24  2  0
 11  7  1  0
 18 13  1  0
 24 19  1  0
  3 25  1  0
  4 26  1  0
  4 27  1  0
  8 28  1  0
  8 29  1  0
  9 30  1  0
  9 31  1  0
 10 32  1  0
 10 33  1  0
 11 34  1  1
 12 35  1  0
 12 36  1  0
 14 37  1  0
 15 38  1  0
 16 39  1  0
 17 40  1  0
 18 41  1  0
 20 42  1  0
 21 43  1  0
 23 44  1  0
 24 45  1  0
M  END
>  <smiles>  (21) 
O=C(NCC(=O)N1CCCC1Cc1ccccc1)c1ccncc1

>  <score_type>  (21) 
oracle

>  <origin>  (21) 
autodockgpu

>  <m_score__min__energy>  (21) 
-7.2800000000000002

>  <m_primary>  (21) 
energy

>  <meeko>  (21) 
{"free_energy": -7.27, "intermolecular_energy": -9.05, "internal_energy": -1.65, "cluster_size": 17, "cluster_id": 1, "rank_in_cluster": 7}

>  <energy>  (21) 
-7.28

>  <cluster_rmsd>  (21) 
0.0

>  <rmsd>  (21) 
271.54

>  <cluster>  (21) 
1

$$$$

     RDKit          3D

 45 47  0  0  1  0  0  0  0  0999 V2000
  138.6530   77.6210  222.4320 O   0  0  0  0  0  0  0  0  0  0  0  0
  139.8940   77.3380  222.3690 C   0  0  0  0  0  0  0  0  0  0  0  0
  140.2250   75.9860  222.1310 N   0  0  0  0  0  0  0  0  0  0  0  0
  139.2590   74.9350  221.9630 C   0  0  0  0  0  0  0  0  0  0  0  0
  139.9530   73.6270  222.0920 C   0  0  0  0  0  0  0  0  0  0  0  0
  141.1910   73.6180  221.9630 O   0  0  0  0  0  0  0  0  0  0  0  0
  139.1760   72.4480  222.3570 N   0  0  0  0  0  0  0  0  0  0  0  0
  138.0480   71.9960  221.5740 C   0  0  0  0  0  0  0  0  0  0  0  0
  137.8420   70.5540  221.8900 C   0  0  0  0  0  0  0  0  0  0  0  0
  139.0840   70.1930  222.6720 C   0  0  0  0  0  0  0  0  0  0  0  0
  139.3300   71.4760  223.4170 C   0  0  1  0  0  0  0  0  0  0  0  0
  140.6480   71.5810  224.0870 C   0  0  0  0  0  0  0  0  0  0  0  0
  140.6080   71.1460  225.5180 C   0  0  0  0  0  0  0  0  0  0  0  0
  140.0370   69.9170  225.8340 C   0  0  0  0  0  0  0  0  0  0  0  0
  139.9660   69.4540  227.1230 C   0  0  0  0  0  0  0  0  0  0  0  0
  140.4910   70.2670  228.1120 C   0  0  0  0  0  0  0  0  0  0  0  0
  141.0650   71.4900  227.8430 C   0  0  0  0  0  0  0  0  0  0  0  0
  141.1300   71.9440  226.5340 C   0  0  0  0  0  0  0  0  0  0  0  0
  140.8840   78.3950  222.5400 C   0  0  0  0  0  0  0  0  0  0  0  0
  141.4780   78.6980  223.7410 C   0  0  0  0  0  0  0  0  0  0  0  0
  142.4180   79.7270  223.8250 C   0  0  0  0  0  0  0  0  0  0  0  0
  142.7610   80.4410  222.7350 N   0  0  0  0  0  0  0  0  0  0  0  0
  142.1920   80.1640  221.5420 C   0  0  0  0  0  0  0  0  0  0  0  0
  141.2620   79.1500  221.4470 C   0  0  0  0  0  0  0  0  0  0  0  0
  141.2330   75.7370  222.0760 H   0  0  0  0  0  0  0  0  0  0  0  0
  138.4813   75.0196  222.7363 H   0  0  0  0  0  0  0  0  0  0  0  0
  138.7871   75.0136  220.9725 H   0  0  0  0  0  0  0  0  0  0  0  0
  137.1495   72.5722  221.8399 H   0  0  0  0  0  0  0  0  0  0  0  0
  138.2366   72.1373  220.4996 H   0  0  0  0  0  0  0  0  0  0  0  0
  136.9367   70.4084  222.4976 H   0  0  0  0  0  0  0  0  0  0  0  0
  137.6990   69.9315  220.9944 H   0  0  0  0  0  0  0  0  0  0  0  0
  138.9001   69.3543  223.3596 H   0  0  0  0  0  0  0  0  0  0  0  0
  139.9293   69.8555  222.0543 H   0  0  0  0  0  0  0  0  0  0  0  0
  138.6483   71.5974  224.2717 H   0  0  0  0  0  0  0  0  0  0  0  0
  141.3678   70.9480  223.5474 H   0  0  0  0  0  0  0  0  0  0  0  0
  140.9437   72.6404  224.0713 H   0  0  0  0  0  0  0  0  0  0  0  0
  139.6289   69.2961  225.0229 H   0  0  0  0  0  0  0  0  0  0  0  0
  139.5122   68.4804  227.3599 H   0  0  0  0  0  0  0  0  0  0  0  0
  140.4482   69.9226  229.1558 H   0  0  0  0  0  0  0  0  0  0  0  0
  141.4696   72.1031  228.6618 H   0  0  0  0  0  0  0  0  0  0  0  0
  141.5860   72.9177  226.3018 H   0  0  0  0  0  0  0  0  0  0  0  0
  141.2114   78.1264  224.6422 H   0  0  0  0  0  0  0  0  0  0  0  0
  142.8848   79.9579  224.7939 H   0  0  0  0  0  0  0  0  0  0  0  0
  142.4691   80.7447  220.6498 H   0  0  0  0  0  0  0  0  0  0  0  0
  140.8065   78.9356  220.4690 H   0  0  0  0  0  0  0  0  0  0  0  0
  1  2  2  0
  2  3  1  0
  3  4  1  0
  4  5  1  0
  5  6  2  0
  5  7  1  0
  7  8  1  0
  8  9  1  0
  9 10  1  0
 10 11  1  0
 11 12  1  0
 12 13  1  0
 13 14  2  0
 14 15  1  0
 15 16  2  0
 16 17  1  0
 17 18  2  0
  2 19  1  0
 19 20  2  0
 20 21  1  0
 21 22  2  0
 22 23  1  0
 23 24  2  0
 11  7  1  0
 18 13  1  0
 24 19  1  0
  3 25  1  0
  4 26  1  0
  4 27  1  0
  8 28  1  0
  8 29  1  0
  9 30  1  0
  9 31  1  0
 10 32  1  0
 10 33  1  0
 11 34  1  1
 12 35  1  0
 12 36  1  0
 14 37  1  0
 15 38  1  0
 16 39  1  0
 17 40  1  0
 18 41  1  0
 20 42  1  0
 21 43  1  0
 23 44  1  0
 24 45  1  0
M  END
>  <smiles>  (22) 
O=C(NCC(=O)N1CCCC1Cc1ccccc1)c1ccncc1

>  <score_type>  (22) 
oracle

>  <origin>  (22) 
autodockgpu

>  <m_score__min__energy>  (22) 
-7.2800000000000002

>  <m_primary>  (22) 
energy

>  <meeko>  (22) 
{"free_energy": -7.28, "intermolecular_energy": -9.07, "internal_energy": -1.64, "cluster_size": 17, "cluster_id": 1, "rank_in_cluster": 2}

>  <energy>  (22) 
-7.28

>  <cluster_rmsd>  (22) 
0.16

>  <rmsd>  (22) 
271.51

>  <cluster>  (22) 
1

$$$$

     RDKit          3D

 45 47  0  0  1  0  0  0  0  0999 V2000
  135.8860   76.9420  222.8400 O   0  0  0  0  0  0  0  0  0  0  0  0
  136.1620   75.7880  223.3030 C   0  0  0  0  0  0  0  0  0  0  0  0
  137.2590   75.1160  222.7190 N   0  0  0  0  0  0  0  0  0  0  0  0
  138.0590   75.6520  221.6520 C   0  0  0  0  0  0  0  0  0  0  0  0
  139.4280   75.0820  221.7530 C   0  0  0  0  0  0  0  0  0  0  0  0
  139.5590   74.0070  222.3680 O   0  0  0  0  0  0  0  0  0  0  0  0
  140.5230   75.7850  221.1460 N   0  0  0  0  0  0  0  0  0  0  0  0
  141.1960   75.3930  219.9280 C   0  0  0  0  0  0  0  0  0  0  0  0
  141.9170   76.5930  219.4170 C   0  0  0  0  0  0  0  0  0  0  0  0
  141.3720   77.7120  220.2740 C   0  0  0  0  0  0  0  0  0  0  0  0
  141.1830   76.9950  221.5840 C   0  0  1  0  0  0  0  0  0  0  0  0
  140.3930   77.7280  222.6020 C   0  0  0  0  0  0  0  0  0  0  0  0
  141.0470   79.0000  223.0390 C   0  0  0  0  0  0  0  0  0  0  0  0
  142.4360   79.0800  223.0370 C   0  0  0  0  0  0  0  0  0  0  0  0
  143.1040   80.2130  223.4250 C   0  0  0  0  0  0  0  0  0  0  0  0
  142.3330   81.2910  223.8240 C   0  0  0  0  0  0  0  0  0  0  0  0
  140.9570   81.2540  223.8410 C   0  0  0  0  0  0  0  0  0  0  0  0
  140.2950   80.1010  223.4460 C   0  0  0  0  0  0  0  0  0  0  0  0
  135.3560   75.2320  224.3840 C   0  0  0  0  0  0  0  0  0  0  0  0
  134.7150   75.9970  225.3290 C   0  0  0  0  0  0  0  0  0  0  0  0
  133.9610   75.3910  226.3360 C   0  0  0  0  0  0  0  0  0  0  0  0
  133.8470   74.0490  226.4010 N   0  0  0  0  0  0  0  0  0  0  0  0
  134.4650   73.2750  225.4850 C   0  0  0  0  0  0  0  0  0  0  0  0
  135.2130   73.8630  224.4860 C   0  0  0  0  0  0  0  0  0  0  0  0
  137.4980   74.1730  223.0840 H   0  0  0  0  0  0  0  0  0  0  0  0
  137.6149   75.3798  220.6831 H   0  0  0  0  0  0  0  0  0  0  0  0
  138.1020   76.7485  221.7289 H   0  0  0  0  0  0  0  0  0  0  0  0
  141.9114   74.5839  220.1364 H   0  0  0  0  0  0  0  0  0  0  0  0
  140.4741   75.0251  219.1841 H   0  0  0  0  0  0  0  0  0  0  0  0
  143.0037   76.4871  219.5504 H   0  0  0  0  0  0  0  0  0  0  0  0
  141.7672   76.7611  218.3403 H   0  0  0  0  0  0  0  0  0  0  0  0
  142.0910   78.5395  220.3651 H   0  0  0  0  0  0  0  0  0  0  0  0
  140.4622   78.1875  219.8789 H   0  0  0  0  0  0  0  0  0  0  0  0
  142.1328   76.8475  222.1189 H   0  0  0  0  0  0  0  0  0  0  0  0
  139.4076   77.9680  222.1761 H   0  0  0  0  0  0  0  0  0  0  0  0
  140.3089   77.0787  223.4859 H   0  0  0  0  0  0  0  0  0  0  0  0
  143.0181   78.2046  222.7132 H   0  0  0  0  0  0  0  0  0  0  0  0
  144.2029   80.2629  223.4194 H   0  0  0  0  0  0  0  0  0  0  0  0
  142.8402   82.2145  224.1402 H   0  0  0  0  0  0  0  0  0  0  0  0
  140.3848   82.1353  224.1665 H   0  0  0  0  0  0  0  0  0  0  0  0
  139.1959   80.0561  223.4537 H   0  0  0  0  0  0  0  0  0  0  0  0
  134.7965   77.0933  225.2918 H   0  0  0  0  0  0  0  0  0  0  0  0
  133.4537   76.0162  227.0856 H   0  0  0  0  0  0  0  0  0  0  0  0
  134.3729   72.1800  225.5345 H   0  0  0  0  0  0  0  0  0  0  0  0
  135.7119   73.2196  223.7463 H   0  0  0  0  0  0  0  0  0  0  0  0
  1  2  2  0
  2  3  1  0
  3  4  1  0
  4  5  1  0
  5  6  2  0
  5  7  1  0
  7  8  1  0
  8  9  1  0
  9 10  1  0
 10 11  1  0
 11 12  1  0
 12 13  1  0
 13 14  2  0
 14 15  1  0
 15 16  2  0
 16 17  1  0
 17 18  2  0
  2 19  1  0
 19 20  2  0
 20 21  1  0
 21 22  2  0
 22 23  1  0
 23 24  2  0
 11  7  1  0
 18 13  1  0
 24 19  1  0
  3 25  1  0
  4 26  1  0
  4 27  1  0
  8 28  1  0
  8 29  1  0
  9 30  1  0
  9 31  1  0
 10 32  1  0
 10 33  1  0
 11 34  1  1
 12 35  1  0
 12 36  1  0
 14 37  1  0
 15 38  1  0
 16 39  1  0
 17 40  1  0
 18 41  1  0
 20 42  1  0
 21 43  1  0
 23 44  1  0
 24 45  1  0
M  END
>  <smiles>  (23) 
O=C(NCC(=O)N1CCCC1Cc1ccccc1)c1ccncc1

>  <score_type>  (23) 
oracle

>  <origin>  (23) 
autodockgpu

>  <m_score__min__energy>  (23) 
-7.2800000000000002

>  <m_primary>  (23) 
energy

>  <meeko>  (23) 
{"free_energy": -7.06, "intermolecular_energy": -8.84, "internal_energy": -1.71, "cluster_size": 3, "cluster_id": 2, "rank_in_cluster": 2}

>  <energy>  (23) 
-7.28

>  <cluster_rmsd>  (23) 
0.17

>  <rmsd>  (23) 
271.5

>  <cluster>  (23) 
1

$$$$

     RDKit          3D

 45 47  0  0  1  0  0  0  0  0999 V2000
  138.6200   77.5360  222.4890 O   0  0  0  0  0  0  0  0  0  0  0  0
  139.8590   77.2750  222.3450 C   0  0  0  0  0  0  0  0  0  0  0  0
  140.1980   75.9280  222.0850 N   0  0  0  0  0  0  0  0  0  0  0  0
  139.2410   74.8610  221.9800 C   0  0  0  0  0  0  0  0  0  0  0  0
  139.9580   73.5660  222.1140 C   0  0  0  0  0  0  0  0  0  0  0  0
  141.1940   73.5760  221.9680 O   0  0  0  0  0  0  0  0  0  0  0  0
  139.2050   72.3770  222.4030 N   0  0  0  0  0  0  0  0  0  0  0  0
  138.0930   71.8820  221.6230 C   0  0  0  0  0  0  0  0  0  0  0  0
  137.9150   70.4440  221.9740 C   0  0  0  0  0  0  0  0  0  0  0  0
  139.1590   70.1290  222.7730 C   0  0  0  0  0  0  0  0  0  0  0  0
  139.3710   71.4360  223.4880 C   0  0  1  0  0  0  0  0  0  0  0  0
  140.6810   71.5850  224.1650 C   0  0  0  0  0  0  0  0  0  0  0  0
  140.6540   71.1300  225.5900 C   0  0  0  0  0  0  0  0  0  0  0  0
  140.1570   69.8640  225.8840 C   0  0  0  0  0  0  0  0  0  0  0  0
  140.1020   69.3800  227.1660 C   0  0  0  0  0  0  0  0  0  0  0  0
  140.5660   70.2110  228.1710 C   0  0  0  0  0  0  0  0  0  0  0  0
  141.0660   71.4690  227.9230 C   0  0  0  0  0  0  0  0  0  0  0  0
  141.1160   71.9450  226.6210 C   0  0  0  0  0  0  0  0  0  0  0  0
  140.8390   78.3490  222.4510 C   0  0  0  0  0  0  0  0  0  0  0  0
  141.2650   79.1020  221.3830 C   0  0  0  0  0  0  0  0  0  0  0  0
  142.2090   80.1150  221.5630 C   0  0  0  0  0  0  0  0  0  0  0  0
  142.7200   80.3730  222.7840 N   0  0  0  0  0  0  0  0  0  0  0  0
  142.3200   79.6490  223.8490 C   0  0  0  0  0  0  0  0  0  0  0  0
  141.3880   78.6460  223.6830 C   0  0  0  0  0  0  0  0  0  0  0  0
  141.2030   75.6970  221.9640 H   0  0  0  0  0  0  0  0  0  0  0  0
  138.4923   74.9546  222.7804 H   0  0  0  0  0  0  0  0  0  0  0  0
  138.7302   74.9088  221.0070 H   0  0  0  0  0  0  0  0  0  0  0  0
  137.1805   72.4455  221.8675 H   0  0  0  0  0  0  0  0  0  0  0  0
  138.2870   72.0005  220.5468 H   0  0  0  0  0  0  0  0  0  0  0  0
  137.0087   70.2946  222.5792 H   0  0  0  0  0  0  0  0  0  0  0  0
  137.7914   69.7963  221.0935 H   0  0  0  0  0  0  0  0  0  0  0  0
  138.9883   69.3036  223.4798 H   0  0  0  0  0  0  0  0  0  0  0  0
  140.0160   69.7947  222.1699 H   0  0  0  0  0  0  0  0  0  0  0  0
  138.6798   71.5649  224.3340 H   0  0  0  0  0  0  0  0  0  0  0  0
  141.4277   70.9888  223.6201 H   0  0  0  0  0  0  0  0  0  0  0  0
  140.9333   72.6557  224.1646 H   0  0  0  0  0  0  0  0  0  0  0  0
  139.7961   69.2302  225.0606 H   0  0  0  0  0  0  0  0  0  0  0  0
  139.7071   68.3771  227.3856 H   0  0  0  0  0  0  0  0  0  0  0  0
  140.5338   69.8513  229.2100 H   0  0  0  0  0  0  0  0  0  0  0  0
  141.4245   72.0945  228.7538 H   0  0  0  0  0  0  0  0  0  0  0  0
  141.5133   72.9480  226.4065 H   0  0  0  0  0  0  0  0  0  0  0  0
  140.8595   78.9053  220.3796 H   0  0  0  0  0  0  0  0  0  0  0  0
  142.5397   80.7096  220.6987 H   0  0  0  0  0  0  0  0  0  0  0  0
  142.7353   79.8575  224.8460 H   0  0  0  0  0  0  0  0  0  0  0  0
  141.0715   78.0634  224.5607 H   0  0  0  0  0  0  0  0  0  0  0  0
  1  2  2  0
  2  3  1  0
  3  4  1  0
  4  5  1  0
  5  6  2  0
  5  7  1  0
  7  8  1  0
  8  9  1  0
  9 10  1  0
 10 11  1  0
 11 12  1  0
 12 13  1  0
 13 14  2  0
 14 15  1  0
 15 16  2  0
 16 17  1  0
 17 18  2  0
  2 19  1  0
 19 20  2  0
 20 21  1  0
 21 22  2  0
 22 23  1  0
 23 24  2  0
 11  7  1  0
 18 13  1  0
 24 19  1  0
  3 25  1  0
  4 26  1  0
  4 27  1  0
  8 28  1  0
  8 29  1  0
  9 30  1  0
  9 31  1  0
 10 32  1  0
 10 33  1  0
 11 34  1  1
 12 35  1  0
 12 36  1  0
 14 37  1  0
 15 38  1  0
 16 39  1  0
 17 40  1  0
 18 41  1  0
 20 42  1  0
 21 43  1  0
 23 44  1  0
 24 45  1  0
M  END
>  <smiles>  (24) 
O=C(NCC(=O)N1CCCC1Cc1ccccc1)c1ccncc1

>  <score_type>  (24) 
oracle

>  <origin>  (24) 
autodockgpu

>  <m_score__min__energy>  (24) 
-7.2800000000000002

>  <m_primary>  (24) 
energy

>  <meeko>  (24) 
{"free_energy": -7.26, "intermolecular_energy": -9.05, "internal_energy": -1.64, "cluster_size": 17, "cluster_id": 1, "rank_in_cluster": 11}

>  <energy>  (24) 
-7.27

>  <cluster_rmsd>  (24) 
0.17

>  <rmsd>  (24) 
271.52

>  <cluster>  (24) 
1

$$$$

     RDKit          3D

 45 47  0  0  1  0  0  0  0  0999 V2000
  138.6350   77.5900  222.4170 O   0  0  0  0  0  0  0  0  0  0  0  0
  139.8770   77.3110  222.3650 C   0  0  0  0  0  0  0  0  0  0  0  0
  140.2140   75.9580  222.1330 N   0  0  0  0  0  0  0  0  0  0  0  0
  139.2520   74.9050  221.9600 C   0  0  0  0  0  0  0  0  0  0  0  0
  139.9500   73.5980  222.0860 C   0  0  0  0  0  0  0  0  0  0  0  0
  141.1880   73.5940  221.9580 O   0  0  0  0  0  0  0  0  0  0  0  0
  139.1770   72.4160  222.3480 N   0  0  0  0  0  0  0  0  0  0  0  0
  138.0700   71.9470  221.5460 C   0  0  0  0  0  0  0  0  0  0  0  0
  137.8680   70.5070  221.8740 C   0  0  0  0  0  0  0  0  0  0  0  0
  139.0960   70.1640  222.6850 C   0  0  0  0  0  0  0  0  0  0  0  0
  139.3160   71.4570  223.4210 C   0  0  1  0  0  0  0  0  0  0  0  0
  140.6190   71.5790  224.1180 C   0  0  0  0  0  0  0  0  0  0  0  0
  140.5580   71.1360  225.5450 C   0  0  0  0  0  0  0  0  0  0  0  0
  139.9620   69.9150  225.8480 C   0  0  0  0  0  0  0  0  0  0  0  0
  139.8710   69.4450  227.1320 C   0  0  0  0  0  0  0  0  0  0  0  0
  140.4020   70.2420  228.1320 C   0  0  0  0  0  0  0  0  0  0  0  0
  141.0000   71.4550  227.8760 C   0  0  0  0  0  0  0  0  0  0  0  0
  141.0850   71.9170  226.5710 C   0  0  0  0  0  0  0  0  0  0  0  0
  140.8630   78.3710  222.5410 C   0  0  0  0  0  0  0  0  0  0  0  0
  141.4350   78.6880  223.7490 C   0  0  0  0  0  0  0  0  0  0  0  0
  142.3730   79.7190  223.8380 C   0  0  0  0  0  0  0  0  0  0  0  0
  142.7340   80.4210  222.7450 N   0  0  0  0  0  0  0  0  0  0  0  0
  142.1870   80.1290  221.5460 C   0  0  0  0  0  0  0  0  0  0  0  0
  141.2600   79.1130  221.4470 C   0  0  0  0  0  0  0  0  0  0  0  0
  141.2220   75.7120  222.0870 H   0  0  0  0  0  0  0  0  0  0  0  0
  138.4727   74.9847  222.7323 H   0  0  0  0  0  0  0  0  0  0  0  0
  138.7816   74.9854  220.9689 H   0  0  0  0  0  0  0  0  0  0  0  0
  137.1617   72.5193  221.7857 H   0  0  0  0  0  0  0  0  0  0  0  0
  138.2808   72.0779  220.4743 H   0  0  0  0  0  0  0  0  0  0  0  0
  136.9515   70.3615  222.4646 H   0  0  0  0  0  0  0  0  0  0  0  0
  137.7479   69.8735  220.9828 H   0  0  0  0  0  0  0  0  0  0  0  0
  138.9044   69.3312  223.3776 H   0  0  0  0  0  0  0  0  0  0  0  0
  139.9566   69.8265  222.0888 H   0  0  0  0  0  0  0  0  0  0  0  0
  138.6152   71.5827  224.2595 H   0  0  0  0  0  0  0  0  0  0  0  0
  141.3593   70.9604  223.5895 H   0  0  0  0  0  0  0  0  0  0  0  0
  140.8979   72.6431  224.1138 H   0  0  0  0  0  0  0  0  0  0  0  0
  139.5502   69.3069  225.0291 H   0  0  0  0  0  0  0  0  0  0  0  0
  139.3975   68.4782  227.3580 H   0  0  0  0  0  0  0  0  0  0  0  0
  140.3436   69.8916  229.1731 H   0  0  0  0  0  0  0  0  0  0  0  0
  141.4085   72.0551  228.7024 H   0  0  0  0  0  0  0  0  0  0  0  0
  141.5606   72.8839  226.3499 H   0  0  0  0  0  0  0  0  0  0  0  0
  141.1526   78.1265  224.6517 H   0  0  0  0  0  0  0  0  0  0  0  0
  142.8229   79.9613  224.8121 H   0  0  0  0  0  0  0  0  0  0  0  0
  142.4795   80.6990  220.6518 H   0  0  0  0  0  0  0  0  0  0  0  0
  140.8224   78.8864  220.4636 H   0  0  0  0  0  0  0  0  0  0  0  0
  1  2  2  0
  2  3  1  0
  3  4  1  0
  4  5  1  0
  5  6  2  0
  5  7  1  0
  7  8  1  0
  8  9  1  0
  9 10  1  0
 10 11  1  0
 11 12  1  0
 12 13  1  0
 13 14  2  0
 14 15  1  0
 15 16  2  0
 16 17  1  0
 17 18  2  0
  2 19  1  0
 19 20  2  0
 20 21  1  0
 21 22  2  0
 22 23  1  0
 23 24  2  0
 11  7  1  0
 18 13  1  0
 24 19  1  0
  3 25  1  0
  4 26  1  0
  4 27  1  0
  8 28  1  0
  8 29  1  0
  9 30  1  0
  9 31  1  0
 10 32  1  0
 10 33  1  0
 11 34  1  1
 12 35  1  0
 12 36  1  0
 14 37  1  0
 15 38  1  0
 16 39  1  0
 17 40  1  0
 18 41  1  0
 20 42  1  0
 21 43  1  0
 23 44  1  0
 24 45  1  0
M  END
>  <smiles>  (25) 
O=C(NCC(=O)N1CCCC1Cc1ccccc1)c1ccncc1

>  <score_type>  (25) 
oracle

>  <origin>  (25) 
autodockgpu

>  <m_score__min__energy>  (25) 
-7.2800000000000002

>  <m_primary>  (25) 
energy

>  <meeko>  (25) 
{"free_energy": -7.28, "intermolecular_energy": -9.07, "internal_energy": -1.64, "cluster_size": 17, "cluster_id": 1, "rank_in_cluster": 3}

>  <energy>  (25) 
-7.27

>  <cluster_rmsd>  (25) 
0.15

>  <rmsd>  (25) 
271.51

>  <cluster>  (25) 
1

$$$$

     RDKit          3D

 45 47  0  0  1  0  0  0  0  0999 V2000
  138.6380   77.5230  222.5060 O   0  0  0  0  0  0  0  0  0  0  0  0
  139.8750   77.2680  222.3360 C   0  0  0  0  0  0  0  0  0  0  0  0
  140.2050   75.9420  221.9780 N   0  0  0  0  0  0  0  0  0  0  0  0
  139.2430   74.8890  221.8020 C   0  0  0  0  0  0  0  0  0  0  0  0
  139.9170   73.5850  222.0390 C   0  0  0  0  0  0  0  0  0  0  0  0
  141.1610   73.5630  221.9860 O   0  0  0  0  0  0  0  0  0  0  0  0
  139.1170   72.4250  222.3150 N   0  0  0  0  0  0  0  0  0  0  0  0
  137.9880   71.9810  221.5280 C   0  0  0  0  0  0  0  0  0  0  0  0
  137.7520   70.5480  221.8660 C   0  0  0  0  0  0  0  0  0  0  0  0
  138.9800   70.1770  222.6670 C   0  0  0  0  0  0  0  0  0  0  0  0
  139.2420   71.4690  223.3930 C   0  0  1  0  0  0  0  0  0  0  0  0
  140.5540   71.5600  224.0750 C   0  0  0  0  0  0  0  0  0  0  0  0
  140.4930   71.1440  225.5110 C   0  0  0  0  0  0  0  0  0  0  0  0
  139.8280   69.9680  225.8440 C   0  0  0  0  0  0  0  0  0  0  0  0
  139.7330   69.5250  227.1380 C   0  0  0  0  0  0  0  0  0  0  0  0
  140.3300   70.3030  228.1150 C   0  0  0  0  0  0  0  0  0  0  0  0
  140.9970   71.4730  227.8280 C   0  0  0  0  0  0  0  0  0  0  0  0
  141.0860   71.9080  226.5140 C   0  0  0  0  0  0  0  0  0  0  0  0
  140.8610   78.3270  222.5130 C   0  0  0  0  0  0  0  0  0  0  0  0
  141.4390   78.6380  223.7200 C   0  0  0  0  0  0  0  0  0  0  0  0
  142.3760   79.6690  223.8100 C   0  0  0  0  0  0  0  0  0  0  0  0
  142.7320   80.3770  222.7200 N   0  0  0  0  0  0  0  0  0  0  0  0
  142.1790   80.0920  221.5220 C   0  0  0  0  0  0  0  0  0  0  0  0
  141.2520   79.0760  221.4210 C   0  0  0  0  0  0  0  0  0  0  0  0
  141.2100   75.7160  221.8350 H   0  0  0  0  0  0  0  0  0  0  0  0
  138.4192   75.0161  222.5198 H   0  0  0  0  0  0  0  0  0  0  0  0
  138.8346   74.9204  220.7811 H   0  0  0  0  0  0  0  0  0  0  0  0
  137.0979   72.5782  221.7753 H   0  0  0  0  0  0  0  0  0  0  0  0
  138.1895   72.1009  220.4533 H   0  0  0  0  0  0  0  0  0  0  0  0
  136.8382   70.4294  222.4667 H   0  0  0  0  0  0  0  0  0  0  0  0
  137.6064   69.9133  220.9795 H   0  0  0  0  0  0  0  0  0  0  0  0
  138.7737   69.3537  223.3668 H   0  0  0  0  0  0  0  0  0  0  0  0
  139.8250   69.8132  222.0641 H   0  0  0  0  0  0  0  0  0  0  0  0
  138.5538   71.6188  224.2379 H   0  0  0  0  0  0  0  0  0  0  0  0
  141.2683   70.9082  223.5506 H   0  0  0  0  0  0  0  0  0  0  0  0
  140.8673   72.6141  224.0494 H   0  0  0  0  0  0  0  0  0  0  0  0
  139.3634   69.3744  225.0429 H   0  0  0  0  0  0  0  0  0  0  0  0
  139.2058   68.5927  227.3887 H   0  0  0  0  0  0  0  0  0  0  0  0
  140.2691   69.9734  229.1627 H   0  0  0  0  0  0  0  0  0  0  0  0
  141.4569   72.0597  228.6368 H   0  0  0  0  0  0  0  0  0  0  0  0
  141.6157   72.8402  226.2680 H   0  0  0  0  0  0  0  0  0  0  0  0
  141.1618   78.0712  224.6210 H   0  0  0  0  0  0  0  0  0  0  0  0
  142.8297   79.9066  224.7835 H   0  0  0  0  0  0  0  0  0  0  0  0
  142.4666   80.6678  220.6300 H   0  0  0  0  0  0  0  0  0  0  0  0
  140.8097   78.8551  220.4384 H   0  0  0  0  0  0  0  0  0  0  0  0
  1  2  2  0
  2  3  1  0
  3  4  1  0
  4  5  1  0
  5  6  2  0
  5  7  1  0
  7  8  1  0
  8  9  1  0
  9 10  1  0
 10 11  1  0
 11 12  1  0
 12 13  1  0
 13 14  2  0
 14 15  1  0
 15 16  2  0
 16 17  1  0
 17 18  2  0
  2 19  1  0
 19 20  2  0
 20 21  1  0
 21 22  2  0
 22 23  1  0
 23 24  2  0
 11  7  1  0
 18 13  1  0
 24 19  1  0
  3 25  1  0
  4 26  1  0
  4 27  1  0
  8 28  1  0
  8 29  1  0
  9 30  1  0
  9 31  1  0
 10 32  1  0
 10 33  1  0
 11 34  1  1
 12 35  1  0
 12 36  1  0
 14 37  1  0
 15 38  1  0
 16 39  1  0
 17 40  1  0
 18 41  1  0
 20 42  1  0
 21 43  1  0
 23 44  1  0
 24 45  1  0
M  END
>  <smiles>  (26) 
O=C(NCC(=O)N1CCCC1Cc1ccccc1)c1ccncc1

>  <score_type>  (26) 
oracle

>  <origin>  (26) 
autodockgpu

>  <m_score__min__energy>  (26) 
-7.2800000000000002

>  <m_primary>  (26) 
energy

>  <meeko>  (26) 
{"free_energy": -7.26, "intermolecular_energy": -9.05, "internal_energy": -1.64, "cluster_size": 17, "cluster_id": 1, "rank_in_cluster": 10}

>  <energy>  (26) 
-7.27

>  <cluster_rmsd>  (26) 
0.18

>  <rmsd>  (26) 
271.49

>  <cluster>  (26) 
1

$$$$

     RDKit          3D

 45 47  0  0  1  0  0  0  0  0999 V2000
  135.9390   76.9160  222.9020 O   0  0  0  0  0  0  0  0  0  0  0  0
  136.2080   75.7440  223.3240 C   0  0  0  0  0  0  0  0  0  0  0  0
  137.3030   75.0880  222.7190 N   0  0  0  0  0  0  0  0  0  0  0  0
  138.1090   75.6570  221.6750 C   0  0  0  0  0  0  0  0  0  0  0  0
  139.4690   75.0620  221.7460 C   0  0  0  0  0  0  0  0  0  0  0  0
  139.5980   74.0000  222.3830 O   0  0  0  0  0  0  0  0  0  0  0  0
  140.5570   75.7260  221.0860 N   0  0  0  0  0  0  0  0  0  0  0  0
  141.2460   75.2390  219.9120 C   0  0  0  0  0  0  0  0  0  0  0  0
  141.9520   76.4020  219.3010 C   0  0  0  0  0  0  0  0  0  0  0  0
  141.3820   77.5830  220.0530 C   0  0  0  0  0  0  0  0  0  0  0  0
  141.1940   76.9810  221.4190 C   0  0  1  0  0  0  0  0  0  0  0  0
  140.3850   77.7880  222.3630 C   0  0  0  0  0  0  0  0  0  0  0  0
  141.1080   79.0000  222.8600 C   0  0  0  0  0  0  0  0  0  0  0  0
  140.3700   80.0750  223.3430 C   0  0  0  0  0  0  0  0  0  0  0  0
  140.9640   81.2180  223.8140 C   0  0  0  0  0  0  0  0  0  0  0  0
  142.3480   81.2610  223.7900 C   0  0  0  0  0  0  0  0  0  0  0  0
  143.1160   80.2190  223.3210 C   0  0  0  0  0  0  0  0  0  0  0  0
  142.5000   79.0700  222.8480 C   0  0  0  0  0  0  0  0  0  0  0  0
  135.3960   75.1550  224.3820 C   0  0  0  0  0  0  0  0  0  0  0  0
  135.1640   73.8060  224.5050 C   0  0  0  0  0  0  0  0  0  0  0  0
  134.3740   73.3170  225.5470 C   0  0  0  0  0  0  0  0  0  0  0  0
  133.8230   74.1540  226.4490 N   0  0  0  0  0  0  0  0  0  0  0  0
  134.0350   75.4830  226.3510 C   0  0  0  0  0  0  0  0  0  0  0  0
  134.8140   75.9770  225.3270 C   0  0  0  0  0  0  0  0  0  0  0  0
  137.5360   74.1310  223.0510 H   0  0  0  0  0  0  0  0  0  0  0  0
  137.6583   75.4348  220.6965 H   0  0  0  0  0  0  0  0  0  0  0  0
  138.1699   76.7481  221.8007 H   0  0  0  0  0  0  0  0  0  0  0  0
  141.9728   74.4637  220.1960 H   0  0  0  0  0  0  0  0  0  0  0  0
  140.5362   74.7944  219.1989 H   0  0  0  0  0  0  0  0  0  0  0  0
  143.0393   76.3265  219.4499 H   0  0  0  0  0  0  0  0  0  0  0  0
  141.8079   76.4721  218.2127 H   0  0  0  0  0  0  0  0  0  0  0  0
  142.0869   78.4272  220.0758 H   0  0  0  0  0  0  0  0  0  0  0  0
  140.4679   78.0067  219.6115 H   0  0  0  0  0  0  0  0  0  0  0  0
  142.1419   76.8965  221.9707 H   0  0  0  0  0  0  0  0  0  0  0  0
  139.4672   78.1122  221.8506 H   0  0  0  0  0  0  0  0  0  0  0  0
  140.1647   77.1542  223.2347 H   0  0  0  0  0  0  0  0  0  0  0  0
  139.2721   80.0063  223.3475 H   0  0  0  0  0  0  0  0  0  0  0  0
  140.3686   82.0616  224.1933 H   0  0  0  0  0  0  0  0  0  0  0  0
  142.8543   82.1644  224.1607 H   0  0  0  0  0  0  0  0  0  0  0  0
  144.2132   80.2975  223.3214 H   0  0  0  0  0  0  0  0  0  0  0  0
  143.0994   78.2287  222.4700 H   0  0  0  0  0  0  0  0  0  0  0  0
  135.6035   73.1073  223.7780 H   0  0  0  0  0  0  0  0  0  0  0  0
  134.1987   72.2345  225.6332 H   0  0  0  0  0  0  0  0  0  0  0  0
  133.5880   76.1692  227.0853 H   0  0  0  0  0  0  0  0  0  0  0  0
  134.9777   77.0627  225.2601 H   0  0  0  0  0  0  0  0  0  0  0  0
  1  2  2  0
  2  3  1  0
  3  4  1  0
  4  5  1  0
  5  6  2  0
  5  7  1  0
  7  8  1  0
  8  9  1  0
  9 10  1  0
 10 11  1  0
 11 12  1  0
 12 13  1  0
 13 14  2  0
 14 15  1  0
 15 16  2  0
 16 17  1  0
 17 18  2  0
  2 19  1  0
 19 20  2  0
 20 21  1  0
 21 22  2  0
 22 23  1  0
 23 24  2  0
 11  7  1  0
 18 13  1  0
 24 19  1  0
  3 25  1  0
  4 26  1  0
  4 27  1  0
  8 28  1  0
  8 29  1  0
  9 30  1  0
  9 31  1  0
 10 32  1  0
 10 33  1  0
 11 34  1  1
 12 35  1  0
 12 36  1  0
 14 37  1  0
 15 38  1  0
 16 39  1  0
 17 40  1  0
 18 41  1  0
 20 42  1  0
 21 43  1  0
 23 44  1  0
 24 45  1  0
M  END
>  <smiles>  (27) 
O=C(NCC(=O)N1CCCC1Cc1ccccc1)c1ccncc1

>  <score_type>  (27) 
oracle

>  <origin>  (27) 
autodockgpu

>  <m_score__min__energy>  (27) 
-7.2800000000000002

>  <m_primary>  (27) 
energy

>  <meeko>  (27) 
{"free_energy": -7.05, "intermolecular_energy": -8.84, "internal_energy": -1.7, "cluster_size": 3, "cluster_id": 2, "rank_in_cluster": 3}

>  <energy>  (27) 
-7.27

>  <cluster_rmsd>  (27) 
0.17

>  <rmsd>  (27) 
271.53

>  <cluster>  (27) 
1

$$$$

     RDKit          3D

 45 47  0  0  1  0  0  0  0  0999 V2000
  138.6320   77.4880  222.6080 O   0  0  0  0  0  0  0  0  0  0  0  0
  139.8600   77.2480  222.3650 C   0  0  0  0  0  0  0  0  0  0  0  0
  140.1910   75.9170  222.0250 N   0  0  0  0  0  0  0  0  0  0  0  0
  139.2380   74.8440  221.9440 C   0  0  0  0  0  0  0  0  0  0  0  0
  139.9600   73.5550  222.1100 C   0  0  0  0  0  0  0  0  0  0  0  0
  141.1990   73.5700  221.9880 O   0  0  0  0  0  0  0  0  0  0  0  0
  139.2080   72.3670  222.4030 N   0  0  0  0  0  0  0  0  0  0  0  0
  138.1160   71.8520  221.6080 C   0  0  0  0  0  0  0  0  0  0  0  0
  137.9400   70.4180  221.9780 C   0  0  0  0  0  0  0  0  0  0  0  0
  139.1680   70.1240  222.8090 C   0  0  0  0  0  0  0  0  0  0  0  0
  139.3570   71.4440  223.5060 C   0  0  1  0  0  0  0  0  0  0  0  0
  140.6510   71.6130  224.2090 C   0  0  0  0  0  0  0  0  0  0  0  0
  140.6240   71.0890  225.6100 C   0  0  0  0  0  0  0  0  0  0  0  0
  141.0770   71.9040  226.6430 C   0  0  0  0  0  0  0  0  0  0  0  0
  141.0810   71.4920  227.9510 C   0  0  0  0  0  0  0  0  0  0  0  0
  140.6120   70.2150  228.2080 C   0  0  0  0  0  0  0  0  0  0  0  0
  140.1560   69.3770  227.2160 C   0  0  0  0  0  0  0  0  0  0  0  0
  140.1570   69.8090  225.8970 C   0  0  0  0  0  0  0  0  0  0  0  0
  140.8360   78.3280  222.4460 C   0  0  0  0  0  0  0  0  0  0  0  0
  141.2420   79.0720  221.3650 C   0  0  0  0  0  0  0  0  0  0  0  0
  142.1830   80.0920  221.5220 C   0  0  0  0  0  0  0  0  0  0  0  0
  142.7100   80.3660  222.7320 N   0  0  0  0  0  0  0  0  0  0  0  0
  142.3280   79.6500  223.8100 C   0  0  0  0  0  0  0  0  0  0  0  0
  141.3990   78.6410  223.6670 C   0  0  0  0  0  0  0  0  0  0  0  0
  141.1870   75.7030  221.8230 H   0  0  0  0  0  0  0  0  0  0  0  0
  138.4877   74.9538  222.7408 H   0  0  0  0  0  0  0  0  0  0  0  0
  138.7285   74.8666  220.9694 H   0  0  0  0  0  0  0  0  0  0  0  0
  137.1949   72.4130  221.8244 H   0  0  0  0  0  0  0  0  0  0  0  0
  138.3319   71.9549  220.5343 H   0  0  0  0  0  0  0  0  0  0  0  0
  137.0216   70.2718  222.5655 H   0  0  0  0  0  0  0  0  0  0  0  0
  137.8403   69.7558  221.1053 H   0  0  0  0  0  0  0  0  0  0  0  0
  138.9866   69.3096  223.5259 H   0  0  0  0  0  0  0  0  0  0  0  0
  140.0398   69.7847  222.2304 H   0  0  0  0  0  0  0  0  0  0  0  0
  138.6468   71.5817  224.3347 H   0  0  0  0  0  0  0  0  0  0  0  0
  141.4286   71.0744  223.6476 H   0  0  0  0  0  0  0  0  0  0  0  0
  140.8592   72.6917  224.2635 H   0  0  0  0  0  0  0  0  0  0  0  0
  141.4442   72.9126  226.4023 H   0  0  0  0  0  0  0  0  0  0  0  0
  141.4404   72.1462  228.7590 H   0  0  0  0  0  0  0  0  0  0  0  0
  140.6035   69.8554  229.2475 H   0  0  0  0  0  0  0  0  0  0  0  0
  139.7925   68.3697  227.4673 H   0  0  0  0  0  0  0  0  0  0  0  0
  139.7952   69.1518  225.0925 H   0  0  0  0  0  0  0  0  0  0  0  0
  140.8234   78.8631  220.3695 H   0  0  0  0  0  0  0  0  0  0  0  0
  142.4981   80.6793  220.6469 H   0  0  0  0  0  0  0  0  0  0  0  0
  142.7560   79.8703  224.7991 H   0  0  0  0  0  0  0  0  0  0  0  0
  141.0966   78.0666  224.5551 H   0  0  0  0  0  0  0  0  0  0  0  0
  1  2  2  0
  2  3  1  0
  3  4  1  0
  4  5  1  0
  5  6  2  0
  5  7  1  0
  7  8  1  0
  8  9  1  0
  9 10  1  0
 10 11  1  0
 11 12  1  0
 12 13  1  0
 13 14  2  0
 14 15  1  0
 15 16  2  0
 16 17  1  0
 17 18  2  0
  2 19  1  0
 19 20  2  0
 20 21  1  0
 21 22  2  0
 22 23  1  0
 23 24  2  0
 11  7  1  0
 18 13  1  0
 24 19  1  0
  3 25  1  0
  4 26  1  0
  4 27  1  0
  8 28  1  0
  8 29  1  0
  9 30  1  0
  9 31  1  0
 10 32  1  0
 10 33  1  0
 11 34  1  1
 12 35  1  0
 12 36  1  0
 14 37  1  0
 15 38  1  0
 16 39  1  0
 17 40  1  0
 18 41  1  0
 20 42  1  0
 21 43  1  0
 23 44  1  0
 24 45  1  0
M  END
>  <smiles>  (28) 
O=C(NCC(=O)N1CCCC1Cc1ccccc1)c1ccncc1

>  <score_type>  (28) 
oracle

>  <origin>  (28) 
autodockgpu

>  <m_score__min__energy>  (28) 
-7.2800000000000002

>  <m_primary>  (28) 
energy

>  <meeko>  (28) 
{"free_energy": -7.26, "intermolecular_energy": -9.05, "internal_energy": -1.63, "cluster_size": 17, "cluster_id": 1, "rank_in_cluster": 9}

>  <energy>  (28) 
-7.26

>  <cluster_rmsd>  (28) 
0.12

>  <rmsd>  (28) 
271.5

>  <cluster>  (28) 
1

$$$$

     RDKit          3D

 45 47  0  0  1  0  0  0  0  0999 V2000
  138.1920   77.4470  222.6640 O   0  0  0  0  0  0  0  0  0  0  0  0
  139.4540   77.3070  222.5530 C   0  0  0  0  0  0  0  0  0  0  0  0
  139.9170   76.0370  222.1390 N   0  0  0  0  0  0  0  0  0  0  0  0
  139.0600   74.9210  221.8480 C   0  0  0  0  0  0  0  0  0  0  0  0
  139.8350   73.6660  222.0330 C   0  0  0  0  0  0  0  0  0  0  0  0
  141.0760   73.7430  221.9690 O   0  0  0  0  0  0  0  0  0  0  0  0
  139.1300   72.4390  222.2760 N   0  0  0  0  0  0  0  0  0  0  0  0
  138.0700   71.9070  221.4500 C   0  0  0  0  0  0  0  0  0  0  0  0
  137.9480   70.4550  221.7700 C   0  0  0  0  0  0  0  0  0  0  0  0
  139.1770   70.1840  222.6070 C   0  0  0  0  0  0  0  0  0  0  0  0
  139.3030   71.4870  223.3500 C   0  0  1  0  0  0  0  0  0  0  0  0
  140.5810   71.6850  224.0750 C   0  0  0  0  0  0  0  0  0  0  0  0
  140.5260   71.2050  225.4910 C   0  0  0  0  0  0  0  0  0  0  0  0
  139.8510   70.0220  225.7770 C   0  0  0  0  0  0  0  0  0  0  0  0
  139.7600   69.5220  227.0500 C   0  0  0  0  0  0  0  0  0  0  0  0
  140.3750   70.2480  228.0560 C   0  0  0  0  0  0  0  0  0  0  0  0
  141.0530   71.4220  227.8160 C   0  0  0  0  0  0  0  0  0  0  0  0
  141.1370   71.9150  226.5220 C   0  0  0  0  0  0  0  0  0  0  0  0
  140.3330   78.4320  222.8470 C   0  0  0  0  0  0  0  0  0  0  0  0
  141.7050   78.3580  222.8100 C   0  0  0  0  0  0  0  0  0  0  0  0
  142.4810   79.4800  223.1050 C   0  0  0  0  0  0  0  0  0  0  0  0
  141.9040   80.6540  223.4320 N   0  0  0  0  0  0  0  0  0  0  0  0
  140.5590   80.7530  223.4760 C   0  0  0  0  0  0  0  0  0  0  0  0
  139.7820   79.6510  223.1860 C   0  0  0  0  0  0  0  0  0  0  0  0
  140.9430   75.9050  222.0420 H   0  0  0  0  0  0  0  0  0  0  0  0
  138.1978   74.9280  222.5311 H   0  0  0  0  0  0  0  0  0  0  0  0
  138.6951   74.9878  220.8124 H   0  0  0  0  0  0  0  0  0  0  0  0
  137.1241   72.4227  221.6722 H   0  0  0  0  0  0  0  0  0  0  0  0
  138.2948   72.0542  220.3833 H   0  0  0  0  0  0  0  0  0  0  0  0
  137.0294   70.2521  222.3401 H   0  0  0  0  0  0  0  0  0  0  0  0
  137.8856   69.8187  220.8749 H   0  0  0  0  0  0  0  0  0  0  0  0
  139.0210   69.3393  223.2941 H   0  0  0  0  0  0  0  0  0  0  0  0
  140.0690   69.9004  222.0291 H   0  0  0  0  0  0  0  0  0  0  0  0
  138.5778   71.5680  224.1731 H   0  0  0  0  0  0  0  0  0  0  0  0
  141.3731   71.1333  223.5476 H   0  0  0  0  0  0  0  0  0  0  0  0
  140.7830   72.7660  224.0999 H   0  0  0  0  0  0  0  0  0  0  0  0
  139.3745   69.4696  224.9537 H   0  0  0  0  0  0  0  0  0  0  0  0
  139.2226   68.5861  227.2629 H   0  0  0  0  0  0  0  0  0  0  0  0
  140.3197   69.8717  229.0882 H   0  0  0  0  0  0  0  0  0  0  0  0
  141.5259   71.9666  228.6465 H   0  0  0  0  0  0  0  0  0  0  0  0
  141.6768   72.8505  226.3137 H   0  0  0  0  0  0  0  0  0  0  0  0
  142.1944   77.4088  222.5463 H   0  0  0  0  0  0  0  0  0  0  0  0
  143.5779   79.4055  223.0703 H   0  0  0  0  0  0  0  0  0  0  0  0
  140.0841   81.7089  223.7421 H   0  0  0  0  0  0  0  0  0  0  0  0
  138.6869   79.7469  223.2263 H   0  0  0  0  0  0  0  0  0  0  0  0
  1  2  2  0
  2  3  1  0
  3  4  1  0
  4  5  1  0
  5  6  2  0
  5  7  1  0
  7  8  1  0
  8  9  1  0
  9 10  1  0
 10 11  1  0
 11 12  1  0
 12 13  1  0
 13 14  2  0
 14 15  1  0
 15 16  2  0
 16 17  1  0
 17 18  2  0
  2 19  1  0
 19 20  2  0
 20 21  1  0
 21 22  2  0
 22 23  1  0
 23 24  2  0
 11  7  1  0
 18 13  1  0
 24 19  1  0
  3 25  1  0
  4 26  1  0
  4 27  1  0
  8 28  1  0
  8 29  1  0
  9 30  1  0
  9 31  1  0
 10 32  1  0
 10 33  1  0
 11 34  1  1
 12 35  1  0
 12 36  1  0
 14 37  1  0
 15 38  1  0
 16 39  1  0
 17 40  1  0
 18 41  1  0
 20 42  1  0
 21 43  1  0
 23 44  1  0
 24 45  1  0
M  END
>  <smiles>  (29) 
O=C(NCC(=O)N1CCCC1Cc1ccccc1)c1ccncc1

>  <score_type>  (29) 
oracle

>  <origin>  (29) 
autodockgpu

>  <m_score__min__energy>  (29) 
-7.2800000000000002

>  <m_primary>  (29) 
energy

>  <meeko>  (29) 
{"free_energy": -7.11, "intermolecular_energy": -8.9, "internal_energy": -1.64, "cluster_size": 17, "cluster_id": 1, "rank_in_cluster": 17}

>  <energy>  (29) 
-7.26

>  <cluster_rmsd>  (29) 
0.09

>  <rmsd>  (29) 
271.52

>  <cluster>  (29) 
1

$$$$

     RDKit          3D

 45 47  0  0  1  0  0  0  0  0999 V2000
  138.6050   77.5190  222.6260 O   0  0  0  0  0  0  0  0  0  0  0  0
  139.8300   77.2790  222.3710 C   0  0  0  0  0  0  0  0  0  0  0  0
  140.1560   75.9510  222.0150 N   0  0  0  0  0  0  0  0  0  0  0  0
  139.2010   74.8800  221.9310 C   0  0  0  0  0  0  0  0  0  0  0  0
  139.9220   73.5880  222.0700 C   0  0  0  0  0  0  0  0  0  0  0  0
  141.1630   73.6090  221.9660 O   0  0  0  0  0  0  0  0  0  0  0  0
  139.1680   72.3910  222.3160 N   0  0  0  0  0  0  0  0  0  0  0  0
  138.0680   71.9150  221.5090 C   0  0  0  0  0  0  0  0  0  0  0  0
  137.8890   70.4670  221.8170 C   0  0  0  0  0  0  0  0  0  0  0  0
  139.1230   70.1330  222.6240 C   0  0  0  0  0  0  0  0  0  0  0  0
  139.3230   71.4200  223.3770 C   0  0  1  0  0  0  0  0  0  0  0  0
  140.6240   71.5530  224.0750 C   0  0  0  0  0  0  0  0  0  0  0  0
  140.5720   71.0830  225.4940 C   0  0  0  0  0  0  0  0  0  0  0  0
  141.0810   71.9040  226.4960 C   0  0  0  0  0  0  0  0  0  0  0  0
  141.0670   71.5390  227.8170 C   0  0  0  0  0  0  0  0  0  0  0  0
  140.5200   70.3040  228.1220 C   0  0  0  0  0  0  0  0  0  0  0  0
  140.0070   69.4610  227.1620 C   0  0  0  0  0  0  0  0  0  0  0  0
  140.0280   69.8450  225.8290 C   0  0  0  0  0  0  0  0  0  0  0  0
  140.8090   78.3560  222.4550 C   0  0  0  0  0  0  0  0  0  0  0  0
  141.2140   79.1050  221.3760 C   0  0  0  0  0  0  0  0  0  0  0  0
  142.1580   80.1220  221.5360 C   0  0  0  0  0  0  0  0  0  0  0  0
  142.6890   80.3880  222.7460 N   0  0  0  0  0  0  0  0  0  0  0  0
  142.3080   79.6680  223.8220 C   0  0  0  0  0  0  0  0  0  0  0  0
  141.3760   78.6610  223.6760 C   0  0  0  0  0  0  0  0  0  0  0  0
  141.1500   75.7370  221.8030 H   0  0  0  0  0  0  0  0  0  0  0  0
  138.4607   74.9797  222.7385 H   0  0  0  0  0  0  0  0  0  0  0  0
  138.6802   74.9168  220.9628 H   0  0  0  0  0  0  0  0  0  0  0  0
  137.1509   72.4693  221.7575 H   0  0  0  0  0  0  0  0  0  0  0  0
  138.2758   72.0637  220.4391 H   0  0  0  0  0  0  0  0  0  0  0  0
  136.9749   70.2985  222.4053 H   0  0  0  0  0  0  0  0  0  0  0  0
  137.7791   69.8439  220.9172 H   0  0  0  0  0  0  0  0  0  0  0  0
  138.9447   69.2884  223.3058 H   0  0  0  0  0  0  0  0  0  0  0  0
  139.9887   69.8170  222.0234 H   0  0  0  0  0  0  0  0  0  0  0  0
  138.6209   71.5241  224.2174 H   0  0  0  0  0  0  0  0  0  0  0  0
  141.3749   70.9576  223.5350 H   0  0  0  0  0  0  0  0  0  0  0  0
  140.8838   72.6218  224.0898 H   0  0  0  0  0  0  0  0  0  0  0  0
  141.5089   72.8786  226.2184 H   0  0  0  0  0  0  0  0  0  0  0  0
  141.4720   72.1974  228.5996 H   0  0  0  0  0  0  0  0  0  0  0  0
  140.4943   69.9835  229.1740 H   0  0  0  0  0  0  0  0  0  0  0  0
  139.5827   68.4880  227.4504 H   0  0  0  0  0  0  0  0  0  0  0  0
  139.6220   69.1832  225.0498 H   0  0  0  0  0  0  0  0  0  0  0  0
  140.7922   78.9023  220.3805 H   0  0  0  0  0  0  0  0  0  0  0  0
  142.4721   80.7134  220.6633 H   0  0  0  0  0  0  0  0  0  0  0  0
  142.7386   79.8830  224.8111 H   0  0  0  0  0  0  0  0  0  0  0  0
  141.0750   78.0823  224.5617 H   0  0  0  0  0  0  0  0  0  0  0  0
  1  2  2  0
  2  3  1  0
  3  4  1  0
  4  5  1  0
  5  6  2  0
  5  7  1  0
  7  8  1  0
  8  9  1  0
  9 10  1  0
 10 11  1  0
 11 12  1  0
 12 13  1  0
 13 14  2  0
 14 15  1  0
 15 16  2  0
 16 17  1  0
 17 18  2  0
  2 19  1  0
 19 20  2  0
 20 21  1  0
 21 22  2  0
 22 23  1  0
 23 24  2  0
 11  7  1  0
 18 13  1  0
 24 19  1  0
  3 25  1  0
  4 26  1  0
  4 27  1  0
  8 28  1  0
  8 29  1  0
  9 30  1  0
  9 31  1  0
 10 32  1  0
 10 33  1  0
 11 34  1  1
 12 35  1  0
 12 36  1  0
 14 37  1  0
 15 38  1  0
 16 39  1  0
 17 40  1  0
 18 41  1  0
 20 42  1  0
 21 43  1  0
 23 44  1  0
 24 45  1  0
M  END
>  <smiles>  (30) 
O=C(NCC(=O)N1CCCC1Cc1ccccc1)c1ccncc1

>  <score_type>  (30) 
oracle

>  <origin>  (30) 
autodockgpu

>  <m_score__min__energy>  (30) 
-7.2800000000000002

>  <m_primary>  (30) 
energy

>  <meeko>  (30) 
{"free_energy": -7.25, "intermolecular_energy": -9.04, "internal_energy": -1.65, "cluster_size": 17, "cluster_id": 1, "rank_in_cluster": 14}

>  <energy>  (30) 
-7.26

>  <cluster_rmsd>  (30) 
0.21

>  <rmsd>  (30) 
271.44

>  <cluster>  (30) 
1

$$$$

     RDKit          3D

 45 47  0  0  1  0  0  0  0  0999 V2000
  138.6170   77.5360  222.5150 O   0  0  0  0  0  0  0  0  0  0  0  0
  139.8540   77.2780  222.3520 C   0  0  0  0  0  0  0  0  0  0  0  0
  140.1920   75.9340  222.0790 N   0  0  0  0  0  0  0  0  0  0  0  0
  139.2360   74.8650  221.9820 C   0  0  0  0  0  0  0  0  0  0  0  0
  139.9560   73.5710  222.1050 C   0  0  0  0  0  0  0  0  0  0  0  0
  141.1940   73.5870  221.9710 O   0  0  0  0  0  0  0  0  0  0  0  0
  139.2050   72.3760  222.3710 N   0  0  0  0  0  0  0  0  0  0  0  0
  138.1020   71.8870  221.5730 C   0  0  0  0  0  0  0  0  0  0  0  0
  137.9260   70.4440  221.9030 C   0  0  0  0  0  0  0  0  0  0  0  0
  139.1630   70.1230  222.7110 C   0  0  0  0  0  0  0  0  0  0  0  0
  139.3630   71.4210  223.4450 C   0  0  1  0  0  0  0  0  0  0  0  0
  140.6660   71.5660  224.1370 C   0  0  0  0  0  0  0  0  0  0  0  0
  140.6140   71.1350  225.5690 C   0  0  0  0  0  0  0  0  0  0  0  0
  140.0290   69.9120  225.8840 C   0  0  0  0  0  0  0  0  0  0  0  0
  139.9470   69.4520  227.1730 C   0  0  0  0  0  0  0  0  0  0  0  0
  140.4750   70.2620  228.1640 C   0  0  0  0  0  0  0  0  0  0  0  0
  141.0610   71.4780  227.8950 C   0  0  0  0  0  0  0  0  0  0  0  0
  141.1380   71.9290  226.5860 C   0  0  0  0  0  0  0  0  0  0  0  0
  140.8340   78.3540  222.4500 C   0  0  0  0  0  0  0  0  0  0  0  0
  141.2580   79.1010  221.3770 C   0  0  0  0  0  0  0  0  0  0  0  0
  142.2010   80.1150  221.5500 C   0  0  0  0  0  0  0  0  0  0  0  0
  142.7140   80.3810  222.7680 N   0  0  0  0  0  0  0  0  0  0  0  0
  142.3150   79.6630  223.8390 C   0  0  0  0  0  0  0  0  0  0  0  0
  141.3840   78.6580  223.6790 C   0  0  0  0  0  0  0  0  0  0  0  0
  141.1960   75.7060  221.9430 H   0  0  0  0  0  0  0  0  0  0  0  0
  138.4960   74.9554  222.7908 H   0  0  0  0  0  0  0  0  0  0  0  0
  138.7150   74.9141  221.0145 H   0  0  0  0  0  0  0  0  0  0  0  0
  137.1850   72.4439  221.8158 H   0  0  0  0  0  0  0  0  0  0  0  0
  138.3062   72.0205  220.5004 H   0  0  0  0  0  0  0  0  0  0  0  0
  137.0140   70.2832  222.4966 H   0  0  0  0  0  0  0  0  0  0  0  0
  137.8142   69.8076  221.0128 H   0  0  0  0  0  0  0  0  0  0  0  0
  138.9880   69.2879  223.4052 H   0  0  0  0  0  0  0  0  0  0  0  0
  140.0274   69.7996  222.1125 H   0  0  0  0  0  0  0  0  0  0  0  0
  138.6626   71.5359  224.2854 H   0  0  0  0  0  0  0  0  0  0  0  0
  141.4127   70.9520  223.6122 H   0  0  0  0  0  0  0  0  0  0  0  0
  140.9315   72.6334  224.1222 H   0  0  0  0  0  0  0  0  0  0  0  0
  139.6188   69.2939  225.0718 H   0  0  0  0  0  0  0  0  0  0  0  0
  139.4827   68.4832  227.4092 H   0  0  0  0  0  0  0  0  0  0  0  0
  140.4241   69.9200  229.2082 H   0  0  0  0  0  0  0  0  0  0  0  0
  141.4664   72.0893  228.7147 H   0  0  0  0  0  0  0  0  0  0  0  0
  141.6051   72.8977  226.3548 H   0  0  0  0  0  0  0  0  0  0  0  0
  140.8513   78.8982  220.3753 H   0  0  0  0  0  0  0  0  0  0  0  0
  142.5299   80.7047  220.6816 H   0  0  0  0  0  0  0  0  0  0  0  0
  142.7303   79.8783  224.8346 H   0  0  0  0  0  0  0  0  0  0  0  0
  141.0693   78.0795  224.5601 H   0  0  0  0  0  0  0  0  0  0  0  0
  1  2  2  0
  2  3  1  0
  3  4  1  0
  4  5  1  0
  5  6  2  0
  5  7  1  0
  7  8  1  0
  8  9  1  0
  9 10  1  0
 10 11  1  0
 11 12  1  0
 12 13  1  0
 13 14  2  0
 14 15  1  0
 15 16  2  0
 16 17  1  0
 17 18  2  0
  2 19  1  0
 19 20  2  0
 20 21  1  0
 21 22  2  0
 22 23  1  0
 23 24  2  0
 11  7  1  0
 18 13  1  0
 24 19  1  0
  3 25  1  0
  4 26  1  0
  4 27  1  0
  8 28  1  0
  8 29  1  0
  9 30  1  0
  9 31  1  0
 10 32  1  0
 10 33  1  0
 11 34  1  1
 12 35  1  0
 12 36  1  0
 14 37  1  0
 15 38  1  0
 16 39  1  0
 17 40  1  0
 18 41  1  0
 20 42  1  0
 21 43  1  0
 23 44  1  0
 24 45  1  0
M  END
>  <smiles>  (31) 
O=C(NCC(=O)N1CCCC1Cc1ccccc1)c1ccncc1

>  <score_type>  (31) 
oracle

>  <origin>  (31) 
autodockgpu

>  <m_score__min__energy>  (31) 
-7.2800000000000002

>  <m_primary>  (31) 
energy

>  <meeko>  (31) 
{"free_energy": -7.26, "intermolecular_energy": -9.05, "internal_energy": -1.65, "cluster_size": 17, "cluster_id": 1, "rank_in_cluster": 13}

>  <energy>  (31) 
-7.26

>  <cluster_rmsd>  (31) 
0.1

>  <rmsd>  (31) 
271.52

>  <cluster>  (31) 
1

$$$$

     RDKit          3D

 45 47  0  0  1  0  0  0  0  0999 V2000
  138.6590   77.5620  222.6700 O   0  0  0  0  0  0  0  0  0  0  0  0
  139.8890   77.3110  222.4530 C   0  0  0  0  0  0  0  0  0  0  0  0
  140.2110   75.9840  222.0910 N   0  0  0  0  0  0  0  0  0  0  0  0
  139.2470   74.9260  221.9620 C   0  0  0  0  0  0  0  0  0  0  0  0
  139.9530   73.6230  222.0780 C   0  0  0  0  0  0  0  0  0  0  0  0
  141.1940   73.6300  221.9710 O   0  0  0  0  0  0  0  0  0  0  0  0
  139.1860   72.4310  222.3050 N   0  0  0  0  0  0  0  0  0  0  0  0
  138.0870   71.9740  221.4850 C   0  0  0  0  0  0  0  0  0  0  0  0
  137.8920   70.5250  221.7770 C   0  0  0  0  0  0  0  0  0  0  0  0
  139.1160   70.1700  222.5900 C   0  0  0  0  0  0  0  0  0  0  0  0
  139.3220   71.4480  223.3580 C   0  0  1  0  0  0  0  0  0  0  0  0
  140.6180   71.5610  224.0680 C   0  0  0  0  0  0  0  0  0  0  0  0
  140.5450   71.0990  225.4880 C   0  0  0  0  0  0  0  0  0  0  0  0
  141.1190   71.8830  226.4840 C   0  0  0  0  0  0  0  0  0  0  0  0
  141.0890   71.5230  227.8060 C   0  0  0  0  0  0  0  0  0  0  0  0
  140.4590   70.3310  228.1190 C   0  0  0  0  0  0  0  0  0  0  0  0
  139.8780   69.5250  227.1650 C   0  0  0  0  0  0  0  0  0  0  0  0
  139.9160   69.9040  225.8310 C   0  0  0  0  0  0  0  0  0  0  0  0
  140.8760   78.3760  222.5830 C   0  0  0  0  0  0  0  0  0  0  0  0
  141.4740   78.7220  223.7710 C   0  0  0  0  0  0  0  0  0  0  0  0
  142.4110   79.7550  223.8160 C   0  0  0  0  0  0  0  0  0  0  0  0
  142.7480   80.4320  222.7000 N   0  0  0  0  0  0  0  0  0  0  0  0
  142.1770   80.1120  221.5210 C   0  0  0  0  0  0  0  0  0  0  0  0
  141.2490   79.0930  221.4640 C   0  0  0  0  0  0  0  0  0  0  0  0
  141.2090   75.7610  221.9100 H   0  0  0  0  0  0  0  0  0  0  0  0
  138.4941   75.0116  222.7594 H   0  0  0  0  0  0  0  0  0  0  0  0
  138.7430   74.9943  220.9867 H   0  0  0  0  0  0  0  0  0  0  0  0
  137.1735   72.5346  221.7325 H   0  0  0  0  0  0  0  0  0  0  0  0
  138.3038   72.1317  220.4182 H   0  0  0  0  0  0  0  0  0  0  0  0
  136.9717   70.3595  222.3564 H   0  0  0  0  0  0  0  0  0  0  0  0
  137.7835   69.9124  220.8698 H   0  0  0  0  0  0  0  0  0  0  0  0
  138.9239   69.3202  223.2615 H   0  0  0  0  0  0  0  0  0  0  0  0
  139.9834   69.8513  221.9933 H   0  0  0  0  0  0  0  0  0  0  0  0
  138.6137   71.5509  224.1933 H   0  0  0  0  0  0  0  0  0  0  0  0
  141.3632   70.9498  223.5378 H   0  0  0  0  0  0  0  0  0  0  0  0
  140.8960   72.6252  224.0807 H   0  0  0  0  0  0  0  0  0  0  0  0
  141.6137   72.8237  226.2006 H   0  0  0  0  0  0  0  0  0  0  0  0
  141.5452   72.1532  228.5836 H   0  0  0  0  0  0  0  0  0  0  0  0
  140.4208   70.0146  229.1718 H   0  0  0  0  0  0  0  0  0  0  0  0
  139.3866   68.5859  227.4593 H   0  0  0  0  0  0  0  0  0  0  0  0
  139.4571   69.2715  225.0568 H   0  0  0  0  0  0  0  0  0  0  0  0
  141.2123   78.1811  224.6924 H   0  0  0  0  0  0  0  0  0  0  0  0
  142.8808   80.0204  224.7746 H   0  0  0  0  0  0  0  0  0  0  0  0
  142.4502   80.6615  220.6081 H   0  0  0  0  0  0  0  0  0  0  0  0
  140.7913   78.8437  220.4953 H   0  0  0  0  0  0  0  0  0  0  0  0
  1  2  2  0
  2  3  1  0
  3  4  1  0
  4  5  1  0
  5  6  2  0
  5  7  1  0
  7  8  1  0
  8  9  1  0
  9 10  1  0
 10 11  1  0
 11 12  1  0
 12 13  1  0
 13 14  2  0
 14 15  1  0
 15 16  2  0
 16 17  1  0
 17 18  2  0
  2 19  1  0
 19 20  2  0
 20 21  1  0
 21 22  2  0
 22 23  1  0
 23 24  2  0
 11  7  1  0
 18 13  1  0
 24 19  1  0
  3 25  1  0
  4 26  1  0
  4 27  1  0
  8 28  1  0
  8 29  1  0
  9 30  1  0
  9 31  1  0
 10 32  1  0
 10 33  1  0
 11 34  1  1
 12 35  1  0
 12 36  1  0
 14 37  1  0
 15 38  1  0
 16 39  1  0
 17 40  1  0
 18 41  1  0
 20 42  1  0
 21 43  1  0
 23 44  1  0
 24 45  1  0
M  END
>  <smiles>  (32) 
O=C(NCC(=O)N1CCCC1Cc1ccccc1)c1ccncc1

>  <score_type>  (32) 
oracle

>  <origin>  (32) 
autodockgpu

>  <m_score__min__energy>  (32) 
-7.2800000000000002

>  <m_primary>  (32) 
energy

>  <meeko>  (32) 
{"free_energy": -7.27, "intermolecular_energy": -9.06, "internal_energy": -1.65, "cluster_size": 17, "cluster_id": 1, "rank_in_cluster": 6}

>  <energy>  (32) 
-7.26

>  <cluster_rmsd>  (32) 
0.15

>  <rmsd>  (32) 
271.52

>  <cluster>  (32) 
1

$$$$

     RDKit          3D

 45 47  0  0  1  0  0  0  0  0999 V2000
  138.6480   77.5920  222.4240 O   0  0  0  0  0  0  0  0  0  0  0  0
  139.8890   77.3110  222.3720 C   0  0  0  0  0  0  0  0  0  0  0  0
  140.2240   75.9580  222.1420 N   0  0  0  0  0  0  0  0  0  0  0  0
  139.2610   74.9060  221.9710 C   0  0  0  0  0  0  0  0  0  0  0  0
  139.9570   73.5980  222.0970 C   0  0  0  0  0  0  0  0  0  0  0  0
  141.1960   73.5930  221.9720 O   0  0  0  0  0  0  0  0  0  0  0  0
  139.1840   72.4170  222.3560 N   0  0  0  0  0  0  0  0  0  0  0  0
  138.0640   71.9600  221.5640 C   0  0  0  0  0  0  0  0  0  0  0  0
  137.8610   70.5170  221.8780 C   0  0  0  0  0  0  0  0  0  0  0  0
  139.0980   70.1610  222.6700 C   0  0  0  0  0  0  0  0  0  0  0  0
  139.3320   71.4460  223.4170 C   0  0  1  0  0  0  0  0  0  0  0  0
  140.6440   71.5550  224.0990 C   0  0  0  0  0  0  0  0  0  0  0  0
  140.5940   71.1140  225.5280 C   0  0  0  0  0  0  0  0  0  0  0  0
  139.9960   69.8970  225.8380 C   0  0  0  0  0  0  0  0  0  0  0  0
  139.9160   69.4280  227.1240 C   0  0  0  0  0  0  0  0  0  0  0  0
  140.4590   70.2250  228.1170 C   0  0  0  0  0  0  0  0  0  0  0  0
  141.0590   71.4350  227.8540 C   0  0  0  0  0  0  0  0  0  0  0  0
  141.1340   71.8950  226.5480 C   0  0  0  0  0  0  0  0  0  0  0  0
  140.8770   78.3700  222.5450 C   0  0  0  0  0  0  0  0  0  0  0  0
  141.4690   78.6720  223.7470 C   0  0  0  0  0  0  0  0  0  0  0  0
  142.4070   79.7030  223.8330 C   0  0  0  0  0  0  0  0  0  0  0  0
  142.7480   80.4200  222.7440 N   0  0  0  0  0  0  0  0  0  0  0  0
  142.1810   80.1440  221.5510 C   0  0  0  0  0  0  0  0  0  0  0  0
  141.2540   79.1280  221.4540 C   0  0  0  0  0  0  0  0  0  0  0  0
  141.2320   75.7110  222.0950 H   0  0  0  0  0  0  0  0  0  0  0  0
  138.4827   74.9872  222.7441 H   0  0  0  0  0  0  0  0  0  0  0  0
  138.7900   74.9862  220.9802 H   0  0  0  0  0  0  0  0  0  0  0  0
  137.1611   72.5325  221.8227 H   0  0  0  0  0  0  0  0  0  0  0  0
  138.2610   72.1020  220.4911 H   0  0  0  0  0  0  0  0  0  0  0  0
  136.9513   70.3677  222.4782 H   0  0  0  0  0  0  0  0  0  0  0  0
  137.7277   69.8940  220.9813 H   0  0  0  0  0  0  0  0  0  0  0  0
  138.9120   69.3216  223.3562 H   0  0  0  0  0  0  0  0  0  0  0  0
  139.9498   69.8267  222.0596 H   0  0  0  0  0  0  0  0  0  0  0  0
  138.6417   71.5659  224.2650 H   0  0  0  0  0  0  0  0  0  0  0  0
  141.3717   70.9279  223.5631 H   0  0  0  0  0  0  0  0  0  0  0  0
  140.9343   72.6160  224.0902 H   0  0  0  0  0  0  0  0  0  0  0  0
  139.5729   69.2902  225.0239 H   0  0  0  0  0  0  0  0  0  0  0  0
  139.4421   68.4628  227.3559 H   0  0  0  0  0  0  0  0  0  0  0  0
  140.4088   69.8767  229.1592 H   0  0  0  0  0  0  0  0  0  0  0  0
  141.4772   72.0346  228.6759 H   0  0  0  0  0  0  0  0  0  0  0  0
  141.6115   72.8596  226.3211 H   0  0  0  0  0  0  0  0  0  0  0  0
  141.2027   78.0985  224.6471 H   0  0  0  0  0  0  0  0  0  0  0  0
  142.8736   79.9329  224.8022 H   0  0  0  0  0  0  0  0  0  0  0  0
  142.4571   80.7269  220.6600 H   0  0  0  0  0  0  0  0  0  0  0  0
  140.7997   78.9142  220.4753 H   0  0  0  0  0  0  0  0  0  0  0  0
  1  2  2  0
  2  3  1  0
  3  4  1  0
  4  5  1  0
  5  6  2  0
  5  7  1  0
  7  8  1  0
  8  9  1  0
  9 10  1  0
 10 11  1  0
 11 12  1  0
 12 13  1  0
 13 14  2  0
 14 15  1  0
 15 16  2  0
 16 17  1  0
 17 18  2  0
  2 19  1  0
 19 20  2  0
 20 21  1  0
 21 22  2  0
 22 23  1  0
 23 24  2  0
 11  7  1  0
 18 13  1  0
 24 19  1  0
  3 25  1  0
  4 26  1  0
  4 27  1  0
  8 28  1  0
  8 29  1  0
  9 30  1  0
  9 31  1  0
 10 32  1  0
 10 33  1  0
 11 34  1  1
 12 35  1  0
 12 36  1  0
 14 37  1  0
 15 38  1  0
 16 39  1  0
 17 40  1  0
 18 41  1  0
 20 42  1  0
 21 43  1  0
 23 44  1  0
 24 45  1  0
M  END
>  <smiles>  (33) 
O=C(NCC(=O)N1CCCC1Cc1ccccc1)c1ccncc1

>  <score_type>  (33) 
oracle

>  <origin>  (33) 
autodockgpu

>  <m_score__min__energy>  (33) 
-7.2800000000000002

>  <m_primary>  (33) 
energy

>  <meeko>  (33) 
{"free_energy": -7.27, "intermolecular_energy": -9.06, "internal_energy": -1.64, "cluster_size": 17, "cluster_id": 1, "rank_in_cluster": 5}

>  <energy>  (33) 
-7.26

>  <cluster_rmsd>  (33) 
0.14

>  <rmsd>  (33) 
271.5

>  <cluster>  (33) 
1

$$$$

     RDKit          3D

 45 47  0  0  1  0  0  0  0  0999 V2000
  138.6080   77.4380  222.6260 O   0  0  0  0  0  0  0  0  0  0  0  0
  139.8270   77.2010  222.3430 C   0  0  0  0  0  0  0  0  0  0  0  0
  140.1460   75.8760  221.9700 N   0  0  0  0  0  0  0  0  0  0  0  0
  139.1900   74.8060  221.8970 C   0  0  0  0  0  0  0  0  0  0  0  0
  139.9060   73.5160  222.0790 C   0  0  0  0  0  0  0  0  0  0  0  0
  141.1460   73.5270  221.9690 O   0  0  0  0  0  0  0  0  0  0  0  0
  139.1480   72.3310  222.3690 N   0  0  0  0  0  0  0  0  0  0  0  0
  138.0400   71.8340  221.5860 C   0  0  0  0  0  0  0  0  0  0  0  0
  137.8560   70.3980  221.9440 C   0  0  0  0  0  0  0  0  0  0  0  0
  139.0940   70.0850  222.7530 C   0  0  0  0  0  0  0  0  0  0  0  0
  139.3050   71.3960  223.4610 C   0  0  1  0  0  0  0  0  0  0  0  0
  140.6110   71.5460  224.1460 C   0  0  0  0  0  0  0  0  0  0  0  0
  140.5660   71.1260  225.5820 C   0  0  0  0  0  0  0  0  0  0  0  0
  140.0100   69.8930  225.9060 C   0  0  0  0  0  0  0  0  0  0  0  0
  139.9360   69.4420  227.1990 C   0  0  0  0  0  0  0  0  0  0  0  0
  140.4410   70.2730  228.1840 C   0  0  0  0  0  0  0  0  0  0  0  0
  140.9980   71.5010  227.9060 C   0  0  0  0  0  0  0  0  0  0  0  0
  141.0670   71.9430  226.5930 C   0  0  0  0  0  0  0  0  0  0  0  0
  140.8070   78.2790  222.4150 C   0  0  0  0  0  0  0  0  0  0  0  0
  141.2540   78.9770  221.3200 C   0  0  0  0  0  0  0  0  0  0  0  0
  142.1960   79.9970  221.4690 C   0  0  0  0  0  0  0  0  0  0  0  0
  142.6830   80.3160  222.6850 N   0  0  0  0  0  0  0  0  0  0  0  0
  142.2600   79.6450  223.7770 C   0  0  0  0  0  0  0  0  0  0  0  0
  141.3300   78.6360  223.6420 C   0  0  0  0  0  0  0  0  0  0  0  0
  141.1350   75.6650  221.7350 H   0  0  0  0  0  0  0  0  0  0  0  0
  138.4373   74.9270  222.6900 H   0  0  0  0  0  0  0  0  0  0  0  0
  138.6844   74.8202  220.9202 H   0  0  0  0  0  0  0  0  0  0  0  0
  137.1275   72.4011  221.8219 H   0  0  0  0  0  0  0  0  0  0  0  0
  138.2409   71.9456  220.5103 H   0  0  0  0  0  0  0  0  0  0  0  0
  136.9454   70.2542  222.5440 H   0  0  0  0  0  0  0  0  0  0  0  0
  137.7365   69.7455  221.0665 H   0  0  0  0  0  0  0  0  0  0  0  0
  138.9166   69.2646  223.4640 H   0  0  0  0  0  0  0  0  0  0  0  0
  139.9540   69.7447  222.1575 H   0  0  0  0  0  0  0  0  0  0  0  0
  138.6088   71.5320  224.3017 H   0  0  0  0  0  0  0  0  0  0  0  0
  141.3552   70.9279  223.6225 H   0  0  0  0  0  0  0  0  0  0  0  0
  140.8763   72.6133  224.1219 H   0  0  0  0  0  0  0  0  0  0  0  0
  139.6165   69.2584  225.0982 H   0  0  0  0  0  0  0  0  0  0  0  0
  139.4952   68.4640  227.4423 H   0  0  0  0  0  0  0  0  0  0  0  0
  140.3955   69.9389  229.2310 H   0  0  0  0  0  0  0  0  0  0  0  0
  141.3866   72.1288  228.7214 H   0  0  0  0  0  0  0  0  0  0  0  0
  141.5095   72.9214  226.3543 H   0  0  0  0  0  0  0  0  0  0  0  0
  140.8678   78.7312  220.3198 H   0  0  0  0  0  0  0  0  0  0  0  0
  142.5452   80.5473  220.5828 H   0  0  0  0  0  0  0  0  0  0  0  0
  142.6556   79.9020  224.7707 H   0  0  0  0  0  0  0  0  0  0  0  0
  140.9939   78.0981  224.5407 H   0  0  0  0  0  0  0  0  0  0  0  0
  1  2  2  0
  2  3  1  0
  3  4  1  0
  4  5  1  0
  5  6  2  0
  5  7  1  0
  7  8  1  0
  8  9  1  0
  9 10  1  0
 10 11  1  0
 11 12  1  0
 12 13  1  0
 13 14  2  0
 14 15  1  0
 15 16  2  0
 16 17  1  0
 17 18  2  0
  2 19  1  0
 19 20  2  0
 20 21  1  0
 21 22  2  0
 22 23  1  0
 23 24  2  0
 11  7  1  0
 18 13  1  0
 24 19  1  0
  3 25  1  0
  4 26  1  0
  4 27  1  0
  8 28  1  0
  8 29  1  0
  9 30  1  0
  9 31  1  0
 10 32  1  0
 10 33  1  0
 11 34  1  1
 12 35  1  0
 12 36  1  0
 14 37  1  0
 15 38  1  0
 16 39  1  0
 17 40  1  0
 18 41  1  0
 20 42  1  0
 21 43  1  0
 23 44  1  0
 24 45  1  0
M  END
>  <smiles>  (34) 
O=C(NCC(=O)N1CCCC1Cc1ccccc1)c1ccncc1

>  <score_type>  (34) 
oracle

>  <origin>  (34) 
autodockgpu

>  <m_score__min__energy>  (34) 
-7.2800000000000002

>  <m_primary>  (34) 
energy

>  <meeko>  (34) 
{"free_energy": -7.25, "intermolecular_energy": -9.04, "internal_energy": -1.64, "cluster_size": 17, "cluster_id": 1, "rank_in_cluster": 15}

>  <energy>  (34) 
-7.25

>  <cluster_rmsd>  (34) 
0.15

>  <rmsd>  (34) 
271.46

>  <cluster>  (34) 
1

$$$$

     RDKit          3D

 45 47  0  0  1  0  0  0  0  0999 V2000
  138.5980   77.4040  222.6970 O   0  0  0  0  0  0  0  0  0  0  0  0
  139.8160   77.1820  222.3980 C   0  0  0  0  0  0  0  0  0  0  0  0
  140.1440   75.8620  222.0160 N   0  0  0  0  0  0  0  0  0  0  0  0
  139.2000   74.7810  221.9520 C   0  0  0  0  0  0  0  0  0  0  0  0
  139.9340   73.4980  222.1120 C   0  0  0  0  0  0  0  0  0  0  0  0
  141.1720   73.5240  221.9780 O   0  0  0  0  0  0  0  0  0  0  0  0
  139.1960   72.3030  222.4100 N   0  0  0  0  0  0  0  0  0  0  0  0
  138.1120   71.7700  221.6160 C   0  0  0  0  0  0  0  0  0  0  0  0
  137.9510   70.3370  221.9950 C   0  0  0  0  0  0  0  0  0  0  0  0
  139.1800   70.0630  222.8310 C   0  0  0  0  0  0  0  0  0  0  0  0
  139.3520   71.3900  223.5200 C   0  0  1  0  0  0  0  0  0  0  0  0
  140.6430   71.5780  224.2240 C   0  0  0  0  0  0  0  0  0  0  0  0
  140.6150   71.0740  225.6330 C   0  0  0  0  0  0  0  0  0  0  0  0
  141.0790   71.8980  226.6530 C   0  0  0  0  0  0  0  0  0  0  0  0
  141.0830   71.5030  227.9670 C   0  0  0  0  0  0  0  0  0  0  0  0
  140.6010   70.2350  228.2430 C   0  0  0  0  0  0  0  0  0  0  0  0
  140.1330   69.3890  227.2630 C   0  0  0  0  0  0  0  0  0  0  0  0
  140.1350   69.8020  225.9390 C   0  0  0  0  0  0  0  0  0  0  0  0
  140.7840   78.2700  222.4600 C   0  0  0  0  0  0  0  0  0  0  0  0
  141.2200   78.9680  221.3600 C   0  0  0  0  0  0  0  0  0  0  0  0
  142.1510   79.9990  221.5000 C   0  0  0  0  0  0  0  0  0  0  0  0
  142.6400   80.3290  222.7120 N   0  0  0  0  0  0  0  0  0  0  0  0
  142.2280   79.6600  223.8090 C   0  0  0  0  0  0  0  0  0  0  0  0
  141.3090   78.6400  223.6830 C   0  0  0  0  0  0  0  0  0  0  0  0
  141.1330   75.6630  221.7680 H   0  0  0  0  0  0  0  0  0  0  0  0
  138.4600   74.8874  222.7589 H   0  0  0  0  0  0  0  0  0  0  0  0
  138.6776   74.7961  220.9841 H   0  0  0  0  0  0  0  0  0  0  0  0
  137.1840   72.3220  221.8262 H   0  0  0  0  0  0  0  0  0  0  0  0
  138.3298   71.8678  220.5422 H   0  0  0  0  0  0  0  0  0  0  0  0
  137.0327   70.1844  222.5811 H   0  0  0  0  0  0  0  0  0  0  0  0
  137.8609   69.6677  221.1267 H   0  0  0  0  0  0  0  0  0  0  0  0
  139.0062   69.2513  223.5528 H   0  0  0  0  0  0  0  0  0  0  0  0
  140.0572   69.7302  222.2568 H   0  0  0  0  0  0  0  0  0  0  0  0
  138.6383   71.5257  224.3460 H   0  0  0  0  0  0  0  0  0  0  0  0
  141.4259   71.0365  223.6727 H   0  0  0  0  0  0  0  0  0  0  0  0
  140.8441   72.6588  224.2632 H   0  0  0  0  0  0  0  0  0  0  0  0
  141.4552   72.8996  226.3977 H   0  0  0  0  0  0  0  0  0  0  0  0
  141.4524   72.1639  228.7649 H   0  0  0  0  0  0  0  0  0  0  0  0
  140.5916   69.8896  229.2873 H   0  0  0  0  0  0  0  0  0  0  0  0
  139.7589   68.3893  227.5290 H   0  0  0  0  0  0  0  0  0  0  0  0
  139.7643   69.1374  225.1447 H   0  0  0  0  0  0  0  0  0  0  0  0
  140.8331   78.7129  220.3624 H   0  0  0  0  0  0  0  0  0  0  0  0
  142.4898   80.5491  220.6097 H   0  0  0  0  0  0  0  0  0  0  0  0
  142.6238   79.9274  224.7999 H   0  0  0  0  0  0  0  0  0  0  0  0
  140.9831   78.1031  224.5861 H   0  0  0  0  0  0  0  0  0  0  0  0
  1  2  2  0
  2  3  1  0
  3  4  1  0
  4  5  1  0
  5  6  2  0
  5  7  1  0
  7  8  1  0
  8  9  1  0
  9 10  1  0
 10 11  1  0
 11 12  1  0
 12 13  1  0
 13 14  2  0
 14 15  1  0
 15 16  2  0
 16 17  1  0
 17 18  2  0
  2 19  1  0
 19 20  2  0
 20 21  1  0
 21 22  2  0
 22 23  1  0
 23 24  2  0
 11  7  1  0
 18 13  1  0
 24 19  1  0
  3 25  1  0
  4 26  1  0
  4 27  1  0
  8 28  1  0
  8 29  1  0
  9 30  1  0
  9 31  1  0
 10 32  1  0
 10 33  1  0
 11 34  1  1
 12 35  1  0
 12 36  1  0
 14 37  1  0
 15 38  1  0
 16 39  1  0
 17 40  1  0
 18 41  1  0
 20 42  1  0
 21 43  1  0
 23 44  1  0
 24 45  1  0
M  END
>  <smiles>  (35) 
O=C(NCC(=O)N1CCCC1Cc1ccccc1)c1ccncc1

>  <score_type>  (35) 
oracle

>  <origin>  (35) 
autodockgpu

>  <m_score__min__energy>  (35) 
-7.2800000000000002

>  <m_primary>  (35) 
energy

>  <meeko>  (35) 
{"free_energy": -7.26, "intermolecular_energy": -9.05, "internal_energy": -1.64, "cluster_size": 17, "cluster_id": 1, "rank_in_cluster": 8}

>  <energy>  (35) 
-7.25

>  <cluster_rmsd>  (35) 
0.16

>  <rmsd>  (35) 
271.45

>  <cluster>  (35) 
1

$$$$

     RDKit          3D

 45 47  0  0  1  0  0  0  0  0999 V2000
  135.8250   76.8360  222.7910 O   0  0  0  0  0  0  0  0  0  0  0  0
  136.1200   75.6940  223.2710 C   0  0  0  0  0  0  0  0  0  0  0  0
  137.2290   75.0320  222.6990 N   0  0  0  0  0  0  0  0  0  0  0  0
  138.0220   75.5660  221.6260 C   0  0  0  0  0  0  0  0  0  0  0  0
  139.4110   75.0520  221.7590 C   0  0  0  0  0  0  0  0  0  0  0  0
  139.5740   74.0000  222.4050 O   0  0  0  0  0  0  0  0  0  0  0  0
  140.4860   75.7790  221.1470 N   0  0  0  0  0  0  0  0  0  0  0  0
  141.1590   75.4040  219.9240 C   0  0  0  0  0  0  0  0  0  0  0  0
  141.8510   76.6210  219.4100 C   0  0  0  0  0  0  0  0  0  0  0  0
  141.2880   77.7270  220.2740 C   0  0  0  0  0  0  0  0  0  0  0  0
  141.1220   77.0030  221.5830 C   0  0  1  0  0  0  0  0  0  0  0  0
  140.3240   77.7160  222.6080 C   0  0  0  0  0  0  0  0  0  0  0  0
  140.9560   78.9990  223.0480 C   0  0  0  0  0  0  0  0  0  0  0  0
  142.3440   79.0910  223.0770 C   0  0  0  0  0  0  0  0  0  0  0  0
  142.9920   80.2350  223.4680 C   0  0  0  0  0  0  0  0  0  0  0  0
  142.2020   81.3090  223.8400 C   0  0  0  0  0  0  0  0  0  0  0  0
  140.8270   81.2590  223.8260 C   0  0  0  0  0  0  0  0  0  0  0  0
  140.1850   80.0960  223.4260 C   0  0  0  0  0  0  0  0  0  0  0  0
  135.3220   75.1410  224.3590 C   0  0  0  0  0  0  0  0  0  0  0  0
  135.0890   73.7970  224.5280 C   0  0  0  0  0  0  0  0  0  0  0  0
  134.3120   73.3430  225.5960 C   0  0  0  0  0  0  0  0  0  0  0  0
  133.7770   74.2100  226.4790 N   0  0  0  0  0  0  0  0  0  0  0  0
  133.9910   75.5350  226.3360 C   0  0  0  0  0  0  0  0  0  0  0  0
  134.7560   75.9940  225.2850 C   0  0  0  0  0  0  0  0  0  0  0  0
  137.4850   74.1000  223.0790 H   0  0  0  0  0  0  0  0  0  0  0  0
  137.6006   75.2487  220.6607 H   0  0  0  0  0  0  0  0  0  0  0  0
  138.0229   76.6651  221.6713 H   0  0  0  0  0  0  0  0  0  0  0  0
  141.8931   74.6101  220.1261 H   0  0  0  0  0  0  0  0  0  0  0  0
  140.4401   75.0220  219.1842 H   0  0  0  0  0  0  0  0  0  0  0  0
  142.9407   76.5381  219.5353 H   0  0  0  0  0  0  0  0  0  0  0  0
  141.6899   76.7881  218.3348 H   0  0  0  0  0  0  0  0  0  0  0  0
  141.9903   78.5689  220.3629 H   0  0  0  0  0  0  0  0  0  0  0  0
  140.3661   78.1847  219.8858 H   0  0  0  0  0  0  0  0  0  0  0  0
  142.0783   76.8750  222.1113 H   0  0  0  0  0  0  0  0  0  0  0  0
  139.3320   77.9390  222.1882 H   0  0  0  0  0  0  0  0  0  0  0  0
  140.2572   77.0612  223.4893 H   0  0  0  0  0  0  0  0  0  0  0  0
  142.9413   78.2176  222.7765 H   0  0  0  0  0  0  0  0  0  0  0  0
  144.0902   80.2962  223.4852 H   0  0  0  0  0  0  0  0  0  0  0  0
  142.6932   82.2399  224.1597 H   0  0  0  0  0  0  0  0  0  0  0  0
  140.2393   82.1375  224.1307 H   0  0  0  0  0  0  0  0  0  0  0  0
  139.0865   80.0410  223.4076 H   0  0  0  0  0  0  0  0  0  0  0  0
  135.5172   73.0745  223.8176 H   0  0  0  0  0  0  0  0  0  0  0  0
  134.1343   72.2644  225.7183 H   0  0  0  0  0  0  0  0  0  0  0  0
  133.5569   76.2455  227.0549 H   0  0  0  0  0  0  0  0  0  0  0  0
  134.9209   77.0766  225.1808 H   0  0  0  0  0  0  0  0  0  0  0  0
  1  2  2  0
  2  3  1  0
  3  4  1  0
  4  5  1  0
  5  6  2  0
  5  7  1  0
  7  8  1  0
  8  9  1  0
  9 10  1  0
 10 11  1  0
 11 12  1  0
 12 13  1  0
 13 14  2  0
 14 15  1  0
 15 16  2  0
 16 17  1  0
 17 18  2  0
  2 19  1  0
 19 20  2  0
 20 21  1  0
 21 22  2  0
 22 23  1  0
 23 24  2  0
 11  7  1  0
 18 13  1  0
 24 19  1  0
  3 25  1  0
  4 26  1  0
  4 27  1  0
  8 28  1  0
  8 29  1  0
  9 30  1  0
  9 31  1  0
 10 32  1  0
 10 33  1  0
 11 34  1  1
 12 35  1  0
 12 36  1  0
 14 37  1  0
 15 38  1  0
 16 39  1  0
 17 40  1  0
 18 41  1  0
 20 42  1  0
 21 43  1  0
 23 44  1  0
 24 45  1  0
M  END
>  <smiles>  (36) 
O=C(NCC(=O)N1CCCC1Cc1ccccc1)c1ccncc1

>  <score_type>  (36) 
oracle

>  <origin>  (36) 
autodockgpu

>  <m_score__min__energy>  (36) 
-7.2800000000000002

>  <m_primary>  (36) 
energy

>  <meeko>  (36) 
{"free_energy": -7.08, "intermolecular_energy": -8.87, "internal_energy": -1.71, "cluster_size": 3, "cluster_id": 2, "rank_in_cluster": 1}

>  <energy>  (36) 
-7.14

>  <cluster_rmsd>  (36) 
0.57

>  <rmsd>  (36) 
271.46

>  <cluster>  (36) 
1

$$$$

     RDKit          3D

 45 47  0  0  1  0  0  0  0  0999 V2000
  138.3670   77.5040  222.5780 O   0  0  0  0  0  0  0  0  0  0  0  0
  139.6190   77.3000  222.4620 C   0  0  0  0  0  0  0  0  0  0  0  0
  140.0180   75.9920  222.1060 N   0  0  0  0  0  0  0  0  0  0  0  0
  139.1080   74.9050  221.8760 C   0  0  0  0  0  0  0  0  0  0  0  0
  139.8440   73.6250  222.0470 C   0  0  0  0  0  0  0  0  0  0  0  0
  141.0860   73.6610  221.9700 O   0  0  0  0  0  0  0  0  0  0  0  0
  139.1020   72.4200  222.2920 N   0  0  0  0  0  0  0  0  0  0  0  0
  137.9950   71.9430  221.4940 C   0  0  0  0  0  0  0  0  0  0  0  0
  137.8300   70.4910  221.7920 C   0  0  0  0  0  0  0  0  0  0  0  0
  139.0760   70.1590  222.5800 C   0  0  0  0  0  0  0  0  0  0  0  0
  139.2760   71.4410  223.3420 C   0  0  1  0  0  0  0  0  0  0  0  0
  140.5840   71.5770  224.0250 C   0  0  0  0  0  0  0  0  0  0  0  0
  140.5440   71.1310  225.4520 C   0  0  0  0  0  0  0  0  0  0  0  0
  139.9250   69.9240  225.7640 C   0  0  0  0  0  0  0  0  0  0  0  0
  139.8500   69.4520  227.0490 C   0  0  0  0  0  0  0  0  0  0  0  0
  140.4220   70.2320  228.0400 C   0  0  0  0  0  0  0  0  0  0  0  0
  141.0440   71.4320  227.7740 C   0  0  0  0  0  0  0  0  0  0  0  0
  141.1120   71.8960  226.4690 C   0  0  0  0  0  0  0  0  0  0  0  0
  140.5530   78.3950  222.6950 C   0  0  0  0  0  0  0  0  0  0  0  0
  141.7820   78.4920  222.0900 C   0  0  0  0  0  0  0  0  0  0  0  0
  142.6230   79.5720  222.3650 C   0  0  0  0  0  0  0  0  0  0  0  0
  142.2470   80.5390  223.2270 N   0  0  0  0  0  0  0  0  0  0  0  0
  141.0440   80.4680  223.8350 C   0  0  0  0  0  0  0  0  0  0  0  0
  140.2060   79.4050  223.5710 C   0  0  0  0  0  0  0  0  0  0  0  0
  141.0360   75.8080  222.0070 H   0  0  0  0  0  0  0  0  0  0  0  0
  138.2802   74.9557  222.5986 H   0  0  0  0  0  0  0  0  0  0  0  0
  138.6969   74.9686  220.8577 H   0  0  0  0  0  0  0  0  0  0  0  0
  137.0772   72.4887  221.7583 H   0  0  0  0  0  0  0  0  0  0  0  0
  138.1885   72.1023  220.4229 H   0  0  0  0  0  0  0  0  0  0  0  0
  136.9247   70.3111  222.3904 H   0  0  0  0  0  0  0  0  0  0  0  0
  137.7129   69.8748  220.8884 H   0  0  0  0  0  0  0  0  0  0  0  0
  138.9125   69.3071  223.2564 H   0  0  0  0  0  0  0  0  0  0  0  0
  139.9363   69.8547  221.9658 H   0  0  0  0  0  0  0  0  0  0  0  0
  138.5831   71.5326  224.1914 H   0  0  0  0  0  0  0  0  0  0  0  0
  141.3257   70.9680  223.4875 H   0  0  0  0  0  0  0  0  0  0  0  0
  140.8499   72.6444  224.0198 H   0  0  0  0  0  0  0  0  0  0  0  0
  139.4811   69.3289  224.9524 H   0  0  0  0  0  0  0  0  0  0  0  0
  139.3575   68.4965  227.2824 H   0  0  0  0  0  0  0  0  0  0  0  0
  140.3779   69.8793  229.0810 H   0  0  0  0  0  0  0  0  0  0  0  0
  141.4847   72.0194  228.5930 H   0  0  0  0  0  0  0  0  0  0  0  0
  141.6060   72.8519  226.2404 H   0  0  0  0  0  0  0  0  0  0  0  0
  142.1061   77.7134  221.3838 H   0  0  0  0  0  0  0  0  0  0  0  0
  143.6046   79.6351  221.8725 H   0  0  0  0  0  0  0  0  0  0  0  0
  140.7333   81.2548  224.5382 H   0  0  0  0  0  0  0  0  0  0  0  0
  139.2291   79.3600  224.0746 H   0  0  0  0  0  0  0  0  0  0  0  0
  1  2  2  0
  2  3  1  0
  3  4  1  0
  4  5  1  0
  5  6  2  0
  5  7  1  0
  7  8  1  0
  8  9  1  0
  9 10  1  0
 10 11  1  0
 11 12  1  0
 12 13  1  0
 13 14  2  0
 14 15  1  0
 15 16  2  0
 16 17  1  0
 17 18  2  0
  2 19  1  0
 19 20  2  0
 20 21  1  0
 21 22  2  0
 22 23  1  0
 23 24  2  0
 11  7  1  0
 18 13  1  0
 24 19  1  0
  3 25  1  0
  4 26  1  0
  4 27  1  0
  8 28  1  0
  8 29  1  0
  9 30  1  0
  9 31  1  0
 10 32  1  0
 10 33  1  0
 11 34  1  1
 12 35  1  0
 12 36  1  0
 14 37  1  0
 15 38  1  0
 16 39  1  0
 17 40  1  0
 18 41  1  0
 20 42  1  0
 21 43  1  0
 23 44  1  0
 24 45  1  0
M  END
>  <smiles>  (37) 
O=C(NCC(=O)N1CCCC1Cc1ccccc1)c1ccncc1

>  <score_type>  (37) 
oracle

>  <origin>  (37) 
autodockgpu

>  <m_score__min__energy>  (37) 
-7.2800000000000002

>  <m_primary>  (37) 
energy

>  <meeko>  (37) 
{"free_energy": -7.14, "intermolecular_energy": -8.93, "internal_energy": -1.64, "cluster_size": 17, "cluster_id": 1, "rank_in_cluster": 16}

>  <energy>  (37) 
-7.11

>  <cluster_rmsd>  (37) 
0.72

>  <rmsd>  (37) 
271.47

>  <cluster>  (37) 
1

$$$$

     RDKit          3D

 45 47  0  0  1  0  0  0  0  0999 V2000
  138.6500   77.4860  222.6190 O   0  0  0  0  0  0  0  0  0  0  0  0
  139.8850   77.2350  222.4360 C   0  0  0  0  0  0  0  0  0  0  0  0
  140.2180   75.9060  222.0890 N   0  0  0  0  0  0  0  0  0  0  0  0
  139.2590   74.8470  221.9390 C   0  0  0  0  0  0  0  0  0  0  0  0
  139.9560   73.5460  222.1160 C   0  0  0  0  0  0  0  0  0  0  0  0
  141.1950   73.5370  221.9920 O   0  0  0  0  0  0  0  0  0  0  0  0
  139.1820   72.3740  222.4180 N   0  0  0  0  0  0  0  0  0  0  0  0
  138.0510   71.9000  221.6540 C   0  0  0  0  0  0  0  0  0  0  0  0
  137.8470   70.4670  222.0120 C   0  0  0  0  0  0  0  0  0  0  0  0
  139.0950   70.1280  222.7960 C   0  0  0  0  0  0  0  0  0  0  0  0
  139.3430   71.4330  223.5040 C   0  0  1  0  0  0  0  0  0  0  0  0
  140.6640   71.5570  224.1640 C   0  0  0  0  0  0  0  0  0  0  0  0
  140.6640   71.0390  225.5670 C   0  0  0  0  0  0  0  0  0  0  0  0
  141.0420   71.8900  226.6010 C   0  0  0  0  0  0  0  0  0  0  0  0
  141.0650   71.4850  227.9100 C   0  0  0  0  0  0  0  0  0  0  0  0
  140.6920   70.1770  228.1690 C   0  0  0  0  0  0  0  0  0  0  0  0
  140.3120   69.3020  227.1770 C   0  0  0  0  0  0  0  0  0  0  0  0
  140.2930   69.7270  225.8560 C   0  0  0  0  0  0  0  0  0  0  0  0
  140.8680   78.3010  222.5860 C   0  0  0  0  0  0  0  0  0  0  0  0
  141.4290   78.6580  223.7890 C   0  0  0  0  0  0  0  0  0  0  0  0
  142.3650   79.6920  223.8530 C   0  0  0  0  0  0  0  0  0  0  0  0
  142.7360   80.3590  222.7420 N   0  0  0  0  0  0  0  0  0  0  0  0
  142.2010   80.0280  221.5480 C   0  0  0  0  0  0  0  0  0  0  0  0
  141.2750   79.0090  221.4730 C   0  0  0  0  0  0  0  0  0  0  0  0
  141.2210   75.6830  221.9350 H   0  0  0  0  0  0  0  0  0  0  0  0
  138.4704   74.9511  222.6988 H   0  0  0  0  0  0  0  0  0  0  0  0
  138.8006   74.8944  220.9402 H   0  0  0  0  0  0  0  0  0  0  0  0
  137.1536   72.4834  221.9077 H   0  0  0  0  0  0  0  0  0  0  0  0
  138.2343   72.0108  220.5751 H   0  0  0  0  0  0  0  0  0  0  0  0
  136.9458   70.3387  222.6295 H   0  0  0  0  0  0  0  0  0  0  0  0
  137.6980   69.8194  221.1354 H   0  0  0  0  0  0  0  0  0  0  0  0
  138.9165   69.3084  223.5076 H   0  0  0  0  0  0  0  0  0  0  0  0
  139.9370   69.7739  222.1832 H   0  0  0  0  0  0  0  0  0  0  0  0
  138.6656   71.5789  224.3583 H   0  0  0  0  0  0  0  0  0  0  0  0
  141.4030   70.9888  223.5800 H   0  0  0  0  0  0  0  0  0  0  0  0
  140.9124   72.6277  224.2072 H   0  0  0  0  0  0  0  0  0  0  0  0
  141.3323   72.9231  226.3594 H   0  0  0  0  0  0  0  0  0  0  0  0
  141.3661   72.1679  228.7181 H   0  0  0  0  0  0  0  0  0  0  0  0
  140.6997   69.8227  229.2103 H   0  0  0  0  0  0  0  0  0  0  0  0
  140.0247   68.2707  227.4300 H   0  0  0  0  0  0  0  0  0  0  0  0
  139.9905   69.0406  225.0514 H   0  0  0  0  0  0  0  0  0  0  0  0
  141.1387   78.1258  224.7069 H   0  0  0  0  0  0  0  0  0  0  0  0
  142.8055   79.9660  224.8230 H   0  0  0  0  0  0  0  0  0  0  0  0
  142.5023   80.5687  220.6387 H   0  0  0  0  0  0  0  0  0  0  0  0
  140.8462   78.7516  220.4933 H   0  0  0  0  0  0  0  0  0  0  0  0
  1  2  2  0
  2  3  1  0
  3  4  1  0
  4  5  1  0
  5  6  2  0
  5  7  1  0
  7  8  1  0
  8  9  1  0
  9 10  1  0
 10 11  1  0
 11 12  1  0
 12 13  1  0
 13 14  2  0
 14 15  1  0
 15 16  2  0
 16 17  1  0
 17 18  2  0
  2 19  1  0
 19 20  2  0
 20 21  1  0
 21 22  2  0
 22 23  1  0
 23 24  2  0
 11  7  1  0
 18 13  1  0
 24 19  1  0
  3 25  1  0
  4 26  1  0
  4 27  1  0
  8 28  1  0
  8 29  1  0
  9 30  1  0
  9 31  1  0
 10 32  1  0
 10 33  1  0
 11 34  1  1
 12 35  1  0
 12 36  1  0
 14 37  1  0
 15 38  1  0
 16 39  1  0
 17 40  1  0
 18 41  1  0
 20 42  1  0
 21 43  1  0
 23 44  1  0
 24 45  1  0
M  END
>  <smiles>  (38) 
O=C(NCC(=O)N1CCCC1Cc1ccccc1)c1ccncc1

>  <score_type>  (38) 
oracle

>  <origin>  (38) 
autodockgpu

>  <m_score__min__energy>  (38) 
-7.2800000000000002

>  <m_primary>  (38) 
energy

>  <meeko>  (38) 
{"free_energy": -7.28, "intermolecular_energy": -9.07, "internal_energy": -1.64, "cluster_size": 17, "cluster_id": 1, "rank_in_cluster": 1}

>  <energy>  (38) 
-7.08

>  <cluster_rmsd>  (38) 
0.0

>  <rmsd>  (38) 
270.93

>  <cluster>  (38) 
2

$$$$

     RDKit          3D

 45 47  0  0  1  0  0  0  0  0999 V2000
  138.6800   77.5710  222.6930 O   0  0  0  0  0  0  0  0  0  0  0  0
  139.9080   77.3230  222.4620 C   0  0  0  0  0  0  0  0  0  0  0  0
  140.2260   76.0010  222.0790 N   0  0  0  0  0  0  0  0  0  0  0  0
  139.2610   74.9450  221.9430 C   0  0  0  0  0  0  0  0  0  0  0  0
  139.9610   73.6410  222.0840 C   0  0  0  0  0  0  0  0  0  0  0  0
  141.2010   73.6390  221.9730 O   0  0  0  0  0  0  0  0  0  0  0  0
  139.1880   72.4570  222.3380 N   0  0  0  0  0  0  0  0  0  0  0  0
  138.0720   72.0010  221.5410 C   0  0  0  0  0  0  0  0  0  0  0  0
  137.8690   70.5570  221.8520 C   0  0  0  0  0  0  0  0  0  0  0  0
  139.1040   70.2010  222.6480 C   0  0  0  0  0  0  0  0  0  0  0  0
  139.3340   71.4850  223.3980 C   0  0  1  0  0  0  0  0  0  0  0  0
  140.6430   71.5950  224.0840 C   0  0  0  0  0  0  0  0  0  0  0  0
  140.5900   71.1530  225.5120 C   0  0  0  0  0  0  0  0  0  0  0  0
  139.9690   69.9470  225.8220 C   0  0  0  0  0  0  0  0  0  0  0  0
  139.8820   69.4790  227.1080 C   0  0  0  0  0  0  0  0  0  0  0  0
  140.4440   70.2620  228.1010 C   0  0  0  0  0  0  0  0  0  0  0  0
  141.0680   71.4610  227.8380 C   0  0  0  0  0  0  0  0  0  0  0  0
  141.1480   71.9220  226.5320 C   0  0  0  0  0  0  0  0  0  0  0  0
  140.8970   78.3860  222.5990 C   0  0  0  0  0  0  0  0  0  0  0  0
  141.4880   78.7300  223.7910 C   0  0  0  0  0  0  0  0  0  0  0  0
  142.4270   79.7610  223.8420 C   0  0  0  0  0  0  0  0  0  0  0  0
  142.7720   80.4380  222.7280 N   0  0  0  0  0  0  0  0  0  0  0  0
  142.2070   80.1200  221.5450 C   0  0  0  0  0  0  0  0  0  0  0  0
  141.2770   79.1030  221.4820 C   0  0  0  0  0  0  0  0  0  0  0  0
  141.2230   75.7800  221.8860 H   0  0  0  0  0  0  0  0  0  0  0  0
  138.4944   75.0405  222.7261 H   0  0  0  0  0  0  0  0  0  0  0  0
  138.7744   75.0055  220.9583 H   0  0  0  0  0  0  0  0  0  0  0  0
  137.1676   72.5724  221.7970 H   0  0  0  0  0  0  0  0  0  0  0  0
  138.2729   72.1451  220.4691 H   0  0  0  0  0  0  0  0  0  0  0  0
  136.9574   70.4059  222.4488 H   0  0  0  0  0  0  0  0  0  0  0  0
  137.7392   69.9353  220.9539 H   0  0  0  0  0  0  0  0  0  0  0  0
  138.9166   69.3603  223.3321 H   0  0  0  0  0  0  0  0  0  0  0  0
  139.9583   69.8687  222.0400 H   0  0  0  0  0  0  0  0  0  0  0  0
  138.6411   71.6025  224.2443 H   0  0  0  0  0  0  0  0  0  0  0  0
  141.3731   70.9694  223.5497 H   0  0  0  0  0  0  0  0  0  0  0  0
  140.9314   72.6565  224.0772 H   0  0  0  0  0  0  0  0  0  0  0  0
  139.5332   69.3489  225.0081 H   0  0  0  0  0  0  0  0  0  0  0  0
  139.3877   68.5241  227.3399 H   0  0  0  0  0  0  0  0  0  0  0  0
  140.3901   69.9125  229.1426 H   0  0  0  0  0  0  0  0  0  0  0  0
  141.5010   72.0505  228.6596 H   0  0  0  0  0  0  0  0  0  0  0  0
  141.6431   72.8777  226.3053 H   0  0  0  0  0  0  0  0  0  0  0  0
  141.2193   78.1894  224.7105 H   0  0  0  0  0  0  0  0  0  0  0  0
  142.8918   80.0249  224.8034 H   0  0  0  0  0  0  0  0  0  0  0  0
  142.4868   80.6695  220.6341 H   0  0  0  0  0  0  0  0  0  0  0  0
  140.8237   78.8554  220.5108 H   0  0  0  0  0  0  0  0  0  0  0  0
  1  2  2  0
  2  3  1  0
  3  4  1  0
  4  5  1  0
  5  6  2  0
  5  7  1  0
  7  8  1  0
  8  9  1  0
  9 10  1  0
 10 11  1  0
 11 12  1  0
 12 13  1  0
 13 14  2  0
 14 15  1  0
 15 16  2  0
 16 17  1  0
 17 18  2  0
  2 19  1  0
 19 20  2  0
 20 21  1  0
 21 22  2  0
 22 23  1  0
 23 24  2  0
 11  7  1  0
 18 13  1  0
 24 19  1  0
  3 25  1  0
  4 26  1  0
  4 27  1  0
  8 28  1  0
  8 29  1  0
  9 30  1  0
  9 31  1  0
 10 32  1  0
 10 33  1  0
 11 34  1  1
 12 35  1  0
 12 36  1  0
 14 37  1  0
 15 38  1  0
 16 39  1  0
 17 40  1  0
 18 41  1  0
 20 42  1  0
 21 43  1  0
 23 44  1  0
 24 45  1  0
M  END
>  <smiles>  (39) 
O=C(NCC(=O)N1CCCC1Cc1ccccc1)c1ccncc1

>  <score_type>  (39) 
oracle

>  <origin>  (39) 
autodockgpu

>  <m_score__min__energy>  (39) 
-7.2800000000000002

>  <m_primary>  (39) 
energy

>  <meeko>  (39) 
{"free_energy": -7.27, "intermolecular_energy": -9.06, "internal_energy": -1.65, "cluster_size": 17, "cluster_id": 1, "rank_in_cluster": 4}

>  <energy>  (39) 
-7.06

>  <cluster_rmsd>  (39) 
0.11

>  <rmsd>  (39) 
270.96

>  <cluster>  (39) 
2

$$$$

     RDKit          3D

 45 47  0  0  1  0  0  0  0  0999 V2000
  138.5790   77.4270  222.5580 O   0  0  0  0  0  0  0  0  0  0  0  0
  139.8120   77.1800  222.3560 C   0  0  0  0  0  0  0  0  0  0  0  0
  140.1480   75.8460  222.0350 N   0  0  0  0  0  0  0  0  0  0  0  0
  139.1940   74.7760  221.9310 C   0  0  0  0  0  0  0  0  0  0  0  0
  139.9040   73.4850  222.1320 C   0  0  0  0  0  0  0  0  0  0  0  0
  141.1400   73.4800  221.9840 O   0  0  0  0  0  0  0  0  0  0  0  0
  139.1450   72.3180  222.4850 N   0  0  0  0  0  0  0  0  0  0  0  0
  137.9980   71.8170  221.7620 C   0  0  0  0  0  0  0  0  0  0  0  0
  137.8120   70.3930  222.1640 C   0  0  0  0  0  0  0  0  0  0  0  0
  139.0790   70.0830  222.9280 C   0  0  0  0  0  0  0  0  0  0  0  0
  139.3370   71.4080  223.5930 C   0  0  1  0  0  0  0  0  0  0  0  0
  140.6720   71.5580  224.2170 C   0  0  0  0  0  0  0  0  0  0  0  0
  140.7300   71.0030  225.6060 C   0  0  0  0  0  0  0  0  0  0  0  0
  140.9530   71.8710  226.6700 C   0  0  0  0  0  0  0  0  0  0  0  0
  141.0180   71.4330  227.9680 C   0  0  0  0  0  0  0  0  0  0  0  0
  140.8510   70.0760  228.1830 C   0  0  0  0  0  0  0  0  0  0  0  0
  140.6290   69.1840  227.1580 C   0  0  0  0  0  0  0  0  0  0  0  0
  140.5650   69.6410  225.8500 C   0  0  0  0  0  0  0  0  0  0  0  0
  140.7900   78.2570  222.4600 C   0  0  0  0  0  0  0  0  0  0  0  0
  141.2660   78.9630  221.3820 C   0  0  0  0  0  0  0  0  0  0  0  0
  142.2030   79.9820  221.5620 C   0  0  0  0  0  0  0  0  0  0  0  0
  142.6600   80.2920  222.7920 N   0  0  0  0  0  0  0  0  0  0  0  0
  142.2090   79.6130  223.8680 C   0  0  0  0  0  0  0  0  0  0  0  0
  141.2830   78.6050  223.7020 C   0  0  0  0  0  0  0  0  0  0  0  0
  141.1490   75.6260  221.8670 H   0  0  0  0  0  0  0  0  0  0  0  0
  138.4178   74.8957  222.7011 H   0  0  0  0  0  0  0  0  0  0  0  0
  138.7182   74.7923  220.9394 H   0  0  0  0  0  0  0  0  0  0  0  0
  137.1035   72.4021  222.0219 H   0  0  0  0  0  0  0  0  0  0  0  0
  138.1538   71.8994  220.6762 H   0  0  0  0  0  0  0  0  0  0  0  0
  136.9259   70.2764  222.8053 H   0  0  0  0  0  0  0  0  0  0  0  0
  137.6477   69.7207  221.3090 H   0  0  0  0  0  0  0  0  0  0  0  0
  138.9213   69.2831  223.6664 H   0  0  0  0  0  0  0  0  0  0  0  0
  139.9085   69.7160  222.3056 H   0  0  0  0  0  0  0  0  0  0  0  0
  138.6795   71.5734  224.4592 H   0  0  0  0  0  0  0  0  0  0  0  0
  141.4110   71.0299  223.5966 H   0  0  0  0  0  0  0  0  0  0  0  0
  140.8876   72.6347  224.2818 H   0  0  0  0  0  0  0  0  0  0  0  0
  141.0814   72.9438  226.4635 H   0  0  0  0  0  0  0  0  0  0  0  0
  141.1950   72.1292  228.8011 H   0  0  0  0  0  0  0  0  0  0  0  0
  140.8975   69.6950  229.2139 H   0  0  0  0  0  0  0  0  0  0  0  0
  140.5029   68.1131  227.3756 H   0  0  0  0  0  0  0  0  0  0  0  0
  140.3872   68.9410  225.0203 H   0  0  0  0  0  0  0  0  0  0  0  0
  140.9065   78.7238  220.3703 H   0  0  0  0  0  0  0  0  0  0  0  0
  142.5733   80.5393  220.6889 H   0  0  0  0  0  0  0  0  0  0  0  0
  142.5788   79.8629  224.8734 H   0  0  0  0  0  0  0  0  0  0  0  0
  140.9252   78.0601  224.5881 H   0  0  0  0  0  0  0  0  0  0  0  0
  1  2  2  0
  2  3  1  0
  3  4  1  0
  4  5  1  0
  5  6  2  0
  5  7  1  0
  7  8  1  0
  8  9  1  0
  9 10  1  0
 10 11  1  0
 11 12  1  0
 12 13  1  0
 13 14  2  0
 14 15  1  0
 15 16  2  0
 16 17  1  0
 17 18  2  0
  2 19  1  0
 19 20  2  0
 20 21  1  0
 21 22  2  0
 22 23  1  0
 23 24  2  0
 11  7  1  0
 18 13  1  0
 24 19  1  0
  3 25  1  0
  4 26  1  0
  4 27  1  0
  8 28  1  0
  8 29  1  0
  9 30  1  0
  9 31  1  0
 10 32  1  0
 10 33  1  0
 11 34  1  1
 12 35  1  0
 12 36  1  0
 14 37  1  0
 15 38  1  0
 16 39  1  0
 17 40  1  0
 18 41  1  0
 20 42  1  0
 21 43  1  0
 23 44  1  0
 24 45  1  0
M  END
>  <smiles>  (40) 
O=C(NCC(=O)N1CCCC1Cc1ccccc1)c1ccncc1

>  <score_type>  (40) 
oracle

>  <origin>  (40) 
autodockgpu

>  <m_score__min__energy>  (40) 
-7.2800000000000002

>  <m_primary>  (40) 
energy

>  <meeko>  (40) 
{"free_energy": -7.26, "intermolecular_energy": -9.05, "internal_energy": -1.64, "cluster_size": 17, "cluster_id": 1, "rank_in_cluster": 12}

>  <energy>  (40) 
-7.05

>  <cluster_rmsd>  (40) 
0.16

>  <rmsd>  (40) 
270.92

>  <cluster>  (40) 
2

$$$$
