JPDCHESNUKKMJT-NIWNQZHZNA-N
     RDKit          3D

 37 38  0  0  0  0  0  0  0  0999 V2000
  138.4590   74.4790  222.9850 H   0  0  0  0  0  0  0  0  0  0  0  0
  139.0380   75.2570  222.6920 O   0  0  0  0  0  0  0  0  0  0  0  0
  140.2090   75.0500  221.9670 C   0  0  0  0  0  0  0  0  0  0  0  0
  140.6930   76.0220  221.2480 N   0  0  0  0  0  0  0  0  0  0  0  0
  141.0930   77.3150  221.7290 C   0  0  0  0  0  0  0  0  0  0  0  0
  141.0140   77.6440  223.0970 C   0  0  0  0  0  0  0  0  0  0  0  0
  140.6781   76.8888  223.8229 H   0  0  0  0  0  0  0  0  0  0  0  0
  141.3600   78.9240  223.5360 C   0  0  0  0  0  0  0  0  0  0  0  0
  141.3024   79.1712  224.6063 H   0  0  0  0  0  0  0  0  0  0  0  0
  141.7790   79.8910  222.6190 C   0  0  0  0  0  0  0  0  0  0  0  0
  142.0644   80.8943  222.9683 H   0  0  0  0  0  0  0  0  0  0  0  0
  141.8350   79.5820  221.2580 C   0  0  0  0  0  0  0  0  0  0  0  0
  142.1579   80.3463  220.5358 H   0  0  0  0  0  0  0  0  0  0  0  0
  141.4820   78.3040  220.8090 C   0  0  0  0  0  0  0  0  0  0  0  0
  141.5610   77.9250  218.9330 Br  0  0  0  0  0  0  0  0  0  0  0  0
  140.8400   73.7650  221.9890 N   0  0  0  0  0  0  0  0  0  0  0  0
  140.5250   72.6960  221.0490 C   0  0  0  0  0  0  0  0  0  0  0  0
  139.6020   72.9545  220.5093 H   0  0  0  0  0  0  0  0  0  0  0  0
  141.3686   72.5891  220.3512 H   0  0  0  0  0  0  0  0  0  0  0  0
  140.3230   71.3580  221.7700 C   0  0  0  0  0  0  0  0  0  0  0  0
  139.8118   70.6636  221.0870 H   0  0  0  0  0  0  0  0  0  0  0  0
  141.3155   70.9838  222.0616 H   0  0  0  0  0  0  0  0  0  0  0  0
  139.3230   71.5230  223.2950 S   0  0  0  0  0  0  0  0  0  0  0  0
  140.6930   71.8470  224.4630 C   0  0  0  0  0  0  0  0  0  0  0  0
  141.6527   71.6149  223.9781 H   0  0  0  0  0  0  0  0  0  0  0  0
  140.6831   72.9061  224.7600 H   0  0  0  0  0  0  0  0  0  0  0  0
  140.5210   70.9800  225.6780 C   0  0  0  0  0  0  0  0  0  0  0  0
  140.1010   69.6470  225.5410 C   0  0  0  0  0  0  0  0  0  0  0  0
  139.9231   69.2289  224.5392 H   0  0  0  0  0  0  0  0  0  0  0  0
  139.9080   68.8490  226.6730 C   0  0  0  0  0  0  0  0  0  0  0  0
  139.5848   67.8037  226.5593 H   0  0  0  0  0  0  0  0  0  0  0  0
  140.1250   69.3770  227.9480 C   0  0  0  0  0  0  0  0  0  0  0  0
  139.9794   68.7459  228.8371 H   0  0  0  0  0  0  0  0  0  0  0  0
  140.5270   70.7070  228.0930 C   0  0  0  0  0  0  0  0  0  0  0  0
  140.6912   71.1241  229.0975 H   0  0  0  0  0  0  0  0  0  0  0  0
  140.7210   71.5090  226.9650 C   0  0  0  0  0  0  0  0  0  0  0  0
  141.0312   72.5576  227.0846 H   0  0  0  0  0  0  0  0  0  0  0  0
  1  2  1  0
  2  3  1  0
  3  4  2  0
  4  5  1  0
  5  6  2  0
  6  7  1  0
  6  8  1  0
  8  9  1  0
  8 10  2  0
 10 11  1  0
 10 12  1  0
 12 13  1  0
 12 14  2  0
 14 15  1  0
  3 16  1  0
 16 17  1  0
 17 18  1  0
 17 19  1  0
 17 20  1  0
 20 21  1  0
 20 22  1  0
 20 23  1  0
 23 24  1  0
 24 25  1  0
 24 26  1  0
 24 27  1  0
 27 28  2  0
 28 29  1  0
 28 30  1  0
 30 31  1  0
 30 32  2  0
 32 33  1  0
 32 34  1  0
 34 35  1  0
 34 36  2  0
 36 37  1  0
 14  5  1  0
 36 27  1  0
M  CHG  1  16  -1
M  END
>  <UniqueID>  (1) 
8

>  <SMILES>  (1) 
O/C(=N/c1ccccc1Br)[N-]CCSCc1ccccc1

>  <Energy>  (1) 
34.23310289134896

>  <Genealogy>  (1) 
O=C([N-]CCSCc1ccccc1)Nc1ccccc1Br (protonated)
OC(=Nc1ccccc1Br)[N-]CCSCc1ccccc1 (tautomer)
O/C(=N/c1ccccc1Br)[N-]CCSCc1ccccc1 (cis-trans isomerization)
O/C(=N/c1ccccc1Br)[N-]CCSCc1ccccc1 (3D coordinates assigned)
O/C(=N/c1ccccc1Br)[N-]CCSCc1ccccc1 (optimized conformer: 34.23310289134896 kcal/mol)

>  <smiles>  (1) 
O=C(NCCSCc1ccccc1)Nc1ccccc1Br

>  <score_type>  (1) 
oracle

>  <origin>  (1) 
autodockgpu

>  <m_score__min__energy>  (1) 
-7.21

>  <m_primary>  (1) 
energy

>  <meeko>  (1) 
{"free_energy": -6.45, "intermolecular_energy": -9.13, "internal_energy": -0.73, "cluster_size": 10, "cluster_id": 2, "rank_in_cluster": 9}

>  <energy>  (1) 
-7.21

>  <cluster_rmsd>  (1) 
0.0

>  <rmsd>  (1) 
274.37

>  <cluster>  (1) 
1

$$$$
JPDCHESNUKKMJT-NIWNQZHZNA-N
     RDKit          3D

 37 38  0  0  0  0  0  0  0  0999 V2000
  137.4800   74.9220  223.2610 H   0  0  0  0  0  0  0  0  0  0  0  0
  137.8190   75.7380  222.7660 O   0  0  0  0  0  0  0  0  0  0  0  0
  139.0910   75.7590  222.1990 C   0  0  0  0  0  0  0  0  0  0  0  0
  139.4860   76.8230  221.5620 N   0  0  0  0  0  0  0  0  0  0  0  0
  140.2660   77.8980  222.1100 C   0  0  0  0  0  0  0  0  0  0  0  0
  139.7990   78.6610  223.1990 C   0  0  0  0  0  0  0  0  0  0  0  0
  138.8370   78.4103  223.6698 H   0  0  0  0  0  0  0  0  0  0  0  0
  140.5510   79.7340  223.6840 C   0  0  0  0  0  0  0  0  0  0  0  0
  140.1839   80.3197  224.5397 H   0  0  0  0  0  0  0  0  0  0  0  0
  141.7680   80.0640  223.0840 C   0  0  0  0  0  0  0  0  0  0  0  0
  142.3655   80.9007  223.4751 H   0  0  0  0  0  0  0  0  0  0  0  0
  142.2260   79.3310  221.9870 C   0  0  0  0  0  0  0  0  0  0  0  0
  143.1814   79.5972  221.5112 H   0  0  0  0  0  0  0  0  0  0  0  0
  141.4750   78.2590  221.4900 C   0  0  0  0  0  0  0  0  0  0  0  0
  142.1330   77.2880  219.9770 Br  0  0  0  0  0  0  0  0  0  0  0  0
  139.9270   74.6000  222.2850 N   0  0  0  0  0  0  0  0  0  0  0  0
  139.8370   73.4700  221.3680 C   0  0  0  0  0  0  0  0  0  0  0  0
  139.1108   73.7084  220.5769 H   0  0  0  0  0  0  0  0  0  0  0  0
  140.8351   73.2907  220.9417 H   0  0  0  0  0  0  0  0  0  0  0  0
  139.3860   72.1950  222.0910 C   0  0  0  0  0  0  0  0  0  0  0  0
  138.4920   72.4265  222.6887 H   0  0  0  0  0  0  0  0  0  0  0  0
  139.1761   71.4342  221.3248 H   0  0  0  0  0  0  0  0  0  0  0  0
  140.6770   71.5210  223.2030 S   0  0  0  0  0  0  0  0  0  0  0  0
  139.5800   70.5750  224.3190 C   0  0  0  0  0  0  0  0  0  0  0  0
  138.5530   70.9609  224.2396 H   0  0  0  0  0  0  0  0  0  0  0  0
  139.5914   69.5122  224.0354 H   0  0  0  0  0  0  0  0  0  0  0  0
  140.0660   70.7260  225.7330 C   0  0  0  0  0  0  0  0  0  0  0  0
  140.7400   71.8930  226.1270 C   0  0  0  0  0  0  0  0  0  0  0  0
  140.8888   72.7095  225.4051 H   0  0  0  0  0  0  0  0  0  0  0  0
  141.2230   72.0220  227.4330 C   0  0  0  0  0  0  0  0  0  0  0  0
  141.7453   72.9410  227.7372 H   0  0  0  0  0  0  0  0  0  0  0  0
  141.0430   70.9850  228.3520 C   0  0  0  0  0  0  0  0  0  0  0  0
  141.4168   71.0906  229.3811 H   0  0  0  0  0  0  0  0  0  0  0  0
  140.3880   69.8140  227.9630 C   0  0  0  0  0  0  0  0  0  0  0  0
  140.2530   68.9950  228.6848 H   0  0  0  0  0  0  0  0  0  0  0  0
  139.9040   69.6810  226.6590 C   0  0  0  0  0  0  0  0  0  0  0  0
  139.3941   68.7547  226.3558 H   0  0  0  0  0  0  0  0  0  0  0  0
  1  2  1  0
  2  3  1  0
  3  4  2  0
  4  5  1  0
  5  6  2  0
  6  7  1  0
  6  8  1  0
  8  9  1  0
  8 10  2  0
 10 11  1  0
 10 12  1  0
 12 13  1  0
 12 14  2  0
 14 15  1  0
  3 16  1  0
 16 17  1  0
 17 18  1  0
 17 19  1  0
 17 20  1  0
 20 21  1  0
 20 22  1  0
 20 23  1  0
 23 24  1  0
 24 25  1  0
 24 26  1  0
 24 27  1  0
 27 28  2  0
 28 29  1  0
 28 30  1  0
 30 31  1  0
 30 32  2  0
 32 33  1  0
 32 34  1  0
 34 35  1  0
 34 36  2  0
 36 37  1  0
 14  5  1  0
 36 27  1  0
M  CHG  1  16  -1
M  END
>  <UniqueID>  (2) 
8

>  <SMILES>  (2) 
O/C(=N/c1ccccc1Br)[N-]CCSCc1ccccc1

>  <Energy>  (2) 
34.23310289134896

>  <Genealogy>  (2) 
O=C([N-]CCSCc1ccccc1)Nc1ccccc1Br (protonated)
OC(=Nc1ccccc1Br)[N-]CCSCc1ccccc1 (tautomer)
O/C(=N/c1ccccc1Br)[N-]CCSCc1ccccc1 (cis-trans isomerization)
O/C(=N/c1ccccc1Br)[N-]CCSCc1ccccc1 (3D coordinates assigned)
O/C(=N/c1ccccc1Br)[N-]CCSCc1ccccc1 (optimized conformer: 34.23310289134896 kcal/mol)

>  <smiles>  (2) 
O=C(NCCSCc1ccccc1)Nc1ccccc1Br

>  <score_type>  (2) 
oracle

>  <origin>  (2) 
autodockgpu

>  <m_score__min__energy>  (2) 
-7.21

>  <m_primary>  (2) 
energy

>  <meeko>  (2) 
{"free_energy": -6.53, "intermolecular_energy": -9.22, "internal_energy": -0.63, "cluster_size": 10, "cluster_id": 2, "rank_in_cluster": 7}

>  <energy>  (2) 
-7.14

>  <cluster_rmsd>  (2) 
0.6

>  <rmsd>  (2) 
274.37

>  <cluster>  (2) 
1

$$$$
JPDCHESNUKKMJT-NIWNQZHZNA-N
     RDKit          3D

 37 38  0  0  0  0  0  0  0  0999 V2000
  142.6870   75.6070  221.5550 H   0  0  0  0  0  0  0  0  0  0  0  0
  141.8020   75.4860  221.0780 O   0  0  0  0  0  0  0  0  0  0  0  0
  140.5980   75.8000  221.7030 C   0  0  0  0  0  0  0  0  0  0  0  0
  140.2270   77.0450  221.7820 N   0  0  0  0  0  0  0  0  0  0  0  0
  141.0600   78.1550  222.1550 C   0  0  0  0  0  0  0  0  0  0  0  0
  141.3990   78.3970  223.5010 C   0  0  0  0  0  0  0  0  0  0  0  0
  141.0558   77.7049  224.2841 H   0  0  0  0  0  0  0  0  0  0  0  0
  142.1680   79.5100  223.8470 C   0  0  0  0  0  0  0  0  0  0  0  0
  142.4356   79.6870  224.8992 H   0  0  0  0  0  0  0  0  0  0  0  0
  142.5980   80.3990  222.8590 C   0  0  0  0  0  0  0  0  0  0  0  0
  143.2142   81.2685  223.1314 H   0  0  0  0  0  0  0  0  0  0  0  0
  142.2450   80.1830  221.5250 C   0  0  0  0  0  0  0  0  0  0  0  0
  142.5782   80.8881  220.7492 H   0  0  0  0  0  0  0  0  0  0  0  0
  141.4690   79.0730  221.1710 C   0  0  0  0  0  0  0  0  0  0  0  0
  140.9950   78.8190  219.3330 Br  0  0  0  0  0  0  0  0  0  0  0  0
  139.8080   74.7580  222.2860 N   0  0  0  0  0  0  0  0  0  0  0  0
  139.4710   73.5180  221.5960 C   0  0  0  0  0  0  0  0  0  0  0  0
  138.5759   73.6840  220.9785 H   0  0  0  0  0  0  0  0  0  0  0  0
  140.3279   73.2259  220.9712 H   0  0  0  0  0  0  0  0  0  0  0  0
  139.1890   72.3840  222.5880 C   0  0  0  0  0  0  0  0  0  0  0  0
  138.7125   72.8098  223.4833 H   0  0  0  0  0  0  0  0  0  0  0  0
  138.5334   71.6577  222.0853 H   0  0  0  0  0  0  0  0  0  0  0  0
  140.7090   71.4980  223.0980 S   0  0  0  0  0  0  0  0  0  0  0  0
  139.9400   70.3310  224.2760 C   0  0  0  0  0  0  0  0  0  0  0  0
  138.8467   70.3553  224.1571 H   0  0  0  0  0  0  0  0  0  0  0  0
  140.3047   69.3123  224.0780 H   0  0  0  0  0  0  0  0  0  0  0  0
  140.3020   70.7330  225.6780 C   0  0  0  0  0  0  0  0  0  0  0  0
  139.8160   69.9980  226.7710 C   0  0  0  0  0  0  0  0  0  0  0  0
  139.1905   69.1096  226.5992 H   0  0  0  0  0  0  0  0  0  0  0  0
  140.1240   70.3910  228.0770 C   0  0  0  0  0  0  0  0  0  0  0  0
  139.7461   69.8072  228.9293 H   0  0  0  0  0  0  0  0  0  0  0  0
  140.9110   71.5240  228.3020 C   0  0  0  0  0  0  0  0  0  0  0  0
  141.1583   71.8278  229.3299 H   0  0  0  0  0  0  0  0  0  0  0  0
  141.3830   72.2700  227.2190 C   0  0  0  0  0  0  0  0  0  0  0  0
  141.9967   73.1656  227.3960 H   0  0  0  0  0  0  0  0  0  0  0  0
  141.0780   71.8820  225.9120 C   0  0  0  0  0  0  0  0  0  0  0  0
  141.4461   72.4772  225.0633 H   0  0  0  0  0  0  0  0  0  0  0  0
  1  2  1  0
  2  3  1  0
  3  4  2  0
  4  5  1  0
  5  6  2  0
  6  7  1  0
  6  8  1  0
  8  9  1  0
  8 10  2  0
 10 11  1  0
 10 12  1  0
 12 13  1  0
 12 14  2  0
 14 15  1  0
  3 16  1  0
 16 17  1  0
 17 18  1  0
 17 19  1  0
 17 20  1  0
 20 21  1  0
 20 22  1  0
 20 23  1  0
 23 24  1  0
 24 25  1  0
 24 26  1  0
 24 27  1  0
 27 28  2  0
 28 29  1  0
 28 30  1  0
 30 31  1  0
 30 32  2  0
 32 33  1  0
 32 34  1  0
 34 35  1  0
 34 36  2  0
 36 37  1  0
 14  5  1  0
 36 27  1  0
M  CHG  1  16  -1
M  END
>  <UniqueID>  (3) 
8

>  <SMILES>  (3) 
O/C(=N/c1ccccc1Br)[N-]CCSCc1ccccc1

>  <Energy>  (3) 
34.23310289134896

>  <Genealogy>  (3) 
O=C([N-]CCSCc1ccccc1)Nc1ccccc1Br (protonated)
OC(=Nc1ccccc1Br)[N-]CCSCc1ccccc1 (tautomer)
O/C(=N/c1ccccc1Br)[N-]CCSCc1ccccc1 (cis-trans isomerization)
O/C(=N/c1ccccc1Br)[N-]CCSCc1ccccc1 (3D coordinates assigned)
O/C(=N/c1ccccc1Br)[N-]CCSCc1ccccc1 (optimized conformer: 34.23310289134896 kcal/mol)

>  <smiles>  (3) 
O=C(NCCSCc1ccccc1)Nc1ccccc1Br

>  <score_type>  (3) 
oracle

>  <origin>  (3) 
autodockgpu

>  <m_score__min__energy>  (3) 
-7.21

>  <m_primary>  (3) 
energy

>  <meeko>  (3) 
{"free_energy": -6.86, "intermolecular_energy": -9.55, "internal_energy": -0.59, "cluster_size": 10, "cluster_id": 2, "rank_in_cluster": 2}

>  <energy>  (3) 
-7.03

>  <cluster_rmsd>  (3) 
0.69

>  <rmsd>  (3) 
274.25

>  <cluster>  (3) 
1

$$$$
JPDCHESNUKKMJT-NIWNQZHZNA-N
     RDKit          3D

 37 38  0  0  0  0  0  0  0  0999 V2000
  137.6300   72.5950  223.4440 H   0  0  0  0  0  0  0  0  0  0  0  0
  138.2870   71.9890  222.9660 O   0  0  0  0  0  0  0  0  0  0  0  0
  139.6600   72.1290  223.1500 C   0  0  0  0  0  0  0  0  0  0  0  0
  140.3150   71.2020  223.7870 N   0  0  0  0  0  0  0  0  0  0  0  0
  140.3500   71.0160  225.2120 C   0  0  0  0  0  0  0  0  0  0  0  0
  141.0410   71.9120  226.0510 C   0  0  0  0  0  0  0  0  0  0  0  0
  141.5336   72.7959  225.6197 H   0  0  0  0  0  0  0  0  0  0  0  0
  141.1040   71.6840  227.4280 C   0  0  0  0  0  0  0  0  0  0  0  0
  141.6391   72.3921  228.0777 H   0  0  0  0  0  0  0  0  0  0  0  0
  140.4890   70.5590  227.9810 C   0  0  0  0  0  0  0  0  0  0  0  0
  140.5282   70.3880  229.0669 H   0  0  0  0  0  0  0  0  0  0  0  0
  139.8240   69.6510  227.1540 C   0  0  0  0  0  0  0  0  0  0  0  0
  139.3461   68.7615  227.5902 H   0  0  0  0  0  0  0  0  0  0  0  0
  139.7630   69.8680  225.7720 C   0  0  0  0  0  0  0  0  0  0  0  0
  138.8520   68.5930  224.6720 Br  0  0  0  0  0  0  0  0  0  0  0  0
  140.3240   73.3060  222.6760 N   0  0  0  0  0  0  0  0  0  0  0  0
  141.2920   73.3020  221.5850 C   0  0  0  0  0  0  0  0  0  0  0  0
  142.2319   72.8560  221.9423 H   0  0  0  0  0  0  0  0  0  0  0  0
  140.8733   72.7166  220.7531 H   0  0  0  0  0  0  0  0  0  0  0  0
  141.5740   74.7230  221.0810 C   0  0  0  0  0  0  0  0  0  0  0  0
  142.5651   75.0347  221.4422 H   0  0  0  0  0  0  0  0  0  0  0  0
  141.5311   74.7013  219.9820 H   0  0  0  0  0  0  0  0  0  0  0  0
  140.3300   75.9360  221.6610 S   0  0  0  0  0  0  0  0  0  0  0  0
  141.0130   77.4150  220.8300 C   0  0  0  0  0  0  0  0  0  0  0  0
  141.8783   77.1252  220.2158 H   0  0  0  0  0  0  0  0  0  0  0  0
  140.2438   77.8647  220.1849 H   0  0  0  0  0  0  0  0  0  0  0  0
  141.4450   78.4100  221.8690 C   0  0  0  0  0  0  0  0  0  0  0  0
  141.9630   79.6570  221.4820 C   0  0  0  0  0  0  0  0  0  0  0  0
  142.0272   79.9158  220.4148 H   0  0  0  0  0  0  0  0  0  0  0  0
  142.3970   80.5700  222.4460 C   0  0  0  0  0  0  0  0  0  0  0  0
  142.7956   81.5472  222.1360 H   0  0  0  0  0  0  0  0  0  0  0  0
  142.3260   80.2450  223.8030 C   0  0  0  0  0  0  0  0  0  0  0  0
  142.6617   80.9682  224.5609 H   0  0  0  0  0  0  0  0  0  0  0  0
  141.8280   79.0000  224.1960 C   0  0  0  0  0  0  0  0  0  0  0  0
  141.7791   78.7411  225.2640 H   0  0  0  0  0  0  0  0  0  0  0  0
  141.3920   78.0830  223.2360 C   0  0  0  0  0  0  0  0  0  0  0  0
  141.0060   77.1021  223.5504 H   0  0  0  0  0  0  0  0  0  0  0  0
  1  2  1  0
  2  3  1  0
  3  4  2  0
  4  5  1  0
  5  6  2  0
  6  7  1  0
  6  8  1  0
  8  9  1  0
  8 10  2  0
 10 11  1  0
 10 12  1  0
 12 13  1  0
 12 14  2  0
 14 15  1  0
  3 16  1  0
 16 17  1  0
 17 18  1  0
 17 19  1  0
 17 20  1  0
 20 21  1  0
 20 22  1  0
 20 23  1  0
 23 24  1  0
 24 25  1  0
 24 26  1  0
 24 27  1  0
 27 28  2  0
 28 29  1  0
 28 30  1  0
 30 31  1  0
 30 32  2  0
 32 33  1  0
 32 34  1  0
 34 35  1  0
 34 36  2  0
 36 37  1  0
 14  5  1  0
 36 27  1  0
M  CHG  1  16  -1
M  END
>  <UniqueID>  (4) 
8

>  <SMILES>  (4) 
O/C(=N/c1ccccc1Br)[N-]CCSCc1ccccc1

>  <Energy>  (4) 
34.23310289134896

>  <Genealogy>  (4) 
O=C([N-]CCSCc1ccccc1)Nc1ccccc1Br (protonated)
OC(=Nc1ccccc1Br)[N-]CCSCc1ccccc1 (tautomer)
O/C(=N/c1ccccc1Br)[N-]CCSCc1ccccc1 (cis-trans isomerization)
O/C(=N/c1ccccc1Br)[N-]CCSCc1ccccc1 (3D coordinates assigned)
O/C(=N/c1ccccc1Br)[N-]CCSCc1ccccc1 (optimized conformer: 34.23310289134896 kcal/mol)

>  <smiles>  (4) 
O=C(NCCSCc1ccccc1)Nc1ccccc1Br

>  <score_type>  (4) 
oracle

>  <origin>  (4) 
autodockgpu

>  <m_score__min__energy>  (4) 
-7.21

>  <m_primary>  (4) 
energy

>  <meeko>  (4) 
{"free_energy": -7.03, "intermolecular_energy": -9.71, "internal_energy": -0.62, "cluster_size": 4, "cluster_id": 1, "rank_in_cluster": 3}

>  <energy>  (4) 
-7.03

>  <cluster_rmsd>  (4) 
0.82

>  <rmsd>  (4) 
274.28

>  <cluster>  (4) 
1

$$$$
JPDCHESNUKKMJT-NIWNQZHZNA-N
     RDKit          3D

 37 38  0  0  0  0  0  0  0  0999 V2000
  142.9530   75.9690  221.1570 H   0  0  0  0  0  0  0  0  0  0  0  0
  142.1790   75.3500  220.9490 O   0  0  0  0  0  0  0  0  0  0  0  0
  140.9470   75.4990  221.5820 C   0  0  0  0  0  0  0  0  0  0  0  0
  140.4240   76.6860  221.6860 N   0  0  0  0  0  0  0  0  0  0  0  0
  141.1080   77.8810  222.0990 C   0  0  0  0  0  0  0  0  0  0  0  0
  141.2420   78.2140  223.4610 C   0  0  0  0  0  0  0  0  0  0  0  0
  140.8525   77.5327  224.2318 H   0  0  0  0  0  0  0  0  0  0  0  0
  141.8670   79.4050  223.8380 C   0  0  0  0  0  0  0  0  0  0  0  0
  141.9758   79.6541  224.9039 H   0  0  0  0  0  0  0  0  0  0  0  0
  142.3540   80.2800  222.8650 C   0  0  0  0  0  0  0  0  0  0  0  0
  142.8568   81.2115  223.1642 H   0  0  0  0  0  0  0  0  0  0  0  0
  142.2020   79.9710  221.5110 C   0  0  0  0  0  0  0  0  0  0  0  0
  142.5804   80.6640  220.7451 H   0  0  0  0  0  0  0  0  0  0  0  0
  141.5700   78.7830  221.1250 C   0  0  0  0  0  0  0  0  0  0  0  0
  141.3700   78.4030  219.2580 Br  0  0  0  0  0  0  0  0  0  0  0  0
  140.2960   74.3560  222.1470 N   0  0  0  0  0  0  0  0  0  0  0  0
  140.6020   72.9820  221.7660 C   0  0  0  0  0  0  0  0  0  0  0  0
  140.3453   72.8393  220.7059 H   0  0  0  0  0  0  0  0  0  0  0  0
  141.6747   72.8073  221.9359 H   0  0  0  0  0  0  0  0  0  0  0  0
  139.8110   71.9760  222.6100 C   0  0  0  0  0  0  0  0  0  0  0  0
  138.7670   72.3160  222.6764 H   0  0  0  0  0  0  0  0  0  0  0  0
  139.8882   70.9953  222.1179 H   0  0  0  0  0  0  0  0  0  0  0  0
  140.4790   71.7990  224.3060 S   0  0  0  0  0  0  0  0  0  0  0  0
  139.3120   70.5250  224.9070 C   0  0  0  0  0  0  0  0  0  0  0  0
  138.3633   71.0016  225.1948 H   0  0  0  0  0  0  0  0  0  0  0  0
  139.1229   69.7914  224.1094 H   0  0  0  0  0  0  0  0  0  0  0  0
  139.9080   69.8320  226.0990 C   0  0  0  0  0  0  0  0  0  0  0  0
  140.3990   70.5820  227.1790 C   0  0  0  0  0  0  0  0  0  0  0  0
  140.3224   71.6792  227.1638 H   0  0  0  0  0  0  0  0  0  0  0  0
  140.9850   69.9400  228.2740 C   0  0  0  0  0  0  0  0  0  0  0  0
  141.3625   70.5325  229.1204 H   0  0  0  0  0  0  0  0  0  0  0  0
  141.0920   68.5470  228.2950 C   0  0  0  0  0  0  0  0  0  0  0  0
  141.5461   68.0429  229.1608 H   0  0  0  0  0  0  0  0  0  0  0  0
  140.6220   67.7950  227.2160 C   0  0  0  0  0  0  0  0  0  0  0  0
  140.7140   66.6989  227.2295 H   0  0  0  0  0  0  0  0  0  0  0  0
  140.0350   68.4320  226.1190 C   0  0  0  0  0  0  0  0  0  0  0  0
  139.6714   67.8362  225.2689 H   0  0  0  0  0  0  0  0  0  0  0  0
  1  2  1  0
  2  3  1  0
  3  4  2  0
  4  5  1  0
  5  6  2  0
  6  7  1  0
  6  8  1  0
  8  9  1  0
  8 10  2  0
 10 11  1  0
 10 12  1  0
 12 13  1  0
 12 14  2  0
 14 15  1  0
  3 16  1  0
 16 17  1  0
 17 18  1  0
 17 19  1  0
 17 20  1  0
 20 21  1  0
 20 22  1  0
 20 23  1  0
 23 24  1  0
 24 25  1  0
 24 26  1  0
 24 27  1  0
 27 28  2  0
 28 29  1  0
 28 30  1  0
 30 31  1  0
 30 32  2  0
 32 33  1  0
 32 34  1  0
 34 35  1  0
 34 36  2  0
 36 37  1  0
 14  5  1  0
 36 27  1  0
M  CHG  1  16  -1
M  END
>  <UniqueID>  (5) 
8

>  <SMILES>  (5) 
O/C(=N/c1ccccc1Br)[N-]CCSCc1ccccc1

>  <Energy>  (5) 
34.23310289134896

>  <Genealogy>  (5) 
O=C([N-]CCSCc1ccccc1)Nc1ccccc1Br (protonated)
OC(=Nc1ccccc1Br)[N-]CCSCc1ccccc1 (tautomer)
O/C(=N/c1ccccc1Br)[N-]CCSCc1ccccc1 (cis-trans isomerization)
O/C(=N/c1ccccc1Br)[N-]CCSCc1ccccc1 (3D coordinates assigned)
O/C(=N/c1ccccc1Br)[N-]CCSCc1ccccc1 (optimized conformer: 34.23310289134896 kcal/mol)

>  <smiles>  (5) 
O=C(NCCSCc1ccccc1)Nc1ccccc1Br

>  <score_type>  (5) 
oracle

>  <origin>  (5) 
autodockgpu

>  <m_score__min__energy>  (5) 
-7.21

>  <m_primary>  (5) 
energy

>  <meeko>  (5) 
{"free_energy": -6.8, "intermolecular_energy": -9.48, "internal_energy": -0.52, "cluster_size": 10, "cluster_id": 2, "rank_in_cluster": 4}

>  <energy>  (5) 
-7.03

>  <cluster_rmsd>  (5) 
0.0

>  <rmsd>  (5) 
274.41

>  <cluster>  (5) 
2

$$$$
JPDCHESNUKKMJT-NIWNQZHZNA-N
     RDKit          3D

 37 38  0  0  0  0  0  0  0  0999 V2000
  139.1900   73.6180  222.9840 H   0  0  0  0  0  0  0  0  0  0  0  0
  139.9490   73.8380  222.3500 O   0  0  0  0  0  0  0  0  0  0  0  0
  140.8620   72.8640  221.9540 C   0  0  0  0  0  0  0  0  0  0  0  0
  141.8980   73.2130  221.2470 N   0  0  0  0  0  0  0  0  0  0  0  0
  142.1530   74.5190  220.7040 C   0  0  0  0  0  0  0  0  0  0  0  0
  141.1120   75.4490  220.5130 C   0  0  0  0  0  0  0  0  0  0  0  0
  140.0867   75.1928  220.8182 H   0  0  0  0  0  0  0  0  0  0  0  0
  141.3750   76.6950  219.9380 C   0  0  0  0  0  0  0  0  0  0  0  0
  140.5585   77.4189  219.7994 H   0  0  0  0  0  0  0  0  0  0  0  0
  142.6720   77.0230  219.5390 C   0  0  0  0  0  0  0  0  0  0  0  0
  142.8794   78.0092  219.0982 H   0  0  0  0  0  0  0  0  0  0  0  0
  143.7060   76.0980  219.7000 C   0  0  0  0  0  0  0  0  0  0  0  0
  144.7261   76.3558  219.3791 H   0  0  0  0  0  0  0  0  0  0  0  0
  143.4500   74.8440  220.2680 C   0  0  0  0  0  0  0  0  0  0  0  0
  144.8920   73.6000  220.4600 Br  0  0  0  0  0  0  0  0  0  0  0  0
  140.6280   71.4930  222.2900 N   0  0  0  0  0  0  0  0  0  0  0  0
  139.8140   70.5910  221.4830 C   0  0  0  0  0  0  0  0  0  0  0  0
  139.6387   71.0508  220.4992 H   0  0  0  0  0  0  0  0  0  0  0  0
  140.3536   69.6382  221.3782 H   0  0  0  0  0  0  0  0  0  0  0  0
  138.4620   70.3090  222.1500 C   0  0  0  0  0  0  0  0  0  0  0  0
  137.6668   70.7616  221.5394 H   0  0  0  0  0  0  0  0  0  0  0  0
  138.3471   69.2174  222.2215 H   0  0  0  0  0  0  0  0  0  0  0  0
  138.3580   70.9900  223.8470 S   0  0  0  0  0  0  0  0  0  0  0  0
  139.4380   69.7700  224.6770 C   0  0  0  0  0  0  0  0  0  0  0  0
  138.8524   68.8749  224.9337 H   0  0  0  0  0  0  0  0  0  0  0  0
  140.2600   69.4858  224.0035 H   0  0  0  0  0  0  0  0  0  0  0  0
  140.0000   70.3790  225.9300 C   0  0  0  0  0  0  0  0  0  0  0  0
  140.7160   71.5850  225.8700 C   0  0  0  0  0  0  0  0  0  0  0  0
  140.8430   72.0987  224.9056 H   0  0  0  0  0  0  0  0  0  0  0  0
  141.2680   72.1360  227.0290 C   0  0  0  0  0  0  0  0  0  0  0  0
  141.8215   73.0851  226.9761 H   0  0  0  0  0  0  0  0  0  0  0  0
  141.1180   71.4830  228.2560 C   0  0  0  0  0  0  0  0  0  0  0  0
  141.5484   71.9208  229.1687 H   0  0  0  0  0  0  0  0  0  0  0  0
  140.4210   70.2740  228.3220 C   0  0  0  0  0  0  0  0  0  0  0  0
  140.3080   69.7577  229.2867 H   0  0  0  0  0  0  0  0  0  0  0  0
  139.8670   69.7190  227.1650 C   0  0  0  0  0  0  0  0  0  0  0  0
  139.3254   68.7632  227.2204 H   0  0  0  0  0  0  0  0  0  0  0  0
  1  2  1  0
  2  3  1  0
  3  4  2  0
  4  5  1  0
  5  6  2  0
  6  7  1  0
  6  8  1  0
  8  9  1  0
  8 10  2  0
 10 11  1  0
 10 12  1  0
 12 13  1  0
 12 14  2  0
 14 15  1  0
  3 16  1  0
 16 17  1  0
 17 18  1  0
 17 19  1  0
 17 20  1  0
 20 21  1  0
 20 22  1  0
 20 23  1  0
 23 24  1  0
 24 25  1  0
 24 26  1  0
 24 27  1  0
 27 28  2  0
 28 29  1  0
 28 30  1  0
 30 31  1  0
 30 32  2  0
 32 33  1  0
 32 34  1  0
 34 35  1  0
 34 36  2  0
 36 37  1  0
 14  5  1  0
 36 27  1  0
M  CHG  1  16  -1
M  END
>  <UniqueID>  (6) 
8

>  <SMILES>  (6) 
O/C(=N/c1ccccc1Br)[N-]CCSCc1ccccc1

>  <Energy>  (6) 
34.23310289134896

>  <Genealogy>  (6) 
O=C([N-]CCSCc1ccccc1)Nc1ccccc1Br (protonated)
OC(=Nc1ccccc1Br)[N-]CCSCc1ccccc1 (tautomer)
O/C(=N/c1ccccc1Br)[N-]CCSCc1ccccc1 (cis-trans isomerization)
O/C(=N/c1ccccc1Br)[N-]CCSCc1ccccc1 (3D coordinates assigned)
O/C(=N/c1ccccc1Br)[N-]CCSCc1ccccc1 (optimized conformer: 34.23310289134896 kcal/mol)

>  <smiles>  (6) 
O=C(NCCSCc1ccccc1)Nc1ccccc1Br

>  <score_type>  (6) 
oracle

>  <origin>  (6) 
autodockgpu

>  <m_score__min__energy>  (6) 
-7.21

>  <m_primary>  (6) 
energy

>  <meeko>  (6) 
{"free_energy": -6.38, "intermolecular_energy": -9.06, "internal_energy": -0.8, "cluster_size": 5, "cluster_id": 3, "rank_in_cluster": 3}

>  <energy>  (6) 
-6.86

>  <cluster_rmsd>  (6) 
0.26

>  <rmsd>  (6) 
274.39

>  <cluster>  (6) 
2

$$$$
JPDCHESNUKKMJT-NIWNQZHZNA-N
     RDKit          3D

 37 38  0  0  0  0  0  0  0  0999 V2000
  137.8060   72.2650  223.8360 H   0  0  0  0  0  0  0  0  0  0  0  0
  138.4690   71.6080  223.4440 O   0  0  0  0  0  0  0  0  0  0  0  0
  139.8340   71.8880  223.4210 C   0  0  0  0  0  0  0  0  0  0  0  0
  140.6430   71.1730  224.1470 N   0  0  0  0  0  0  0  0  0  0  0  0
  140.5690   70.9900  225.5700 C   0  0  0  0  0  0  0  0  0  0  0  0
  141.1680   71.9060  226.4580 C   0  0  0  0  0  0  0  0  0  0  0  0
  141.6705   72.8014  226.0635 H   0  0  0  0  0  0  0  0  0  0  0  0
  141.1270   71.6830  227.8360 C   0  0  0  0  0  0  0  0  0  0  0  0
  141.5895   72.4067  228.5233 H   0  0  0  0  0  0  0  0  0  0  0  0
  140.5000   70.5430  228.3430 C   0  0  0  0  0  0  0  0  0  0  0  0
  140.4581   70.3751  229.4293 H   0  0  0  0  0  0  0  0  0  0  0  0
  139.9260   69.6160  227.4700 C   0  0  0  0  0  0  0  0  0  0  0  0
  139.4376   68.7154  227.8705 H   0  0  0  0  0  0  0  0  0  0  0  0
  139.9700   69.8290  226.0870 C   0  0  0  0  0  0  0  0  0  0  0  0
  139.1830   68.5270  224.9230 Br  0  0  0  0  0  0  0  0  0  0  0  0
  140.3200   72.9830  222.6370 N   0  0  0  0  0  0  0  0  0  0  0  0
  139.6910   73.4330  221.4010 C   0  0  0  0  0  0  0  0  0  0  0  0
  140.3036   73.1056  220.5481 H   0  0  0  0  0  0  0  0  0  0  0  0
  138.6823   72.9973  221.3479 H   0  0  0  0  0  0  0  0  0  0  0  0
  139.5590   74.9600  221.3630 C   0  0  0  0  0  0  0  0  0  0  0  0
  139.3449   75.2695  220.3294 H   0  0  0  0  0  0  0  0  0  0  0  0
  138.7452   75.2412  222.0476 H   0  0  0  0  0  0  0  0  0  0  0  0
  141.0790   75.8130  221.9280 S   0  0  0  0  0  0  0  0  0  0  0  0
  140.7910   77.4180  221.0990 C   0  0  0  0  0  0  0  0  0  0  0  0
  141.3021   77.4261  220.1250 H   0  0  0  0  0  0  0  0  0  0  0  0
  139.7121   77.5659  220.9440 H   0  0  0  0  0  0  0  0  0  0  0  0
  141.3340   78.5230  221.9610 C   0  0  0  0  0  0  0  0  0  0  0  0
  141.7950   79.7130  221.3760 C   0  0  0  0  0  0  0  0  0  0  0  0
  141.7332   79.8469  220.2859 H   0  0  0  0  0  0  0  0  0  0  0  0
  142.3320   80.7280  222.1720 C   0  0  0  0  0  0  0  0  0  0  0  0
  142.6862   81.6603  221.7079 H   0  0  0  0  0  0  0  0  0  0  0  0
  142.4200   80.5610  223.5570 C   0  0  0  0  0  0  0  0  0  0  0  0
  142.8360   81.3640  224.1832 H   0  0  0  0  0  0  0  0  0  0  0  0
  141.9790   79.3730  224.1450 C   0  0  0  0  0  0  0  0  0  0  0  0
  142.0552   79.2382  225.2341 H   0  0  0  0  0  0  0  0  0  0  0  0
  141.4410   78.3550  223.3520 C   0  0  0  0  0  0  0  0  0  0  0  0
  141.1002   77.4190  223.8187 H   0  0  0  0  0  0  0  0  0  0  0  0
  1  2  1  0
  2  3  1  0
  3  4  2  0
  4  5  1  0
  5  6  2  0
  6  7  1  0
  6  8  1  0
  8  9  1  0
  8 10  2  0
 10 11  1  0
 10 12  1  0
 12 13  1  0
 12 14  2  0
 14 15  1  0
  3 16  1  0
 16 17  1  0
 17 18  1  0
 17 19  1  0
 17 20  1  0
 20 21  1  0
 20 22  1  0
 20 23  1  0
 23 24  1  0
 24 25  1  0
 24 26  1  0
 24 27  1  0
 27 28  2  0
 28 29  1  0
 28 30  1  0
 30 31  1  0
 30 32  2  0
 32 33  1  0
 32 34  1  0
 34 35  1  0
 34 36  2  0
 36 37  1  0
 14  5  1  0
 36 27  1  0
M  CHG  1  16  -1
M  END
>  <UniqueID>  (7) 
8

>  <SMILES>  (7) 
O/C(=N/c1ccccc1Br)[N-]CCSCc1ccccc1

>  <Energy>  (7) 
34.23310289134896

>  <Genealogy>  (7) 
O=C([N-]CCSCc1ccccc1)Nc1ccccc1Br (protonated)
OC(=Nc1ccccc1Br)[N-]CCSCc1ccccc1 (tautomer)
O/C(=N/c1ccccc1Br)[N-]CCSCc1ccccc1 (cis-trans isomerization)
O/C(=N/c1ccccc1Br)[N-]CCSCc1ccccc1 (3D coordinates assigned)
O/C(=N/c1ccccc1Br)[N-]CCSCc1ccccc1 (optimized conformer: 34.23310289134896 kcal/mol)

>  <smiles>  (7) 
O=C(NCCSCc1ccccc1)Nc1ccccc1Br

>  <score_type>  (7) 
oracle

>  <origin>  (7) 
autodockgpu

>  <m_score__min__energy>  (7) 
-7.21

>  <m_primary>  (7) 
energy

>  <meeko>  (7) 
{"free_energy": -7.21, "intermolecular_energy": -9.9, "internal_energy": -0.55, "cluster_size": 4, "cluster_id": 1, "rank_in_cluster": 1}

>  <energy>  (7) 
-6.85

>  <cluster_rmsd>  (7) 
1.4

>  <rmsd>  (7) 
274.41

>  <cluster>  (7) 
2

$$$$
JPDCHESNUKKMJT-NIWNQZHZNA-N
     RDKit          3D

 37 38  0  0  0  0  0  0  0  0999 V2000
  139.2430   73.3870  223.4280 H   0  0  0  0  0  0  0  0  0  0  0  0
  139.9590   72.7610  223.0780 O   0  0  0  0  0  0  0  0  0  0  0  0
  139.8530   71.3820  223.2430 C   0  0  0  0  0  0  0  0  0  0  0  0
  140.6190   70.7840  224.1090 N   0  0  0  0  0  0  0  0  0  0  0  0
  140.5360   70.9030  225.5390 C   0  0  0  0  0  0  0  0  0  0  0  0
  141.0950   72.0050  226.2150 C   0  0  0  0  0  0  0  0  0  0  0  0
  141.5718   72.8139  225.6420 H   0  0  0  0  0  0  0  0  0  0  0  0
  141.0470   72.0760  227.6100 C   0  0  0  0  0  0  0  0  0  0  0  0
  141.4788   72.9434  228.1307 H   0  0  0  0  0  0  0  0  0  0  0  0
  140.4520   71.0480  228.3440 C   0  0  0  0  0  0  0  0  0  0  0  0
  140.4039   71.1115  229.4411 H   0  0  0  0  0  0  0  0  0  0  0  0
  139.9180   69.9390  227.6840 C   0  0  0  0  0  0  0  0  0  0  0  0
  139.4553   69.1270  228.2642 H   0  0  0  0  0  0  0  0  0  0  0  0
  139.9690   69.8560  226.2870 C   0  0  0  0  0  0  0  0  0  0  0  0
  139.2380   68.3130  225.4210 Br  0  0  0  0  0  0  0  0  0  0  0  0
  138.9380   70.6380  222.4310 N   0  0  0  0  0  0  0  0  0  0  0  0
  137.4940   70.8390  222.4500 C   0  0  0  0  0  0  0  0  0  0  0  0
  137.2809   71.8717  222.7632 H   0  0  0  0  0  0  0  0  0  0  0  0
  137.1056   70.6485  221.4386 H   0  0  0  0  0  0  0  0  0  0  0  0
  136.8050   69.8720  223.4200 C   0  0  0  0  0  0  0  0  0  0  0  0
  136.2190   69.1463  222.8369 H   0  0  0  0  0  0  0  0  0  0  0  0
  137.5901   69.3783  224.0115 H   0  0  0  0  0  0  0  0  0  0  0  0
  135.6840   70.7260  224.5900 S   0  0  0  0  0  0  0  0  0  0  0  0
  135.5650   72.3230  223.7060 C   0  0  0  0  0  0  0  0  0  0  0  0
  136.5712   72.6576  223.4133 H   0  0  0  0  0  0  0  0  0  0  0  0
  134.9464   72.2016  222.8046 H   0  0  0  0  0  0  0  0  0  0  0  0
  134.9400   73.3440  224.6140 C   0  0  0  0  0  0  0  0  0  0  0  0
  135.4020   74.6700  224.6090 C   0  0  0  0  0  0  0  0  0  0  0  0
  136.2060   74.9671  223.9195 H   0  0  0  0  0  0  0  0  0  0  0  0
  134.8450   75.6140  225.4760 C   0  0  0  0  0  0  0  0  0  0  0  0
  135.2068   76.6527  225.4621 H   0  0  0  0  0  0  0  0  0  0  0  0
  133.8290   75.2410  226.3610 C   0  0  0  0  0  0  0  0  0  0  0  0
  133.3869   75.9867  227.0381 H   0  0  0  0  0  0  0  0  0  0  0  0
  133.3760   73.9190  226.3840 C   0  0  0  0  0  0  0  0  0  0  0  0
  132.5818   73.6232  227.0852 H   0  0  0  0  0  0  0  0  0  0  0  0
  133.9300   72.9720  225.5180 C   0  0  0  0  0  0  0  0  0  0  0  0
  133.5741   71.9315  225.5440 H   0  0  0  0  0  0  0  0  0  0  0  0
  1  2  1  0
  2  3  1  0
  3  4  2  0
  4  5  1  0
  5  6  2  0
  6  7  1  0
  6  8  1  0
  8  9  1  0
  8 10  2  0
 10 11  1  0
 10 12  1  0
 12 13  1  0
 12 14  2  0
 14 15  1  0
  3 16  1  0
 16 17  1  0
 17 18  1  0
 17 19  1  0
 17 20  1  0
 20 21  1  0
 20 22  1  0
 20 23  1  0
 23 24  1  0
 24 25  1  0
 24 26  1  0
 24 27  1  0
 27 28  2  0
 28 29  1  0
 28 30  1  0
 30 31  1  0
 30 32  2  0
 32 33  1  0
 32 34  1  0
 34 35  1  0
 34 36  2  0
 36 37  1  0
 14  5  1  0
 36 27  1  0
M  CHG  1  16  -1
M  END
>  <UniqueID>  (8) 
8

>  <SMILES>  (8) 
O/C(=N/c1ccccc1Br)[N-]CCSCc1ccccc1

>  <Energy>  (8) 
34.23310289134896

>  <Genealogy>  (8) 
O=C([N-]CCSCc1ccccc1)Nc1ccccc1Br (protonated)
OC(=Nc1ccccc1Br)[N-]CCSCc1ccccc1 (tautomer)
O/C(=N/c1ccccc1Br)[N-]CCSCc1ccccc1 (cis-trans isomerization)
O/C(=N/c1ccccc1Br)[N-]CCSCc1ccccc1 (3D coordinates assigned)
O/C(=N/c1ccccc1Br)[N-]CCSCc1ccccc1 (optimized conformer: 34.23310289134896 kcal/mol)

>  <smiles>  (8) 
O=C(NCCSCc1ccccc1)Nc1ccccc1Br

>  <score_type>  (8) 
oracle

>  <origin>  (8) 
autodockgpu

>  <m_score__min__energy>  (8) 
-7.21

>  <m_primary>  (8) 
energy

>  <meeko>  (8) 
{"free_energy": -5.68, "intermolecular_energy": -8.37, "internal_energy": -1.05, "cluster_size": 1, "cluster_id": 4, "rank_in_cluster": 1}

>  <energy>  (8) 
-6.8

>  <cluster_rmsd>  (8) 
0.94

>  <rmsd>  (8) 
274.33

>  <cluster>  (8) 
2

$$$$
JPDCHESNUKKMJT-NIWNQZHZNA-N
     RDKit          3D

 37 38  0  0  0  0  0  0  0  0999 V2000
  137.9210   73.8060  223.0240 H   0  0  0  0  0  0  0  0  0  0  0  0
  138.1610   74.2730  222.1580 O   0  0  0  0  0  0  0  0  0  0  0  0
  139.4710   74.6610  221.8890 C   0  0  0  0  0  0  0  0  0  0  0  0
  139.6860   75.7490  221.2070 N   0  0  0  0  0  0  0  0  0  0  0  0
  140.2660   76.9630  221.7100 C   0  0  0  0  0  0  0  0  0  0  0  0
  139.6290   77.7180  222.7150 C   0  0  0  0  0  0  0  0  0  0  0  0
  138.6881   77.3576  223.1563 H   0  0  0  0  0  0  0  0  0  0  0  0
  140.1860   78.9220  223.1540 C   0  0  0  0  0  0  0  0  0  0  0  0
  139.6877   79.5013  223.9453 H   0  0  0  0  0  0  0  0  0  0  0  0
  141.3740   79.3910  222.5900 C   0  0  0  0  0  0  0  0  0  0  0  0
  141.8177   80.3327  222.9456 H   0  0  0  0  0  0  0  0  0  0  0  0
  141.9990   78.6640  221.5740 C   0  0  0  0  0  0  0  0  0  0  0  0
  142.9311   79.0385  221.1259 H   0  0  0  0  0  0  0  0  0  0  0  0
  141.4430   77.4600  221.1240 C   0  0  0  0  0  0  0  0  0  0  0  0
  142.3240   76.5000  219.7200 Br  0  0  0  0  0  0  0  0  0  0  0  0
  140.5590   73.8390  222.3250 N   0  0  0  0  0  0  0  0  0  0  0  0
  140.8180   72.5010  221.8070 C   0  0  0  0  0  0  0  0  0  0  0  0
  141.1823   72.5823  220.7723 H   0  0  0  0  0  0  0  0  0  0  0  0
  141.5707   72.0210  222.4497 H   0  0  0  0  0  0  0  0  0  0  0  0
  139.5500   71.6390  221.8230 C   0  0  0  0  0  0  0  0  0  0  0  0
  138.7841   72.1276  221.2028 H   0  0  0  0  0  0  0  0  0  0  0  0
  139.8172   70.6465  221.4312 H   0  0  0  0  0  0  0  0  0  0  0  0
  138.8770   71.4060  223.5110 S   0  0  0  0  0  0  0  0  0  0  0  0
  140.2460   70.4030  224.1930 C   0  0  0  0  0  0  0  0  0  0  0  0
  140.0031   69.3345  224.0965 H   0  0  0  0  0  0  0  0  0  0  0  0
  141.1723   70.6159  223.6392 H   0  0  0  0  0  0  0  0  0  0  0  0
  140.4340   70.7470  225.6440 C   0  0  0  0  0  0  0  0  0  0  0  0
  141.2000   71.8640  226.0110 C   0  0  0  0  0  0  0  0  0  0  0  0
  141.6411   72.5048  225.2333 H   0  0  0  0  0  0  0  0  0  0  0  0
  141.4050   72.1660  227.3600 C   0  0  0  0  0  0  0  0  0  0  0  0
  142.0011   73.0468  227.6409 H   0  0  0  0  0  0  0  0  0  0  0  0
  140.8540   71.3510  228.3530 C   0  0  0  0  0  0  0  0  0  0  0  0
  141.0103   71.5937  229.4144 H   0  0  0  0  0  0  0  0  0  0  0  0
  140.1040   70.2270  227.9950 C   0  0  0  0  0  0  0  0  0  0  0  0
  139.6757   69.5817  228.7761 H   0  0  0  0  0  0  0  0  0  0  0  0
  139.8970   69.9210  226.6470 C   0  0  0  0  0  0  0  0  0  0  0  0
  139.3123   69.0314  226.3701 H   0  0  0  0  0  0  0  0  0  0  0  0
  1  2  1  0
  2  3  1  0
  3  4  2  0
  4  5  1  0
  5  6  2  0
  6  7  1  0
  6  8  1  0
  8  9  1  0
  8 10  2  0
 10 11  1  0
 10 12  1  0
 12 13  1  0
 12 14  2  0
 14 15  1  0
  3 16  1  0
 16 17  1  0
 17 18  1  0
 17 19  1  0
 17 20  1  0
 20 21  1  0
 20 22  1  0
 20 23  1  0
 23 24  1  0
 24 25  1  0
 24 26  1  0
 24 27  1  0
 27 28  2  0
 28 29  1  0
 28 30  1  0
 30 31  1  0
 30 32  2  0
 32 33  1  0
 32 34  1  0
 34 35  1  0
 34 36  2  0
 36 37  1  0
 14  5  1  0
 36 27  1  0
M  CHG  1  16  -1
M  END
>  <UniqueID>  (9) 
8

>  <SMILES>  (9) 
O/C(=N/c1ccccc1Br)[N-]CCSCc1ccccc1

>  <Energy>  (9) 
34.23310289134896

>  <Genealogy>  (9) 
O=C([N-]CCSCc1ccccc1)Nc1ccccc1Br (protonated)
OC(=Nc1ccccc1Br)[N-]CCSCc1ccccc1 (tautomer)
O/C(=N/c1ccccc1Br)[N-]CCSCc1ccccc1 (cis-trans isomerization)
O/C(=N/c1ccccc1Br)[N-]CCSCc1ccccc1 (3D coordinates assigned)
O/C(=N/c1ccccc1Br)[N-]CCSCc1ccccc1 (optimized conformer: 34.23310289134896 kcal/mol)

>  <smiles>  (9) 
O=C(NCCSCc1ccccc1)Nc1ccccc1Br

>  <score_type>  (9) 
oracle

>  <origin>  (9) 
autodockgpu

>  <m_score__min__energy>  (9) 
-7.21

>  <m_primary>  (9) 
energy

>  <meeko>  (9) 
{"free_energy": -6.32, "intermolecular_energy": -9.0, "internal_energy": -0.91, "cluster_size": 10, "cluster_id": 2, "rank_in_cluster": 10}

>  <energy>  (9) 
-6.77

>  <cluster_rmsd>  (9) 
1.44

>  <rmsd>  (9) 
274.26

>  <cluster>  (9) 
2

$$$$
JPDCHESNUKKMJT-NIWNQZHZNA-N
     RDKit          3D

 37 38  0  0  0  0  0  0  0  0999 V2000
  142.3550   76.0510  221.4740 H   0  0  0  0  0  0  0  0  0  0  0  0
  141.5520   75.5710  221.0880 O   0  0  0  0  0  0  0  0  0  0  0  0
  140.3730   75.4380  221.8170 C   0  0  0  0  0  0  0  0  0  0  0  0
  139.6510   76.4930  222.0600 N   0  0  0  0  0  0  0  0  0  0  0  0
  140.1190   77.7280  222.6250 C   0  0  0  0  0  0  0  0  0  0  0  0
  141.4620   77.8900  223.0220 C   0  0  0  0  0  0  0  0  0  0  0  0
  142.1816   77.0733  222.8632 H   0  0  0  0  0  0  0  0  0  0  0  0
  141.8840   79.0820  223.6160 C   0  0  0  0  0  0  0  0  0  0  0  0
  142.9352   79.2033  223.9166 H   0  0  0  0  0  0  0  0  0  0  0  0
  140.9740   80.1200  223.8290 C   0  0  0  0  0  0  0  0  0  0  0  0
  141.3109   81.0630  224.2843 H   0  0  0  0  0  0  0  0  0  0  0  0
  139.6350   79.9590  223.4630 C   0  0  0  0  0  0  0  0  0  0  0  0
  138.9174   80.7741  223.6385 H   0  0  0  0  0  0  0  0  0  0  0  0
  139.2030   78.7650  222.8740 C   0  0  0  0  0  0  0  0  0  0  0  0
  137.3570   78.5800  222.3990 Br  0  0  0  0  0  0  0  0  0  0  0  0
  139.9940   74.1540  222.3260 N   0  0  0  0  0  0  0  0  0  0  0  0
  140.4290   72.8930  221.7380 C   0  0  0  0  0  0  0  0  0  0  0  0
  140.7414   73.0720  220.6986 H   0  0  0  0  0  0  0  0  0  0  0  0
  141.2658   72.5032  222.3363 H   0  0  0  0  0  0  0  0  0  0  0  0
  139.3030   71.8510  221.7480 C   0  0  0  0  0  0  0  0  0  0  0  0
  138.3711   72.3361  221.4220 H   0  0  0  0  0  0  0  0  0  0  0  0
  139.5959   71.0372  221.0683 H   0  0  0  0  0  0  0  0  0  0  0  0
  139.0350   71.1200  223.4060 S   0  0  0  0  0  0  0  0  0  0  0  0
  140.6660   71.5250  224.1280 C   0  0  0  0  0  0  0  0  0  0  0  0
  141.4587   71.0322  223.5459 H   0  0  0  0  0  0  0  0  0  0  0  0
  140.8209   72.6138  224.1037 H   0  0  0  0  0  0  0  0  0  0  0  0
  140.7110   71.0400  225.5500 C   0  0  0  0  0  0  0  0  0  0  0  0
  140.3340   69.7230  225.8580 C   0  0  0  0  0  0  0  0  0  0  0  0
  140.0303   69.0377  225.0529 H   0  0  0  0  0  0  0  0  0  0  0  0
  140.3430   69.2790  227.1840 C   0  0  0  0  0  0  0  0  0  0  0  0
  140.0536   68.2440  227.4187 H   0  0  0  0  0  0  0  0  0  0  0  0
  140.7190   70.1480  228.2110 C   0  0  0  0  0  0  0  0  0  0  0  0
  140.7317   69.7957  229.2530 H   0  0  0  0  0  0  0  0  0  0  0  0
  141.0790   71.4650  227.9140 C   0  0  0  0  0  0  0  0  0  0  0  0
  141.3685   72.1507  228.7239 H   0  0  0  0  0  0  0  0  0  0  0  0
  141.0720   71.9130  226.5900 C   0  0  0  0  0  0  0  0  0  0  0  0
  141.3501   72.9525  226.3615 H   0  0  0  0  0  0  0  0  0  0  0  0
  1  2  1  0
  2  3  1  0
  3  4  2  0
  4  5  1  0
  5  6  2  0
  6  7  1  0
  6  8  1  0
  8  9  1  0
  8 10  2  0
 10 11  1  0
 10 12  1  0
 12 13  1  0
 12 14  2  0
 14 15  1  0
  3 16  1  0
 16 17  1  0
 17 18  1  0
 17 19  1  0
 17 20  1  0
 20 21  1  0
 20 22  1  0
 20 23  1  0
 23 24  1  0
 24 25  1  0
 24 26  1  0
 24 27  1  0
 27 28  2  0
 28 29  1  0
 28 30  1  0
 30 31  1  0
 30 32  2  0
 32 33  1  0
 32 34  1  0
 34 35  1  0
 34 36  2  0
 36 37  1  0
 14  5  1  0
 36 27  1  0
M  CHG  1  16  -1
M  END
>  <UniqueID>  (10) 
8

>  <SMILES>  (10) 
O/C(=N/c1ccccc1Br)[N-]CCSCc1ccccc1

>  <Energy>  (10) 
34.23310289134896

>  <Genealogy>  (10) 
O=C([N-]CCSCc1ccccc1)Nc1ccccc1Br (protonated)
OC(=Nc1ccccc1Br)[N-]CCSCc1ccccc1 (tautomer)
O/C(=N/c1ccccc1Br)[N-]CCSCc1ccccc1 (cis-trans isomerization)
O/C(=N/c1ccccc1Br)[N-]CCSCc1ccccc1 (3D coordinates assigned)
O/C(=N/c1ccccc1Br)[N-]CCSCc1ccccc1 (optimized conformer: 34.23310289134896 kcal/mol)

>  <smiles>  (10) 
O=C(NCCSCc1ccccc1)Nc1ccccc1Br

>  <score_type>  (10) 
oracle

>  <origin>  (10) 
autodockgpu

>  <m_score__min__energy>  (10) 
-7.21

>  <m_primary>  (10) 
energy

>  <meeko>  (10) 
{"free_energy": -6.77, "intermolecular_energy": -9.45, "internal_energy": -0.62, "cluster_size": 10, "cluster_id": 2, "rank_in_cluster": 5}

>  <energy>  (10) 
-6.73

>  <cluster_rmsd>  (10) 
1.53

>  <rmsd>  (10) 
274.23

>  <cluster>  (10) 
2

$$$$
JPDCHESNUKKMJT-NIWNQZHZNA-N
     RDKit          3D

 37 38  0  0  0  0  0  0  0  0999 V2000
  137.5510   72.2360  223.8820 H   0  0  0  0  0  0  0  0  0  0  0  0
  138.2480   71.5590  223.5980 O   0  0  0  0  0  0  0  0  0  0  0  0
  139.5890   71.9140  223.4720 C   0  0  0  0  0  0  0  0  0  0  0  0
  140.4860   71.2620  224.1530 N   0  0  0  0  0  0  0  0  0  0  0  0
  140.4930   71.0660  225.5760 C   0  0  0  0  0  0  0  0  0  0  0  0
  141.1240   71.9840  226.4390 C   0  0  0  0  0  0  0  0  0  0  0  0
  141.5889   72.8918  226.0270 H   0  0  0  0  0  0  0  0  0  0  0  0
  141.1620   71.7470  227.8150 C   0  0  0  0  0  0  0  0  0  0  0  0
  141.6494   72.4723  228.4831 H   0  0  0  0  0  0  0  0  0  0  0  0
  140.5830   70.5920  228.3450 C   0  0  0  0  0  0  0  0  0  0  0  0
  140.6026   70.4142  229.4304 H   0  0  0  0  0  0  0  0  0  0  0  0
  139.9790   69.6630  227.4950 C   0  0  0  0  0  0  0  0  0  0  0  0
  139.5296   68.7499  227.9125 H   0  0  0  0  0  0  0  0  0  0  0  0
  139.9430   69.8890  226.1130 C   0  0  0  0  0  0  0  0  0  0  0  0
  139.1160   68.5840  224.9810 Br  0  0  0  0  0  0  0  0  0  0  0  0
  139.9560   73.0140  222.6330 N   0  0  0  0  0  0  0  0  0  0  0  0
  141.0990   72.9930  221.7280 C   0  0  0  0  0  0  0  0  0  0  0  0
  141.9668   72.5729  222.2576 H   0  0  0  0  0  0  0  0  0  0  0  0
  140.8375   72.3766  220.8552 H   0  0  0  0  0  0  0  0  0  0  0  0
  141.4500   74.4020  221.2350 C   0  0  0  0  0  0  0  0  0  0  0  0
  142.4893   74.6254  221.5179 H   0  0  0  0  0  0  0  0  0  0  0  0
  141.3142   74.4162  220.1435 H   0  0  0  0  0  0  0  0  0  0  0  0
  140.3590   75.6900  221.9460 S   0  0  0  0  0  0  0  0  0  0  0  0
  140.9590   77.1050  220.9560 C   0  0  0  0  0  0  0  0  0  0  0  0
  141.7922   76.7791  220.3159 H   0  0  0  0  0  0  0  0  0  0  0  0
  140.1430   77.4864  220.3245 H   0  0  0  0  0  0  0  0  0  0  0  0
  141.4310   78.1910  221.8810 C   0  0  0  0  0  0  0  0  0  0  0  0
  141.4070   77.9940  223.2710 C   0  0  0  0  0  0  0  0  0  0  0  0
  141.0672   77.0319  223.6819 H   0  0  0  0  0  0  0  0  0  0  0  0
  141.8130   79.0150  224.1350 C   0  0  0  0  0  0  0  0  0  0  0  0
  141.7971   78.8521  225.2228 H   0  0  0  0  0  0  0  0  0  0  0  0
  142.2390   80.2420  223.6200 C   0  0  0  0  0  0  0  0  0  0  0  0
  142.5651   81.0420  224.3009 H   0  0  0  0  0  0  0  0  0  0  0  0
  142.2500   80.4510  222.2380 C   0  0  0  0  0  0  0  0  0  0  0  0
  142.5793   81.4189  221.8322 H   0  0  0  0  0  0  0  0  0  0  0  0
  141.8440   79.4340  221.3710 C   0  0  0  0  0  0  0  0  0  0  0  0
  141.8475   79.6065  220.2846 H   0  0  0  0  0  0  0  0  0  0  0  0
  1  2  1  0
  2  3  1  0
  3  4  2  0
  4  5  1  0
  5  6  2  0
  6  7  1  0
  6  8  1  0
  8  9  1  0
  8 10  2  0
 10 11  1  0
 10 12  1  0
 12 13  1  0
 12 14  2  0
 14 15  1  0
  3 16  1  0
 16 17  1  0
 17 18  1  0
 17 19  1  0
 17 20  1  0
 20 21  1  0
 20 22  1  0
 20 23  1  0
 23 24  1  0
 24 25  1  0
 24 26  1  0
 24 27  1  0
 27 28  2  0
 28 29  1  0
 28 30  1  0
 30 31  1  0
 30 32  2  0
 32 33  1  0
 32 34  1  0
 34 35  1  0
 34 36  2  0
 36 37  1  0
 14  5  1  0
 36 27  1  0
M  CHG  1  16  -1
M  END
>  <UniqueID>  (11) 
8

>  <SMILES>  (11) 
O/C(=N/c1ccccc1Br)[N-]CCSCc1ccccc1

>  <Energy>  (11) 
34.23310289134896

>  <Genealogy>  (11) 
O=C([N-]CCSCc1ccccc1)Nc1ccccc1Br (protonated)
OC(=Nc1ccccc1Br)[N-]CCSCc1ccccc1 (tautomer)
O/C(=N/c1ccccc1Br)[N-]CCSCc1ccccc1 (cis-trans isomerization)
O/C(=N/c1ccccc1Br)[N-]CCSCc1ccccc1 (3D coordinates assigned)
O/C(=N/c1ccccc1Br)[N-]CCSCc1ccccc1 (optimized conformer: 34.23310289134896 kcal/mol)

>  <smiles>  (11) 
O=C(NCCSCc1ccccc1)Nc1ccccc1Br

>  <score_type>  (11) 
oracle

>  <origin>  (11) 
autodockgpu

>  <m_score__min__energy>  (11) 
-7.21

>  <m_primary>  (11) 
energy

>  <meeko>  (11) 
{"free_energy": -7.14, "intermolecular_energy": -9.83, "internal_energy": -0.61, "cluster_size": 4, "cluster_id": 1, "rank_in_cluster": 2}

>  <energy>  (11) 
-6.53

>  <cluster_rmsd>  (11) 
1.75

>  <rmsd>  (11) 
274.13

>  <cluster>  (11) 
2

$$$$
JPDCHESNUKKMJT-NIWNQZHZNA-N
     RDKit          3D

 37 38  0  0  0  0  0  0  0  0999 V2000
  139.1100   73.5350  223.0830 H   0  0  0  0  0  0  0  0  0  0  0  0
  139.8240   73.7810  222.4080 O   0  0  0  0  0  0  0  0  0  0  0  0
  140.6120   72.8050  221.8030 C   0  0  0  0  0  0  0  0  0  0  0  0
  141.2610   73.0950  220.7130 N   0  0  0  0  0  0  0  0  0  0  0  0
  142.6700   73.3530  220.6090 C   0  0  0  0  0  0  0  0  0  0  0  0
  143.6200   72.3400  220.8460 C   0  0  0  0  0  0  0  0  0  0  0  0
  143.2841   71.3184  221.0772 H   0  0  0  0  0  0  0  0  0  0  0  0
  144.9870   72.6260  220.7890 C   0  0  0  0  0  0  0  0  0  0  0  0
  145.7229   71.8283  220.9681 H   0  0  0  0  0  0  0  0  0  0  0  0
  145.4200   73.9230  220.5050 C   0  0  0  0  0  0  0  0  0  0  0  0
  146.4961   74.1436  220.4475 H   0  0  0  0  0  0  0  0  0  0  0  0
  144.4860   74.9400  220.2940 C   0  0  0  0  0  0  0  0  0  0  0  0
  144.8289   75.9625  220.0775 H   0  0  0  0  0  0  0  0  0  0  0  0
  143.1150   74.6630  220.3570 C   0  0  0  0  0  0  0  0  0  0  0  0
  141.8670   76.0880  220.0750 Br  0  0  0  0  0  0  0  0  0  0  0  0
  140.6630   71.4870  222.3620 N   0  0  0  0  0  0  0  0  0  0  0  0
  139.7500   70.4150  221.9840 C   0  0  0  0  0  0  0  0  0  0  0  0
  139.8054   70.2655  220.8956 H   0  0  0  0  0  0  0  0  0  0  0  0
  140.0486   69.5023  222.5204 H   0  0  0  0  0  0  0  0  0  0  0  0
  138.3040   70.7470  222.3680 C   0  0  0  0  0  0  0  0  0  0  0  0
  138.0511   71.7385  221.9643 H   0  0  0  0  0  0  0  0  0  0  0  0
  137.6591   69.9611  221.9479 H   0  0  0  0  0  0  0  0  0  0  0  0
  138.0430   70.7680  224.1820 S   0  0  0  0  0  0  0  0  0  0  0  0
  139.5570   69.8620  224.6650 C   0  0  0  0  0  0  0  0  0  0  0  0
  139.3112   68.8055  224.8477 H   0  0  0  0  0  0  0  0  0  0  0  0
  140.3007   69.9271  223.8571 H   0  0  0  0  0  0  0  0  0  0  0  0
  140.1180   70.4720  225.9190 C   0  0  0  0  0  0  0  0  0  0  0  0
  139.7790   69.9420  227.1740 C   0  0  0  0  0  0  0  0  0  0  0  0
  139.1224   69.0618  227.2379 H   0  0  0  0  0  0  0  0  0  0  0  0
  140.2730   70.5290  228.3430 C   0  0  0  0  0  0  0  0  0  0  0  0
  140.0093   70.1059  229.3235 H   0  0  0  0  0  0  0  0  0  0  0  0
  141.1010   71.6520  228.2680 C   0  0  0  0  0  0  0  0  0  0  0  0
  141.4950   72.1081  229.1882 H   0  0  0  0  0  0  0  0  0  0  0  0
  141.4280   72.1950  227.0230 C   0  0  0  0  0  0  0  0  0  0  0  0
  142.0740   73.0834  226.9647 H   0  0  0  0  0  0  0  0  0  0  0  0
  140.9370   71.6130  225.8520 C   0  0  0  0  0  0  0  0  0  0  0  0
  141.1918   72.0485  224.8746 H   0  0  0  0  0  0  0  0  0  0  0  0
  1  2  1  0
  2  3  1  0
  3  4  2  0
  4  5  1  0
  5  6  2  0
  6  7  1  0
  6  8  1  0
  8  9  1  0
  8 10  2  0
 10 11  1  0
 10 12  1  0
 12 13  1  0
 12 14  2  0
 14 15  1  0
  3 16  1  0
 16 17  1  0
 17 18  1  0
 17 19  1  0
 17 20  1  0
 20 21  1  0
 20 22  1  0
 20 23  1  0
 23 24  1  0
 24 25  1  0
 24 26  1  0
 24 27  1  0
 27 28  2  0
 28 29  1  0
 28 30  1  0
 30 31  1  0
 30 32  2  0
 32 33  1  0
 32 34  1  0
 34 35  1  0
 34 36  2  0
 36 37  1  0
 14  5  1  0
 36 27  1  0
M  CHG  1  16  -1
M  END
>  <UniqueID>  (12) 
8

>  <SMILES>  (12) 
O/C(=N/c1ccccc1Br)[N-]CCSCc1ccccc1

>  <Energy>  (12) 
34.23310289134896

>  <Genealogy>  (12) 
O=C([N-]CCSCc1ccccc1)Nc1ccccc1Br (protonated)
OC(=Nc1ccccc1Br)[N-]CCSCc1ccccc1 (tautomer)
O/C(=N/c1ccccc1Br)[N-]CCSCc1ccccc1 (cis-trans isomerization)
O/C(=N/c1ccccc1Br)[N-]CCSCc1ccccc1 (3D coordinates assigned)
O/C(=N/c1ccccc1Br)[N-]CCSCc1ccccc1 (optimized conformer: 34.23310289134896 kcal/mol)

>  <smiles>  (12) 
O=C(NCCSCc1ccccc1)Nc1ccccc1Br

>  <score_type>  (12) 
oracle

>  <origin>  (12) 
autodockgpu

>  <m_score__min__energy>  (12) 
-7.21

>  <m_primary>  (12) 
energy

>  <meeko>  (12) 
{"free_energy": -6.42, "intermolecular_energy": -9.1, "internal_energy": -0.99, "cluster_size": 5, "cluster_id": 3, "rank_in_cluster": 2}

>  <energy>  (12) 
-6.52

>  <cluster_rmsd>  (12) 
1.92

>  <rmsd>  (12) 
273.97

>  <cluster>  (12) 
2

$$$$
JPDCHESNUKKMJT-NIWNQZHZNA-N
     RDKit          3D

 37 38  0  0  0  0  0  0  0  0999 V2000
  138.9750   74.0430  223.0750 H   0  0  0  0  0  0  0  0  0  0  0  0
  139.6890   74.1420  222.3640 O   0  0  0  0  0  0  0  0  0  0  0  0
  140.3260   73.0280  221.8220 C   0  0  0  0  0  0  0  0  0  0  0  0
  141.0410   73.1650  220.7430 N   0  0  0  0  0  0  0  0  0  0  0  0
  141.8940   74.2770  220.4280 C   0  0  0  0  0  0  0  0  0  0  0  0
  141.3700   75.5690  220.2250 C   0  0  0  0  0  0  0  0  0  0  0  0
  140.2913   75.7469  220.3469 H   0  0  0  0  0  0  0  0  0  0  0  0
  142.2120   76.6250  219.8700 C   0  0  0  0  0  0  0  0  0  0  0  0
  141.7960   77.6324  219.7215 H   0  0  0  0  0  0  0  0  0  0  0  0
  143.5810   76.4050  219.7030 C   0  0  0  0  0  0  0  0  0  0  0  0
  144.2447   77.2405  219.4357 H   0  0  0  0  0  0  0  0  0  0  0  0
  144.1060   75.1220  219.8760 C   0  0  0  0  0  0  0  0  0  0  0  0
  145.1833   74.9481  219.7372 H   0  0  0  0  0  0  0  0  0  0  0  0
  143.2680   74.0570  220.2250 C   0  0  0  0  0  0  0  0  0  0  0  0
  144.0260   72.3110  220.4400 Br  0  0  0  0  0  0  0  0  0  0  0  0
  140.1520   71.7440  222.4320 N   0  0  0  0  0  0  0  0  0  0  0  0
  139.7380   70.5520  221.7000 C   0  0  0  0  0  0  0  0  0  0  0  0
  139.5318   70.8277  220.6553 H   0  0  0  0  0  0  0  0  0  0  0  0
  140.5504   69.8125  221.7566 H   0  0  0  0  0  0  0  0  0  0  0  0
  138.4770   69.9290  222.3090 C   0  0  0  0  0  0  0  0  0  0  0  0
  137.6014   70.2833  221.7452 H   0  0  0  0  0  0  0  0  0  0  0  0
  138.5829   68.8358  222.2488 H   0  0  0  0  0  0  0  0  0  0  0  0
  138.2560   70.3690  224.0740 S   0  0  0  0  0  0  0  0  0  0  0  0
  139.7820   69.5960  224.7210 C   0  0  0  0  0  0  0  0  0  0  0  0
  139.5763   68.5517  224.9987 H   0  0  0  0  0  0  0  0  0  0  0  0
  140.5645   69.6187  223.9482 H   0  0  0  0  0  0  0  0  0  0  0  0
  140.2450   70.3560  225.9310 C   0  0  0  0  0  0  0  0  0  0  0  0
  139.8370   69.9570  227.2140 C   0  0  0  0  0  0  0  0  0  0  0  0
  139.1979   69.0699  227.3345 H   0  0  0  0  0  0  0  0  0  0  0  0
  140.2400   70.6830  228.3390 C   0  0  0  0  0  0  0  0  0  0  0  0
  139.9224   70.3620  229.3420 H   0  0  0  0  0  0  0  0  0  0  0  0
  141.0450   71.8150  228.1920 C   0  0  0  0  0  0  0  0  0  0  0  0
  141.3662   72.3810  229.0788 H   0  0  0  0  0  0  0  0  0  0  0  0
  141.4420   72.2280  226.9170 C   0  0  0  0  0  0  0  0  0  0  0  0
  142.0706   73.1232  226.8011 H   0  0  0  0  0  0  0  0  0  0  0  0
  141.0420   71.5060  225.7890 C   0  0  0  0  0  0  0  0  0  0  0  0
  141.3516   71.8383  224.7871 H   0  0  0  0  0  0  0  0  0  0  0  0
  1  2  1  0
  2  3  1  0
  3  4  2  0
  4  5  1  0
  5  6  2  0
  6  7  1  0
  6  8  1  0
  8  9  1  0
  8 10  2  0
 10 11  1  0
 10 12  1  0
 12 13  1  0
 12 14  2  0
 14 15  1  0
  3 16  1  0
 16 17  1  0
 17 18  1  0
 17 19  1  0
 17 20  1  0
 20 21  1  0
 20 22  1  0
 20 23  1  0
 23 24  1  0
 24 25  1  0
 24 26  1  0
 24 27  1  0
 27 28  2  0
 28 29  1  0
 28 30  1  0
 30 31  1  0
 30 32  2  0
 32 33  1  0
 32 34  1  0
 34 35  1  0
 34 36  2  0
 36 37  1  0
 14  5  1  0
 36 27  1  0
M  CHG  1  16  -1
M  END
>  <UniqueID>  (13) 
8

>  <SMILES>  (13) 
O/C(=N/c1ccccc1Br)[N-]CCSCc1ccccc1

>  <Energy>  (13) 
34.23310289134896

>  <Genealogy>  (13) 
O=C([N-]CCSCc1ccccc1)Nc1ccccc1Br (protonated)
OC(=Nc1ccccc1Br)[N-]CCSCc1ccccc1 (tautomer)
O/C(=N/c1ccccc1Br)[N-]CCSCc1ccccc1 (cis-trans isomerization)
O/C(=N/c1ccccc1Br)[N-]CCSCc1ccccc1 (3D coordinates assigned)
O/C(=N/c1ccccc1Br)[N-]CCSCc1ccccc1 (optimized conformer: 34.23310289134896 kcal/mol)

>  <smiles>  (13) 
O=C(NCCSCc1ccccc1)Nc1ccccc1Br

>  <score_type>  (13) 
oracle

>  <origin>  (13) 
autodockgpu

>  <m_score__min__energy>  (13) 
-7.21

>  <m_primary>  (13) 
energy

>  <meeko>  (13) 
{"free_energy": -6.22, "intermolecular_energy": -8.9, "internal_energy": -0.86, "cluster_size": 5, "cluster_id": 3, "rank_in_cluster": 4}

>  <energy>  (13) 
-6.45

>  <cluster_rmsd>  (13) 
1.61

>  <rmsd>  (13) 
273.94

>  <cluster>  (13) 
2

$$$$
JPDCHESNUKKMJT-NIWNQZHZNA-N
     RDKit          3D

 37 38  0  0  0  0  0  0  0  0999 V2000
  141.8360   76.0220  221.9700 H   0  0  0  0  0  0  0  0  0  0  0  0
  141.0210   75.4500  222.1550 O   0  0  0  0  0  0  0  0  0  0  0  0
  140.4360   74.6830  221.1500 C   0  0  0  0  0  0  0  0  0  0  0  0
  141.1780   74.2290  220.1820 N   0  0  0  0  0  0  0  0  0  0  0  0
  142.5260   73.7450  220.3030 C   0  0  0  0  0  0  0  0  0  0  0  0
  142.8000   72.4560  220.8000 C   0  0  0  0  0  0  0  0  0  0  0  0
  141.9700   71.7853  221.0670 H   0  0  0  0  0  0  0  0  0  0  0  0
  144.1190   72.0240  220.9560 C   0  0  0  0  0  0  0  0  0  0  0  0
  144.3243   71.0130  221.3377 H   0  0  0  0  0  0  0  0  0  0  0  0
  145.1780   72.8740  220.6280 C   0  0  0  0  0  0  0  0  0  0  0  0
  146.2163   72.5281  220.7389 H   0  0  0  0  0  0  0  0  0  0  0  0
  144.9170   74.1640  220.1590 C   0  0  0  0  0  0  0  0  0  0  0  0
  145.7518   74.8349  219.9082 H   0  0  0  0  0  0  0  0  0  0  0  0
  143.5980   74.6060  220.0070 C   0  0  0  0  0  0  0  0  0  0  0  0
  143.2830   76.3860  219.3730 Br  0  0  0  0  0  0  0  0  0  0  0  0
  139.0250   74.4420  221.1720 N   0  0  0  0  0  0  0  0  0  0  0  0
  138.3980   73.3940  221.9680 C   0  0  0  0  0  0  0  0  0  0  0  0
  138.3204   73.7353  223.0108 H   0  0  0  0  0  0  0  0  0  0  0  0
  137.4021   73.1904  221.5476 H   0  0  0  0  0  0  0  0  0  0  0  0
  139.2120   72.0950  221.9280 C   0  0  0  0  0  0  0  0  0  0  0  0
  138.8669   71.4891  221.0773 H   0  0  0  0  0  0  0  0  0  0  0  0
  140.2725   72.3693  221.8270 H   0  0  0  0  0  0  0  0  0  0  0  0
  139.0380   71.1070  223.4610 S   0  0  0  0  0  0  0  0  0  0  0  0
  140.6680   71.4910  224.1950 C   0  0  0  0  0  0  0  0  0  0  0  0
  141.4585   70.9864  223.6201 H   0  0  0  0  0  0  0  0  0  0  0  0
  140.8380   72.5775  224.1701 H   0  0  0  0  0  0  0  0  0  0  0  0
  140.6950   71.0080  225.6180 C   0  0  0  0  0  0  0  0  0  0  0  0
  140.3310   69.6860  225.9220 C   0  0  0  0  0  0  0  0  0  0  0  0
  140.0511   68.9950  225.1132 H   0  0  0  0  0  0  0  0  0  0  0  0
  140.3230   69.2450  227.2480 C   0  0  0  0  0  0  0  0  0  0  0  0
  140.0443   68.2063  227.4790 H   0  0  0  0  0  0  0  0  0  0  0  0
  140.6680   70.1200  228.2810 C   0  0  0  0  0  0  0  0  0  0  0  0
  140.6666   69.7691  229.3235 H   0  0  0  0  0  0  0  0  0  0  0  0
  141.0150   71.4420  227.9880 C   0  0  0  0  0  0  0  0  0  0  0  0
  141.2808   72.1328  228.8017 H   0  0  0  0  0  0  0  0  0  0  0  0
  141.0250   71.8880  226.6640 C   0  0  0  0  0  0  0  0  0  0  0  0
  141.2919   72.9311  226.4390 H   0  0  0  0  0  0  0  0  0  0  0  0
  1  2  1  0
  2  3  1  0
  3  4  2  0
  4  5  1  0
  5  6  2  0
  6  7  1  0
  6  8  1  0
  8  9  1  0
  8 10  2  0
 10 11  1  0
 10 12  1  0
 12 13  1  0
 12 14  2  0
 14 15  1  0
  3 16  1  0
 16 17  1  0
 17 18  1  0
 17 19  1  0
 17 20  1  0
 20 21  1  0
 20 22  1  0
 20 23  1  0
 23 24  1  0
 24 25  1  0
 24 26  1  0
 24 27  1  0
 27 28  2  0
 28 29  1  0
 28 30  1  0
 30 31  1  0
 30 32  2  0
 32 33  1  0
 32 34  1  0
 34 35  1  0
 34 36  2  0
 36 37  1  0
 14  5  1  0
 36 27  1  0
M  CHG  1  16  -1
M  END
>  <UniqueID>  (14) 
8

>  <SMILES>  (14) 
O/C(=N/c1ccccc1Br)[N-]CCSCc1ccccc1

>  <Energy>  (14) 
34.23310289134896

>  <Genealogy>  (14) 
O=C([N-]CCSCc1ccccc1)Nc1ccccc1Br (protonated)
OC(=Nc1ccccc1Br)[N-]CCSCc1ccccc1 (tautomer)
O/C(=N/c1ccccc1Br)[N-]CCSCc1ccccc1 (cis-trans isomerization)
O/C(=N/c1ccccc1Br)[N-]CCSCc1ccccc1 (3D coordinates assigned)
O/C(=N/c1ccccc1Br)[N-]CCSCc1ccccc1 (optimized conformer: 34.23310289134896 kcal/mol)

>  <smiles>  (14) 
O=C(NCCSCc1ccccc1)Nc1ccccc1Br

>  <score_type>  (14) 
oracle

>  <origin>  (14) 
autodockgpu

>  <m_score__min__energy>  (14) 
-7.21

>  <m_primary>  (14) 
energy

>  <meeko>  (14) 
{"free_energy": -5.93, "intermolecular_energy": -8.61, "internal_energy": -0.95, "cluster_size": 5, "cluster_id": 3, "rank_in_cluster": 5}

>  <energy>  (14) 
-6.32

>  <cluster_rmsd>  (14) 
1.88

>  <rmsd>  (14) 
273.85

>  <cluster>  (14) 
2

$$$$
JPDCHESNUKKMJT-NIWNQZHZNA-N
     RDKit          3D

 37 38  0  0  0  0  0  0  0  0999 V2000
  138.0290   75.2140  223.1180 H   0  0  0  0  0  0  0  0  0  0  0  0
  138.5650   75.7970  222.4870 O   0  0  0  0  0  0  0  0  0  0  0  0
  139.9350   75.6120  222.3230 C   0  0  0  0  0  0  0  0  0  0  0  0
  140.7330   76.6350  222.4290 N   0  0  0  0  0  0  0  0  0  0  0  0
  141.0660   77.5610  221.3830 C   0  0  0  0  0  0  0  0  0  0  0  0
  141.1310   77.1530  220.0360 C   0  0  0  0  0  0  0  0  0  0  0  0
  140.8851   76.1152  219.7666 H   0  0  0  0  0  0  0  0  0  0  0  0
  141.5060   78.0590  219.0400 C   0  0  0  0  0  0  0  0  0  0  0  0
  141.5467   77.7346  217.9897 H   0  0  0  0  0  0  0  0  0  0  0  0
  141.8290   79.3750  219.3760 C   0  0  0  0  0  0  0  0  0  0  0  0
  142.1117   80.0902  218.5895 H   0  0  0  0  0  0  0  0  0  0  0  0
  141.7930   79.7830  220.7110 C   0  0  0  0  0  0  0  0  0  0  0  0
  142.0539   80.8186  220.9745 H   0  0  0  0  0  0  0  0  0  0  0  0
  141.4260   78.8790  221.7160 C   0  0  0  0  0  0  0  0  0  0  0  0
  141.4010   79.4740  223.5360 Br  0  0  0  0  0  0  0  0  0  0  0  0
  140.4430   74.3130  222.0000 N   0  0  0  0  0  0  0  0  0  0  0  0
  139.5980   73.1390  221.8130 C   0  0  0  0  0  0  0  0  0  0  0  0
  138.5820   73.3701  222.1655 H   0  0  0  0  0  0  0  0  0  0  0  0
  139.5928   72.8844  220.7429 H   0  0  0  0  0  0  0  0  0  0  0  0
  140.1330   71.9320  222.5920 C   0  0  0  0  0  0  0  0  0  0  0  0
  140.5021   71.1849  221.8739 H   0  0  0  0  0  0  0  0  0  0  0  0
  140.9357   72.2915  223.2527 H   0  0  0  0  0  0  0  0  0  0  0  0
  138.8560   71.1510  223.6460 S   0  0  0  0  0  0  0  0  0  0  0  0
  139.9360   69.9510  224.5050 C   0  0  0  0  0  0  0  0  0  0  0  0
  139.3935   69.0049  224.6485 H   0  0  0  0  0  0  0  0  0  0  0  0
  140.8363   69.7657  223.9007 H   0  0  0  0  0  0  0  0  0  0  0  0
  140.3320   70.5110  225.8420 C   0  0  0  0  0  0  0  0  0  0  0  0
  139.9340   69.8670  227.0240 C   0  0  0  0  0  0  0  0  0  0  0  0
  139.3527   68.9347  226.9704 H   0  0  0  0  0  0  0  0  0  0  0  0
  140.2730   70.4050  228.2690 C   0  0  0  0  0  0  0  0  0  0  0  0
  139.9640   69.8919  229.1916 H   0  0  0  0  0  0  0  0  0  0  0  0
  141.0040   71.5940  228.3430 C   0  0  0  0  0  0  0  0  0  0  0  0
  141.2759   72.0129  229.3231 H   0  0  0  0  0  0  0  0  0  0  0  0
  141.3890   72.2500  227.1710 C   0  0  0  0  0  0  0  0  0  0  0  0
  141.9588   73.1891  227.2298 H   0  0  0  0  0  0  0  0  0  0  0  0
  141.0520   71.7160  225.9240 C   0  0  0  0  0  0  0  0  0  0  0  0
  141.3509   72.2399  225.0041 H   0  0  0  0  0  0  0  0  0  0  0  0
  1  2  1  0
  2  3  1  0
  3  4  2  0
  4  5  1  0
  5  6  2  0
  6  7  1  0
  6  8  1  0
  8  9  1  0
  8 10  2  0
 10 11  1  0
 10 12  1  0
 12 13  1  0
 12 14  2  0
 14 15  1  0
  3 16  1  0
 16 17  1  0
 17 18  1  0
 17 19  1  0
 17 20  1  0
 20 21  1  0
 20 22  1  0
 20 23  1  0
 23 24  1  0
 24 25  1  0
 24 26  1  0
 24 27  1  0
 27 28  2  0
 28 29  1  0
 28 30  1  0
 30 31  1  0
 30 32  2  0
 32 33  1  0
 32 34  1  0
 34 35  1  0
 34 36  2  0
 36 37  1  0
 14  5  1  0
 36 27  1  0
M  CHG  1  16  -1
M  END
>  <UniqueID>  (15) 
8

>  <SMILES>  (15) 
O/C(=N/c1ccccc1Br)[N-]CCSCc1ccccc1

>  <Energy>  (15) 
34.23310289134896

>  <Genealogy>  (15) 
O=C([N-]CCSCc1ccccc1)Nc1ccccc1Br (protonated)
OC(=Nc1ccccc1Br)[N-]CCSCc1ccccc1 (tautomer)
O/C(=N/c1ccccc1Br)[N-]CCSCc1ccccc1 (cis-trans isomerization)
O/C(=N/c1ccccc1Br)[N-]CCSCc1ccccc1 (3D coordinates assigned)
O/C(=N/c1ccccc1Br)[N-]CCSCc1ccccc1 (optimized conformer: 34.23310289134896 kcal/mol)

>  <smiles>  (15) 
O=C(NCCSCc1ccccc1)Nc1ccccc1Br

>  <score_type>  (15) 
oracle

>  <origin>  (15) 
autodockgpu

>  <m_score__min__energy>  (15) 
-7.21

>  <m_primary>  (15) 
energy

>  <meeko>  (15) 
{"free_energy": -6.52, "intermolecular_energy": -9.2, "internal_energy": -0.59, "cluster_size": 10, "cluster_id": 2, "rank_in_cluster": 8}

>  <energy>  (15) 
-6.64

>  <cluster_rmsd>  (15) 
0.0

>  <rmsd>  (15) 
273.61

>  <cluster>  (15) 
3

$$$$
JPDCHESNUKKMJT-NIWNQZHZNA-N
     RDKit          3D

 37 38  0  0  0  0  0  0  0  0999 V2000
  139.0120   73.6420  222.8950 H   0  0  0  0  0  0  0  0  0  0  0  0
  139.9960   73.4930  222.7070 O   0  0  0  0  0  0  0  0  0  0  0  0
  140.4150   72.5720  221.7490 C   0  0  0  0  0  0  0  0  0  0  0  0
  141.0730   72.9920  220.7080 N   0  0  0  0  0  0  0  0  0  0  0  0
  142.4890   73.2270  220.6370 C   0  0  0  0  0  0  0  0  0  0  0  0
  143.4150   72.1860  220.8460 C   0  0  0  0  0  0  0  0  0  0  0  0
  143.0557   71.1626  221.0290 H   0  0  0  0  0  0  0  0  0  0  0  0
  144.7880   72.4470  220.8220 C   0  0  0  0  0  0  0  0  0  0  0  0
  145.5055   71.6279  220.9775 H   0  0  0  0  0  0  0  0  0  0  0  0
  145.2500   73.7460  220.6010 C   0  0  0  0  0  0  0  0  0  0  0  0
  146.3309   73.9475  220.5695 H   0  0  0  0  0  0  0  0  0  0  0  0
  144.3400   74.7890  220.4200 C   0  0  0  0  0  0  0  0  0  0  0  0
  144.7062   75.8129  220.2539 H   0  0  0  0  0  0  0  0  0  0  0  0
  142.9630   74.5370  220.4490 C   0  0  0  0  0  0  0  0  0  0  0  0
  141.7470   75.9970  220.2090 Br  0  0  0  0  0  0  0  0  0  0  0  0
  140.0810   71.1880  221.9010 N   0  0  0  0  0  0  0  0  0  0  0  0
  138.9230   70.7150  222.6500 C   0  0  0  0  0  0  0  0  0  0  0  0
  138.6450   71.4740  223.3960 H   0  0  0  0  0  0  0  0  0  0  0  0
  138.0992   70.5436  221.9415 H   0  0  0  0  0  0  0  0  0  0  0  0
  139.2230   69.3940  223.3700 C   0  0  0  0  0  0  0  0  0  0  0  0
  139.0567   68.5642  222.6673 H   0  0  0  0  0  0  0  0  0  0  0  0
  140.2672   69.4319  223.7137 H   0  0  0  0  0  0  0  0  0  0  0  0
  138.1640   69.1370  224.8420 S   0  0  0  0  0  0  0  0  0  0  0  0
  139.4800   68.6660  226.0220 C   0  0  0  0  0  0  0  0  0  0  0  0
  139.0411   68.0970  226.8548 H   0  0  0  0  0  0  0  0  0  0  0  0
  140.2289   68.0428  225.5114 H   0  0  0  0  0  0  0  0  0  0  0  0
  140.1350   69.9100  226.5530 C   0  0  0  0  0  0  0  0  0  0  0  0
  139.9130   70.3130  227.8800 C   0  0  0  0  0  0  0  0  0  0  0  0
  139.2795   69.7017  228.5395 H   0  0  0  0  0  0  0  0  0  0  0  0
  140.4940   71.4880  228.3660 C   0  0  0  0  0  0  0  0  0  0  0  0
  140.3210   71.7958  229.4078 H   0  0  0  0  0  0  0  0  0  0  0  0
  141.2940   72.2720  227.5310 C   0  0  0  0  0  0  0  0  0  0  0  0
  141.7573   73.1917  227.9175 H   0  0  0  0  0  0  0  0  0  0  0  0
  141.5050   71.8870  226.2050 C   0  0  0  0  0  0  0  0  0  0  0  0
  142.1282   72.5089  225.5456 H   0  0  0  0  0  0  0  0  0  0  0  0
  140.9260   70.7130  225.7140 C   0  0  0  0  0  0  0  0  0  0  0  0
  141.0902   70.4169  224.6674 H   0  0  0  0  0  0  0  0  0  0  0  0
  1  2  1  0
  2  3  1  0
  3  4  2  0
  4  5  1  0
  5  6  2  0
  6  7  1  0
  6  8  1  0
  8  9  1  0
  8 10  2  0
 10 11  1  0
 10 12  1  0
 12 13  1  0
 12 14  2  0
 14 15  1  0
  3 16  1  0
 16 17  1  0
 17 18  1  0
 17 19  1  0
 17 20  1  0
 20 21  1  0
 20 22  1  0
 20 23  1  0
 23 24  1  0
 24 25  1  0
 24 26  1  0
 24 27  1  0
 27 28  2  0
 28 29  1  0
 28 30  1  0
 30 31  1  0
 30 32  2  0
 32 33  1  0
 32 34  1  0
 34 35  1  0
 34 36  2  0
 36 37  1  0
 14  5  1  0
 36 27  1  0
M  CHG  1  16  -1
M  END
>  <UniqueID>  (16) 
8

>  <SMILES>  (16) 
O/C(=N/c1ccccc1Br)[N-]CCSCc1ccccc1

>  <Energy>  (16) 
34.23310289134896

>  <Genealogy>  (16) 
O=C([N-]CCSCc1ccccc1)Nc1ccccc1Br (protonated)
OC(=Nc1ccccc1Br)[N-]CCSCc1ccccc1 (tautomer)
O/C(=N/c1ccccc1Br)[N-]CCSCc1ccccc1 (cis-trans isomerization)
O/C(=N/c1ccccc1Br)[N-]CCSCc1ccccc1 (3D coordinates assigned)
O/C(=N/c1ccccc1Br)[N-]CCSCc1ccccc1 (optimized conformer: 34.23310289134896 kcal/mol)

>  <smiles>  (16) 
O=C(NCCSCc1ccccc1)Nc1ccccc1Br

>  <score_type>  (16) 
oracle

>  <origin>  (16) 
autodockgpu

>  <m_score__min__energy>  (16) 
-7.21

>  <m_primary>  (16) 
energy

>  <meeko>  (16) 
{"free_energy": -6.64, "intermolecular_energy": -9.32, "internal_energy": -0.8, "cluster_size": 5, "cluster_id": 3, "rank_in_cluster": 1}

>  <energy>  (16) 
-6.42

>  <cluster_rmsd>  (16) 
0.71

>  <rmsd>  (16) 
273.58

>  <cluster>  (16) 
3

$$$$
JPDCHESNUKKMJT-NIWNQZHZNA-N
     RDKit          3D

 37 38  0  0  0  0  0  0  0  0999 V2000
  142.6510   76.1700  221.1920 H   0  0  0  0  0  0  0  0  0  0  0  0
  141.8030   75.6510  221.0030 O   0  0  0  0  0  0  0  0  0  0  0  0
  140.6820   75.7810  221.8190 C   0  0  0  0  0  0  0  0  0  0  0  0
  140.2600   76.9710  222.1360 N   0  0  0  0  0  0  0  0  0  0  0  0
  141.0800   78.1280  222.3660 C   0  0  0  0  0  0  0  0  0  0  0  0
  141.4600   78.5100  223.6670 C   0  0  0  0  0  0  0  0  0  0  0  0
  141.1599   77.8940  224.5275 H   0  0  0  0  0  0  0  0  0  0  0  0
  142.2160   79.6670  223.8710 C   0  0  0  0  0  0  0  0  0  0  0  0
  142.5149   79.9546  224.8898 H   0  0  0  0  0  0  0  0  0  0  0  0
  142.5930   80.4590  222.7850 C   0  0  0  0  0  0  0  0  0  0  0  0
  143.1996   81.3623  222.9465 H   0  0  0  0  0  0  0  0  0  0  0  0
  142.1990   80.1030  221.4930 C   0  0  0  0  0  0  0  0  0  0  0  0
  142.4901   80.7318  220.6387 H   0  0  0  0  0  0  0  0  0  0  0  0
  141.4350   78.9490  221.2810 C   0  0  0  0  0  0  0  0  0  0  0  0
  140.9040   78.5030  219.4960 Br  0  0  0  0  0  0  0  0  0  0  0  0
  140.0360   74.6100  222.3310 N   0  0  0  0  0  0  0  0  0  0  0  0
  139.4040   73.6030  221.4880 C   0  0  0  0  0  0  0  0  0  0  0  0
  138.4334   73.9859  221.1398 H   0  0  0  0  0  0  0  0  0  0  0  0
  140.0704   73.3962  220.6376 H   0  0  0  0  0  0  0  0  0  0  0  0
  139.1780   72.2930  222.2530 C   0  0  0  0  0  0  0  0  0  0  0  0
  138.3583   72.4415  222.9713 H   0  0  0  0  0  0  0  0  0  0  0  0
  138.9350   71.5141  221.5152 H   0  0  0  0  0  0  0  0  0  0  0  0
  140.6680   71.7450  223.1680 S   0  0  0  0  0  0  0  0  0  0  0  0
  139.8590   70.5190  224.2570 C   0  0  0  0  0  0  0  0  0  0  0  0
  138.7666   70.6256  224.1835 H   0  0  0  0  0  0  0  0  0  0  0  0
  140.1463   69.5032  223.9478 H   0  0  0  0  0  0  0  0  0  0  0  0
  140.2930   70.7570  225.6760 C   0  0  0  0  0  0  0  0  0  0  0  0
  139.8780   69.8860  226.6970 C   0  0  0  0  0  0  0  0  0  0  0  0
  139.2561   69.0123  226.4525 H   0  0  0  0  0  0  0  0  0  0  0  0
  140.2520   70.1250  228.0220 C   0  0  0  0  0  0  0  0  0  0  0  0
  139.9295   69.4357  228.8163 H   0  0  0  0  0  0  0  0  0  0  0  0
  141.0350   71.2380  228.3400 C   0  0  0  0  0  0  0  0  0  0  0  0
  141.3344   71.4210  229.3825 H   0  0  0  0  0  0  0  0  0  0  0  0
  141.4370   72.1180  227.3320 C   0  0  0  0  0  0  0  0  0  0  0  0
  142.0475   72.9978  227.5835 H   0  0  0  0  0  0  0  0  0  0  0  0
  141.0660   71.8840  226.0060 C   0  0  0  0  0  0  0  0  0  0  0  0
  141.3796   72.5837  225.2173 H   0  0  0  0  0  0  0  0  0  0  0  0
  1  2  1  0
  2  3  1  0
  3  4  2  0
  4  5  1  0
  5  6  2  0
  6  7  1  0
  6  8  1  0
  8  9  1  0
  8 10  2  0
 10 11  1  0
 10 12  1  0
 12 13  1  0
 12 14  2  0
 14 15  1  0
  3 16  1  0
 16 17  1  0
 17 18  1  0
 17 19  1  0
 17 20  1  0
 20 21  1  0
 20 22  1  0
 20 23  1  0
 23 24  1  0
 24 25  1  0
 24 26  1  0
 24 27  1  0
 27 28  2  0
 28 29  1  0
 28 30  1  0
 30 31  1  0
 30 32  2  0
 32 33  1  0
 32 34  1  0
 34 35  1  0
 34 36  2  0
 36 37  1  0
 14  5  1  0
 36 27  1  0
M  CHG  1  16  -1
M  END
>  <UniqueID>  (17) 
8

>  <SMILES>  (17) 
O/C(=N/c1ccccc1Br)[N-]CCSCc1ccccc1

>  <Energy>  (17) 
34.23310289134896

>  <Genealogy>  (17) 
O=C([N-]CCSCc1ccccc1)Nc1ccccc1Br (protonated)
OC(=Nc1ccccc1Br)[N-]CCSCc1ccccc1 (tautomer)
O/C(=N/c1ccccc1Br)[N-]CCSCc1ccccc1 (cis-trans isomerization)
O/C(=N/c1ccccc1Br)[N-]CCSCc1ccccc1 (3D coordinates assigned)
O/C(=N/c1ccccc1Br)[N-]CCSCc1ccccc1 (optimized conformer: 34.23310289134896 kcal/mol)

>  <smiles>  (17) 
O=C(NCCSCc1ccccc1)Nc1ccccc1Br

>  <score_type>  (17) 
oracle

>  <origin>  (17) 
autodockgpu

>  <m_score__min__energy>  (17) 
-7.21

>  <m_primary>  (17) 
energy

>  <meeko>  (17) 
{"free_energy": -7.03, "intermolecular_energy": -9.72, "internal_energy": -0.59, "cluster_size": 10, "cluster_id": 2, "rank_in_cluster": 1}

>  <energy>  (17) 
-6.38

>  <cluster_rmsd>  (17) 
1.55

>  <rmsd>  (17) 
273.46

>  <cluster>  (17) 
3

$$$$
JPDCHESNUKKMJT-NIWNQZHZNA-N
     RDKit          3D

 37 38  0  0  0  0  0  0  0  0999 V2000
  142.5760   75.9420  221.3600 H   0  0  0  0  0  0  0  0  0  0  0  0
  141.8540   75.3120  221.0310 O   0  0  0  0  0  0  0  0  0  0  0  0
  140.6130   75.2480  221.6600 C   0  0  0  0  0  0  0  0  0  0  0  0
  139.8450   76.2980  221.6610 N   0  0  0  0  0  0  0  0  0  0  0  0
  140.0890   77.5250  222.3680 C   0  0  0  0  0  0  0  0  0  0  0  0
  141.3930   77.9120  222.7370 C   0  0  0  0  0  0  0  0  0  0  0  0
  142.2511   77.2872  222.4483 H   0  0  0  0  0  0  0  0  0  0  0  0
  141.6020   79.0840  223.4670 C   0  0  0  0  0  0  0  0  0  0  0  0
  142.6236   79.3834  223.7441 H   0  0  0  0  0  0  0  0  0  0  0  0
  140.5160   79.8770  223.8460 C   0  0  0  0  0  0  0  0  0  0  0  0
  140.6834   80.8063  224.4102 H   0  0  0  0  0  0  0  0  0  0  0  0
  139.2180   79.4890  223.5080 C   0  0  0  0  0  0  0  0  0  0  0  0
  138.3636   80.1108  223.8135 H   0  0  0  0  0  0  0  0  0  0  0  0
  138.9990   78.3120  222.7820 C   0  0  0  0  0  0  0  0  0  0  0  0
  137.2030   77.8090  222.3500 Br  0  0  0  0  0  0  0  0  0  0  0  0
  140.2180   74.0460  222.3300 N   0  0  0  0  0  0  0  0  0  0  0  0
  140.6720   72.7170  221.9400 C   0  0  0  0  0  0  0  0  0  0  0  0
  141.1020   72.7685  220.9289 H   0  0  0  0  0  0  0  0  0  0  0  0
  141.4246   72.3815  222.6687 H   0  0  0  0  0  0  0  0  0  0  0  0
  139.5180   71.7070  221.9400 C   0  0  0  0  0  0  0  0  0  0  0  0
  138.6338   72.1824  221.4903 H   0  0  0  0  0  0  0  0  0  0  0  0
  139.8439   70.8288  221.3633 H   0  0  0  0  0  0  0  0  0  0  0  0
  139.0830   71.1340  223.6250 S   0  0  0  0  0  0  0  0  0  0  0  0
  140.6730   71.5230  224.4420 C   0  0  0  0  0  0  0  0  0  0  0  0
  141.5039   71.1395  223.8317 H   0  0  0  0  0  0  0  0  0  0  0  0
  140.7759   72.6127  224.5514 H   0  0  0  0  0  0  0  0  0  0  0  0
  140.7030   70.8740  225.7970 C   0  0  0  0  0  0  0  0  0  0  0  0
  140.9560   71.6450  226.9430 C   0  0  0  0  0  0  0  0  0  0  0  0
  141.1061   72.7308  226.8503 H   0  0  0  0  0  0  0  0  0  0  0  0
  141.0180   71.0390  228.2010 C   0  0  0  0  0  0  0  0  0  0  0  0
  141.2104   71.6494  229.0957 H   0  0  0  0  0  0  0  0  0  0  0  0
  140.8360   69.6590  228.3240 C   0  0  0  0  0  0  0  0  0  0  0  0
  140.8784   69.1841  229.3153 H   0  0  0  0  0  0  0  0  0  0  0  0
  140.6000   68.8830  227.1860 C   0  0  0  0  0  0  0  0  0  0  0  0
  140.4636   67.7957  227.2818 H   0  0  0  0  0  0  0  0  0  0  0  0
  140.5370   69.4850  225.9270 C   0  0  0  0  0  0  0  0  0  0  0  0
  140.3567   68.8689  225.0337 H   0  0  0  0  0  0  0  0  0  0  0  0
  1  2  1  0
  2  3  1  0
  3  4  2  0
  4  5  1  0
  5  6  2  0
  6  7  1  0
  6  8  1  0
  8  9  1  0
  8 10  2  0
 10 11  1  0
 10 12  1  0
 12 13  1  0
 12 14  2  0
 14 15  1  0
  3 16  1  0
 16 17  1  0
 17 18  1  0
 17 19  1  0
 17 20  1  0
 20 21  1  0
 20 22  1  0
 20 23  1  0
 23 24  1  0
 24 25  1  0
 24 26  1  0
 24 27  1  0
 27 28  2  0
 28 29  1  0
 28 30  1  0
 30 31  1  0
 30 32  2  0
 32 33  1  0
 32 34  1  0
 34 35  1  0
 34 36  2  0
 36 37  1  0
 14  5  1  0
 36 27  1  0
M  CHG  1  16  -1
M  END
>  <UniqueID>  (18) 
8

>  <SMILES>  (18) 
O/C(=N/c1ccccc1Br)[N-]CCSCc1ccccc1

>  <Energy>  (18) 
34.23310289134896

>  <Genealogy>  (18) 
O=C([N-]CCSCc1ccccc1)Nc1ccccc1Br (protonated)
OC(=Nc1ccccc1Br)[N-]CCSCc1ccccc1 (tautomer)
O/C(=N/c1ccccc1Br)[N-]CCSCc1ccccc1 (cis-trans isomerization)
O/C(=N/c1ccccc1Br)[N-]CCSCc1ccccc1 (3D coordinates assigned)
O/C(=N/c1ccccc1Br)[N-]CCSCc1ccccc1 (optimized conformer: 34.23310289134896 kcal/mol)

>  <smiles>  (18) 
O=C(NCCSCc1ccccc1)Nc1ccccc1Br

>  <score_type>  (18) 
oracle

>  <origin>  (18) 
autodockgpu

>  <m_score__min__energy>  (18) 
-7.21

>  <m_primary>  (18) 
energy

>  <meeko>  (18) 
{"free_energy": -6.73, "intermolecular_energy": -9.41, "internal_energy": -0.64, "cluster_size": 10, "cluster_id": 2, "rank_in_cluster": 6}

>  <energy>  (18) 
-6.22

>  <cluster_rmsd>  (18) 
1.43

>  <rmsd>  (18) 
273.4

>  <cluster>  (18) 
3

$$$$
JPDCHESNUKKMJT-NIWNQZHZNA-N
     RDKit          3D

 37 38  0  0  0  0  0  0  0  0999 V2000
  137.7940   72.5560  223.5760 H   0  0  0  0  0  0  0  0  0  0  0  0
  138.4360   71.8790  223.1820 O   0  0  0  0  0  0  0  0  0  0  0  0
  139.8100   72.1040  223.1840 C   0  0  0  0  0  0  0  0  0  0  0  0
  140.5820   71.3310  223.8920 N   0  0  0  0  0  0  0  0  0  0  0  0
  140.4710   71.0860  225.3030 C   0  0  0  0  0  0  0  0  0  0  0  0
  141.1530   71.8860  226.2410 C   0  0  0  0  0  0  0  0  0  0  0  0
  141.7533   72.7411  225.8969 H   0  0  0  0  0  0  0  0  0  0  0  0
  141.0710   71.5990  227.6060 C   0  0  0  0  0  0  0  0  0  0  0  0
  141.6004   72.2328  228.3326 H   0  0  0  0  0  0  0  0  0  0  0  0
  140.3190   70.5100  228.0500 C   0  0  0  0  0  0  0  0  0  0  0  0
  140.2455   70.2933  229.1259 H   0  0  0  0  0  0  0  0  0  0  0  0
  139.6600   69.6960  227.1260 C   0  0  0  0  0  0  0  0  0  0  0  0
  139.0731   68.8341  227.4763 H   0  0  0  0  0  0  0  0  0  0  0  0
  139.7430   69.9720  225.7560 C   0  0  0  0  0  0  0  0  0  0  0  0
  138.8350   68.8230  224.5210 Br  0  0  0  0  0  0  0  0  0  0  0  0
  140.3500   73.2050  222.4440 N   0  0  0  0  0  0  0  0  0  0  0  0
  139.8860   73.5900  221.1170 C   0  0  0  0  0  0  0  0  0  0  0  0
  140.6285   73.2694  220.3714 H   0  0  0  0  0  0  0  0  0  0  0  0
  138.9156   73.1049  220.9357 H   0  0  0  0  0  0  0  0  0  0  0  0
  139.6940   75.1080  221.0090 C   0  0  0  0  0  0  0  0  0  0  0  0
  139.9288   75.4205  219.9808 H   0  0  0  0  0  0  0  0  0  0  0  0
  138.6496   75.3311  221.2726 H   0  0  0  0  0  0  0  0  0  0  0  0
  140.7680   76.0380  222.1640 S   0  0  0  0  0  0  0  0  0  0  0  0
  139.7120   77.5190  222.3550 C   0  0  0  0  0  0  0  0  0  0  0  0
  139.1927   77.7251  221.4074 H   0  0  0  0  0  0  0  0  0  0  0  0
  138.9686   77.3428  223.1464 H   0  0  0  0  0  0  0  0  0  0  0  0
  140.5710   78.6950  222.7230 C   0  0  0  0  0  0  0  0  0  0  0  0
  141.9370   78.7020  222.3950 C   0  0  0  0  0  0  0  0  0  0  0  0
  142.3718   77.8554  221.8434 H   0  0  0  0  0  0  0  0  0  0  0  0
  142.7460   79.7790  222.7660 C   0  0  0  0  0  0  0  0  0  0  0  0
  143.8136   79.7807  222.5011 H   0  0  0  0  0  0  0  0  0  0  0  0
  142.2010   80.8540  223.4730 C   0  0  0  0  0  0  0  0  0  0  0  0
  142.8376   81.7046  223.7579 H   0  0  0  0  0  0  0  0  0  0  0  0
  140.8470   80.8480  223.8180 C   0  0  0  0  0  0  0  0  0  0  0  0
  140.4200   81.6912  224.3808 H   0  0  0  0  0  0  0  0  0  0  0  0
  140.0340   79.7720  223.4490 C   0  0  0  0  0  0  0  0  0  0  0  0
  138.9700   79.7684  223.7280 H   0  0  0  0  0  0  0  0  0  0  0  0
  1  2  1  0
  2  3  1  0
  3  4  2  0
  4  5  1  0
  5  6  2  0
  6  7  1  0
  6  8  1  0
  8  9  1  0
  8 10  2  0
 10 11  1  0
 10 12  1  0
 12 13  1  0
 12 14  2  0
 14 15  1  0
  3 16  1  0
 16 17  1  0
 17 18  1  0
 17 19  1  0
 17 20  1  0
 20 21  1  0
 20 22  1  0
 20 23  1  0
 23 24  1  0
 24 25  1  0
 24 26  1  0
 24 27  1  0
 27 28  2  0
 28 29  1  0
 28 30  1  0
 30 31  1  0
 30 32  2  0
 32 33  1  0
 32 34  1  0
 34 35  1  0
 34 36  2  0
 36 37  1  0
 14  5  1  0
 36 27  1  0
M  CHG  1  16  -1
M  END
>  <UniqueID>  (19) 
8

>  <SMILES>  (19) 
O/C(=N/c1ccccc1Br)[N-]CCSCc1ccccc1

>  <Energy>  (19) 
34.23310289134896

>  <Genealogy>  (19) 
O=C([N-]CCSCc1ccccc1)Nc1ccccc1Br (protonated)
OC(=Nc1ccccc1Br)[N-]CCSCc1ccccc1 (tautomer)
O/C(=N/c1ccccc1Br)[N-]CCSCc1ccccc1 (cis-trans isomerization)
O/C(=N/c1ccccc1Br)[N-]CCSCc1ccccc1 (3D coordinates assigned)
O/C(=N/c1ccccc1Br)[N-]CCSCc1ccccc1 (optimized conformer: 34.23310289134896 kcal/mol)

>  <smiles>  (19) 
O=C(NCCSCc1ccccc1)Nc1ccccc1Br

>  <score_type>  (19) 
oracle

>  <origin>  (19) 
autodockgpu

>  <m_score__min__energy>  (19) 
-7.21

>  <m_primary>  (19) 
energy

>  <meeko>  (19) 
{"free_energy": -7.03, "intermolecular_energy": -9.71, "internal_energy": -0.56, "cluster_size": 4, "cluster_id": 1, "rank_in_cluster": 4}

>  <energy>  (19) 
-5.93

>  <cluster_rmsd>  (19) 
1.67

>  <rmsd>  (19) 
273.55

>  <cluster>  (19) 
3

$$$$
JPDCHESNUKKMJT-NIWNQZHZNA-N
     RDKit          3D

 37 38  0  0  0  0  0  0  0  0999 V2000
  142.3560   76.2640  221.5350 H   0  0  0  0  0  0  0  0  0  0  0  0
  141.4630   75.9980  221.1370 O   0  0  0  0  0  0  0  0  0  0  0  0
  140.3260   75.8850  221.9320 C   0  0  0  0  0  0  0  0  0  0  0  0
  139.7110   76.9640  222.3220 N   0  0  0  0  0  0  0  0  0  0  0  0
  140.3340   78.1820  222.7630 C   0  0  0  0  0  0  0  0  0  0  0  0
  141.7150   78.2400  223.0370 C   0  0  0  0  0  0  0  0  0  0  0  0
  142.3428   77.3513  222.8754 H   0  0  0  0  0  0  0  0  0  0  0  0
  142.2910   79.4210  223.5130 C   0  0  0  0  0  0  0  0  0  0  0  0
  143.3711   79.4614  223.7172 H   0  0  0  0  0  0  0  0  0  0  0  0
  141.4980   80.5500  223.7300 C   0  0  0  0  0  0  0  0  0  0  0  0
  141.9552   81.4824  224.0927 H   0  0  0  0  0  0  0  0  0  0  0  0
  140.1240   80.4940  223.4860 C   0  0  0  0  0  0  0  0  0  0  0  0
  139.4995   81.3819  223.6637 H   0  0  0  0  0  0  0  0  0  0  0  0
  139.5380   79.3120  223.0160 C   0  0  0  0  0  0  0  0  0  0  0  0
  137.6480   79.2730  222.7070 Br  0  0  0  0  0  0  0  0  0  0  0  0
  139.8730   74.5910  222.3440 N   0  0  0  0  0  0  0  0  0  0  0  0
  140.5050   73.3440  221.9270 C   0  0  0  0  0  0  0  0  0  0  0  0
  141.0391   73.5126  220.9803 H   0  0  0  0  0  0  0  0  0  0  0  0
  141.2016   73.0279  222.7174 H   0  0  0  0  0  0  0  0  0  0  0  0
  139.4690   72.2320  221.7240 C   0  0  0  0  0  0  0  0  0  0  0  0
  138.5460   72.6789  221.3261 H   0  0  0  0  0  0  0  0  0  0  0  0
  139.8993   71.4995  221.0253 H   0  0  0  0  0  0  0  0  0  0  0  0
  139.0700   71.3480  223.2780 S   0  0  0  0  0  0  0  0  0  0  0  0
  140.7080   71.4940  224.0800 C   0  0  0  0  0  0  0  0  0  0  0  0
  141.4312   70.8489  223.5596 H   0  0  0  0  0  0  0  0  0  0  0  0
  141.0515   72.5379  224.0315 H   0  0  0  0  0  0  0  0  0  0  0  0
  140.5950   71.0660  225.5160 C   0  0  0  0  0  0  0  0  0  0  0  0
  139.8930   69.8970  225.8510 C   0  0  0  0  0  0  0  0  0  0  0  0
  139.4481   69.2791  225.0571 H   0  0  0  0  0  0  0  0  0  0  0  0
  139.7570   69.5150  227.1880 C   0  0  0  0  0  0  0  0  0  0  0  0
  139.2102   68.5954  227.4435 H   0  0  0  0  0  0  0  0  0  0  0  0
  140.3150   70.3000  228.2020 C   0  0  0  0  0  0  0  0  0  0  0  0
  140.2146   69.9941  229.2538 H   0  0  0  0  0  0  0  0  0  0  0  0
  141.0000   71.4730  227.8770 C   0  0  0  0  0  0  0  0  0  0  0  0
  141.4323   72.0943  228.6751 H   0  0  0  0  0  0  0  0  0  0  0  0
  141.1380   71.8600  226.5410 C   0  0  0  0  0  0  0  0  0  0  0  0
  141.6728   72.7882  226.2911 H   0  0  0  0  0  0  0  0  0  0  0  0
  1  2  1  0
  2  3  1  0
  3  4  2  0
  4  5  1  0
  5  6  2  0
  6  7  1  0
  6  8  1  0
  8  9  1  0
  8 10  2  0
 10 11  1  0
 10 12  1  0
 12 13  1  0
 12 14  2  0
 14 15  1  0
  3 16  1  0
 16 17  1  0
 17 18  1  0
 17 19  1  0
 17 20  1  0
 20 21  1  0
 20 22  1  0
 20 23  1  0
 23 24  1  0
 24 25  1  0
 24 26  1  0
 24 27  1  0
 27 28  2  0
 28 29  1  0
 28 30  1  0
 30 31  1  0
 30 32  2  0
 32 33  1  0
 32 34  1  0
 34 35  1  0
 34 36  2  0
 36 37  1  0
 14  5  1  0
 36 27  1  0
M  CHG  1  16  -1
M  END
>  <UniqueID>  (20) 
8

>  <SMILES>  (20) 
O/C(=N/c1ccccc1Br)[N-]CCSCc1ccccc1

>  <Energy>  (20) 
34.23310289134896

>  <Genealogy>  (20) 
O=C([N-]CCSCc1ccccc1)Nc1ccccc1Br (protonated)
OC(=Nc1ccccc1Br)[N-]CCSCc1ccccc1 (tautomer)
O/C(=N/c1ccccc1Br)[N-]CCSCc1ccccc1 (cis-trans isomerization)
O/C(=N/c1ccccc1Br)[N-]CCSCc1ccccc1 (3D coordinates assigned)
O/C(=N/c1ccccc1Br)[N-]CCSCc1ccccc1 (optimized conformer: 34.23310289134896 kcal/mol)

>  <smiles>  (20) 
O=C(NCCSCc1ccccc1)Nc1ccccc1Br

>  <score_type>  (20) 
oracle

>  <origin>  (20) 
autodockgpu

>  <m_score__min__energy>  (20) 
-7.21

>  <m_primary>  (20) 
energy

>  <meeko>  (20) 
{"free_energy": -6.85, "intermolecular_energy": -9.53, "internal_energy": -0.57, "cluster_size": 10, "cluster_id": 2, "rank_in_cluster": 3}

>  <energy>  (20) 
-5.68

>  <cluster_rmsd>  (20) 
0.0

>  <rmsd>  (20) 
273.25

>  <cluster>  (20) 
4

$$$$
JPDCHESNUKKMJT-XXGRRPNWNA-N
     RDKit          3D

 37 38  0  0  0  0  0  0  0  0999 V2000
  138.0270   72.6080  223.5570 H   0  0  0  0  0  0  0  0  0  0  0  0
  138.6290   71.8780  223.2030 O   0  0  0  0  0  0  0  0  0  0  0  0
  140.0190   71.9080  223.3260 C   0  0  0  0  0  0  0  0  0  0  0  0
  140.6610   71.0960  224.1210 N   0  0  0  0  0  0  0  0  0  0  0  0
  140.5620   71.0190  225.5500 C   0  0  0  0  0  0  0  0  0  0  0  0
  141.1720   71.9820  226.3750 C   0  0  0  0  0  0  0  0  0  0  0  0
  141.7051   72.8313  225.9227 H   0  0  0  0  0  0  0  0  0  0  0  0
  141.1040   71.8650  227.7660 C   0  0  0  0  0  0  0  0  0  0  0  0
  141.5619   72.6342  228.4053 H   0  0  0  0  0  0  0  0  0  0  0  0
  140.4550   70.7720  228.3450 C   0  0  0  0  0  0  0  0  0  0  0  0
  140.3904   70.6877  229.4399 H   0  0  0  0  0  0  0  0  0  0  0  0
  139.8880   69.7860  227.5340 C   0  0  0  0  0  0  0  0  0  0  0  0
  139.3888   68.9195  227.9922 H   0  0  0  0  0  0  0  0  0  0  0  0
  139.9530   69.8970  226.1410 C   0  0  0  0  0  0  0  0  0  0  0  0
  139.2080   68.5000  225.0640 Br  0  0  0  0  0  0  0  0  0  0  0  0
  140.7510   72.8290  222.5110 N   0  0  0  0  0  0  0  0  0  0  0  0
  140.1280   73.7620  221.5770 C   0  0  0  0  0  0  0  0  0  0  0  0
  140.1666   73.3353  220.5638 H   0  0  0  0  0  0  0  0  0  0  0  0
  139.0858   73.9245  221.8892 H   0  0  0  0  0  0  0  0  0  0  0  0
  140.8520   75.1120  221.5790 C   0  0  0  0  0  0  0  0  0  0  0  0
  141.6449   75.0907  222.3411 H   0  0  0  0  0  0  0  0  0  0  0  0
  141.2746   75.2773  220.5769 H   0  0  0  0  0  0  0  0  0  0  0  0
  139.7060   76.4910  221.9520 S   0  0  0  0  0  0  0  0  0  0  0  0
  140.5800   77.8130  221.0330 C   0  0  0  0  0  0  0  0  0  0  0  0
  141.3219   77.3511  220.3650 H   0  0  0  0  0  0  0  0  0  0  0  0
  139.8325   78.3827  220.4614 H   0  0  0  0  0  0  0  0  0  0  0  0
  141.2860   78.7670  221.9590 C   0  0  0  0  0  0  0  0  0  0  0  0
  141.8600   79.9470  221.4570 C   0  0  0  0  0  0  0  0  0  0  0  0
  141.7852   80.1790  220.3843 H   0  0  0  0  0  0  0  0  0  0  0  0
  142.5260   80.8280  222.3150 C   0  0  0  0  0  0  0  0  0  0  0  0
  142.9669   81.7541  221.9175 H   0  0  0  0  0  0  0  0  0  0  0  0
  142.6320   80.5330  223.6770 C   0  0  0  0  0  0  0  0  0  0  0  0
  143.1532   81.2283  224.3514 H   0  0  0  0  0  0  0  0  0  0  0  0
  142.0760   79.3550  224.1820 C   0  0  0  0  0  0  0  0  0  0  0  0
  142.1662   79.1201  225.2529 H   0  0  0  0  0  0  0  0  0  0  0  0
  141.4050   78.4740  223.3280 C   0  0  0  0  0  0  0  0  0  0  0  0
  140.9685   77.5477  223.7298 H   0  0  0  0  0  0  0  0  0  0  0  0
  1  2  1  0
  2  3  1  0
  3  4  2  0
  4  5  1  0
  5  6  2  0
  6  7  1  0
  6  8  1  0
  8  9  1  0
  8 10  2  0
 10 11  1  0
 10 12  1  0
 12 13  1  0
 12 14  2  0
 14 15  1  0
  3 16  1  0
 16 17  1  0
 17 18  1  0
 17 19  1  0
 17 20  1  0
 20 21  1  0
 20 22  1  0
 20 23  1  0
 23 24  1  0
 24 25  1  0
 24 26  1  0
 24 27  1  0
 27 28  2  0
 28 29  1  0
 28 30  1  0
 30 31  1  0
 30 32  2  0
 32 33  1  0
 32 34  1  0
 34 35  1  0
 34 36  2  0
 36 37  1  0
 14  5  1  0
 36 27  1  0
M  CHG  1  16  -1
M  END
>  <UniqueID>  (21) 
9

>  <SMILES>  (21) 
O/C(=N\c1ccccc1Br)[N-]CCSCc1ccccc1

>  <Energy>  (21) 
36.377923882221964

>  <Genealogy>  (21) 
O=C([N-]CCSCc1ccccc1)Nc1ccccc1Br (protonated)
OC(=Nc1ccccc1Br)[N-]CCSCc1ccccc1 (tautomer)
O/C(=N\c1ccccc1Br)[N-]CCSCc1ccccc1 (cis-trans isomerization)
O/C(=N\c1ccccc1Br)[N-]CCSCc1ccccc1 (3D coordinates assigned)
O/C(=N\c1ccccc1Br)[N-]CCSCc1ccccc1 (optimized conformer: 36.377923882221964 kcal/mol)

>  <smiles>  (21) 
O=C(NCCSCc1ccccc1)Nc1ccccc1Br

>  <score_type>  (21) 
oracle

>  <origin>  (21) 
autodockgpu

>  <m_score__min__energy>  (21) 
-7.2699999999999996

>  <m_primary>  (21) 
energy

>  <meeko>  (21) 
{"free_energy": -7.27, "intermolecular_energy": -9.95, "internal_energy": -0.55, "cluster_size": 5, "cluster_id": 1, "rank_in_cluster": 1}

>  <energy>  (21) 
-7.27

>  <cluster_rmsd>  (21) 
0.0

>  <rmsd>  (21) 
272.95

>  <cluster>  (21) 
1

$$$$
JPDCHESNUKKMJT-XXGRRPNWNA-N
     RDKit          3D

 37 38  0  0  0  0  0  0  0  0999 V2000
  142.6860   76.0610  221.2110 H   0  0  0  0  0  0  0  0  0  0  0  0
  141.8300   75.5390  221.0770 O   0  0  0  0  0  0  0  0  0  0  0  0
  140.7190   75.6710  221.9110 C   0  0  0  0  0  0  0  0  0  0  0  0
  140.3080   76.8330  222.3380 N   0  0  0  0  0  0  0  0  0  0  0  0
  141.0850   78.0310  222.4870 C   0  0  0  0  0  0  0  0  0  0  0  0
  141.4470   78.5100  223.7590 C   0  0  0  0  0  0  0  0  0  0  0  0
  141.1635   77.9434  224.6582 H   0  0  0  0  0  0  0  0  0  0  0  0
  142.1650   79.7020  223.8860 C   0  0  0  0  0  0  0  0  0  0  0  0
  142.4668   80.0582  224.8820 H   0  0  0  0  0  0  0  0  0  0  0  0
  142.5000   80.4420  222.7490 C   0  0  0  0  0  0  0  0  0  0  0  0
  143.0761   81.3738  222.8490 H   0  0  0  0  0  0  0  0  0  0  0  0
  142.1030   79.9980  221.4850 C   0  0  0  0  0  0  0  0  0  0  0  0
  142.3565   80.5883  220.5921 H   0  0  0  0  0  0  0  0  0  0  0  0
  141.3840   78.8050  221.3510 C   0  0  0  0  0  0  0  0  0  0  0  0
  140.8150   78.2570  219.6070 Br  0  0  0  0  0  0  0  0  0  0  0  0
  139.9890   74.4890  222.2570 N   0  0  0  0  0  0  0  0  0  0  0  0
  140.4880   73.1340  222.0470 C   0  0  0  0  0  0  0  0  0  0  0  0
  141.1005   73.1143  221.1335 H   0  0  0  0  0  0  0  0  0  0  0  0
  141.0885   72.8435  222.9216 H   0  0  0  0  0  0  0  0  0  0  0  0
  139.3340   72.1380  221.8970 C   0  0  0  0  0  0  0  0  0  0  0  0
  138.4200   72.6883  221.6291 H   0  0  0  0  0  0  0  0  0  0  0  0
  139.6023   71.4162  221.1115 H   0  0  0  0  0  0  0  0  0  0  0  0
  139.0370   71.2120  223.4490 S   0  0  0  0  0  0  0  0  0  0  0  0
  140.6500   71.5290  224.2560 C   0  0  0  0  0  0  0  0  0  0  0  0
  141.4419   71.0346  223.6743 H   0  0  0  0  0  0  0  0  0  0  0  0
  140.8051   72.6174  224.2920 H   0  0  0  0  0  0  0  0  0  0  0  0
  140.6840   71.0060  225.6670 C   0  0  0  0  0  0  0  0  0  0  0  0
  141.0040   71.8650  226.7330 C   0  0  0  0  0  0  0  0  0  0  0  0
  141.2214   72.9251  226.5359 H   0  0  0  0  0  0  0  0  0  0  0  0
  141.0470   71.3770  228.0430 C   0  0  0  0  0  0  0  0  0  0  0  0
  141.2906   72.0554  228.8739 H   0  0  0  0  0  0  0  0  0  0  0  0
  140.7810   70.0290  228.2980 C   0  0  0  0  0  0  0  0  0  0  0  0
  140.8124   69.6473  229.3292 H   0  0  0  0  0  0  0  0  0  0  0  0
  140.4750   69.1660  227.2420 C   0  0  0  0  0  0  0  0  0  0  0  0
  140.2723   68.1036  227.4427 H   0  0  0  0  0  0  0  0  0  0  0  0
  140.4260   69.6500  225.9310 C   0  0  0  0  0  0  0  0  0  0  0  0
  140.1846   68.9669  225.1033 H   0  0  0  0  0  0  0  0  0  0  0  0
  1  2  1  0
  2  3  1  0
  3  4  2  0
  4  5  1  0
  5  6  2  0
  6  7  1  0
  6  8  1  0
  8  9  1  0
  8 10  2  0
 10 11  1  0
 10 12  1  0
 12 13  1  0
 12 14  2  0
 14 15  1  0
  3 16  1  0
 16 17  1  0
 17 18  1  0
 17 19  1  0
 17 20  1  0
 20 21  1  0
 20 22  1  0
 20 23  1  0
 23 24  1  0
 24 25  1  0
 24 26  1  0
 24 27  1  0
 27 28  2  0
 28 29  1  0
 28 30  1  0
 30 31  1  0
 30 32  2  0
 32 33  1  0
 32 34  1  0
 34 35  1  0
 34 36  2  0
 36 37  1  0
 14  5  1  0
 36 27  1  0
M  CHG  1  16  -1
M  END
>  <UniqueID>  (22) 
9

>  <SMILES>  (22) 
O/C(=N\c1ccccc1Br)[N-]CCSCc1ccccc1

>  <Energy>  (22) 
36.377923882221964

>  <Genealogy>  (22) 
O=C([N-]CCSCc1ccccc1)Nc1ccccc1Br (protonated)
OC(=Nc1ccccc1Br)[N-]CCSCc1ccccc1 (tautomer)
O/C(=N\c1ccccc1Br)[N-]CCSCc1ccccc1 (cis-trans isomerization)
O/C(=N\c1ccccc1Br)[N-]CCSCc1ccccc1 (3D coordinates assigned)
O/C(=N\c1ccccc1Br)[N-]CCSCc1ccccc1 (optimized conformer: 36.377923882221964 kcal/mol)

>  <smiles>  (22) 
O=C(NCCSCc1ccccc1)Nc1ccccc1Br

>  <score_type>  (22) 
oracle

>  <origin>  (22) 
autodockgpu

>  <m_score__min__energy>  (22) 
-7.2699999999999996

>  <m_primary>  (22) 
energy

>  <meeko>  (22) 
{"free_energy": -7.02, "intermolecular_energy": -9.7, "internal_energy": -0.58, "cluster_size": 11, "cluster_id": 2, "rank_in_cluster": 1}

>  <energy>  (22) 
-7.26

>  <cluster_rmsd>  (22) 
0.5

>  <rmsd>  (22) 
272.88

>  <cluster>  (22) 
1

$$$$
JPDCHESNUKKMJT-XXGRRPNWNA-N
     RDKit          3D

 37 38  0  0  0  0  0  0  0  0999 V2000
  138.7080   74.3190  223.0850 H   0  0  0  0  0  0  0  0  0  0  0  0
  139.0370   75.0400  222.4580 O   0  0  0  0  0  0  0  0  0  0  0  0
  140.2750   74.9850  221.8140 C   0  0  0  0  0  0  0  0  0  0  0  0
  140.7630   76.0050  221.1650 N   0  0  0  0  0  0  0  0  0  0  0  0
  141.2120   77.2530  221.7150 C   0  0  0  0  0  0  0  0  0  0  0  0
  141.0450   77.5480  223.0810 C   0  0  0  0  0  0  0  0  0  0  0  0
  140.5960   76.8006  223.7517 H   0  0  0  0  0  0  0  0  0  0  0  0
  141.4470   78.7860  223.5890 C   0  0  0  0  0  0  0  0  0  0  0  0
  141.3365   79.0016  224.6620 H   0  0  0  0  0  0  0  0  0  0  0  0
  141.9890   79.7500  222.7360 C   0  0  0  0  0  0  0  0  0  0  0  0
  142.3166   80.7195  223.1393 H   0  0  0  0  0  0  0  0  0  0  0  0
  142.1150   79.4830  221.3710 C   0  0  0  0  0  0  0  0  0  0  0  0
  142.5304   80.2485  220.6991 H   0  0  0  0  0  0  0  0  0  0  0  0
  141.7150   78.2460  220.8550 C   0  0  0  0  0  0  0  0  0  0  0  0
  141.8570   77.9370  218.9700 Br  0  0  0  0  0  0  0  0  0  0  0  0
  141.0410   73.7800  221.9240 N   0  0  0  0  0  0  0  0  0  0  0  0
  140.6410   72.6320  222.7310 C   0  0  0  0  0  0  0  0  0  0  0  0
  141.3835   71.8300  222.6068 H   0  0  0  0  0  0  0  0  0  0  0  0
  140.5842   72.9486  223.7829 H   0  0  0  0  0  0  0  0  0  0  0  0
  139.2650   72.1090  222.3070 C   0  0  0  0  0  0  0  0  0  0  0  0
  138.6190   72.9642  222.0595 H   0  0  0  0  0  0  0  0  0  0  0  0
  139.4006   71.4531  221.4345 H   0  0  0  0  0  0  0  0  0  0  0  0
  138.4740   71.1330  223.6390 S   0  0  0  0  0  0  0  0  0  0  0  0
  139.9760   70.3050  224.2830 C   0  0  0  0  0  0  0  0  0  0  0  0
  139.8204   69.2163  224.2583 H   0  0  0  0  0  0  0  0  0  0  0  0
  140.8257   70.5983  223.6490 H   0  0  0  0  0  0  0  0  0  0  0  0
  140.2830   70.7210  225.6970 C   0  0  0  0  0  0  0  0  0  0  0  0
  139.7620   69.9910  226.7790 C   0  0  0  0  0  0  0  0  0  0  0  0
  139.1350   69.1067  226.5924 H   0  0  0  0  0  0  0  0  0  0  0  0
  140.0380   70.3850  228.0920 C   0  0  0  0  0  0  0  0  0  0  0  0
  139.6339   69.8057  228.9353 H   0  0  0  0  0  0  0  0  0  0  0  0
  140.8260   71.5130  228.3350 C   0  0  0  0  0  0  0  0  0  0  0  0
  141.0438   71.8197  229.3687 H   0  0  0  0  0  0  0  0  0  0  0  0
  141.3370   72.2510  227.2650 C   0  0  0  0  0  0  0  0  0  0  0  0
  141.9523   73.1424  227.4571 H   0  0  0  0  0  0  0  0  0  0  0  0
  141.0680   71.8590  225.9500 C   0  0  0  0  0  0  0  0  0  0  0  0
  141.4723   72.4435  225.1104 H   0  0  0  0  0  0  0  0  0  0  0  0
  1  2  1  0
  2  3  1  0
  3  4  2  0
  4  5  1  0
  5  6  2  0
  6  7  1  0
  6  8  1  0
  8  9  1  0
  8 10  2  0
 10 11  1  0
 10 12  1  0
 12 13  1  0
 12 14  2  0
 14 15  1  0
  3 16  1  0
 16 17  1  0
 17 18  1  0
 17 19  1  0
 17 20  1  0
 20 21  1  0
 20 22  1  0
 20 23  1  0
 23 24  1  0
 24 25  1  0
 24 26  1  0
 24 27  1  0
 27 28  2  0
 28 29  1  0
 28 30  1  0
 30 31  1  0
 30 32  2  0
 32 33  1  0
 32 34  1  0
 34 35  1  0
 34 36  2  0
 36 37  1  0
 14  5  1  0
 36 27  1  0
M  CHG  1  16  -1
M  END
>  <UniqueID>  (23) 
9

>  <SMILES>  (23) 
O/C(=N\c1ccccc1Br)[N-]CCSCc1ccccc1

>  <Energy>  (23) 
36.377923882221964

>  <Genealogy>  (23) 
O=C([N-]CCSCc1ccccc1)Nc1ccccc1Br (protonated)
OC(=Nc1ccccc1Br)[N-]CCSCc1ccccc1 (tautomer)
O/C(=N\c1ccccc1Br)[N-]CCSCc1ccccc1 (cis-trans isomerization)
O/C(=N\c1ccccc1Br)[N-]CCSCc1ccccc1 (3D coordinates assigned)
O/C(=N\c1ccccc1Br)[N-]CCSCc1ccccc1 (optimized conformer: 36.377923882221964 kcal/mol)

>  <smiles>  (23) 
O=C(NCCSCc1ccccc1)Nc1ccccc1Br

>  <score_type>  (23) 
oracle

>  <origin>  (23) 
autodockgpu

>  <m_score__min__energy>  (23) 
-7.2699999999999996

>  <m_primary>  (23) 
energy

>  <meeko>  (23) 
{"free_energy": -6.69, "intermolecular_energy": -9.37, "internal_energy": -0.69, "cluster_size": 11, "cluster_id": 2, "rank_in_cluster": 8}

>  <energy>  (23) 
-7.23

>  <cluster_rmsd>  (23) 
0.88

>  <rmsd>  (23) 
273.01

>  <cluster>  (23) 
1

$$$$
JPDCHESNUKKMJT-XXGRRPNWNA-N
     RDKit          3D

 37 38  0  0  0  0  0  0  0  0999 V2000
  139.2060   73.8930  222.9840 H   0  0  0  0  0  0  0  0  0  0  0  0
  139.9530   74.1500  222.3530 O   0  0  0  0  0  0  0  0  0  0  0  0
  140.2530   73.4320  221.1940 C   0  0  0  0  0  0  0  0  0  0  0  0
  141.1530   73.8380  220.3420 N   0  0  0  0  0  0  0  0  0  0  0  0
  142.5730   73.6380  220.4140 C   0  0  0  0  0  0  0  0  0  0  0  0
  143.1140   72.4100  220.8390 C   0  0  0  0  0  0  0  0  0  0  0  0
  142.4444   71.5733  221.0872 H   0  0  0  0  0  0  0  0  0  0  0  0
  144.4980   72.2490  220.9470 C   0  0  0  0  0  0  0  0  0  0  0  0
  144.9160   71.2795  221.2560 H   0  0  0  0  0  0  0  0  0  0  0  0
  145.3510   73.3180  220.6630 C   0  0  0  0  0  0  0  0  0  0  0  0
  146.4406   73.1864  220.7363 H   0  0  0  0  0  0  0  0  0  0  0  0
  144.8210   74.5540  220.2860 C   0  0  0  0  0  0  0  0  0  0  0  0
  145.4945   75.3975  220.0740 H   0  0  0  0  0  0  0  0  0  0  0  0
  143.4360   74.7230  220.1770 C   0  0  0  0  0  0  0  0  0  0  0  0
  142.7460   76.4460  219.7070 Br  0  0  0  0  0  0  0  0  0  0  0  0
  139.5790   72.1880  220.9760 N   0  0  0  0  0  0  0  0  0  0  0  0
  140.1380   70.8860  221.3270 C   0  0  0  0  0  0  0  0  0  0  0  0
  140.3855   70.3409  220.4042 H   0  0  0  0  0  0  0  0  0  0  0  0
  141.0401   71.0462  221.9358 H   0  0  0  0  0  0  0  0  0  0  0  0
  139.1410   70.0590  222.1440 C   0  0  0  0  0  0  0  0  0  0  0  0
  138.2388   69.8877  221.5385 H   0  0  0  0  0  0  0  0  0  0  0  0
  139.6219   69.1064  222.4111 H   0  0  0  0  0  0  0  0  0  0  0  0
  138.6640   70.9140  223.6930 S   0  0  0  0  0  0  0  0  0  0  0  0
  140.3440   71.3580  224.2730 C   0  0  0  0  0  0  0  0  0  0  0  0
  141.0853   70.8663  223.6259 H   0  0  0  0  0  0  0  0  0  0  0  0
  140.4424   72.4526  224.2275 H   0  0  0  0  0  0  0  0  0  0  0  0
  140.5780   70.9270  225.6960 C   0  0  0  0  0  0  0  0  0  0  0  0
  140.9000   71.8770  226.6810 C   0  0  0  0  0  0  0  0  0  0  0  0
  140.9728   72.9412  226.4125 H   0  0  0  0  0  0  0  0  0  0  0  0
  141.1280   71.4750  228.0000 C   0  0  0  0  0  0  0  0  0  0  0  0
  141.3716   72.2240  228.7679 H   0  0  0  0  0  0  0  0  0  0  0  0
  141.0470   70.1230  228.3450 C   0  0  0  0  0  0  0  0  0  0  0  0
  141.2249   69.8090  229.3841 H   0  0  0  0  0  0  0  0  0  0  0  0
  140.7400   69.1700  227.3700 C   0  0  0  0  0  0  0  0  0  0  0  0
  140.6824   68.1055  227.6412 H   0  0  0  0  0  0  0  0  0  0  0  0
  140.5060   69.5680  226.0500 C   0  0  0  0  0  0  0  0  0  0  0  0
  140.2646   68.8149  225.2855 H   0  0  0  0  0  0  0  0  0  0  0  0
  1  2  1  0
  2  3  1  0
  3  4  2  0
  4  5  1  0
  5  6  2  0
  6  7  1  0
  6  8  1  0
  8  9  1  0
  8 10  2  0
 10 11  1  0
 10 12  1  0
 12 13  1  0
 12 14  2  0
 14 15  1  0
  3 16  1  0
 16 17  1  0
 17 18  1  0
 17 19  1  0
 17 20  1  0
 20 21  1  0
 20 22  1  0
 20 23  1  0
 23 24  1  0
 24 25  1  0
 24 26  1  0
 24 27  1  0
 27 28  2  0
 28 29  1  0
 28 30  1  0
 30 31  1  0
 30 32  2  0
 32 33  1  0
 32 34  1  0
 34 35  1  0
 34 36  2  0
 36 37  1  0
 14  5  1  0
 36 27  1  0
M  CHG  1  16  -1
M  END
>  <UniqueID>  (24) 
9

>  <SMILES>  (24) 
O/C(=N\c1ccccc1Br)[N-]CCSCc1ccccc1

>  <Energy>  (24) 
36.377923882221964

>  <Genealogy>  (24) 
O=C([N-]CCSCc1ccccc1)Nc1ccccc1Br (protonated)
OC(=Nc1ccccc1Br)[N-]CCSCc1ccccc1 (tautomer)
O/C(=N\c1ccccc1Br)[N-]CCSCc1ccccc1 (cis-trans isomerization)
O/C(=N\c1ccccc1Br)[N-]CCSCc1ccccc1 (3D coordinates assigned)
O/C(=N\c1ccccc1Br)[N-]CCSCc1ccccc1 (optimized conformer: 36.377923882221964 kcal/mol)

>  <smiles>  (24) 
O=C(NCCSCc1ccccc1)Nc1ccccc1Br

>  <score_type>  (24) 
oracle

>  <origin>  (24) 
autodockgpu

>  <m_score__min__energy>  (24) 
-7.2699999999999996

>  <m_primary>  (24) 
energy

>  <meeko>  (24) 
{"free_energy": -6.29, "intermolecular_energy": -8.98, "internal_energy": -0.99, "cluster_size": 3, "cluster_id": 3, "rank_in_cluster": 3}

>  <energy>  (24) 
-7.06

>  <cluster_rmsd>  (24) 
0.48

>  <rmsd>  (24) 
272.83

>  <cluster>  (24) 
1

$$$$
JPDCHESNUKKMJT-XXGRRPNWNA-N
     RDKit          3D

 37 38  0  0  0  0  0  0  0  0999 V2000
  138.4050   75.2160  223.1300 H   0  0  0  0  0  0  0  0  0  0  0  0
  138.9260   75.9390  222.6520 O   0  0  0  0  0  0  0  0  0  0  0  0
  140.1150   75.6930  221.9640 C   0  0  0  0  0  0  0  0  0  0  0  0
  140.7680   76.6400  221.3490 N   0  0  0  0  0  0  0  0  0  0  0  0
  141.3130   77.8370  221.9260 C   0  0  0  0  0  0  0  0  0  0  0  0
  141.3490   78.0210  223.3200 C   0  0  0  0  0  0  0  0  0  0  0  0
  140.9884   77.2242  223.9872 H   0  0  0  0  0  0  0  0  0  0  0  0
  141.8410   79.2120  223.8610 C   0  0  0  0  0  0  0  0  0  0  0  0
  141.8903   79.3405  224.9524 H   0  0  0  0  0  0  0  0  0  0  0  0
  142.2700   80.2390  223.0180 C   0  0  0  0  0  0  0  0  0  0  0  0
  142.6686   81.1709  223.4453 H   0  0  0  0  0  0  0  0  0  0  0  0
  142.1930   80.0830  221.6320 C   0  0  0  0  0  0  0  0  0  0  0  0
  142.5197   80.8983  220.9699 H   0  0  0  0  0  0  0  0  0  0  0  0
  141.7020   78.8940  221.0830 C   0  0  0  0  0  0  0  0  0  0  0  0
  141.5650   78.7380  219.1790 Br  0  0  0  0  0  0  0  0  0  0  0  0
  140.6470   74.3640  221.9860 N   0  0  0  0  0  0  0  0  0  0  0  0
  139.8340   73.1640  222.1600 C   0  0  0  0  0  0  0  0  0  0  0  0
  139.1174   73.3312  222.9777 H   0  0  0  0  0  0  0  0  0  0  0  0
  139.3051   72.9612  221.2171 H   0  0  0  0  0  0  0  0  0  0  0  0
  140.7050   71.9510  222.4990 C   0  0  0  0  0  0  0  0  0  0  0  0
  141.4548   71.8169  221.7054 H   0  0  0  0  0  0  0  0  0  0  0  0
  141.1889   72.1353  223.4695 H   0  0  0  0  0  0  0  0  0  0  0  0
  139.7060   70.4210  222.6380 S   0  0  0  0  0  0  0  0  0  0  0  0
  138.7620   70.8620  224.1440 C   0  0  0  0  0  0  0  0  0  0  0  0
  138.5706   71.9452  224.1395 H   0  0  0  0  0  0  0  0  0  0  0  0
  137.8203   70.2935  224.1354 H   0  0  0  0  0  0  0  0  0  0  0  0
  139.5120   70.5050  225.4000 C   0  0  0  0  0  0  0  0  0  0  0  0
  140.3490   71.4500  226.0180 C   0  0  0  0  0  0  0  0  0  0  0  0
  140.4498   72.4573  225.5877 H   0  0  0  0  0  0  0  0  0  0  0  0
  141.0540   71.1140  227.1780 C   0  0  0  0  0  0  0  0  0  0  0  0
  141.7015   71.8600  227.6619 H   0  0  0  0  0  0  0  0  0  0  0  0
  140.9380   69.8330  227.7240 C   0  0  0  0  0  0  0  0  0  0  0  0
  141.4917   69.5719  228.6379 H   0  0  0  0  0  0  0  0  0  0  0  0
  140.1180   68.8840  227.1080 C   0  0  0  0  0  0  0  0  0  0  0  0
  140.0317   67.8736  227.5343 H   0  0  0  0  0  0  0  0  0  0  0  0
  139.4070   69.2160  225.9510 C   0  0  0  0  0  0  0  0  0  0  0  0
  138.7627   68.4655  225.4698 H   0  0  0  0  0  0  0  0  0  0  0  0
  1  2  1  0
  2  3  1  0
  3  4  2  0
  4  5  1  0
  5  6  2  0
  6  7  1  0
  6  8  1  0
  8  9  1  0
  8 10  2  0
 10 11  1  0
 10 12  1  0
 12 13  1  0
 12 14  2  0
 14 15  1  0
  3 16  1  0
 16 17  1  0
 17 18  1  0
 17 19  1  0
 17 20  1  0
 20 21  1  0
 20 22  1  0
 20 23  1  0
 23 24  1  0
 24 25  1  0
 24 26  1  0
 24 27  1  0
 27 28  2  0
 28 29  1  0
 28 30  1  0
 30 31  1  0
 30 32  2  0
 32 33  1  0
 32 34  1  0
 34 35  1  0
 34 36  2  0
 36 37  1  0
 14  5  1  0
 36 27  1  0
M  CHG  1  16  -1
M  END
>  <UniqueID>  (25) 
9

>  <SMILES>  (25) 
O/C(=N\c1ccccc1Br)[N-]CCSCc1ccccc1

>  <Energy>  (25) 
36.377923882221964

>  <Genealogy>  (25) 
O=C([N-]CCSCc1ccccc1)Nc1ccccc1Br (protonated)
OC(=Nc1ccccc1Br)[N-]CCSCc1ccccc1 (tautomer)
O/C(=N\c1ccccc1Br)[N-]CCSCc1ccccc1 (cis-trans isomerization)
O/C(=N\c1ccccc1Br)[N-]CCSCc1ccccc1 (3D coordinates assigned)
O/C(=N\c1ccccc1Br)[N-]CCSCc1ccccc1 (optimized conformer: 36.377923882221964 kcal/mol)

>  <smiles>  (25) 
O=C(NCCSCc1ccccc1)Nc1ccccc1Br

>  <score_type>  (25) 
oracle

>  <origin>  (25) 
autodockgpu

>  <m_score__min__energy>  (25) 
-7.2699999999999996

>  <m_primary>  (25) 
energy

>  <meeko>  (25) 
{"free_energy": -6.46, "intermolecular_energy": -9.14, "internal_energy": -0.58, "cluster_size": 11, "cluster_id": 2, "rank_in_cluster": 11}

>  <energy>  (25) 
-6.93

>  <cluster_rmsd>  (25) 
1.37

>  <rmsd>  (25) 
272.58

>  <cluster>  (25) 
1

$$$$
JPDCHESNUKKMJT-XXGRRPNWNA-N
     RDKit          3D

 37 38  0  0  0  0  0  0  0  0999 V2000
  137.9980   72.5760  223.6220 H   0  0  0  0  0  0  0  0  0  0  0  0
  138.6040   71.8740  223.2190 O   0  0  0  0  0  0  0  0  0  0  0  0
  139.9960   71.9240  223.3100 C   0  0  0  0  0  0  0  0  0  0  0  0
  140.6670   71.1310  224.0980 N   0  0  0  0  0  0  0  0  0  0  0  0
  140.5660   71.0340  225.5270 C   0  0  0  0  0  0  0  0  0  0  0  0
  141.1920   71.9750  226.3650 C   0  0  0  0  0  0  0  0  0  0  0  0
  141.7397   72.8214  225.9249 H   0  0  0  0  0  0  0  0  0  0  0  0
  141.1210   71.8390  227.7550 C   0  0  0  0  0  0  0  0  0  0  0  0
  141.5920   72.5904  228.4059 H   0  0  0  0  0  0  0  0  0  0  0  0
  140.4520   70.7490  228.3170 C   0  0  0  0  0  0  0  0  0  0  0  0
  140.3853   70.6494  229.4105 H   0  0  0  0  0  0  0  0  0  0  0  0
  139.8680   69.7860  227.4920 C   0  0  0  0  0  0  0  0  0  0  0  0
  139.3524   68.9225  227.9377 H   0  0  0  0  0  0  0  0  0  0  0  0
  139.9360   69.9150  226.1010 C   0  0  0  0  0  0  0  0  0  0  0  0
  139.1660   68.5470  225.0040 Br  0  0  0  0  0  0  0  0  0  0  0  0
  140.6960   72.8450  222.4660 N   0  0  0  0  0  0  0  0  0  0  0  0
  140.0540   73.6570  221.4370 C   0  0  0  0  0  0  0  0  0  0  0  0
  140.7933   73.9031  220.6605 H   0  0  0  0  0  0  0  0  0  0  0  0
  139.2198   73.0821  221.0085 H   0  0  0  0  0  0  0  0  0  0  0  0
  139.4970   74.9560  222.0270 C   0  0  0  0  0  0  0  0  0  0  0  0
  138.5779   75.2278  221.4872 H   0  0  0  0  0  0  0  0  0  0  0  0
  139.2910   74.7882  223.0944 H   0  0  0  0  0  0  0  0  0  0  0  0
  140.6980   76.3310  221.8850 S   0  0  0  0  0  0  0  0  0  0  0  0
  139.6900   77.6410  222.6750 C   0  0  0  0  0  0  0  0  0  0  0  0
  138.8872   77.9376  221.9839 H   0  0  0  0  0  0  0  0  0  0  0  0
  139.2776   77.2363  223.6110 H   0  0  0  0  0  0  0  0  0  0  0  0
  140.5140   78.8550  223.0140 C   0  0  0  0  0  0  0  0  0  0  0  0
  140.0100   80.1430  222.7700 C   0  0  0  0  0  0  0  0  0  0  0  0
  139.0058   80.2655  222.3381 H   0  0  0  0  0  0  0  0  0  0  0  0
  140.7800   81.2710  223.0740 C   0  0  0  0  0  0  0  0  0  0  0  0
  140.3774   82.2776  222.8878 H   0  0  0  0  0  0  0  0  0  0  0  0
  142.0600   81.1200  223.6140 C   0  0  0  0  0  0  0  0  0  0  0  0
  142.6629   82.0076  223.8564 H   0  0  0  0  0  0  0  0  0  0  0  0
  142.5740   79.8420  223.8460 C   0  0  0  0  0  0  0  0  0  0  0  0
  143.5847   79.7243  224.2638 H   0  0  0  0  0  0  0  0  0  0  0  0
  141.8060   78.7120  223.5480 C   0  0  0  0  0  0  0  0  0  0  0  0
  142.2147   77.7075  223.7323 H   0  0  0  0  0  0  0  0  0  0  0  0
  1  2  1  0
  2  3  1  0
  3  4  2  0
  4  5  1  0
  5  6  2  0
  6  7  1  0
  6  8  1  0
  8  9  1  0
  8 10  2  0
 10 11  1  0
 10 12  1  0
 12 13  1  0
 12 14  2  0
 14 15  1  0
  3 16  1  0
 16 17  1  0
 17 18  1  0
 17 19  1  0
 17 20  1  0
 20 21  1  0
 20 22  1  0
 20 23  1  0
 23 24  1  0
 24 25  1  0
 24 26  1  0
 24 27  1  0
 27 28  2  0
 28 29  1  0
 28 30  1  0
 30 31  1  0
 30 32  2  0
 32 33  1  0
 32 34  1  0
 34 35  1  0
 34 36  2  0
 36 37  1  0
 14  5  1  0
 36 27  1  0
M  CHG  1  16  -1
M  END
>  <UniqueID>  (26) 
9

>  <SMILES>  (26) 
O/C(=N\c1ccccc1Br)[N-]CCSCc1ccccc1

>  <Energy>  (26) 
36.377923882221964

>  <Genealogy>  (26) 
O=C([N-]CCSCc1ccccc1)Nc1ccccc1Br (protonated)
OC(=Nc1ccccc1Br)[N-]CCSCc1ccccc1 (tautomer)
O/C(=N\c1ccccc1Br)[N-]CCSCc1ccccc1 (cis-trans isomerization)
O/C(=N\c1ccccc1Br)[N-]CCSCc1ccccc1 (3D coordinates assigned)
O/C(=N\c1ccccc1Br)[N-]CCSCc1ccccc1 (optimized conformer: 36.377923882221964 kcal/mol)

>  <smiles>  (26) 
O=C(NCCSCc1ccccc1)Nc1ccccc1Br

>  <score_type>  (26) 
oracle

>  <origin>  (26) 
autodockgpu

>  <m_score__min__energy>  (26) 
-7.2699999999999996

>  <m_primary>  (26) 
energy

>  <meeko>  (26) 
{"free_energy": -7.23, "intermolecular_energy": -9.91, "internal_energy": -0.55, "cluster_size": 5, "cluster_id": 1, "rank_in_cluster": 3}

>  <energy>  (26) 
-7.02

>  <cluster_rmsd>  (26) 
0.0

>  <rmsd>  (26) 
272.91

>  <cluster>  (26) 
2

$$$$
JPDCHESNUKKMJT-XXGRRPNWNA-N
     RDKit          3D

 37 38  0  0  0  0  0  0  0  0999 V2000
  142.1620   76.3380  221.8860 H   0  0  0  0  0  0  0  0  0  0  0  0
  141.3790   75.7590  222.1550 O   0  0  0  0  0  0  0  0  0  0  0  0
  141.0210   74.5940  221.4730 C   0  0  0  0  0  0  0  0  0  0  0  0
  141.6960   74.1590  220.4460 N   0  0  0  0  0  0  0  0  0  0  0  0
  143.0530   73.6910  220.4300 C   0  0  0  0  0  0  0  0  0  0  0  0
  144.1330   74.5900  220.5080 C   0  0  0  0  0  0  0  0  0  0  0  0
  143.9411   75.6674  220.6191 H   0  0  0  0  0  0  0  0  0  0  0  0
  145.4480   74.1210  220.4450 C   0  0  0  0  0  0  0  0  0  0  0  0
  146.2879   74.8262  220.5301 H   0  0  0  0  0  0  0  0  0  0  0  0
  145.6960   72.7570  220.2740 C   0  0  0  0  0  0  0  0  0  0  0  0
  146.7312   72.3867  220.2378 H   0  0  0  0  0  0  0  0  0  0  0  0
  144.6300   71.8630  220.1490 C   0  0  0  0  0  0  0  0  0  0  0  0
  144.8282   70.7910  220.0021 H   0  0  0  0  0  0  0  0  0  0  0  0
  143.3110   72.3260  220.2100 C   0  0  0  0  0  0  0  0  0  0  0  0
  141.8780   71.0770  219.9840 Br  0  0  0  0  0  0  0  0  0  0  0  0
  139.9070   73.8400  221.9620 N   0  0  0  0  0  0  0  0  0  0  0  0
  140.0320   72.5920  222.7070 C   0  0  0  0  0  0  0  0  0  0  0  0
  140.9910   72.1169  222.4530 H   0  0  0  0  0  0  0  0  0  0  0  0
  139.9859   72.8215  223.7818 H   0  0  0  0  0  0  0  0  0  0  0  0
  138.8910   71.6280  222.3670 C   0  0  0  0  0  0  0  0  0  0  0  0
  137.9847   72.2112  222.1470 H   0  0  0  0  0  0  0  0  0  0  0  0
  139.1947   71.0296  221.4954 H   0  0  0  0  0  0  0  0  0  0  0  0
  138.5390   70.4830  223.7530 S   0  0  0  0  0  0  0  0  0  0  0  0
  140.2620   70.2190  224.3160 C   0  0  0  0  0  0  0  0  0  0  0  0
  140.4885   69.1433  224.2759 H   0  0  0  0  0  0  0  0  0  0  0  0
  140.9289   70.7892  223.6526 H   0  0  0  0  0  0  0  0  0  0  0  0
  140.4730   70.7090  225.7240 C   0  0  0  0  0  0  0  0  0  0  0  0
  141.2420   71.8590  225.9660 C   0  0  0  0  0  0  0  0  0  0  0  0
  141.6842   72.4097  225.1227 H   0  0  0  0  0  0  0  0  0  0  0  0
  141.4480   72.3070  227.2750 C   0  0  0  0  0  0  0  0  0  0  0  0
  142.0462   73.2118  227.4579 H   0  0  0  0  0  0  0  0  0  0  0  0
  140.8950   71.6070  228.3510 C   0  0  0  0  0  0  0  0  0  0  0  0
  141.0548   71.9627  229.3796 H   0  0  0  0  0  0  0  0  0  0  0  0
  140.1390   70.4550  228.1190 C   0  0  0  0  0  0  0  0  0  0  0  0
  139.7089   69.9009  228.9664 H   0  0  0  0  0  0  0  0  0  0  0  0
  139.9280   70.0050  226.8120 C   0  0  0  0  0  0  0  0  0  0  0  0
  139.3333   69.0968  226.6345 H   0  0  0  0  0  0  0  0  0  0  0  0
  1  2  1  0
  2  3  1  0
  3  4  2  0
  4  5  1  0
  5  6  2  0
  6  7  1  0
  6  8  1  0
  8  9  1  0
  8 10  2  0
 10 11  1  0
 10 12  1  0
 12 13  1  0
 12 14  2  0
 14 15  1  0
  3 16  1  0
 16 17  1  0
 17 18  1  0
 17 19  1  0
 17 20  1  0
 20 21  1  0
 20 22  1  0
 20 23  1  0
 23 24  1  0
 24 25  1  0
 24 26  1  0
 24 27  1  0
 27 28  2  0
 28 29  1  0
 28 30  1  0
 30 31  1  0
 30 32  2  0
 32 33  1  0
 32 34  1  0
 34 35  1  0
 34 36  2  0
 36 37  1  0
 14  5  1  0
 36 27  1  0
M  CHG  1  16  -1
M  END
>  <UniqueID>  (27) 
9

>  <SMILES>  (27) 
O/C(=N\c1ccccc1Br)[N-]CCSCc1ccccc1

>  <Energy>  (27) 
36.377923882221964

>  <Genealogy>  (27) 
O=C([N-]CCSCc1ccccc1)Nc1ccccc1Br (protonated)
OC(=Nc1ccccc1Br)[N-]CCSCc1ccccc1 (tautomer)
O/C(=N\c1ccccc1Br)[N-]CCSCc1ccccc1 (cis-trans isomerization)
O/C(=N\c1ccccc1Br)[N-]CCSCc1ccccc1 (3D coordinates assigned)
O/C(=N\c1ccccc1Br)[N-]CCSCc1ccccc1 (optimized conformer: 36.377923882221964 kcal/mol)

>  <smiles>  (27) 
O=C(NCCSCc1ccccc1)Nc1ccccc1Br

>  <score_type>  (27) 
oracle

>  <origin>  (27) 
autodockgpu

>  <m_score__min__energy>  (27) 
-7.2699999999999996

>  <m_primary>  (27) 
energy

>  <meeko>  (27) 
{"free_energy": -6.33, "intermolecular_energy": -9.02, "internal_energy": -0.98, "cluster_size": 3, "cluster_id": 3, "rank_in_cluster": 2}

>  <energy>  (27) 
-6.89

>  <cluster_rmsd>  (27) 
1.43

>  <rmsd>  (27) 
273.05

>  <cluster>  (27) 
2

$$$$
JPDCHESNUKKMJT-XXGRRPNWNA-N
     RDKit          3D

 37 38  0  0  0  0  0  0  0  0999 V2000
  142.5390   76.0630  221.3250 H   0  0  0  0  0  0  0  0  0  0  0  0
  141.6710   75.5560  221.2150 O   0  0  0  0  0  0  0  0  0  0  0  0
  140.5170   75.8530  221.9410 C   0  0  0  0  0  0  0  0  0  0  0  0
  140.1600   77.0800  222.2030 N   0  0  0  0  0  0  0  0  0  0  0  0
  141.0190   78.2140  222.3940 C   0  0  0  0  0  0  0  0  0  0  0  0
  141.4000   78.6280  223.6840 C   0  0  0  0  0  0  0  0  0  0  0  0
  141.0669   78.0569  224.5631 H   0  0  0  0  0  0  0  0  0  0  0  0
  142.2000   79.7620  223.8530 C   0  0  0  0  0  0  0  0  0  0  0  0
  142.5156   80.0664  224.8618 H   0  0  0  0  0  0  0  0  0  0  0  0
  142.5990   80.5090  222.7420 C   0  0  0  0  0  0  0  0  0  0  0  0
  143.2384   81.3941  222.8752 H   0  0  0  0  0  0  0  0  0  0  0  0
  142.1860   80.1320  221.4620 C   0  0  0  0  0  0  0  0  0  0  0  0
  142.4913   80.7283  220.5896 H   0  0  0  0  0  0  0  0  0  0  0  0
  141.3850   78.9980  221.2860 C   0  0  0  0  0  0  0  0  0  0  0  0
  140.7980   78.5440  219.5200 Br  0  0  0  0  0  0  0  0  0  0  0  0
  139.6840   74.7680  222.3600 N   0  0  0  0  0  0  0  0  0  0  0  0
  139.2090   73.7140  221.4690 C   0  0  0  0  0  0  0  0  0  0  0  0
  138.1263   73.5834  221.6128 H   0  0  0  0  0  0  0  0  0  0  0  0
  139.4297   74.0083  220.4323 H   0  0  0  0  0  0  0  0  0  0  0  0
  139.9150   72.3860  221.7570 C   0  0  0  0  0  0  0  0  0  0  0  0
  139.8008   71.7248  220.8854 H   0  0  0  0  0  0  0  0  0  0  0  0
  140.9764   72.5966  221.9543 H   0  0  0  0  0  0  0  0  0  0  0  0
  139.2130   71.5540  223.2300 S   0  0  0  0  0  0  0  0  0  0  0  0
  140.7800   71.2390  224.1240 C   0  0  0  0  0  0  0  0  0  0  0  0
  141.2633   70.3502  223.6923 H   0  0  0  0  0  0  0  0  0  0  0  0
  141.4184   72.1284  224.0172 H   0  0  0  0  0  0  0  0  0  0  0  0
  140.5500   71.0030  225.5930 C   0  0  0  0  0  0  0  0  0  0  0  0
  139.8170   69.8840  226.0240 C   0  0  0  0  0  0  0  0  0  0  0  0
  139.4178   69.1734  225.2853 H   0  0  0  0  0  0  0  0  0  0  0  0
  139.5930   69.6700  227.3870 C   0  0  0  0  0  0  0  0  0  0  0  0
  139.0254   68.7879  227.7182 H   0  0  0  0  0  0  0  0  0  0  0  0
  140.0890   70.5750  228.3300 C   0  0  0  0  0  0  0  0  0  0  0  0
  139.9135   70.4041  229.4024 H   0  0  0  0  0  0  0  0  0  0  0  0
  140.8080   71.6970  227.9090 C   0  0  0  0  0  0  0  0  0  0  0  0
  141.1929   72.4124  228.6507 H   0  0  0  0  0  0  0  0  0  0  0  0
  141.0390   71.9120  226.5470 C   0  0  0  0  0  0  0  0  0  0  0  0
  141.6059   72.7964  226.2206 H   0  0  0  0  0  0  0  0  0  0  0  0
  1  2  1  0
  2  3  1  0
  3  4  2  0
  4  5  1  0
  5  6  2  0
  6  7  1  0
  6  8  1  0
  8  9  1  0
  8 10  2  0
 10 11  1  0
 10 12  1  0
 12 13  1  0
 12 14  2  0
 14 15  1  0
  3 16  1  0
 16 17  1  0
 17 18  1  0
 17 19  1  0
 17 20  1  0
 20 21  1  0
 20 22  1  0
 20 23  1  0
 23 24  1  0
 24 25  1  0
 24 26  1  0
 24 27  1  0
 27 28  2  0
 28 29  1  0
 28 30  1  0
 30 31  1  0
 30 32  2  0
 32 33  1  0
 32 34  1  0
 34 35  1  0
 34 36  2  0
 36 37  1  0
 14  5  1  0
 36 27  1  0
M  CHG  1  16  -1
M  END
>  <UniqueID>  (28) 
9

>  <SMILES>  (28) 
O/C(=N\c1ccccc1Br)[N-]CCSCc1ccccc1

>  <Energy>  (28) 
36.377923882221964

>  <Genealogy>  (28) 
O=C([N-]CCSCc1ccccc1)Nc1ccccc1Br (protonated)
OC(=Nc1ccccc1Br)[N-]CCSCc1ccccc1 (tautomer)
O/C(=N\c1ccccc1Br)[N-]CCSCc1ccccc1 (cis-trans isomerization)
O/C(=N\c1ccccc1Br)[N-]CCSCc1ccccc1 (3D coordinates assigned)
O/C(=N\c1ccccc1Br)[N-]CCSCc1ccccc1 (optimized conformer: 36.377923882221964 kcal/mol)

>  <smiles>  (28) 
O=C(NCCSCc1ccccc1)Nc1ccccc1Br

>  <score_type>  (28) 
oracle

>  <origin>  (28) 
autodockgpu

>  <m_score__min__energy>  (28) 
-7.2699999999999996

>  <m_primary>  (28) 
energy

>  <meeko>  (28) 
{"free_energy": -6.85, "intermolecular_energy": -9.53, "internal_energy": -0.6, "cluster_size": 11, "cluster_id": 2, "rank_in_cluster": 3}

>  <energy>  (28) 
-6.85

>  <cluster_rmsd>  (28) 
0.53

>  <rmsd>  (28) 
272.82

>  <cluster>  (28) 
2

$$$$
JPDCHESNUKKMJT-XXGRRPNWNA-N
     RDKit          3D

 37 38  0  0  0  0  0  0  0  0999 V2000
  142.6240   75.9590  221.2270 H   0  0  0  0  0  0  0  0  0  0  0  0
  141.8940   75.2670  221.1270 O   0  0  0  0  0  0  0  0  0  0  0  0
  140.6190   75.4180  221.6750 C   0  0  0  0  0  0  0  0  0  0  0  0
  139.9450   76.5290  221.5660 N   0  0  0  0  0  0  0  0  0  0  0  0
  140.1550   77.7490  222.2910 C   0  0  0  0  0  0  0  0  0  0  0  0
  141.4490   78.1660  222.6550 C   0  0  0  0  0  0  0  0  0  0  0  0
  142.3220   77.5699  222.3509 H   0  0  0  0  0  0  0  0  0  0  0  0
  141.6300   79.3340  223.4010 C   0  0  0  0  0  0  0  0  0  0  0  0
  142.6454   79.6686  223.6601 H   0  0  0  0  0  0  0  0  0  0  0  0
  140.5230   80.0770  223.8180 C   0  0  0  0  0  0  0  0  0  0  0  0
  140.6673   81.0022  224.3952 H   0  0  0  0  0  0  0  0  0  0  0  0
  139.2330   79.6450  223.5020 C   0  0  0  0  0  0  0  0  0  0  0  0
  138.3623   80.2251  223.8416 H   0  0  0  0  0  0  0  0  0  0  0  0
  139.0440   78.4770  222.7550 C   0  0  0  0  0  0  0  0  0  0  0  0
  137.2590   77.8910  222.3860 Br  0  0  0  0  0  0  0  0  0  0  0  0
  140.0280   74.2910  222.3310 N   0  0  0  0  0  0  0  0  0  0  0  0
  139.0250   73.4260  221.7180 C   0  0  0  0  0  0  0  0  0  0  0  0
  138.0513   73.9375  221.7346 H   0  0  0  0  0  0  0  0  0  0  0  0
  139.3331   73.2132  220.6837 H   0  0  0  0  0  0  0  0  0  0  0  0
  138.9050   72.0980  222.4720 C   0  0  0  0  0  0  0  0  0  0  0  0
  138.2370   72.2367  223.3349 H   0  0  0  0  0  0  0  0  0  0  0  0
  138.5015   71.3448  221.7792 H   0  0  0  0  0  0  0  0  0  0  0  0
  140.5340   71.5110  223.0700 S   0  0  0  0  0  0  0  0  0  0  0  0
  139.9360   70.3120  224.3190 C   0  0  0  0  0  0  0  0  0  0  0  0
  138.8418   70.2316  224.2397 H   0  0  0  0  0  0  0  0  0  0  0  0
  140.4196   69.3439  224.1218 H   0  0  0  0  0  0  0  0  0  0  0  0
  140.2930   70.7360  225.7190 C   0  0  0  0  0  0  0  0  0  0  0  0
  141.1070   71.8610  225.9330 C   0  0  0  0  0  0  0  0  0  0  0  0
  141.4775   72.4404  225.0745 H   0  0  0  0  0  0  0  0  0  0  0  0
  141.4480   72.2470  227.2330 C   0  0  0  0  0  0  0  0  0  0  0  0
  142.0798   73.1328  227.3946 H   0  0  0  0  0  0  0  0  0  0  0  0
  140.9880   71.5100  228.3270 C   0  0  0  0  0  0  0  0  0  0  0  0
  141.2557   71.8170  229.3488 H   0  0  0  0  0  0  0  0  0  0  0  0
  140.1880   70.3830  228.1230 C   0  0  0  0  0  0  0  0  0  0  0  0
  139.8305   69.8000  228.9846 H   0  0  0  0  0  0  0  0  0  0  0  0
  139.8410   69.9950  226.8250 C   0  0  0  0  0  0  0  0  0  0  0  0
  139.2118   69.1064  226.6687 H   0  0  0  0  0  0  0  0  0  0  0  0
  1  2  1  0
  2  3  1  0
  3  4  2  0
  4  5  1  0
  5  6  2  0
  6  7  1  0
  6  8  1  0
  8  9  1  0
  8 10  2  0
 10 11  1  0
 10 12  1  0
 12 13  1  0
 12 14  2  0
 14 15  1  0
  3 16  1  0
 16 17  1  0
 17 18  1  0
 17 19  1  0
 17 20  1  0
 20 21  1  0
 20 22  1  0
 20 23  1  0
 23 24  1  0
 24 25  1  0
 24 26  1  0
 24 27  1  0
 27 28  2  0
 28 29  1  0
 28 30  1  0
 30 31  1  0
 30 32  2  0
 32 33  1  0
 32 34  1  0
 34 35  1  0
 34 36  2  0
 36 37  1  0
 14  5  1  0
 36 27  1  0
M  CHG  1  16  -1
M  END
>  <UniqueID>  (29) 
9

>  <SMILES>  (29) 
O/C(=N\c1ccccc1Br)[N-]CCSCc1ccccc1

>  <Energy>  (29) 
36.377923882221964

>  <Genealogy>  (29) 
O=C([N-]CCSCc1ccccc1)Nc1ccccc1Br (protonated)
OC(=Nc1ccccc1Br)[N-]CCSCc1ccccc1 (tautomer)
O/C(=N\c1ccccc1Br)[N-]CCSCc1ccccc1 (cis-trans isomerization)
O/C(=N\c1ccccc1Br)[N-]CCSCc1ccccc1 (3D coordinates assigned)
O/C(=N\c1ccccc1Br)[N-]CCSCc1ccccc1 (optimized conformer: 36.377923882221964 kcal/mol)

>  <smiles>  (29) 
O=C(NCCSCc1ccccc1)Nc1ccccc1Br

>  <score_type>  (29) 
oracle

>  <origin>  (29) 
autodockgpu

>  <m_score__min__energy>  (29) 
-7.2699999999999996

>  <m_primary>  (29) 
energy

>  <meeko>  (29) 
{"free_energy": -6.67, "intermolecular_energy": -9.36, "internal_energy": -0.67, "cluster_size": 11, "cluster_id": 2, "rank_in_cluster": 9}

>  <energy>  (29) 
-6.77

>  <cluster_rmsd>  (29) 
1.5

>  <rmsd>  (29) 
272.71

>  <cluster>  (29) 
2

$$$$
JPDCHESNUKKMJT-XXGRRPNWNA-N
     RDKit          3D

 37 38  0  0  0  0  0  0  0  0999 V2000
  138.4730   73.9830  223.0720 H   0  0  0  0  0  0  0  0  0  0  0  0
  138.6490   74.6400  222.3240 O   0  0  0  0  0  0  0  0  0  0  0  0
  139.9120   74.8360  221.7630 C   0  0  0  0  0  0  0  0  0  0  0  0
  140.2120   75.9130  221.0910 N   0  0  0  0  0  0  0  0  0  0  0  0
  140.7070   77.1550  221.6130 C   0  0  0  0  0  0  0  0  0  0  0  0
  140.1010   77.7720  222.7220 C   0  0  0  0  0  0  0  0  0  0  0  0
  139.2543   77.2823  223.2253 H   0  0  0  0  0  0  0  0  0  0  0  0
  140.5680   79.0030  223.1880 C   0  0  0  0  0  0  0  0  0  0  0  0
  140.1048   79.4682  224.0706 H   0  0  0  0  0  0  0  0  0  0  0  0
  141.6230   79.6440  222.5340 C   0  0  0  0  0  0  0  0  0  0  0  0
  141.9987   80.6074  222.9092 H   0  0  0  0  0  0  0  0  0  0  0  0
  142.2010   79.0610  221.4030 C   0  0  0  0  0  0  0  0  0  0  0  0
  143.0234   79.5729  220.8818 H   0  0  0  0  0  0  0  0  0  0  0  0
  141.7370   77.8290  220.9320 C   0  0  0  0  0  0  0  0  0  0  0  0
  142.5210   77.0870  219.3490 Br  0  0  0  0  0  0  0  0  0  0  0  0
  140.9130   73.8370  221.9850 N   0  0  0  0  0  0  0  0  0  0  0  0
  140.6510   72.5470  222.6150 C   0  0  0  0  0  0  0  0  0  0  0  0
  141.4177   71.8273  222.2922 H   0  0  0  0  0  0  0  0  0  0  0  0
  140.6798   72.6793  223.7066 H   0  0  0  0  0  0  0  0  0  0  0  0
  139.2680   72.0130  222.2260 C   0  0  0  0  0  0  0  0  0  0  0  0
  138.6210   72.8606  221.9559 H   0  0  0  0  0  0  0  0  0  0  0  0
  139.3910   71.3262  221.3756 H   0  0  0  0  0  0  0  0  0  0  0  0
  138.4910   71.0870  223.6030 S   0  0  0  0  0  0  0  0  0  0  0  0
  140.0000   70.2810  224.2590 C   0  0  0  0  0  0  0  0  0  0  0  0
  139.8610   69.1901  224.2330 H   0  0  0  0  0  0  0  0  0  0  0  0
  140.8507   70.5862  223.6320 H   0  0  0  0  0  0  0  0  0  0  0  0
  140.2880   70.7020  225.6760 C   0  0  0  0  0  0  0  0  0  0  0  0
  139.7550   69.9750  226.7530 C   0  0  0  0  0  0  0  0  0  0  0  0
  139.1318   69.0893  226.5606 H   0  0  0  0  0  0  0  0  0  0  0  0
  140.0130   70.3720  228.0690 C   0  0  0  0  0  0  0  0  0  0  0  0
  139.5985   69.7943  228.9083 H   0  0  0  0  0  0  0  0  0  0  0  0
  140.7970   71.5020  228.3190 C   0  0  0  0  0  0  0  0  0  0  0  0
  141.0014   71.8117  229.3545 H   0  0  0  0  0  0  0  0  0  0  0  0
  141.3210   72.2380  227.2530 C   0  0  0  0  0  0  0  0  0  0  0  0
  141.9325   73.1308  227.4502 H   0  0  0  0  0  0  0  0  0  0  0  0
  141.0690   71.8410  225.9350 C   0  0  0  0  0  0  0  0  0  0  0  0
  141.4838   72.4227  225.0986 H   0  0  0  0  0  0  0  0  0  0  0  0
  1  2  1  0
  2  3  1  0
  3  4  2  0
  4  5  1  0
  5  6  2  0
  6  7  1  0
  6  8  1  0
  8  9  1  0
  8 10  2  0
 10 11  1  0
 10 12  1  0
 12 13  1  0
 12 14  2  0
 14 15  1  0
  3 16  1  0
 16 17  1  0
 17 18  1  0
 17 19  1  0
 17 20  1  0
 20 21  1  0
 20 22  1  0
 20 23  1  0
 23 24  1  0
 24 25  1  0
 24 26  1  0
 24 27  1  0
 27 28  2  0
 28 29  1  0
 28 30  1  0
 30 31  1  0
 30 32  2  0
 32 33  1  0
 32 34  1  0
 34 35  1  0
 34 36  2  0
 36 37  1  0
 14  5  1  0
 36 27  1  0
M  CHG  1  16  -1
M  END
>  <UniqueID>  (30) 
9

>  <SMILES>  (30) 
O/C(=N\c1ccccc1Br)[N-]CCSCc1ccccc1

>  <Energy>  (30) 
36.377923882221964

>  <Genealogy>  (30) 
O=C([N-]CCSCc1ccccc1)Nc1ccccc1Br (protonated)
OC(=Nc1ccccc1Br)[N-]CCSCc1ccccc1 (tautomer)
O/C(=N\c1ccccc1Br)[N-]CCSCc1ccccc1 (cis-trans isomerization)
O/C(=N\c1ccccc1Br)[N-]CCSCc1ccccc1 (3D coordinates assigned)
O/C(=N\c1ccccc1Br)[N-]CCSCc1ccccc1 (optimized conformer: 36.377923882221964 kcal/mol)

>  <smiles>  (30) 
O=C(NCCSCc1ccccc1)Nc1ccccc1Br

>  <score_type>  (30) 
oracle

>  <origin>  (30) 
autodockgpu

>  <m_score__min__energy>  (30) 
-7.2699999999999996

>  <m_primary>  (30) 
energy

>  <meeko>  (30) 
{"free_energy": -6.53, "intermolecular_energy": -9.22, "internal_energy": -0.65, "cluster_size": 11, "cluster_id": 2, "rank_in_cluster": 10}

>  <energy>  (30) 
-6.73

>  <cluster_rmsd>  (30) 
1.46

>  <rmsd>  (30) 
272.8

>  <cluster>  (30) 
2

$$$$
JPDCHESNUKKMJT-XXGRRPNWNA-N
     RDKit          3D

 37 38  0  0  0  0  0  0  0  0999 V2000
  137.6770   73.8430  223.0240 H   0  0  0  0  0  0  0  0  0  0  0  0
  137.9060   74.4080  222.2180 O   0  0  0  0  0  0  0  0  0  0  0  0
  139.1790   74.9370  221.9940 C   0  0  0  0  0  0  0  0  0  0  0  0
  139.3560   76.1450  221.5370 N   0  0  0  0  0  0  0  0  0  0  0  0
  139.7660   77.3040  222.2770 C   0  0  0  0  0  0  0  0  0  0  0  0
  141.1060   77.4820  222.6680 C   0  0  0  0  0  0  0  0  0  0  0  0
  141.8647   76.7418  222.3738 H   0  0  0  0  0  0  0  0  0  0  0  0
  141.4780   78.5940  223.4280 C   0  0  0  0  0  0  0  0  0  0  0  0
  142.5314   78.7399  223.7090 H   0  0  0  0  0  0  0  0  0  0  0  0
  140.5140   79.5200  223.8310 C   0  0  0  0  0  0  0  0  0  0  0  0
  140.8097   80.4013  224.4191 H   0  0  0  0  0  0  0  0  0  0  0  0
  139.1730   79.3270  223.4870 C   0  0  0  0  0  0  0  0  0  0  0  0
  138.4132   80.0515  223.8152 H   0  0  0  0  0  0  0  0  0  0  0  0
  138.7940   78.2160  222.7270 C   0  0  0  0  0  0  0  0  0  0  0  0
  136.9410   77.9600  222.3200 Br  0  0  0  0  0  0  0  0  0  0  0  0
  140.3140   74.1310  222.3300 N   0  0  0  0  0  0  0  0  0  0  0  0
  140.6810   72.9070  221.6250 C   0  0  0  0  0  0  0  0  0  0  0  0
  140.9187   73.1524  220.5794 H   0  0  0  0  0  0  0  0  0  0  0  0
  141.5538   72.4637  222.1267 H   0  0  0  0  0  0  0  0  0  0  0  0
  139.5360   71.8890  221.6520 C   0  0  0  0  0  0  0  0  0  0  0  0
  138.6784   72.3016  221.1004 H   0  0  0  0  0  0  0  0  0  0  0  0
  139.8918   70.9584  221.1858 H   0  0  0  0  0  0  0  0  0  0  0  0
  139.0130   71.5080  223.3660 S   0  0  0  0  0  0  0  0  0  0  0  0
  140.6700   71.4850  224.1460 C   0  0  0  0  0  0  0  0  0  0  0  0
  141.2984   70.7478  223.6247 H   0  0  0  0  0  0  0  0  0  0  0  0
  141.0977   72.4955  224.0685 H   0  0  0  0  0  0  0  0  0  0  0  0
  140.5980   71.1190  225.6040 C   0  0  0  0  0  0  0  0  0  0  0  0
  139.9760   69.9240  226.0050 C   0  0  0  0  0  0  0  0  0  0  0  0
  139.5481   69.2489  225.2493 H   0  0  0  0  0  0  0  0  0  0  0  0
  139.8990   69.5900  227.3600 C   0  0  0  0  0  0  0  0  0  0  0  0
  139.4178   68.6496  227.6669 H   0  0  0  0  0  0  0  0  0  0  0  0
  140.4320   70.4480  228.3260 C   0  0  0  0  0  0  0  0  0  0  0  0
  140.3724   70.1817  229.3916 H   0  0  0  0  0  0  0  0  0  0  0  0
  141.0410   71.6450  227.9370 C   0  0  0  0  0  0  0  0  0  0  0  0
  141.4546   72.3234  228.6977 H   0  0  0  0  0  0  0  0  0  0  0  0
  141.1250   71.9810  226.5820 C   0  0  0  0  0  0  0  0  0  0  0  0
  141.6053   72.9234  226.2801 H   0  0  0  0  0  0  0  0  0  0  0  0
  1  2  1  0
  2  3  1  0
  3  4  2  0
  4  5  1  0
  5  6  2  0
  6  7  1  0
  6  8  1  0
  8  9  1  0
  8 10  2  0
 10 11  1  0
 10 12  1  0
 12 13  1  0
 12 14  2  0
 14 15  1  0
  3 16  1  0
 16 17  1  0
 17 18  1  0
 17 19  1  0
 17 20  1  0
 20 21  1  0
 20 22  1  0
 20 23  1  0
 23 24  1  0
 24 25  1  0
 24 26  1  0
 24 27  1  0
 27 28  2  0
 28 29  1  0
 28 30  1  0
 30 31  1  0
 30 32  2  0
 32 33  1  0
 32 34  1  0
 34 35  1  0
 34 36  2  0
 36 37  1  0
 14  5  1  0
 36 27  1  0
M  CHG  1  16  -1
M  END
>  <UniqueID>  (31) 
9

>  <SMILES>  (31) 
O/C(=N\c1ccccc1Br)[N-]CCSCc1ccccc1

>  <Energy>  (31) 
36.377923882221964

>  <Genealogy>  (31) 
O=C([N-]CCSCc1ccccc1)Nc1ccccc1Br (protonated)
OC(=Nc1ccccc1Br)[N-]CCSCc1ccccc1 (tautomer)
O/C(=N\c1ccccc1Br)[N-]CCSCc1ccccc1 (cis-trans isomerization)
O/C(=N\c1ccccc1Br)[N-]CCSCc1ccccc1 (3D coordinates assigned)
O/C(=N\c1ccccc1Br)[N-]CCSCc1ccccc1 (optimized conformer: 36.377923882221964 kcal/mol)

>  <smiles>  (31) 
O=C(NCCSCc1ccccc1)Nc1ccccc1Br

>  <score_type>  (31) 
oracle

>  <origin>  (31) 
autodockgpu

>  <m_score__min__energy>  (31) 
-7.2699999999999996

>  <m_primary>  (31) 
energy

>  <meeko>  (31) 
{"free_energy": -6.45, "intermolecular_energy": -9.13, "internal_energy": -0.89, "cluster_size": 1, "cluster_id": 4, "rank_in_cluster": 1}

>  <energy>  (31) 
-6.72

>  <cluster_rmsd>  (31) 
1.32

>  <rmsd>  (31) 
272.8

>  <cluster>  (31) 
2

$$$$
JPDCHESNUKKMJT-XXGRRPNWNA-N
     RDKit          3D

 37 38  0  0  0  0  0  0  0  0999 V2000
  137.9160   72.5440  223.4740 H   0  0  0  0  0  0  0  0  0  0  0  0
  138.5810   71.8510  223.1580 O   0  0  0  0  0  0  0  0  0  0  0  0
  139.9570   71.9650  223.3660 C   0  0  0  0  0  0  0  0  0  0  0  0
  140.6170   71.1220  224.1110 N   0  0  0  0  0  0  0  0  0  0  0  0
  140.5600   70.9930  225.5390 C   0  0  0  0  0  0  0  0  0  0  0  0
  141.2040   71.9190  226.3790 C   0  0  0  0  0  0  0  0  0  0  0  0
  141.7324   72.7790  225.9419 H   0  0  0  0  0  0  0  0  0  0  0  0
  141.1760   71.7520  227.7670 C   0  0  0  0  0  0  0  0  0  0  0  0
  141.6603   72.4931  228.4198 H   0  0  0  0  0  0  0  0  0  0  0  0
  140.5330   70.6440  228.3250 C   0  0  0  0  0  0  0  0  0  0  0  0
  140.5006   70.5194  229.4174 H   0  0  0  0  0  0  0  0  0  0  0  0
  139.9310   69.6940  227.4950 C   0  0  0  0  0  0  0  0  0  0  0  0
  139.4360   68.8161  227.9357 H   0  0  0  0  0  0  0  0  0  0  0  0
  139.9560   69.8560  226.1060 C   0  0  0  0  0  0  0  0  0  0  0  0
  139.1650   68.5060  225.0020 Br  0  0  0  0  0  0  0  0  0  0  0  0
  140.6580   73.0150  222.6910 N   0  0  0  0  0  0  0  0  0  0  0  0
  140.9260   73.0260  221.2570 C   0  0  0  0  0  0  0  0  0  0  0  0
  141.8455   72.4555  221.0594 H   0  0  0  0  0  0  0  0  0  0  0  0
  140.0687   72.5715  220.7388 H   0  0  0  0  0  0  0  0  0  0  0  0
  141.1040   74.4560  220.7380 C   0  0  0  0  0  0  0  0  0  0  0  0
  142.1682   74.6258  220.5176 H   0  0  0  0  0  0  0  0  0  0  0  0
  140.4915   74.5716  219.8316 H   0  0  0  0  0  0  0  0  0  0  0  0
  140.5470   75.6940  221.9670 S   0  0  0  0  0  0  0  0  0  0  0  0
  141.0090   77.2060  221.0420 C   0  0  0  0  0  0  0  0  0  0  0  0
  141.8293   76.9632  220.3505 H   0  0  0  0  0  0  0  0  0  0  0  0
  140.1207   77.5564  220.4959 H   0  0  0  0  0  0  0  0  0  0  0  0
  141.4580   78.3110  221.9610 C   0  0  0  0  0  0  0  0  0  0  0  0
  141.4170   78.1330  223.3540 C   0  0  0  0  0  0  0  0  0  0  0  0
  141.0642   77.1797  223.7744 H   0  0  0  0  0  0  0  0  0  0  0  0
  141.8230   79.1630  224.2080 C   0  0  0  0  0  0  0  0  0  0  0  0
  141.7951   79.0156  225.2977 H   0  0  0  0  0  0  0  0  0  0  0  0
  142.2640   80.3790  223.6800 C   0  0  0  0  0  0  0  0  0  0  0  0
  142.5860   81.1867  224.3537 H   0  0  0  0  0  0  0  0  0  0  0  0
  142.2960   80.5690  222.2960 C   0  0  0  0  0  0  0  0  0  0  0  0
  142.6367   81.5290  221.8807 H   0  0  0  0  0  0  0  0  0  0  0  0
  141.8950   79.5390  221.4380 C   0  0  0  0  0  0  0  0  0  0  0  0
  141.9222   79.6918  220.3490 H   0  0  0  0  0  0  0  0  0  0  0  0
  1  2  1  0
  2  3  1  0
  3  4  2  0
  4  5  1  0
  5  6  2  0
  6  7  1  0
  6  8  1  0
  8  9  1  0
  8 10  2  0
 10 11  1  0
 10 12  1  0
 12 13  1  0
 12 14  2  0
 14 15  1  0
  3 16  1  0
 16 17  1  0
 17 18  1  0
 17 19  1  0
 17 20  1  0
 20 21  1  0
 20 22  1  0
 20 23  1  0
 23 24  1  0
 24 25  1  0
 24 26  1  0
 24 27  1  0
 27 28  2  0
 28 29  1  0
 28 30  1  0
 30 31  1  0
 30 32  2  0
 32 33  1  0
 32 34  1  0
 34 35  1  0
 34 36  2  0
 36 37  1  0
 14  5  1  0
 36 27  1  0
M  CHG  1  16  -1
M  END
>  <UniqueID>  (32) 
9

>  <SMILES>  (32) 
O/C(=N\c1ccccc1Br)[N-]CCSCc1ccccc1

>  <Energy>  (32) 
36.377923882221964

>  <Genealogy>  (32) 
O=C([N-]CCSCc1ccccc1)Nc1ccccc1Br (protonated)
OC(=Nc1ccccc1Br)[N-]CCSCc1ccccc1 (tautomer)
O/C(=N\c1ccccc1Br)[N-]CCSCc1ccccc1 (cis-trans isomerization)
O/C(=N\c1ccccc1Br)[N-]CCSCc1ccccc1 (3D coordinates assigned)
O/C(=N\c1ccccc1Br)[N-]CCSCc1ccccc1 (optimized conformer: 36.377923882221964 kcal/mol)

>  <smiles>  (32) 
O=C(NCCSCc1ccccc1)Nc1ccccc1Br

>  <score_type>  (32) 
oracle

>  <origin>  (32) 
autodockgpu

>  <m_score__min__energy>  (32) 
-7.2699999999999996

>  <m_primary>  (32) 
energy

>  <meeko>  (32) 
{"free_energy": -7.26, "intermolecular_energy": -9.94, "internal_energy": -0.57, "cluster_size": 5, "cluster_id": 1, "rank_in_cluster": 2}

>  <energy>  (32) 
-6.71

>  <cluster_rmsd>  (32) 
1.42

>  <rmsd>  (32) 
272.76

>  <cluster>  (32) 
2

$$$$
JPDCHESNUKKMJT-XXGRRPNWNA-N
     RDKit          3D

 37 38  0  0  0  0  0  0  0  0999 V2000
  137.5440   72.2280  223.8430 H   0  0  0  0  0  0  0  0  0  0  0  0
  138.2470   71.5840  223.5060 O   0  0  0  0  0  0  0  0  0  0  0  0
  139.6120   71.8750  223.5100 C   0  0  0  0  0  0  0  0  0  0  0  0
  140.4770   71.1280  224.1390 N   0  0  0  0  0  0  0  0  0  0  0  0
  140.2000   70.0660  225.0640 C   0  0  0  0  0  0  0  0  0  0  0  0
  139.6050   68.8650  224.6350 C   0  0  0  0  0  0  0  0  0  0  0  0
  139.3782   68.7164  223.5689 H   0  0  0  0  0  0  0  0  0  0  0  0
  139.3010   67.8600  225.5580 C   0  0  0  0  0  0  0  0  0  0  0  0
  138.8590   66.9133  225.2140 H   0  0  0  0  0  0  0  0  0  0  0  0
  139.5580   68.0570  226.9160 C   0  0  0  0  0  0  0  0  0  0  0  0
  139.3304   67.2603  227.6395 H   0  0  0  0  0  0  0  0  0  0  0  0
  140.1040   69.2650  227.3570 C   0  0  0  0  0  0  0  0  0  0  0  0
  140.2931   69.4227  228.4291 H   0  0  0  0  0  0  0  0  0  0  0  0
  140.4110   70.2750  226.4380 C   0  0  0  0  0  0  0  0  0  0  0  0
  141.1110   71.9350  227.0870 Br  0  0  0  0  0  0  0  0  0  0  0  0
  140.0650   73.0030  222.7540 N   0  0  0  0  0  0  0  0  0  0  0  0
  141.0700   72.9250  221.6980 C   0  0  0  0  0  0  0  0  0  0  0  0
  142.0045   72.5271  222.1204 H   0  0  0  0  0  0  0  0  0  0  0  0
  140.6916   72.2641  220.9043 H   0  0  0  0  0  0  0  0  0  0  0  0
  141.3430   74.3050  221.0920 C   0  0  0  0  0  0  0  0  0  0  0  0
  142.4146   74.5326  221.1911 H   0  0  0  0  0  0  0  0  0  0  0  0
  141.0421   74.2815  220.0342 H   0  0  0  0  0  0  0  0  0  0  0  0
  140.3770   75.6150  221.9330 S   0  0  0  0  0  0  0  0  0  0  0  0
  140.9870   77.0480  220.9690 C   0  0  0  0  0  0  0  0  0  0  0  0
  141.8423   76.7266  220.3564 H   0  0  0  0  0  0  0  0  0  0  0  0
  140.1622   77.4110  220.3382 H   0  0  0  0  0  0  0  0  0  0  0  0
  141.4250   78.1790  221.8620 C   0  0  0  0  0  0  0  0  0  0  0  0
  141.8770   79.3870  221.3040 C   0  0  0  0  0  0  0  0  0  0  0  0
  141.9019   79.5106  220.2113 H   0  0  0  0  0  0  0  0  0  0  0  0
  142.2950   80.4320  222.1330 C   0  0  0  0  0  0  0  0  0  0  0  0
  142.6428   81.3775  221.6913 H   0  0  0  0  0  0  0  0  0  0  0  0
  142.2720   80.2780  223.5220 C   0  0  0  0  0  0  0  0  0  0  0  0
  142.5970   81.1033  224.1726 H   0  0  0  0  0  0  0  0  0  0  0  0
  141.8360   79.0750  224.0840 C   0  0  0  0  0  0  0  0  0  0  0  0
  141.8255   78.9515  225.1770 H   0  0  0  0  0  0  0  0  0  0  0  0
  141.4130   78.0280  223.2590 C   0  0  0  0  0  0  0  0  0  0  0  0
  141.0697   77.0830  223.7052 H   0  0  0  0  0  0  0  0  0  0  0  0
  1  2  1  0
  2  3  1  0
  3  4  2  0
  4  5  1  0
  5  6  2  0
  6  7  1  0
  6  8  1  0
  8  9  1  0
  8 10  2  0
 10 11  1  0
 10 12  1  0
 12 13  1  0
 12 14  2  0
 14 15  1  0
  3 16  1  0
 16 17  1  0
 17 18  1  0
 17 19  1  0
 17 20  1  0
 20 21  1  0
 20 22  1  0
 20 23  1  0
 23 24  1  0
 24 25  1  0
 24 26  1  0
 24 27  1  0
 27 28  2  0
 28 29  1  0
 28 30  1  0
 30 31  1  0
 30 32  2  0
 32 33  1  0
 32 34  1  0
 34 35  1  0
 34 36  2  0
 36 37  1  0
 14  5  1  0
 36 27  1  0
M  CHG  1  16  -1
M  END
>  <UniqueID>  (33) 
9

>  <SMILES>  (33) 
O/C(=N\c1ccccc1Br)[N-]CCSCc1ccccc1

>  <Energy>  (33) 
36.377923882221964

>  <Genealogy>  (33) 
O=C([N-]CCSCc1ccccc1)Nc1ccccc1Br (protonated)
OC(=Nc1ccccc1Br)[N-]CCSCc1ccccc1 (tautomer)
O/C(=N\c1ccccc1Br)[N-]CCSCc1ccccc1 (cis-trans isomerization)
O/C(=N\c1ccccc1Br)[N-]CCSCc1ccccc1 (3D coordinates assigned)
O/C(=N\c1ccccc1Br)[N-]CCSCc1ccccc1 (optimized conformer: 36.377923882221964 kcal/mol)

>  <smiles>  (33) 
O=C(NCCSCc1ccccc1)Nc1ccccc1Br

>  <score_type>  (33) 
oracle

>  <origin>  (33) 
autodockgpu

>  <m_score__min__energy>  (33) 
-7.2699999999999996

>  <m_primary>  (33) 
energy

>  <meeko>  (33) 
{"free_energy": -6.93, "intermolecular_energy": -9.61, "internal_energy": -0.6, "cluster_size": 5, "cluster_id": 1, "rank_in_cluster": 5}

>  <energy>  (33) 
-6.69

>  <cluster_rmsd>  (33) 
1.49

>  <rmsd>  (33) 
272.63

>  <cluster>  (33) 
2

$$$$
JPDCHESNUKKMJT-XXGRRPNWNA-N
     RDKit          3D

 37 38  0  0  0  0  0  0  0  0999 V2000
  138.4650   75.3490  223.1290 H   0  0  0  0  0  0  0  0  0  0  0  0
  139.0450   76.0190  222.6430 O   0  0  0  0  0  0  0  0  0  0  0  0
  140.2170   75.6680  221.9710 C   0  0  0  0  0  0  0  0  0  0  0  0
  140.9810   76.5580  221.4000 N   0  0  0  0  0  0  0  0  0  0  0  0
  141.4390   77.7980  221.9570 C   0  0  0  0  0  0  0  0  0  0  0  0
  141.4310   78.0180  223.3470 C   0  0  0  0  0  0  0  0  0  0  0  0
  141.1035   77.2169  224.0260 H   0  0  0  0  0  0  0  0  0  0  0  0
  141.8370   79.2490  223.8690 C   0  0  0  0  0  0  0  0  0  0  0  0
  141.8512   79.4066  224.9576 H   0  0  0  0  0  0  0  0  0  0  0  0
  142.2250   80.2800  223.0090 C   0  0  0  0  0  0  0  0  0  0  0  0
  142.5572   81.2443  223.4211 H   0  0  0  0  0  0  0  0  0  0  0  0
  142.1910   80.0860  221.6260 C   0  0  0  0  0  0  0  0  0  0  0  0
  142.4851   80.9028  220.9505 H   0  0  0  0  0  0  0  0  0  0  0  0
  141.7840   78.8560  221.0970 C   0  0  0  0  0  0  0  0  0  0  0  0
  141.7030   78.6470  219.1960 Br  0  0  0  0  0  0  0  0  0  0  0  0
  140.6040   74.2900  221.9620 N   0  0  0  0  0  0  0  0  0  0  0  0
  139.7250   73.1990  221.5520 C   0  0  0  0  0  0  0  0  0  0  0  0
  138.7226   73.3685  221.9720 H   0  0  0  0  0  0  0  0  0  0  0  0
  139.6859   73.1770  220.4529 H   0  0  0  0  0  0  0  0  0  0  0  0
  140.2520   71.8490  222.0460 C   0  0  0  0  0  0  0  0  0  0  0  0
  139.4896   71.0783  221.8592 H   0  0  0  0  0  0  0  0  0  0  0  0
  141.1812   71.6230  221.5023 H   0  0  0  0  0  0  0  0  0  0  0  0
  140.6320   71.8870  223.8380 S   0  0  0  0  0  0  0  0  0  0  0  0
  139.6590   70.4200  224.3430 C   0  0  0  0  0  0  0  0  0  0  0  0
  138.5899   70.6782  224.3231 H   0  0  0  0  0  0  0  0  0  0  0  0
  139.8827   69.6039  223.6402 H   0  0  0  0  0  0  0  0  0  0  0  0
  140.0220   69.9560  225.7280 C   0  0  0  0  0  0  0  0  0  0  0  0
  140.4530   70.8810  226.6950 C   0  0  0  0  0  0  0  0  0  0  0  0
  140.5159   71.9495  226.4414 H   0  0  0  0  0  0  0  0  0  0  0  0
  140.8020   70.4480  227.9780 C   0  0  0  0  0  0  0  0  0  0  0  0
  141.1322   71.1770  228.7326 H   0  0  0  0  0  0  0  0  0  0  0  0
  140.7320   69.0910  228.3030 C   0  0  0  0  0  0  0  0  0  0  0  0
  141.0036   68.7530  229.3139 H   0  0  0  0  0  0  0  0  0  0  0  0
  140.3170   68.1630  227.3440 C   0  0  0  0  0  0  0  0  0  0  0  0
  140.2688   67.0940  227.5987 H   0  0  0  0  0  0  0  0  0  0  0  0
  139.9630   68.5920  226.0610 C   0  0  0  0  0  0  0  0  0  0  0  0
  139.6368   67.8584  225.3090 H   0  0  0  0  0  0  0  0  0  0  0  0
  1  2  1  0
  2  3  1  0
  3  4  2  0
  4  5  1  0
  5  6  2  0
  6  7  1  0
  6  8  1  0
  8  9  1  0
  8 10  2  0
 10 11  1  0
 10 12  1  0
 12 13  1  0
 12 14  2  0
 14 15  1  0
  3 16  1  0
 16 17  1  0
 17 18  1  0
 17 19  1  0
 17 20  1  0
 20 21  1  0
 20 22  1  0
 20 23  1  0
 23 24  1  0
 24 25  1  0
 24 26  1  0
 24 27  1  0
 27 28  2  0
 28 29  1  0
 28 30  1  0
 30 31  1  0
 30 32  2  0
 32 33  1  0
 32 34  1  0
 34 35  1  0
 34 36  2  0
 36 37  1  0
 14  5  1  0
 36 27  1  0
M  CHG  1  16  -1
M  END
>  <UniqueID>  (34) 
9

>  <SMILES>  (34) 
O/C(=N\c1ccccc1Br)[N-]CCSCc1ccccc1

>  <Energy>  (34) 
36.377923882221964

>  <Genealogy>  (34) 
O=C([N-]CCSCc1ccccc1)Nc1ccccc1Br (protonated)
OC(=Nc1ccccc1Br)[N-]CCSCc1ccccc1 (tautomer)
O/C(=N\c1ccccc1Br)[N-]CCSCc1ccccc1 (cis-trans isomerization)
O/C(=N\c1ccccc1Br)[N-]CCSCc1ccccc1 (3D coordinates assigned)
O/C(=N\c1ccccc1Br)[N-]CCSCc1ccccc1 (optimized conformer: 36.377923882221964 kcal/mol)

>  <smiles>  (34) 
O=C(NCCSCc1ccccc1)Nc1ccccc1Br

>  <score_type>  (34) 
oracle

>  <origin>  (34) 
autodockgpu

>  <m_score__min__energy>  (34) 
-7.2699999999999996

>  <m_primary>  (34) 
energy

>  <meeko>  (34) 
{"free_energy": -6.77, "intermolecular_energy": -9.45, "internal_energy": -0.5, "cluster_size": 11, "cluster_id": 2, "rank_in_cluster": 4}

>  <energy>  (34) 
-6.67

>  <cluster_rmsd>  (34) 
1.46

>  <rmsd>  (34) 
272.74

>  <cluster>  (34) 
2

$$$$
JPDCHESNUKKMJT-XXGRRPNWNA-N
     RDKit          3D

 37 38  0  0  0  0  0  0  0  0999 V2000
  137.9000   72.5340  223.4440 H   0  0  0  0  0  0  0  0  0  0  0  0
  138.5820   71.8870  223.0720 O   0  0  0  0  0  0  0  0  0  0  0  0
  139.9480   71.9770  223.3470 C   0  0  0  0  0  0  0  0  0  0  0  0
  140.5630   71.1010  224.0920 N   0  0  0  0  0  0  0  0  0  0  0  0
  140.5330   71.0020  225.5230 C   0  0  0  0  0  0  0  0  0  0  0  0
  141.1670   71.9620  226.3330 C   0  0  0  0  0  0  0  0  0  0  0  0
  141.6661   72.8256  225.8692 H   0  0  0  0  0  0  0  0  0  0  0  0
  141.1660   71.8240  227.7240 C   0  0  0  0  0  0  0  0  0  0  0  0
  141.6420   72.5909  228.3528 H   0  0  0  0  0  0  0  0  0  0  0  0
  140.5610   70.7130  228.3160 C   0  0  0  0  0  0  0  0  0  0  0  0
  140.5498   70.6112  229.4112 H   0  0  0  0  0  0  0  0  0  0  0  0
  139.9700   69.7310  227.5170 C   0  0  0  0  0  0  0  0  0  0  0  0
  139.5046   68.8509  227.9847 H   0  0  0  0  0  0  0  0  0  0  0  0
  139.9680   69.8630  226.1240 C   0  0  0  0  0  0  0  0  0  0  0  0
  139.1920   68.4700  225.0630 Br  0  0  0  0  0  0  0  0  0  0  0  0
  140.6900   73.0410  222.7420 N   0  0  0  0  0  0  0  0  0  0  0  0
  140.7270   73.2950  221.3050 C   0  0  0  0  0  0  0  0  0  0  0  0
  141.3257   72.5117  220.8172 H   0  0  0  0  0  0  0  0  0  0  0  0
  139.6955   73.2883  220.9229 H   0  0  0  0  0  0  0  0  0  0  0  0
  141.3490   74.6620  221.0010 C   0  0  0  0  0  0  0  0  0  0  0  0
  142.1820   74.8379  221.6976 H   0  0  0  0  0  0  0  0  0  0  0  0
  141.7024   74.6550  219.9593 H   0  0  0  0  0  0  0  0  0  0  0  0
  140.1270   76.0150  221.1820 S   0  0  0  0  0  0  0  0  0  0  0  0
  141.1830   77.3970  220.6080 C   0  0  0  0  0  0  0  0  0  0  0  0
  142.1213   76.9854  220.2078 H   0  0  0  0  0  0  0  0  0  0  0  0
  140.6309   77.9497  219.8335 H   0  0  0  0  0  0  0  0  0  0  0  0
  141.5080   78.3550  221.7240 C   0  0  0  0  0  0  0  0  0  0  0  0
  141.9050   79.6710  221.4340 C   0  0  0  0  0  0  0  0  0  0  0  0
  141.9691   80.0058  220.3882 H   0  0  0  0  0  0  0  0  0  0  0  0
  142.2190   80.5570  222.4690 C   0  0  0  0  0  0  0  0  0  0  0  0
  142.5230   81.5882  222.2361 H   0  0  0  0  0  0  0  0  0  0  0  0
  142.1470   80.1340  223.7990 C   0  0  0  0  0  0  0  0  0  0  0  0
  142.3904   80.8335  224.6123 H   0  0  0  0  0  0  0  0  0  0  0  0
  141.7660   78.8230  224.0960 C   0  0  0  0  0  0  0  0  0  0  0  0
  141.7168   78.4888  225.1428 H   0  0  0  0  0  0  0  0  0  0  0  0
  141.4470   77.9350  223.0630 C   0  0  0  0  0  0  0  0  0  0  0  0
  141.1472   76.9036  223.3004 H   0  0  0  0  0  0  0  0  0  0  0  0
  1  2  1  0
  2  3  1  0
  3  4  2  0
  4  5  1  0
  5  6  2  0
  6  7  1  0
  6  8  1  0
  8  9  1  0
  8 10  2  0
 10 11  1  0
 10 12  1  0
 12 13  1  0
 12 14  2  0
 14 15  1  0
  3 16  1  0
 16 17  1  0
 17 18  1  0
 17 19  1  0
 17 20  1  0
 20 21  1  0
 20 22  1  0
 20 23  1  0
 23 24  1  0
 24 25  1  0
 24 26  1  0
 24 27  1  0
 27 28  2  0
 28 29  1  0
 28 30  1  0
 30 31  1  0
 30 32  2  0
 32 33  1  0
 32 34  1  0
 34 35  1  0
 34 36  2  0
 36 37  1  0
 14  5  1  0
 36 27  1  0
M  CHG  1  16  -1
M  END
>  <UniqueID>  (35) 
9

>  <SMILES>  (35) 
O/C(=N\c1ccccc1Br)[N-]CCSCc1ccccc1

>  <Energy>  (35) 
36.377923882221964

>  <Genealogy>  (35) 
O=C([N-]CCSCc1ccccc1)Nc1ccccc1Br (protonated)
OC(=Nc1ccccc1Br)[N-]CCSCc1ccccc1 (tautomer)
O/C(=N\c1ccccc1Br)[N-]CCSCc1ccccc1 (cis-trans isomerization)
O/C(=N\c1ccccc1Br)[N-]CCSCc1ccccc1 (3D coordinates assigned)
O/C(=N\c1ccccc1Br)[N-]CCSCc1ccccc1 (optimized conformer: 36.377923882221964 kcal/mol)

>  <smiles>  (35) 
O=C(NCCSCc1ccccc1)Nc1ccccc1Br

>  <score_type>  (35) 
oracle

>  <origin>  (35) 
autodockgpu

>  <m_score__min__energy>  (35) 
-7.2699999999999996

>  <m_primary>  (35) 
energy

>  <meeko>  (35) 
{"free_energy": -7.06, "intermolecular_energy": -9.74, "internal_energy": -0.56, "cluster_size": 5, "cluster_id": 1, "rank_in_cluster": 4}

>  <energy>  (35) 
-6.53

>  <cluster_rmsd>  (35) 
1.68

>  <rmsd>  (35) 
272.46

>  <cluster>  (35) 
2

$$$$
JPDCHESNUKKMJT-XXGRRPNWNA-N
     RDKit          3D

 37 38  0  0  0  0  0  0  0  0999 V2000
  142.4550   76.6430  221.1550 H   0  0  0  0  0  0  0  0  0  0  0  0
  141.5000   76.3550  220.9910 O   0  0  0  0  0  0  0  0  0  0  0  0
  140.6010   76.0700  222.0200 C   0  0  0  0  0  0  0  0  0  0  0  0
  139.9780   77.0090  222.6760 N   0  0  0  0  0  0  0  0  0  0  0  0
  140.4790   78.3090  223.0210 C   0  0  0  0  0  0  0  0  0  0  0  0
  141.8220   78.4950  223.3980 C   0  0  0  0  0  0  0  0  0  0  0  0
  142.5147   77.6405  223.3951 H   0  0  0  0  0  0  0  0  0  0  0  0
  142.2800   79.7600  223.7760 C   0  0  0  0  0  0  0  0  0  0  0  0
  143.3364   79.9035  224.0470 H   0  0  0  0  0  0  0  0  0  0  0  0
  141.3980   80.8420  223.8100 C   0  0  0  0  0  0  0  0  0  0  0  0
  141.7629   81.8399  224.0945 H   0  0  0  0  0  0  0  0  0  0  0  0
  140.0530   80.6580  223.4830 C   0  0  0  0  0  0  0  0  0  0  0  0
  139.3575   81.5093  223.5234 H   0  0  0  0  0  0  0  0  0  0  0  0
  139.5870   79.3940  223.1040 C   0  0  0  0  0  0  0  0  0  0  0  0
  137.7260   79.1710  222.7120 Br  0  0  0  0  0  0  0  0  0  0  0  0
  140.3300   74.6960  222.3190 N   0  0  0  0  0  0  0  0  0  0  0  0
  139.3330   73.8930  221.6180 C   0  0  0  0  0  0  0  0  0  0  0  0
  138.3849   74.4495  221.5811 H   0  0  0  0  0  0  0  0  0  0  0  0
  139.7012   73.6882  220.6019 H   0  0  0  0  0  0  0  0  0  0  0  0
  139.1010   72.5560  222.3300 C   0  0  0  0  0  0  0  0  0  0  0  0
  138.3770   72.7062  223.1444 H   0  0  0  0  0  0  0  0  0  0  0  0
  138.7186   71.8353  221.5923 H   0  0  0  0  0  0  0  0  0  0  0  0
  140.6550   71.8870  223.0320 S   0  0  0  0  0  0  0  0  0  0  0  0
  139.9220   70.6040  224.1140 C   0  0  0  0  0  0  0  0  0  0  0  0
  138.8295   70.6118  223.9857 H   0  0  0  0  0  0  0  0  0  0  0  0
  140.3471   69.6310  223.8266 H   0  0  0  0  0  0  0  0  0  0  0  0
  140.2440   70.8450  225.5650 C   0  0  0  0  0  0  0  0  0  0  0  0
  141.0740   71.9150  225.9390 C   0  0  0  0  0  0  0  0  0  0  0  0
  141.4826   72.5859  225.1690 H   0  0  0  0  0  0  0  0  0  0  0  0
  141.3830   72.1310  227.2850 C   0  0  0  0  0  0  0  0  0  0  0  0
  142.0280   72.9747  227.5717 H   0  0  0  0  0  0  0  0  0  0  0  0
  140.8740   71.2770  228.2670 C   0  0  0  0  0  0  0  0  0  0  0  0
  141.1154   71.4506  229.3261 H   0  0  0  0  0  0  0  0  0  0  0  0
  140.0580   70.2020  227.9030 C   0  0  0  0  0  0  0  0  0  0  0  0
  139.6638   69.5256  228.6757 H   0  0  0  0  0  0  0  0  0  0  0  0
  139.7420   69.9850  226.5580 C   0  0  0  0  0  0  0  0  0  0  0  0
  139.0985   69.1386  226.2758 H   0  0  0  0  0  0  0  0  0  0  0  0
  1  2  1  0
  2  3  1  0
  3  4  2  0
  4  5  1  0
  5  6  2  0
  6  7  1  0
  6  8  1  0
  8  9  1  0
  8 10  2  0
 10 11  1  0
 10 12  1  0
 12 13  1  0
 12 14  2  0
 14 15  1  0
  3 16  1  0
 16 17  1  0
 17 18  1  0
 17 19  1  0
 17 20  1  0
 20 21  1  0
 20 22  1  0
 20 23  1  0
 23 24  1  0
 24 25  1  0
 24 26  1  0
 24 27  1  0
 27 28  2  0
 28 29  1  0
 28 30  1  0
 30 31  1  0
 30 32  2  0
 32 33  1  0
 32 34  1  0
 34 35  1  0
 34 36  2  0
 36 37  1  0
 14  5  1  0
 36 27  1  0
M  CHG  1  16  -1
M  END
>  <UniqueID>  (36) 
9

>  <SMILES>  (36) 
O/C(=N\c1ccccc1Br)[N-]CCSCc1ccccc1

>  <Energy>  (36) 
36.377923882221964

>  <Genealogy>  (36) 
O=C([N-]CCSCc1ccccc1)Nc1ccccc1Br (protonated)
OC(=Nc1ccccc1Br)[N-]CCSCc1ccccc1 (tautomer)
O/C(=N\c1ccccc1Br)[N-]CCSCc1ccccc1 (cis-trans isomerization)
O/C(=N\c1ccccc1Br)[N-]CCSCc1ccccc1 (3D coordinates assigned)
O/C(=N\c1ccccc1Br)[N-]CCSCc1ccccc1 (optimized conformer: 36.377923882221964 kcal/mol)

>  <smiles>  (36) 
O=C(NCCSCc1ccccc1)Nc1ccccc1Br

>  <score_type>  (36) 
oracle

>  <origin>  (36) 
autodockgpu

>  <m_score__min__energy>  (36) 
-7.2699999999999996

>  <m_primary>  (36) 
energy

>  <meeko>  (36) 
{"free_energy": -6.89, "intermolecular_energy": -9.57, "internal_energy": -0.59, "cluster_size": 11, "cluster_id": 2, "rank_in_cluster": 2}

>  <energy>  (36) 
-6.46

>  <cluster_rmsd>  (36) 
1.52

>  <rmsd>  (36) 
272.55

>  <cluster>  (36) 
2

$$$$
JPDCHESNUKKMJT-XXGRRPNWNA-N
     RDKit          3D

 37 38  0  0  0  0  0  0  0  0999 V2000
  139.0940   73.9860  222.9330 H   0  0  0  0  0  0  0  0  0  0  0  0
  139.9200   74.0530  222.3540 O   0  0  0  0  0  0  0  0  0  0  0  0
  140.4780   72.9600  221.6900 C   0  0  0  0  0  0  0  0  0  0  0  0
  141.2140   73.1000  220.6220 N   0  0  0  0  0  0  0  0  0  0  0  0
  142.6250   73.3530  220.5650 C   0  0  0  0  0  0  0  0  0  0  0  0
  143.5590   72.3400  220.8490 C   0  0  0  0  0  0  0  0  0  0  0  0
  143.2093   71.3241  221.0850 H   0  0  0  0  0  0  0  0  0  0  0  0
  144.9280   72.6170  220.8330 C   0  0  0  0  0  0  0  0  0  0  0  0
  145.6533   71.8142  221.0317 H   0  0  0  0  0  0  0  0  0  0  0  0
  145.3770   73.9120  220.5650 C   0  0  0  0  0  0  0  0  0  0  0  0
  146.4557   74.1263  220.5406 H   0  0  0  0  0  0  0  0  0  0  0  0
  144.4560   74.9350  220.3280 C   0  0  0  0  0  0  0  0  0  0  0  0
  144.8113   75.9568  220.1288 H   0  0  0  0  0  0  0  0  0  0  0  0
  143.0830   74.6650  220.3430 C   0  0  0  0  0  0  0  0  0  0  0  0
  141.8520   76.1050  220.0650 Br  0  0  0  0  0  0  0  0  0  0  0  0
  140.2680   71.6550  222.2410 N   0  0  0  0  0  0  0  0  0  0  0  0
  139.0390   70.8870  222.0700 C   0  0  0  0  0  0  0  0  0  0  0  0
  138.5467   71.2002  221.1375 H   0  0  0  0  0  0  0  0  0  0  0  0
  139.2979   69.8186  222.0314 H   0  0  0  0  0  0  0  0  0  0  0  0
  138.0790   71.1120  223.2420 C   0  0  0  0  0  0  0  0  0  0  0  0
  138.3900   72.0136  223.7901 H   0  0  0  0  0  0  0  0  0  0  0  0
  137.0631   71.2293  222.8367 H   0  0  0  0  0  0  0  0  0  0  0  0
  138.0750   69.6880  224.3940 S   0  0  0  0  0  0  0  0  0  0  0  0
  139.8810   69.5810  224.6810 C   0  0  0  0  0  0  0  0  0  0  0  0
  140.1580   68.5247  224.8131 H   0  0  0  0  0  0  0  0  0  0  0  0
  140.3909   70.0191  223.8103 H   0  0  0  0  0  0  0  0  0  0  0  0
  140.3020   70.3510  225.9040 C   0  0  0  0  0  0  0  0  0  0  0  0
  139.9110   69.9190  227.1830 C   0  0  0  0  0  0  0  0  0  0  0  0
  139.3032   69.0086  227.2913 H   0  0  0  0  0  0  0  0  0  0  0  0
  140.2910   70.6410  228.3180 C   0  0  0  0  0  0  0  0  0  0  0  0
  139.9879   70.2936  229.3167 H   0  0  0  0  0  0  0  0  0  0  0  0
  141.0550   71.8030  228.1860 C   0  0  0  0  0  0  0  0  0  0  0  0
  141.3559   72.3678  229.0807 H   0  0  0  0  0  0  0  0  0  0  0  0
  141.4370   72.2480  226.9180 C   0  0  0  0  0  0  0  0  0  0  0  0
  142.0325   73.1671  226.8145 H   0  0  0  0  0  0  0  0  0  0  0  0
  141.0630   71.5260  225.7800 C   0  0  0  0  0  0  0  0  0  0  0  0
  141.3659   71.8795  224.7833 H   0  0  0  0  0  0  0  0  0  0  0  0
  1  2  1  0
  2  3  1  0
  3  4  2  0
  4  5  1  0
  5  6  2  0
  6  7  1  0
  6  8  1  0
  8  9  1  0
  8 10  2  0
 10 11  1  0
 10 12  1  0
 12 13  1  0
 12 14  2  0
 14 15  1  0
  3 16  1  0
 16 17  1  0
 17 18  1  0
 17 19  1  0
 17 20  1  0
 20 21  1  0
 20 22  1  0
 20 23  1  0
 23 24  1  0
 24 25  1  0
 24 26  1  0
 24 27  1  0
 27 28  2  0
 28 29  1  0
 28 30  1  0
 30 31  1  0
 30 32  2  0
 32 33  1  0
 32 34  1  0
 34 35  1  0
 34 36  2  0
 36 37  1  0
 14  5  1  0
 36 27  1  0
M  CHG  1  16  -1
M  END
>  <UniqueID>  (37) 
9

>  <SMILES>  (37) 
O/C(=N\c1ccccc1Br)[N-]CCSCc1ccccc1

>  <Energy>  (37) 
36.377923882221964

>  <Genealogy>  (37) 
O=C([N-]CCSCc1ccccc1)Nc1ccccc1Br (protonated)
OC(=Nc1ccccc1Br)[N-]CCSCc1ccccc1 (tautomer)
O/C(=N\c1ccccc1Br)[N-]CCSCc1ccccc1 (cis-trans isomerization)
O/C(=N\c1ccccc1Br)[N-]CCSCc1ccccc1 (3D coordinates assigned)
O/C(=N\c1ccccc1Br)[N-]CCSCc1ccccc1 (optimized conformer: 36.377923882221964 kcal/mol)

>  <smiles>  (37) 
O=C(NCCSCc1ccccc1)Nc1ccccc1Br

>  <score_type>  (37) 
oracle

>  <origin>  (37) 
autodockgpu

>  <m_score__min__energy>  (37) 
-7.2699999999999996

>  <m_primary>  (37) 
energy

>  <meeko>  (37) 
{"free_energy": -6.63, "intermolecular_energy": -9.31, "internal_energy": -0.88, "cluster_size": 3, "cluster_id": 3, "rank_in_cluster": 1}

>  <energy>  (37) 
-6.63

>  <cluster_rmsd>  (37) 
0.0

>  <rmsd>  (37) 
272.09

>  <cluster>  (37) 
3

$$$$
JPDCHESNUKKMJT-XXGRRPNWNA-N
     RDKit          3D

 37 38  0  0  0  0  0  0  0  0999 V2000
  142.4130   76.0550  221.5820 H   0  0  0  0  0  0  0  0  0  0  0  0
  141.7580   75.2860  221.5450 O   0  0  0  0  0  0  0  0  0  0  0  0
  140.4150   75.4090  221.9070 C   0  0  0  0  0  0  0  0  0  0  0  0
  139.7730   76.5410  221.8130 N   0  0  0  0  0  0  0  0  0  0  0  0
  140.1060   77.7850  222.4460 C   0  0  0  0  0  0  0  0  0  0  0  0
  141.4310   78.0820  222.8150 C   0  0  0  0  0  0  0  0  0  0  0  0
  142.2359   77.3683  222.5852 H   0  0  0  0  0  0  0  0  0  0  0  0
  141.7300   79.2790  223.4720 C   0  0  0  0  0  0  0  0  0  0  0  0
  142.7714   79.5164  223.7349 H   0  0  0  0  0  0  0  0  0  0  0  0
  140.7070   80.1740  223.7950 C   0  0  0  0  0  0  0  0  0  0  0  0
  140.9443   81.1215  224.3009 H   0  0  0  0  0  0  0  0  0  0  0  0
  139.3820   79.8650  223.4750 C   0  0  0  0  0  0  0  0  0  0  0  0
  138.5763   80.5648  223.7416 H   0  0  0  0  0  0  0  0  0  0  0  0
  139.0770   78.6690  222.8170 C   0  0  0  0  0  0  0  0  0  0  0  0
  137.2440   78.2600  222.4420 Br  0  0  0  0  0  0  0  0  0  0  0  0
  139.7230   74.2350  222.3450 N   0  0  0  0  0  0  0  0  0  0  0  0
  140.1150   72.8770  221.9840 C   0  0  0  0  0  0  0  0  0  0  0  0
  140.4915   72.8748  220.9504 H   0  0  0  0  0  0  0  0  0  0  0  0
  140.8969   72.5425  222.6817 H   0  0  0  0  0  0  0  0  0  0  0  0
  138.9280   71.9130  222.0860 C   0  0  0  0  0  0  0  0  0  0  0  0
  138.0169   72.4903  222.3019 H   0  0  0  0  0  0  0  0  0  0  0  0
  138.8365   71.3776  221.1294 H   0  0  0  0  0  0  0  0  0  0  0  0
  139.1760   70.6760  223.4130 S   0  0  0  0  0  0  0  0  0  0  0  0
  140.5670   71.4960  224.2780 C   0  0  0  0  0  0  0  0  0  0  0  0
  141.5000   71.2782  223.7376 H   0  0  0  0  0  0  0  0  0  0  0  0
  140.3653   72.5771  224.3002 H   0  0  0  0  0  0  0  0  0  0  0  0
  140.7040   71.0170  225.6990 C   0  0  0  0  0  0  0  0  0  0  0  0
  140.9620   71.9320  226.7330 C   0  0  0  0  0  0  0  0  0  0  0  0
  141.0543   73.0041  226.5050 H   0  0  0  0  0  0  0  0  0  0  0  0
  141.1020   71.4860  228.0510 C   0  0  0  0  0  0  0  0  0  0  0  0
  141.2983   72.2081  228.8573 H   0  0  0  0  0  0  0  0  0  0  0  0
  140.9930   70.1250  228.3450 C   0  0  0  0  0  0  0  0  0  0  0  0
  141.1000   69.7763  229.3828 H   0  0  0  0  0  0  0  0  0  0  0  0
  140.7480   69.2060  227.3210 C   0  0  0  0  0  0  0  0  0  0  0  0
  140.6683   68.1337  227.5528 H   0  0  0  0  0  0  0  0  0  0  0  0
  140.6040   69.6480  226.0020 C   0  0  0  0  0  0  0  0  0  0  0  0
  140.4118   68.9216  225.1986 H   0  0  0  0  0  0  0  0  0  0  0  0
  1  2  1  0
  2  3  1  0
  3  4  2  0
  4  5  1  0
  5  6  2  0
  6  7  1  0
  6  8  1  0
  8  9  1  0
  8 10  2  0
 10 11  1  0
 10 12  1  0
 12 13  1  0
 12 14  2  0
 14 15  1  0
  3 16  1  0
 16 17  1  0
 17 18  1  0
 17 19  1  0
 17 20  1  0
 20 21  1  0
 20 22  1  0
 20 23  1  0
 23 24  1  0
 24 25  1  0
 24 26  1  0
 24 27  1  0
 27 28  2  0
 28 29  1  0
 28 30  1  0
 30 31  1  0
 30 32  2  0
 32 33  1  0
 32 34  1  0
 34 35  1  0
 34 36  2  0
 36 37  1  0
 14  5  1  0
 36 27  1  0
M  CHG  1  16  -1
M  END
>  <UniqueID>  (38) 
9

>  <SMILES>  (38) 
O/C(=N\c1ccccc1Br)[N-]CCSCc1ccccc1

>  <Energy>  (38) 
36.377923882221964

>  <Genealogy>  (38) 
O=C([N-]CCSCc1ccccc1)Nc1ccccc1Br (protonated)
OC(=Nc1ccccc1Br)[N-]CCSCc1ccccc1 (tautomer)
O/C(=N\c1ccccc1Br)[N-]CCSCc1ccccc1 (cis-trans isomerization)
O/C(=N\c1ccccc1Br)[N-]CCSCc1ccccc1 (3D coordinates assigned)
O/C(=N\c1ccccc1Br)[N-]CCSCc1ccccc1 (optimized conformer: 36.377923882221964 kcal/mol)

>  <smiles>  (38) 
O=C(NCCSCc1ccccc1)Nc1ccccc1Br

>  <score_type>  (38) 
oracle

>  <origin>  (38) 
autodockgpu

>  <m_score__min__energy>  (38) 
-7.2699999999999996

>  <m_primary>  (38) 
energy

>  <meeko>  (38) 
{"free_energy": -6.72, "intermolecular_energy": -9.41, "internal_energy": -0.61, "cluster_size": 11, "cluster_id": 2, "rank_in_cluster": 6}

>  <energy>  (38) 
-6.33

>  <cluster_rmsd>  (38) 
1.69

>  <rmsd>  (38) 
272.22

>  <cluster>  (38) 
3

$$$$
JPDCHESNUKKMJT-XXGRRPNWNA-N
     RDKit          3D

 37 38  0  0  0  0  0  0  0  0999 V2000
  138.5140   75.6400  223.4580 H   0  0  0  0  0  0  0  0  0  0  0  0
  139.0440   76.2300  222.8300 O   0  0  0  0  0  0  0  0  0  0  0  0
  140.1250   75.7670  222.0790 C   0  0  0  0  0  0  0  0  0  0  0  0
  140.9800   76.5810  221.5220 N   0  0  0  0  0  0  0  0  0  0  0  0
  141.4450   77.8380  222.0340 C   0  0  0  0  0  0  0  0  0  0  0  0
  141.4410   78.1070  223.4150 C   0  0  0  0  0  0  0  0  0  0  0  0
  141.1105   77.3324  224.1226 H   0  0  0  0  0  0  0  0  0  0  0  0
  141.8550   79.3540  223.8920 C   0  0  0  0  0  0  0  0  0  0  0  0
  141.8728   79.5501  224.9742 H   0  0  0  0  0  0  0  0  0  0  0  0
  142.2460   80.3510  222.9960 C   0  0  0  0  0  0  0  0  0  0  0  0
  142.5841   81.3274  223.3733 H   0  0  0  0  0  0  0  0  0  0  0  0
  142.2080   80.1090  221.6200 C   0  0  0  0  0  0  0  0  0  0  0  0
  142.5043   80.9002  220.9156 H   0  0  0  0  0  0  0  0  0  0  0  0
  141.7940   78.8630  221.1360 C   0  0  0  0  0  0  0  0  0  0  0  0
  141.7080   78.5860  219.2440 Br  0  0  0  0  0  0  0  0  0  0  0  0
  140.3170   74.3530  221.9690 N   0  0  0  0  0  0  0  0  0  0  0  0
  139.2340   73.3990  221.7520 C   0  0  0  0  0  0  0  0  0  0  0  0
  138.4282   73.6008  222.4731 H   0  0  0  0  0  0  0  0  0  0  0  0
  138.8694   73.5146  220.7207 H   0  0  0  0  0  0  0  0  0  0  0  0
  139.7200   71.9580  221.9360 C   0  0  0  0  0  0  0  0  0  0  0  0
  138.8469   71.2914  221.9946 H   0  0  0  0  0  0  0  0  0  0  0  0
  140.3562   71.6970  221.0775 H   0  0  0  0  0  0  0  0  0  0  0  0
  140.7140   71.7720  223.4640 S   0  0  0  0  0  0  0  0  0  0  0  0
  139.4390   70.9720  224.5080 C   0  0  0  0  0  0  0  0  0  0  0  0
  138.6254   71.6899  224.6890 H   0  0  0  0  0  0  0  0  0  0  0  0
  139.0708   70.0824  223.9759 H   0  0  0  0  0  0  0  0  0  0  0  0
  139.9990   70.5260  225.8330 C   0  0  0  0  0  0  0  0  0  0  0  0
  140.5420   71.4660  226.7250 C   0  0  0  0  0  0  0  0  0  0  0  0
  140.5502   72.5332  226.4585 H   0  0  0  0  0  0  0  0  0  0  0  0
  141.0720   71.0500  227.9500 C   0  0  0  0  0  0  0  0  0  0  0  0
  141.4891   71.7912  228.6476 H   0  0  0  0  0  0  0  0  0  0  0  0
  141.0730   69.6950  228.2900 C   0  0  0  0  0  0  0  0  0  0  0  0
  141.4878   69.3705  229.2557 H   0  0  0  0  0  0  0  0  0  0  0  0
  140.5470   68.7520  227.4030 C   0  0  0  0  0  0  0  0  0  0  0  0
  140.5543   67.6845  227.6682 H   0  0  0  0  0  0  0  0  0  0  0  0
  140.0110   69.1640  226.1780 C   0  0  0  0  0  0  0  0  0  0  0  0
  139.5975   68.4189  225.4824 H   0  0  0  0  0  0  0  0  0  0  0  0
  1  2  1  0
  2  3  1  0
  3  4  2  0
  4  5  1  0
  5  6  2  0
  6  7  1  0
  6  8  1  0
  8  9  1  0
  8 10  2  0
 10 11  1  0
 10 12  1  0
 12 13  1  0
 12 14  2  0
 14 15  1  0
  3 16  1  0
 16 17  1  0
 17 18  1  0
 17 19  1  0
 17 20  1  0
 20 21  1  0
 20 22  1  0
 20 23  1  0
 23 24  1  0
 24 25  1  0
 24 26  1  0
 24 27  1  0
 27 28  2  0
 28 29  1  0
 28 30  1  0
 30 31  1  0
 30 32  2  0
 32 33  1  0
 32 34  1  0
 34 35  1  0
 34 36  2  0
 36 37  1  0
 14  5  1  0
 36 27  1  0
M  CHG  1  16  -1
M  END
>  <UniqueID>  (39) 
9

>  <SMILES>  (39) 
O/C(=N\c1ccccc1Br)[N-]CCSCc1ccccc1

>  <Energy>  (39) 
36.377923882221964

>  <Genealogy>  (39) 
O=C([N-]CCSCc1ccccc1)Nc1ccccc1Br (protonated)
OC(=Nc1ccccc1Br)[N-]CCSCc1ccccc1 (tautomer)
O/C(=N\c1ccccc1Br)[N-]CCSCc1ccccc1 (cis-trans isomerization)
O/C(=N\c1ccccc1Br)[N-]CCSCc1ccccc1 (3D coordinates assigned)
O/C(=N\c1ccccc1Br)[N-]CCSCc1ccccc1 (optimized conformer: 36.377923882221964 kcal/mol)

>  <smiles>  (39) 
O=C(NCCSCc1ccccc1)Nc1ccccc1Br

>  <score_type>  (39) 
oracle

>  <origin>  (39) 
autodockgpu

>  <m_score__min__energy>  (39) 
-7.2699999999999996

>  <m_primary>  (39) 
energy

>  <meeko>  (39) 
{"free_energy": -6.73, "intermolecular_energy": -9.42, "internal_energy": -0.51, "cluster_size": 11, "cluster_id": 2, "rank_in_cluster": 5}

>  <energy>  (39) 
-6.29

>  <cluster_rmsd>  (39) 
0.91

>  <rmsd>  (39) 
271.97

>  <cluster>  (39) 
3

$$$$
JPDCHESNUKKMJT-XXGRRPNWNA-N
     RDKit          3D

 37 38  0  0  0  0  0  0  0  0999 V2000
  142.5580   75.8420  221.5670 H   0  0  0  0  0  0  0  0  0  0  0  0
  141.8840   75.1070  221.4060 O   0  0  0  0  0  0  0  0  0  0  0  0
  140.5580   75.1790  221.8360 C   0  0  0  0  0  0  0  0  0  0  0  0
  139.8570   76.2750  221.7380 N   0  0  0  0  0  0  0  0  0  0  0  0
  140.1020   77.5270  222.3960 C   0  0  0  0  0  0  0  0  0  0  0  0
  141.4050   77.9170  222.7560 C   0  0  0  0  0  0  0  0  0  0  0  0
  142.2594   77.2732  222.5000 H   0  0  0  0  0  0  0  0  0  0  0  0
  141.6190   79.1180  223.4370 C   0  0  0  0  0  0  0  0  0  0  0  0
  142.6423   79.4291  223.6939 H   0  0  0  0  0  0  0  0  0  0  0  0
  140.5350   79.9240  223.7920 C   0  0  0  0  0  0  0  0  0  0  0  0
  140.7056   80.8758  224.3163 H   0  0  0  0  0  0  0  0  0  0  0  0
  139.2340   79.5210  223.4810 C   0  0  0  0  0  0  0  0  0  0  0  0
  138.3808   80.1506  223.7736 H   0  0  0  0  0  0  0  0  0  0  0  0
  139.0120   78.3200  222.7990 C   0  0  0  0  0  0  0  0  0  0  0  0
  137.2120   77.7790  222.4360 Br  0  0  0  0  0  0  0  0  0  0  0  0
  139.9490   73.9910  222.3520 N   0  0  0  0  0  0  0  0  0  0  0  0
  140.5220   72.6560  222.2130 C   0  0  0  0  0  0  0  0  0  0  0  0
  141.1844   72.6392  221.3350 H   0  0  0  0  0  0  0  0  0  0  0  0
  141.0858   72.4213  223.1279 H   0  0  0  0  0  0  0  0  0  0  0  0
  139.4260   71.6000  222.0330 C   0  0  0  0  0  0  0  0  0  0  0  0
  138.6668   71.9884  221.3382 H   0  0  0  0  0  0  0  0  0  0  0  0
  139.8912   70.6857  221.6358 H   0  0  0  0  0  0  0  0  0  0  0  0
  138.6190   71.1870  223.6250 S   0  0  0  0  0  0  0  0  0  0  0  0
  139.9850   70.2190  224.3670 C   0  0  0  0  0  0  0  0  0  0  0  0
  139.6863   69.1614  224.4155 H   0  0  0  0  0  0  0  0  0  0  0  0
  140.8775   70.3499  223.7374 H   0  0  0  0  0  0  0  0  0  0  0  0
  140.3190   70.6950  225.7560 C   0  0  0  0  0  0  0  0  0  0  0  0
  141.0960   71.8510  225.9410 C   0  0  0  0  0  0  0  0  0  0  0  0
  141.4540   72.4160  225.0677 H   0  0  0  0  0  0  0  0  0  0  0  0
  141.4160   72.2860  227.2310 C   0  0  0  0  0  0  0  0  0  0  0  0
  142.0184   73.1959  227.3699 H   0  0  0  0  0  0  0  0  0  0  0  0
  140.9720   71.5670  228.3440 C   0  0  0  0  0  0  0  0  0  0  0  0
  141.2213   71.9130  229.3580 H   0  0  0  0  0  0  0  0  0  0  0  0
  140.2110   70.4080  228.1680 C   0  0  0  0  0  0  0  0  0  0  0  0
  139.8680   69.8379  229.0440 H   0  0  0  0  0  0  0  0  0  0  0  0
  139.8850   69.9720  226.8800 C   0  0  0  0  0  0  0  0  0  0  0  0
  139.2862   69.0590  226.7461 H   0  0  0  0  0  0  0  0  0  0  0  0
  1  2  1  0
  2  3  1  0
  3  4  2  0
  4  5  1  0
  5  6  2  0
  6  7  1  0
  6  8  1  0
  8  9  1  0
  8 10  2  0
 10 11  1  0
 10 12  1  0
 12 13  1  0
 12 14  2  0
 14 15  1  0
  3 16  1  0
 16 17  1  0
 17 18  1  0
 17 19  1  0
 17 20  1  0
 20 21  1  0
 20 22  1  0
 20 23  1  0
 23 24  1  0
 24 25  1  0
 24 26  1  0
 24 27  1  0
 27 28  2  0
 28 29  1  0
 28 30  1  0
 30 31  1  0
 30 32  2  0
 32 33  1  0
 32 34  1  0
 34 35  1  0
 34 36  2  0
 36 37  1  0
 14  5  1  0
 36 27  1  0
M  CHG  1  16  -1
M  END
>  <UniqueID>  (40) 
9

>  <SMILES>  (40) 
O/C(=N\c1ccccc1Br)[N-]CCSCc1ccccc1

>  <Energy>  (40) 
36.377923882221964

>  <Genealogy>  (40) 
O=C([N-]CCSCc1ccccc1)Nc1ccccc1Br (protonated)
OC(=Nc1ccccc1Br)[N-]CCSCc1ccccc1 (tautomer)
O/C(=N\c1ccccc1Br)[N-]CCSCc1ccccc1 (cis-trans isomerization)
O/C(=N\c1ccccc1Br)[N-]CCSCc1ccccc1 (3D coordinates assigned)
O/C(=N\c1ccccc1Br)[N-]CCSCc1ccccc1 (optimized conformer: 36.377923882221964 kcal/mol)

>  <smiles>  (40) 
O=C(NCCSCc1ccccc1)Nc1ccccc1Br

>  <score_type>  (40) 
oracle

>  <origin>  (40) 
autodockgpu

>  <m_score__min__energy>  (40) 
-7.2699999999999996

>  <m_primary>  (40) 
energy

>  <meeko>  (40) 
{"free_energy": -6.71, "intermolecular_energy": -9.39, "internal_energy": -0.66, "cluster_size": 11, "cluster_id": 2, "rank_in_cluster": 7}

>  <energy>  (40) 
-6.45

>  <cluster_rmsd>  (40) 
0.0

>  <rmsd>  (40) 
272.43

>  <cluster>  (40) 
4

$$$$
JPDCHESNUKKMJT-VXJIHLCCNA-M
     RDKit          3D

 36 37  0  0  0  0  0  0  0  0999 V2000
  133.3390   68.6850  226.2600 O   0  0  0  0  0  0  0  0  0  0  0  0
  134.2810   69.1760  225.5840 C   0  0  0  0  0  0  0  0  0  0  0  0
  134.8320   68.4510  224.4770 N   0  0  0  0  0  0  0  0  0  0  0  0
  135.4450   69.0860  223.3150 C   0  0  0  0  0  0  0  0  0  0  0  0
  136.9610   68.9010  223.3300 C   0  0  0  0  0  0  0  0  0  0  0  0
  137.7600   70.2870  224.2220 S   0  0  0  0  0  0  0  0  0  0  0  0
  139.1970   69.3420  224.8420 C   0  0  0  0  0  0  0  0  0  0  0  0
  139.8680   70.0910  225.9610 C   0  0  0  0  0  0  0  0  0  0  0  0
  140.7200   71.1750  225.6900 C   0  0  0  0  0  0  0  0  0  0  0  0
  141.3140   71.8820  226.7410 C   0  0  0  0  0  0  0  0  0  0  0  0
  141.0690   71.5090  228.0640 C   0  0  0  0  0  0  0  0  0  0  0  0
  140.2280   70.4290  228.3410 C   0  0  0  0  0  0  0  0  0  0  0  0
  139.6240   69.7240  227.2960 C   0  0  0  0  0  0  0  0  0  0  0  0
  134.7770   70.4740  225.9190 N   0  0  0  0  0  0  0  0  0  0  0  0
  133.9430   71.6030  226.2100 C   0  0  0  0  0  0  0  0  0  0  0  0
  133.0130   71.4980  227.2520 C   0  0  0  0  0  0  0  0  0  0  0  0
  132.1700   72.5700  227.5590 C   0  0  0  0  0  0  0  0  0  0  0  0
  132.2680   73.7630  226.8410 C   0  0  0  0  0  0  0  0  0  0  0  0
  133.2210   73.8940  225.8290 C   0  0  0  0  0  0  0  0  0  0  0  0
  134.0700   72.8260  225.5130 C   0  0  0  0  0  0  0  0  0  0  0  0
  135.4500   73.1260  224.2150 Br  0  0  0  0  0  0  0  0  0  0  0  0
  135.0359   68.6336  222.3996 H   0  0  0  0  0  0  0  0  0  0  0  0
  135.2218   70.1627  223.3440 H   0  0  0  0  0  0  0  0  0  0  0  0
  137.2064   67.9549  223.8346 H   0  0  0  0  0  0  0  0  0  0  0  0
  137.3300   68.8814  222.2939 H   0  0  0  0  0  0  0  0  0  0  0  0
  138.8562   68.3640  225.2125 H   0  0  0  0  0  0  0  0  0  0  0  0
  139.9162   69.2030  224.0214 H   0  0  0  0  0  0  0  0  0  0  0  0
  140.9204   71.4684  224.6490 H   0  0  0  0  0  0  0  0  0  0  0  0
  141.9756   72.7337  226.5246 H   0  0  0  0  0  0  0  0  0  0  0  0
  141.5385   72.0659  228.8883 H   0  0  0  0  0  0  0  0  0  0  0  0
  140.0405   70.1326  229.3836 H   0  0  0  0  0  0  0  0  0  0  0  0
  138.9556   68.8793  227.5189 H   0  0  0  0  0  0  0  0  0  0  0  0
  132.9455   70.5661  227.8325 H   0  0  0  0  0  0  0  0  0  0  0  0
  131.4293   72.4734  228.3665 H   0  0  0  0  0  0  0  0  0  0  0  0
  131.5938   74.6007  227.0727 H   0  0  0  0  0  0  0  0  0  0  0  0
  133.3054   74.8415  225.2767 H   0  0  0  0  0  0  0  0  0  0  0  0
  1  2  2  0
  2  3  1  0
  3  4  1  0
  4  5  1  0
  5  6  1  0
  6  7  1  0
  7  8  1  0
  8  9  2  0
  9 10  1  0
 10 11  2  0
 11 12  1  0
 12 13  2  0
  2 14  1  0
 14 15  1  0
 15 16  2  0
 16 17  1  0
 17 18  2  0
 18 19  1  0
 19 20  2  0
 20 21  1  0
 13  8  1  0
 20 15  1  0
  4 22  1  0
  4 23  1  0
  5 24  1  0
  5 25  1  0
  7 26  1  0
  7 27  1  0
  9 28  1  0
 10 29  1  0
 11 30  1  0
 12 31  1  0
 13 32  1  0
 16 33  1  0
 17 34  1  0
 18 35  1  0
 19 36  1  0
M  CHG  2   3  -1  14  -1
M  END
>  <UniqueID>  (41) 
10

>  <SMILES>  (41) 
O=C([N-]CCSCc1ccccc1)[N-]c1ccccc1Br

>  <Energy>  (41) 
33.50569190073064

>  <Genealogy>  (41) 
O=C([N-]CCSCc1ccccc1)[N-]c1ccccc1Br (protonated)
O=C([N-]CCSCc1ccccc1)[N-]c1ccccc1Br (3D coordinates assigned)
O=C([N-]CCSCc1ccccc1)[N-]c1ccccc1Br (optimized conformer: 33.50569190073064 kcal/mol)

>  <smiles>  (41) 
O=C(NCCSCc1ccccc1)Nc1ccccc1Br

>  <score_type>  (41) 
oracle

>  <origin>  (41) 
autodockgpu

>  <m_score__min__energy>  (41) 
-6.8499999999999996

>  <m_primary>  (41) 
energy

>  <meeko>  (41) 
{"free_energy": -6.03, "intermolecular_energy": -8.42, "internal_energy": -0.86, "cluster_size": 3, "cluster_id": 3, "rank_in_cluster": 2}

>  <energy>  (41) 
-6.85

>  <cluster_rmsd>  (41) 
0.0

>  <rmsd>  (41) 
272.96

>  <cluster>  (41) 
1

$$$$
JPDCHESNUKKMJT-VXJIHLCCNA-M
     RDKit          3D

 36 37  0  0  0  0  0  0  0  0999 V2000
  139.9430   73.9570  222.3080 O   0  0  0  0  0  0  0  0  0  0  0  0
  140.3760   73.1500  221.4440 C   0  0  0  0  0  0  0  0  0  0  0  0
  139.9910   71.7710  221.4840 N   0  0  0  0  0  0  0  0  0  0  0  0
  140.0300   70.9510  222.6910 C   0  0  0  0  0  0  0  0  0  0  0  0
  139.0420   69.7900  222.5930 C   0  0  0  0  0  0  0  0  0  0  0  0
  138.1500   69.5790  224.1780 S   0  0  0  0  0  0  0  0  0  0  0  0
  139.5520   68.8820  225.1210 C   0  0  0  0  0  0  0  0  0  0  0  0
  140.0940   69.9060  226.0810 C   0  0  0  0  0  0  0  0  0  0  0  0
  140.9700   70.9120  225.6390 C   0  0  0  0  0  0  0  0  0  0  0  0
  141.4430   71.8760  226.5350 C   0  0  0  0  0  0  0  0  0  0  0  0
  141.0520   71.8400  227.8760 C   0  0  0  0  0  0  0  0  0  0  0  0
  140.1870   70.8390  228.3230 C   0  0  0  0  0  0  0  0  0  0  0  0
  139.7040   69.8780  227.4310 C   0  0  0  0  0  0  0  0  0  0  0  0
  141.2350   73.6320  220.4080 N   0  0  0  0  0  0  0  0  0  0  0  0
  142.6660   73.6570  220.4950 C   0  0  0  0  0  0  0  0  0  0  0  0
  143.3430   72.4580  220.7530 C   0  0  0  0  0  0  0  0  0  0  0  0
  144.7360   72.4410  220.8610 C   0  0  0  0  0  0  0  0  0  0  0  0
  145.4640   73.6190  220.6890 C   0  0  0  0  0  0  0  0  0  0  0  0
  144.8030   74.8130  220.3880 C   0  0  0  0  0  0  0  0  0  0  0  0
  143.4070   74.8410  220.2790 C   0  0  0  0  0  0  0  0  0  0  0  0
  142.5810   76.4790  219.7200 Br  0  0  0  0  0  0  0  0  0  0  0  0
  141.0458   70.5495  222.8210 H   0  0  0  0  0  0  0  0  0  0  0  0
  139.7518   71.5778  223.5510 H   0  0  0  0  0  0  0  0  0  0  0  0
  138.3162   69.9978  221.7930 H   0  0  0  0  0  0  0  0  0  0  0  0
  139.5961   68.8666  222.3687 H   0  0  0  0  0  0  0  0  0  0  0  0
  139.2089   68.0018  225.6844 H   0  0  0  0  0  0  0  0  0  0  0  0
  140.3477   68.5923  224.4189 H   0  0  0  0  0  0  0  0  0  0  0  0
  141.2846   70.9413  224.5853 H   0  0  0  0  0  0  0  0  0  0  0  0
  142.1245   72.6645  226.1832 H   0  0  0  0  0  0  0  0  0  0  0  0
  141.4252   72.5994  228.5789 H   0  0  0  0  0  0  0  0  0  0  0  0
  139.8850   70.8069  229.3802 H   0  0  0  0  0  0  0  0  0  0  0  0
  139.0161   69.0968  227.7866 H   0  0  0  0  0  0  0  0  0  0  0  0
  142.7743   71.5239  220.8714 H   0  0  0  0  0  0  0  0  0  0  0  0
  145.2589   71.4987  221.0817 H   0  0  0  0  0  0  0  0  0  0  0  0
  146.5593   73.6078  220.7904 H   0  0  0  0  0  0  0  0  0  0  0  0
  145.3822   75.7357  220.2359 H   0  0  0  0  0  0  0  0  0  0  0  0
  1  2  2  0
  2  3  1  0
  3  4  1  0
  4  5  1  0
  5  6  1  0
  6  7  1  0
  7  8  1  0
  8  9  2  0
  9 10  1  0
 10 11  2  0
 11 12  1  0
 12 13  2  0
  2 14  1  0
 14 15  1  0
 15 16  2  0
 16 17  1  0
 17 18  2  0
 18 19  1  0
 19 20  2  0
 20 21  1  0
 13  8  1  0
 20 15  1  0
  4 22  1  0
  4 23  1  0
  5 24  1  0
  5 25  1  0
  7 26  1  0
  7 27  1  0
  9 28  1  0
 10 29  1  0
 11 30  1  0
 12 31  1  0
 13 32  1  0
 16 33  1  0
 17 34  1  0
 18 35  1  0
 19 36  1  0
M  CHG  2   3  -1  14  -1
M  END
>  <UniqueID>  (42) 
10

>  <SMILES>  (42) 
O=C([N-]CCSCc1ccccc1)[N-]c1ccccc1Br

>  <Energy>  (42) 
33.50569190073064

>  <Genealogy>  (42) 
O=C([N-]CCSCc1ccccc1)[N-]c1ccccc1Br (protonated)
O=C([N-]CCSCc1ccccc1)[N-]c1ccccc1Br (3D coordinates assigned)
O=C([N-]CCSCc1ccccc1)[N-]c1ccccc1Br (optimized conformer: 33.50569190073064 kcal/mol)

>  <smiles>  (42) 
O=C(NCCSCc1ccccc1)Nc1ccccc1Br

>  <score_type>  (42) 
oracle

>  <origin>  (42) 
autodockgpu

>  <m_score__min__energy>  (42) 
-6.8499999999999996

>  <m_primary>  (42) 
energy

>  <meeko>  (42) 
{"free_energy": -6.04, "intermolecular_energy": -8.43, "internal_energy": -0.68, "cluster_size": 5, "cluster_id": 4, "rank_in_cluster": 4}

>  <energy>  (42) 
-6.76

>  <cluster_rmsd>  (42) 
1.35

>  <rmsd>  (42) 
272.72

>  <cluster>  (42) 
1

$$$$
JPDCHESNUKKMJT-VXJIHLCCNA-M
     RDKit          3D

 36 37  0  0  0  0  0  0  0  0999 V2000
  139.9930   73.3810  222.7120 O   0  0  0  0  0  0  0  0  0  0  0  0
  140.5270   72.7400  221.7690 C   0  0  0  0  0  0  0  0  0  0  0  0
  139.7890   71.7260  221.0760 N   0  0  0  0  0  0  0  0  0  0  0  0
  139.1740   70.5760  221.7300 C   0  0  0  0  0  0  0  0  0  0  0  0
  138.0300   71.0150  222.6410 C   0  0  0  0  0  0  0  0  0  0  0  0
  138.1430   70.1660  224.2600 S   0  0  0  0  0  0  0  0  0  0  0  0
  139.9660   70.1990  224.3920 C   0  0  0  0  0  0  0  0  0  0  0  0
  140.3800   70.6530  225.7650 C   0  0  0  0  0  0  0  0  0  0  0  0
  141.0600   71.8690  225.9450 C   0  0  0  0  0  0  0  0  0  0  0  0
  141.4120   72.2950  227.2300 C   0  0  0  0  0  0  0  0  0  0  0  0
  141.0970   71.5080  228.3400 C   0  0  0  0  0  0  0  0  0  0  0  0
  140.4270   70.2940  228.1680 C   0  0  0  0  0  0  0  0  0  0  0  0
  140.0640   69.8690  226.8880 C   0  0  0  0  0  0  0  0  0  0  0  0
  141.8670   73.0530  221.3830 N   0  0  0  0  0  0  0  0  0  0  0  0
  142.2660   74.2980  220.7970 C   0  0  0  0  0  0  0  0  0  0  0  0
  141.3460   75.3550  220.7790 C   0  0  0  0  0  0  0  0  0  0  0  0
  141.6890   76.5820  220.2040 C   0  0  0  0  0  0  0  0  0  0  0  0
  142.9620   76.7690  219.6640 C   0  0  0  0  0  0  0  0  0  0  0  0
  143.9020   75.7360  219.7160 C   0  0  0  0  0  0  0  0  0  0  0  0
  143.5680   74.5030  220.2890 C   0  0  0  0  0  0  0  0  0  0  0  0
  144.9510   73.1850  220.4570 Br  0  0  0  0  0  0  0  0  0  0  0  0
  138.7814   69.8926  220.9626 H   0  0  0  0  0  0  0  0  0  0  0  0
  139.9359   70.0702  222.3413 H   0  0  0  0  0  0  0  0  0  0  0  0
  138.0874   72.1024  222.7970 H   0  0  0  0  0  0  0  0  0  0  0  0
  137.0736   70.7519  222.1656 H   0  0  0  0  0  0  0  0  0  0  0  0
  140.3618   69.1892  224.2086 H   0  0  0  0  0  0  0  0  0  0  0  0
  140.3669   70.9010  223.6461 H   0  0  0  0  0  0  0  0  0  0  0  0
  141.3164   72.4881  225.0727 H   0  0  0  0  0  0  0  0  0  0  0  0
  141.9378   73.2515  227.3665 H   0  0  0  0  0  0  0  0  0  0  0  0
  141.3763   71.8439  229.3495 H   0  0  0  0  0  0  0  0  0  0  0  0
  140.1850   69.6718  229.0423 H   0  0  0  0  0  0  0  0  0  0  0  0
  139.5286   68.9169  226.7582 H   0  0  0  0  0  0  0  0  0  0  0  0
  140.3477   75.2182  221.2202 H   0  0  0  0  0  0  0  0  0  0  0  0
  140.9549   77.4008  220.1771 H   0  0  0  0  0  0  0  0  0  0  0  0
  143.2258   77.7295  219.1973 H   0  0  0  0  0  0  0  0  0  0  0  0
  144.9100   75.8926  219.3044 H   0  0  0  0  0  0  0  0  0  0  0  0
  1  2  2  0
  2  3  1  0
  3  4  1  0
  4  5  1  0
  5  6  1  0
  6  7  1  0
  7  8  1  0
  8  9  2  0
  9 10  1  0
 10 11  2  0
 11 12  1  0
 12 13  2  0
  2 14  1  0
 14 15  1  0
 15 16  2  0
 16 17  1  0
 17 18  2  0
 18 19  1  0
 19 20  2  0
 20 21  1  0
 13  8  1  0
 20 15  1  0
  4 22  1  0
  4 23  1  0
  5 24  1  0
  5 25  1  0
  7 26  1  0
  7 27  1  0
  9 28  1  0
 10 29  1  0
 11 30  1  0
 12 31  1  0
 13 32  1  0
 16 33  1  0
 17 34  1  0
 18 35  1  0
 19 36  1  0
M  CHG  2   3  -1  14  -1
M  END
>  <UniqueID>  (43) 
10

>  <SMILES>  (43) 
O=C([N-]CCSCc1ccccc1)[N-]c1ccccc1Br

>  <Energy>  (43) 
33.50569190073064

>  <Genealogy>  (43) 
O=C([N-]CCSCc1ccccc1)[N-]c1ccccc1Br (protonated)
O=C([N-]CCSCc1ccccc1)[N-]c1ccccc1Br (3D coordinates assigned)
O=C([N-]CCSCc1ccccc1)[N-]c1ccccc1Br (optimized conformer: 33.50569190073064 kcal/mol)

>  <smiles>  (43) 
O=C(NCCSCc1ccccc1)Nc1ccccc1Br

>  <score_type>  (43) 
oracle

>  <origin>  (43) 
autodockgpu

>  <m_score__min__energy>  (43) 
-6.8499999999999996

>  <m_primary>  (43) 
energy

>  <meeko>  (43) 
{"free_energy": -5.86, "intermolecular_energy": -8.25, "internal_energy": -0.85, "cluster_size": 5, "cluster_id": 4, "rank_in_cluster": 5}

>  <energy>  (43) 
-6.74

>  <cluster_rmsd>  (43) 
1.39

>  <rmsd>  (43) 
272.92

>  <cluster>  (43) 
1

$$$$
JPDCHESNUKKMJT-VXJIHLCCNA-M
     RDKit          3D

 36 37  0  0  0  0  0  0  0  0999 V2000
  139.3150   70.7770  222.5180 O   0  0  0  0  0  0  0  0  0  0  0  0
  139.8700   71.6110  223.2810 C   0  0  0  0  0  0  0  0  0  0  0  0
  140.6670   72.6700  222.7360 N   0  0  0  0  0  0  0  0  0  0  0  0
  140.4810   73.2220  221.3980 C   0  0  0  0  0  0  0  0  0  0  0  0
  141.2410   74.5380  221.2410 C   0  0  0  0  0  0  0  0  0  0  0  0
  140.2810   75.9160  221.9720 S   0  0  0  0  0  0  0  0  0  0  0  0
  141.0740   77.2580  221.0170 C   0  0  0  0  0  0  0  0  0  0  0  0
  141.4500   78.3940  221.9300 C   0  0  0  0  0  0  0  0  0  0  0  0
  141.4260   78.2310  223.3260 C   0  0  0  0  0  0  0  0  0  0  0  0
  141.8070   79.2850  224.1630 C   0  0  0  0  0  0  0  0  0  0  0  0
  142.2060   80.5070  223.6150 C   0  0  0  0  0  0  0  0  0  0  0  0
  142.2250   80.6770  222.2290 C   0  0  0  0  0  0  0  0  0  0  0  0
  141.8540   79.6250  221.3880 C   0  0  0  0  0  0  0  0  0  0  0  0
  139.6760   71.5030  224.6930 N   0  0  0  0  0  0  0  0  0  0  0  0
  139.8470   70.2910  225.4380 C   0  0  0  0  0  0  0  0  0  0  0  0
  139.5150   69.0750  224.8270 C   0  0  0  0  0  0  0  0  0  0  0  0
  139.6530   67.8710  225.5230 C   0  0  0  0  0  0  0  0  0  0  0  0
  140.1460   67.8730  226.8290 C   0  0  0  0  0  0  0  0  0  0  0  0
  140.5210   69.0750  227.4330 C   0  0  0  0  0  0  0  0  0  0  0  0
  140.3870   70.2860  226.7440 C   0  0  0  0  0  0  0  0  0  0  0  0
  141.0590   71.8760  227.5800 Br  0  0  0  0  0  0  0  0  0  0  0  0
  140.8530   72.5004  220.6557 H   0  0  0  0  0  0  0  0  0  0  0  0
  139.4091   73.4144  221.2429 H   0  0  0  0  0  0  0  0  0  0  0  0
  142.2116   74.4601  221.7528 H   0  0  0  0  0  0  0  0  0  0  0  0
  141.3952   74.7372  220.1702 H   0  0  0  0  0  0  0  0  0  0  0  0
  141.9797   76.8698  220.5281 H   0  0  0  0  0  0  0  0  0  0  0  0
  140.3664   77.6257  220.2594 H   0  0  0  0  0  0  0  0  0  0  0  0
  141.1069   77.2725  223.7612 H   0  0  0  0  0  0  0  0  0  0  0  0
  141.7925   79.1517  225.2548 H   0  0  0  0  0  0  0  0  0  0  0  0
  142.5049   81.3346  224.2751 H   0  0  0  0  0  0  0  0  0  0  0  0
  142.5328   81.6414  221.7985 H   0  0  0  0  0  0  0  0  0  0  0  0
  141.8784   79.7614  220.2968 H   0  0  0  0  0  0  0  0  0  0  0  0
  139.1430   69.0677  223.7918 H   0  0  0  0  0  0  0  0  0  0  0  0
  139.3733   66.9222  225.0419 H   0  0  0  0  0  0  0  0  0  0  0  0
  140.2392   66.9271  227.3827 H   0  0  0  0  0  0  0  0  0  0  0  0
  140.9241   69.0701  228.4564 H   0  0  0  0  0  0  0  0  0  0  0  0
  1  2  2  0
  2  3  1  0
  3  4  1  0
  4  5  1  0
  5  6  1  0
  6  7  1  0
  7  8  1  0
  8  9  2  0
  9 10  1  0
 10 11  2  0
 11 12  1  0
 12 13  2  0
  2 14  1  0
 14 15  1  0
 15 16  2  0
 16 17  1  0
 17 18  2  0
 18 19  1  0
 19 20  2  0
 20 21  1  0
 13  8  1  0
 20 15  1  0
  4 22  1  0
  4 23  1  0
  5 24  1  0
  5 25  1  0
  7 26  1  0
  7 27  1  0
  9 28  1  0
 10 29  1  0
 11 30  1  0
 12 31  1  0
 13 32  1  0
 16 33  1  0
 17 34  1  0
 18 35  1  0
 19 36  1  0
M  CHG  2   3  -1  14  -1
M  END
>  <UniqueID>  (44) 
10

>  <SMILES>  (44) 
O=C([N-]CCSCc1ccccc1)[N-]c1ccccc1Br

>  <Energy>  (44) 
33.50569190073064

>  <Genealogy>  (44) 
O=C([N-]CCSCc1ccccc1)[N-]c1ccccc1Br (protonated)
O=C([N-]CCSCc1ccccc1)[N-]c1ccccc1Br (3D coordinates assigned)
O=C([N-]CCSCc1ccccc1)[N-]c1ccccc1Br (optimized conformer: 33.50569190073064 kcal/mol)

>  <smiles>  (44) 
O=C(NCCSCc1ccccc1)Nc1ccccc1Br

>  <score_type>  (44) 
oracle

>  <origin>  (44) 
autodockgpu

>  <m_score__min__energy>  (44) 
-6.8499999999999996

>  <m_primary>  (44) 
energy

>  <meeko>  (44) 
{"free_energy": -6.76, "intermolecular_energy": -9.15, "internal_energy": -0.42, "cluster_size": 9, "cluster_id": 1, "rank_in_cluster": 2}

>  <energy>  (44) 
-6.73

>  <cluster_rmsd>  (44) 
0.67

>  <rmsd>  (44) 
272.92

>  <cluster>  (44) 
1

$$$$
JPDCHESNUKKMJT-VXJIHLCCNA-M
     RDKit          3D

 36 37  0  0  0  0  0  0  0  0999 V2000
  138.6850   71.8350  223.0990 O   0  0  0  0  0  0  0  0  0  0  0  0
  139.9370   71.9610  223.1460 C   0  0  0  0  0  0  0  0  0  0  0  0
  140.5840   73.0300  222.4450 N   0  0  0  0  0  0  0  0  0  0  0  0
  139.8930   74.2210  221.9620 C   0  0  0  0  0  0  0  0  0  0  0  0
  140.8780   75.3660  221.7300 C   0  0  0  0  0  0  0  0  0  0  0  0
  140.0330   76.9790  221.9170 S   0  0  0  0  0  0  0  0  0  0  0  0
  141.3950   78.0110  221.2670 C   0  0  0  0  0  0  0  0  0  0  0  0
  141.6690   79.1590  222.1990 C   0  0  0  0  0  0  0  0  0  0  0  0
  142.9610   79.3810  222.7040 C   0  0  0  0  0  0  0  0  0  0  0  0
  143.2100   80.4700  223.5460 C   0  0  0  0  0  0  0  0  0  0  0  0
  142.1720   81.3380  223.8960 C   0  0  0  0  0  0  0  0  0  0  0  0
  140.8830   81.1180  223.4040 C   0  0  0  0  0  0  0  0  0  0  0  0
  140.6310   80.0370  222.5550 C   0  0  0  0  0  0  0  0  0  0  0  0
  140.7010   71.0410  223.9280 N   0  0  0  0  0  0  0  0  0  0  0  0
  140.5990   70.9160  225.3520 C   0  0  0  0  0  0  0  0  0  0  0  0
  141.1710   71.9110  226.1550 C   0  0  0  0  0  0  0  0  0  0  0  0
  141.1070   71.8210  227.5480 C   0  0  0  0  0  0  0  0  0  0  0  0
  140.4510   70.7450  228.1490 C   0  0  0  0  0  0  0  0  0  0  0  0
  139.8390   69.7690  227.3580 C   0  0  0  0  0  0  0  0  0  0  0  0
  139.8980   69.8500  225.9610 C   0  0  0  0  0  0  0  0  0  0  0  0
  138.9130   68.5590  224.9420 Br  0  0  0  0  0  0  0  0  0  0  0  0
  139.3863   73.9842  221.0148 H   0  0  0  0  0  0  0  0  0  0  0  0
  139.1613   74.5350  222.7209 H   0  0  0  0  0  0  0  0  0  0  0  0
  141.6943   75.2968  222.4641 H   0  0  0  0  0  0  0  0  0  0  0  0
  141.2813   75.2896  220.7095 H   0  0  0  0  0  0  0  0  0  0  0  0
  142.3023   77.3965  221.1713 H   0  0  0  0  0  0  0  0  0  0  0  0
  141.1048   78.4093  220.2835 H   0  0  0  0  0  0  0  0  0  0  0  0
  143.7794   78.6964  222.4365 H   0  0  0  0  0  0  0  0  0  0  0  0
  144.2248   80.6435  223.9334 H   0  0  0  0  0  0  0  0  0  0  0  0
  142.3698   82.1937  224.5583 H   0  0  0  0  0  0  0  0  0  0  0  0
  140.0648   81.7971  223.6855 H   0  0  0  0  0  0  0  0  0  0  0  0
  139.6161   79.8727  222.1638 H   0  0  0  0  0  0  0  0  0  0  0  0
  141.6741   72.7693  225.6857 H   0  0  0  0  0  0  0  0  0  0  0  0
  141.5736   72.5981  228.1712 H   0  0  0  0  0  0  0  0  0  0  0  0
  140.4159   70.6655  229.2456 H   0  0  0  0  0  0  0  0  0  0  0  0
  139.3079   68.9323  227.8353 H   0  0  0  0  0  0  0  0  0  0  0  0
  1  2  2  0
  2  3  1  0
  3  4  1  0
  4  5  1  0
  5  6  1  0
  6  7  1  0
  7  8  1  0
  8  9  2  0
  9 10  1  0
 10 11  2  0
 11 12  1  0
 12 13  2  0
  2 14  1  0
 14 15  1  0
 15 16  2  0
 16 17  1  0
 17 18  2  0
 18 19  1  0
 19 20  2  0
 20 21  1  0
 13  8  1  0
 20 15  1  0
  4 22  1  0
  4 23  1  0
  5 24  1  0
  5 25  1  0
  7 26  1  0
  7 27  1  0
  9 28  1  0
 10 29  1  0
 11 30  1  0
 12 31  1  0
 13 32  1  0
 16 33  1  0
 17 34  1  0
 18 35  1  0
 19 36  1  0
M  CHG  2   3  -1  14  -1
M  END
>  <UniqueID>  (45) 
10

>  <SMILES>  (45) 
O=C([N-]CCSCc1ccccc1)[N-]c1ccccc1Br

>  <Energy>  (45) 
33.50569190073064

>  <Genealogy>  (45) 
O=C([N-]CCSCc1ccccc1)[N-]c1ccccc1Br (protonated)
O=C([N-]CCSCc1ccccc1)[N-]c1ccccc1Br (3D coordinates assigned)
O=C([N-]CCSCc1ccccc1)[N-]c1ccccc1Br (optimized conformer: 33.50569190073064 kcal/mol)

>  <smiles>  (45) 
O=C(NCCSCc1ccccc1)Nc1ccccc1Br

>  <score_type>  (45) 
oracle

>  <origin>  (45) 
autodockgpu

>  <m_score__min__energy>  (45) 
-6.8499999999999996

>  <m_primary>  (45) 
energy

>  <meeko>  (45) 
{"free_energy": -6.73, "intermolecular_energy": -9.12, "internal_energy": -0.5, "cluster_size": 9, "cluster_id": 1, "rank_in_cluster": 5}

>  <energy>  (45) 
-6.73

>  <cluster_rmsd>  (45) 
0.87

>  <rmsd>  (45) 
273.09

>  <cluster>  (45) 
1

$$$$
JPDCHESNUKKMJT-VXJIHLCCNA-M
     RDKit          3D

 36 37  0  0  0  0  0  0  0  0999 V2000
  140.2770   75.2390  222.0160 O   0  0  0  0  0  0  0  0  0  0  0  0
  140.4920   74.0140  221.8230 C   0  0  0  0  0  0  0  0  0  0  0  0
  139.9810   73.0370  222.7390 N   0  0  0  0  0  0  0  0  0  0  0  0
  140.0660   71.5960  222.5220 C   0  0  0  0  0  0  0  0  0  0  0  0
  138.6750   70.9660  222.5060 C   0  0  0  0  0  0  0  0  0  0  0  0
  138.3190   70.1720  224.1180 S   0  0  0  0  0  0  0  0  0  0  0  0
  140.0560   69.8580  224.5900 C   0  0  0  0  0  0  0  0  0  0  0  0
  140.3620   70.5110  225.9110 C   0  0  0  0  0  0  0  0  0  0  0  0
  139.8890   69.9570  227.1120 C   0  0  0  0  0  0  0  0  0  0  0  0
  140.2060   70.5560  228.3360 C   0  0  0  0  0  0  0  0  0  0  0  0
  140.9880   71.7130  228.3680 C   0  0  0  0  0  0  0  0  0  0  0  0
  141.4560   72.2730  227.1770 C   0  0  0  0  0  0  0  0  0  0  0  0
  141.1500   71.6730  225.9520 C   0  0  0  0  0  0  0  0  0  0  0  0
  141.2270   73.6080  220.6660 N   0  0  0  0  0  0  0  0  0  0  0  0
  142.6580   73.5680  220.5950 C   0  0  0  0  0  0  0  0  0  0  0  0
  143.3070   72.3500  220.8340 C   0  0  0  0  0  0  0  0  0  0  0  0
  144.7020   72.2710  220.7900 C   0  0  0  0  0  0  0  0  0  0  0  0
  145.4560   73.4040  220.4830 C   0  0  0  0  0  0  0  0  0  0  0  0
  144.8170   74.6140  220.2010 C   0  0  0  0  0  0  0  0  0  0  0  0
  143.4200   74.7040  220.2440 C   0  0  0  0  0  0  0  0  0  0  0  0
  142.6090   76.3550  219.7010 Br  0  0  0  0  0  0  0  0  0  0  0  0
  140.5592   71.4052  221.5575 H   0  0  0  0  0  0  0  0  0  0  0  0
  140.6453   71.1497  223.3437 H   0  0  0  0  0  0  0  0  0  0  0  0
  137.9250   71.7470  222.3126 H   0  0  0  0  0  0  0  0  0  0  0  0
  138.6366   70.2029  221.7147 H   0  0  0  0  0  0  0  0  0  0  0  0
  140.2192   68.7735  224.6744 H   0  0  0  0  0  0  0  0  0  0  0  0
  140.7189   70.2788  223.8196 H   0  0  0  0  0  0  0  0  0  0  0  0
  139.2676   69.0496  227.0901 H   0  0  0  0  0  0  0  0  0  0  0  0
  139.8388   70.1152  229.2745 H   0  0  0  0  0  0  0  0  0  0  0  0
  141.2353   72.1832  229.3312 H   0  0  0  0  0  0  0  0  0  0  0  0
  142.0664   73.1877  227.2030 H   0  0  0  0  0  0  0  0  0  0  0  0
  141.5276   72.1124  225.0170 H   0  0  0  0  0  0  0  0  0  0  0  0
  142.7153   71.4501  221.0577 H   0  0  0  0  0  0  0  0  0  0  0  0
  145.2054   71.3152  220.9975 H   0  0  0  0  0  0  0  0  0  0  0  0
  146.5542   73.3446  220.4630 H   0  0  0  0  0  0  0  0  0  0  0  0
  145.4145   75.5010  219.9437 H   0  0  0  0  0  0  0  0  0  0  0  0
  1  2  2  0
  2  3  1  0
  3  4  1  0
  4  5  1  0
  5  6  1  0
  6  7  1  0
  7  8  1  0
  8  9  2  0
  9 10  1  0
 10 11  2  0
 11 12  1  0
 12 13  2  0
  2 14  1  0
 14 15  1  0
 15 16  2  0
 16 17  1  0
 17 18  2  0
 18 19  1  0
 19 20  2  0
 20 21  1  0
 13  8  1  0
 20 15  1  0
  4 22  1  0
  4 23  1  0
  5 24  1  0
  5 25  1  0
  7 26  1  0
  7 27  1  0
  9 28  1  0
 10 29  1  0
 11 30  1  0
 12 31  1  0
 13 32  1  0
 16 33  1  0
 17 34  1  0
 18 35  1  0
 19 36  1  0
M  CHG  2   3  -1  14  -1
M  END
>  <UniqueID>  (46) 
10

>  <SMILES>  (46) 
O=C([N-]CCSCc1ccccc1)[N-]c1ccccc1Br

>  <Energy>  (46) 
33.50569190073064

>  <Genealogy>  (46) 
O=C([N-]CCSCc1ccccc1)[N-]c1ccccc1Br (protonated)
O=C([N-]CCSCc1ccccc1)[N-]c1ccccc1Br (3D coordinates assigned)
O=C([N-]CCSCc1ccccc1)[N-]c1ccccc1Br (optimized conformer: 33.50569190073064 kcal/mol)

>  <smiles>  (46) 
O=C(NCCSCc1ccccc1)Nc1ccccc1Br

>  <score_type>  (46) 
oracle

>  <origin>  (46) 
autodockgpu

>  <m_score__min__energy>  (46) 
-6.8499999999999996

>  <m_primary>  (46) 
energy

>  <meeko>  (46) 
{"free_energy": -6.23, "intermolecular_energy": -8.61, "internal_energy": -0.85, "cluster_size": 5, "cluster_id": 4, "rank_in_cluster": 2}

>  <energy>  (46) 
-6.69

>  <cluster_rmsd>  (46) 
1.69

>  <rmsd>  (46) 
272.84

>  <cluster>  (46) 
1

$$$$
JPDCHESNUKKMJT-VXJIHLCCNA-M
     RDKit          3D

 36 37  0  0  0  0  0  0  0  0999 V2000
  139.0170   71.1540  223.0060 O   0  0  0  0  0  0  0  0  0  0  0  0
  139.9500   71.8600  223.4720 C   0  0  0  0  0  0  0  0  0  0  0  0
  140.5770   72.8590  222.6590 N   0  0  0  0  0  0  0  0  0  0  0  0
  139.8480   73.9060  221.9500 C   0  0  0  0  0  0  0  0  0  0  0  0
  140.7960   75.0090  221.4840 C   0  0  0  0  0  0  0  0  0  0  0  0
  140.0380   76.6540  221.7530 S   0  0  0  0  0  0  0  0  0  0  0  0
  141.4350   77.6420  221.1110 C   0  0  0  0  0  0  0  0  0  0  0  0
  141.6930   78.8220  222.0070 C   0  0  0  0  0  0  0  0  0  0  0  0
  141.8420   78.6520  223.3940 C   0  0  0  0  0  0  0  0  0  0  0  0
  142.1120   79.7530  224.2130 C   0  0  0  0  0  0  0  0  0  0  0  0
  142.2270   81.0290  223.6560 C   0  0  0  0  0  0  0  0  0  0  0  0
  142.0720   81.2070  222.2800 C   0  0  0  0  0  0  0  0  0  0  0  0
  141.8110   80.1090  221.4560 C   0  0  0  0  0  0  0  0  0  0  0  0
  140.3570   71.6690  224.8290 N   0  0  0  0  0  0  0  0  0  0  0  0
  140.1800   70.4480  225.5590 C   0  0  0  0  0  0  0  0  0  0  0  0
  139.8410   69.2880  224.8510 C   0  0  0  0  0  0  0  0  0  0  0  0
  139.6450   68.0790  225.5250 C   0  0  0  0  0  0  0  0  0  0  0  0
  139.8080   68.0180  226.9100 C   0  0  0  0  0  0  0  0  0  0  0  0
  140.1880   69.1590  227.6210 C   0  0  0  0  0  0  0  0  0  0  0  0
  140.3860   70.3750  226.9550 C   0  0  0  0  0  0  0  0  0  0  0  0
  141.0480   71.8600  227.9710 Br  0  0  0  0  0  0  0  0  0  0  0  0
  139.3479   73.4669  221.0742 H   0  0  0  0  0  0  0  0  0  0  0  0
  139.1075   74.3447  222.6350 H   0  0  0  0  0  0  0  0  0  0  0  0
  141.7351   74.9447  222.0531 H   0  0  0  0  0  0  0  0  0  0  0  0
  140.9964   74.8786  220.4103 H   0  0  0  0  0  0  0  0  0  0  0  0
  142.3364   77.0129  221.0704 H   0  0  0  0  0  0  0  0  0  0  0  0
  141.1842   78.0050  220.1034 H   0  0  0  0  0  0  0  0  0  0  0  0
  141.7459   77.6497  223.8369 H   0  0  0  0  0  0  0  0  0  0  0  0
  142.2340   79.6141  225.2973 H   0  0  0  0  0  0  0  0  0  0  0  0
  142.4397   81.8937  224.3018 H   0  0  0  0  0  0  0  0  0  0  0  0
  142.1555   82.2133  221.8437 H   0  0  0  0  0  0  0  0  0  0  0  0
  141.6975   80.2529  220.3714 H   0  0  0  0  0  0  0  0  0  0  0  0
  139.7283   69.3285  223.7575 H   0  0  0  0  0  0  0  0  0  0  0  0
  139.3624   67.1760  224.9640 H   0  0  0  0  0  0  0  0  0  0  0  0
  139.6371   67.0706  227.4421 H   0  0  0  0  0  0  0  0  0  0  0  0
  140.3325   69.1020  228.7100 H   0  0  0  0  0  0  0  0  0  0  0  0
  1  2  2  0
  2  3  1  0
  3  4  1  0
  4  5  1  0
  5  6  1  0
  6  7  1  0
  7  8  1  0
  8  9  2  0
  9 10  1  0
 10 11  2  0
 11 12  1  0
 12 13  2  0
  2 14  1  0
 14 15  1  0
 15 16  2  0
 16 17  1  0
 17 18  2  0
 18 19  1  0
 19 20  2  0
 20 21  1  0
 13  8  1  0
 20 15  1  0
  4 22  1  0
  4 23  1  0
  5 24  1  0
  5 25  1  0
  7 26  1  0
  7 27  1  0
  9 28  1  0
 10 29  1  0
 11 30  1  0
 12 31  1  0
 13 32  1  0
 16 33  1  0
 17 34  1  0
 18 35  1  0
 19 36  1  0
M  CHG  2   3  -1  14  -1
M  END
>  <UniqueID>  (47) 
10

>  <SMILES>  (47) 
O=C([N-]CCSCc1ccccc1)[N-]c1ccccc1Br

>  <Energy>  (47) 
33.50569190073064

>  <Genealogy>  (47) 
O=C([N-]CCSCc1ccccc1)[N-]c1ccccc1Br (protonated)
O=C([N-]CCSCc1ccccc1)[N-]c1ccccc1Br (3D coordinates assigned)
O=C([N-]CCSCc1ccccc1)[N-]c1ccccc1Br (optimized conformer: 33.50569190073064 kcal/mol)

>  <smiles>  (47) 
O=C(NCCSCc1ccccc1)Nc1ccccc1Br

>  <score_type>  (47) 
oracle

>  <origin>  (47) 
autodockgpu

>  <m_score__min__energy>  (47) 
-6.8499999999999996

>  <m_primary>  (47) 
energy

>  <meeko>  (47) 
{"free_energy": -6.74, "intermolecular_energy": -9.13, "internal_energy": -0.33, "cluster_size": 9, "cluster_id": 1, "rank_in_cluster": 3}

>  <energy>  (47) 
-6.51

>  <cluster_rmsd>  (47) 
0.76

>  <rmsd>  (47) 
272.94

>  <cluster>  (47) 
1

$$$$
JPDCHESNUKKMJT-VXJIHLCCNA-M
     RDKit          3D

 36 37  0  0  0  0  0  0  0  0999 V2000
  138.7640   71.4320  223.2150 O   0  0  0  0  0  0  0  0  0  0  0  0
  139.9410   71.8590  223.3450 C   0  0  0  0  0  0  0  0  0  0  0  0
  140.3460   73.0740  222.7020 N   0  0  0  0  0  0  0  0  0  0  0  0
  140.3350   73.2710  221.2560 C   0  0  0  0  0  0  0  0  0  0  0  0
  139.9100   74.6950  220.9040 C   0  0  0  0  0  0  0  0  0  0  0  0
  141.3000   75.8570  221.1670 S   0  0  0  0  0  0  0  0  0  0  0  0
  140.4490   76.9440  222.3640 C   0  0  0  0  0  0  0  0  0  0  0  0
  141.2030   78.2350  222.5230 C   0  0  0  0  0  0  0  0  0  0  0  0
  141.5030   79.0340  221.4060 C   0  0  0  0  0  0  0  0  0  0  0  0
  142.1790   80.2470  221.5710 C   0  0  0  0  0  0  0  0  0  0  0  0
  142.5660   80.6680  222.8450 C   0  0  0  0  0  0  0  0  0  0  0  0
  142.2770   79.8760  223.9590 C   0  0  0  0  0  0  0  0  0  0  0  0
  141.5950   78.6670  223.8020 C   0  0  0  0  0  0  0  0  0  0  0  0
  140.8610   71.1310  224.1620 N   0  0  0  0  0  0  0  0  0  0  0  0
  140.7060   70.9400  225.5740 C   0  0  0  0  0  0  0  0  0  0  0  0
  141.1900   71.9290  226.4410 C   0  0  0  0  0  0  0  0  0  0  0  0
  141.0730   71.7760  227.8250 C   0  0  0  0  0  0  0  0  0  0  0  0
  140.4510   70.6430  228.3520 C   0  0  0  0  0  0  0  0  0  0  0  0
  139.9260   69.6720  227.4970 C   0  0  0  0  0  0  0  0  0  0  0  0
  140.0380   69.8150  226.1080 C   0  0  0  0  0  0  0  0  0  0  0  0
  139.1660   68.5190  224.9960 Br  0  0  0  0  0  0  0  0  0  0  0  0
  141.3447   73.0880  220.8598 H   0  0  0  0  0  0  0  0  0  0  0  0
  139.6149   72.5687  220.8108 H   0  0  0  0  0  0  0  0  0  0  0  0
  139.6016   74.7312  219.8487 H   0  0  0  0  0  0  0  0  0  0  0  0
  139.0712   74.9884  221.5523 H   0  0  0  0  0  0  0  0  0  0  0  0
  139.4333   77.1592  222.0006 H   0  0  0  0  0  0  0  0  0  0  0  0
  140.4004   76.4353  223.3381 H   0  0  0  0  0  0  0  0  0  0  0  0
  141.2053   78.7043  220.3997 H   0  0  0  0  0  0  0  0  0  0  0  0
  142.4066   80.8715  220.6945 H   0  0  0  0  0  0  0  0  0  0  0  0
  143.0980   81.6225  222.9713 H   0  0  0  0  0  0  0  0  0  0  0  0
  142.5871   80.2051  224.9618 H   0  0  0  0  0  0  0  0  0  0  0  0
  141.3637   78.0503  224.6830 H   0  0  0  0  0  0  0  0  0  0  0  0
  141.6651   72.8316  226.0293 H   0  0  0  0  0  0  0  0  0  0  0  0
  141.4711   72.5486  228.4993 H   0  0  0  0  0  0  0  0  0  0  0  0
  140.3744   70.5150  229.4418 H   0  0  0  0  0  0  0  0  0  0  0  0
  139.4213   68.7893  227.9167 H   0  0  0  0  0  0  0  0  0  0  0  0
  1  2  2  0
  2  3  1  0
  3  4  1  0
  4  5  1  0
  5  6  1  0
  6  7  1  0
  7  8  1  0
  8  9  2  0
  9 10  1  0
 10 11  2  0
 11 12  1  0
 12 13  2  0
  2 14  1  0
 14 15  1  0
 15 16  2  0
 16 17  1  0
 17 18  2  0
 18 19  1  0
 19 20  2  0
 20 21  1  0
 13  8  1  0
 20 15  1  0
  4 22  1  0
  4 23  1  0
  5 24  1  0
  5 25  1  0
  7 26  1  0
  7 27  1  0
  9 28  1  0
 10 29  1  0
 11 30  1  0
 12 31  1  0
 13 32  1  0
 16 33  1  0
 17 34  1  0
 18 35  1  0
 19 36  1  0
M  CHG  2   3  -1  14  -1
M  END
>  <UniqueID>  (48) 
10

>  <SMILES>  (48) 
O=C([N-]CCSCc1ccccc1)[N-]c1ccccc1Br

>  <Energy>  (48) 
33.50569190073064

>  <Genealogy>  (48) 
O=C([N-]CCSCc1ccccc1)[N-]c1ccccc1Br (protonated)
O=C([N-]CCSCc1ccccc1)[N-]c1ccccc1Br (3D coordinates assigned)
O=C([N-]CCSCc1ccccc1)[N-]c1ccccc1Br (optimized conformer: 33.50569190073064 kcal/mol)

>  <smiles>  (48) 
O=C(NCCSCc1ccccc1)Nc1ccccc1Br

>  <score_type>  (48) 
oracle

>  <origin>  (48) 
autodockgpu

>  <m_score__min__energy>  (48) 
-6.8499999999999996

>  <m_primary>  (48) 
energy

>  <meeko>  (48) 
{"free_energy": -6.73, "intermolecular_energy": -9.12, "internal_energy": -0.55, "cluster_size": 9, "cluster_id": 1, "rank_in_cluster": 4}

>  <energy>  (48) 
-6.5

>  <cluster_rmsd>  (48) 
1.74

>  <rmsd>  (48) 
272.76

>  <cluster>  (48) 
1

$$$$
JPDCHESNUKKMJT-VXJIHLCCNA-M
     RDKit          3D

 36 37  0  0  0  0  0  0  0  0999 V2000
  139.9630   74.7930  222.0290 O   0  0  0  0  0  0  0  0  0  0  0  0
  140.5300   73.6830  221.8520 C   0  0  0  0  0  0  0  0  0  0  0  0
  140.3970   72.6400  222.8250 N   0  0  0  0  0  0  0  0  0  0  0  0
  140.0840   71.2530  222.4930 C   0  0  0  0  0  0  0  0  0  0  0  0
  138.5780   71.0070  222.5540 C   0  0  0  0  0  0  0  0  0  0  0  0
  138.1180   70.2720  224.1670 S   0  0  0  0  0  0  0  0  0  0  0  0
  139.7990   69.7380  224.6460 C   0  0  0  0  0  0  0  0  0  0  0  0
  140.2190   70.4210  225.9180 C   0  0  0  0  0  0  0  0  0  0  0  0
  139.8400   69.9050  227.1690 C   0  0  0  0  0  0  0  0  0  0  0  0
  140.2630   70.5320  228.3460 C   0  0  0  0  0  0  0  0  0  0  0  0
  141.0580   71.6790  228.2830 C   0  0  0  0  0  0  0  0  0  0  0  0
  141.4330   72.2010  227.0430 C   0  0  0  0  0  0  0  0  0  0  0  0
  141.0210   71.5740  225.8640 C   0  0  0  0  0  0  0  0  0  0  0  0
  141.2870   73.4680  220.6580 N   0  0  0  0  0  0  0  0  0  0  0  0
  142.7180   73.4830  220.5990 C   0  0  0  0  0  0  0  0  0  0  0  0
  143.4110   72.2890  220.8350 C   0  0  0  0  0  0  0  0  0  0  0  0
  144.8080   72.2620  220.8020 C   0  0  0  0  0  0  0  0  0  0  0  0
  145.5220   73.4260  220.5100 C   0  0  0  0  0  0  0  0  0  0  0  0
  144.8400   74.6130  220.2310 C   0  0  0  0  0  0  0  0  0  0  0  0
  143.4410   74.6500  220.2620 C   0  0  0  0  0  0  0  0  0  0  0  0
  142.5720   76.2730  219.7250 Br  0  0  0  0  0  0  0  0  0  0  0  0
  140.4440   71.0355  221.4766 H   0  0  0  0  0  0  0  0  0  0  0  0
  140.5784   70.5956  223.2234 H   0  0  0  0  0  0  0  0  0  0  0  0
  138.0489   71.9630  222.4269 H   0  0  0  0  0  0  0  0  0  0  0  0
  138.2967   70.3104  221.7505 H   0  0  0  0  0  0  0  0  0  0  0  0
  139.8040   68.6488  224.7998 H   0  0  0  0  0  0  0  0  0  0  0  0
  140.5028   70.0078  223.8449 H   0  0  0  0  0  0  0  0  0  0  0  0
  139.2090   69.0056  227.2230 H   0  0  0  0  0  0  0  0  0  0  0  0
  139.9690   70.1210  229.3230 H   0  0  0  0  0  0  0  0  0  0  0  0
  141.3885   72.1709  229.2097 H   0  0  0  0  0  0  0  0  0  0  0  0
  142.0540   73.1076  226.9943 H   0  0  0  0  0  0  0  0  0  0  0  0
  141.3255   71.9844  224.8899 H   0  0  0  0  0  0  0  0  0  0  0  0
  142.8518   71.3659  221.0478 H   0  0  0  0  0  0  0  0  0  0  0  0
  145.3450   71.3239  221.0060 H   0  0  0  0  0  0  0  0  0  0  0  0
  146.6218   73.4084  220.4996 H   0  0  0  0  0  0  0  0  0  0  0  0
  145.4057   75.5239  219.9855 H   0  0  0  0  0  0  0  0  0  0  0  0
  1  2  2  0
  2  3  1  0
  3  4  1  0
  4  5  1  0
  5  6  1  0
  6  7  1  0
  7  8  1  0
  8  9  2  0
  9 10  1  0
 10 11  2  0
 11 12  1  0
 12 13  2  0
  2 14  1  0
 14 15  1  0
 15 16  2  0
 16 17  1  0
 17 18  2  0
 18 19  1  0
 19 20  2  0
 20 21  1  0
 13  8  1  0
 20 15  1  0
  4 22  1  0
  4 23  1  0
  5 24  1  0
  5 25  1  0
  7 26  1  0
  7 27  1  0
  9 28  1  0
 10 29  1  0
 11 30  1  0
 12 31  1  0
 13 32  1  0
 16 33  1  0
 17 34  1  0
 18 35  1  0
 19 36  1  0
M  CHG  2   3  -1  14  -1
M  END
>  <UniqueID>  (49) 
10

>  <SMILES>  (49) 
O=C([N-]CCSCc1ccccc1)[N-]c1ccccc1Br

>  <Energy>  (49) 
33.50569190073064

>  <Genealogy>  (49) 
O=C([N-]CCSCc1ccccc1)[N-]c1ccccc1Br (protonated)
O=C([N-]CCSCc1ccccc1)[N-]c1ccccc1Br (3D coordinates assigned)
O=C([N-]CCSCc1ccccc1)[N-]c1ccccc1Br (optimized conformer: 33.50569190073064 kcal/mol)

>  <smiles>  (49) 
O=C(NCCSCc1ccccc1)Nc1ccccc1Br

>  <score_type>  (49) 
oracle

>  <origin>  (49) 
autodockgpu

>  <m_score__min__energy>  (49) 
-6.8499999999999996

>  <m_primary>  (49) 
energy

>  <meeko>  (49) 
{"free_energy": -6.26, "intermolecular_energy": -8.65, "internal_energy": -0.87, "cluster_size": 5, "cluster_id": 4, "rank_in_cluster": 1}

>  <energy>  (49) 
-6.17

>  <cluster_rmsd>  (49) 
1.45

>  <rmsd>  (49) 
272.47

>  <cluster>  (49) 
1

$$$$
JPDCHESNUKKMJT-VXJIHLCCNA-M
     RDKit          3D

 36 37  0  0  0  0  0  0  0  0999 V2000
  141.8290   75.3030  221.2380 O   0  0  0  0  0  0  0  0  0  0  0  0
  140.6900   75.5130  221.7320 C   0  0  0  0  0  0  0  0  0  0  0  0
  139.9480   74.4390  222.3230 N   0  0  0  0  0  0  0  0  0  0  0  0
  140.1770   73.0300  222.0200 C   0  0  0  0  0  0  0  0  0  0  0  0
  138.9620   72.1860  222.4030 C   0  0  0  0  0  0  0  0  0  0  0  0
  139.4880   70.6970  223.3280 S   0  0  0  0  0  0  0  0  0  0  0  0
  140.6620   71.5430  224.4450 C   0  0  0  0  0  0  0  0  0  0  0  0
  140.6440   70.8970  225.8040 C   0  0  0  0  0  0  0  0  0  0  0  0
  140.3900   69.5220  225.9430 C   0  0  0  0  0  0  0  0  0  0  0  0
  140.4060   68.9280  227.2090 C   0  0  0  0  0  0  0  0  0  0  0  0
  140.6660   69.7010  228.3430 C   0  0  0  0  0  0  0  0  0  0  0  0
  140.9110   71.0700  228.2140 C   0  0  0  0  0  0  0  0  0  0  0  0
  140.9060   71.6670  226.9500 C   0  0  0  0  0  0  0  0  0  0  0  0
  140.1580   76.8400  221.7210 N   0  0  0  0  0  0  0  0  0  0  0  0
  140.8980   78.0070  222.1010 C   0  0  0  0  0  0  0  0  0  0  0  0
  141.1060   78.2540  223.4640 C   0  0  0  0  0  0  0  0  0  0  0  0
  141.8100   79.3870  223.8790 C   0  0  0  0  0  0  0  0  0  0  0  0
  142.3290   80.2720  222.9330 C   0  0  0  0  0  0  0  0  0  0  0  0
  142.1650   80.0130  221.5700 C   0  0  0  0  0  0  0  0  0  0  0  0
  141.4610   78.8800  221.1440 C   0  0  0  0  0  0  0  0  0  0  0  0
  141.4030   78.5120  219.2620 Br  0  0  0  0  0  0  0  0  0  0  0  0
  140.3671   72.9196  220.9422 H   0  0  0  0  0  0  0  0  0  0  0  0
  141.0441   72.6819  222.6004 H   0  0  0  0  0  0  0  0  0  0  0  0
  138.2881   72.7852  223.0330 H   0  0  0  0  0  0  0  0  0  0  0  0
  138.4415   71.8720  221.4862 H   0  0  0  0  0  0  0  0  0  0  0  0
  141.6762   71.4761  224.0243 H   0  0  0  0  0  0  0  0  0  0  0  0
  140.3656   72.5976  224.5450 H   0  0  0  0  0  0  0  0  0  0  0  0
  140.1779   68.9109  225.0533 H   0  0  0  0  0  0  0  0  0  0  0  0
  140.2135   67.8499  227.3119 H   0  0  0  0  0  0  0  0  0  0  0  0
  140.6778   69.2315  229.3377 H   0  0  0  0  0  0  0  0  0  0  0  0
  141.1082   71.6793  229.1084 H   0  0  0  0  0  0  0  0  0  0  0  0
  141.1080   72.7438  226.8520 H   0  0  0  0  0  0  0  0  0  0  0  0
  140.7123   77.5509  224.2128 H   0  0  0  0  0  0  0  0  0  0  0  0
  141.9553   79.5816  224.9518 H   0  0  0  0  0  0  0  0  0  0  0  0
  142.8673   81.1736  223.2606 H   0  0  0  0  0  0  0  0  0  0  0  0
  142.5914   80.7031  220.8271 H   0  0  0  0  0  0  0  0  0  0  0  0
  1  2  2  0
  2  3  1  0
  3  4  1  0
  4  5  1  0
  5  6  1  0
  6  7  1  0
  7  8  1  0
  8  9  2  0
  9 10  1  0
 10 11  2  0
 11 12  1  0
 12 13  2  0
  2 14  1  0
 14 15  1  0
 15 16  2  0
 16 17  1  0
 17 18  2  0
 18 19  1  0
 19 20  2  0
 20 21  1  0
 13  8  1  0
 20 15  1  0
  4 22  1  0
  4 23  1  0
  5 24  1  0
  5 25  1  0
  7 26  1  0
  7 27  1  0
  9 28  1  0
 10 29  1  0
 11 30  1  0
 12 31  1  0
 13 32  1  0
 16 33  1  0
 17 34  1  0
 18 35  1  0
 19 36  1  0
M  CHG  2   3  -1  14  -1
M  END
>  <UniqueID>  (50) 
10

>  <SMILES>  (50) 
O=C([N-]CCSCc1ccccc1)[N-]c1ccccc1Br

>  <Energy>  (50) 
33.50569190073064

>  <Genealogy>  (50) 
O=C([N-]CCSCc1ccccc1)[N-]c1ccccc1Br (protonated)
O=C([N-]CCSCc1ccccc1)[N-]c1ccccc1Br (3D coordinates assigned)
O=C([N-]CCSCc1ccccc1)[N-]c1ccccc1Br (optimized conformer: 33.50569190073064 kcal/mol)

>  <smiles>  (50) 
O=C(NCCSCc1ccccc1)Nc1ccccc1Br

>  <score_type>  (50) 
oracle

>  <origin>  (50) 
autodockgpu

>  <m_score__min__energy>  (50) 
-6.8499999999999996

>  <m_primary>  (50) 
energy

>  <meeko>  (50) 
{"free_energy": -6.34, "intermolecular_energy": -8.72, "internal_energy": -0.6, "cluster_size": 3, "cluster_id": 2, "rank_in_cluster": 2}

>  <energy>  (50) 
-6.51

>  <cluster_rmsd>  (50) 
0.0

>  <rmsd>  (50) 
272.81

>  <cluster>  (50) 
2

$$$$
JPDCHESNUKKMJT-VXJIHLCCNA-M
     RDKit          3D

 36 37  0  0  0  0  0  0  0  0999 V2000
  139.9320   70.5710  222.5470 O   0  0  0  0  0  0  0  0  0  0  0  0
  140.0860   71.5530  223.3200 C   0  0  0  0  0  0  0  0  0  0  0  0
  140.6320   72.7830  222.8260 N   0  0  0  0  0  0  0  0  0  0  0  0
  140.1680   73.4500  221.6140 C   0  0  0  0  0  0  0  0  0  0  0  0
  139.5090   74.7870  221.9460 C   0  0  0  0  0  0  0  0  0  0  0  0
  140.7600   76.1250  221.9600 S   0  0  0  0  0  0  0  0  0  0  0  0
  139.6470   77.4530  222.5420 C   0  0  0  0  0  0  0  0  0  0  0  0
  140.4440   78.6730  222.9150 C   0  0  0  0  0  0  0  0  0  0  0  0
  139.8140   79.9170  223.0870 C   0  0  0  0  0  0  0  0  0  0  0  0
  140.5610   81.0380  223.4630 C   0  0  0  0  0  0  0  0  0  0  0  0
  141.9400   80.9280  223.6620 C   0  0  0  0  0  0  0  0  0  0  0  0
  142.5740   79.6960  223.4840 C   0  0  0  0  0  0  0  0  0  0  0  0
  141.8310   78.5710  223.1180 C   0  0  0  0  0  0  0  0  0  0  0  0
  139.6870   71.4350  224.6870 N   0  0  0  0  0  0  0  0  0  0  0  0
  139.8510   70.2480  225.4740 C   0  0  0  0  0  0  0  0  0  0  0  0
  139.5040   69.0150  224.9060 C   0  0  0  0  0  0  0  0  0  0  0  0
  139.6340   67.8350  225.6430 C   0  0  0  0  0  0  0  0  0  0  0  0
  140.1340   67.8770  226.9460 C   0  0  0  0  0  0  0  0  0  0  0  0
  140.5240   69.0960  227.5060 C   0  0  0  0  0  0  0  0  0  0  0  0
  140.3970   70.2840  226.7760 C   0  0  0  0  0  0  0  0  0  0  0  0
  141.0880   71.8950  227.5530 Br  0  0  0  0  0  0  0  0  0  0  0  0
  141.0263   73.6268  220.9491 H   0  0  0  0  0  0  0  0  0  0  0  0
  139.4259   72.8054  221.1203 H   0  0  0  0  0  0  0  0  0  0  0  0
  138.7443   75.0129  221.1883 H   0  0  0  0  0  0  0  0  0  0  0  0
  139.0448   74.7202  222.9410 H   0  0  0  0  0  0  0  0  0  0  0  0
  138.9401   77.7121  221.7400 H   0  0  0  0  0  0  0  0  0  0  0  0
  139.0979   77.0988  223.4269 H   0  0  0  0  0  0  0  0  0  0  0  0
  138.7299   80.0096  222.9255 H   0  0  0  0  0  0  0  0  0  0  0  0
  140.0621   82.0084  223.6024 H   0  0  0  0  0  0  0  0  0  0  0  0
  142.5256   81.8107  223.9585 H   0  0  0  0  0  0  0  0  0  0  0  0
  143.6607   79.6115  223.6323 H   0  0  0  0  0  0  0  0  0  0  0  0
  142.3336   77.6012  222.9881 H   0  0  0  0  0  0  0  0  0  0  0  0
  139.1269   68.9757  223.8734 H   0  0  0  0  0  0  0  0  0  0  0  0
  139.3424   66.8729  225.1966 H   0  0  0  0  0  0  0  0  0  0  0  0
  140.2209   66.9500  227.5318 H   0  0  0  0  0  0  0  0  0  0  0  0
  140.9333   69.1227  228.5266 H   0  0  0  0  0  0  0  0  0  0  0  0
  1  2  2  0
  2  3  1  0
  3  4  1  0
  4  5  1  0
  5  6  1  0
  6  7  1  0
  7  8  1  0
  8  9  2  0
  9 10  1  0
 10 11  2  0
 11 12  1  0
 12 13  2  0
  2 14  1  0
 14 15  1  0
 15 16  2  0
 16 17  1  0
 17 18  2  0
 18 19  1  0
 19 20  2  0
 20 21  1  0
 13  8  1  0
 20 15  1  0
  4 22  1  0
  4 23  1  0
  5 24  1  0
  5 25  1  0
  7 26  1  0
  7 27  1  0
  9 28  1  0
 10 29  1  0
 11 30  1  0
 12 31  1  0
 13 32  1  0
 16 33  1  0
 17 34  1  0
 18 35  1  0
 19 36  1  0
M  CHG  2   3  -1  14  -1
M  END
>  <UniqueID>  (51) 
10

>  <SMILES>  (51) 
O=C([N-]CCSCc1ccccc1)[N-]c1ccccc1Br

>  <Energy>  (51) 
33.50569190073064

>  <Genealogy>  (51) 
O=C([N-]CCSCc1ccccc1)[N-]c1ccccc1Br (protonated)
O=C([N-]CCSCc1ccccc1)[N-]c1ccccc1Br (3D coordinates assigned)
O=C([N-]CCSCc1ccccc1)[N-]c1ccccc1Br (optimized conformer: 33.50569190073064 kcal/mol)

>  <smiles>  (51) 
O=C(NCCSCc1ccccc1)Nc1ccccc1Br

>  <score_type>  (51) 
oracle

>  <origin>  (51) 
autodockgpu

>  <m_score__min__energy>  (51) 
-6.8499999999999996

>  <m_primary>  (51) 
energy

>  <meeko>  (51) 
{"free_energy": -6.69, "intermolecular_energy": -9.08, "internal_energy": -0.43, "cluster_size": 9, "cluster_id": 1, "rank_in_cluster": 6}

>  <energy>  (51) 
-6.34

>  <cluster_rmsd>  (51) 
1.03

>  <rmsd>  (51) 
272.8

>  <cluster>  (51) 
2

$$$$
JPDCHESNUKKMJT-VXJIHLCCNA-M
     RDKit          3D

 36 37  0  0  0  0  0  0  0  0999 V2000
  138.7100   71.5410  223.1010 O   0  0  0  0  0  0  0  0  0  0  0  0
  139.9050   71.8910  223.2890 C   0  0  0  0  0  0  0  0  0  0  0  0
  140.3990   73.1110  222.7230 N   0  0  0  0  0  0  0  0  0  0  0  0
  140.8310   73.2480  221.3360 C   0  0  0  0  0  0  0  0  0  0  0  0
  141.4180   74.6350  221.0820 C   0  0  0  0  0  0  0  0  0  0  0  0
  140.3820   75.9180  221.8780 S   0  0  0  0  0  0  0  0  0  0  0  0
  141.0650   77.3440  220.9620 C   0  0  0  0  0  0  0  0  0  0  0  0
  141.4400   78.4440  221.9170 C   0  0  0  0  0  0  0  0  0  0  0  0
  141.4210   78.2280  223.3050 C   0  0  0  0  0  0  0  0  0  0  0  0
  141.8010   79.2500  224.1810 C   0  0  0  0  0  0  0  0  0  0  0  0
  142.1940   80.4930  223.6810 C   0  0  0  0  0  0  0  0  0  0  0  0
  142.2090   80.7180  222.3020 C   0  0  0  0  0  0  0  0  0  0  0  0
  141.8390   79.6980  221.4220 C   0  0  0  0  0  0  0  0  0  0  0  0
  140.7540   71.0700  224.0940 N   0  0  0  0  0  0  0  0  0  0  0  0
  140.6590   70.9700  225.5210 C   0  0  0  0  0  0  0  0  0  0  0  0
  141.1430   72.0290  226.3010 C   0  0  0  0  0  0  0  0  0  0  0  0
  141.0830   71.9660  227.6950 C   0  0  0  0  0  0  0  0  0  0  0  0
  140.5190   70.8530  228.3200 C   0  0  0  0  0  0  0  0  0  0  0  0
  139.9940   69.8110  227.5520 C   0  0  0  0  0  0  0  0  0  0  0  0
  140.0500   69.8640  226.1540 C   0  0  0  0  0  0  0  0  0  0  0  0
  139.1790   68.4700  225.1650 Br  0  0  0  0  0  0  0  0  0  0  0  0
  141.5965   72.4880  221.1206 H   0  0  0  0  0  0  0  0  0  0  0  0
  139.9580   73.1107  220.6810 H   0  0  0  0  0  0  0  0  0  0  0  0
  142.4353   74.6804  221.4979 H   0  0  0  0  0  0  0  0  0  0  0  0
  141.4459   74.8190  219.9979 H   0  0  0  0  0  0  0  0  0  0  0  0
  141.9592   77.0245  220.4067 H   0  0  0  0  0  0  0  0  0  0  0  0
  140.3031   77.7198  220.2633 H   0  0  0  0  0  0  0  0  0  0  0  0
  141.1064   77.2524  223.7040 H   0  0  0  0  0  0  0  0  0  0  0  0
  141.7902   79.0740  225.2668 H   0  0  0  0  0  0  0  0  0  0  0  0
  142.4917   81.2950  224.3725 H   0  0  0  0  0  0  0  0  0  0  0  0
  142.5125   81.6995  221.9088 H   0  0  0  0  0  0  0  0  0  0  0  0
  141.8599   79.8768  220.3368 H   0  0  0  0  0  0  0  0  0  0  0  0
  141.5730   72.9156  225.8121 H   0  0  0  0  0  0  0  0  0  0  0  0
  141.4804   72.7940  228.3004 H   0  0  0  0  0  0  0  0  0  0  0  0
  140.4878   70.7962  229.4181 H   0  0  0  0  0  0  0  0  0  0  0  0
  139.5340   68.9438  228.0484 H   0  0  0  0  0  0  0  0  0  0  0  0
  1  2  2  0
  2  3  1  0
  3  4  1  0
  4  5  1  0
  5  6  1  0
  6  7  1  0
  7  8  1  0
  8  9  2  0
  9 10  1  0
 10 11  2  0
 11 12  1  0
 12 13  2  0
  2 14  1  0
 14 15  1  0
 15 16  2  0
 16 17  1  0
 17 18  2  0
 18 19  1  0
 19 20  2  0
 20 21  1  0
 13  8  1  0
 20 15  1  0
  4 22  1  0
  4 23  1  0
  5 24  1  0
  5 25  1  0
  7 26  1  0
  7 27  1  0
  9 28  1  0
 10 29  1  0
 11 30  1  0
 12 31  1  0
 13 32  1  0
 16 33  1  0
 17 34  1  0
 18 35  1  0
 19 36  1  0
M  CHG  2   3  -1  14  -1
M  END
>  <UniqueID>  (52) 
10

>  <SMILES>  (52) 
O=C([N-]CCSCc1ccccc1)[N-]c1ccccc1Br

>  <Energy>  (52) 
33.50569190073064

>  <Genealogy>  (52) 
O=C([N-]CCSCc1ccccc1)[N-]c1ccccc1Br (protonated)
O=C([N-]CCSCc1ccccc1)[N-]c1ccccc1Br (3D coordinates assigned)
O=C([N-]CCSCc1ccccc1)[N-]c1ccccc1Br (optimized conformer: 33.50569190073064 kcal/mol)

>  <smiles>  (52) 
O=C(NCCSCc1ccccc1)Nc1ccccc1Br

>  <score_type>  (52) 
oracle

>  <origin>  (52) 
autodockgpu

>  <m_score__min__energy>  (52) 
-6.8499999999999996

>  <m_primary>  (52) 
energy

>  <meeko>  (52) 
{"free_energy": -6.85, "intermolecular_energy": -9.23, "internal_energy": -0.54, "cluster_size": 9, "cluster_id": 1, "rank_in_cluster": 1}

>  <energy>  (52) 
-6.3

>  <cluster_rmsd>  (52) 
0.7

>  <rmsd>  (52) 
272.89

>  <cluster>  (52) 
2

$$$$
JPDCHESNUKKMJT-VXJIHLCCNA-M
     RDKit          3D

 36 37  0  0  0  0  0  0  0  0999 V2000
  133.3990   68.5470  226.2170 O   0  0  0  0  0  0  0  0  0  0  0  0
  134.3880   69.1240  225.6950 C   0  0  0  0  0  0  0  0  0  0  0  0
  135.0870   68.5150  224.6020 N   0  0  0  0  0  0  0  0  0  0  0  0
  136.0700   69.2100  223.7770 C   0  0  0  0  0  0  0  0  0  0  0  0
  137.2770   69.6350  224.6120 C   0  0  0  0  0  0  0  0  0  0  0  0
  138.6910   68.5150  224.3020 S   0  0  0  0  0  0  0  0  0  0  0  0
  139.2030   68.3280  226.0460 C   0  0  0  0  0  0  0  0  0  0  0  0
  139.8810   69.5820  226.5270 C   0  0  0  0  0  0  0  0  0  0  0  0
  140.6440   70.3680  225.6470 C   0  0  0  0  0  0  0  0  0  0  0  0
  141.2440   71.5480  226.0990 C   0  0  0  0  0  0  0  0  0  0  0  0
  141.0930   71.9470  227.4290 C   0  0  0  0  0  0  0  0  0  0  0  0
  140.3420   71.1660  228.3110 C   0  0  0  0  0  0  0  0  0  0  0  0
  139.7330   69.9910  227.8630 C   0  0  0  0  0  0  0  0  0  0  0  0
  134.7900   70.4040  226.1890 N   0  0  0  0  0  0  0  0  0  0  0  0
  133.9090   71.5260  226.3270 C   0  0  0  0  0  0  0  0  0  0  0  0
  132.9510   71.5040  227.3490 C   0  0  0  0  0  0  0  0  0  0  0  0
  132.0630   72.5710  227.5090 C   0  0  0  0  0  0  0  0  0  0  0  0
  132.1410   73.6780  226.6620 C   0  0  0  0  0  0  0  0  0  0  0  0
  133.1200   73.7290  225.6670 C   0  0  0  0  0  0  0  0  0  0  0  0
  134.0140   72.6650  225.4980 C   0  0  0  0  0  0  0  0  0  0  0  0
  135.4210   72.8690  224.2110 Br  0  0  0  0  0  0  0  0  0  0  0  0
  136.4061   68.5380  222.9736 H   0  0  0  0  0  0  0  0  0  0  0  0
  135.6007   70.1099  223.3527 H   0  0  0  0  0  0  0  0  0  0  0  0
  137.5618   70.6624  224.3411 H   0  0  0  0  0  0  0  0  0  0  0  0
  137.0094   69.5864  225.6778 H   0  0  0  0  0  0  0  0  0  0  0  0
  138.3154   68.1343  226.6663 H   0  0  0  0  0  0  0  0  0  0  0  0
  139.9076   67.4869  226.1245 H   0  0  0  0  0  0  0  0  0  0  0  0
  140.7698   70.0546  224.6001 H   0  0  0  0  0  0  0  0  0  0  0  0
  141.8361   72.1631  225.4054 H   0  0  0  0  0  0  0  0  0  0  0  0
  141.5652   72.8757  227.7818 H   0  0  0  0  0  0  0  0  0  0  0  0
  140.2299   71.4768  229.3602 H   0  0  0  0  0  0  0  0  0  0  0  0
  139.1354   69.3838  228.5589 H   0  0  0  0  0  0  0  0  0  0  0  0
  132.8975   70.6415  228.0296 H   0  0  0  0  0  0  0  0  0  0  0  0
  131.3021   72.5387  228.3027 H   0  0  0  0  0  0  0  0  0  0  0  0
  131.4313   74.5103  226.7782 H   0  0  0  0  0  0  0  0  0  0  0  0
  133.1889   74.6103  225.0124 H   0  0  0  0  0  0  0  0  0  0  0  0
  1  2  2  0
  2  3  1  0
  3  4  1  0
  4  5  1  0
  5  6  1  0
  6  7  1  0
  7  8  1  0
  8  9  2  0
  9 10  1  0
 10 11  2  0
 11 12  1  0
 12 13  2  0
  2 14  1  0
 14 15  1  0
 15 16  2  0
 16 17  1  0
 17 18  2  0
 18 19  1  0
 19 20  2  0
 20 21  1  0
 13  8  1  0
 20 15  1  0
  4 22  1  0
  4 23  1  0
  5 24  1  0
  5 25  1  0
  7 26  1  0
  7 27  1  0
  9 28  1  0
 10 29  1  0
 11 30  1  0
 12 31  1  0
 13 32  1  0
 16 33  1  0
 17 34  1  0
 18 35  1  0
 19 36  1  0
M  CHG  2   3  -1  14  -1
M  END
>  <UniqueID>  (53) 
10

>  <SMILES>  (53) 
O=C([N-]CCSCc1ccccc1)[N-]c1ccccc1Br

>  <Energy>  (53) 
33.50569190073064

>  <Genealogy>  (53) 
O=C([N-]CCSCc1ccccc1)[N-]c1ccccc1Br (protonated)
O=C([N-]CCSCc1ccccc1)[N-]c1ccccc1Br (3D coordinates assigned)
O=C([N-]CCSCc1ccccc1)[N-]c1ccccc1Br (optimized conformer: 33.50569190073064 kcal/mol)

>  <smiles>  (53) 
O=C(NCCSCc1ccccc1)Nc1ccccc1Br

>  <score_type>  (53) 
oracle

>  <origin>  (53) 
autodockgpu

>  <m_score__min__energy>  (53) 
-6.8499999999999996

>  <m_primary>  (53) 
energy

>  <meeko>  (53) 
{"free_energy": -6.33, "intermolecular_energy": -8.72, "internal_energy": -0.93, "cluster_size": 3, "cluster_id": 3, "rank_in_cluster": 1}

>  <energy>  (53) 
-6.33

>  <cluster_rmsd>  (53) 
0.0

>  <rmsd>  (53) 
271.58

>  <cluster>  (53) 
3

$$$$
JPDCHESNUKKMJT-VXJIHLCCNA-M
     RDKit          3D

 36 37  0  0  0  0  0  0  0  0999 V2000
  139.0370   76.0230  222.7150 O   0  0  0  0  0  0  0  0  0  0  0  0
  140.0250   75.6670  222.0210 C   0  0  0  0  0  0  0  0  0  0  0  0
  140.3970   74.2850  221.9470 N   0  0  0  0  0  0  0  0  0  0  0  0
  139.4390   73.1890  221.8430 C   0  0  0  0  0  0  0  0  0  0  0  0
  140.0130   71.9060  222.4400 C   0  0  0  0  0  0  0  0  0  0  0  0
  138.8040   71.1420  223.5840 S   0  0  0  0  0  0  0  0  0  0  0  0
  139.9810   70.0250  224.4260 C   0  0  0  0  0  0  0  0  0  0  0  0
  140.3200   70.5600  225.7900 C   0  0  0  0  0  0  0  0  0  0  0  0
  139.9220   69.8730  226.9500 C   0  0  0  0  0  0  0  0  0  0  0  0
  140.2700   70.3640  228.2120 C   0  0  0  0  0  0  0  0  0  0  0  0
  141.0080   71.5450  228.3270 C   0  0  0  0  0  0  0  0  0  0  0  0
  141.4010   72.2370  227.1790 C   0  0  0  0  0  0  0  0  0  0  0  0
  141.0640   71.7460  225.9140 C   0  0  0  0  0  0  0  0  0  0  0  0
  140.7550   76.6540  221.2880 N   0  0  0  0  0  0  0  0  0  0  0  0
  141.2630   77.8660  221.8570 C   0  0  0  0  0  0  0  0  0  0  0  0
  141.3760   77.9570  223.2510 C   0  0  0  0  0  0  0  0  0  0  0  0
  141.8530   79.1260  223.8480 C   0  0  0  0  0  0  0  0  0  0  0  0
  142.2420   80.2070  223.0550 C   0  0  0  0  0  0  0  0  0  0  0  0
  142.1750   80.1120  221.6620 C   0  0  0  0  0  0  0  0  0  0  0  0
  141.6980   78.9450  221.0540 C   0  0  0  0  0  0  0  0  0  0  0  0
  141.7720   78.8320  219.1410 Br  0  0  0  0  0  0  0  0  0  0  0  0
  138.5214   73.4599  222.3858 H   0  0  0  0  0  0  0  0  0  0  0  0
  139.2185   73.0142  220.7796 H   0  0  0  0  0  0  0  0  0  0  0  0
  140.2422   71.1991  221.6290 H   0  0  0  0  0  0  0  0  0  0  0  0
  140.9295   72.1492  222.9976 H   0  0  0  0  0  0  0  0  0  0  0  0
  139.5260   69.0288  224.5292 H   0  0  0  0  0  0  0  0  0  0  0  0
  140.9018   69.9573  223.8281 H   0  0  0  0  0  0  0  0  0  0  0  0
  139.3351   68.9466  226.8646 H   0  0  0  0  0  0  0  0  0  0  0  0
  139.9621   69.8192  229.1167 H   0  0  0  0  0  0  0  0  0  0  0  0
  141.2794   71.9296  229.3212 H   0  0  0  0  0  0  0  0  0  0  0  0
  141.9766   73.1699  227.2704 H   0  0  0  0  0  0  0  0  0  0  0  0
  141.3823   72.2899  225.0124 H   0  0  0  0  0  0  0  0  0  0  0  0
  141.0870   77.1016  223.8793 H   0  0  0  0  0  0  0  0  0  0  0  0
  141.9222   79.1950  224.9437 H   0  0  0  0  0  0  0  0  0  0  0  0
  142.6013   81.1337  223.5264 H   0  0  0  0  0  0  0  0  0  0  0  0
  142.4991   80.9594  221.0400 H   0  0  0  0  0  0  0  0  0  0  0  0
  1  2  2  0
  2  3  1  0
  3  4  1  0
  4  5  1  0
  5  6  1  0
  6  7  1  0
  7  8  1  0
  8  9  2  0
  9 10  1  0
 10 11  2  0
 11 12  1  0
 12 13  2  0
  2 14  1  0
 14 15  1  0
 15 16  2  0
 16 17  1  0
 17 18  2  0
 18 19  1  0
 19 20  2  0
 20 21  1  0
 13  8  1  0
 20 15  1  0
  4 22  1  0
  4 23  1  0
  5 24  1  0
  5 25  1  0
  7 26  1  0
  7 27  1  0
  9 28  1  0
 10 29  1  0
 11 30  1  0
 12 31  1  0
 13 32  1  0
 16 33  1  0
 17 34  1  0
 18 35  1  0
 19 36  1  0
M  CHG  2   3  -1  14  -1
M  END
>  <UniqueID>  (54) 
10

>  <SMILES>  (54) 
O=C([N-]CCSCc1ccccc1)[N-]c1ccccc1Br

>  <Energy>  (54) 
33.50569190073064

>  <Genealogy>  (54) 
O=C([N-]CCSCc1ccccc1)[N-]c1ccccc1Br (protonated)
O=C([N-]CCSCc1ccccc1)[N-]c1ccccc1Br (3D coordinates assigned)
O=C([N-]CCSCc1ccccc1)[N-]c1ccccc1Br (optimized conformer: 33.50569190073064 kcal/mol)

>  <smiles>  (54) 
O=C(NCCSCc1ccccc1)Nc1ccccc1Br

>  <score_type>  (54) 
oracle

>  <origin>  (54) 
autodockgpu

>  <m_score__min__energy>  (54) 
-6.8499999999999996

>  <m_primary>  (54) 
energy

>  <meeko>  (54) 
{"free_energy": -6.51, "intermolecular_energy": -8.9, "internal_energy": -0.53, "cluster_size": 3, "cluster_id": 2, "rank_in_cluster": 1}

>  <energy>  (54) 
-6.03

>  <cluster_rmsd>  (54) 
0.75

>  <rmsd>  (54) 
271.45

>  <cluster>  (54) 
3

$$$$
JPDCHESNUKKMJT-VXJIHLCCNA-M
     RDKit          3D

 36 37  0  0  0  0  0  0  0  0999 V2000
  135.6970   68.8910  224.3960 O   0  0  0  0  0  0  0  0  0  0  0  0
  136.0870   70.0710  224.1960 C   0  0  0  0  0  0  0  0  0  0  0  0
  137.4610   70.4230  224.3990 N   0  0  0  0  0  0  0  0  0  0  0  0
  138.5510   69.4540  224.4440 C   0  0  0  0  0  0  0  0  0  0  0  0
  138.4820   68.6170  225.7210 C   0  0  0  0  0  0  0  0  0  0  0  0
  139.8390   67.3890  225.7490 S   0  0  0  0  0  0  0  0  0  0  0  0
  140.6320   67.9810  227.2860 C   0  0  0  0  0  0  0  0  0  0  0  0
  140.7430   69.4810  227.2690 C   0  0  0  0  0  0  0  0  0  0  0  0
  140.2250   70.2510  228.3250 C   0  0  0  0  0  0  0  0  0  0  0  0
  140.3620   71.6430  228.3120 C   0  0  0  0  0  0  0  0  0  0  0  0
  141.0070   72.2750  227.2460 C   0  0  0  0  0  0  0  0  0  0  0  0
  141.5180   71.5170  226.1910 C   0  0  0  0  0  0  0  0  0  0  0  0
  141.3920   70.1250  226.2020 C   0  0  0  0  0  0  0  0  0  0  0  0
  135.1480   71.0480  223.7400 N   0  0  0  0  0  0  0  0  0  0  0  0
  134.9950   72.3490  224.3210 C   0  0  0  0  0  0  0  0  0  0  0  0
  135.4800   73.4590  223.6180 C   0  0  0  0  0  0  0  0  0  0  0  0
  135.3640   74.7440  224.1550 C   0  0  0  0  0  0  0  0  0  0  0  0
  134.7420   74.9310  225.3900 C   0  0  0  0  0  0  0  0  0  0  0  0
  134.2150   73.8360  226.0800 C   0  0  0  0  0  0  0  0  0  0  0  0
  134.3270   72.5450  225.5510 C   0  0  0  0  0  0  0  0  0  0  0  0
  133.4530   71.1130  226.4810 Br  0  0  0  0  0  0  0  0  0  0  0  0
  138.4772   68.7877  223.5719 H   0  0  0  0  0  0  0  0  0  0  0  0
  139.5068   69.9983  224.4309 H   0  0  0  0  0  0  0  0  0  0  0  0
  138.5737   69.2793  226.5945 H   0  0  0  0  0  0  0  0  0  0  0  0
  137.5187   68.0868  225.7499 H   0  0  0  0  0  0  0  0  0  0  0  0
  140.0259   67.6713  228.1501 H   0  0  0  0  0  0  0  0  0  0  0  0
  141.6402   67.5474  227.3596 H   0  0  0  0  0  0  0  0  0  0  0  0
  139.7109   69.7578  229.1632 H   0  0  0  0  0  0  0  0  0  0  0  0
  139.9609   72.2415  229.1432 H   0  0  0  0  0  0  0  0  0  0  0  0
  141.1122   73.3699  227.2380 H   0  0  0  0  0  0  0  0  0  0  0  0
  142.0207   72.0161  225.3495 H   0  0  0  0  0  0  0  0  0  0  0  0
  141.8026   69.5312  225.3720 H   0  0  0  0  0  0  0  0  0  0  0  0
  135.9556   73.3184  222.6362 H   0  0  0  0  0  0  0  0  0  0  0  0
  135.7631   75.6083  223.6039 H   0  0  0  0  0  0  0  0  0  0  0  0
  134.6665   75.9404  225.8205 H   0  0  0  0  0  0  0  0  0  0  0  0
  133.7091   73.9896  227.0446 H   0  0  0  0  0  0  0  0  0  0  0  0
  1  2  2  0
  2  3  1  0
  3  4  1  0
  4  5  1  0
  5  6  1  0
  6  7  1  0
  7  8  1  0
  8  9  2  0
  9 10  1  0
 10 11  2  0
 11 12  1  0
 12 13  2  0
  2 14  1  0
 14 15  1  0
 15 16  2  0
 16 17  1  0
 17 18  2  0
 18 19  1  0
 19 20  2  0
 20 21  1  0
 13  8  1  0
 20 15  1  0
  4 22  1  0
  4 23  1  0
  5 24  1  0
  5 25  1  0
  7 26  1  0
  7 27  1  0
  9 28  1  0
 10 29  1  0
 11 30  1  0
 12 31  1  0
 13 32  1  0
 16 33  1  0
 17 34  1  0
 18 35  1  0
 19 36  1  0
M  CHG  2   3  -1  14  -1
M  END
>  <UniqueID>  (55) 
10

>  <SMILES>  (55) 
O=C([N-]CCSCc1ccccc1)[N-]c1ccccc1Br

>  <Energy>  (55) 
33.50569190073064

>  <Genealogy>  (55) 
O=C([N-]CCSCc1ccccc1)[N-]c1ccccc1Br (protonated)
O=C([N-]CCSCc1ccccc1)[N-]c1ccccc1Br (3D coordinates assigned)
O=C([N-]CCSCc1ccccc1)[N-]c1ccccc1Br (optimized conformer: 33.50569190073064 kcal/mol)

>  <smiles>  (55) 
O=C(NCCSCc1ccccc1)Nc1ccccc1Br

>  <score_type>  (55) 
oracle

>  <origin>  (55) 
autodockgpu

>  <m_score__min__energy>  (55) 
-6.8499999999999996

>  <m_primary>  (55) 
energy

>  <meeko>  (55) 
{"free_energy": -5.82, "intermolecular_energy": -8.21, "internal_energy": -0.88, "cluster_size": 3, "cluster_id": 3, "rank_in_cluster": 3}

>  <energy>  (55) 
-5.82

>  <cluster_rmsd>  (55) 
1.88

>  <rmsd>  (55) 
271.94

>  <cluster>  (55) 
3

$$$$
JPDCHESNUKKMJT-VXJIHLCCNA-M
     RDKit          3D

 36 37  0  0  0  0  0  0  0  0999 V2000
  138.8490   71.9640  222.6560 O   0  0  0  0  0  0  0  0  0  0  0  0
  139.9580   72.4300  223.0270 C   0  0  0  0  0  0  0  0  0  0  0  0
  140.5380   73.5480  222.3440 N   0  0  0  0  0  0  0  0  0  0  0  0
  141.0770   73.4840  220.9890 C   0  0  0  0  0  0  0  0  0  0  0  0
  142.2120   74.4890  220.8070 C   0  0  0  0  0  0  0  0  0  0  0  0
  141.5520   76.0920  220.2150 S   0  0  0  0  0  0  0  0  0  0  0  0
  140.8460   76.6350  221.8110 C   0  0  0  0  0  0  0  0  0  0  0  0
  141.3770   77.9930  222.1800 C   0  0  0  0  0  0  0  0  0  0  0  0
  141.6590   78.9470  221.1880 C   0  0  0  0  0  0  0  0  0  0  0  0
  142.1230   80.2170  221.5460 C   0  0  0  0  0  0  0  0  0  0  0  0
  142.3160   80.5400  222.8910 C   0  0  0  0  0  0  0  0  0  0  0  0
  142.0450   79.5940  223.8820 C   0  0  0  0  0  0  0  0  0  0  0  0
  141.5720   78.3270  223.5310 C   0  0  0  0  0  0  0  0  0  0  0  0
  140.6200   71.8460  224.1520 N   0  0  0  0  0  0  0  0  0  0  0  0
  140.1550   70.6790  224.8410 C   0  0  0  0  0  0  0  0  0  0  0  0
  139.6660   69.6050  224.0870 C   0  0  0  0  0  0  0  0  0  0  0  0
  139.1900   68.4540  224.7200 C   0  0  0  0  0  0  0  0  0  0  0  0
  139.2200   68.3590  226.1120 C   0  0  0  0  0  0  0  0  0  0  0  0
  139.7460   69.4070  226.8730 C   0  0  0  0  0  0  0  0  0  0  0  0
  140.2250   70.5650  226.2480 C   0  0  0  0  0  0  0  0  0  0  0  0
  141.0660   71.8950  227.3430 Br  0  0  0  0  0  0  0  0  0  0  0  0
  141.4599   72.4701  220.8011 H   0  0  0  0  0  0  0  0  0  0  0  0
  140.2734   73.7285  220.2788 H   0  0  0  0  0  0  0  0  0  0  0  0
  142.7214   74.6397  221.7703 H   0  0  0  0  0  0  0  0  0  0  0  0
  142.9214   74.0972  220.0632 H   0  0  0  0  0  0  0  0  0  0  0  0
  139.7504   76.6844  221.7254 H   0  0  0  0  0  0  0  0  0  0  0  0
  141.1301   75.9146  222.5923 H   0  0  0  0  0  0  0  0  0  0  0  0
  141.5145   78.6946  220.1272 H   0  0  0  0  0  0  0  0  0  0  0  0
  142.3364   80.9631  220.7664 H   0  0  0  0  0  0  0  0  0  0  0  0
  142.6814   81.5394  223.1698 H   0  0  0  0  0  0  0  0  0  0  0  0
  142.2042   79.8468  224.9407 H   0  0  0  0  0  0  0  0  0  0  0  0
  141.3514   77.5880  224.3153 H   0  0  0  0  0  0  0  0  0  0  0  0
  139.6566   69.6680  222.9889 H   0  0  0  0  0  0  0  0  0  0  0  0
  138.7913   67.6221  224.1208 H   0  0  0  0  0  0  0  0  0  0  0  0
  138.8297   67.4594  226.6104 H   0  0  0  0  0  0  0  0  0  0  0  0
  139.7839   69.3216  227.9690 H   0  0  0  0  0  0  0  0  0  0  0  0
  1  2  2  0
  2  3  1  0
  3  4  1  0
  4  5  1  0
  5  6  1  0
  6  7  1  0
  7  8  1  0
  8  9  2  0
  9 10  1  0
 10 11  2  0
 11 12  1  0
 12 13  2  0
  2 14  1  0
 14 15  1  0
 15 16  2  0
 16 17  1  0
 17 18  2  0
 18 19  1  0
 19 20  2  0
 20 21  1  0
 13  8  1  0
 20 15  1  0
  4 22  1  0
  4 23  1  0
  5 24  1  0
  5 25  1  0
  7 26  1  0
  7 27  1  0
  9 28  1  0
 10 29  1  0
 11 30  1  0
 12 31  1  0
 13 32  1  0
 16 33  1  0
 17 34  1  0
 18 35  1  0
 19 36  1  0
M  CHG  2   3  -1  14  -1
M  END
>  <UniqueID>  (56) 
10

>  <SMILES>  (56) 
O=C([N-]CCSCc1ccccc1)[N-]c1ccccc1Br

>  <Energy>  (56) 
33.50569190073064

>  <Genealogy>  (56) 
O=C([N-]CCSCc1ccccc1)[N-]c1ccccc1Br (protonated)
O=C([N-]CCSCc1ccccc1)[N-]c1ccccc1Br (3D coordinates assigned)
O=C([N-]CCSCc1ccccc1)[N-]c1ccccc1Br (optimized conformer: 33.50569190073064 kcal/mol)

>  <smiles>  (56) 
O=C(NCCSCc1ccccc1)Nc1ccccc1Br

>  <score_type>  (56) 
oracle

>  <origin>  (56) 
autodockgpu

>  <m_score__min__energy>  (56) 
-6.8499999999999996

>  <m_primary>  (56) 
energy

>  <meeko>  (56) 
{"free_energy": -6.17, "intermolecular_energy": -8.55, "internal_energy": -0.56, "cluster_size": 9, "cluster_id": 1, "rank_in_cluster": 9}

>  <energy>  (56) 
-6.26

>  <cluster_rmsd>  (56) 
0.0

>  <rmsd>  (56) 
272.17

>  <cluster>  (56) 
4

$$$$
JPDCHESNUKKMJT-VXJIHLCCNA-M
     RDKit          3D

 36 37  0  0  0  0  0  0  0  0999 V2000
  138.5450   76.2950  222.7260 O   0  0  0  0  0  0  0  0  0  0  0  0
  139.6560   76.1410  222.1550 C   0  0  0  0  0  0  0  0  0  0  0  0
  140.3170   74.8700  222.1910 N   0  0  0  0  0  0  0  0  0  0  0  0
  139.9230   73.7250  221.3750 C   0  0  0  0  0  0  0  0  0  0  0  0
  139.3470   72.6090  222.2450 C   0  0  0  0  0  0  0  0  0  0  0  0
  140.6860   71.7740  223.1750 S   0  0  0  0  0  0  0  0  0  0  0  0
  139.6040   70.7640  224.2470 C   0  0  0  0  0  0  0  0  0  0  0  0
  140.0780   70.8290  225.6730 C   0  0  0  0  0  0  0  0  0  0  0  0
  139.7310   69.8230  226.5910 C   0  0  0  0  0  0  0  0  0  0  0  0
  140.2030   69.8780  227.9060 C   0  0  0  0  0  0  0  0  0  0  0  0
  141.0160   70.9380  228.3160 C   0  0  0  0  0  0  0  0  0  0  0  0
  141.3590   71.9450  227.4100 C   0  0  0  0  0  0  0  0  0  0  0  0
  140.8980   71.8900  226.0920 C   0  0  0  0  0  0  0  0  0  0  0  0
  140.2370   77.2400  221.4500 N   0  0  0  0  0  0  0  0  0  0  0  0
  141.0180   78.2710  222.0690 C   0  0  0  0  0  0  0  0  0  0  0  0
  141.1200   78.2860  223.4660 C   0  0  0  0  0  0  0  0  0  0  0  0
  141.8590   79.2810  224.1110 C   0  0  0  0  0  0  0  0  0  0  0  0
  142.5200   80.2560  223.3620 C   0  0  0  0  0  0  0  0  0  0  0  0
  142.4600   80.2260  221.9660 C   0  0  0  0  0  0  0  0  0  0  0  0
  141.7220   79.2320  221.3110 C   0  0  0  0  0  0  0  0  0  0  0  0
  141.8060   79.1650  219.3960 Br  0  0  0  0  0  0  0  0  0  0  0  0
  139.1614   74.0452  220.6487 H   0  0  0  0  0  0  0  0  0  0  0  0
  140.8127   73.3414  220.8542 H   0  0  0  0  0  0  0  0  0  0  0  0
  138.6249   73.0383  222.9551 H   0  0  0  0  0  0  0  0  0  0  0  0
  138.8470   71.8728  221.5985 H   0  0  0  0  0  0  0  0  0  0  0  0
  138.5746   71.1474  224.1885 H   0  0  0  0  0  0  0  0  0  0  0  0
  139.6357   69.7188  223.9057 H   0  0  0  0  0  0  0  0  0  0  0  0
  139.0863   68.9900  226.2741 H   0  0  0  0  0  0  0  0  0  0  0  0
  139.9338   69.0851  228.6193 H   0  0  0  0  0  0  0  0  0  0  0  0
  141.3857   70.9797  229.3512 H   0  0  0  0  0  0  0  0  0  0  0  0
  141.9933   72.7829  227.7350 H   0  0  0  0  0  0  0  0  0  0  0  0
  141.1782   72.6803  225.3800 H   0  0  0  0  0  0  0  0  0  0  0  0
  140.6150   77.5094  224.0591 H   0  0  0  0  0  0  0  0  0  0  0  0
  141.9199   79.2960  225.2092 H   0  0  0  0  0  0  0  0  0  0  0  0
  143.0885   81.0484  223.8708 H   0  0  0  0  0  0  0  0  0  0  0  0
  142.9951   80.9868  221.3788 H   0  0  0  0  0  0  0  0  0  0  0  0
  1  2  2  0
  2  3  1  0
  3  4  1  0
  4  5  1  0
  5  6  1  0
  6  7  1  0
  7  8  1  0
  8  9  2  0
  9 10  1  0
 10 11  2  0
 11 12  1  0
 12 13  2  0
  2 14  1  0
 14 15  1  0
 15 16  2  0
 16 17  1  0
 17 18  2  0
 18 19  1  0
 19 20  2  0
 20 21  1  0
 13  8  1  0
 20 15  1  0
  4 22  1  0
  4 23  1  0
  5 24  1  0
  5 25  1  0
  7 26  1  0
  7 27  1  0
  9 28  1  0
 10 29  1  0
 11 30  1  0
 12 31  1  0
 13 32  1  0
 16 33  1  0
 17 34  1  0
 18 35  1  0
 19 36  1  0
M  CHG  2   3  -1  14  -1
M  END
>  <UniqueID>  (57) 
10

>  <SMILES>  (57) 
O=C([N-]CCSCc1ccccc1)[N-]c1ccccc1Br

>  <Energy>  (57) 
33.50569190073064

>  <Genealogy>  (57) 
O=C([N-]CCSCc1ccccc1)[N-]c1ccccc1Br (protonated)
O=C([N-]CCSCc1ccccc1)[N-]c1ccccc1Br (3D coordinates assigned)
O=C([N-]CCSCc1ccccc1)[N-]c1ccccc1Br (optimized conformer: 33.50569190073064 kcal/mol)

>  <smiles>  (57) 
O=C(NCCSCc1ccccc1)Nc1ccccc1Br

>  <score_type>  (57) 
oracle

>  <origin>  (57) 
autodockgpu

>  <m_score__min__energy>  (57) 
-6.8499999999999996

>  <m_primary>  (57) 
energy

>  <meeko>  (57) 
{"free_energy": -6.3, "intermolecular_energy": -8.69, "internal_energy": -0.53, "cluster_size": 3, "cluster_id": 2, "rank_in_cluster": 3}

>  <energy>  (57) 
-6.23

>  <cluster_rmsd>  (57) 
0.24

>  <rmsd>  (57) 
272.2

>  <cluster>  (57) 
4

$$$$
JPDCHESNUKKMJT-VXJIHLCCNA-M
     RDKit          3D

 36 37  0  0  0  0  0  0  0  0999 V2000
  138.7930   71.8440  223.4440 O   0  0  0  0  0  0  0  0  0  0  0  0
  140.0240   72.0760  223.3110 C   0  0  0  0  0  0  0  0  0  0  0  0
  140.4810   73.0190  222.3340 N   0  0  0  0  0  0  0  0  0  0  0  0
  139.7560   74.2340  221.9750 C   0  0  0  0  0  0  0  0  0  0  0  0
  140.1860   74.7390  220.5990 C   0  0  0  0  0  0  0  0  0  0  0  0
  141.4740   76.0290  220.7700 S   0  0  0  0  0  0  0  0  0  0  0  0
  140.7640   76.8470  222.2420 C   0  0  0  0  0  0  0  0  0  0  0  0
  141.3650   78.2140  222.4190 C   0  0  0  0  0  0  0  0  0  0  0  0
  141.5910   79.0480  221.3100 C   0  0  0  0  0  0  0  0  0  0  0  0
  142.1230   80.3290  221.4910 C   0  0  0  0  0  0  0  0  0  0  0  0
  142.4390   80.7830  222.7740 C   0  0  0  0  0  0  0  0  0  0  0  0
  142.2240   79.9570  223.8790 C   0  0  0  0  0  0  0  0  0  0  0  0
  141.6850   78.6800  223.7060 C   0  0  0  0  0  0  0  0  0  0  0  0
  140.9560   71.4060  224.1630 N   0  0  0  0  0  0  0  0  0  0  0  0
  140.7460   71.1770  225.5620 C   0  0  0  0  0  0  0  0  0  0  0  0
  141.2620   72.1030  226.4780 C   0  0  0  0  0  0  0  0  0  0  0  0
  141.0930   71.9090  227.8510 C   0  0  0  0  0  0  0  0  0  0  0  0
  140.3870   70.8000  228.3190 C   0  0  0  0  0  0  0  0  0  0  0  0
  139.8310   69.8930  227.4130 C   0  0  0  0  0  0  0  0  0  0  0  0
  139.9950   70.0770  226.0350 C   0  0  0  0  0  0  0  0  0  0  0  0
  139.0810   68.8770  224.8520 Br  0  0  0  0  0  0  0  0  0  0  0  0
  138.6775   74.0182  221.9586 H   0  0  0  0  0  0  0  0  0  0  0  0
  139.9811   75.0108  222.7206 H   0  0  0  0  0  0  0  0  0  0  0  0
  140.5889   73.8992  220.0138 H   0  0  0  0  0  0  0  0  0  0  0  0
  139.3131   75.1703  220.0871 H   0  0  0  0  0  0  0  0  0  0  0  0
  139.6756   76.9426  222.1146 H   0  0  0  0  0  0  0  0  0  0  0  0
  140.9869   76.2398  223.1317 H   0  0  0  0  0  0  0  0  0  0  0  0
  141.3489   78.6924  220.2976 H   0  0  0  0  0  0  0  0  0  0  0  0
  142.2930   80.9805  220.6211 H   0  0  0  0  0  0  0  0  0  0  0  0
  142.8570   81.7909  222.9135 H   0  0  0  0  0  0  0  0  0  0  0  0
  142.4796   80.3127  224.8880 H   0  0  0  0  0  0  0  0  0  0  0  0
  141.5102   78.0363  224.5807 H   0  0  0  0  0  0  0  0  0  0  0  0
  141.8036   72.9884  226.1137 H   0  0  0  0  0  0  0  0  0  0  0  0
  141.5170   72.6313  228.5641 H   0  0  0  0  0  0  0  0  0  0  0  0
  140.2682   70.6399  229.4008 H   0  0  0  0  0  0  0  0  0  0  0  0
  139.2608   69.0290  227.7850 H   0  0  0  0  0  0  0  0  0  0  0  0
  1  2  2  0
  2  3  1  0
  3  4  1  0
  4  5  1  0
  5  6  1  0
  6  7  1  0
  7  8  1  0
  8  9  2  0
  9 10  1  0
 10 11  2  0
 11 12  1  0
 12 13  2  0
  2 14  1  0
 14 15  1  0
 15 16  2  0
 16 17  1  0
 17 18  2  0
 18 19  1  0
 19 20  2  0
 20 21  1  0
 13  8  1  0
 20 15  1  0
  4 22  1  0
  4 23  1  0
  5 24  1  0
  5 25  1  0
  7 26  1  0
  7 27  1  0
  9 28  1  0
 10 29  1  0
 11 30  1  0
 12 31  1  0
 13 32  1  0
 16 33  1  0
 17 34  1  0
 18 35  1  0
 19 36  1  0
M  CHG  2   3  -1  14  -1
M  END
>  <UniqueID>  (58) 
10

>  <SMILES>  (58) 
O=C([N-]CCSCc1ccccc1)[N-]c1ccccc1Br

>  <Energy>  (58) 
33.50569190073064

>  <Genealogy>  (58) 
O=C([N-]CCSCc1ccccc1)[N-]c1ccccc1Br (protonated)
O=C([N-]CCSCc1ccccc1)[N-]c1ccccc1Br (3D coordinates assigned)
O=C([N-]CCSCc1ccccc1)[N-]c1ccccc1Br (optimized conformer: 33.50569190073064 kcal/mol)

>  <smiles>  (58) 
O=C(NCCSCc1ccccc1)Nc1ccccc1Br

>  <score_type>  (58) 
oracle

>  <origin>  (58) 
autodockgpu

>  <m_score__min__energy>  (58) 
-6.8499999999999996

>  <m_primary>  (58) 
energy

>  <meeko>  (58) 
{"free_energy": -6.51, "intermolecular_energy": -8.9, "internal_energy": -0.58, "cluster_size": 9, "cluster_id": 1, "rank_in_cluster": 7}

>  <energy>  (58) 
-6.19

>  <cluster_rmsd>  (58) 
0.42

>  <rmsd>  (58) 
272.21

>  <cluster>  (58) 
4

$$$$
JPDCHESNUKKMJT-VXJIHLCCNA-M
     RDKit          3D

 36 37  0  0  0  0  0  0  0  0999 V2000
  141.1000   71.4870  222.2400 O   0  0  0  0  0  0  0  0  0  0  0  0
  140.4450   72.2840  222.9620 C   0  0  0  0  0  0  0  0  0  0  0  0
  139.7370   73.3810  222.3710 N   0  0  0  0  0  0  0  0  0  0  0  0
  140.3760   74.4370  221.5930 C   0  0  0  0  0  0  0  0  0  0  0  0
  139.3490   75.4680  221.1280 C   0  0  0  0  0  0  0  0  0  0  0  0
  139.2790   76.8690  222.3060 S   0  0  0  0  0  0  0  0  0  0  0  0
  141.0720   77.2210  222.3270 C   0  0  0  0  0  0  0  0  0  0  0  0
  141.3210   78.6270  222.8030 C   0  0  0  0  0  0  0  0  0  0  0  0
  140.2790   79.3940  223.3520 C   0  0  0  0  0  0  0  0  0  0  0  0
  140.5300   80.6880  223.8180 C   0  0  0  0  0  0  0  0  0  0  0  0
  141.8150   81.2280  223.7330 C   0  0  0  0  0  0  0  0  0  0  0  0
  142.8540   80.4740  223.1810 C   0  0  0  0  0  0  0  0  0  0  0  0
  142.6110   79.1770  222.7220 C   0  0  0  0  0  0  0  0  0  0  0  0
  140.3940   72.0660  224.3740 N   0  0  0  0  0  0  0  0  0  0  0  0
  140.0550   70.8140  224.9830 C   0  0  0  0  0  0  0  0  0  0  0  0
  139.5760   69.7800  224.1680 C   0  0  0  0  0  0  0  0  0  0  0  0
  139.2190   68.5490  224.7230 C   0  0  0  0  0  0  0  0  0  0  0  0
  139.3600   68.3340  226.0950 C   0  0  0  0  0  0  0  0  0  0  0  0
  139.8770   69.3440  226.9110 C   0  0  0  0  0  0  0  0  0  0  0  0
  140.2370   70.5820  226.3650 C   0  0  0  0  0  0  0  0  0  0  0  0
  141.0760   71.8640  227.5170 Br  0  0  0  0  0  0  0  0  0  0  0  0
  141.1316   74.9371  222.2167 H   0  0  0  0  0  0  0  0  0  0  0  0
  140.8471   73.9855  220.7074 H   0  0  0  0  0  0  0  0  0  0  0  0
  139.6352   75.8430  220.1343 H   0  0  0  0  0  0  0  0  0  0  0  0
  138.3590   74.9910  221.0792 H   0  0  0  0  0  0  0  0  0  0  0  0
  141.5730   76.5141  223.0047 H   0  0  0  0  0  0  0  0  0  0  0  0
  141.4709   77.1116  221.3077 H   0  0  0  0  0  0  0  0  0  0  0  0
  139.2638   78.9752  223.4152 H   0  0  0  0  0  0  0  0  0  0  0  0
  139.7129   81.2824  224.2528 H   0  0  0  0  0  0  0  0  0  0  0  0
  142.0093   82.2465  224.1004 H   0  0  0  0  0  0  0  0  0  0  0  0
  143.8646   80.9022  223.1078 H   0  0  0  0  0  0  0  0  0  0  0  0
  143.4334   78.5840  222.2954 H   0  0  0  0  0  0  0  0  0  0  0  0
  139.4804   69.9387  223.0837 H   0  0  0  0  0  0  0  0  0  0  0  0
  138.8265   67.7486  224.0786 H   0  0  0  0  0  0  0  0  0  0  0  0
  139.0642   67.3697  226.5339 H   0  0  0  0  0  0  0  0  0  0  0  0
  140.0019   69.1652  227.9892 H   0  0  0  0  0  0  0  0  0  0  0  0
  1  2  2  0
  2  3  1  0
  3  4  1  0
  4  5  1  0
  5  6  1  0
  6  7  1  0
  7  8  1  0
  8  9  2  0
  9 10  1  0
 10 11  2  0
 11 12  1  0
 12 13  2  0
  2 14  1  0
 14 15  1  0
 15 16  2  0
 16 17  1  0
 17 18  2  0
 18 19  1  0
 19 20  2  0
 20 21  1  0
 13  8  1  0
 20 15  1  0
  4 22  1  0
  4 23  1  0
  5 24  1  0
  5 25  1  0
  7 26  1  0
  7 27  1  0
  9 28  1  0
 10 29  1  0
 11 30  1  0
 12 31  1  0
 13 32  1  0
 16 33  1  0
 17 34  1  0
 18 35  1  0
 19 36  1  0
M  CHG  2   3  -1  14  -1
M  END
>  <UniqueID>  (59) 
10

>  <SMILES>  (59) 
O=C([N-]CCSCc1ccccc1)[N-]c1ccccc1Br

>  <Energy>  (59) 
33.50569190073064

>  <Genealogy>  (59) 
O=C([N-]CCSCc1ccccc1)[N-]c1ccccc1Br (protonated)
O=C([N-]CCSCc1ccccc1)[N-]c1ccccc1Br (3D coordinates assigned)
O=C([N-]CCSCc1ccccc1)[N-]c1ccccc1Br (optimized conformer: 33.50569190073064 kcal/mol)

>  <smiles>  (59) 
O=C(NCCSCc1ccccc1)Nc1ccccc1Br

>  <score_type>  (59) 
oracle

>  <origin>  (59) 
autodockgpu

>  <m_score__min__energy>  (59) 
-6.8499999999999996

>  <m_primary>  (59) 
energy

>  <meeko>  (59) 
{"free_energy": -6.5, "intermolecular_energy": -8.89, "internal_energy": -0.51, "cluster_size": 9, "cluster_id": 1, "rank_in_cluster": 8}

>  <energy>  (59) 
-6.04

>  <cluster_rmsd>  (59) 
0.66

>  <rmsd>  (59) 
272.02

>  <cluster>  (59) 
4

$$$$
JPDCHESNUKKMJT-VXJIHLCCNA-M
     RDKit          3D

 36 37  0  0  0  0  0  0  0  0999 V2000
  140.0010   74.1890  222.1900 O   0  0  0  0  0  0  0  0  0  0  0  0
  140.6830   73.1630  221.9290 C   0  0  0  0  0  0  0  0  0  0  0  0
  140.6560   72.0320  222.8080 N   0  0  0  0  0  0  0  0  0  0  0  0
  139.8300   70.8500  222.5870 C   0  0  0  0  0  0  0  0  0  0  0  0
  138.4170   71.0640  223.1270 C   0  0  0  0  0  0  0  0  0  0  0  0
  138.0130   69.7860  224.3740 S   0  0  0  0  0  0  0  0  0  0  0  0
  139.7340   69.3910  224.8420 C   0  0  0  0  0  0  0  0  0  0  0  0
  140.1740   70.2590  225.9890 C   0  0  0  0  0  0  0  0  0  0  0  0
  141.0590   71.3300  225.7810 C   0  0  0  0  0  0  0  0  0  0  0  0
  141.4360   72.1490  226.8510 C   0  0  0  0  0  0  0  0  0  0  0  0
  140.9410   71.9000  228.1330 C   0  0  0  0  0  0  0  0  0  0  0  0
  140.0660   70.8320  228.3490 C   0  0  0  0  0  0  0  0  0  0  0  0
  139.6790   70.0170  227.2820 C   0  0  0  0  0  0  0  0  0  0  0  0
  141.4640   73.1320  220.7310 N   0  0  0  0  0  0  0  0  0  0  0  0
  142.8690   73.4100  220.6790 C   0  0  0  0  0  0  0  0  0  0  0  0
  143.7680   72.3470  220.8310 C   0  0  0  0  0  0  0  0  0  0  0  0
  145.1470   72.5770  220.8010 C   0  0  0  0  0  0  0  0  0  0  0  0
  145.6350   73.8680  220.5970 C   0  0  0  0  0  0  0  0  0  0  0  0
  144.7470   74.9290  220.4010 C   0  0  0  0  0  0  0  0  0  0  0  0
  143.3640   74.7090  220.4300 C   0  0  0  0  0  0  0  0  0  0  0  0
  142.2110   76.1820  220.0070 Br  0  0  0  0  0  0  0  0  0  0  0  0
  139.7759   70.6450  221.5076 H   0  0  0  0  0  0  0  0  0  0  0  0
  140.2839   69.9997  223.1171 H   0  0  0  0  0  0  0  0  0  0  0  0
  138.3533   72.0585  223.5928 H   0  0  0  0  0  0  0  0  0  0  0  0
  137.7011   70.9910  222.2950 H   0  0  0  0  0  0  0  0  0  0  0  0
  139.7954   68.3344  225.1418 H   0  0  0  0  0  0  0  0  0  0  0  0
  140.3914   69.5761  223.9797 H   0  0  0  0  0  0  0  0  0  0  0  0
  141.4567   71.5253  224.7742 H   0  0  0  0  0  0  0  0  0  0  0  0
  142.1237   72.9908  226.6821 H   0  0  0  0  0  0  0  0  0  0  0  0
  141.2399   72.5446  228.9727 H   0  0  0  0  0  0  0  0  0  0  0  0
  139.6815   70.6327  229.3601 H   0  0  0  0  0  0  0  0  0  0  0  0
  138.9838   69.1822  227.4548 H   0  0  0  0  0  0  0  0  0  0  0  0
  143.3871   71.3251  220.9748 H   0  0  0  0  0  0  0  0  0  0  0  0
  145.8472   71.7398  220.9383 H   0  0  0  0  0  0  0  0  0  0  0  0
  146.7197   74.0508  220.5904 H   0  0  0  0  0  0  0  0  0  0  0  0
  145.1361   75.9424  220.2230 H   0  0  0  0  0  0  0  0  0  0  0  0
  1  2  2  0
  2  3  1  0
  3  4  1  0
  4  5  1  0
  5  6  1  0
  6  7  1  0
  7  8  1  0
  8  9  2  0
  9 10  1  0
 10 11  2  0
 11 12  1  0
 12 13  2  0
  2 14  1  0
 14 15  1  0
 15 16  2  0
 16 17  1  0
 17 18  2  0
 18 19  1  0
 19 20  2  0
 20 21  1  0
 13  8  1  0
 20 15  1  0
  4 22  1  0
  4 23  1  0
  5 24  1  0
  5 25  1  0
  7 26  1  0
  7 27  1  0
  9 28  1  0
 10 29  1  0
 11 30  1  0
 12 31  1  0
 13 32  1  0
 16 33  1  0
 17 34  1  0
 18 35  1  0
 19 36  1  0
M  CHG  2   3  -1  14  -1
M  END
>  <UniqueID>  (60) 
10

>  <SMILES>  (60) 
O=C([N-]CCSCc1ccccc1)[N-]c1ccccc1Br

>  <Energy>  (60) 
33.50569190073064

>  <Genealogy>  (60) 
O=C([N-]CCSCc1ccccc1)[N-]c1ccccc1Br (protonated)
O=C([N-]CCSCc1ccccc1)[N-]c1ccccc1Br (3D coordinates assigned)
O=C([N-]CCSCc1ccccc1)[N-]c1ccccc1Br (optimized conformer: 33.50569190073064 kcal/mol)

>  <smiles>  (60) 
O=C(NCCSCc1ccccc1)Nc1ccccc1Br

>  <score_type>  (60) 
oracle

>  <origin>  (60) 
autodockgpu

>  <m_score__min__energy>  (60) 
-6.8499999999999996

>  <m_primary>  (60) 
energy

>  <meeko>  (60) 
{"free_energy": -6.19, "intermolecular_energy": -8.57, "internal_energy": -0.86, "cluster_size": 5, "cluster_id": 4, "rank_in_cluster": 3}

>  <energy>  (60) 
-5.86

>  <cluster_rmsd>  (60) 
1.49

>  <rmsd>  (60) 
271.96

>  <cluster>  (60) 
4

$$$$
NQJOPHUHKLKLHW-VEWCPZSHNA-N
     RDKit          3D

 38 39  0  0  0  0  0  0  0  0999 V2000
  141.0470   71.2170  223.0780 O   0  0  0  0  0  0  0  0  0  0  0  0
  140.0190   71.8780  223.4010 C   0  0  0  0  0  0  0  0  0  0  0  0
  139.5770   72.9680  222.5820 N   0  0  0  0  0  0  0  0  0  0  0  0
  140.2870   73.3870  221.3740 C   0  0  0  0  0  0  0  0  0  0  0  0
  140.9580   74.7520  221.5610 C   0  0  0  0  0  0  0  0  0  0  0  0
  139.7850   76.0220  222.1730 S   0  0  0  0  0  0  0  0  0  0  0  0
  140.3630   77.4120  221.1330 C   0  0  0  0  0  0  0  0  0  0  0  0
  141.1200   78.3880  221.9840 C   0  0  0  0  0  0  0  0  0  0  0  0
  141.1570   78.2290  223.3800 C   0  0  0  0  0  0  0  0  0  0  0  0
  141.8350   79.1580  224.1760 C   0  0  0  0  0  0  0  0  0  0  0  0
  142.4780   80.2510  223.5850 C   0  0  0  0  0  0  0  0  0  0  0  0
  142.4400   80.4170  222.1960 C   0  0  0  0  0  0  0  0  0  0  0  0
  141.7560   79.4950  221.3980 C   0  0  0  0  0  0  0  0  0  0  0  0
  139.2740   71.5230  224.5740 N   0  0  0  0  0  0  0  0  0  0  0  0
  139.6430   70.4190  225.4130 C   0  0  0  0  0  0  0  0  0  0  0  0
  140.3760   70.6700  226.5820 C   0  0  0  0  0  0  0  0  0  0  0  0
  140.7390   69.6170  227.4270 C   0  0  0  0  0  0  0  0  0  0  0  0
  140.3880   68.3050  227.1000 C   0  0  0  0  0  0  0  0  0  0  0  0
  139.6790   68.0410  225.9240 C   0  0  0  0  0  0  0  0  0  0  0  0
  139.3070   69.0910  225.0740 C   0  0  0  0  0  0  0  0  0  0  0  0
  138.4160   68.6630  223.4340 Br  0  0  0  0  0  0  0  0  0  0  0  0
  138.6780   73.4460  222.8180 H   0  0  0  0  0  0  0  0  0  0  0  0
  141.0580   72.6396  221.1353 H   0  0  0  0  0  0  0  0  0  0  0  0
  139.5562   73.4712  220.5562 H   0  0  0  0  0  0  0  0  0  0  0  0
  141.7776   74.6474  222.2872 H   0  0  0  0  0  0  0  0  0  0  0  0
  141.3318   75.0819  220.5805 H   0  0  0  0  0  0  0  0  0  0  0  0
  141.0217   77.0282  220.3400 H   0  0  0  0  0  0  0  0  0  0  0  0
  139.4976   77.9152  220.6771 H   0  0  0  0  0  0  0  0  0  0  0  0
  140.6513   77.3715  223.8479 H   0  0  0  0  0  0  0  0  0  0  0  0
  141.8627   79.0291  225.2681 H   0  0  0  0  0  0  0  0  0  0  0  0
  143.0131   80.9795  224.2118 H   0  0  0  0  0  0  0  0  0  0  0  0
  142.9491   81.2742  221.7313 H   0  0  0  0  0  0  0  0  0  0  0  0
  141.7157   79.6369  220.3079 H   0  0  0  0  0  0  0  0  0  0  0  0
  138.3230   71.9380  224.6990 H   0  0  0  0  0  0  0  0  0  0  0  0
  140.6667   71.7002  226.8352 H   0  0  0  0  0  0  0  0  0  0  0  0
  141.3014   69.8217  228.3499 H   0  0  0  0  0  0  0  0  0  0  0  0
  140.6698   67.4783  227.7687 H   0  0  0  0  0  0  0  0  0  0  0  0
  139.4124   67.0056  225.6653 H   0  0  0  0  0  0  0  0  0  0  0  0
  1  2  2  0
  2  3  1  0
  3  4  1  0
  4  5  1  0
  5  6  1  0
  6  7  1  0
  7  8  1  0
  8  9  2  0
  9 10  1  0
 10 11  2  0
 11 12  1  0
 12 13  2  0
  2 14  1  0
 14 15  1  0
 15 16  2  0
 16 17  1  0
 17 18  2  0
 18 19  1  0
 19 20  2  0
 20 21  1  0
 13  8  1  0
 20 15  1  0
  3 22  1  0
  4 23  1  0
  4 24  1  0
  5 25  1  0
  5 26  1  0
  7 27  1  0
  7 28  1  0
  9 29  1  0
 10 30  1  0
 11 31  1  0
 12 32  1  0
 13 33  1  0
 14 34  1  0
 16 35  1  0
 17 36  1  0
 18 37  1  0
 19 38  1  0
M  END
>  <UniqueID>  (61) 
11

>  <SMILES>  (61) 
O=C(NCCSCc1ccccc1)Nc1ccccc1Br

>  <Energy>  (61) 
36.534525639897105

>  <Genealogy>  (61) 
O=C(NCCSCc1ccccc1)Nc1ccccc1Br (3D coordinates assigned)
O=C(NCCSCc1ccccc1)Nc1ccccc1Br (optimized conformer: 36.534525639897105 kcal/mol)

>  <smiles>  (61) 
O=C(NCCSCc1ccccc1)Nc1ccccc1Br

>  <score_type>  (61) 
oracle

>  <origin>  (61) 
autodockgpu

>  <m_score__min__energy>  (61) 
-8.1099999999999994

>  <m_primary>  (61) 
energy

>  <meeko>  (61) 
{"free_energy": -7.41, "intermolecular_energy": -9.2, "internal_energy": -0.78, "cluster_size": 18, "cluster_id": 1, "rank_in_cluster": 18}

>  <energy>  (61) 
-8.11

>  <cluster_rmsd>  (61) 
0.0

>  <rmsd>  (61) 
272.35

>  <cluster>  (61) 
1

$$$$
NQJOPHUHKLKLHW-VEWCPZSHNA-N
     RDKit          3D

 38 39  0  0  0  0  0  0  0  0999 V2000
  141.0080   71.1510  222.9600 O   0  0  0  0  0  0  0  0  0  0  0  0
  140.0490   71.8410  223.4070 C   0  0  0  0  0  0  0  0  0  0  0  0
  139.6410   73.0340  222.7240 N   0  0  0  0  0  0  0  0  0  0  0  0
  140.3110   73.5230  221.5190 C   0  0  0  0  0  0  0  0  0  0  0  0
  139.7410   74.8720  221.0680 C   0  0  0  0  0  0  0  0  0  0  0  0
  140.0030   76.1880  222.3170 S   0  0  0  0  0  0  0  0  0  0  0  0
  140.7870   77.4210  221.2150 C   0  0  0  0  0  0  0  0  0  0  0  0
  141.3860   78.5170  222.0440 C   0  0  0  0  0  0  0  0  0  0  0  0
  141.8870   79.6770  221.4280 C   0  0  0  0  0  0  0  0  0  0  0  0
  142.4760   80.6850  222.1980 C   0  0  0  0  0  0  0  0  0  0  0  0
  142.5700   80.5420  223.5860 C   0  0  0  0  0  0  0  0  0  0  0  0
  142.0770   79.3880  224.2050 C   0  0  0  0  0  0  0  0  0  0  0  0
  141.4960   78.3740  223.4370 C   0  0  0  0  0  0  0  0  0  0  0  0
  139.3470   71.4210  224.5850 N   0  0  0  0  0  0  0  0  0  0  0  0
  139.6820   70.2190  225.2900 C   0  0  0  0  0  0  0  0  0  0  0  0
  139.1900   68.9930  224.8170 C   0  0  0  0  0  0  0  0  0  0  0  0
  139.5100   67.8020  225.4750 C   0  0  0  0  0  0  0  0  0  0  0  0
  140.3080   67.8290  226.6220 C   0  0  0  0  0  0  0  0  0  0  0  0
  140.7820   69.0470  227.1170 C   0  0  0  0  0  0  0  0  0  0  0  0
  140.4710   70.2460  226.4600 C   0  0  0  0  0  0  0  0  0  0  0  0
  141.0740   71.8910  227.2330 Br  0  0  0  0  0  0  0  0  0  0  0  0
  138.7920   73.5440  223.0600 H   0  0  0  0  0  0  0  0  0  0  0  0
  141.3842   73.6408  221.7295 H   0  0  0  0  0  0  0  0  0  0  0  0
  140.1481   72.7925  220.7129 H   0  0  0  0  0  0  0  0  0  0  0  0
  140.2347   75.1696  220.1311 H   0  0  0  0  0  0  0  0  0  0  0  0
  138.6567   74.7504  220.9285 H   0  0  0  0  0  0  0  0  0  0  0  0
  141.5764   76.9351  220.6228 H   0  0  0  0  0  0  0  0  0  0  0  0
  140.0303   77.8433  220.5374 H   0  0  0  0  0  0  0  0  0  0  0  0
  141.8155   79.7923  220.3364 H   0  0  0  0  0  0  0  0  0  0  0  0
  142.8657   81.5913  221.7114 H   0  0  0  0  0  0  0  0  0  0  0  0
  143.0314   81.3365  224.1909 H   0  0  0  0  0  0  0  0  0  0  0  0
  142.1465   79.2783  225.2973 H   0  0  0  0  0  0  0  0  0  0  0  0
  141.1239   77.4613  223.9254 H   0  0  0  0  0  0  0  0  0  0  0  0
  138.4360   71.8830  224.8070 H   0  0  0  0  0  0  0  0  0  0  0  0
  138.5489   68.9690  223.9234 H   0  0  0  0  0  0  0  0  0  0  0  0
  139.1335   66.8429  225.0898 H   0  0  0  0  0  0  0  0  0  0  0  0
  140.5633   66.8905  227.1358 H   0  0  0  0  0  0  0  0  0  0  0  0
  141.4016   69.0651  228.0257 H   0  0  0  0  0  0  0  0  0  0  0  0
  1  2  2  0
  2  3  1  0
  3  4  1  0
  4  5  1  0
  5  6  1  0
  6  7  1  0
  7  8  1  0
  8  9  2  0
  9 10  1  0
 10 11  2  0
 11 12  1  0
 12 13  2  0
  2 14  1  0
 14 15  1  0
 15 16  2  0
 16 17  1  0
 17 18  2  0
 18 19  1  0
 19 20  2  0
 20 21  1  0
 13  8  1  0
 20 15  1  0
  3 22  1  0
  4 23  1  0
  4 24  1  0
  5 25  1  0
  5 26  1  0
  7 27  1  0
  7 28  1  0
  9 29  1  0
 10 30  1  0
 11 31  1  0
 12 32  1  0
 13 33  1  0
 14 34  1  0
 16 35  1  0
 17 36  1  0
 18 37  1  0
 19 38  1  0
M  END
>  <UniqueID>  (62) 
11

>  <SMILES>  (62) 
O=C(NCCSCc1ccccc1)Nc1ccccc1Br

>  <Energy>  (62) 
36.534525639897105

>  <Genealogy>  (62) 
O=C(NCCSCc1ccccc1)Nc1ccccc1Br (3D coordinates assigned)
O=C(NCCSCc1ccccc1)Nc1ccccc1Br (optimized conformer: 36.534525639897105 kcal/mol)

>  <smiles>  (62) 
O=C(NCCSCc1ccccc1)Nc1ccccc1Br

>  <score_type>  (62) 
oracle

>  <origin>  (62) 
autodockgpu

>  <m_score__min__energy>  (62) 
-8.1099999999999994

>  <m_primary>  (62) 
energy

>  <meeko>  (62) 
{"free_energy": -8.11, "intermolecular_energy": -9.9, "internal_energy": -0.7, "cluster_size": 18, "cluster_id": 1, "rank_in_cluster": 1}

>  <energy>  (62) 
-8.1

>  <cluster_rmsd>  (62) 
0.3

>  <rmsd>  (62) 
272.38

>  <cluster>  (62) 
1

$$$$
NQJOPHUHKLKLHW-VEWCPZSHNA-N
     RDKit          3D

 38 39  0  0  0  0  0  0  0  0999 V2000
  140.7030   70.9720  222.7680 O   0  0  0  0  0  0  0  0  0  0  0  0
  139.9180   71.7920  223.3220 C   0  0  0  0  0  0  0  0  0  0  0  0
  139.5530   73.0060  222.6530 N   0  0  0  0  0  0  0  0  0  0  0  0
  140.0780   73.3710  221.3370 C   0  0  0  0  0  0  0  0  0  0  0  0
  139.7790   74.8350  220.9990 C   0  0  0  0  0  0  0  0  0  0  0  0
  140.9570   75.9860  221.8050 S   0  0  0  0  0  0  0  0  0  0  0  0
  139.7380   77.2270  222.3740 C   0  0  0  0  0  0  0  0  0  0  0  0
  140.4560   78.4790  222.7790 C   0  0  0  0  0  0  0  0  0  0  0  0
  139.7700   79.5000  223.4590 C   0  0  0  0  0  0  0  0  0  0  0  0
  140.4310   80.6820  223.8080 C   0  0  0  0  0  0  0  0  0  0  0  0
  141.7800   80.8520  223.4790 C   0  0  0  0  0  0  0  0  0  0  0  0
  142.4680   79.8420  222.7980 C   0  0  0  0  0  0  0  0  0  0  0  0
  141.8070   78.6620  222.4400 C   0  0  0  0  0  0  0  0  0  0  0  0
  139.3650   71.4990  224.6130 N   0  0  0  0  0  0  0  0  0  0  0  0
  139.6610   70.2850  225.3170 C   0  0  0  0  0  0  0  0  0  0  0  0
  139.1500   69.0730  224.8260 C   0  0  0  0  0  0  0  0  0  0  0  0
  139.4310   67.8720  225.4820 C   0  0  0  0  0  0  0  0  0  0  0  0
  140.2090   67.8740  226.6440 C   0  0  0  0  0  0  0  0  0  0  0  0
  140.7010   69.0780  227.1550 C   0  0  0  0  0  0  0  0  0  0  0  0
  140.4280   70.2870  226.5010 C   0  0  0  0  0  0  0  0  0  0  0  0
  141.0530   71.9140  227.2950 Br  0  0  0  0  0  0  0  0  0  0  0  0
  138.8360   73.6290  223.0890 H   0  0  0  0  0  0  0  0  0  0  0  0
  141.1674   73.2184  221.3320 H   0  0  0  0  0  0  0  0  0  0  0  0
  139.5899   72.7363  220.5828 H   0  0  0  0  0  0  0  0  0  0  0  0
  139.8440   74.9674  219.9089 H   0  0  0  0  0  0  0  0  0  0  0  0
  138.7705   75.0685  221.3710 H   0  0  0  0  0  0  0  0  0  0  0  0
  139.0364   77.4537  221.5577 H   0  0  0  0  0  0  0  0  0  0  0  0
  139.1806   76.8278  223.2342 H   0  0  0  0  0  0  0  0  0  0  0  0
  138.7089   79.3689  223.7177 H   0  0  0  0  0  0  0  0  0  0  0  0
  139.8903   81.4779  224.3411 H   0  0  0  0  0  0  0  0  0  0  0  0
  142.3003   81.7807  223.7560 H   0  0  0  0  0  0  0  0  0  0  0  0
  143.5298   79.9758  222.5437 H   0  0  0  0  0  0  0  0  0  0  0  0
  142.3465   77.8756  221.8917 H   0  0  0  0  0  0  0  0  0  0  0  0
  138.5630   72.0790  224.9500 H   0  0  0  0  0  0  0  0  0  0  0  0
  138.5254   69.0690  223.9205 H   0  0  0  0  0  0  0  0  0  0  0  0
  139.0399   66.9240  225.0841 H   0  0  0  0  0  0  0  0  0  0  0  0
  140.4339   66.9269  227.1563 H   0  0  0  0  0  0  0  0  0  0  0  0
  141.3050   69.0768  228.0743 H   0  0  0  0  0  0  0  0  0  0  0  0
  1  2  2  0
  2  3  1  0
  3  4  1  0
  4  5  1  0
  5  6  1  0
  6  7  1  0
  7  8  1  0
  8  9  2  0
  9 10  1  0
 10 11  2  0
 11 12  1  0
 12 13  2  0
  2 14  1  0
 14 15  1  0
 15 16  2  0
 16 17  1  0
 17 18  2  0
 18 19  1  0
 19 20  2  0
 20 21  1  0
 13  8  1  0
 20 15  1  0
  3 22  1  0
  4 23  1  0
  4 24  1  0
  5 25  1  0
  5 26  1  0
  7 27  1  0
  7 28  1  0
  9 29  1  0
 10 30  1  0
 11 31  1  0
 12 32  1  0
 13 33  1  0
 14 34  1  0
 16 35  1  0
 17 36  1  0
 18 37  1  0
 19 38  1  0
M  END
>  <UniqueID>  (63) 
11

>  <SMILES>  (63) 
O=C(NCCSCc1ccccc1)Nc1ccccc1Br

>  <Energy>  (63) 
36.534525639897105

>  <Genealogy>  (63) 
O=C(NCCSCc1ccccc1)Nc1ccccc1Br (3D coordinates assigned)
O=C(NCCSCc1ccccc1)Nc1ccccc1Br (optimized conformer: 36.534525639897105 kcal/mol)

>  <smiles>  (63) 
O=C(NCCSCc1ccccc1)Nc1ccccc1Br

>  <score_type>  (63) 
oracle

>  <origin>  (63) 
autodockgpu

>  <m_score__min__energy>  (63) 
-8.1099999999999994

>  <m_primary>  (63) 
energy

>  <meeko>  (63) 
{"free_energy": -7.93, "intermolecular_energy": -9.72, "internal_energy": -0.62, "cluster_size": 18, "cluster_id": 1, "rank_in_cluster": 13}

>  <energy>  (63) 
-8.07

>  <cluster_rmsd>  (63) 
0.57

>  <rmsd>  (63) 
272.28

>  <cluster>  (63) 
1

$$$$
NQJOPHUHKLKLHW-VEWCPZSHNA-N
     RDKit          3D

 38 39  0  0  0  0  0  0  0  0999 V2000
  140.6840   70.9740  222.6710 O   0  0  0  0  0  0  0  0  0  0  0  0
  139.9260   71.7980  223.2570 C   0  0  0  0  0  0  0  0  0  0  0  0
  139.5490   73.0180  222.6050 N   0  0  0  0  0  0  0  0  0  0  0  0
  140.0310   73.3850  221.2740 C   0  0  0  0  0  0  0  0  0  0  0  0
  139.6120   74.8090  220.8970 C   0  0  0  0  0  0  0  0  0  0  0  0
  139.3820   75.8770  222.3690 S   0  0  0  0  0  0  0  0  0  0  0  0
  141.0210   76.6900  222.3420 C   0  0  0  0  0  0  0  0  0  0  0  0
  140.8720   78.1240  222.7520 C   0  0  0  0  0  0  0  0  0  0  0  0
  141.9990   78.9610  222.8270 C   0  0  0  0  0  0  0  0  0  0  0  0
  141.8630   80.2900  223.2420 C   0  0  0  0  0  0  0  0  0  0  0  0
  140.6030   80.7910  223.5850 C   0  0  0  0  0  0  0  0  0  0  0  0
  139.4780   79.9630  223.5170 C   0  0  0  0  0  0  0  0  0  0  0  0
  139.6110   78.6300  223.1110 C   0  0  0  0  0  0  0  0  0  0  0  0
  139.4160   71.5030  224.5640 N   0  0  0  0  0  0  0  0  0  0  0  0
  139.7240   70.2830  225.2520 C   0  0  0  0  0  0  0  0  0  0  0  0
  139.2450   69.0710  224.7330 C   0  0  0  0  0  0  0  0  0  0  0  0
  139.5390   67.8640  225.3730 C   0  0  0  0  0  0  0  0  0  0  0  0
  140.3000   67.8610  226.5460 C   0  0  0  0  0  0  0  0  0  0  0  0
  140.7610   69.0660  227.0850 C   0  0  0  0  0  0  0  0  0  0  0  0
  140.4740   70.2800  226.4470 C   0  0  0  0  0  0  0  0  0  0  0  0
  141.0560   71.9050  227.2780 Br  0  0  0  0  0  0  0  0  0  0  0  0
  138.8530   73.6450  223.0700 H   0  0  0  0  0  0  0  0  0  0  0  0
  141.1290   73.3206  221.2614 H   0  0  0  0  0  0  0  0  0  0  0  0
  139.5890   72.6910  220.5439 H   0  0  0  0  0  0  0  0  0  0  0  0
  140.3912   75.2499  220.2579 H   0  0  0  0  0  0  0  0  0  0  0  0
  138.6482   74.7487  220.3702 H   0  0  0  0  0  0  0  0  0  0  0  0
  141.6970   76.1766  223.0416 H   0  0  0  0  0  0  0  0  0  0  0  0
  141.4394   76.6398  221.3259 H   0  0  0  0  0  0  0  0  0  0  0  0
  142.9913   78.5695  222.5584 H   0  0  0  0  0  0  0  0  0  0  0  0
  142.7476   80.9414  223.2986 H   0  0  0  0  0  0  0  0  0  0  0  0
  140.4968   81.8370  223.9085 H   0  0  0  0  0  0  0  0  0  0  0  0
  138.4871   80.3598  223.7830 H   0  0  0  0  0  0  0  0  0  0  0  0
  138.7265   77.9771  223.0728 H   0  0  0  0  0  0  0  0  0  0  0  0
  138.6310   72.0890  224.9310 H   0  0  0  0  0  0  0  0  0  0  0  0
  138.6349   69.0707  223.8177 H   0  0  0  0  0  0  0  0  0  0  0  0
  139.1715   66.9157  224.9537 H   0  0  0  0  0  0  0  0  0  0  0  0
  140.5362   66.9097  227.0453 H   0  0  0  0  0  0  0  0  0  0  0  0
  141.3511   69.0609  228.0133 H   0  0  0  0  0  0  0  0  0  0  0  0
  1  2  2  0
  2  3  1  0
  3  4  1  0
  4  5  1  0
  5  6  1  0
  6  7  1  0
  7  8  1  0
  8  9  2  0
  9 10  1  0
 10 11  2  0
 11 12  1  0
 12 13  2  0
  2 14  1  0
 14 15  1  0
 15 16  2  0
 16 17  1  0
 17 18  2  0
 18 19  1  0
 19 20  2  0
 20 21  1  0
 13  8  1  0
 20 15  1  0
  3 22  1  0
  4 23  1  0
  4 24  1  0
  5 25  1  0
  5 26  1  0
  7 27  1  0
  7 28  1  0
  9 29  1  0
 10 30  1  0
 11 31  1  0
 12 32  1  0
 13 33  1  0
 14 34  1  0
 16 35  1  0
 17 36  1  0
 18 37  1  0
 19 38  1  0
M  END
>  <UniqueID>  (64) 
11

>  <SMILES>  (64) 
O=C(NCCSCc1ccccc1)Nc1ccccc1Br

>  <Energy>  (64) 
36.534525639897105

>  <Genealogy>  (64) 
O=C(NCCSCc1ccccc1)Nc1ccccc1Br (3D coordinates assigned)
O=C(NCCSCc1ccccc1)Nc1ccccc1Br (optimized conformer: 36.534525639897105 kcal/mol)

>  <smiles>  (64) 
O=C(NCCSCc1ccccc1)Nc1ccccc1Br

>  <score_type>  (64) 
oracle

>  <origin>  (64) 
autodockgpu

>  <m_score__min__energy>  (64) 
-8.1099999999999994

>  <m_primary>  (64) 
energy

>  <meeko>  (64) 
{"free_energy": -7.75, "intermolecular_energy": -9.54, "internal_energy": -0.78, "cluster_size": 18, "cluster_id": 1, "rank_in_cluster": 16}

>  <energy>  (64) 
-8.07

>  <cluster_rmsd>  (64) 
0.58

>  <rmsd>  (64) 
272.37

>  <cluster>  (64) 
1

$$$$
NQJOPHUHKLKLHW-VEWCPZSHNA-N
     RDKit          3D

 38 39  0  0  0  0  0  0  0  0999 V2000
  141.0680   71.1590  223.0110 O   0  0  0  0  0  0  0  0  0  0  0  0
  140.0930   71.8530  223.4170 C   0  0  0  0  0  0  0  0  0  0  0  0
  139.7170   73.0460  222.7170 N   0  0  0  0  0  0  0  0  0  0  0  0
  140.4390   73.5340  221.5420 C   0  0  0  0  0  0  0  0  0  0  0  0
  139.7220   74.7220  220.8940 C   0  0  0  0  0  0  0  0  0  0  0  0
  139.6820   76.1910  221.9910 S   0  0  0  0  0  0  0  0  0  0  0  0
  140.9120   77.2030  221.0910 C   0  0  0  0  0  0  0  0  0  0  0  0
  141.3760   78.3220  221.9740 C   0  0  0  0  0  0  0  0  0  0  0  0
  141.8420   79.5230  221.4110 C   0  0  0  0  0  0  0  0  0  0  0  0
  142.3050   80.5540  222.2340 C   0  0  0  0  0  0  0  0  0  0  0  0
  142.3090   80.3930  223.6240 C   0  0  0  0  0  0  0  0  0  0  0  0
  141.8510   79.1990  224.1910 C   0  0  0  0  0  0  0  0  0  0  0  0
  141.3950   78.1620  223.3700 C   0  0  0  0  0  0  0  0  0  0  0  0
  139.3400   71.4350  224.5640 N   0  0  0  0  0  0  0  0  0  0  0  0
  139.6420   70.2310  225.2830 C   0  0  0  0  0  0  0  0  0  0  0  0
  139.1230   69.0130  224.8180 C   0  0  0  0  0  0  0  0  0  0  0  0
  139.4090   67.8220  225.4890 C   0  0  0  0  0  0  0  0  0  0  0  0
  140.2010   67.8400  226.6410 C   0  0  0  0  0  0  0  0  0  0  0  0
  140.7020   69.0510  227.1270 C   0  0  0  0  0  0  0  0  0  0  0  0
  140.4240   70.2500  226.4570 C   0  0  0  0  0  0  0  0  0  0  0  0
  141.0620   71.8880  227.2180 Br  0  0  0  0  0  0  0  0  0  0  0  0
  138.8570   73.5590  223.0170 H   0  0  0  0  0  0  0  0  0  0  0  0
  141.4475   73.8492  221.8480 H   0  0  0  0  0  0  0  0  0  0  0  0
  140.4893   72.7186  220.8054 H   0  0  0  0  0  0  0  0  0  0  0  0
  140.2469   74.9883  219.9647 H   0  0  0  0  0  0  0  0  0  0  0  0
  138.6828   74.4211  220.6954 H   0  0  0  0  0  0  0  0  0  0  0  0
  141.7709   76.5749  220.8121 H   0  0  0  0  0  0  0  0  0  0  0  0
  140.4526   77.6180  220.1818 H   0  0  0  0  0  0  0  0  0  0  0  0
  141.8423   79.6520  220.3186 H   0  0  0  0  0  0  0  0  0  0  0  0
  142.6664   81.4925  221.7885 H   0  0  0  0  0  0  0  0  0  0  0  0
  142.6723   81.2052  224.2708 H   0  0  0  0  0  0  0  0  0  0  0  0
  141.8494   79.0753  225.2840 H   0  0  0  0  0  0  0  0  0  0  0  0
  141.0503   77.2186  223.8186 H   0  0  0  0  0  0  0  0  0  0  0  0
  138.4210   71.8990  224.7470 H   0  0  0  0  0  0  0  0  0  0  0  0
  138.4876   68.9962  223.9203 H   0  0  0  0  0  0  0  0  0  0  0  0
  139.0108   66.8689  225.1108 H   0  0  0  0  0  0  0  0  0  0  0  0
  140.4300   66.9005  227.1653 H   0  0  0  0  0  0  0  0  0  0  0  0
  141.3169   69.0629  228.0390 H   0  0  0  0  0  0  0  0  0  0  0  0
  1  2  2  0
  2  3  1  0
  3  4  1  0
  4  5  1  0
  5  6  1  0
  6  7  1  0
  7  8  1  0
  8  9  2  0
  9 10  1  0
 10 11  2  0
 11 12  1  0
 12 13  2  0
  2 14  1  0
 14 15  1  0
 15 16  2  0
 16 17  1  0
 17 18  2  0
 18 19  1  0
 19 20  2  0
 20 21  1  0
 13  8  1  0
 20 15  1  0
  3 22  1  0
  4 23  1  0
  4 24  1  0
  5 25  1  0
  5 26  1  0
  7 27  1  0
  7 28  1  0
  9 29  1  0
 10 30  1  0
 11 31  1  0
 12 32  1  0
 13 33  1  0
 14 34  1  0
 16 35  1  0
 17 36  1  0
 18 37  1  0
 19 38  1  0
M  END
>  <UniqueID>  (65) 
11

>  <SMILES>  (65) 
O=C(NCCSCc1ccccc1)Nc1ccccc1Br

>  <Energy>  (65) 
36.534525639897105

>  <Genealogy>  (65) 
O=C(NCCSCc1ccccc1)Nc1ccccc1Br (3D coordinates assigned)
O=C(NCCSCc1ccccc1)Nc1ccccc1Br (optimized conformer: 36.534525639897105 kcal/mol)

>  <smiles>  (65) 
O=C(NCCSCc1ccccc1)Nc1ccccc1Br

>  <score_type>  (65) 
oracle

>  <origin>  (65) 
autodockgpu

>  <m_score__min__energy>  (65) 
-8.1099999999999994

>  <m_primary>  (65) 
energy

>  <meeko>  (65) 
{"free_energy": -8.06, "intermolecular_energy": -9.85, "internal_energy": -0.73, "cluster_size": 18, "cluster_id": 1, "rank_in_cluster": 5}

>  <energy>  (65) 
-8.06

>  <cluster_rmsd>  (65) 
0.18

>  <rmsd>  (65) 
272.28

>  <cluster>  (65) 
1

$$$$
NQJOPHUHKLKLHW-VEWCPZSHNA-N
     RDKit          3D

 38 39  0  0  0  0  0  0  0  0999 V2000
  140.6900   70.8710  222.7720 O   0  0  0  0  0  0  0  0  0  0  0  0
  139.9460   71.7330  223.3200 C   0  0  0  0  0  0  0  0  0  0  0  0
  139.6230   72.9480  222.6310 N   0  0  0  0  0  0  0  0  0  0  0  0
  140.1460   73.2650  221.3020 C   0  0  0  0  0  0  0  0  0  0  0  0
  141.0000   74.5360  221.3220 C   0  0  0  0  0  0  0  0  0  0  0  0
  140.1460   75.9330  222.1470 S   0  0  0  0  0  0  0  0  0  0  0  0
  140.7910   77.2770  221.0870 C   0  0  0  0  0  0  0  0  0  0  0  0
  141.3590   78.3620  221.9520 C   0  0  0  0  0  0  0  0  0  0  0  0
  141.3570   78.2260  223.3510 C   0  0  0  0  0  0  0  0  0  0  0  0
  141.8570   79.2530  224.1590 C   0  0  0  0  0  0  0  0  0  0  0  0
  142.3600   80.4210  223.5760 C   0  0  0  0  0  0  0  0  0  0  0  0
  142.3610   80.5640  222.1850 C   0  0  0  0  0  0  0  0  0  0  0  0
  141.8540   79.5430  221.3740 C   0  0  0  0  0  0  0  0  0  0  0  0
  139.3990   71.4880  224.6230 N   0  0  0  0  0  0  0  0  0  0  0  0
  139.6530   70.2770  225.3470 C   0  0  0  0  0  0  0  0  0  0  0  0
  139.1140   69.0730  224.8690 C   0  0  0  0  0  0  0  0  0  0  0  0
  139.3540   67.8740  225.5450 C   0  0  0  0  0  0  0  0  0  0  0  0
  140.1200   67.8720  226.7150 C   0  0  0  0  0  0  0  0  0  0  0  0
  140.6410   69.0690  227.2140 C   0  0  0  0  0  0  0  0  0  0  0  0
  140.4090   70.2750  226.5390 C   0  0  0  0  0  0  0  0  0  0  0  0
  141.0720   71.8950  227.3160 Br  0  0  0  0  0  0  0  0  0  0  0  0
  138.9380   73.6080  223.0630 H   0  0  0  0  0  0  0  0  0  0  0  0
  140.7638   72.4250  220.9516 H   0  0  0  0  0  0  0  0  0  0  0  0
  139.2936   73.4332  220.6274 H   0  0  0  0  0  0  0  0  0  0  0  0
  141.9357   74.3254  221.8606 H   0  0  0  0  0  0  0  0  0  0  0  0
  141.1944   74.8280  220.2795 H   0  0  0  0  0  0  0  0  0  0  0  0
  141.5792   76.8805  220.4301 H   0  0  0  0  0  0  0  0  0  0  0  0
  139.9750   77.6852  220.4726 H   0  0  0  0  0  0  0  0  0  0  0  0
  140.9610   77.3091  223.8121 H   0  0  0  0  0  0  0  0  0  0  0  0
  141.8546   79.1420  225.2534 H   0  0  0  0  0  0  0  0  0  0  0  0
  142.7548   81.2270  224.2120 H   0  0  0  0  0  0  0  0  0  0  0  0
  142.7611   81.4809  221.7276 H   0  0  0  0  0  0  0  0  0  0  0  0
  141.8429   79.6652  220.2809 H   0  0  0  0  0  0  0  0  0  0  0  0
  138.6260   72.1080  224.9580 H   0  0  0  0  0  0  0  0  0  0  0  0
  138.4990   69.0730  223.9570 H   0  0  0  0  0  0  0  0  0  0  0  0
  138.9404   66.9315  225.1569 H   0  0  0  0  0  0  0  0  0  0  0  0
  140.3128   66.9267  227.2434 H   0  0  0  0  0  0  0  0  0  0  0  0
  141.2352   69.0645  228.1397 H   0  0  0  0  0  0  0  0  0  0  0  0
  1  2  2  0
  2  3  1  0
  3  4  1  0
  4  5  1  0
  5  6  1  0
  6  7  1  0
  7  8  1  0
  8  9  2  0
  9 10  1  0
 10 11  2  0
 11 12  1  0
 12 13  2  0
  2 14  1  0
 14 15  1  0
 15 16  2  0
 16 17  1  0
 17 18  2  0
 18 19  1  0
 19 20  2  0
 20 21  1  0
 13  8  1  0
 20 15  1  0
  3 22  1  0
  4 23  1  0
  4 24  1  0
  5 25  1  0
  5 26  1  0
  7 27  1  0
  7 28  1  0
  9 29  1  0
 10 30  1  0
 11 31  1  0
 12 32  1  0
 13 33  1  0
 14 34  1  0
 16 35  1  0
 17 36  1  0
 18 37  1  0
 19 38  1  0
M  END
>  <UniqueID>  (66) 
11

>  <SMILES>  (66) 
O=C(NCCSCc1ccccc1)Nc1ccccc1Br

>  <Energy>  (66) 
36.534525639897105

>  <Genealogy>  (66) 
O=C(NCCSCc1ccccc1)Nc1ccccc1Br (3D coordinates assigned)
O=C(NCCSCc1ccccc1)Nc1ccccc1Br (optimized conformer: 36.534525639897105 kcal/mol)

>  <smiles>  (66) 
O=C(NCCSCc1ccccc1)Nc1ccccc1Br

>  <score_type>  (66) 
oracle

>  <origin>  (66) 
autodockgpu

>  <m_score__min__energy>  (66) 
-8.1099999999999994

>  <m_primary>  (66) 
energy

>  <meeko>  (66) 
{"free_energy": -8.06, "intermolecular_energy": -9.85, "internal_energy": -0.75, "cluster_size": 18, "cluster_id": 1, "rank_in_cluster": 6}

>  <energy>  (66) 
-8.06

>  <cluster_rmsd>  (66) 
0.34

>  <rmsd>  (66) 
272.32

>  <cluster>  (66) 
1

$$$$
NQJOPHUHKLKLHW-VEWCPZSHNA-N
     RDKit          3D

 38 39  0  0  0  0  0  0  0  0999 V2000
  139.8690   70.4960  222.2160 O   0  0  0  0  0  0  0  0  0  0  0  0
  139.3210   71.4280  222.8700 C   0  0  0  0  0  0  0  0  0  0  0  0
  138.2460   71.1390  223.7740 N   0  0  0  0  0  0  0  0  0  0  0  0
  137.7160   69.7890  223.9630 C   0  0  0  0  0  0  0  0  0  0  0  0
  138.0830   69.2290  225.3410 C   0  0  0  0  0  0  0  0  0  0  0  0
  139.2840   67.8480  225.2310 S   0  0  0  0  0  0  0  0  0  0  0  0
  140.0920   68.0940  226.8540 C   0  0  0  0  0  0  0  0  0  0  0  0
  140.4500   69.5410  227.0160 C   0  0  0  0  0  0  0  0  0  0  0  0
  140.0780   70.2370  228.1790 C   0  0  0  0  0  0  0  0  0  0  0  0
  140.3830   71.5950  228.3160 C   0  0  0  0  0  0  0  0  0  0  0  0
  141.0590   72.2670  227.2920 C   0  0  0  0  0  0  0  0  0  0  0  0
  141.4280   71.5820  226.1290 C   0  0  0  0  0  0  0  0  0  0  0  0
  141.1170   70.2260  225.9860 C   0  0  0  0  0  0  0  0  0  0  0  0
  139.7900   72.7770  222.7330 N   0  0  0  0  0  0  0  0  0  0  0  0
  140.8860   73.1250  221.8750 C   0  0  0  0  0  0  0  0  0  0  0  0
  141.8370   72.1440  221.5560 C   0  0  0  0  0  0  0  0  0  0  0  0
  142.9090   72.4480  220.7120 C   0  0  0  0  0  0  0  0  0  0  0  0
  143.0490   73.7400  220.1970 C   0  0  0  0  0  0  0  0  0  0  0  0
  142.1210   74.7320  220.5300 C   0  0  0  0  0  0  0  0  0  0  0  0
  141.0410   74.4330  221.3710 C   0  0  0  0  0  0  0  0  0  0  0  0
  139.8520   75.8520  221.8640 Br  0  0  0  0  0  0  0  0  0  0  0  0
  137.8650   71.9090  224.3690 H   0  0  0  0  0  0  0  0  0  0  0  0
  136.6204   69.8189  223.8697 H   0  0  0  0  0  0  0  0  0  0  0  0
  138.1569   69.1349  223.1963 H   0  0  0  0  0  0  0  0  0  0  0  0
  138.5249   70.0354  225.9447 H   0  0  0  0  0  0  0  0  0  0  0  0
  137.1635   68.8404  225.8030 H   0  0  0  0  0  0  0  0  0  0  0  0
  139.4024   67.7941  227.6568 H   0  0  0  0  0  0  0  0  0  0  0  0
  141.0037   67.4809  226.9080 H   0  0  0  0  0  0  0  0  0  0  0  0
  139.5447   69.7114  228.9849 H   0  0  0  0  0  0  0  0  0  0  0  0
  140.0913   72.1348  229.2290 H   0  0  0  0  0  0  0  0  0  0  0  0
  141.3006   73.3346  227.4012 H   0  0  0  0  0  0  0  0  0  0  0  0
  141.9632   72.1106  225.3264 H   0  0  0  0  0  0  0  0  0  0  0  0
  141.3954   69.6939  225.0644 H   0  0  0  0  0  0  0  0  0  0  0  0
  139.4710   73.4840  223.4340 H   0  0  0  0  0  0  0  0  0  0  0  0
  141.7385   71.1305  221.9722 H   0  0  0  0  0  0  0  0  0  0  0  0
  143.6426   71.6703  220.4530 H   0  0  0  0  0  0  0  0  0  0  0  0
  143.8902   73.9768  219.5289 H   0  0  0  0  0  0  0  0  0  0  0  0
  142.2394   75.7500  220.1304 H   0  0  0  0  0  0  0  0  0  0  0  0
  1  2  2  0
  2  3  1  0
  3  4  1  0
  4  5  1  0
  5  6  1  0
  6  7  1  0
  7  8  1  0
  8  9  2  0
  9 10  1  0
 10 11  2  0
 11 12  1  0
 12 13  2  0
  2 14  1  0
 14 15  1  0
 15 16  2  0
 16 17  1  0
 17 18  2  0
 18 19  1  0
 19 20  2  0
 20 21  1  0
 13  8  1  0
 20 15  1  0
  3 22  1  0
  4 23  1  0
  4 24  1  0
  5 25  1  0
  5 26  1  0
  7 27  1  0
  7 28  1  0
  9 29  1  0
 10 30  1  0
 11 31  1  0
 12 32  1  0
 13 33  1  0
 14 34  1  0
 16 35  1  0
 17 36  1  0
 18 37  1  0
 19 38  1  0
M  END
>  <UniqueID>  (67) 
11

>  <SMILES>  (67) 
O=C(NCCSCc1ccccc1)Nc1ccccc1Br

>  <Energy>  (67) 
36.534525639897105

>  <Genealogy>  (67) 
O=C(NCCSCc1ccccc1)Nc1ccccc1Br (3D coordinates assigned)
O=C(NCCSCc1ccccc1)Nc1ccccc1Br (optimized conformer: 36.534525639897105 kcal/mol)

>  <smiles>  (67) 
O=C(NCCSCc1ccccc1)Nc1ccccc1Br

>  <score_type>  (67) 
oracle

>  <origin>  (67) 
autodockgpu

>  <m_score__min__energy>  (67) 
-8.1099999999999994

>  <m_primary>  (67) 
energy

>  <meeko>  (67) 
{"free_energy": -7.35, "intermolecular_energy": -9.14, "internal_energy": -1.02, "cluster_size": 1, "cluster_id": 3, "rank_in_cluster": 1}

>  <energy>  (67) 
-8.01

>  <cluster_rmsd>  (67) 
0.67

>  <rmsd>  (67) 
272.37

>  <cluster>  (67) 
1

$$$$
NQJOPHUHKLKLHW-VEWCPZSHNA-N
     RDKit          3D

 38 39  0  0  0  0  0  0  0  0999 V2000
  140.6890   70.8320  222.8870 O   0  0  0  0  0  0  0  0  0  0  0  0
  139.8600   71.6380  223.3960 C   0  0  0  0  0  0  0  0  0  0  0  0
  139.4730   72.8190  222.6800 N   0  0  0  0  0  0  0  0  0  0  0  0
  140.0220   73.1640  221.3690 C   0  0  0  0  0  0  0  0  0  0  0  0
  139.7580   74.6320  221.0180 C   0  0  0  0  0  0  0  0  0  0  0  0
  141.1750   75.7130  221.4480 S   0  0  0  0  0  0  0  0  0  0  0  0
  140.2390   76.9990  222.3520 C   0  0  0  0  0  0  0  0  0  0  0  0
  141.0880   78.2260  222.4910 C   0  0  0  0  0  0  0  0  0  0  0  0
  141.5140   78.6540  223.7610 C   0  0  0  0  0  0  0  0  0  0  0  0
  142.2780   79.8170  223.8930 C   0  0  0  0  0  0  0  0  0  0  0  0
  142.6220   80.5620  222.7600 C   0  0  0  0  0  0  0  0  0  0  0  0
  142.1980   80.1450  221.4940 C   0  0  0  0  0  0  0  0  0  0  0  0
  141.4260   78.9870  221.3590 C   0  0  0  0  0  0  0  0  0  0  0  0
  139.2820   71.3630  224.6790 N   0  0  0  0  0  0  0  0  0  0  0  0
  139.5990   70.1810  225.4260 C   0  0  0  0  0  0  0  0  0  0  0  0
  139.0650   68.9520  225.0120 C   0  0  0  0  0  0  0  0  0  0  0  0
  139.3650   67.7800  225.7120 C   0  0  0  0  0  0  0  0  0  0  0  0
  140.1880   67.8310  226.8410 C   0  0  0  0  0  0  0  0  0  0  0  0
  140.7040   69.0540  227.2770 C   0  0  0  0  0  0  0  0  0  0  0  0
  140.4120   70.2340  226.5780 C   0  0  0  0  0  0  0  0  0  0  0  0
  141.0750   71.8910  227.2720 Br  0  0  0  0  0  0  0  0  0  0  0  0
  138.7230   73.4280  223.0780 H   0  0  0  0  0  0  0  0  0  0  0  0
  141.1079   72.9886  221.3789 H   0  0  0  0  0  0  0  0  0  0  0  0
  139.5304   72.5346  220.6126 H   0  0  0  0  0  0  0  0  0  0  0  0
  139.5688   74.7092  219.9372 H   0  0  0  0  0  0  0  0  0  0  0  0
  138.8882   74.9675  221.6019 H   0  0  0  0  0  0  0  0  0  0  0  0
  139.3237   77.2470  221.7946 H   0  0  0  0  0  0  0  0  0  0  0  0
  139.9685   76.6238  223.3501 H   0  0  0  0  0  0  0  0  0  0  0  0
  141.2449   78.0711  224.6542 H   0  0  0  0  0  0  0  0  0  0  0  0
  142.6091   80.1468  224.8888 H   0  0  0  0  0  0  0  0  0  0  0  0
  143.2258   81.4755  222.8647 H   0  0  0  0  0  0  0  0  0  0  0  0
  142.4723   80.7290  220.6031 H   0  0  0  0  0  0  0  0  0  0  0  0
  141.0820   78.6706  220.3632 H   0  0  0  0  0  0  0  0  0  0  0  0
  138.4510   71.9240  224.9760 H   0  0  0  0  0  0  0  0  0  0  0  0
  138.4066   68.9102  224.1318 H   0  0  0  0  0  0  0  0  0  0  0  0
  138.9535   66.8173  225.3745 H   0  0  0  0  0  0  0  0  0  0  0  0
  140.4296   66.9070  227.3868 H   0  0  0  0  0  0  0  0  0  0  0  0
  141.3420   69.0914  228.1723 H   0  0  0  0  0  0  0  0  0  0  0  0
  1  2  2  0
  2  3  1  0
  3  4  1  0
  4  5  1  0
  5  6  1  0
  6  7  1  0
  7  8  1  0
  8  9  2  0
  9 10  1  0
 10 11  2  0
 11 12  1  0
 12 13  2  0
  2 14  1  0
 14 15  1  0
 15 16  2  0
 16 17  1  0
 17 18  2  0
 18 19  1  0
 19 20  2  0
 20 21  1  0
 13  8  1  0
 20 15  1  0
  3 22  1  0
  4 23  1  0
  4 24  1  0
  5 25  1  0
  5 26  1  0
  7 27  1  0
  7 28  1  0
  9 29  1  0
 10 30  1  0
 11 31  1  0
 12 32  1  0
 13 33  1  0
 14 34  1  0
 16 35  1  0
 17 36  1  0
 18 37  1  0
 19 38  1  0
M  END
>  <UniqueID>  (68) 
11

>  <SMILES>  (68) 
O=C(NCCSCc1ccccc1)Nc1ccccc1Br

>  <Energy>  (68) 
36.534525639897105

>  <Genealogy>  (68) 
O=C(NCCSCc1ccccc1)Nc1ccccc1Br (3D coordinates assigned)
O=C(NCCSCc1ccccc1)Nc1ccccc1Br (optimized conformer: 36.534525639897105 kcal/mol)

>  <smiles>  (68) 
O=C(NCCSCc1ccccc1)Nc1ccccc1Br

>  <score_type>  (68) 
oracle

>  <origin>  (68) 
autodockgpu

>  <m_score__min__energy>  (68) 
-8.1099999999999994

>  <m_primary>  (68) 
energy

>  <meeko>  (68) 
{"free_energy": -8.07, "intermolecular_energy": -9.86, "internal_energy": -0.61, "cluster_size": 18, "cluster_id": 1, "rank_in_cluster": 3}

>  <energy>  (68) 
-7.97

>  <cluster_rmsd>  (68) 
0.42

>  <rmsd>  (68) 
272.27

>  <cluster>  (68) 
1

$$$$
NQJOPHUHKLKLHW-VEWCPZSHNA-N
     RDKit          3D

 38 39  0  0  0  0  0  0  0  0999 V2000
  140.9500   71.1420  222.8800 O   0  0  0  0  0  0  0  0  0  0  0  0
  140.0480   71.8750  223.3750 C   0  0  0  0  0  0  0  0  0  0  0  0
  139.6440   73.0750  222.7020 N   0  0  0  0  0  0  0  0  0  0  0  0
  140.2570   73.5240  221.4530 C   0  0  0  0  0  0  0  0  0  0  0  0
  139.7160   74.8910  221.0200 C   0  0  0  0  0  0  0  0  0  0  0  0
  139.8340   76.1380  222.3590 S   0  0  0  0  0  0  0  0  0  0  0  0
  141.0780   77.2260  221.5730 C   0  0  0  0  0  0  0  0  0  0  0  0
  141.2240   78.4800  222.3820 C   0  0  0  0  0  0  0  0  0  0  0  0
  140.1170   79.0140  223.0650 C   0  0  0  0  0  0  0  0  0  0  0  0
  140.2450   80.2010  223.7930 C   0  0  0  0  0  0  0  0  0  0  0  0
  141.4760   80.8640  223.8410 C   0  0  0  0  0  0  0  0  0  0  0  0
  142.5800   80.3410  223.1590 C   0  0  0  0  0  0  0  0  0  0  0  0
  142.4530   79.1580  222.4230 C   0  0  0  0  0  0  0  0  0  0  0  0
  139.4040   71.4960  224.5990 N   0  0  0  0  0  0  0  0  0  0  0  0
  139.7350   70.2890  225.2990 C   0  0  0  0  0  0  0  0  0  0  0  0
  139.2570   69.0650  224.8080 C   0  0  0  0  0  0  0  0  0  0  0  0
  139.5730   67.8700  225.4600 C   0  0  0  0  0  0  0  0  0  0  0  0
  140.3550   67.8910  226.6190 C   0  0  0  0  0  0  0  0  0  0  0  0
  140.8150   69.1080  227.1320 C   0  0  0  0  0  0  0  0  0  0  0  0
  140.5060   70.3100  226.4810 C   0  0  0  0  0  0  0  0  0  0  0  0
  141.0890   71.9520  227.2770 Br  0  0  0  0  0  0  0  0  0  0  0  0
  138.8380   73.6210  223.0830 H   0  0  0  0  0  0  0  0  0  0  0  0
  141.3451   73.5994  221.5960 H   0  0  0  0  0  0  0  0  0  0  0  0
  140.0144   72.7929  220.6677 H   0  0  0  0  0  0  0  0  0  0  0  0
  140.2966   75.2440  220.1550 H   0  0  0  0  0  0  0  0  0  0  0  0
  138.6529   74.7683  220.7654 H   0  0  0  0  0  0  0  0  0  0  0  0
  142.0453   76.7042  221.5268 H   0  0  0  0  0  0  0  0  0  0  0  0
  140.7517   77.4816  220.5541 H   0  0  0  0  0  0  0  0  0  0  0  0
  139.1472   78.4963  223.0265 H   0  0  0  0  0  0  0  0  0  0  0  0
  139.3772   80.6137  224.3283 H   0  0  0  0  0  0  0  0  0  0  0  0
  141.5759   81.7969  224.4152 H   0  0  0  0  0  0  0  0  0  0  0  0
  143.5487   80.8604  223.2015 H   0  0  0  0  0  0  0  0  0  0  0  0
  143.3186   78.7577  221.8748 H   0  0  0  0  0  0  0  0  0  0  0  0
  138.5260   71.9960  224.8710 H   0  0  0  0  0  0  0  0  0  0  0  0
  138.6298   69.0457  223.9045 H   0  0  0  0  0  0  0  0  0  0  0  0
  139.2064   66.9126  225.0613 H   0  0  0  0  0  0  0  0  0  0  0  0
  140.6086   66.9493  227.1278 H   0  0  0  0  0  0  0  0  0  0  0  0
  141.4214   69.1218  228.0496 H   0  0  0  0  0  0  0  0  0  0  0  0
  1  2  2  0
  2  3  1  0
  3  4  1  0
  4  5  1  0
  5  6  1  0
  6  7  1  0
  7  8  1  0
  8  9  2  0
  9 10  1  0
 10 11  2  0
 11 12  1  0
 12 13  2  0
  2 14  1  0
 14 15  1  0
 15 16  2  0
 16 17  1  0
 17 18  2  0
 18 19  1  0
 19 20  2  0
 20 21  1  0
 13  8  1  0
 20 15  1  0
  3 22  1  0
  4 23  1  0
  4 24  1  0
  5 25  1  0
  5 26  1  0
  7 27  1  0
  7 28  1  0
  9 29  1  0
 10 30  1  0
 11 31  1  0
 12 32  1  0
 13 33  1  0
 14 34  1  0
 16 35  1  0
 17 36  1  0
 18 37  1  0
 19 38  1  0
M  END
>  <UniqueID>  (69) 
11

>  <SMILES>  (69) 
O=C(NCCSCc1ccccc1)Nc1ccccc1Br

>  <Energy>  (69) 
36.534525639897105

>  <Genealogy>  (69) 
O=C(NCCSCc1ccccc1)Nc1ccccc1Br (3D coordinates assigned)
O=C(NCCSCc1ccccc1)Nc1ccccc1Br (optimized conformer: 36.534525639897105 kcal/mol)

>  <smiles>  (69) 
O=C(NCCSCc1ccccc1)Nc1ccccc1Br

>  <score_type>  (69) 
oracle

>  <origin>  (69) 
autodockgpu

>  <m_score__min__energy>  (69) 
-8.1099999999999994

>  <m_primary>  (69) 
energy

>  <meeko>  (69) 
{"free_energy": -8.01, "intermolecular_energy": -9.8, "internal_energy": -0.73, "cluster_size": 18, "cluster_id": 1, "rank_in_cluster": 7}

>  <energy>  (69) 
-7.97

>  <cluster_rmsd>  (69) 
0.22

>  <rmsd>  (69) 
272.36

>  <cluster>  (69) 
1

$$$$
NQJOPHUHKLKLHW-VEWCPZSHNA-N
     RDKit          3D

 38 39  0  0  0  0  0  0  0  0999 V2000
  141.0310   71.1550  222.9350 O   0  0  0  0  0  0  0  0  0  0  0  0
  140.0980   71.8710  223.3980 C   0  0  0  0  0  0  0  0  0  0  0  0
  139.7160   73.0790  222.7260 N   0  0  0  0  0  0  0  0  0  0  0  0
  140.3850   73.5540  221.5150 C   0  0  0  0  0  0  0  0  0  0  0  0
  139.5790   74.6600  220.8250 C   0  0  0  0  0  0  0  0  0  0  0  0
  140.4290   76.2840  220.8970 S   0  0  0  0  0  0  0  0  0  0  0  0
  139.5350   76.9650  222.3410 C   0  0  0  0  0  0  0  0  0  0  0  0
  140.1970   78.2370  222.7800 C   0  0  0  0  0  0  0  0  0  0  0  0
  141.5870   78.2770  222.9870 C   0  0  0  0  0  0  0  0  0  0  0  0
  142.2000   79.4540  223.4290 C   0  0  0  0  0  0  0  0  0  0  0  0
  141.4300   80.5970  223.6670 C   0  0  0  0  0  0  0  0  0  0  0  0
  140.0460   80.5630  223.4670 C   0  0  0  0  0  0  0  0  0  0  0  0
  139.4280   79.3850  223.0350 C   0  0  0  0  0  0  0  0  0  0  0  0
  139.3990   71.4660  224.5830 N   0  0  0  0  0  0  0  0  0  0  0  0
  139.7080   70.2510  225.2780 C   0  0  0  0  0  0  0  0  0  0  0  0
  139.2250   69.0350  224.7710 C   0  0  0  0  0  0  0  0  0  0  0  0
  139.5190   67.8330  225.4190 C   0  0  0  0  0  0  0  0  0  0  0  0
  140.2840   67.8370  226.5890 C   0  0  0  0  0  0  0  0  0  0  0  0
  140.7480   69.0450  227.1180 C   0  0  0  0  0  0  0  0  0  0  0  0
  140.4610   70.2550  226.4710 C   0  0  0  0  0  0  0  0  0  0  0  0
  141.0490   71.8850  227.2880 Br  0  0  0  0  0  0  0  0  0  0  0  0
  138.8870   73.6110  223.0750 H   0  0  0  0  0  0  0  0  0  0  0  0
  141.3754   73.9491  221.7853 H   0  0  0  0  0  0  0  0  0  0  0  0
  140.4777   72.7083  220.8177 H   0  0  0  0  0  0  0  0  0  0  0  0
  139.4300   74.3845  219.7705 H   0  0  0  0  0  0  0  0  0  0  0  0
  138.6188   74.7576  221.3526 H   0  0  0  0  0  0  0  0  0  0  0  0
  138.4910   77.1713  222.0628 H   0  0  0  0  0  0  0  0  0  0  0  0
  139.5560   76.2359  223.1644 H   0  0  0  0  0  0  0  0  0  0  0  0
  142.1948   77.3793  222.8007 H   0  0  0  0  0  0  0  0  0  0  0  0
  143.2879   79.4806  223.5894 H   0  0  0  0  0  0  0  0  0  0  0  0
  141.9130   81.5232  224.0117 H   0  0  0  0  0  0  0  0  0  0  0  0
  139.4426   81.4644  223.6498 H   0  0  0  0  0  0  0  0  0  0  0  0
  138.3374   79.3572  222.8946 H   0  0  0  0  0  0  0  0  0  0  0  0
  138.5040   71.9530  224.8190 H   0  0  0  0  0  0  0  0  0  0  0  0
  138.6114   69.0283  223.8581 H   0  0  0  0  0  0  0  0  0  0  0  0
  139.1482   66.8823  225.0082 H   0  0  0  0  0  0  0  0  0  0  0  0
  140.5211   66.8889  227.0938 H   0  0  0  0  0  0  0  0  0  0  0  0
  141.3402   69.0460  228.0450 H   0  0  0  0  0  0  0  0  0  0  0  0
  1  2  2  0
  2  3  1  0
  3  4  1  0
  4  5  1  0
  5  6  1  0
  6  7  1  0
  7  8  1  0
  8  9  2  0
  9 10  1  0
 10 11  2  0
 11 12  1  0
 12 13  2  0
  2 14  1  0
 14 15  1  0
 15 16  2  0
 16 17  1  0
 17 18  2  0
 18 19  1  0
 19 20  2  0
 20 21  1  0
 13  8  1  0
 20 15  1  0
  3 22  1  0
  4 23  1  0
  4 24  1  0
  5 25  1  0
  5 26  1  0
  7 27  1  0
  7 28  1  0
  9 29  1  0
 10 30  1  0
 11 31  1  0
 12 32  1  0
 13 33  1  0
 14 34  1  0
 16 35  1  0
 17 36  1  0
 18 37  1  0
 19 38  1  0
M  END
>  <UniqueID>  (70) 
11

>  <SMILES>  (70) 
O=C(NCCSCc1ccccc1)Nc1ccccc1Br

>  <Energy>  (70) 
36.534525639897105

>  <Genealogy>  (70) 
O=C(NCCSCc1ccccc1)Nc1ccccc1Br (3D coordinates assigned)
O=C(NCCSCc1ccccc1)Nc1ccccc1Br (optimized conformer: 36.534525639897105 kcal/mol)

>  <smiles>  (70) 
O=C(NCCSCc1ccccc1)Nc1ccccc1Br

>  <score_type>  (70) 
oracle

>  <origin>  (70) 
autodockgpu

>  <m_score__min__energy>  (70) 
-8.1099999999999994

>  <m_primary>  (70) 
energy

>  <meeko>  (70) 
{"free_energy": -7.7, "intermolecular_energy": -9.49, "internal_energy": -0.62, "cluster_size": 18, "cluster_id": 1, "rank_in_cluster": 17}

>  <energy>  (70) 
-7.96

>  <cluster_rmsd>  (70) 
0.86

>  <rmsd>  (70) 
272.31

>  <cluster>  (70) 
1

$$$$
NQJOPHUHKLKLHW-VEWCPZSHNA-N
     RDKit          3D

 38 39  0  0  0  0  0  0  0  0999 V2000
  141.0440   71.1430  222.8440 O   0  0  0  0  0  0  0  0  0  0  0  0
  140.1420   71.8930  223.3140 C   0  0  0  0  0  0  0  0  0  0  0  0
  139.7890   73.1060  222.6370 N   0  0  0  0  0  0  0  0  0  0  0  0
  140.4560   73.5500  221.4120 C   0  0  0  0  0  0  0  0  0  0  0  0
  141.0180   74.9680  221.5600 C   0  0  0  0  0  0  0  0  0  0  0  0
  139.6990   76.2410  221.5460 S   0  0  0  0  0  0  0  0  0  0  0  0
  140.6450   77.5660  220.7100 C   0  0  0  0  0  0  0  0  0  0  0  0
  141.2410   78.4760  221.7410 C   0  0  0  0  0  0  0  0  0  0  0  0
  141.8320   79.6920  221.3560 C   0  0  0  0  0  0  0  0  0  0  0  0
  142.4180   80.5260  222.3140 C   0  0  0  0  0  0  0  0  0  0  0  0
  142.4200   80.1500  223.6620 C   0  0  0  0  0  0  0  0  0  0  0  0
  141.8390   78.9390  224.0510 C   0  0  0  0  0  0  0  0  0  0  0  0
  141.2590   78.0990  223.0950 C   0  0  0  0  0  0  0  0  0  0  0  0
  139.4470   71.5210  224.5120 N   0  0  0  0  0  0  0  0  0  0  0  0
  139.7270   70.3020  225.2140 C   0  0  0  0  0  0  0  0  0  0  0  0
  139.2320   69.0930  224.7010 C   0  0  0  0  0  0  0  0  0  0  0  0
  139.4980   67.8870  225.3550 C   0  0  0  0  0  0  0  0  0  0  0  0
  140.2450   67.8820  226.5360 C   0  0  0  0  0  0  0  0  0  0  0  0
  140.7200   69.0830  227.0700 C   0  0  0  0  0  0  0  0  0  0  0  0
  140.4620   70.2970  226.4180 C   0  0  0  0  0  0  0  0  0  0  0  0
  141.0620   71.9180  227.2410 Br  0  0  0  0  0  0  0  0  0  0  0  0
  138.9830   73.6690  222.9930 H   0  0  0  0  0  0  0  0  0  0  0  0
  141.2821   72.8601  221.1848 H   0  0  0  0  0  0  0  0  0  0  0  0
  139.7153   73.5558  220.5988 H   0  0  0  0  0  0  0  0  0  0  0  0
  141.5646   75.0348  222.5123 H   0  0  0  0  0  0  0  0  0  0  0  0
  141.6810   75.1594  220.7034 H   0  0  0  0  0  0  0  0  0  0  0  0
  141.4484   77.1188  220.1063 H   0  0  0  0  0  0  0  0  0  0  0  0
  139.9735   78.1410  220.0554 H   0  0  0  0  0  0  0  0  0  0  0  0
  141.8336   79.9890  220.2968 H   0  0  0  0  0  0  0  0  0  0  0  0
  142.8773   81.4775  222.0078 H   0  0  0  0  0  0  0  0  0  0  0  0
  142.8786   80.8071  224.4156 H   0  0  0  0  0  0  0  0  0  0  0  0
  141.8382   78.6464  225.1114 H   0  0  0  0  0  0  0  0  0  0  0  0
  140.8157   77.1407  223.4035 H   0  0  0  0  0  0  0  0  0  0  0  0
  138.5720   72.0390  224.7570 H   0  0  0  0  0  0  0  0  0  0  0  0
  138.6315   69.0948  223.7794 H   0  0  0  0  0  0  0  0  0  0  0  0
  139.1192   66.9413  224.9400 H   0  0  0  0  0  0  0  0  0  0  0  0
  140.4595   66.9313  227.0461 H   0  0  0  0  0  0  0  0  0  0  0  0
  141.2986   69.0757  228.0055 H   0  0  0  0  0  0  0  0  0  0  0  0
  1  2  2  0
  2  3  1  0
  3  4  1  0
  4  5  1  0
  5  6  1  0
  6  7  1  0
  7  8  1  0
  8  9  2  0
  9 10  1  0
 10 11  2  0
 11 12  1  0
 12 13  2  0
  2 14  1  0
 14 15  1  0
 15 16  2  0
 16 17  1  0
 17 18  2  0
 18 19  1  0
 19 20  2  0
 20 21  1  0
 13  8  1  0
 20 15  1  0
  3 22  1  0
  4 23  1  0
  4 24  1  0
  5 25  1  0
  5 26  1  0
  7 27  1  0
  7 28  1  0
  9 29  1  0
 10 30  1  0
 11 31  1  0
 12 32  1  0
 13 33  1  0
 14 34  1  0
 16 35  1  0
 17 36  1  0
 18 37  1  0
 19 38  1  0
M  END
>  <UniqueID>  (71) 
11

>  <SMILES>  (71) 
O=C(NCCSCc1ccccc1)Nc1ccccc1Br

>  <Energy>  (71) 
36.534525639897105

>  <Genealogy>  (71) 
O=C(NCCSCc1ccccc1)Nc1ccccc1Br (3D coordinates assigned)
O=C(NCCSCc1ccccc1)Nc1ccccc1Br (optimized conformer: 36.534525639897105 kcal/mol)

>  <smiles>  (71) 
O=C(NCCSCc1ccccc1)Nc1ccccc1Br

>  <score_type>  (71) 
oracle

>  <origin>  (71) 
autodockgpu

>  <m_score__min__energy>  (71) 
-8.1099999999999994

>  <m_primary>  (71) 
energy

>  <meeko>  (71) 
{"free_energy": -7.97, "intermolecular_energy": -9.76, "internal_energy": -0.73, "cluster_size": 18, "cluster_id": 1, "rank_in_cluster": 8}

>  <energy>  (71) 
-7.95

>  <cluster_rmsd>  (71) 
0.63

>  <rmsd>  (71) 
272.27

>  <cluster>  (71) 
1

$$$$
NQJOPHUHKLKLHW-VEWCPZSHNA-N
     RDKit          3D

 38 39  0  0  0  0  0  0  0  0999 V2000
  140.7240   70.9070  222.8030 O   0  0  0  0  0  0  0  0  0  0  0  0
  139.9680   71.7610  223.3460 C   0  0  0  0  0  0  0  0  0  0  0  0
  139.6620   72.9870  222.6680 N   0  0  0  0  0  0  0  0  0  0  0  0
  140.2150   73.3230  221.3560 C   0  0  0  0  0  0  0  0  0  0  0  0
  139.7210   74.6900  220.8710 C   0  0  0  0  0  0  0  0  0  0  0  0
  139.9400   75.9960  222.1390 S   0  0  0  0  0  0  0  0  0  0  0  0
  140.9230   77.1600  221.1250 C   0  0  0  0  0  0  0  0  0  0  0  0
  141.4400   78.2640  221.9980 C   0  0  0  0  0  0  0  0  0  0  0  0
  141.4410   78.1200  223.3960 C   0  0  0  0  0  0  0  0  0  0  0  0
  141.8920   79.1630  224.2110 C   0  0  0  0  0  0  0  0  0  0  0  0
  142.3430   80.3560  223.6370 C   0  0  0  0  0  0  0  0  0  0  0  0
  142.3410   80.5080  222.2460 C   0  0  0  0  0  0  0  0  0  0  0  0
  141.8820   79.4700  221.4280 C   0  0  0  0  0  0  0  0  0  0  0  0
  139.3910   71.4970  224.6320 N   0  0  0  0  0  0  0  0  0  0  0  0
  139.6280   70.2750  225.3430 C   0  0  0  0  0  0  0  0  0  0  0  0
  139.0940   69.0800  224.8380 C   0  0  0  0  0  0  0  0  0  0  0  0
  139.3180   67.8710  225.5010 C   0  0  0  0  0  0  0  0  0  0  0  0
  140.0610   67.8490  226.6850 C   0  0  0  0  0  0  0  0  0  0  0  0
  140.5760   69.0370  227.2110 C   0  0  0  0  0  0  0  0  0  0  0  0
  140.3600   70.2540  226.5490 C   0  0  0  0  0  0  0  0  0  0  0  0
  141.0130   71.8610  227.3620 Br  0  0  0  0  0  0  0  0  0  0  0  0
  138.9670   73.6410  223.0940 H   0  0  0  0  0  0  0  0  0  0  0  0
  141.3126   73.3438  221.4255 H   0  0  0  0  0  0  0  0  0  0  0  0
  139.8823   72.5608  220.6361 H   0  0  0  0  0  0  0  0  0  0  0  0
  140.2867   74.9720  219.9708 H   0  0  0  0  0  0  0  0  0  0  0  0
  138.6453   74.6038  220.6576 H   0  0  0  0  0  0  0  0  0  0  0  0
  141.7693   76.6255  220.6689 H   0  0  0  0  0  0  0  0  0  0  0  0
  140.2890   77.5837  220.3322 H   0  0  0  0  0  0  0  0  0  0  0  0
  141.0857   77.1835  223.8507 H   0  0  0  0  0  0  0  0  0  0  0  0
  141.8921   79.0450  225.3047 H   0  0  0  0  0  0  0  0  0  0  0  0
  142.6993   81.1749  224.2791 H   0  0  0  0  0  0  0  0  0  0  0  0
  142.7007   81.4447  221.7952 H   0  0  0  0  0  0  0  0  0  0  0  0
  141.8671   79.5983  220.3356 H   0  0  0  0  0  0  0  0  0  0  0  0
  138.6100   72.1120  224.9580 H   0  0  0  0  0  0  0  0  0  0  0  0
  138.4957   69.0951  223.9150 H   0  0  0  0  0  0  0  0  0  0  0  0
  138.9094   66.9355  225.0911 H   0  0  0  0  0  0  0  0  0  0  0  0
  140.2405   66.8955  227.2032 H   0  0  0  0  0  0  0  0  0  0  0  0
  141.1527   69.0172  228.1475 H   0  0  0  0  0  0  0  0  0  0  0  0
  1  2  2  0
  2  3  1  0
  3  4  1  0
  4  5  1  0
  5  6  1  0
  6  7  1  0
  7  8  1  0
  8  9  2  0
  9 10  1  0
 10 11  2  0
 11 12  1  0
 12 13  2  0
  2 14  1  0
 14 15  1  0
 15 16  2  0
 16 17  1  0
 17 18  2  0
 18 19  1  0
 19 20  2  0
 20 21  1  0
 13  8  1  0
 20 15  1  0
  3 22  1  0
  4 23  1  0
  4 24  1  0
  5 25  1  0
  5 26  1  0
  7 27  1  0
  7 28  1  0
  9 29  1  0
 10 30  1  0
 11 31  1  0
 12 32  1  0
 13 33  1  0
 14 34  1  0
 16 35  1  0
 17 36  1  0
 18 37  1  0
 19 38  1  0
M  END
>  <UniqueID>  (72) 
11

>  <SMILES>  (72) 
O=C(NCCSCc1ccccc1)Nc1ccccc1Br

>  <Energy>  (72) 
36.534525639897105

>  <Genealogy>  (72) 
O=C(NCCSCc1ccccc1)Nc1ccccc1Br (3D coordinates assigned)
O=C(NCCSCc1ccccc1)Nc1ccccc1Br (optimized conformer: 36.534525639897105 kcal/mol)

>  <smiles>  (72) 
O=C(NCCSCc1ccccc1)Nc1ccccc1Br

>  <score_type>  (72) 
oracle

>  <origin>  (72) 
autodockgpu

>  <m_score__min__energy>  (72) 
-8.1099999999999994

>  <m_primary>  (72) 
energy

>  <meeko>  (72) 
{"free_energy": -7.95, "intermolecular_energy": -9.74, "internal_energy": -0.73, "cluster_size": 18, "cluster_id": 1, "rank_in_cluster": 12}

>  <energy>  (72) 
-7.95

>  <cluster_rmsd>  (72) 
0.24

>  <rmsd>  (72) 
272.29

>  <cluster>  (72) 
1

$$$$
NQJOPHUHKLKLHW-VEWCPZSHNA-N
     RDKit          3D

 38 39  0  0  0  0  0  0  0  0999 V2000
  141.0580   71.1570  222.9930 O   0  0  0  0  0  0  0  0  0  0  0  0
  140.0750   71.8300  223.4140 C   0  0  0  0  0  0  0  0  0  0  0  0
  139.6590   73.0100  222.7140 N   0  0  0  0  0  0  0  0  0  0  0  0
  140.3480   73.5070  221.5230 C   0  0  0  0  0  0  0  0  0  0  0  0
  139.8230   74.8840  221.1030 C   0  0  0  0  0  0  0  0  0  0  0  0
  141.1510   76.1480  221.0570 S   0  0  0  0  0  0  0  0  0  0  0  0
  140.7760   76.9570  222.6550 C   0  0  0  0  0  0  0  0  0  0  0  0
  141.4260   78.3070  222.6920 C   0  0  0  0  0  0  0  0  0  0  0  0
  141.8130   78.8740  223.9190 C   0  0  0  0  0  0  0  0  0  0  0  0
  142.3890   80.1480  223.9560 C   0  0  0  0  0  0  0  0  0  0  0  0
  142.5820   80.8640  222.7700 C   0  0  0  0  0  0  0  0  0  0  0  0
  142.1960   80.3080  221.5460 C   0  0  0  0  0  0  0  0  0  0  0  0
  141.6110   79.0380  221.5060 C   0  0  0  0  0  0  0  0  0  0  0  0
  139.3530   71.4020  224.5770 N   0  0  0  0  0  0  0  0  0  0  0  0
  139.6950   70.2100  225.2970 C   0  0  0  0  0  0  0  0  0  0  0  0
  139.2150   68.9750  224.8360 C   0  0  0  0  0  0  0  0  0  0  0  0
  139.5420   67.7950  225.5080 C   0  0  0  0  0  0  0  0  0  0  0  0
  140.3360   67.8410  226.6570 C   0  0  0  0  0  0  0  0  0  0  0  0
  140.7990   69.0690  227.1400 C   0  0  0  0  0  0  0  0  0  0  0  0
  140.4800   70.2570  226.4690 C   0  0  0  0  0  0  0  0  0  0  0  0
  141.0670   71.9160  227.2250 Br  0  0  0  0  0  0  0  0  0  0  0  0
  138.7920   73.5050  223.0260 H   0  0  0  0  0  0  0  0  0  0  0  0
  141.4237   73.5855  221.7392 H   0  0  0  0  0  0  0  0  0  0  0  0
  140.1642   72.8019  220.6989 H   0  0  0  0  0  0  0  0  0  0  0  0
  139.3769   74.8024  220.1008 H   0  0  0  0  0  0  0  0  0  0  0  0
  139.0791   75.2031  221.8478 H   0  0  0  0  0  0  0  0  0  0  0  0
  139.6872   77.0705  222.7627 H   0  0  0  0  0  0  0  0  0  0  0  0
  141.1619   76.3398  223.4797 H   0  0  0  0  0  0  0  0  0  0  0  0
  141.6622   78.3135  224.8534 H   0  0  0  0  0  0  0  0  0  0  0  0
  142.6904   80.5872  224.9184 H   0  0  0  0  0  0  0  0  0  0  0  0
  143.0376   81.8648  222.7999 H   0  0  0  0  0  0  0  0  0  0  0  0
  142.3527   80.8702  220.6136 H   0  0  0  0  0  0  0  0  0  0  0  0
  141.2948   78.6101  220.5432 H   0  0  0  0  0  0  0  0  0  0  0  0
  138.4270   71.8460  224.7740 H   0  0  0  0  0  0  0  0  0  0  0  0
  138.5776   68.9357  223.9404 H   0  0  0  0  0  0  0  0  0  0  0  0
  139.1742   66.8287  225.1325 H   0  0  0  0  0  0  0  0  0  0  0  0
  140.5971   66.9103  227.1821 H   0  0  0  0  0  0  0  0  0  0  0  0
  141.4159   69.1024  228.0501 H   0  0  0  0  0  0  0  0  0  0  0  0
  1  2  2  0
  2  3  1  0
  3  4  1  0
  4  5  1  0
  5  6  1  0
  6  7  1  0
  7  8  1  0
  8  9  2  0
  9 10  1  0
 10 11  2  0
 11 12  1  0
 12 13  2  0
  2 14  1  0
 14 15  1  0
 15 16  2  0
 16 17  1  0
 17 18  2  0
 18 19  1  0
 19 20  2  0
 20 21  1  0
 13  8  1  0
 20 15  1  0
  3 22  1  0
  4 23  1  0
  4 24  1  0
  5 25  1  0
  5 26  1  0
  7 27  1  0
  7 28  1  0
  9 29  1  0
 10 30  1  0
 11 31  1  0
 12 32  1  0
 13 33  1  0
 14 34  1  0
 16 35  1  0
 17 36  1  0
 18 37  1  0
 19 38  1  0
M  END
>  <UniqueID>  (73) 
11

>  <SMILES>  (73) 
O=C(NCCSCc1ccccc1)Nc1ccccc1Br

>  <Energy>  (73) 
36.534525639897105

>  <Genealogy>  (73) 
O=C(NCCSCc1ccccc1)Nc1ccccc1Br (3D coordinates assigned)
O=C(NCCSCc1ccccc1)Nc1ccccc1Br (optimized conformer: 36.534525639897105 kcal/mol)

>  <smiles>  (73) 
O=C(NCCSCc1ccccc1)Nc1ccccc1Br

>  <score_type>  (73) 
oracle

>  <origin>  (73) 
autodockgpu

>  <m_score__min__energy>  (73) 
-8.1099999999999994

>  <m_primary>  (73) 
energy

>  <meeko>  (73) 
{"free_energy": -8.07, "intermolecular_energy": -9.86, "internal_energy": -0.61, "cluster_size": 18, "cluster_id": 1, "rank_in_cluster": 4}

>  <energy>  (73) 
-7.93

>  <cluster_rmsd>  (73) 
0.85

>  <rmsd>  (73) 
272.3

>  <cluster>  (73) 
1

$$$$
NQJOPHUHKLKLHW-VEWCPZSHNA-N
     RDKit          3D

 38 39  0  0  0  0  0  0  0  0999 V2000
  141.1500   71.2010  223.1630 O   0  0  0  0  0  0  0  0  0  0  0  0
  140.0970   71.8370  223.4510 C   0  0  0  0  0  0  0  0  0  0  0  0
  139.7300   73.0000  222.6990 N   0  0  0  0  0  0  0  0  0  0  0  0
  140.5450   73.5220  221.6020 C   0  0  0  0  0  0  0  0  0  0  0  0
  139.9240   74.7820  220.9890 C   0  0  0  0  0  0  0  0  0  0  0  0
  140.9690   76.2660  221.2480 S   0  0  0  0  0  0  0  0  0  0  0  0
  139.8290   77.1810  222.3490 C   0  0  0  0  0  0  0  0  0  0  0  0
  140.4620   78.4790  222.7500 C   0  0  0  0  0  0  0  0  0  0  0  0
  141.8560   78.5690  222.9080 C   0  0  0  0  0  0  0  0  0  0  0  0
  142.4420   79.7720  223.3150 C   0  0  0  0  0  0  0  0  0  0  0  0
  141.6420   80.8910  223.5680 C   0  0  0  0  0  0  0  0  0  0  0  0
  140.2540   80.8070  223.4170 C   0  0  0  0  0  0  0  0  0  0  0  0
  139.6630   79.6030  223.0190 C   0  0  0  0  0  0  0  0  0  0  0  0
  139.2500   71.3820  224.5150 N   0  0  0  0  0  0  0  0  0  0  0  0
  139.5430   70.2040  225.2790 C   0  0  0  0  0  0  0  0  0  0  0  0
  138.9770   68.9820  224.8870 C   0  0  0  0  0  0  0  0  0  0  0  0
  139.2530   67.8140  225.6030 C   0  0  0  0  0  0  0  0  0  0  0  0
  140.0820   67.8620  226.7280 C   0  0  0  0  0  0  0  0  0  0  0  0
  140.6300   69.0800  227.1430 C   0  0  0  0  0  0  0  0  0  0  0  0
  140.3620   70.2550  226.4270 C   0  0  0  0  0  0  0  0  0  0  0  0
  141.0680   71.9070  227.0910 Br  0  0  0  0  0  0  0  0  0  0  0  0
  138.8130   73.4620  222.8960 H   0  0  0  0  0  0  0  0  0  0  0  0
  141.5459   73.7679  221.9864 H   0  0  0  0  0  0  0  0  0  0  0  0
  140.6036   72.7512  220.8194 H   0  0  0  0  0  0  0  0  0  0  0  0
  139.7955   74.6236  219.9081 H   0  0  0  0  0  0  0  0  0  0  0  0
  138.9584   74.9583  221.4856 H   0  0  0  0  0  0  0  0  0  0  0  0
  138.8866   77.3805  221.8180 H   0  0  0  0  0  0  0  0  0  0  0  0
  139.6219   76.5796  223.2464 H   0  0  0  0  0  0  0  0  0  0  0  0
  142.4879   77.6905  222.7109 H   0  0  0  0  0  0  0  0  0  0  0  0
  143.5333   79.8381  223.4363 H   0  0  0  0  0  0  0  0  0  0  0  0
  142.1044   81.8372  223.8857 H   0  0  0  0  0  0  0  0  0  0  0  0
  139.6261   81.6890  223.6115 H   0  0  0  0  0  0  0  0  0  0  0  0
  138.5698   79.5361  222.9164 H   0  0  0  0  0  0  0  0  0  0  0  0
  138.2910   71.7920  224.5920 H   0  0  0  0  0  0  0  0  0  0  0  0
  138.3124   68.9428  224.0114 H   0  0  0  0  0  0  0  0  0  0  0  0
  138.8178   66.8563  225.2814 H   0  0  0  0  0  0  0  0  0  0  0  0
  140.3034   66.9409  227.2871 H   0  0  0  0  0  0  0  0  0  0  0  0
  141.2736   69.1161  228.0344 H   0  0  0  0  0  0  0  0  0  0  0  0
  1  2  2  0
  2  3  1  0
  3  4  1  0
  4  5  1  0
  5  6  1  0
  6  7  1  0
  7  8  1  0
  8  9  2  0
  9 10  1  0
 10 11  2  0
 11 12  1  0
 12 13  2  0
  2 14  1  0
 14 15  1  0
 15 16  2  0
 16 17  1  0
 17 18  2  0
 18 19  1  0
 19 20  2  0
 20 21  1  0
 13  8  1  0
 20 15  1  0
  3 22  1  0
  4 23  1  0
  4 24  1  0
  5 25  1  0
  5 26  1  0
  7 27  1  0
  7 28  1  0
  9 29  1  0
 10 30  1  0
 11 31  1  0
 12 32  1  0
 13 33  1  0
 14 34  1  0
 16 35  1  0
 17 36  1  0
 18 37  1  0
 19 38  1  0
M  END
>  <UniqueID>  (74) 
11

>  <SMILES>  (74) 
O=C(NCCSCc1ccccc1)Nc1ccccc1Br

>  <Energy>  (74) 
36.534525639897105

>  <Genealogy>  (74) 
O=C(NCCSCc1ccccc1)Nc1ccccc1Br (3D coordinates assigned)
O=C(NCCSCc1ccccc1)Nc1ccccc1Br (optimized conformer: 36.534525639897105 kcal/mol)

>  <smiles>  (74) 
O=C(NCCSCc1ccccc1)Nc1ccccc1Br

>  <score_type>  (74) 
oracle

>  <origin>  (74) 
autodockgpu

>  <m_score__min__energy>  (74) 
-8.1099999999999994

>  <m_primary>  (74) 
energy

>  <meeko>  (74) 
{"free_energy": -7.82, "intermolecular_energy": -9.61, "internal_energy": -0.61, "cluster_size": 18, "cluster_id": 1, "rank_in_cluster": 14}

>  <energy>  (74) 
-7.82

>  <cluster_rmsd>  (74) 
0.91

>  <rmsd>  (74) 
272.29

>  <cluster>  (74) 
1

$$$$
NQJOPHUHKLKLHW-VEWCPZSHNA-N
     RDKit          3D

 38 39  0  0  0  0  0  0  0  0999 V2000
  138.9900   76.9160  222.3140 O   0  0  0  0  0  0  0  0  0  0  0  0
  140.0340   76.2340  222.1100 C   0  0  0  0  0  0  0  0  0  0  0  0
  139.9360   74.8260  221.8600 N   0  0  0  0  0  0  0  0  0  0  0  0
  138.6600   74.1110  221.8550 C   0  0  0  0  0  0  0  0  0  0  0  0
  138.8570   72.6070  222.0720 C   0  0  0  0  0  0  0  0  0  0  0  0
  140.3080   72.2440  223.1320 S   0  0  0  0  0  0  0  0  0  0  0  0
  139.6080   70.8100  224.0260 C   0  0  0  0  0  0  0  0  0  0  0  0
  140.0630   70.8440  225.4540 C   0  0  0  0  0  0  0  0  0  0  0  0
  139.6380   69.8540  226.3580 C   0  0  0  0  0  0  0  0  0  0  0  0
  140.0370   69.9060  227.6970 C   0  0  0  0  0  0  0  0  0  0  0  0
  140.8600   70.9450  228.1440 C   0  0  0  0  0  0  0  0  0  0  0  0
  141.2830   71.9360  227.2510 C   0  0  0  0  0  0  0  0  0  0  0  0
  140.8790   71.8930  225.9130 C   0  0  0  0  0  0  0  0  0  0  0  0
  141.3190   76.8690  222.1020 N   0  0  0  0  0  0  0  0  0  0  0  0
  141.4800   78.2790  222.3070 C   0  0  0  0  0  0  0  0  0  0  0  0
  141.4800   78.7800  223.6180 C   0  0  0  0  0  0  0  0  0  0  0  0
  141.6470   80.1470  223.8510 C   0  0  0  0  0  0  0  0  0  0  0  0
  141.7980   81.0280  222.7760 C   0  0  0  0  0  0  0  0  0  0  0  0
  141.7740   80.5430  221.4650 C   0  0  0  0  0  0  0  0  0  0  0  0
  141.6110   79.1720  221.2220 C   0  0  0  0  0  0  0  0  0  0  0  0
  141.4980   78.5760  219.4050 Br  0  0  0  0  0  0  0  0  0  0  0  0
  140.8010   74.2950  221.6080 H   0  0  0  0  0  0  0  0  0  0  0  0
  138.0249   74.5080  222.6606 H   0  0  0  0  0  0  0  0  0  0  0  0
  138.1861   74.2584  220.8733 H   0  0  0  0  0  0  0  0  0  0  0  0
  137.9561   72.1975  222.5524 H   0  0  0  0  0  0  0  0  0  0  0  0
  139.0325   72.1444  221.0896 H   0  0  0  0  0  0  0  0  0  0  0  0
  138.5095   70.8552  223.9895 H   0  0  0  0  0  0  0  0  0  0  0  0
  139.9513   69.8783  223.5527 H   0  0  0  0  0  0  0  0  0  0  0  0
  138.9896   69.0362  226.0105 H   0  0  0  0  0  0  0  0  0  0  0  0
  139.7032   69.1286  228.4001 H   0  0  0  0  0  0  0  0  0  0  0  0
  141.1747   70.9831  229.1973 H   0  0  0  0  0  0  0  0  0  0  0  0
  141.9343   72.7500  227.6022 H   0  0  0  0  0  0  0  0  0  0  0  0
  141.2005   72.6822  225.2175 H   0  0  0  0  0  0  0  0  0  0  0  0
  142.1330   76.3320  221.7220 H   0  0  0  0  0  0  0  0  0  0  0  0
  141.3478   78.0925  224.4664 H   0  0  0  0  0  0  0  0  0  0  0  0
  141.6597   80.5309  224.8817 H   0  0  0  0  0  0  0  0  0  0  0  0
  141.9358   82.1034  222.9618 H   0  0  0  0  0  0  0  0  0  0  0  0
  141.8834   81.2398  220.6209 H   0  0  0  0  0  0  0  0  0  0  0  0
  1  2  2  0
  2  3  1  0
  3  4  1  0
  4  5  1  0
  5  6  1  0
  6  7  1  0
  7  8  1  0
  8  9  2  0
  9 10  1  0
 10 11  2  0
 11 12  1  0
 12 13  2  0
  2 14  1  0
 14 15  1  0
 15 16  2  0
 16 17  1  0
 17 18  2  0
 18 19  1  0
 19 20  2  0
 20 21  1  0
 13  8  1  0
 20 15  1  0
  3 22  1  0
  4 23  1  0
  4 24  1  0
  5 25  1  0
  5 26  1  0
  7 27  1  0
  7 28  1  0
  9 29  1  0
 10 30  1  0
 11 31  1  0
 12 32  1  0
 13 33  1  0
 14 34  1  0
 16 35  1  0
 17 36  1  0
 18 37  1  0
 19 38  1  0
M  END
>  <UniqueID>  (75) 
11

>  <SMILES>  (75) 
O=C(NCCSCc1ccccc1)Nc1ccccc1Br

>  <Energy>  (75) 
36.534525639897105

>  <Genealogy>  (75) 
O=C(NCCSCc1ccccc1)Nc1ccccc1Br (3D coordinates assigned)
O=C(NCCSCc1ccccc1)Nc1ccccc1Br (optimized conformer: 36.534525639897105 kcal/mol)

>  <smiles>  (75) 
O=C(NCCSCc1ccccc1)Nc1ccccc1Br

>  <score_type>  (75) 
oracle

>  <origin>  (75) 
autodockgpu

>  <m_score__min__energy>  (75) 
-8.1099999999999994

>  <m_primary>  (75) 
energy

>  <meeko>  (75) 
{"free_energy": -7.39, "intermolecular_energy": -9.18, "internal_energy": -0.8, "cluster_size": 1, "cluster_id": 2, "rank_in_cluster": 1}

>  <energy>  (75) 
-7.76

>  <cluster_rmsd>  (75) 
0.64

>  <rmsd>  (75) 
272.29

>  <cluster>  (75) 
1

$$$$
NQJOPHUHKLKLHW-VEWCPZSHNA-N
     RDKit          3D

 38 39  0  0  0  0  0  0  0  0999 V2000
  141.1530   71.1600  223.1750 O   0  0  0  0  0  0  0  0  0  0  0  0
  140.1400   71.8450  223.4920 C   0  0  0  0  0  0  0  0  0  0  0  0
  139.7920   73.0100  222.7320 N   0  0  0  0  0  0  0  0  0  0  0  0
  140.5860   73.4790  221.5970 C   0  0  0  0  0  0  0  0  0  0  0  0
  140.0490   74.8030  221.0430 C   0  0  0  0  0  0  0  0  0  0  0  0
  139.9560   76.1060  222.3290 S   0  0  0  0  0  0  0  0  0  0  0  0
  140.3690   77.5340  221.2630 C   0  0  0  0  0  0  0  0  0  0  0  0
  141.1490   78.5380  222.0580 C   0  0  0  0  0  0  0  0  0  0  0  0
  141.8110   79.5950  221.4090 C   0  0  0  0  0  0  0  0  0  0  0  0
  142.5660   80.5120  222.1480 C   0  0  0  0  0  0  0  0  0  0  0  0
  142.6660   80.3790  223.5370 C   0  0  0  0  0  0  0  0  0  0  0  0
  142.0150   79.3260  224.1880 C   0  0  0  0  0  0  0  0  0  0  0  0
  141.2660   78.4020  223.4510 C   0  0  0  0  0  0  0  0  0  0  0  0
  139.3160   71.4440  224.5950 N   0  0  0  0  0  0  0  0  0  0  0  0
  139.5880   70.2680  225.3690 C   0  0  0  0  0  0  0  0  0  0  0  0
  139.0200   69.0480  224.9730 C   0  0  0  0  0  0  0  0  0  0  0  0
  139.2760   67.8810  225.6980 C   0  0  0  0  0  0  0  0  0  0  0  0
  140.0870   67.9290  226.8360 C   0  0  0  0  0  0  0  0  0  0  0  0
  140.6370   69.1440  227.2540 C   0  0  0  0  0  0  0  0  0  0  0  0
  140.3890   70.3180  226.5290 C   0  0  0  0  0  0  0  0  0  0  0  0
  141.0950   71.9680  227.1980 Br  0  0  0  0  0  0  0  0  0  0  0  0
  138.9040   73.5130  222.9560 H   0  0  0  0  0  0  0  0  0  0  0  0
  141.6260   73.6244  221.9244 H   0  0  0  0  0  0  0  0  0  0  0  0
  140.5277   72.7231  220.8000 H   0  0  0  0  0  0  0  0  0  0  0  0
  140.7157   75.1466  220.2384 H   0  0  0  0  0  0  0  0  0  0  0  0
  139.0298   74.6239  220.6699 H   0  0  0  0  0  0  0  0  0  0  0  0
  140.9727   77.1925  220.4092 H   0  0  0  0  0  0  0  0  0  0  0  0
  139.4424   77.9972  220.8929 H   0  0  0  0  0  0  0  0  0  0  0  0
  141.7351   79.7013  220.3168 H   0  0  0  0  0  0  0  0  0  0  0  0
  143.0814   81.3383  221.6365 H   0  0  0  0  0  0  0  0  0  0  0  0
  143.2569   81.1028  224.1175 H   0  0  0  0  0  0  0  0  0  0  0  0
  142.0919   79.2241  225.2806 H   0  0  0  0  0  0  0  0  0  0  0  0
  140.7673   77.5666  223.9642 H   0  0  0  0  0  0  0  0  0  0  0  0
  138.3780   71.8950  224.7000 H   0  0  0  0  0  0  0  0  0  0  0  0
  138.3694   69.0097  224.0868 H   0  0  0  0  0  0  0  0  0  0  0  0
  138.8396   66.9249  225.3734 H   0  0  0  0  0  0  0  0  0  0  0  0
  140.2925   67.0091  227.4031 H   0  0  0  0  0  0  0  0  0  0  0  0
  141.2668   69.1792  228.1552 H   0  0  0  0  0  0  0  0  0  0  0  0
  1  2  2  0
  2  3  1  0
  3  4  1  0
  4  5  1  0
  5  6  1  0
  6  7  1  0
  7  8  1  0
  8  9  2  0
  9 10  1  0
 10 11  2  0
 11 12  1  0
 12 13  2  0
  2 14  1  0
 14 15  1  0
 15 16  2  0
 16 17  1  0
 17 18  2  0
 18 19  1  0
 19 20  2  0
 20 21  1  0
 13  8  1  0
 20 15  1  0
  3 22  1  0
  4 23  1  0
  4 24  1  0
  5 25  1  0
  5 26  1  0
  7 27  1  0
  7 28  1  0
  9 29  1  0
 10 30  1  0
 11 31  1  0
 12 32  1  0
 13 33  1  0
 14 34  1  0
 16 35  1  0
 17 36  1  0
 18 37  1  0
 19 38  1  0
M  END
>  <UniqueID>  (76) 
11

>  <SMILES>  (76) 
O=C(NCCSCc1ccccc1)Nc1ccccc1Br

>  <Energy>  (76) 
36.534525639897105

>  <Genealogy>  (76) 
O=C(NCCSCc1ccccc1)Nc1ccccc1Br (3D coordinates assigned)
O=C(NCCSCc1ccccc1)Nc1ccccc1Br (optimized conformer: 36.534525639897105 kcal/mol)

>  <smiles>  (76) 
O=C(NCCSCc1ccccc1)Nc1ccccc1Br

>  <score_type>  (76) 
oracle

>  <origin>  (76) 
autodockgpu

>  <m_score__min__energy>  (76) 
-8.1099999999999994

>  <m_primary>  (76) 
energy

>  <meeko>  (76) 
{"free_energy": -7.97, "intermolecular_energy": -9.76, "internal_energy": -0.74, "cluster_size": 18, "cluster_id": 1, "rank_in_cluster": 9}

>  <energy>  (76) 
-7.75

>  <cluster_rmsd>  (76) 
0.93

>  <rmsd>  (76) 
272.23

>  <cluster>  (76) 
1

$$$$
NQJOPHUHKLKLHW-VEWCPZSHNA-N
     RDKit          3D

 38 39  0  0  0  0  0  0  0  0999 V2000
  140.8640   71.1370  222.8260 O   0  0  0  0  0  0  0  0  0  0  0  0
  139.9780   71.8770  223.3400 C   0  0  0  0  0  0  0  0  0  0  0  0
  139.5680   73.0780  222.6730 N   0  0  0  0  0  0  0  0  0  0  0  0
  140.1560   73.5200  221.4090 C   0  0  0  0  0  0  0  0  0  0  0  0
  141.0100   74.7790  221.5950 C   0  0  0  0  0  0  0  0  0  0  0  0
  140.0570   76.1580  222.3390 S   0  0  0  0  0  0  0  0  0  0  0  0
  140.6500   77.4900  221.2330 C   0  0  0  0  0  0  0  0  0  0  0  0
  141.2930   78.5670  222.0550 C   0  0  0  0  0  0  0  0  0  0  0  0
  141.8340   79.7060  221.4310 C   0  0  0  0  0  0  0  0  0  0  0  0
  142.4630   80.6940  222.1950 C   0  0  0  0  0  0  0  0  0  0  0  0
  142.5580   80.5530  223.5830 C   0  0  0  0  0  0  0  0  0  0  0  0
  142.0250   79.4210  224.2090 C   0  0  0  0  0  0  0  0  0  0  0  0
  141.4030   78.4260  223.4480 C   0  0  0  0  0  0  0  0  0  0  0  0
  139.3590   71.5050  224.5790 N   0  0  0  0  0  0  0  0  0  0  0  0
  139.6970   70.2980  225.2750 C   0  0  0  0  0  0  0  0  0  0  0  0
  139.2100   69.0750  224.7900 C   0  0  0  0  0  0  0  0  0  0  0  0
  139.5330   67.8800  225.4380 C   0  0  0  0  0  0  0  0  0  0  0  0
  140.3300   67.9000  226.5860 C   0  0  0  0  0  0  0  0  0  0  0  0
  140.7990   69.1150  227.0920 C   0  0  0  0  0  0  0  0  0  0  0  0
  140.4840   70.3180  226.4460 C   0  0  0  0  0  0  0  0  0  0  0  0
  141.0800   71.9590  227.2330 Br  0  0  0  0  0  0  0  0  0  0  0  0
  138.7740   73.6310  223.0690 H   0  0  0  0  0  0  0  0  0  0  0  0
  140.7895   72.7146  221.0088 H   0  0  0  0  0  0  0  0  0  0  0  0
  139.3380   73.7582  220.7132 H   0  0  0  0  0  0  0  0  0  0  0  0
  141.8575   74.5382  222.2535 H   0  0  0  0  0  0  0  0  0  0  0  0
  141.3545   75.1034  220.6020 H   0  0  0  0  0  0  0  0  0  0  0  0
  141.3851   77.0797  220.5250 H   0  0  0  0  0  0  0  0  0  0  0  0
  139.8009   77.9103  220.6741 H   0  0  0  0  0  0  0  0  0  0  0  0
  141.7620   79.8197  220.3393 H   0  0  0  0  0  0  0  0  0  0  0  0
  142.8837   81.5835  221.7034 H   0  0  0  0  0  0  0  0  0  0  0  0
  143.0517   81.3320  224.1825 H   0  0  0  0  0  0  0  0  0  0  0  0
  142.0952   79.3134  225.3015 H   0  0  0  0  0  0  0  0  0  0  0  0
  140.9987   77.5302  223.9420 H   0  0  0  0  0  0  0  0  0  0  0  0
  138.4910   72.0120  224.8690 H   0  0  0  0  0  0  0  0  0  0  0  0
  138.5707   69.0567  223.8951 H   0  0  0  0  0  0  0  0  0  0  0  0
  139.1598   66.9230  225.0445 H   0  0  0  0  0  0  0  0  0  0  0  0
  140.5884   66.9580  227.0918 H   0  0  0  0  0  0  0  0  0  0  0  0
  141.4180   69.1273  228.0012 H   0  0  0  0  0  0  0  0  0  0  0  0
  1  2  2  0
  2  3  1  0
  3  4  1  0
  4  5  1  0
  5  6  1  0
  6  7  1  0
  7  8  1  0
  8  9  2  0
  9 10  1  0
 10 11  2  0
 11 12  1  0
 12 13  2  0
  2 14  1  0
 14 15  1  0
 15 16  2  0
 16 17  1  0
 17 18  2  0
 18 19  1  0
 19 20  2  0
 20 21  1  0
 13  8  1  0
 20 15  1  0
  3 22  1  0
  4 23  1  0
  4 24  1  0
  5 25  1  0
  5 26  1  0
  7 27  1  0
  7 28  1  0
  9 29  1  0
 10 30  1  0
 11 31  1  0
 12 32  1  0
 13 33  1  0
 14 34  1  0
 16 35  1  0
 17 36  1  0
 18 37  1  0
 19 38  1  0
M  END
>  <UniqueID>  (77) 
11

>  <SMILES>  (77) 
O=C(NCCSCc1ccccc1)Nc1ccccc1Br

>  <Energy>  (77) 
36.534525639897105

>  <Genealogy>  (77) 
O=C(NCCSCc1ccccc1)Nc1ccccc1Br (3D coordinates assigned)
O=C(NCCSCc1ccccc1)Nc1ccccc1Br (optimized conformer: 36.534525639897105 kcal/mol)

>  <smiles>  (77) 
O=C(NCCSCc1ccccc1)Nc1ccccc1Br

>  <score_type>  (77) 
oracle

>  <origin>  (77) 
autodockgpu

>  <m_score__min__energy>  (77) 
-8.1099999999999994

>  <m_primary>  (77) 
energy

>  <meeko>  (77) 
{"free_energy": -8.1, "intermolecular_energy": -9.89, "internal_energy": -0.75, "cluster_size": 18, "cluster_id": 1, "rank_in_cluster": 2}

>  <energy>  (77) 
-7.7

>  <cluster_rmsd>  (77) 
0.96

>  <rmsd>  (77) 
272.24

>  <cluster>  (77) 
1

$$$$
NQJOPHUHKLKLHW-VEWCPZSHNA-N
     RDKit          3D

 38 39  0  0  0  0  0  0  0  0999 V2000
  140.7470   71.0910  222.7650 O   0  0  0  0  0  0  0  0  0  0  0  0
  139.8740   71.8270  223.3050 C   0  0  0  0  0  0  0  0  0  0  0  0
  139.4380   73.0260  222.6510 N   0  0  0  0  0  0  0  0  0  0  0  0
  139.9850   73.4710  221.3700 C   0  0  0  0  0  0  0  0  0  0  0  0
  141.2580   74.3020  221.5600 C   0  0  0  0  0  0  0  0  0  0  0  0
  141.1050   75.9810  220.8400 S   0  0  0  0  0  0  0  0  0  0  0  0
  140.5230   76.8420  222.3460 C   0  0  0  0  0  0  0  0  0  0  0  0
  141.2430   78.1510  222.4780 C   0  0  0  0  0  0  0  0  0  0  0  0
  141.5970   78.6390  223.7480 C   0  0  0  0  0  0  0  0  0  0  0  0
  142.2380   79.8750  223.8740 C   0  0  0  0  0  0  0  0  0  0  0  0
  142.5290   80.6320  222.7340 C   0  0  0  0  0  0  0  0  0  0  0  0
  142.1750   80.1550  221.4670 C   0  0  0  0  0  0  0  0  0  0  0  0
  141.5250   78.9220  221.3390 C   0  0  0  0  0  0  0  0  0  0  0  0
  139.2950   71.4520  224.5620 N   0  0  0  0  0  0  0  0  0  0  0  0
  139.6600   70.2460  225.2470 C   0  0  0  0  0  0  0  0  0  0  0  0
  139.1790   69.0190  224.7670 C   0  0  0  0  0  0  0  0  0  0  0  0
  139.5280   67.8260  225.4050 C   0  0  0  0  0  0  0  0  0  0  0  0
  140.3450   67.8510  226.5380 C   0  0  0  0  0  0  0  0  0  0  0  0
  140.8100   69.0700  227.0400 C   0  0  0  0  0  0  0  0  0  0  0  0
  140.4690   70.2710  226.4030 C   0  0  0  0  0  0  0  0  0  0  0  0
  141.0600   71.9170  227.1860 Br  0  0  0  0  0  0  0  0  0  0  0  0
  138.6540   73.5750  223.0720 H   0  0  0  0  0  0  0  0  0  0  0  0
  140.2224   72.5889  220.7572 H   0  0  0  0  0  0  0  0  0  0  0  0
  139.2324   74.1018  220.8744 H   0  0  0  0  0  0  0  0  0  0  0  0
  141.4620   74.3959  222.6368 H   0  0  0  0  0  0  0  0  0  0  0  0
  142.0783   73.7857  221.0399 H   0  0  0  0  0  0  0  0  0  0  0  0
  139.4408   77.0239  222.2702 H   0  0  0  0  0  0  0  0  0  0  0  0
  140.7269   76.2185  223.2290 H   0  0  0  0  0  0  0  0  0  0  0  0
  141.3688   78.0461  224.6460 H   0  0  0  0  0  0  0  0  0  0  0  0
  142.5137   80.2524  224.8698 H   0  0  0  0  0  0  0  0  0  0  0  0
  143.0364   81.6029  222.8337 H   0  0  0  0  0  0  0  0  0  0  0  0
  142.4077   80.7493  220.5711 H   0  0  0  0  0  0  0  0  0  0  0  0
  141.2343   78.5560  220.3432 H   0  0  0  0  0  0  0  0  0  0  0  0
  138.4330   71.9540  224.8780 H   0  0  0  0  0  0  0  0  0  0  0  0
  138.5237   68.9958  223.8838 H   0  0  0  0  0  0  0  0  0  0  0  0
  139.1591   66.8660  225.0148 H   0  0  0  0  0  0  0  0  0  0  0  0
  140.6228   66.9102  227.0357 H   0  0  0  0  0  0  0  0  0  0  0  0
  141.4455   69.0867  227.9377 H   0  0  0  0  0  0  0  0  0  0  0  0
  1  2  2  0
  2  3  1  0
  3  4  1  0
  4  5  1  0
  5  6  1  0
  6  7  1  0
  7  8  1  0
  8  9  2  0
  9 10  1  0
 10 11  2  0
 11 12  1  0
 12 13  2  0
  2 14  1  0
 14 15  1  0
 15 16  2  0
 16 17  1  0
 17 18  2  0
 18 19  1  0
 19 20  2  0
 20 21  1  0
 13  8  1  0
 20 15  1  0
  3 22  1  0
  4 23  1  0
  4 24  1  0
  5 25  1  0
  5 26  1  0
  7 27  1  0
  7 28  1  0
  9 29  1  0
 10 30  1  0
 11 31  1  0
 12 32  1  0
 13 33  1  0
 14 34  1  0
 16 35  1  0
 17 36  1  0
 18 37  1  0
 19 38  1  0
M  END
>  <UniqueID>  (78) 
11

>  <SMILES>  (78) 
O=C(NCCSCc1ccccc1)Nc1ccccc1Br

>  <Energy>  (78) 
36.534525639897105

>  <Genealogy>  (78) 
O=C(NCCSCc1ccccc1)Nc1ccccc1Br (3D coordinates assigned)
O=C(NCCSCc1ccccc1)Nc1ccccc1Br (optimized conformer: 36.534525639897105 kcal/mol)

>  <smiles>  (78) 
O=C(NCCSCc1ccccc1)Nc1ccccc1Br

>  <score_type>  (78) 
oracle

>  <origin>  (78) 
autodockgpu

>  <m_score__min__energy>  (78) 
-8.1099999999999994

>  <m_primary>  (78) 
energy

>  <meeko>  (78) 
{"free_energy": -7.95, "intermolecular_energy": -9.74, "internal_energy": -0.65, "cluster_size": 18, "cluster_id": 1, "rank_in_cluster": 11}

>  <energy>  (78) 
-7.41

>  <cluster_rmsd>  (78) 
1.26

>  <rmsd>  (78) 
272.15

>  <cluster>  (78) 
1

$$$$
NQJOPHUHKLKLHW-VEWCPZSHNA-N
     RDKit          3D

 38 39  0  0  0  0  0  0  0  0999 V2000
  140.9770   71.1920  222.9370 O   0  0  0  0  0  0  0  0  0  0  0  0
  140.0240   71.8810  223.3980 C   0  0  0  0  0  0  0  0  0  0  0  0
  139.6000   73.0700  222.7180 N   0  0  0  0  0  0  0  0  0  0  0  0
  140.2490   73.5570  221.5010 C   0  0  0  0  0  0  0  0  0  0  0  0
  139.6040   74.8550  221.0010 C   0  0  0  0  0  0  0  0  0  0  0  0
  139.3860   76.0830  222.3450 S   0  0  0  0  0  0  0  0  0  0  0  0
  141.0560   76.8270  222.2720 C   0  0  0  0  0  0  0  0  0  0  0  0
  140.9840   78.2540  222.7270 C   0  0  0  0  0  0  0  0  0  0  0  0
  142.1600   79.0080  222.8840 C   0  0  0  0  0  0  0  0  0  0  0  0
  142.0950   80.3280  223.3400 C   0  0  0  0  0  0  0  0  0  0  0  0
  140.8570   80.9030  223.6440 C   0  0  0  0  0  0  0  0  0  0  0  0
  139.6830   80.1570  223.4950 C   0  0  0  0  0  0  0  0  0  0  0  0
  139.7450   78.8340  223.0470 C   0  0  0  0  0  0  0  0  0  0  0  0
  139.3430   71.4640  224.5890 N   0  0  0  0  0  0  0  0  0  0  0  0
  139.6930   70.2650  225.2930 C   0  0  0  0  0  0  0  0  0  0  0  0
  139.2180   69.0330  224.8170 C   0  0  0  0  0  0  0  0  0  0  0  0
  139.5530   67.8460  225.4730 C   0  0  0  0  0  0  0  0  0  0  0  0
  140.3500   67.8810  226.6210 C   0  0  0  0  0  0  0  0  0  0  0  0
  140.8070   69.1050  227.1190 C   0  0  0  0  0  0  0  0  0  0  0  0
  140.4800   70.3000  226.4640 C   0  0  0  0  0  0  0  0  0  0  0  0
  141.0600   71.9520  227.2400 Br  0  0  0  0  0  0  0  0  0  0  0  0
  138.7560   73.5790  223.0660 H   0  0  0  0  0  0  0  0  0  0  0  0
  141.3118   73.7447  221.7134 H   0  0  0  0  0  0  0  0  0  0  0  0
  140.1351   72.7916  220.7192 H   0  0  0  0  0  0  0  0  0  0  0  0
  140.2461   75.2924  220.2223 H   0  0  0  0  0  0  0  0  0  0  0  0
  138.6079   74.6066  220.6059 H   0  0  0  0  0  0  0  0  0  0  0  0
  141.7371   76.2660  222.9288 H   0  0  0  0  0  0  0  0  0  0  0  0
  141.4313   76.7886  221.2387 H   0  0  0  0  0  0  0  0  0  0  0  0
  143.1352   78.5576  222.6471 H   0  0  0  0  0  0  0  0  0  0  0  0
  143.0179   80.9145  223.4597 H   0  0  0  0  0  0  0  0  0  0  0  0
  140.8063   81.9424  224.0005 H   0  0  0  0  0  0  0  0  0  0  0  0
  138.7096   80.6120  223.7306 H   0  0  0  0  0  0  0  0  0  0  0  0
  138.8212   78.2456  222.9448 H   0  0  0  0  0  0  0  0  0  0  0  0
  138.4340   71.9240  224.8260 H   0  0  0  0  0  0  0  0  0  0  0  0
  138.5785   69.0020  223.9225 H   0  0  0  0  0  0  0  0  0  0  0  0
  139.1893   66.8828  225.0858 H   0  0  0  0  0  0  0  0  0  0  0  0
  140.6178   66.9449  227.1329 H   0  0  0  0  0  0  0  0  0  0  0  0
  141.4255   69.1301  228.0283 H   0  0  0  0  0  0  0  0  0  0  0  0
  1  2  2  0
  2  3  1  0
  3  4  1  0
  4  5  1  0
  5  6  1  0
  6  7  1  0
  7  8  1  0
  8  9  2  0
  9 10  1  0
 10 11  2  0
 11 12  1  0
 12 13  2  0
  2 14  1  0
 14 15  1  0
 15 16  2  0
 16 17  1  0
 17 18  2  0
 18 19  1  0
 19 20  2  0
 20 21  1  0
 13  8  1  0
 20 15  1  0
  3 22  1  0
  4 23  1  0
  4 24  1  0
  5 25  1  0
  5 26  1  0
  7 27  1  0
  7 28  1  0
  9 29  1  0
 10 30  1  0
 11 31  1  0
 12 32  1  0
 13 33  1  0
 14 34  1  0
 16 35  1  0
 17 36  1  0
 18 37  1  0
 19 38  1  0
M  END
>  <UniqueID>  (79) 
11

>  <SMILES>  (79) 
O=C(NCCSCc1ccccc1)Nc1ccccc1Br

>  <Energy>  (79) 
36.534525639897105

>  <Genealogy>  (79) 
O=C(NCCSCc1ccccc1)Nc1ccccc1Br (3D coordinates assigned)
O=C(NCCSCc1ccccc1)Nc1ccccc1Br (optimized conformer: 36.534525639897105 kcal/mol)

>  <smiles>  (79) 
O=C(NCCSCc1ccccc1)Nc1ccccc1Br

>  <score_type>  (79) 
oracle

>  <origin>  (79) 
autodockgpu

>  <m_score__min__energy>  (79) 
-8.1099999999999994

>  <m_primary>  (79) 
energy

>  <meeko>  (79) 
{"free_energy": -7.96, "intermolecular_energy": -9.75, "internal_energy": -0.78, "cluster_size": 18, "cluster_id": 1, "rank_in_cluster": 10}

>  <energy>  (79) 
-7.39

>  <cluster_rmsd>  (79) 
0.0

>  <rmsd>  (79) 
272.44

>  <cluster>  (79) 
2

$$$$
NQJOPHUHKLKLHW-VEWCPZSHNA-N
     RDKit          3D

 38 39  0  0  0  0  0  0  0  0999 V2000
  141.0500   71.1510  222.8710 O   0  0  0  0  0  0  0  0  0  0  0  0
  140.1430   71.9010  223.3320 C   0  0  0  0  0  0  0  0  0  0  0  0
  139.8060   73.1200  222.6570 N   0  0  0  0  0  0  0  0  0  0  0  0
  140.4920   73.5690  221.4460 C   0  0  0  0  0  0  0  0  0  0  0  0
  141.0690   74.9780  221.6160 C   0  0  0  0  0  0  0  0  0  0  0  0
  139.8840   76.2790  221.1020 S   0  0  0  0  0  0  0  0  0  0  0  0
  139.8190   77.1930  222.6860 C   0  0  0  0  0  0  0  0  0  0  0  0
  140.8290   78.3000  222.6630 C   0  0  0  0  0  0  0  0  0  0  0  0
  141.4480   78.7200  223.8540 C   0  0  0  0  0  0  0  0  0  0  0  0
  142.3650   79.7750  223.8370 C   0  0  0  0  0  0  0  0  0  0  0  0
  142.6700   80.4190  222.6330 C   0  0  0  0  0  0  0  0  0  0  0  0
  142.0540   80.0100  221.4450 C   0  0  0  0  0  0  0  0  0  0  0  0
  141.1290   78.9600  221.4600 C   0  0  0  0  0  0  0  0  0  0  0  0
  139.4290   71.5230  224.5170 N   0  0  0  0  0  0  0  0  0  0  0  0
  139.6930   70.2990  225.2150 C   0  0  0  0  0  0  0  0  0  0  0  0
  139.1940   69.0970  224.6920 C   0  0  0  0  0  0  0  0  0  0  0  0
  139.4450   67.8850  225.3410 C   0  0  0  0  0  0  0  0  0  0  0  0
  140.1820   67.8680  226.5290 C   0  0  0  0  0  0  0  0  0  0  0  0
  140.6620   69.0630  227.0730 C   0  0  0  0  0  0  0  0  0  0  0  0
  140.4190   70.2820  226.4250 C   0  0  0  0  0  0  0  0  0  0  0  0
  141.0250   71.8950  227.2610 Br  0  0  0  0  0  0  0  0  0  0  0  0
  138.9960   73.6830  223.0050 H   0  0  0  0  0  0  0  0  0  0  0  0
  141.3125   72.8717  221.2208 H   0  0  0  0  0  0  0  0  0  0  0  0
  139.7610   73.5927  220.6244 H   0  0  0  0  0  0  0  0  0  0  0  0
  141.3250   75.1305  222.6749 H   0  0  0  0  0  0  0  0  0  0  0  0
  141.9581   75.0584  220.9733 H   0  0  0  0  0  0  0  0  0  0  0  0
  138.8133   77.6165  222.8245 H   0  0  0  0  0  0  0  0  0  0  0  0
  140.0442   76.5070  223.5159 H   0  0  0  0  0  0  0  0  0  0  0  0
  141.2097   78.2164  224.8025 H   0  0  0  0  0  0  0  0  0  0  0  0
  142.8472   80.0991  224.7711 H   0  0  0  0  0  0  0  0  0  0  0  0
  143.3941   81.2469  222.6202 H   0  0  0  0  0  0  0  0  0  0  0  0
  142.2971   80.5144  220.4982 H   0  0  0  0  0  0  0  0  0  0  0  0
  140.6354   78.6506  220.5269 H   0  0  0  0  0  0  0  0  0  0  0  0
  138.5530   72.0430  224.7520 H   0  0  0  0  0  0  0  0  0  0  0  0
  138.6014   69.1084  223.7653 H   0  0  0  0  0  0  0  0  0  0  0  0
  139.0628   66.9446  224.9172 H   0  0  0  0  0  0  0  0  0  0  0  0
  140.3844   66.9132  227.0363 H   0  0  0  0  0  0  0  0  0  0  0  0
  141.2326   69.0466  228.0133 H   0  0  0  0  0  0  0  0  0  0  0  0
  1  2  2  0
  2  3  1  0
  3  4  1  0
  4  5  1  0
  5  6  1  0
  6  7  1  0
  7  8  1  0
  8  9  2  0
  9 10  1  0
 10 11  2  0
 11 12  1  0
 12 13  2  0
  2 14  1  0
 14 15  1  0
 15 16  2  0
 16 17  1  0
 17 18  2  0
 18 19  1  0
 19 20  2  0
 20 21  1  0
 13  8  1  0
 20 15  1  0
  3 22  1  0
  4 23  1  0
  4 24  1  0
  5 25  1  0
  5 26  1  0
  7 27  1  0
  7 28  1  0
  9 29  1  0
 10 30  1  0
 11 31  1  0
 12 32  1  0
 13 33  1  0
 14 34  1  0
 16 35  1  0
 17 36  1  0
 18 37  1  0
 19 38  1  0
M  END
>  <UniqueID>  (80) 
11

>  <SMILES>  (80) 
O=C(NCCSCc1ccccc1)Nc1ccccc1Br

>  <Energy>  (80) 
36.534525639897105

>  <Genealogy>  (80) 
O=C(NCCSCc1ccccc1)Nc1ccccc1Br (3D coordinates assigned)
O=C(NCCSCc1ccccc1)Nc1ccccc1Br (optimized conformer: 36.534525639897105 kcal/mol)

>  <smiles>  (80) 
O=C(NCCSCc1ccccc1)Nc1ccccc1Br

>  <score_type>  (80) 
oracle

>  <origin>  (80) 
autodockgpu

>  <m_score__min__energy>  (80) 
-8.1099999999999994

>  <m_primary>  (80) 
energy

>  <meeko>  (80) 
{"free_energy": -7.76, "intermolecular_energy": -9.55, "internal_energy": -0.71, "cluster_size": 18, "cluster_id": 1, "rank_in_cluster": 15}

>  <energy>  (80) 
-7.35

>  <cluster_rmsd>  (80) 
0.0

>  <rmsd>  (80) 
271.79

>  <cluster>  (80) 
3

$$$$
