
     RDKit          3D

 46 49  0  0  0  0  0  0  0  0999 V2000
  138.9300   68.0000  225.3070 O   0  0  0  0  0  0  0  0  0  0  0  0
  139.4200   69.1270  225.0080 C   0  0  0  0  0  0  0  0  0  0  0  0
  139.9470   69.8610  226.0460 C   0  0  0  0  0  0  0  0  0  0  0  0
  139.9710   69.4520  227.3500 C   0  0  0  0  0  0  0  0  0  0  0  0
  140.5200   70.2500  228.3340 C   0  0  0  0  0  0  0  0  0  0  0  0
  141.0500   71.4800  227.9780 C   0  0  0  0  0  0  0  0  0  0  0  0
  141.0440   71.9280  226.6770 C   0  0  0  0  0  0  0  0  0  0  0  0
  140.4840   71.0940  225.7300 C   0  0  0  0  0  0  0  0  0  0  0  0
  140.4480   71.4700  224.4520 N   0  0  0  0  0  0  0  0  0  0  0  0
  139.9340   70.7480  223.4560 C   0  0  0  0  0  0  0  0  0  0  0  0
  139.9550   71.2690  222.0890 C   0  0  0  0  0  0  0  0  0  0  0  0
  140.7360   72.2800  221.7990 C   0  0  0  0  0  0  0  0  0  0  0  0
  140.3110   73.6750  221.7830 C   0  0  0  0  0  0  0  0  0  0  0  0
  141.1750   74.7260  221.5680 C   0  0  0  0  0  0  0  0  0  0  0  0
  140.7030   76.0150  221.5660 C   0  0  0  0  0  0  0  0  0  0  0  0
  139.4030   76.3040  221.7710 N   0  0  0  0  0  0  0  0  0  0  0  0
  138.5120   75.2920  221.9890 C   0  0  0  0  0  0  0  0  0  0  0  0
  138.9830   74.0000  221.9900 C   0  0  0  0  0  0  0  0  0  0  0  0
  139.4120   69.5630  223.7270 N   0  0  0  0  0  0  0  0  0  0  0  0
  138.8230   68.6940  222.7350 C   0  0  0  0  0  0  0  0  0  0  0  0
  137.3010   68.6740  222.7960 C   0  0  0  0  0  0  0  0  0  0  0  0
  136.7930   70.0680  222.9310 C   0  0  0  0  0  0  0  0  0  0  0  0
  136.4470   70.6200  224.1480 C   0  0  0  0  0  0  0  0  0  0  0  0
  135.9770   71.9300  224.2240 C   0  0  0  0  0  0  0  0  0  0  0  0
  135.8680   72.6600  223.0440 C   0  0  0  0  0  0  0  0  0  0  0  0
  136.2120   72.1220  221.8240 C   0  0  0  0  0  0  0  0  0  0  0  0
  136.6700   70.8340  221.7770 C   0  0  0  0  0  0  0  0  0  0  0  0
  139.5470   68.4734  227.6193 H   0  0  0  0  0  0  0  0  0  0  0  0
  140.5364   69.9154  229.3818 H   0  0  0  0  0  0  0  0  0  0  0  0
  141.4889   72.1177  228.7594 H   0  0  0  0  0  0  0  0  0  0  0  0
  141.4663   72.9063  226.4039 H   0  0  0  0  0  0  0  0  0  0  0  0
  139.3212   70.8162  221.3123 H   0  0  0  0  0  0  0  0  0  0  0  0
  141.7850   72.0616  221.5503 H   0  0  0  0  0  0  0  0  0  0  0  0
  142.2443   74.5322  221.3977 H   0  0  0  0  0  0  0  0  0  0  0  0
  141.4097   76.8396  221.3912 H   0  0  0  0  0  0  0  0  0  0  0  0
  137.4463   75.5047  222.1592 H   0  0  0  0  0  0  0  0  0  0  0  0
  138.2668   73.1835  222.1644 H   0  0  0  0  0  0  0  0  0  0  0  0
  139.1301   69.0408  221.7373 H   0  0  0  0  0  0  0  0  0  0  0  0
  139.1759   67.6722  222.9387 H   0  0  0  0  0  0  0  0  0  0  0  0
  136.9026   68.2259  221.8738 H   0  0  0  0  0  0  0  0  0  0  0  0
  136.9757   68.0788  223.6620 H   0  0  0  0  0  0  0  0  0  0  0  0
  136.5430   70.0210  225.0656 H   0  0  0  0  0  0  0  0  0  0  0  0
  135.6996   72.3751  225.1909 H   0  0  0  0  0  0  0  0  0  0  0  0
  135.4970   73.6947  223.0872 H   0  0  0  0  0  0  0  0  0  0  0  0
  136.1201   72.7174  220.9037 H   0  0  0  0  0  0  0  0  0  0  0  0
  136.9466   70.3954  220.8069 H   0  0  0  0  0  0  0  0  0  0  0  0
  1  2  2  0
  2  3  1  0
  3  4  2  0
  4  5  1  0
  5  6  2  0
  6  7  1  0
  7  8  2  0
  8  9  1  0
  9 10  2  0
 10 11  1  0
 11 12  2  0
 12 13  1  0
 13 14  2  0
 14 15  1  0
 15 16  2  0
 16 17  1  0
 17 18  2  0
 10 19  1  0
 19 20  1  0
 20 21  1  0
 21 22  1  0
 22 23  2  0
 23 24  1  0
 24 25  2  0
 25 26  1  0
 26 27  2  0
 19  2  1  0
 27 22  1  0
  8  3  1  0
 18 13  1  0
  4 28  1  0
  5 29  1  0
  6 30  1  0
  7 31  1  0
 11 32  1  0
 12 33  1  0
 14 34  1  0
 15 35  1  0
 17 36  1  0
 18 37  1  0
 20 38  1  0
 20 39  1  0
 21 40  1  0
 21 41  1  0
 23 42  1  0
 24 43  1  0
 25 44  1  0
 26 45  1  0
 27 46  1  0
M  END
>  <smiles>  (1) 
O=c1c2ccccc2nc(/C=C/c2ccncc2)n1CCc1ccccc1

>  <score_type>  (1) 
oracle

>  <origin>  (1) 
autodockgpu

>  <m_score__min__energy>  (1) 
-6.9800000000000004

>  <m_primary>  (1) 
energy

>  <meeko>  (1) 
{"free_energy": -6.77, "intermolecular_energy": -8.56, "internal_energy": -2.15, "cluster_size": 13, "cluster_id": 1, "rank_in_cluster": 10}

>  <energy>  (1) 
-6.98

>  <cluster_rmsd>  (1) 
0.0

>  <rmsd>  (1) 
270.83

>  <cluster>  (1) 
1

$$$$

     RDKit          3D

 46 49  0  0  0  0  0  0  0  0999 V2000
  138.8480   67.9920  225.3220 O   0  0  0  0  0  0  0  0  0  0  0  0
  139.3630   69.1060  225.0180 C   0  0  0  0  0  0  0  0  0  0  0  0
  139.8950   69.8400  226.0540 C   0  0  0  0  0  0  0  0  0  0  0  0
  139.8980   69.4420  227.3620 C   0  0  0  0  0  0  0  0  0  0  0  0
  140.4520   70.2390  228.3440 C   0  0  0  0  0  0  0  0  0  0  0  0
  141.0110   71.4540  227.9820 C   0  0  0  0  0  0  0  0  0  0  0  0
  141.0270   71.8900  226.6770 C   0  0  0  0  0  0  0  0  0  0  0  0
  140.4600   71.0590  225.7330 C   0  0  0  0  0  0  0  0  0  0  0  0
  140.4440   71.4230  224.4510 N   0  0  0  0  0  0  0  0  0  0  0  0
  139.9250   70.7020  223.4570 C   0  0  0  0  0  0  0  0  0  0  0  0
  139.9700   71.2090  222.0850 C   0  0  0  0  0  0  0  0  0  0  0  0
  140.6960   72.2660  221.8140 C   0  0  0  0  0  0  0  0  0  0  0  0
  140.1940   73.6350  221.8090 C   0  0  0  0  0  0  0  0  0  0  0  0
  138.8630   73.9510  221.9720 C   0  0  0  0  0  0  0  0  0  0  0  0
  138.4620   75.2650  221.9580 C   0  0  0  0  0  0  0  0  0  0  0  0
  139.3320   76.2800  221.7870 N   0  0  0  0  0  0  0  0  0  0  0  0
  140.6610   76.0100  221.6220 C   0  0  0  0  0  0  0  0  0  0  0  0
  141.0640   74.6950  221.6360 C   0  0  0  0  0  0  0  0  0  0  0  0
  139.3770   69.5300  223.7330 N   0  0  0  0  0  0  0  0  0  0  0  0
  138.7810   68.6630  222.7430 C   0  0  0  0  0  0  0  0  0  0  0  0
  137.5580   69.2810  222.0760 C   0  0  0  0  0  0  0  0  0  0  0  0
  136.7080   69.9350  223.1100 C   0  0  0  0  0  0  0  0  0  0  0  0
  136.5860   71.3060  223.2170 C   0  0  0  0  0  0  0  0  0  0  0  0
  135.7770   71.8710  224.2010 C   0  0  0  0  0  0  0  0  0  0  0  0
  135.1010   71.0180  225.0680 C   0  0  0  0  0  0  0  0  0  0  0  0
  135.2140   69.6480  224.9710 C   0  0  0  0  0  0  0  0  0  0  0  0
  136.0140   69.1190  223.9970 C   0  0  0  0  0  0  0  0  0  0  0  0
  139.4531   68.4739  227.6357 H   0  0  0  0  0  0  0  0  0  0  0  0
  140.4496   69.9151  229.3952 H   0  0  0  0  0  0  0  0  0  0  0  0
  141.4557   72.0896  228.7619 H   0  0  0  0  0  0  0  0  0  0  0  0
  141.4716   72.8570  226.3991 H   0  0  0  0  0  0  0  0  0  0  0  0
  139.4000   70.7078  221.2888 H   0  0  0  0  0  0  0  0  0  0  0  0
  141.7579   72.1095  221.5736 H   0  0  0  0  0  0  0  0  0  0  0  0
  138.1212   73.1511  222.1134 H   0  0  0  0  0  0  0  0  0  0  0  0
  137.3949   75.4964  222.0908 H   0  0  0  0  0  0  0  0  0  0  0  0
  141.3892   76.8224  221.4817 H   0  0  0  0  0  0  0  0  0  0  0  0
  142.1336   74.4757  221.5027 H   0  0  0  0  0  0  0  0  0  0  0  0
  139.5315   68.4458  221.9686 H   0  0  0  0  0  0  0  0  0  0  0  0
  138.4506   67.7494  223.2589 H   0  0  0  0  0  0  0  0  0  0  0  0
  137.8815   70.0307  221.3390 H   0  0  0  0  0  0  0  0  0  0  0  0
  136.9797   68.4949  221.5684 H   0  0  0  0  0  0  0  0  0  0  0  0
  137.1321   71.9581  222.5195 H   0  0  0  0  0  0  0  0  0  0  0  0
  135.6755   72.9627  224.2900 H   0  0  0  0  0  0  0  0  0  0  0  0
  134.4597   71.4485  225.8512 H   0  0  0  0  0  0  0  0  0  0  0  0
  134.6697   68.9913  225.6656 H   0  0  0  0  0  0  0  0  0  0  0  0
  136.1108   68.0265  223.9131 H   0  0  0  0  0  0  0  0  0  0  0  0
  1  2  2  0
  2  3  1  0
  3  4  2  0
  4  5  1  0
  5  6  2  0
  6  7  1  0
  7  8  2  0
  8  9  1  0
  9 10  2  0
 10 11  1  0
 11 12  2  0
 12 13  1  0
 13 14  2  0
 14 15  1  0
 15 16  2  0
 16 17  1  0
 17 18  2  0
 10 19  1  0
 19 20  1  0
 20 21  1  0
 21 22  1  0
 22 23  2  0
 23 24  1  0
 24 25  2  0
 25 26  1  0
 26 27  2  0
 19  2  1  0
 27 22  1  0
  8  3  1  0
 18 13  1  0
  4 28  1  0
  5 29  1  0
  6 30  1  0
  7 31  1  0
 11 32  1  0
 12 33  1  0
 14 34  1  0
 15 35  1  0
 17 36  1  0
 18 37  1  0
 20 38  1  0
 20 39  1  0
 21 40  1  0
 21 41  1  0
 23 42  1  0
 24 43  1  0
 25 44  1  0
 26 45  1  0
 27 46  1  0
M  END
>  <smiles>  (2) 
O=c1c2ccccc2nc(/C=C/c2ccncc2)n1CCc1ccccc1

>  <score_type>  (2) 
oracle

>  <origin>  (2) 
autodockgpu

>  <m_score__min__energy>  (2) 
-6.9800000000000004

>  <m_primary>  (2) 
energy

>  <meeko>  (2) 
{"free_energy": -6.97, "intermolecular_energy": -8.76, "internal_energy": -1.95, "cluster_size": 13, "cluster_id": 1, "rank_in_cluster": 2}

>  <energy>  (2) 
-6.97

>  <cluster_rmsd>  (2) 
0.11

>  <rmsd>  (2) 
270.85

>  <cluster>  (2) 
1

$$$$

     RDKit          3D

 46 49  0  0  0  0  0  0  0  0999 V2000
  140.0390   74.3840  221.9130 O   0  0  0  0  0  0  0  0  0  0  0  0
  140.8220   75.0800  221.2040 C   0  0  0  0  0  0  0  0  0  0  0  0
  142.0150   74.4920  220.8500 C   0  0  0  0  0  0  0  0  0  0  0  0
  142.3920   73.2280  221.2100 C   0  0  0  0  0  0  0  0  0  0  0  0
  143.6080   72.7110  220.8110 C   0  0  0  0  0  0  0  0  0  0  0  0
  144.4460   73.4950  220.0350 C   0  0  0  0  0  0  0  0  0  0  0  0
  144.1030   74.7720  219.6520 C   0  0  0  0  0  0  0  0  0  0  0  0
  142.8770   75.2440  220.0760 C   0  0  0  0  0  0  0  0  0  0  0  0
  142.4860   76.4730  219.7390 N   0  0  0  0  0  0  0  0  0  0  0  0
  141.3280   77.0300  220.0900 C   0  0  0  0  0  0  0  0  0  0  0  0
  141.0090   78.3900  219.6550 C   0  0  0  0  0  0  0  0  0  0  0  0
  141.8200   79.3710  219.9660 C   0  0  0  0  0  0  0  0  0  0  0  0
  141.9690   79.9270  221.3060 C   0  0  0  0  0  0  0  0  0  0  0  0
  142.3850   79.1860  222.3890 C   0  0  0  0  0  0  0  0  0  0  0  0
  142.5030   79.7770  223.6230 C   0  0  0  0  0  0  0  0  0  0  0  0
  142.2240   81.0810  223.8240 N   0  0  0  0  0  0  0  0  0  0  0  0
  141.8090   81.8520  222.7760 C   0  0  0  0  0  0  0  0  0  0  0  0
  141.6900   81.2610  221.5400 C   0  0  0  0  0  0  0  0  0  0  0  0
  140.4790   76.3350  220.8300 N   0  0  0  0  0  0  0  0  0  0  0  0
  139.1990   76.8330  221.2750 C   0  0  0  0  0  0  0  0  0  0  0  0
  139.2230   77.3170  222.7200 C   0  0  0  0  0  0  0  0  0  0  0  0
  138.8970   78.7690  222.7600 C   0  0  0  0  0  0  0  0  0  0  0  0
  139.1190   79.5520  223.8760 C   0  0  0  0  0  0  0  0  0  0  0  0
  138.7980   80.9080  223.8660 C   0  0  0  0  0  0  0  0  0  0  0  0
  138.2500   81.4460  222.7050 C   0  0  0  0  0  0  0  0  0  0  0  0
  138.0250   80.6770  221.5850 C   0  0  0  0  0  0  0  0  0  0  0  0
  138.3490   79.3480  221.6210 C   0  0  0  0  0  0  0  0  0  0  0  0
  141.7173   72.6150  221.8257 H   0  0  0  0  0  0  0  0  0  0  0  0
  143.9066   71.6937  221.1042 H   0  0  0  0  0  0  0  0  0  0  0  0
  145.4151   73.0846  219.7151 H   0  0  0  0  0  0  0  0  0  0  0  0
  144.7750   75.3880  219.0364 H   0  0  0  0  0  0  0  0  0  0  0  0
  140.0970   78.5871  219.0724 H   0  0  0  0  0  0  0  0  0  0  0  0
  142.4307   79.8052  219.1607 H   0  0  0  0  0  0  0  0  0  0  0  0
  142.6232   78.1192  222.2658 H   0  0  0  0  0  0  0  0  0  0  0  0
  142.8360   79.1667  224.4754 H   0  0  0  0  0  0  0  0  0  0  0  0
  141.5760   82.9178  222.9168 H   0  0  0  0  0  0  0  0  0  0  0  0
  141.3560   81.8807  220.6948 H   0  0  0  0  0  0  0  0  0  0  0  0
  138.9044   77.6725  220.6281 H   0  0  0  0  0  0  0  0  0  0  0  0
  138.4817   76.0011  221.2164 H   0  0  0  0  0  0  0  0  0  0  0  0
  138.4797   76.7576  223.3069 H   0  0  0  0  0  0  0  0  0  0  0  0
  140.2238   77.1530  223.1461 H   0  0  0  0  0  0  0  0  0  0  0  0
  139.5530   79.1012  224.7807 H   0  0  0  0  0  0  0  0  0  0  0  0
  138.9730   81.5364  224.7517 H   0  0  0  0  0  0  0  0  0  0  0  0
  137.9896   82.5145  222.6815 H   0  0  0  0  0  0  0  0  0  0  0  0
  137.5924   81.1232  220.6774 H   0  0  0  0  0  0  0  0  0  0  0  0
  138.1724   78.7256  220.7314 H   0  0  0  0  0  0  0  0  0  0  0  0
  1  2  2  0
  2  3  1  0
  3  4  2  0
  4  5  1  0
  5  6  2  0
  6  7  1  0
  7  8  2  0
  8  9  1  0
  9 10  2  0
 10 11  1  0
 11 12  2  0
 12 13  1  0
 13 14  2  0
 14 15  1  0
 15 16  2  0
 16 17  1  0
 17 18  2  0
 10 19  1  0
 19 20  1  0
 20 21  1  0
 21 22  1  0
 22 23  2  0
 23 24  1  0
 24 25  2  0
 25 26  1  0
 26 27  2  0
 19  2  1  0
 27 22  1  0
  8  3  1  0
 18 13  1  0
  4 28  1  0
  5 29  1  0
  6 30  1  0
  7 31  1  0
 11 32  1  0
 12 33  1  0
 14 34  1  0
 15 35  1  0
 17 36  1  0
 18 37  1  0
 20 38  1  0
 20 39  1  0
 21 40  1  0
 21 41  1  0
 23 42  1  0
 24 43  1  0
 25 44  1  0
 26 45  1  0
 27 46  1  0
M  END
>  <smiles>  (3) 
O=c1c2ccccc2nc(/C=C/c2ccncc2)n1CCc1ccccc1

>  <score_type>  (3) 
oracle

>  <origin>  (3) 
autodockgpu

>  <m_score__min__energy>  (3) 
-6.9800000000000004

>  <m_primary>  (3) 
energy

>  <meeko>  (3) 
{"free_energy": -6.46, "intermolecular_energy": -8.25, "internal_energy": -2.32, "cluster_size": 7, "cluster_id": 2, "rank_in_cluster": 7}

>  <energy>  (3) 
-6.97

>  <cluster_rmsd>  (3) 
0.11

>  <rmsd>  (3) 
270.83

>  <cluster>  (3) 
1

$$$$

     RDKit          3D

 46 49  0  0  0  0  0  0  0  0999 V2000
  138.5830   68.0010  225.7680 O   0  0  0  0  0  0  0  0  0  0  0  0
  139.1850   68.9880  225.2570 C   0  0  0  0  0  0  0  0  0  0  0  0
  139.7950   69.8550  226.1340 C   0  0  0  0  0  0  0  0  0  0  0  0
  139.7890   69.7140  227.4930 C   0  0  0  0  0  0  0  0  0  0  0  0
  140.4270   70.6310  228.3050 C   0  0  0  0  0  0  0  0  0  0  0  0
  141.0790   71.7020  227.7170 C   0  0  0  0  0  0  0  0  0  0  0  0
  141.1090   71.8810  226.3530 C   0  0  0  0  0  0  0  0  0  0  0  0
  140.4560   70.9370  225.5850 C   0  0  0  0  0  0  0  0  0  0  0  0
  140.4480   71.0530  224.2570 N   0  0  0  0  0  0  0  0  0  0  0  0
  139.8510   70.2040  223.4190 C   0  0  0  0  0  0  0  0  0  0  0  0
  139.9140   70.4360  221.9760 C   0  0  0  0  0  0  0  0  0  0  0  0
  139.2220   71.4190  221.4530 C   0  0  0  0  0  0  0  0  0  0  0  0
  139.5330   72.8330  221.6280 C   0  0  0  0  0  0  0  0  0  0  0  0
  138.5900   73.7770  221.9700 C   0  0  0  0  0  0  0  0  0  0  0  0
  138.9560   75.0930  222.1180 C   0  0  0  0  0  0  0  0  0  0  0  0
  140.2260   75.5090  221.9390 N   0  0  0  0  0  0  0  0  0  0  0  0
  141.1920   74.6060  221.5990 C   0  0  0  0  0  0  0  0  0  0  0  0
  140.8270   73.2880  221.4510 C   0  0  0  0  0  0  0  0  0  0  0  0
  139.2110   69.1570  223.9140 N   0  0  0  0  0  0  0  0  0  0  0  0
  138.5260   68.1740  223.1090 C   0  0  0  0  0  0  0  0  0  0  0  0
  137.2790   68.7310  222.4310 C   0  0  0  0  0  0  0  0  0  0  0  0
  136.4930   69.5240  223.4170 C   0  0  0  0  0  0  0  0  0  0  0  0
  135.7650   68.9380  224.4340 C   0  0  0  0  0  0  0  0  0  0  0  0
  135.0450   69.7220  225.3330 C   0  0  0  0  0  0  0  0  0  0  0  0
  135.0810   71.1050  225.1760 C   0  0  0  0  0  0  0  0  0  0  0  0
  135.8040   71.7010  224.1670 C   0  0  0  0  0  0  0  0  0  0  0  0
  136.5020   70.9090  223.2980 C   0  0  0  0  0  0  0  0  0  0  0  0
  139.2685   68.8578  227.9469 H   0  0  0  0  0  0  0  0  0  0  0  0
  140.4175   70.5129  229.3986 H   0  0  0  0  0  0  0  0  0  0  0  0
  141.5893   72.4332  228.3611 H   0  0  0  0  0  0  0  0  0  0  0  0
  141.6287   72.7359  225.8957 H   0  0  0  0  0  0  0  0  0  0  0  0
  140.5356   69.7922  221.3363 H   0  0  0  0  0  0  0  0  0  0  0  0
  138.3464   71.1593  220.8399 H   0  0  0  0  0  0  0  0  0  0  0  0
  137.5431   73.4770  222.1247 H   0  0  0  0  0  0  0  0  0  0  0  0
  138.1878   75.8313  222.3914 H   0  0  0  0  0  0  0  0  0  0  0  0
  142.2341   74.9239  221.4475 H   0  0  0  0  0  0  0  0  0  0  0  0
  141.6039   72.5587  221.1780 H   0  0  0  0  0  0  0  0  0  0  0  0
  139.2164   67.8125  222.3327 H   0  0  0  0  0  0  0  0  0  0  0  0
  138.2046   67.3629  223.7789 H   0  0  0  0  0  0  0  0  0  0  0  0
  137.5752   69.3780  221.5921 H   0  0  0  0  0  0  0  0  0  0  0  0
  136.6642   67.9009  222.0529 H   0  0  0  0  0  0  0  0  0  0  0  0
  135.7536   67.8427  224.5351 H   0  0  0  0  0  0  0  0  0  0  0  0
  134.4637   69.2607  226.1450 H   0  0  0  0  0  0  0  0  0  0  0  0
  134.5169   71.7383  225.8766 H   0  0  0  0  0  0  0  0  0  0  0  0
  135.8198   72.7958  224.0618 H   0  0  0  0  0  0  0  0  0  0  0  0
  137.0820   71.3769  222.4889 H   0  0  0  0  0  0  0  0  0  0  0  0
  1  2  2  0
  2  3  1  0
  3  4  2  0
  4  5  1  0
  5  6  2  0
  6  7  1  0
  7  8  2  0
  8  9  1  0
  9 10  2  0
 10 11  1  0
 11 12  2  0
 12 13  1  0
 13 14  2  0
 14 15  1  0
 15 16  2  0
 16 17  1  0
 17 18  2  0
 10 19  1  0
 19 20  1  0
 20 21  1  0
 21 22  1  0
 22 23  2  0
 23 24  1  0
 24 25  2  0
 25 26  1  0
 26 27  2  0
 19  2  1  0
 27 22  1  0
  8  3  1  0
 18 13  1  0
  4 28  1  0
  5 29  1  0
  6 30  1  0
  7 31  1  0
 11 32  1  0
 12 33  1  0
 14 34  1  0
 15 35  1  0
 17 36  1  0
 18 37  1  0
 20 38  1  0
 20 39  1  0
 21 40  1  0
 21 41  1  0
 23 42  1  0
 24 43  1  0
 25 44  1  0
 26 45  1  0
 27 46  1  0
M  END
>  <smiles>  (4) 
O=c1c2ccccc2nc(/C=C/c2ccncc2)n1CCc1ccccc1

>  <score_type>  (4) 
oracle

>  <origin>  (4) 
autodockgpu

>  <m_score__min__energy>  (4) 
-6.9800000000000004

>  <m_primary>  (4) 
energy

>  <meeko>  (4) 
{"free_energy": -6.69, "intermolecular_energy": -8.48, "internal_energy": -2.14, "cluster_size": 13, "cluster_id": 1, "rank_in_cluster": 13}

>  <energy>  (4) 
-6.96

>  <cluster_rmsd>  (4) 
0.16

>  <rmsd>  (4) 
270.86

>  <cluster>  (4) 
1

$$$$

     RDKit          3D

 46 49  0  0  0  0  0  0  0  0999 V2000
  140.0360   74.7360  221.9380 O   0  0  0  0  0  0  0  0  0  0  0  0
  140.8560   75.3660  221.2100 C   0  0  0  0  0  0  0  0  0  0  0  0
  141.9980   74.6890  220.8460 C   0  0  0  0  0  0  0  0  0  0  0  0
  142.2890   73.4060  221.2160 C   0  0  0  0  0  0  0  0  0  0  0  0
  143.4590   72.7980  220.8070 C   0  0  0  0  0  0  0  0  0  0  0  0
  144.3390   73.5110  220.0100 C   0  0  0  0  0  0  0  0  0  0  0  0
  144.0830   74.8050  219.6160 C   0  0  0  0  0  0  0  0  0  0  0  0
  142.9010   75.3690  220.0520 C   0  0  0  0  0  0  0  0  0  0  0  0
  142.5940   76.6190  219.7050 N   0  0  0  0  0  0  0  0  0  0  0  0
  141.4840   77.2620  220.0660 C   0  0  0  0  0  0  0  0  0  0  0  0
  141.2570   78.6370  219.6190 C   0  0  0  0  0  0  0  0  0  0  0  0
  142.1770   79.2410  218.9080 C   0  0  0  0  0  0  0  0  0  0  0  0
  142.1960   80.6720  218.6260 C   0  0  0  0  0  0  0  0  0  0  0  0
  142.9590   81.2340  217.6260 C   0  0  0  0  0  0  0  0  0  0  0  0
  142.9260   82.5910  217.4170 C   0  0  0  0  0  0  0  0  0  0  0  0
  142.1650   83.4150  218.1650 N   0  0  0  0  0  0  0  0  0  0  0  0
  141.3930   82.8980  219.1670 C   0  0  0  0  0  0  0  0  0  0  0  0
  141.4250   81.5390  219.3770 C   0  0  0  0  0  0  0  0  0  0  0  0
  140.5990   76.6380  220.8260 N   0  0  0  0  0  0  0  0  0  0  0  0
  139.3640   77.2310  221.2830 C   0  0  0  0  0  0  0  0  0  0  0  0
  139.4370   77.7060  222.7290 C   0  0  0  0  0  0  0  0  0  0  0  0
  140.3790   78.8560  222.8260 C   0  0  0  0  0  0  0  0  0  0  0  0
  139.9880   80.1610  222.6060 C   0  0  0  0  0  0  0  0  0  0  0  0
  140.9060   81.2040  222.7090 C   0  0  0  0  0  0  0  0  0  0  0  0
  142.2220   80.8920  223.0380 C   0  0  0  0  0  0  0  0  0  0  0  0
  142.6250   79.5940  223.2610 C   0  0  0  0  0  0  0  0  0  0  0  0
  141.7040   78.5890  223.1540 C   0  0  0  0  0  0  0  0  0  0  0  0
  141.5812   72.8501  221.8484 H   0  0  0  0  0  0  0  0  0  0  0  0
  143.6883   71.7654  221.1089 H   0  0  0  0  0  0  0  0  0  0  0  0
  145.2714   73.0284  219.6816 H   0  0  0  0  0  0  0  0  0  0  0  0
  144.7879   75.3638  218.9829 H   0  0  0  0  0  0  0  0  0  0  0  0
  140.3234   79.1581  219.8774 H   0  0  0  0  0  0  0  0  0  0  0  0
  142.9909   78.6268  218.4954 H   0  0  0  0  0  0  0  0  0  0  0  0
  143.5948   80.5957  216.9948 H   0  0  0  0  0  0  0  0  0  0  0  0
  143.5411   83.0200  216.6123 H   0  0  0  0  0  0  0  0  0  0  0  0
  140.7630   83.5510  219.7889 H   0  0  0  0  0  0  0  0  0  0  0  0
  140.8053   81.1209  220.1839 H   0  0  0  0  0  0  0  0  0  0  0  0
  139.1294   78.0931  220.6413 H   0  0  0  0  0  0  0  0  0  0  0  0
  138.5844   76.4570  221.2275 H   0  0  0  0  0  0  0  0  0  0  0  0
  138.4373   78.0215  223.0624 H   0  0  0  0  0  0  0  0  0  0  0  0
  139.7937   76.8845  223.3677 H   0  0  0  0  0  0  0  0  0  0  0  0
  138.9416   80.3799  222.3469 H   0  0  0  0  0  0  0  0  0  0  0  0
  140.5991   82.2459  222.5350 H   0  0  0  0  0  0  0  0  0  0  0  0
  142.9597   81.7036  223.1221 H   0  0  0  0  0  0  0  0  0  0  0  0
  143.6701   79.3696  223.5208 H   0  0  0  0  0  0  0  0  0  0  0  0
  142.0170   77.5494  223.3307 H   0  0  0  0  0  0  0  0  0  0  0  0
  1  2  2  0
  2  3  1  0
  3  4  2  0
  4  5  1  0
  5  6  2  0
  6  7  1  0
  7  8  2  0
  8  9  1  0
  9 10  2  0
 10 11  1  0
 11 12  2  0
 12 13  1  0
 13 14  2  0
 14 15  1  0
 15 16  2  0
 16 17  1  0
 17 18  2  0
 10 19  1  0
 19 20  1  0
 20 21  1  0
 21 22  1  0
 22 23  2  0
 23 24  1  0
 24 25  2  0
 25 26  1  0
 26 27  2  0
 19  2  1  0
 27 22  1  0
  8  3  1  0
 18 13  1  0
  4 28  1  0
  5 29  1  0
  6 30  1  0
  7 31  1  0
 11 32  1  0
 12 33  1  0
 14 34  1  0
 15 35  1  0
 17 36  1  0
 18 37  1  0
 20 38  1  0
 20 39  1  0
 21 40  1  0
 21 41  1  0
 23 42  1  0
 24 43  1  0
 25 44  1  0
 26 45  1  0
 27 46  1  0
M  END
>  <smiles>  (5) 
O=c1c2ccccc2nc(/C=C/c2ccncc2)n1CCc1ccccc1

>  <score_type>  (5) 
oracle

>  <origin>  (5) 
autodockgpu

>  <m_score__min__energy>  (5) 
-6.9800000000000004

>  <m_primary>  (5) 
energy

>  <meeko>  (5) 
{"free_energy": -6.85, "intermolecular_energy": -8.64, "internal_energy": -1.91, "cluster_size": 7, "cluster_id": 2, "rank_in_cluster": 1}

>  <energy>  (5) 
-6.94

>  <cluster_rmsd>  (5) 
0.14

>  <rmsd>  (5) 
270.84

>  <cluster>  (5) 
1

$$$$

     RDKit          3D

 46 49  0  0  0  0  0  0  0  0999 V2000
  138.8500   68.0110  225.3340 O   0  0  0  0  0  0  0  0  0  0  0  0
  139.3770   69.1160  225.0180 C   0  0  0  0  0  0  0  0  0  0  0  0
  139.9030   69.8620  226.0480 C   0  0  0  0  0  0  0  0  0  0  0  0
  139.8890   69.4860  227.3620 C   0  0  0  0  0  0  0  0  0  0  0  0
  140.4400   70.2930  228.3370 C   0  0  0  0  0  0  0  0  0  0  0  0
  141.0120   71.4980  227.9620 C   0  0  0  0  0  0  0  0  0  0  0  0
  141.0460   71.9130  226.6500 C   0  0  0  0  0  0  0  0  0  0  0  0
  140.4820   71.0710  225.7130 C   0  0  0  0  0  0  0  0  0  0  0  0
  140.4830   71.4150  224.4260 N   0  0  0  0  0  0  0  0  0  0  0  0
  139.9690   70.6820  223.4380 C   0  0  0  0  0  0  0  0  0  0  0  0
  140.0320   71.1660  222.0580 C   0  0  0  0  0  0  0  0  0  0  0  0
  139.2640   72.1620  221.6910 C   0  0  0  0  0  0  0  0  0  0  0  0
  139.6460   73.5680  221.7540 C   0  0  0  0  0  0  0  0  0  0  0  0
  138.7560   74.5810  222.0330 C   0  0  0  0  0  0  0  0  0  0  0  0
  139.1880   75.8840  222.0770 C   0  0  0  0  0  0  0  0  0  0  0  0
  140.4740   76.2220  221.8540 N   0  0  0  0  0  0  0  0  0  0  0  0
  141.3900   75.2480  221.5740 C   0  0  0  0  0  0  0  0  0  0  0  0
  140.9580   73.9430  221.5310 C   0  0  0  0  0  0  0  0  0  0  0  0
  139.4080   69.5190  223.7260 N   0  0  0  0  0  0  0  0  0  0  0  0
  138.8160   68.6410  222.7440 C   0  0  0  0  0  0  0  0  0  0  0  0
  137.5540   69.2220  222.1170 C   0  0  0  0  0  0  0  0  0  0  0  0
  136.6750   69.7670  223.1890 C   0  0  0  0  0  0  0  0  0  0  0  0
  136.0120   68.9590  224.0910 C   0  0  0  0  0  0  0  0  0  0  0  0
  135.2000   69.5150  225.0770 C   0  0  0  0  0  0  0  0  0  0  0  0
  135.0780   70.9010  225.1260 C   0  0  0  0  0  0  0  0  0  0  0  0
  135.7350   71.7180  224.2330 C   0  0  0  0  0  0  0  0  0  0  0  0
  136.5260   71.1460  223.2740 C   0  0  0  0  0  0  0  0  0  0  0  0
  139.4322   68.5267  227.6466 H   0  0  0  0  0  0  0  0  0  0  0  0
  140.4252   69.9849  229.3929 H   0  0  0  0  0  0  0  0  0  0  0  0
  141.4525   72.1429  228.7366 H   0  0  0  0  0  0  0  0  0  0  0  0
  141.5018   72.8717  226.3615 H   0  0  0  0  0  0  0  0  0  0  0  0
  140.7175   70.6980  221.3361 H   0  0  0  0  0  0  0  0  0  0  0  0
  138.2612   71.9209  221.3087 H   0  0  0  0  0  0  0  0  0  0  0  0
  137.6979   74.3464  222.2209 H   0  0  0  0  0  0  0  0  0  0  0  0
  138.4607   76.6781  222.3016 H   0  0  0  0  0  0  0  0  0  0  0  0
  142.4443   75.5006  221.3880 H   0  0  0  0  0  0  0  0  0  0  0  0
  141.6943   73.1569  221.3077 H   0  0  0  0  0  0  0  0  0  0  0  0
  139.5520   68.4577  221.9473 H   0  0  0  0  0  0  0  0  0  0  0  0
  138.5322   67.7114  223.2590 H   0  0  0  0  0  0  0  0  0  0  0  0
  137.8278   70.0289  221.4213 H   0  0  0  0  0  0  0  0  0  0  0  0
  137.0189   68.4325  221.5690 H   0  0  0  0  0  0  0  0  0  0  0  0
  136.1259   67.8666  224.0306 H   0  0  0  0  0  0  0  0  0  0  0  0
  134.6692   68.8758  225.7979 H   0  0  0  0  0  0  0  0  0  0  0  0
  134.4401   71.3555  225.8983 H   0  0  0  0  0  0  0  0  0  0  0  0
  135.6258   72.8111  224.2896 H   0  0  0  0  0  0  0  0  0  0  0  0
  137.0544   71.7906  222.5561 H   0  0  0  0  0  0  0  0  0  0  0  0
  1  2  2  0
  2  3  1  0
  3  4  2  0
  4  5  1  0
  5  6  2  0
  6  7  1  0
  7  8  2  0
  8  9  1  0
  9 10  2  0
 10 11  1  0
 11 12  2  0
 12 13  1  0
 13 14  2  0
 14 15  1  0
 15 16  2  0
 16 17  1  0
 17 18  2  0
 10 19  1  0
 19 20  1  0
 20 21  1  0
 21 22  1  0
 22 23  2  0
 23 24  1  0
 24 25  2  0
 25 26  1  0
 26 27  2  0
 19  2  1  0
 27 22  1  0
  8  3  1  0
 18 13  1  0
  4 28  1  0
  5 29  1  0
  6 30  1  0
  7 31  1  0
 11 32  1  0
 12 33  1  0
 14 34  1  0
 15 35  1  0
 17 36  1  0
 18 37  1  0
 20 38  1  0
 20 39  1  0
 21 40  1  0
 21 41  1  0
 23 42  1  0
 24 43  1  0
 25 44  1  0
 26 45  1  0
 27 46  1  0
M  END
>  <smiles>  (6) 
O=c1c2ccccc2nc(/C=C/c2ccncc2)n1CCc1ccccc1

>  <score_type>  (6) 
oracle

>  <origin>  (6) 
autodockgpu

>  <m_score__min__energy>  (6) 
-6.9800000000000004

>  <m_primary>  (6) 
energy

>  <meeko>  (6) 
{"free_energy": -6.88, "intermolecular_energy": -8.67, "internal_energy": -1.95, "cluster_size": 13, "cluster_id": 1, "rank_in_cluster": 7}

>  <energy>  (6) 
-6.9

>  <cluster_rmsd>  (6) 
0.48

>  <rmsd>  (6) 
270.85

>  <cluster>  (6) 
1

$$$$

     RDKit          3D

 46 49  0  0  0  0  0  0  0  0999 V2000
  138.9290   67.9300  225.3210 O   0  0  0  0  0  0  0  0  0  0  0  0
  139.4270   69.0510  225.0160 C   0  0  0  0  0  0  0  0  0  0  0  0
  139.9600   69.7870  226.0500 C   0  0  0  0  0  0  0  0  0  0  0  0
  139.9810   69.3850  227.3560 C   0  0  0  0  0  0  0  0  0  0  0  0
  140.5360   70.1850  228.3360 C   0  0  0  0  0  0  0  0  0  0  0  0
  141.0750   71.4080  227.9730 C   0  0  0  0  0  0  0  0  0  0  0  0
  141.0730   71.8500  226.6690 C   0  0  0  0  0  0  0  0  0  0  0  0
  140.5060   71.0140  225.7270 C   0  0  0  0  0  0  0  0  0  0  0  0
  140.4730   71.3840  224.4470 N   0  0  0  0  0  0  0  0  0  0  0  0
  139.9530   70.6600  223.4560 C   0  0  0  0  0  0  0  0  0  0  0  0
  139.9770   71.1720  222.0860 C   0  0  0  0  0  0  0  0  0  0  0  0
  140.7500   72.1900  221.7940 C   0  0  0  0  0  0  0  0  0  0  0  0
  140.3200   73.5830  221.8050 C   0  0  0  0  0  0  0  0  0  0  0  0
  139.0160   73.9700  222.0250 C   0  0  0  0  0  0  0  0  0  0  0  0
  138.6840   75.3030  222.0210 C   0  0  0  0  0  0  0  0  0  0  0  0
  139.5980   76.2700  221.8070 N   0  0  0  0  0  0  0  0  0  0  0  0
  140.9030   75.9300  221.5840 C   0  0  0  0  0  0  0  0  0  0  0  0
  141.2360   74.5960  221.5880 C   0  0  0  0  0  0  0  0  0  0  0  0
  139.4220   69.4800  223.7320 N   0  0  0  0  0  0  0  0  0  0  0  0
  138.8270   68.6100  222.7460 C   0  0  0  0  0  0  0  0  0  0  0  0
  137.3040   68.6070  222.8020 C   0  0  0  0  0  0  0  0  0  0  0  0
  136.8120   70.0070  222.9320 C   0  0  0  0  0  0  0  0  0  0  0  0
  136.4730   70.5680  224.1470 C   0  0  0  0  0  0  0  0  0  0  0  0
  136.0180   71.8830  224.2180 C   0  0  0  0  0  0  0  0  0  0  0  0
  135.9140   72.6090  223.0340 C   0  0  0  0  0  0  0  0  0  0  0  0
  136.2500   72.0610  221.8160 C   0  0  0  0  0  0  0  0  0  0  0  0
  136.6940   70.7680  221.7750 C   0  0  0  0  0  0  0  0  0  0  0  0
  139.5500   68.4109  227.6307 H   0  0  0  0  0  0  0  0  0  0  0  0
  140.5496   69.8565  229.3857 H   0  0  0  0  0  0  0  0  0  0  0  0
  141.5188   72.0465  228.7511 H   0  0  0  0  0  0  0  0  0  0  0  0
  141.5029   72.8234  226.3904 H   0  0  0  0  0  0  0  0  0  0  0  0
  139.3527   70.7076  221.3084 H   0  0  0  0  0  0  0  0  0  0  0  0
  141.7947   71.9785  221.5221 H   0  0  0  0  0  0  0  0  0  0  0  0
  138.2402   73.2110  222.2040 H   0  0  0  0  0  0  0  0  0  0  0  0
  137.6372   75.5907  222.1984 H   0  0  0  0  0  0  0  0  0  0  0  0
  141.6658   76.7024  221.4062 H   0  0  0  0  0  0  0  0  0  0  0  0
  142.2857   74.3202  221.4093 H   0  0  0  0  0  0  0  0  0  0  0  0
  139.1411   68.9451  221.7465 H   0  0  0  0  0  0  0  0  0  0  0  0
  139.1679   67.5862  222.9594 H   0  0  0  0  0  0  0  0  0  0  0  0
  136.9035   68.1612  221.8796 H   0  0  0  0  0  0  0  0  0  0  0  0
  136.9689   68.0174  223.6680 H   0  0  0  0  0  0  0  0  0  0  0  0
  136.5629   69.9717  225.0670 H   0  0  0  0  0  0  0  0  0  0  0  0
  135.7481   72.3357  225.1835 H   0  0  0  0  0  0  0  0  0  0  0  0
  135.5539   73.6477  223.0727 H   0  0  0  0  0  0  0  0  0  0  0  0
  136.1628   72.6526  220.8927 H   0  0  0  0  0  0  0  0  0  0  0  0
  136.9632   70.3213  220.8065 H   0  0  0  0  0  0  0  0  0  0  0  0
  1  2  2  0
  2  3  1  0
  3  4  2  0
  4  5  1  0
  5  6  2  0
  6  7  1  0
  7  8  2  0
  8  9  1  0
  9 10  2  0
 10 11  1  0
 11 12  2  0
 12 13  1  0
 13 14  2  0
 14 15  1  0
 15 16  2  0
 16 17  1  0
 17 18  2  0
 10 19  1  0
 19 20  1  0
 20 21  1  0
 21 22  1  0
 22 23  2  0
 23 24  1  0
 24 25  2  0
 25 26  1  0
 26 27  2  0
 19  2  1  0
 27 22  1  0
  8  3  1  0
 18 13  1  0
  4 28  1  0
  5 29  1  0
  6 30  1  0
  7 31  1  0
 11 32  1  0
 12 33  1  0
 14 34  1  0
 15 35  1  0
 17 36  1  0
 18 37  1  0
 20 38  1  0
 20 39  1  0
 21 40  1  0
 21 41  1  0
 23 42  1  0
 24 43  1  0
 25 44  1  0
 26 45  1  0
 27 46  1  0
M  END
>  <smiles>  (7) 
O=c1c2ccccc2nc(/C=C/c2ccncc2)n1CCc1ccccc1

>  <score_type>  (7) 
oracle

>  <origin>  (7) 
autodockgpu

>  <m_score__min__energy>  (7) 
-6.9800000000000004

>  <m_primary>  (7) 
energy

>  <meeko>  (7) 
{"free_energy": -6.75, "intermolecular_energy": -8.54, "internal_energy": -2.15, "cluster_size": 13, "cluster_id": 1, "rank_in_cluster": 11}

>  <energy>  (7) 
-6.88

>  <cluster_rmsd>  (7) 
0.47

>  <rmsd>  (7) 
270.85

>  <cluster>  (7) 
1

$$$$

     RDKit          3D

 46 49  0  0  0  0  0  0  0  0999 V2000
  140.0120   74.3420  221.9080 O   0  0  0  0  0  0  0  0  0  0  0  0
  140.7960   75.0520  221.2150 C   0  0  0  0  0  0  0  0  0  0  0  0
  141.9920   74.4720  220.8560 C   0  0  0  0  0  0  0  0  0  0  0  0
  142.3700   73.2030  221.1970 C   0  0  0  0  0  0  0  0  0  0  0  0
  143.5900   72.6950  220.7950 C   0  0  0  0  0  0  0  0  0  0  0  0
  144.4290   73.4950  220.0360 C   0  0  0  0  0  0  0  0  0  0  0  0
  144.0850   74.7770  219.6730 C   0  0  0  0  0  0  0  0  0  0  0  0
  142.8560   75.2390  220.1000 C   0  0  0  0  0  0  0  0  0  0  0  0
  142.4640   76.4720  219.7810 N   0  0  0  0  0  0  0  0  0  0  0  0
  141.3020   77.0210  220.1360 C   0  0  0  0  0  0  0  0  0  0  0  0
  140.9820   78.3880  219.7230 C   0  0  0  0  0  0  0  0  0  0  0  0
  141.8050   79.3610  220.0270 C   0  0  0  0  0  0  0  0  0  0  0  0
  141.9550   79.9290  221.3620 C   0  0  0  0  0  0  0  0  0  0  0  0
  142.3480   79.1920  222.4570 C   0  0  0  0  0  0  0  0  0  0  0  0
  142.4690   79.7960  223.6850 C   0  0  0  0  0  0  0  0  0  0  0  0
  142.2140   81.1070  223.8690 N   0  0  0  0  0  0  0  0  0  0  0  0
  141.8210   81.8740  222.8090 C   0  0  0  0  0  0  0  0  0  0  0  0
  141.7000   81.2710  221.5790 C   0  0  0  0  0  0  0  0  0  0  0  0
  140.4520   76.3120  220.8610 N   0  0  0  0  0  0  0  0  0  0  0  0
  139.1680   76.7990  221.3090 C   0  0  0  0  0  0  0  0  0  0  0  0
  139.2110   77.3630  222.7230 C   0  0  0  0  0  0  0  0  0  0  0  0
  138.8670   78.8120  222.6890 C   0  0  0  0  0  0  0  0  0  0  0  0
  138.3550   79.4300  221.5660 C   0  0  0  0  0  0  0  0  0  0  0  0
  138.0470   80.7880  221.5820 C   0  0  0  0  0  0  0  0  0  0  0  0
  138.2700   81.5000  222.7570 C   0  0  0  0  0  0  0  0  0  0  0  0
  138.7790   80.8950  223.8850 C   0  0  0  0  0  0  0  0  0  0  0  0
  139.0730   79.5600  223.8420 C   0  0  0  0  0  0  0  0  0  0  0  0
  141.6938   72.5785  221.7993 H   0  0  0  0  0  0  0  0  0  0  0  0
  143.8901   71.6737  221.0724 H   0  0  0  0  0  0  0  0  0  0  0  0
  145.4006   73.0926  219.7135 H   0  0  0  0  0  0  0  0  0  0  0  0
  144.7581   75.4047  219.0705 H   0  0  0  0  0  0  0  0  0  0  0  0
  140.0588   78.5967  219.1624 H   0  0  0  0  0  0  0  0  0  0  0  0
  142.4254   79.7782  219.2201 H   0  0  0  0  0  0  0  0  0  0  0  0
  142.5652   78.1191  222.3483 H   0  0  0  0  0  0  0  0  0  0  0  0
  142.7845   79.1897  224.5469 H   0  0  0  0  0  0  0  0  0  0  0  0
  141.6070   82.9455  222.9360 H   0  0  0  0  0  0  0  0  0  0  0  0
  141.3844   81.8873  220.7243 H   0  0  0  0  0  0  0  0  0  0  0  0
  138.8347   77.5926  220.6241 H   0  0  0  0  0  0  0  0  0  0  0  0
  138.4737   75.9458  221.3139 H   0  0  0  0  0  0  0  0  0  0  0  0
  138.4853   76.8283  223.3535 H   0  0  0  0  0  0  0  0  0  0  0  0
  140.2213   77.2351  223.1388 H   0  0  0  0  0  0  0  0  0  0  0  0
  138.1887   78.8443  220.6498 H   0  0  0  0  0  0  0  0  0  0  0  0
  137.6383   81.2848  220.6897 H   0  0  0  0  0  0  0  0  0  0  0  0
  138.0336   82.5739  222.7856 H   0  0  0  0  0  0  0  0  0  0  0  0
  138.9461   81.4755  224.8043 H   0  0  0  0  0  0  0  0  0  0  0  0
  139.4806   79.0686  224.7378 H   0  0  0  0  0  0  0  0  0  0  0  0
  1  2  2  0
  2  3  1  0
  3  4  2  0
  4  5  1  0
  5  6  2  0
  6  7  1  0
  7  8  2  0
  8  9  1  0
  9 10  2  0
 10 11  1  0
 11 12  2  0
 12 13  1  0
 13 14  2  0
 14 15  1  0
 15 16  2  0
 16 17  1  0
 17 18  2  0
 10 19  1  0
 19 20  1  0
 20 21  1  0
 21 22  1  0
 22 23  2  0
 23 24  1  0
 24 25  2  0
 25 26  1  0
 26 27  2  0
 19  2  1  0
 27 22  1  0
  8  3  1  0
 18 13  1  0
  4 28  1  0
  5 29  1  0
  6 30  1  0
  7 31  1  0
 11 32  1  0
 12 33  1  0
 14 34  1  0
 15 35  1  0
 17 36  1  0
 18 37  1  0
 20 38  1  0
 20 39  1  0
 21 40  1  0
 21 41  1  0
 23 42  1  0
 24 43  1  0
 25 44  1  0
 26 45  1  0
 27 46  1  0
M  END
>  <smiles>  (8) 
O=c1c2ccccc2nc(/C=C/c2ccncc2)n1CCc1ccccc1

>  <score_type>  (8) 
oracle

>  <origin>  (8) 
autodockgpu

>  <m_score__min__energy>  (8) 
-6.9800000000000004

>  <m_primary>  (8) 
energy

>  <meeko>  (8) 
{"free_energy": -6.5, "intermolecular_energy": -8.29, "internal_energy": -2.3, "cluster_size": 7, "cluster_id": 2, "rank_in_cluster": 4}

>  <energy>  (8) 
-6.8

>  <cluster_rmsd>  (8) 
0.61

>  <rmsd>  (8) 
270.77

>  <cluster>  (8) 
1

$$$$

     RDKit          3D

 46 49  0  0  0  0  0  0  0  0999 V2000
  138.8770   68.0000  225.3450 O   0  0  0  0  0  0  0  0  0  0  0  0
  139.3940   69.1090  225.0240 C   0  0  0  0  0  0  0  0  0  0  0  0
  139.9310   69.8540  226.0490 C   0  0  0  0  0  0  0  0  0  0  0  0
  139.9390   69.4740  227.3610 C   0  0  0  0  0  0  0  0  0  0  0  0
  140.5000   70.2810  228.3310 C   0  0  0  0  0  0  0  0  0  0  0  0
  141.0590   71.4910  227.9510 C   0  0  0  0  0  0  0  0  0  0  0  0
  141.0710   71.9100  226.6400 C   0  0  0  0  0  0  0  0  0  0  0  0
  140.4970   71.0680  225.7090 C   0  0  0  0  0  0  0  0  0  0  0  0
  140.4770   71.4160  224.4230 N   0  0  0  0  0  0  0  0  0  0  0  0
  139.9520   70.6840  223.4400 C   0  0  0  0  0  0  0  0  0  0  0  0
  139.9920   71.1730  222.0620 C   0  0  0  0  0  0  0  0  0  0  0  0
  140.7530   72.1980  221.7660 C   0  0  0  0  0  0  0  0  0  0  0  0
  140.3060   73.5860  221.7660 C   0  0  0  0  0  0  0  0  0  0  0  0
  141.1590   74.6540  221.5930 C   0  0  0  0  0  0  0  0  0  0  0  0
  140.6670   75.9360  221.6040 C   0  0  0  0  0  0  0  0  0  0  0  0
  139.3580   76.2010  221.7810 N   0  0  0  0  0  0  0  0  0  0  0  0
  138.4770   75.1710  221.9570 C   0  0  0  0  0  0  0  0  0  0  0  0
  138.9690   73.8870  221.9450 C   0  0  0  0  0  0  0  0  0  0  0  0
  139.4020   69.5160  223.7330 N   0  0  0  0  0  0  0  0  0  0  0  0
  138.8000   68.6380  222.7580 C   0  0  0  0  0  0  0  0  0  0  0  0
  137.5760   69.2510  222.0880 C   0  0  0  0  0  0  0  0  0  0  0  0
  136.7320   69.9190  223.1180 C   0  0  0  0  0  0  0  0  0  0  0  0
  136.0680   69.2200  224.1060 C   0  0  0  0  0  0  0  0  0  0  0  0
  135.2900   69.8900  225.0480 C   0  0  0  0  0  0  0  0  0  0  0  0
  135.2030   71.2770  224.9630 C   0  0  0  0  0  0  0  0  0  0  0  0
  135.8610   71.9860  223.9830 C   0  0  0  0  0  0  0  0  0  0  0  0
  136.6180   71.3040  223.0710 C   0  0  0  0  0  0  0  0  0  0  0  0
  139.4920   68.5111  227.6491 H   0  0  0  0  0  0  0  0  0  0  0  0
  140.5032   69.9692  229.3859 H   0  0  0  0  0  0  0  0  0  0  0  0
  141.5069   72.1364  228.7210 H   0  0  0  0  0  0  0  0  0  0  0  0
  141.5176   72.8718  226.3476 H   0  0  0  0  0  0  0  0  0  0  0  0
  139.3892   70.6851  221.2818 H   0  0  0  0  0  0  0  0  0  0  0  0
  141.8012   71.9975  221.4992 H   0  0  0  0  0  0  0  0  0  0  0  0
  142.2351   74.4796  221.4459 H   0  0  0  0  0  0  0  0  0  0  0  0
  141.3650   76.7745  221.4636 H   0  0  0  0  0  0  0  0  0  0  0  0
  137.4041   75.3638  222.1042 H   0  0  0  0  0  0  0  0  0  0  0  0
  138.2617   73.0563  222.0852 H   0  0  0  0  0  0  0  0  0  0  0  0
  139.5466   68.4082  221.9835 H   0  0  0  0  0  0  0  0  0  0  0  0
  138.4693   67.7322  223.2872 H   0  0  0  0  0  0  0  0  0  0  0  0
  137.8984   69.9913  221.3410 H   0  0  0  0  0  0  0  0  0  0  0  0
  136.9939   68.4607  221.5914 H   0  0  0  0  0  0  0  0  0  0  0  0
  136.1538   68.1242  224.1500 H   0  0  0  0  0  0  0  0  0  0  0  0
  134.7589   69.3380  225.8375 H   0  0  0  0  0  0  0  0  0  0  0  0
  134.5922   71.8210  225.6985 H   0  0  0  0  0  0  0  0  0  0  0  0
  135.7791   73.0819  223.9346 H   0  0  0  0  0  0  0  0  0  0  0  0
  137.1472   71.8621  222.2846 H   0  0  0  0  0  0  0  0  0  0  0  0
  1  2  2  0
  2  3  1  0
  3  4  2  0
  4  5  1  0
  5  6  2  0
  6  7  1  0
  7  8  2  0
  8  9  1  0
  9 10  2  0
 10 11  1  0
 11 12  2  0
 12 13  1  0
 13 14  2  0
 14 15  1  0
 15 16  2  0
 16 17  1  0
 17 18  2  0
 10 19  1  0
 19 20  1  0
 20 21  1  0
 21 22  1  0
 22 23  2  0
 23 24  1  0
 24 25  2  0
 25 26  1  0
 26 27  2  0
 19  2  1  0
 27 22  1  0
  8  3  1  0
 18 13  1  0
  4 28  1  0
  5 29  1  0
  6 30  1  0
  7 31  1  0
 11 32  1  0
 12 33  1  0
 14 34  1  0
 15 35  1  0
 17 36  1  0
 18 37  1  0
 20 38  1  0
 20 39  1  0
 21 40  1  0
 21 41  1  0
 23 42  1  0
 24 43  1  0
 25 44  1  0
 26 45  1  0
 27 46  1  0
M  END
>  <smiles>  (9) 
O=c1c2ccccc2nc(/C=C/c2ccncc2)n1CCc1ccccc1

>  <score_type>  (9) 
oracle

>  <origin>  (9) 
autodockgpu

>  <m_score__min__energy>  (9) 
-6.9800000000000004

>  <m_primary>  (9) 
energy

>  <meeko>  (9) 
{"free_energy": -6.96, "intermolecular_energy": -8.75, "internal_energy": -1.97, "cluster_size": 13, "cluster_id": 1, "rank_in_cluster": 4}

>  <energy>  (9) 
-6.8

>  <cluster_rmsd>  (9) 
0.61

>  <rmsd>  (9) 
270.77

>  <cluster>  (9) 
1

$$$$

     RDKit          3D

 46 49  0  0  0  0  0  0  0  0999 V2000
  138.8520   67.9980  225.4010 O   0  0  0  0  0  0  0  0  0  0  0  0
  139.3690   69.1000  225.0550 C   0  0  0  0  0  0  0  0  0  0  0  0
  139.9140   69.8640  226.0620 C   0  0  0  0  0  0  0  0  0  0  0  0
  139.9290   69.5080  227.3820 C   0  0  0  0  0  0  0  0  0  0  0  0
  140.4980   70.3330  228.3320 C   0  0  0  0  0  0  0  0  0  0  0  0
  141.0570   71.5340  227.9250 C   0  0  0  0  0  0  0  0  0  0  0  0
  141.0610   71.9280  226.6070 C   0  0  0  0  0  0  0  0  0  0  0  0
  140.4800   71.0690  225.6950 C   0  0  0  0  0  0  0  0  0  0  0  0
  140.4530   71.3920  224.4030 N   0  0  0  0  0  0  0  0  0  0  0  0
  139.9200   70.6420  223.4380 C   0  0  0  0  0  0  0  0  0  0  0  0
  139.9520   71.1050  222.0500 C   0  0  0  0  0  0  0  0  0  0  0  0
  140.7010   72.1320  221.7330 C   0  0  0  0  0  0  0  0  0  0  0  0
  140.2530   73.5190  221.7520 C   0  0  0  0  0  0  0  0  0  0  0  0
  141.1040   74.5900  221.5890 C   0  0  0  0  0  0  0  0  0  0  0  0
  140.6100   75.8720  221.6180 C   0  0  0  0  0  0  0  0  0  0  0  0
  139.3010   76.1330  221.8040 N   0  0  0  0  0  0  0  0  0  0  0  0
  138.4230   75.1000  221.9710 C   0  0  0  0  0  0  0  0  0  0  0  0
  138.9160   73.8160  221.9410 C   0  0  0  0  0  0  0  0  0  0  0  0
  139.3700   69.4820  223.7570 N   0  0  0  0  0  0  0  0  0  0  0  0
  138.7600   68.5870  222.8020 C   0  0  0  0  0  0  0  0  0  0  0  0
  137.5350   69.1900  222.1260 C   0  0  0  0  0  0  0  0  0  0  0  0
  136.7000   69.8850  223.1440 C   0  0  0  0  0  0  0  0  0  0  0  0
  136.0430   69.2120  224.1550 C   0  0  0  0  0  0  0  0  0  0  0  0
  135.2730   69.9070  225.0860 C   0  0  0  0  0  0  0  0  0  0  0  0
  135.1870   71.2910  224.9670 C   0  0  0  0  0  0  0  0  0  0  0  0
  135.8390   71.9740  223.9640 C   0  0  0  0  0  0  0  0  0  0  0  0
  136.5870   71.2680  223.0640 C   0  0  0  0  0  0  0  0  0  0  0  0
  139.4819   68.5518  227.6913 H   0  0  0  0  0  0  0  0  0  0  0  0
  140.5074   70.0421  229.3928 H   0  0  0  0  0  0  0  0  0  0  0  0
  141.5117   72.1928  228.6794 H   0  0  0  0  0  0  0  0  0  0  0  0
  141.5067   72.8837  226.2938 H   0  0  0  0  0  0  0  0  0  0  0  0
  139.3531   70.5957  221.2806 H   0  0  0  0  0  0  0  0  0  0  0  0
  141.7402   71.9339  221.4316 H   0  0  0  0  0  0  0  0  0  0  0  0
  142.1797   74.4188  221.4355 H   0  0  0  0  0  0  0  0  0  0  0  0
  141.3062   76.7132  221.4849 H   0  0  0  0  0  0  0  0  0  0  0  0
  137.3505   75.2897  222.1253 H   0  0  0  0  0  0  0  0  0  0  0  0
  138.2102   72.9829  222.0742 H   0  0  0  0  0  0  0  0  0  0  0  0
  139.5020   68.3396  222.0286 H   0  0  0  0  0  0  0  0  0  0  0  0
  138.4288   67.6931  223.3508 H   0  0  0  0  0  0  0  0  0  0  0  0
  137.8563   69.9115  221.3603 H   0  0  0  0  0  0  0  0  0  0  0  0
  136.9465   68.3908  221.6517 H   0  0  0  0  0  0  0  0  0  0  0  0
  136.1281   68.1176  224.2263 H   0  0  0  0  0  0  0  0  0  0  0  0
  134.7473   69.3759  225.8932 H   0  0  0  0  0  0  0  0  0  0  0  0
  134.5824   71.8543  225.6930 H   0  0  0  0  0  0  0  0  0  0  0  0
  135.7590   73.0685  223.8888 H   0  0  0  0  0  0  0  0  0  0  0  0
  137.1105   71.8055  222.2596 H   0  0  0  0  0  0  0  0  0  0  0  0
  1  2  2  0
  2  3  1  0
  3  4  2  0
  4  5  1  0
  5  6  2  0
  6  7  1  0
  7  8  2  0
  8  9  1  0
  9 10  2  0
 10 11  1  0
 11 12  2  0
 12 13  1  0
 13 14  2  0
 14 15  1  0
 15 16  2  0
 16 17  1  0
 17 18  2  0
 10 19  1  0
 19 20  1  0
 20 21  1  0
 21 22  1  0
 22 23  2  0
 23 24  1  0
 24 25  2  0
 25 26  1  0
 26 27  2  0
 19  2  1  0
 27 22  1  0
  8  3  1  0
 18 13  1  0
  4 28  1  0
  5 29  1  0
  6 30  1  0
  7 31  1  0
 11 32  1  0
 12 33  1  0
 14 34  1  0
 15 35  1  0
 17 36  1  0
 18 37  1  0
 20 38  1  0
 20 39  1  0
 21 40  1  0
 21 41  1  0
 23 42  1  0
 24 43  1  0
 25 44  1  0
 26 45  1  0
 27 46  1  0
M  END
>  <smiles>  (10) 
O=c1c2ccccc2nc(/C=C/c2ccncc2)n1CCc1ccccc1

>  <score_type>  (10) 
oracle

>  <origin>  (10) 
autodockgpu

>  <m_score__min__energy>  (10) 
-6.9800000000000004

>  <m_primary>  (10) 
energy

>  <meeko>  (10) 
{"free_energy": -6.94, "intermolecular_energy": -8.73, "internal_energy": -1.99, "cluster_size": 13, "cluster_id": 1, "rank_in_cluster": 5}

>  <energy>  (10) 
-6.77

>  <cluster_rmsd>  (10) 
0.61

>  <rmsd>  (10) 
270.78

>  <cluster>  (10) 
1

$$$$

     RDKit          3D

 46 49  0  0  0  0  0  0  0  0999 V2000
  139.9700   74.3730  221.8870 O   0  0  0  0  0  0  0  0  0  0  0  0
  140.7620   75.0790  221.1990 C   0  0  0  0  0  0  0  0  0  0  0  0
  141.9600   74.4960  220.8520 C   0  0  0  0  0  0  0  0  0  0  0  0
  142.3330   73.2280  221.2000 C   0  0  0  0  0  0  0  0  0  0  0  0
  143.5550   72.7160  220.8110 C   0  0  0  0  0  0  0  0  0  0  0  0
  144.4030   73.5120  220.0580 C   0  0  0  0  0  0  0  0  0  0  0  0
  144.0640   74.7930  219.6870 C   0  0  0  0  0  0  0  0  0  0  0  0
  142.8320   75.2590  220.1010 C   0  0  0  0  0  0  0  0  0  0  0  0
  142.4450   76.4920  219.7750 N   0  0  0  0  0  0  0  0  0  0  0  0
  141.2810   77.0440  220.1180 C   0  0  0  0  0  0  0  0  0  0  0  0
  140.9670   78.4100  219.6970 C   0  0  0  0  0  0  0  0  0  0  0  0
  141.8060   79.3770  219.9770 C   0  0  0  0  0  0  0  0  0  0  0  0
  141.9430   79.9990  221.2880 C   0  0  0  0  0  0  0  0  0  0  0  0
  141.6720   81.3290  221.5250 C   0  0  0  0  0  0  0  0  0  0  0  0
  141.8220   81.8470  222.7880 C   0  0  0  0  0  0  0  0  0  0  0  0
  142.2330   81.0950  223.8290 N   0  0  0  0  0  0  0  0  0  0  0  0
  142.5130   79.7720  223.6370 C   0  0  0  0  0  0  0  0  0  0  0  0
  142.3620   79.2520  222.3730 C   0  0  0  0  0  0  0  0  0  0  0  0
  140.4240   76.3380  220.8370 N   0  0  0  0  0  0  0  0  0  0  0  0
  139.1370   76.8290  221.2720 C   0  0  0  0  0  0  0  0  0  0  0  0
  139.1440   77.3060  222.7190 C   0  0  0  0  0  0  0  0  0  0  0  0
  138.8550   78.7670  222.7600 C   0  0  0  0  0  0  0  0  0  0  0  0
  139.1170   79.5470  223.8690 C   0  0  0  0  0  0  0  0  0  0  0  0
  138.8300   80.9100  223.8600 C   0  0  0  0  0  0  0  0  0  0  0  0
  138.2750   81.4590  222.7070 C   0  0  0  0  0  0  0  0  0  0  0  0
  138.0100   80.6910  221.5940 C   0  0  0  0  0  0  0  0  0  0  0  0
  138.3020   79.3560  221.6290 C   0  0  0  0  0  0  0  0  0  0  0  0
  141.6503   72.6067  221.7982 H   0  0  0  0  0  0  0  0  0  0  0  0
  143.8499   71.6947  221.0938 H   0  0  0  0  0  0  0  0  0  0  0  0
  145.3775   73.1074  219.7471 H   0  0  0  0  0  0  0  0  0  0  0  0
  144.7434   75.4172  219.0880 H   0  0  0  0  0  0  0  0  0  0  0  0
  140.0361   78.6229  219.1510 H   0  0  0  0  0  0  0  0  0  0  0  0
  142.4518   79.7449  219.1661 H   0  0  0  0  0  0  0  0  0  0  0  0
  141.3352   81.9764  220.7019 H   0  0  0  0  0  0  0  0  0  0  0  0
  141.5994   82.9111  222.9560 H   0  0  0  0  0  0  0  0  0  0  0  0
  142.8503   79.1394  224.4713 H   0  0  0  0  0  0  0  0  0  0  0  0
  142.5862   78.1864  222.2172 H   0  0  0  0  0  0  0  0  0  0  0  0
  138.8455   77.6704  220.6262 H   0  0  0  0  0  0  0  0  0  0  0  0
  138.4239   75.9943  221.2024 H   0  0  0  0  0  0  0  0  0  0  0  0
  138.3745   76.7636  223.2879 H   0  0  0  0  0  0  0  0  0  0  0  0
  140.1314   77.1142  223.1643 H   0  0  0  0  0  0  0  0  0  0  0  0
  139.5561   79.0881  224.7671 H   0  0  0  0  0  0  0  0  0  0  0  0
  139.0364   81.5362  224.7405 H   0  0  0  0  0  0  0  0  0  0  0  0
  138.0420   82.5338  222.6840 H   0  0  0  0  0  0  0  0  0  0  0  0
  137.5711   81.1443  220.6930 H   0  0  0  0  0  0  0  0  0  0  0  0
  138.0952   78.7356  220.7445 H   0  0  0  0  0  0  0  0  0  0  0  0
  1  2  2  0
  2  3  1  0
  3  4  2  0
  4  5  1  0
  5  6  2  0
  6  7  1  0
  7  8  2  0
  8  9  1  0
  9 10  2  0
 10 11  1  0
 11 12  2  0
 12 13  1  0
 13 14  2  0
 14 15  1  0
 15 16  2  0
 16 17  1  0
 17 18  2  0
 10 19  1  0
 19 20  1  0
 20 21  1  0
 21 22  1  0
 22 23  2  0
 23 24  1  0
 24 25  2  0
 25 26  1  0
 26 27  2  0
 19  2  1  0
 27 22  1  0
  8  3  1  0
 18 13  1  0
  4 28  1  0
  5 29  1  0
  6 30  1  0
  7 31  1  0
 11 32  1  0
 12 33  1  0
 14 34  1  0
 15 35  1  0
 17 36  1  0
 18 37  1  0
 20 38  1  0
 20 39  1  0
 21 40  1  0
 21 41  1  0
 23 42  1  0
 24 43  1  0
 25 44  1  0
 26 45  1  0
 27 46  1  0
M  END
>  <smiles>  (11) 
O=c1c2ccccc2nc(/C=C/c2ccncc2)n1CCc1ccccc1

>  <score_type>  (11) 
oracle

>  <origin>  (11) 
autodockgpu

>  <m_score__min__energy>  (11) 
-6.9800000000000004

>  <m_primary>  (11) 
energy

>  <meeko>  (11) 
{"free_energy": -6.47, "intermolecular_energy": -8.26, "internal_energy": -2.31, "cluster_size": 7, "cluster_id": 2, "rank_in_cluster": 5}

>  <energy>  (11) 
-6.75

>  <cluster_rmsd>  (11) 
0.61

>  <rmsd>  (11) 
270.78

>  <cluster>  (11) 
1

$$$$

     RDKit          3D

 46 49  0  0  0  0  0  0  0  0999 V2000
  140.0320   74.3640  221.9260 O   0  0  0  0  0  0  0  0  0  0  0  0
  140.8120   75.0610  221.2160 C   0  0  0  0  0  0  0  0  0  0  0  0
  142.0010   74.4720  220.8510 C   0  0  0  0  0  0  0  0  0  0  0  0
  142.3780   73.2060  221.2040 C   0  0  0  0  0  0  0  0  0  0  0  0
  143.5910   72.6880  220.7950 C   0  0  0  0  0  0  0  0  0  0  0  0
  144.4250   73.4740  220.0170 C   0  0  0  0  0  0  0  0  0  0  0  0
  144.0830   74.7530  219.6410 C   0  0  0  0  0  0  0  0  0  0  0  0
  142.8600   75.2260  220.0750 C   0  0  0  0  0  0  0  0  0  0  0  0
  142.4690   76.4560  219.7450 N   0  0  0  0  0  0  0  0  0  0  0  0
  141.3140   77.0150  220.1060 C   0  0  0  0  0  0  0  0  0  0  0  0
  140.9950   78.3770  219.6780 C   0  0  0  0  0  0  0  0  0  0  0  0
  141.8190   79.3520  219.9710 C   0  0  0  0  0  0  0  0  0  0  0  0
  141.9350   79.9690  221.2880 C   0  0  0  0  0  0  0  0  0  0  0  0
  141.6710   81.3000  221.5240 C   0  0  0  0  0  0  0  0  0  0  0  0
  141.8010   81.8130  222.7920 C   0  0  0  0  0  0  0  0  0  0  0  0
  142.1840   81.0530  223.8370 N   0  0  0  0  0  0  0  0  0  0  0  0
  142.4570   79.7290  223.6470 C   0  0  0  0  0  0  0  0  0  0  0  0
  142.3260   79.2140  222.3780 C   0  0  0  0  0  0  0  0  0  0  0  0
  140.4690   76.3180  220.8490 N   0  0  0  0  0  0  0  0  0  0  0  0
  139.1920   76.8160  221.3040 C   0  0  0  0  0  0  0  0  0  0  0  0
  139.2490   77.3810  222.7180 C   0  0  0  0  0  0  0  0  0  0  0  0
  138.8780   78.8230  222.6900 C   0  0  0  0  0  0  0  0  0  0  0  0
  138.3690   79.4400  221.5650 C   0  0  0  0  0  0  0  0  0  0  0  0
  138.0360   80.7930  221.5880 C   0  0  0  0  0  0  0  0  0  0  0  0
  138.2300   81.4990  222.7720 C   0  0  0  0  0  0  0  0  0  0  0  0
  138.7350   80.8950  223.9010 C   0  0  0  0  0  0  0  0  0  0  0  0
  139.0550   79.5660  223.8520 C   0  0  0  0  0  0  0  0  0  0  0  0
  141.7062   72.5920  221.8219 H   0  0  0  0  0  0  0  0  0  0  0  0
  143.8897   71.6690  221.0820 H   0  0  0  0  0  0  0  0  0  0  0  0
  145.3913   73.0629  219.6893 H   0  0  0  0  0  0  0  0  0  0  0  0
  144.7525   75.3699  219.0236 H   0  0  0  0  0  0  0  0  0  0  0  0
  140.0719   78.5804  219.1154 H   0  0  0  0  0  0  0  0  0  0  0  0
  142.4685   79.7319  219.1686 H   0  0  0  0  0  0  0  0  0  0  0  0
  141.3558   81.9529  220.6967 H   0  0  0  0  0  0  0  0  0  0  0  0
  141.5855   82.8786  222.9597 H   0  0  0  0  0  0  0  0  0  0  0  0
  142.7731   79.0913  224.4857 H   0  0  0  0  0  0  0  0  0  0  0  0
  142.5435   78.1469  222.2228 H   0  0  0  0  0  0  0  0  0  0  0  0
  138.8612   77.6119  220.6205 H   0  0  0  0  0  0  0  0  0  0  0  0
  138.4903   75.9690  221.3136 H   0  0  0  0  0  0  0  0  0  0  0  0
  138.5442   76.8332  223.3608 H   0  0  0  0  0  0  0  0  0  0  0  0
  140.2684   77.2716  223.1165 H   0  0  0  0  0  0  0  0  0  0  0  0
  138.2250   78.8587  220.6423 H   0  0  0  0  0  0  0  0  0  0  0  0
  137.6306   81.2899  220.6943 H   0  0  0  0  0  0  0  0  0  0  0  0
  137.9729   82.5680  222.8062 H   0  0  0  0  0  0  0  0  0  0  0  0
  138.8788   81.4712  224.8269 H   0  0  0  0  0  0  0  0  0  0  0  0
  139.4602   79.0754  224.7493 H   0  0  0  0  0  0  0  0  0  0  0  0
  1  2  2  0
  2  3  1  0
  3  4  2  0
  4  5  1  0
  5  6  2  0
  6  7  1  0
  7  8  2  0
  8  9  1  0
  9 10  2  0
 10 11  1  0
 11 12  2  0
 12 13  1  0
 13 14  2  0
 14 15  1  0
 15 16  2  0
 16 17  1  0
 17 18  2  0
 10 19  1  0
 19 20  1  0
 20 21  1  0
 21 22  1  0
 22 23  2  0
 23 24  1  0
 24 25  2  0
 25 26  1  0
 26 27  2  0
 19  2  1  0
 27 22  1  0
  8  3  1  0
 18 13  1  0
  4 28  1  0
  5 29  1  0
  6 30  1  0
  7 31  1  0
 11 32  1  0
 12 33  1  0
 14 34  1  0
 15 35  1  0
 17 36  1  0
 18 37  1  0
 20 38  1  0
 20 39  1  0
 21 40  1  0
 21 41  1  0
 23 42  1  0
 24 43  1  0
 25 44  1  0
 26 45  1  0
 27 46  1  0
M  END
>  <smiles>  (12) 
O=c1c2ccccc2nc(/C=C/c2ccncc2)n1CCc1ccccc1

>  <score_type>  (12) 
oracle

>  <origin>  (12) 
autodockgpu

>  <m_score__min__energy>  (12) 
-6.9800000000000004

>  <m_primary>  (12) 
energy

>  <meeko>  (12) 
{"free_energy": -6.5, "intermolecular_energy": -8.29, "internal_energy": -2.31, "cluster_size": 7, "cluster_id": 2, "rank_in_cluster": 3}

>  <energy>  (12) 
-6.74

>  <cluster_rmsd>  (12) 
0.61

>  <rmsd>  (12) 
270.76

>  <cluster>  (12) 
1

$$$$

     RDKit          3D

 46 49  0  0  0  0  0  0  0  0999 V2000
  138.8570   68.0160  225.3630 O   0  0  0  0  0  0  0  0  0  0  0  0
  139.3690   69.1250  225.0350 C   0  0  0  0  0  0  0  0  0  0  0  0
  139.9030   69.8790  226.0560 C   0  0  0  0  0  0  0  0  0  0  0  0
  139.9110   69.5060  227.3710 C   0  0  0  0  0  0  0  0  0  0  0  0
  140.4690   70.3220  228.3360 C   0  0  0  0  0  0  0  0  0  0  0  0
  141.0240   71.5310  227.9480 C   0  0  0  0  0  0  0  0  0  0  0  0
  141.0350   71.9420  226.6350 C   0  0  0  0  0  0  0  0  0  0  0  0
  140.4650   71.0920  225.7080 C   0  0  0  0  0  0  0  0  0  0  0  0
  140.4450   71.4320  224.4200 N   0  0  0  0  0  0  0  0  0  0  0  0
  139.9240   70.6910  223.4420 C   0  0  0  0  0  0  0  0  0  0  0  0
  139.9630   71.1720  222.0610 C   0  0  0  0  0  0  0  0  0  0  0  0
  140.7400   72.1800  221.7530 C   0  0  0  0  0  0  0  0  0  0  0  0
  140.3250   73.5780  221.7650 C   0  0  0  0  0  0  0  0  0  0  0  0
  141.1960   74.6270  221.5700 C   0  0  0  0  0  0  0  0  0  0  0  0
  140.7330   75.9200  221.5930 C   0  0  0  0  0  0  0  0  0  0  0  0
  139.4340   76.2130  221.8030 N   0  0  0  0  0  0  0  0  0  0  0  0
  138.5360   75.2030  222.0010 C   0  0  0  0  0  0  0  0  0  0  0  0
  138.9990   73.9080  221.9780 C   0  0  0  0  0  0  0  0  0  0  0  0
  139.3780   69.5240  223.7420 N   0  0  0  0  0  0  0  0  0  0  0  0
  138.7800   68.6370  222.7710 C   0  0  0  0  0  0  0  0  0  0  0  0
  137.2570   68.6450  222.8240 C   0  0  0  0  0  0  0  0  0  0  0  0
  136.7730   70.0490  222.9420 C   0  0  0  0  0  0  0  0  0  0  0  0
  136.4420   70.6240  224.1530 C   0  0  0  0  0  0  0  0  0  0  0  0
  135.9940   71.9420  224.2140 C   0  0  0  0  0  0  0  0  0  0  0  0
  135.8910   72.6570  223.0240 C   0  0  0  0  0  0  0  0  0  0  0  0
  136.2200   72.0960  221.8100 C   0  0  0  0  0  0  0  0  0  0  0  0
  136.6570   70.8000  221.7790 C   0  0  0  0  0  0  0  0  0  0  0  0
  139.4672   68.5433  227.6647 H   0  0  0  0  0  0  0  0  0  0  0  0
  140.4727   70.0176  229.3930 H   0  0  0  0  0  0  0  0  0  0  0  0
  141.4698   72.1827  228.7139 H   0  0  0  0  0  0  0  0  0  0  0  0
  141.4777   72.9040  226.3373 H   0  0  0  0  0  0  0  0  0  0  0  0
  139.3452   70.6912  221.2883 H   0  0  0  0  0  0  0  0  0  0  0  0
  141.7780   71.9568  221.4652 H   0  0  0  0  0  0  0  0  0  0  0  0
  142.2639   74.4290  221.3956 H   0  0  0  0  0  0  0  0  0  0  0  0
  141.4453   76.7432  221.4349 H   0  0  0  0  0  0  0  0  0  0  0  0
  137.4715   75.4194  222.1742 H   0  0  0  0  0  0  0  0  0  0  0  0
  138.2775   73.0930  222.1372 H   0  0  0  0  0  0  0  0  0  0  0  0
  139.0985   68.9501  221.7657 H   0  0  0  0  0  0  0  0  0  0  0  0
  139.1145   67.6155  223.0049 H   0  0  0  0  0  0  0  0  0  0  0  0
  136.8555   68.1945  221.9043 H   0  0  0  0  0  0  0  0  0  0  0  0
  136.9168   68.0648  223.6944 H   0  0  0  0  0  0  0  0  0  0  0  0
  136.5328   70.0361  225.0782 H   0  0  0  0  0  0  0  0  0  0  0  0
  135.7290   72.4048  225.1761 H   0  0  0  0  0  0  0  0  0  0  0  0
  135.5373   73.6981  223.0541 H   0  0  0  0  0  0  0  0  0  0  0  0
  136.1329   72.6797  220.8817 H   0  0  0  0  0  0  0  0  0  0  0  0
  136.9218   70.3434  220.8139 H   0  0  0  0  0  0  0  0  0  0  0  0
  1  2  2  0
  2  3  1  0
  3  4  2  0
  4  5  1  0
  5  6  2  0
  6  7  1  0
  7  8  2  0
  8  9  1  0
  9 10  2  0
 10 11  1  0
 11 12  2  0
 12 13  1  0
 13 14  2  0
 14 15  1  0
 15 16  2  0
 16 17  1  0
 17 18  2  0
 10 19  1  0
 19 20  1  0
 20 21  1  0
 21 22  1  0
 22 23  2  0
 23 24  1  0
 24 25  2  0
 25 26  1  0
 26 27  2  0
 19  2  1  0
 27 22  1  0
  8  3  1  0
 18 13  1  0
  4 28  1  0
  5 29  1  0
  6 30  1  0
  7 31  1  0
 11 32  1  0
 12 33  1  0
 14 34  1  0
 15 35  1  0
 17 36  1  0
 18 37  1  0
 20 38  1  0
 20 39  1  0
 21 40  1  0
 21 41  1  0
 23 42  1  0
 24 43  1  0
 25 44  1  0
 26 45  1  0
 27 46  1  0
M  END
>  <smiles>  (13) 
O=c1c2ccccc2nc(/C=C/c2ccncc2)n1CCc1ccccc1

>  <score_type>  (13) 
oracle

>  <origin>  (13) 
autodockgpu

>  <m_score__min__energy>  (13) 
-6.9800000000000004

>  <m_primary>  (13) 
energy

>  <meeko>  (13) 
{"free_energy": -6.74, "intermolecular_energy": -8.53, "internal_energy": -2.18, "cluster_size": 13, "cluster_id": 1, "rank_in_cluster": 12}

>  <energy>  (13) 
-6.69

>  <cluster_rmsd>  (13) 
0.5

>  <rmsd>  (13) 
270.76

>  <cluster>  (13) 
1

$$$$

     RDKit          3D

 46 49  0  0  0  0  0  0  0  0999 V2000
  138.8140   68.0120  225.3410 O   0  0  0  0  0  0  0  0  0  0  0  0
  139.3290   69.1230  225.0260 C   0  0  0  0  0  0  0  0  0  0  0  0
  139.8660   69.8640  226.0550 C   0  0  0  0  0  0  0  0  0  0  0  0
  139.8730   69.4760  227.3660 C   0  0  0  0  0  0  0  0  0  0  0  0
  140.4330   70.2790  228.3390 C   0  0  0  0  0  0  0  0  0  0  0  0
  140.9910   71.4910  227.9660 C   0  0  0  0  0  0  0  0  0  0  0  0
  141.0030   71.9180  226.6570 C   0  0  0  0  0  0  0  0  0  0  0  0
  140.4310   71.0790  225.7210 C   0  0  0  0  0  0  0  0  0  0  0  0
  140.4110   71.4340  224.4370 N   0  0  0  0  0  0  0  0  0  0  0  0
  139.8870   70.7060  223.4500 C   0  0  0  0  0  0  0  0  0  0  0  0
  139.9270   71.2020  222.0750 C   0  0  0  0  0  0  0  0  0  0  0  0
  140.6830   72.2330  221.7850 C   0  0  0  0  0  0  0  0  0  0  0  0
  140.2260   73.6180  221.7810 C   0  0  0  0  0  0  0  0  0  0  0  0
  141.0720   74.6910  221.6070 C   0  0  0  0  0  0  0  0  0  0  0  0
  140.5710   75.9700  221.6140 C   0  0  0  0  0  0  0  0  0  0  0  0
  139.2590   76.2260  221.7880 N   0  0  0  0  0  0  0  0  0  0  0  0
  138.3850   75.1900  221.9630 C   0  0  0  0  0  0  0  0  0  0  0  0
  138.8870   73.9090  221.9560 C   0  0  0  0  0  0  0  0  0  0  0  0
  139.3380   69.5370  223.7370 N   0  0  0  0  0  0  0  0  0  0  0  0
  138.7380   68.6630  222.7570 C   0  0  0  0  0  0  0  0  0  0  0  0
  137.5160   69.2790  222.0870 C   0  0  0  0  0  0  0  0  0  0  0  0
  136.6680   69.9420  223.1170 C   0  0  0  0  0  0  0  0  0  0  0  0
  136.5490   71.3140  223.2150 C   0  0  0  0  0  0  0  0  0  0  0  0
  135.7430   71.8870  224.1960 C   0  0  0  0  0  0  0  0  0  0  0  0
  135.0640   71.0410  225.0690 C   0  0  0  0  0  0  0  0  0  0  0  0
  135.1730   69.6710  224.9800 C   0  0  0  0  0  0  0  0  0  0  0  0
  135.9720   69.1340  224.0090 C   0  0  0  0  0  0  0  0  0  0  0  0
  139.4265   68.5113  227.6490 H   0  0  0  0  0  0  0  0  0  0  0  0
  140.4362   69.9621  229.3924 H   0  0  0  0  0  0  0  0  0  0  0  0
  141.4384   72.1322  228.7397 H   0  0  0  0  0  0  0  0  0  0  0  0
  141.4475   72.8824  226.3702 H   0  0  0  0  0  0  0  0  0  0  0  0
  139.3284   70.7146  221.2914 H   0  0  0  0  0  0  0  0  0  0  0  0
  141.7347   72.0402  221.5268 H   0  0  0  0  0  0  0  0  0  0  0  0
  142.1495   74.5236  221.4623 H   0  0  0  0  0  0  0  0  0  0  0  0
  141.2633   76.8131  221.4730 H   0  0  0  0  0  0  0  0  0  0  0  0
  137.3101   75.3752  222.1055 H   0  0  0  0  0  0  0  0  0  0  0  0
  138.1858   73.0733  222.0970 H   0  0  0  0  0  0  0  0  0  0  0  0
  139.4863   68.4361  221.9833 H   0  0  0  0  0  0  0  0  0  0  0  0
  138.4060   67.7550  223.2817 H   0  0  0  0  0  0  0  0  0  0  0  0
  137.8406   70.0230  221.3446 H   0  0  0  0  0  0  0  0  0  0  0  0
  136.9356   68.4906  221.5855 H   0  0  0  0  0  0  0  0  0  0  0  0
  137.0954   71.9602  222.5123 H   0  0  0  0  0  0  0  0  0  0  0  0
  135.6454   72.9795  224.2789 H   0  0  0  0  0  0  0  0  0  0  0  0
  134.4242   71.4781  225.8497 H   0  0  0  0  0  0  0  0  0  0  0  0
  134.6266   69.0199  225.6782 H   0  0  0  0  0  0  0  0  0  0  0  0
  136.0660   68.0407  223.9320 H   0  0  0  0  0  0  0  0  0  0  0  0
  1  2  2  0
  2  3  1  0
  3  4  2  0
  4  5  1  0
  5  6  2  0
  6  7  1  0
  7  8  2  0
  8  9  1  0
  9 10  2  0
 10 11  1  0
 11 12  2  0
 12 13  1  0
 13 14  2  0
 14 15  1  0
 15 16  2  0
 16 17  1  0
 17 18  2  0
 10 19  1  0
 19 20  1  0
 20 21  1  0
 21 22  1  0
 22 23  2  0
 23 24  1  0
 24 25  2  0
 25 26  1  0
 26 27  2  0
 19  2  1  0
 27 22  1  0
  8  3  1  0
 18 13  1  0
  4 28  1  0
  5 29  1  0
  6 30  1  0
  7 31  1  0
 11 32  1  0
 12 33  1  0
 14 34  1  0
 15 35  1  0
 17 36  1  0
 18 37  1  0
 20 38  1  0
 20 39  1  0
 21 40  1  0
 21 41  1  0
 23 42  1  0
 24 43  1  0
 25 44  1  0
 26 45  1  0
 27 46  1  0
M  END
>  <smiles>  (14) 
O=c1c2ccccc2nc(/C=C/c2ccncc2)n1CCc1ccccc1

>  <score_type>  (14) 
oracle

>  <origin>  (14) 
autodockgpu

>  <m_score__min__energy>  (14) 
-6.9800000000000004

>  <m_primary>  (14) 
energy

>  <meeko>  (14) 
{"free_energy": -6.97, "intermolecular_energy": -8.76, "internal_energy": -1.95, "cluster_size": 13, "cluster_id": 1, "rank_in_cluster": 3}

>  <energy>  (14) 
-6.85

>  <cluster_rmsd>  (14) 
0.0

>  <rmsd>  (14) 
271.39

>  <cluster>  (14) 
2

$$$$

     RDKit          3D

 46 49  0  0  0  0  0  0  0  0999 V2000
  138.8550   67.9520  225.4110 O   0  0  0  0  0  0  0  0  0  0  0  0
  139.3640   69.0580  225.0670 C   0  0  0  0  0  0  0  0  0  0  0  0
  139.9030   69.8250  226.0740 C   0  0  0  0  0  0  0  0  0  0  0  0
  139.9210   69.4680  227.3940 C   0  0  0  0  0  0  0  0  0  0  0  0
  140.4830   70.2960  228.3450 C   0  0  0  0  0  0  0  0  0  0  0  0
  141.0340   71.5010  227.9390 C   0  0  0  0  0  0  0  0  0  0  0  0
  141.0360   71.8960  226.6210 C   0  0  0  0  0  0  0  0  0  0  0  0
  140.4610   71.0340  225.7090 C   0  0  0  0  0  0  0  0  0  0  0  0
  140.4320   71.3590  224.4160 N   0  0  0  0  0  0  0  0  0  0  0  0
  139.9050   70.6050  223.4510 C   0  0  0  0  0  0  0  0  0  0  0  0
  139.9340   71.0690  222.0630 C   0  0  0  0  0  0  0  0  0  0  0  0
  140.6610   72.1140  221.7500 C   0  0  0  0  0  0  0  0  0  0  0  0
  140.1830   73.4910  221.7730 C   0  0  0  0  0  0  0  0  0  0  0  0
  138.8610   73.8280  221.9620 C   0  0  0  0  0  0  0  0  0  0  0  0
  138.4820   75.1480  221.9730 C   0  0  0  0  0  0  0  0  0  0  0  0
  139.3670   76.1500  221.8010 N   0  0  0  0  0  0  0  0  0  0  0  0
  140.6880   75.8600  221.6100 C   0  0  0  0  0  0  0  0  0  0  0  0
  141.0680   74.5380  221.6000 C   0  0  0  0  0  0  0  0  0  0  0  0
  139.3630   69.4410  223.7690 N   0  0  0  0  0  0  0  0  0  0  0  0
  138.7600   68.5420  222.8130 C   0  0  0  0  0  0  0  0  0  0  0  0
  137.5300   69.1370  222.1370 C   0  0  0  0  0  0  0  0  0  0  0  0
  136.6830   69.8140  223.1580 C   0  0  0  0  0  0  0  0  0  0  0  0
  136.5820   71.1880  223.2510 C   0  0  0  0  0  0  0  0  0  0  0  0
  135.7750   71.7760  224.2230 C   0  0  0  0  0  0  0  0  0  0  0  0
  135.0790   70.9410  225.0940 C   0  0  0  0  0  0  0  0  0  0  0  0
  135.1710   69.5700  225.0110 C   0  0  0  0  0  0  0  0  0  0  0  0
  135.9700   69.0180  224.0470 C   0  0  0  0  0  0  0  0  0  0  0  0
  139.4816   68.5078  227.7023 H   0  0  0  0  0  0  0  0  0  0  0  0
  140.4933   70.0046  229.4057 H   0  0  0  0  0  0  0  0  0  0  0  0
  141.4839   72.1624  228.6941 H   0  0  0  0  0  0  0  0  0  0  0  0
  141.4756   72.8547  226.3084 H   0  0  0  0  0  0  0  0  0  0  0  0
  139.3515   70.5460  221.2902 H   0  0  0  0  0  0  0  0  0  0  0  0
  141.7045   71.9397  221.4490 H   0  0  0  0  0  0  0  0  0  0  0  0
  138.1079   73.0390  222.1043 H   0  0  0  0  0  0  0  0  0  0  0  0
  137.4214   75.3957  222.1273 H   0  0  0  0  0  0  0  0  0  0  0  0
  141.4277   76.6617  221.4681 H   0  0  0  0  0  0  0  0  0  0  0  0
  142.1314   74.3021  221.4464 H   0  0  0  0  0  0  0  0  0  0  0  0
  139.5040   68.3008  222.0395 H   0  0  0  0  0  0  0  0  0  0  0  0
  138.4355   67.6450  223.3608 H   0  0  0  0  0  0  0  0  0  0  0  0
  137.8459   69.8686  221.3787 H   0  0  0  0  0  0  0  0  0  0  0  0
  136.9525   68.3352  221.6537 H   0  0  0  0  0  0  0  0  0  0  0  0
  137.1438   71.8243  222.5513 H   0  0  0  0  0  0  0  0  0  0  0  0
  135.6899   72.8700  224.3004 H   0  0  0  0  0  0  0  0  0  0  0  0
  134.4390   71.3889  225.8685 H   0  0  0  0  0  0  0  0  0  0  0  0
  134.6115   68.9288  225.7081 H   0  0  0  0  0  0  0  0  0  0  0  0
  136.0496   67.9233  223.9741 H   0  0  0  0  0  0  0  0  0  0  0  0
  1  2  2  0
  2  3  1  0
  3  4  2  0
  4  5  1  0
  5  6  2  0
  6  7  1  0
  7  8  2  0
  8  9  1  0
  9 10  2  0
 10 11  1  0
 11 12  2  0
 12 13  1  0
 13 14  2  0
 14 15  1  0
 15 16  2  0
 16 17  1  0
 17 18  2  0
 10 19  1  0
 19 20  1  0
 20 21  1  0
 21 22  1  0
 22 23  2  0
 23 24  1  0
 24 25  2  0
 25 26  1  0
 26 27  2  0
 19  2  1  0
 27 22  1  0
  8  3  1  0
 18 13  1  0
  4 28  1  0
  5 29  1  0
  6 30  1  0
  7 31  1  0
 11 32  1  0
 12 33  1  0
 14 34  1  0
 15 35  1  0
 17 36  1  0
 18 37  1  0
 20 38  1  0
 20 39  1  0
 21 40  1  0
 21 41  1  0
 23 42  1  0
 24 43  1  0
 25 44  1  0
 26 45  1  0
 27 46  1  0
M  END
>  <smiles>  (15) 
O=c1c2ccccc2nc(/C=C/c2ccncc2)n1CCc1ccccc1

>  <score_type>  (15) 
oracle

>  <origin>  (15) 
autodockgpu

>  <m_score__min__energy>  (15) 
-6.9800000000000004

>  <m_primary>  (15) 
energy

>  <meeko>  (15) 
{"free_energy": -6.98, "intermolecular_energy": -8.77, "internal_energy": -1.95, "cluster_size": 13, "cluster_id": 1, "rank_in_cluster": 1}

>  <energy>  (15) 
-6.52

>  <cluster_rmsd>  (15) 
1.61

>  <rmsd>  (15) 
271.7

>  <cluster>  (15) 
2

$$$$

     RDKit          3D

 46 49  0  0  0  0  0  0  0  0999 V2000
  139.1510   67.8350  225.2520 O   0  0  0  0  0  0  0  0  0  0  0  0
  139.5590   69.0030  224.9910 C   0  0  0  0  0  0  0  0  0  0  0  0
  140.0500   69.7320  226.0510 C   0  0  0  0  0  0  0  0  0  0  0  0
  140.1210   69.2750  227.3370 C   0  0  0  0  0  0  0  0  0  0  0  0
  140.6290   70.0710  228.3450 C   0  0  0  0  0  0  0  0  0  0  0  0
  141.0700   71.3460  228.0310 C   0  0  0  0  0  0  0  0  0  0  0  0
  141.0150   71.8430  226.7490 C   0  0  0  0  0  0  0  0  0  0  0  0
  140.4980   71.0090  225.7770 C   0  0  0  0  0  0  0  0  0  0  0  0
  140.4180   71.4310  224.5150 N   0  0  0  0  0  0  0  0  0  0  0  0
  139.9400   70.7140  223.4980 C   0  0  0  0  0  0  0  0  0  0  0  0
  139.9050   71.2860  222.1520 C   0  0  0  0  0  0  0  0  0  0  0  0
  140.6870   72.2970  221.8640 C   0  0  0  0  0  0  0  0  0  0  0  0
  140.2530   73.6880  221.8090 C   0  0  0  0  0  0  0  0  0  0  0  0
  141.1150   74.7400  221.5890 C   0  0  0  0  0  0  0  0  0  0  0  0
  140.6340   76.0270  221.5490 C   0  0  0  0  0  0  0  0  0  0  0  0
  139.3280   76.3100  221.7200 N   0  0  0  0  0  0  0  0  0  0  0  0
  138.4390   75.2970  221.9400 C   0  0  0  0  0  0  0  0  0  0  0  0
  138.9190   74.0090  221.9800 C   0  0  0  0  0  0  0  0  0  0  0  0
  139.5030   69.4860  223.7280 N   0  0  0  0  0  0  0  0  0  0  0  0
  138.9600   68.6170  222.7100 C   0  0  0  0  0  0  0  0  0  0  0  0
  137.4390   68.5350  222.7540 C   0  0  0  0  0  0  0  0  0  0  0  0
  136.8710   69.9090  222.8420 C   0  0  0  0  0  0  0  0  0  0  0  0
  136.7070   70.7200  221.7370 C   0  0  0  0  0  0  0  0  0  0  0  0
  136.1700   71.9990  221.8700 C   0  0  0  0  0  0  0  0  0  0  0  0
  135.8070   72.4320  223.1420 C   0  0  0  0  0  0  0  0  0  0  0  0
  135.9640   71.6320  224.2520 C   0  0  0  0  0  0  0  0  0  0  0  0
  136.4930   70.3810  224.0940 C   0  0  0  0  0  0  0  0  0  0  0  0
  139.7689   68.2598  227.5724 H   0  0  0  0  0  0  0  0  0  0  0  0
  140.6824   69.6990  229.3788 H   0  0  0  0  0  0  0  0  0  0  0  0
  141.4770   71.9812  228.8316 H   0  0  0  0  0  0  0  0  0  0  0  0
  141.3665   72.8574  226.5094 H   0  0  0  0  0  0  0  0  0  0  0  0
  139.2291   70.8716  221.3895 H   0  0  0  0  0  0  0  0  0  0  0  0
  141.7440   72.0816  221.6488 H   0  0  0  0  0  0  0  0  0  0  0  0
  142.1889   74.5499  221.4453 H   0  0  0  0  0  0  0  0  0  0  0  0
  141.3385   76.8529  221.3715 H   0  0  0  0  0  0  0  0  0  0  0  0
  137.3682   75.5056  222.0813 H   0  0  0  0  0  0  0  0  0  0  0  0
  138.2046   73.1916  222.1572 H   0  0  0  0  0  0  0  0  0  0  0  0
  139.2631   68.9986  221.7238 H   0  0  0  0  0  0  0  0  0  0  0  0
  139.3518   67.6058  222.8941 H   0  0  0  0  0  0  0  0  0  0  0  0
  137.0715   68.0439  221.8409 H   0  0  0  0  0  0  0  0  0  0  0  0
  137.1281   67.9523  223.6336 H   0  0  0  0  0  0  0  0  0  0  0  0
  137.0028   70.3535  220.7429 H   0  0  0  0  0  0  0  0  0  0  0  0
  136.0365   72.6492  220.9929 H   0  0  0  0  0  0  0  0  0  0  0  0
  135.3835   73.4399  223.2639 H   0  0  0  0  0  0  0  0  0  0  0  0
  135.6690   71.9931  225.2483 H   0  0  0  0  0  0  0  0  0  0  0  0
  136.6221   69.7351  224.9750 H   0  0  0  0  0  0  0  0  0  0  0  0
  1  2  2  0
  2  3  1  0
  3  4  2  0
  4  5  1  0
  5  6  2  0
  6  7  1  0
  7  8  2  0
  8  9  1  0
  9 10  2  0
 10 11  1  0
 11 12  2  0
 12 13  1  0
 13 14  2  0
 14 15  1  0
 15 16  2  0
 16 17  1  0
 17 18  2  0
 10 19  1  0
 19 20  1  0
 20 21  1  0
 21 22  1  0
 22 23  2  0
 23 24  1  0
 24 25  2  0
 25 26  1  0
 26 27  2  0
 19  2  1  0
 27 22  1  0
  8  3  1  0
 18 13  1  0
  4 28  1  0
  5 29  1  0
  6 30  1  0
  7 31  1  0
 11 32  1  0
 12 33  1  0
 14 34  1  0
 15 35  1  0
 17 36  1  0
 18 37  1  0
 20 38  1  0
 20 39  1  0
 21 40  1  0
 21 41  1  0
 23 42  1  0
 24 43  1  0
 25 44  1  0
 26 45  1  0
 27 46  1  0
M  END
>  <smiles>  (16) 
O=c1c2ccccc2nc(/C=C/c2ccncc2)n1CCc1ccccc1

>  <score_type>  (16) 
oracle

>  <origin>  (16) 
autodockgpu

>  <m_score__min__energy>  (16) 
-6.9800000000000004

>  <m_primary>  (16) 
energy

>  <meeko>  (16) 
{"free_energy": -6.8, "intermolecular_energy": -8.59, "internal_energy": -2.09, "cluster_size": 13, "cluster_id": 1, "rank_in_cluster": 8}

>  <energy>  (16) 
-6.5

>  <cluster_rmsd>  (16) 
1.62

>  <rmsd>  (16) 
271.69

>  <cluster>  (16) 
2

$$$$

     RDKit          3D

 46 49  0  0  0  0  0  0  0  0999 V2000
  138.8390   67.9650  225.3220 O   0  0  0  0  0  0  0  0  0  0  0  0
  139.3520   69.0780  225.0120 C   0  0  0  0  0  0  0  0  0  0  0  0
  139.8690   69.8240  226.0470 C   0  0  0  0  0  0  0  0  0  0  0  0
  139.8620   69.4390  227.3580 C   0  0  0  0  0  0  0  0  0  0  0  0
  140.4030   70.2480  228.3380 C   0  0  0  0  0  0  0  0  0  0  0  0
  140.9580   71.4630  227.9700 C   0  0  0  0  0  0  0  0  0  0  0  0
  140.9840   71.8870  226.6610 C   0  0  0  0  0  0  0  0  0  0  0  0
  140.4300   71.0430  225.7190 C   0  0  0  0  0  0  0  0  0  0  0  0
  140.4250   71.3960  224.4340 N   0  0  0  0  0  0  0  0  0  0  0  0
  139.9190   70.6630  223.4410 C   0  0  0  0  0  0  0  0  0  0  0  0
  139.9740   71.1570  222.0660 C   0  0  0  0  0  0  0  0  0  0  0  0
  139.2610   72.2040  221.7300 C   0  0  0  0  0  0  0  0  0  0  0  0
  139.7440   73.5800  221.7700 C   0  0  0  0  0  0  0  0  0  0  0  0
  141.0590   73.9250  221.5510 C   0  0  0  0  0  0  0  0  0  0  0  0
  141.4420   75.2430  221.6030 C   0  0  0  0  0  0  0  0  0  0  0  0
  140.5680   76.2350  221.8670 N   0  0  0  0  0  0  0  0  0  0  0  0
  139.2540   75.9360  222.0920 C   0  0  0  0  0  0  0  0  0  0  0  0
  138.8700   74.6160  222.0390 C   0  0  0  0  0  0  0  0  0  0  0  0
  139.3750   69.4900  223.7230 N   0  0  0  0  0  0  0  0  0  0  0  0
  138.7930   68.6110  222.7360 C   0  0  0  0  0  0  0  0  0  0  0  0
  137.5450   69.1960  222.0870 C   0  0  0  0  0  0  0  0  0  0  0  0
  136.6910   69.8250  223.1330 C   0  0  0  0  0  0  0  0  0  0  0  0
  136.5290   71.1920  223.2410 C   0  0  0  0  0  0  0  0  0  0  0  0
  135.7190   71.7340  224.2370 C   0  0  0  0  0  0  0  0  0  0  0  0
  135.0820   70.8610  225.1140 C   0  0  0  0  0  0  0  0  0  0  0  0
  135.2330   69.4960  225.0160 C   0  0  0  0  0  0  0  0  0  0  0  0
  136.0340   68.9900  224.0300 C   0  0  0  0  0  0  0  0  0  0  0  0
  139.4194   68.4713  227.6368 H   0  0  0  0  0  0  0  0  0  0  0  0
  140.3934   69.9333  229.3920 H   0  0  0  0  0  0  0  0  0  0  0  0
  141.3912   72.1086  228.7481 H   0  0  0  0  0  0  0  0  0  0  0  0
  141.4258   72.8538  226.3781 H   0  0  0  0  0  0  0  0  0  0  0  0
  140.6079   70.6546  221.3205 H   0  0  0  0  0  0  0  0  0  0  0  0
  138.2273   72.0336  221.3948 H   0  0  0  0  0  0  0  0  0  0  0  0
  141.8032   73.1445  221.3343 H   0  0  0  0  0  0  0  0  0  0  0  0
  142.4969   75.4976  221.4233 H   0  0  0  0  0  0  0  0  0  0  0  0
  138.5232   76.7289  222.3095 H   0  0  0  0  0  0  0  0  0  0  0  0
  137.8126   74.3727  222.2201 H   0  0  0  0  0  0  0  0  0  0  0  0
  139.5401   68.4196  221.9517 H   0  0  0  0  0  0  0  0  0  0  0  0
  138.4957   67.6856  223.2509 H   0  0  0  0  0  0  0  0  0  0  0  0
  137.8379   69.9554  221.3471 H   0  0  0  0  0  0  0  0  0  0  0  0
  136.9818   68.3948  221.5861 H   0  0  0  0  0  0  0  0  0  0  0  0
  137.0441   71.8593  222.5343 H   0  0  0  0  0  0  0  0  0  0  0  0
  135.5866   72.8222  224.3276 H   0  0  0  0  0  0  0  0  0  0  0  0
  134.4405   71.2728  225.9070 H   0  0  0  0  0  0  0  0  0  0  0  0
  134.7183   68.8242  225.7187 H   0  0  0  0  0  0  0  0  0  0  0  0
  136.1611   67.9007  223.9447 H   0  0  0  0  0  0  0  0  0  0  0  0
  1  2  2  0
  2  3  1  0
  3  4  2  0
  4  5  1  0
  5  6  2  0
  6  7  1  0
  7  8  2  0
  8  9  1  0
  9 10  2  0
 10 11  1  0
 11 12  2  0
 12 13  1  0
 13 14  2  0
 14 15  1  0
 15 16  2  0
 16 17  1  0
 17 18  2  0
 10 19  1  0
 19 20  1  0
 20 21  1  0
 21 22  1  0
 22 23  2  0
 23 24  1  0
 24 25  2  0
 25 26  1  0
 26 27  2  0
 19  2  1  0
 27 22  1  0
  8  3  1  0
 18 13  1  0
  4 28  1  0
  5 29  1  0
  6 30  1  0
  7 31  1  0
 11 32  1  0
 12 33  1  0
 14 34  1  0
 15 35  1  0
 17 36  1  0
 18 37  1  0
 20 38  1  0
 20 39  1  0
 21 40  1  0
 21 41  1  0
 23 42  1  0
 24 43  1  0
 25 44  1  0
 26 45  1  0
 27 46  1  0
M  END
>  <smiles>  (17) 
O=c1c2ccccc2nc(/C=C/c2ccncc2)n1CCc1ccccc1

>  <score_type>  (17) 
oracle

>  <origin>  (17) 
autodockgpu

>  <m_score__min__energy>  (17) 
-6.9800000000000004

>  <m_primary>  (17) 
energy

>  <meeko>  (17) 
{"free_energy": -6.9, "intermolecular_energy": -8.69, "internal_energy": -1.93, "cluster_size": 13, "cluster_id": 1, "rank_in_cluster": 6}

>  <energy>  (17) 
-6.5

>  <cluster_rmsd>  (17) 
1.62

>  <rmsd>  (17) 
271.7

>  <cluster>  (17) 
2

$$$$

     RDKit          3D

 46 49  0  0  0  0  0  0  0  0999 V2000
  140.0190   74.4340  221.9420 O   0  0  0  0  0  0  0  0  0  0  0  0
  140.8040   75.1140  221.2210 C   0  0  0  0  0  0  0  0  0  0  0  0
  141.9830   74.5050  220.8550 C   0  0  0  0  0  0  0  0  0  0  0  0
  142.3450   73.2380  221.2180 C   0  0  0  0  0  0  0  0  0  0  0  0
  143.5480   72.6990  220.8080 C   0  0  0  0  0  0  0  0  0  0  0  0
  144.3880   73.4660  220.0180 C   0  0  0  0  0  0  0  0  0  0  0  0
  144.0610   74.7450  219.6310 C   0  0  0  0  0  0  0  0  0  0  0  0
  142.8480   75.2390  220.0670 C   0  0  0  0  0  0  0  0  0  0  0  0
  142.4720   76.4720  219.7270 N   0  0  0  0  0  0  0  0  0  0  0  0
  141.3260   77.0490  220.0890 C   0  0  0  0  0  0  0  0  0  0  0  0
  141.0240   78.4120  219.6500 C   0  0  0  0  0  0  0  0  0  0  0  0
  141.8060   79.3950  220.0210 C   0  0  0  0  0  0  0  0  0  0  0  0
  141.9070   79.9010  221.3850 C   0  0  0  0  0  0  0  0  0  0  0  0
  141.7100   81.2240  221.7160 C   0  0  0  0  0  0  0  0  0  0  0  0
  141.8200   81.6290  223.0240 C   0  0  0  0  0  0  0  0  0  0  0  0
  142.1200   80.7710  224.0190 N   0  0  0  0  0  0  0  0  0  0  0  0
  142.3230   79.4500  223.7340 C   0  0  0  0  0  0  0  0  0  0  0  0
  142.2120   79.0430  222.4250 C   0  0  0  0  0  0  0  0  0  0  0  0
  140.4760   76.3720  220.8440 N   0  0  0  0  0  0  0  0  0  0  0  0
  139.2090   76.8920  221.3010 C   0  0  0  0  0  0  0  0  0  0  0  0
  139.2740   77.4410  222.7210 C   0  0  0  0  0  0  0  0  0  0  0  0
  138.8570   78.8710  222.7180 C   0  0  0  0  0  0  0  0  0  0  0  0
  138.3870   79.5080  221.5880 C   0  0  0  0  0  0  0  0  0  0  0  0
  138.0080   80.8480  221.6340 C   0  0  0  0  0  0  0  0  0  0  0  0
  138.1170   81.5210  222.8480 C   0  0  0  0  0  0  0  0  0  0  0  0
  138.5830   80.8960  223.9840 C   0  0  0  0  0  0  0  0  0  0  0  0
  138.9480   79.5800  223.9100 C   0  0  0  0  0  0  0  0  0  0  0  0
  141.6684   72.6394  221.8456 H   0  0  0  0  0  0  0  0  0  0  0  0
  143.8342   71.6788  221.1034 H   0  0  0  0  0  0  0  0  0  0  0  0
  145.3471   73.0390  219.6896 H   0  0  0  0  0  0  0  0  0  0  0  0
  144.7350   75.3463  219.0031 H   0  0  0  0  0  0  0  0  0  0  0  0
  140.1482   78.6091  219.0142 H   0  0  0  0  0  0  0  0  0  0  0  0
  142.4297   79.8718  219.2505 H   0  0  0  0  0  0  0  0  0  0  0  0
  141.4646   81.9561  220.9326 H   0  0  0  0  0  0  0  0  0  0  0  0
  141.6578   82.6894  223.2675 H   0  0  0  0  0  0  0  0  0  0  0  0
  142.5685   78.7316  224.5300 H   0  0  0  0  0  0  0  0  0  0  0  0
  142.3743   77.9799  222.1937 H   0  0  0  0  0  0  0  0  0  0  0  0
  138.8969   77.7017  220.6250 H   0  0  0  0  0  0  0  0  0  0  0  0
  138.4896   76.0599  221.3001 H   0  0  0  0  0  0  0  0  0  0  0  0
  138.5988   76.8631  223.3692 H   0  0  0  0  0  0  0  0  0  0  0  0
  140.3035   77.3592  223.0998 H   0  0  0  0  0  0  0  0  0  0  0  0
  138.3107   78.9526  220.6416 H   0  0  0  0  0  0  0  0  0  0  0  0
  137.6329   81.3602  220.7357 H   0  0  0  0  0  0  0  0  0  0  0  0
  137.8233   82.5797  222.9016 H   0  0  0  0  0  0  0  0  0  0  0  0
  138.6601   81.4457  224.9337 H   0  0  0  0  0  0  0  0  0  0  0  0
  139.3210   79.0726  224.8119 H   0  0  0  0  0  0  0  0  0  0  0  0
  1  2  2  0
  2  3  1  0
  3  4  2  0
  4  5  1  0
  5  6  2  0
  6  7  1  0
  7  8  2  0
  8  9  1  0
  9 10  2  0
 10 11  1  0
 11 12  2  0
 12 13  1  0
 13 14  2  0
 14 15  1  0
 15 16  2  0
 16 17  1  0
 17 18  2  0
 10 19  1  0
 19 20  1  0
 20 21  1  0
 21 22  1  0
 22 23  2  0
 23 24  1  0
 24 25  2  0
 25 26  1  0
 26 27  2  0
 19  2  1  0
 27 22  1  0
  8  3  1  0
 18 13  1  0
  4 28  1  0
  5 29  1  0
  6 30  1  0
  7 31  1  0
 11 32  1  0
 12 33  1  0
 14 34  1  0
 15 35  1  0
 17 36  1  0
 18 37  1  0
 20 38  1  0
 20 39  1  0
 21 40  1  0
 21 41  1  0
 23 42  1  0
 24 43  1  0
 25 44  1  0
 26 45  1  0
 27 46  1  0
M  END
>  <smiles>  (18) 
O=c1c2ccccc2nc(/C=C/c2ccncc2)n1CCc1ccccc1

>  <score_type>  (18) 
oracle

>  <origin>  (18) 
autodockgpu

>  <m_score__min__energy>  (18) 
-6.9800000000000004

>  <m_primary>  (18) 
energy

>  <meeko>  (18) 
{"free_energy": -6.52, "intermolecular_energy": -8.31, "internal_energy": -2.29, "cluster_size": 7, "cluster_id": 2, "rank_in_cluster": 2}

>  <energy>  (18) 
-6.47

>  <cluster_rmsd>  (18) 
1.61

>  <rmsd>  (18) 
271.69

>  <cluster>  (18) 
2

$$$$

     RDKit          3D

 46 49  0  0  0  0  0  0  0  0999 V2000
  139.9920   74.3210  221.8660 O   0  0  0  0  0  0  0  0  0  0  0  0
  140.7830   75.0450  221.1970 C   0  0  0  0  0  0  0  0  0  0  0  0
  141.9900   74.4800  220.8540 C   0  0  0  0  0  0  0  0  0  0  0  0
  142.3730   73.2110  221.1870 C   0  0  0  0  0  0  0  0  0  0  0  0
  143.6040   72.7170  220.8040 C   0  0  0  0  0  0  0  0  0  0  0  0
  144.4510   73.5330  220.0700 C   0  0  0  0  0  0  0  0  0  0  0  0
  144.1030   74.8160  219.7150 C   0  0  0  0  0  0  0  0  0  0  0  0
  142.8620   75.2630  220.1230 C   0  0  0  0  0  0  0  0  0  0  0  0
  142.4660   76.4960  219.8110 N   0  0  0  0  0  0  0  0  0  0  0  0
  141.2930   77.0320  220.1500 C   0  0  0  0  0  0  0  0  0  0  0  0
  140.9690   78.4000  219.7460 C   0  0  0  0  0  0  0  0  0  0  0  0
  141.8130   79.3660  220.0160 C   0  0  0  0  0  0  0  0  0  0  0  0
  141.9720   79.9820  221.3280 C   0  0  0  0  0  0  0  0  0  0  0  0
  142.4200   79.2960  222.4350 C   0  0  0  0  0  0  0  0  0  0  0  0
  142.5470   79.9420  223.6400 C   0  0  0  0  0  0  0  0  0  0  0  0
  142.2440   81.2470  223.7910 N   0  0  0  0  0  0  0  0  0  0  0  0
  141.7950   81.9640  222.7180 C   0  0  0  0  0  0  0  0  0  0  0  0
  141.6690   81.3180  221.5110 C   0  0  0  0  0  0  0  0  0  0  0  0
  140.4350   76.3070  220.8500 N   0  0  0  0  0  0  0  0  0  0  0  0
  139.1390   76.7780  221.2780 C   0  0  0  0  0  0  0  0  0  0  0  0
  139.1330   77.2560  222.7250 C   0  0  0  0  0  0  0  0  0  0  0  0
  138.8560   78.7190  222.7610 C   0  0  0  0  0  0  0  0  0  0  0  0
  139.1730   79.5110  223.8470 C   0  0  0  0  0  0  0  0  0  0  0  0
  138.8950   80.8760  223.8350 C   0  0  0  0  0  0  0  0  0  0  0  0
  138.2930   81.4150  222.7010 C   0  0  0  0  0  0  0  0  0  0  0  0
  137.9740   80.6360  221.6110 C   0  0  0  0  0  0  0  0  0  0  0  0
  138.2570   79.2990  221.6490 C   0  0  0  0  0  0  0  0  0  0  0  0
  141.6905   72.5739  221.7686 H   0  0  0  0  0  0  0  0  0  0  0  0
  143.9071   71.6952  221.0761 H   0  0  0  0  0  0  0  0  0  0  0  0
  145.4321   73.1425  219.7618 H   0  0  0  0  0  0  0  0  0  0  0  0
  144.7822   75.4561  219.1329 H   0  0  0  0  0  0  0  0  0  0  0  0
  140.0268   78.6159  219.2210 H   0  0  0  0  0  0  0  0  0  0  0  0
  142.4451   79.7376  219.1960 H   0  0  0  0  0  0  0  0  0  0  0  0
  142.6764   78.2294  222.3538 H   0  0  0  0  0  0  0  0  0  0  0  0
  142.9080   79.3758  224.5113 H   0  0  0  0  0  0  0  0  0  0  0  0
  141.5411   83.0297  222.8173 H   0  0  0  0  0  0  0  0  0  0  0  0
  141.3084   81.8942  220.6462 H   0  0  0  0  0  0  0  0  0  0  0  0
  138.8375   77.6144  220.6303 H   0  0  0  0  0  0  0  0  0  0  0  0
  138.4388   75.9328  221.2054 H   0  0  0  0  0  0  0  0  0  0  0  0
  138.3522   76.7207  223.2852 H   0  0  0  0  0  0  0  0  0  0  0  0
  140.1132   77.0560  223.1823 H   0  0  0  0  0  0  0  0  0  0  0  0
  139.6495   79.0598  224.7298 H   0  0  0  0  0  0  0  0  0  0  0  0
  139.1443   81.5109  224.6980 H   0  0  0  0  0  0  0  0  0  0  0  0
  138.0663   82.4911  222.6751 H   0  0  0  0  0  0  0  0  0  0  0  0
  137.4994   81.0821  220.7246 H   0  0  0  0  0  0  0  0  0  0  0  0
  138.0057   78.6699  220.7824 H   0  0  0  0  0  0  0  0  0  0  0  0
  1  2  2  0
  2  3  1  0
  3  4  2  0
  4  5  1  0
  5  6  2  0
  6  7  1  0
  7  8  2  0
  8  9  1  0
  9 10  2  0
 10 11  1  0
 11 12  2  0
 12 13  1  0
 13 14  2  0
 14 15  1  0
 15 16  2  0
 16 17  1  0
 17 18  2  0
 10 19  1  0
 19 20  1  0
 20 21  1  0
 21 22  1  0
 22 23  2  0
 23 24  1  0
 24 25  2  0
 25 26  1  0
 26 27  2  0
 19  2  1  0
 27 22  1  0
  8  3  1  0
 18 13  1  0
  4 28  1  0
  5 29  1  0
  6 30  1  0
  7 31  1  0
 11 32  1  0
 12 33  1  0
 14 34  1  0
 15 35  1  0
 17 36  1  0
 18 37  1  0
 20 38  1  0
 20 39  1  0
 21 40  1  0
 21 41  1  0
 23 42  1  0
 24 43  1  0
 25 44  1  0
 26 45  1  0
 27 46  1  0
M  END
>  <smiles>  (19) 
O=c1c2ccccc2nc(/C=C/c2ccncc2)n1CCc1ccccc1

>  <score_type>  (19) 
oracle

>  <origin>  (19) 
autodockgpu

>  <m_score__min__energy>  (19) 
-6.9800000000000004

>  <m_primary>  (19) 
energy

>  <meeko>  (19) 
{"free_energy": -6.47, "intermolecular_energy": -8.26, "internal_energy": -2.3, "cluster_size": 7, "cluster_id": 2, "rank_in_cluster": 6}

>  <energy>  (19) 
-6.47

>  <cluster_rmsd>  (19) 
1.61

>  <rmsd>  (19) 
271.7

>  <cluster>  (19) 
2

$$$$

     RDKit          3D

 46 49  0  0  0  0  0  0  0  0999 V2000
  139.0940   67.8510  225.3640 O   0  0  0  0  0  0  0  0  0  0  0  0
  139.5030   69.0080  225.0580 C   0  0  0  0  0  0  0  0  0  0  0  0
  140.0210   69.7660  226.0840 C   0  0  0  0  0  0  0  0  0  0  0  0
  140.1180   69.3490  227.3820 C   0  0  0  0  0  0  0  0  0  0  0  0
  140.6520   70.1730  228.3530 C   0  0  0  0  0  0  0  0  0  0  0  0
  141.0930   71.4350  227.9900 C   0  0  0  0  0  0  0  0  0  0  0  0
  141.0130   71.8920  226.6940 C   0  0  0  0  0  0  0  0  0  0  0  0
  140.4700   71.0320  225.7600 C   0  0  0  0  0  0  0  0  0  0  0  0
  140.3650   71.4140  224.4880 N   0  0  0  0  0  0  0  0  0  0  0  0
  139.8600   70.6690  223.5050 C   0  0  0  0  0  0  0  0  0  0  0  0
  139.7990   71.1990  222.1430 C   0  0  0  0  0  0  0  0  0  0  0  0
  140.5720   72.2040  221.8090 C   0  0  0  0  0  0  0  0  0  0  0  0
  140.1520   73.6000  221.7950 C   0  0  0  0  0  0  0  0  0  0  0  0
  138.8430   73.9970  221.9610 C   0  0  0  0  0  0  0  0  0  0  0  0
  138.5210   75.3320  221.9370 C   0  0  0  0  0  0  0  0  0  0  0  0
  139.4500   76.2920  221.7540 N   0  0  0  0  0  0  0  0  0  0  0  0
  140.7600   75.9410  221.5850 C   0  0  0  0  0  0  0  0  0  0  0  0
  141.0830   74.6050  221.6090 C   0  0  0  0  0  0  0  0  0  0  0  0
  139.4210   69.4520  223.7820 N   0  0  0  0  0  0  0  0  0  0  0  0
  138.8510   68.5550  222.8040 C   0  0  0  0  0  0  0  0  0  0  0  0
  137.3300   68.4980  222.8710 C   0  0  0  0  0  0  0  0  0  0  0  0
  136.7880   69.8820  222.9780 C   0  0  0  0  0  0  0  0  0  0  0  0
  136.4740   70.4680  224.1880 C   0  0  0  0  0  0  0  0  0  0  0  0
  135.9700   71.7660  224.2370 C   0  0  0  0  0  0  0  0  0  0  0  0
  135.7920   72.4490  223.0380 C   0  0  0  0  0  0  0  0  0  0  0  0
  136.1020   71.8760  221.8240 C   0  0  0  0  0  0  0  0  0  0  0  0
  136.5960   70.6010  221.8040 C   0  0  0  0  0  0  0  0  0  0  0  0
  139.7660   68.3437  227.6568 H   0  0  0  0  0  0  0  0  0  0  0  0
  140.7259   69.8331  229.3966 H   0  0  0  0  0  0  0  0  0  0  0  0
  141.5204   72.0924  228.7614 H   0  0  0  0  0  0  0  0  0  0  0  0
  141.3654   72.8960  226.4152 H   0  0  0  0  0  0  0  0  0  0  0  0
  139.1112   70.7586  221.4061 H   0  0  0  0  0  0  0  0  0  0  0  0
  141.6089   71.9783  221.5194 H   0  0  0  0  0  0  0  0  0  0  0  0
  138.0554   73.2443  222.1128 H   0  0  0  0  0  0  0  0  0  0  0  0
  137.4701   75.6279  222.0716 H   0  0  0  0  0  0  0  0  0  0  0  0
  141.5350   76.7069  221.4339 H   0  0  0  0  0  0  0  0  0  0  0  0
  142.1369   74.3208  221.4731 H   0  0  0  0  0  0  0  0  0  0  0  0
  139.1461   68.8956  221.8006 H   0  0  0  0  0  0  0  0  0  0  0  0
  139.2301   67.5452  223.0200 H   0  0  0  0  0  0  0  0  0  0  0  0
  136.9400   68.0203  221.9601 H   0  0  0  0  0  0  0  0  0  0  0  0
  137.0222   67.9134  223.7505 H   0  0  0  0  0  0  0  0  0  0  0  0
  136.6230   69.9053  225.1214 H   0  0  0  0  0  0  0  0  0  0  0  0
  135.7194   72.2383  225.1983 H   0  0  0  0  0  0  0  0  0  0  0  0
  135.3931   73.4739  223.0599 H   0  0  0  0  0  0  0  0  0  0  0  0
  135.9548   72.4341  220.8876 H   0  0  0  0  0  0  0  0  0  0  0  0
  136.8464   70.1351  220.8395 H   0  0  0  0  0  0  0  0  0  0  0  0
  1  2  2  0
  2  3  1  0
  3  4  2  0
  4  5  1  0
  5  6  2  0
  6  7  1  0
  7  8  2  0
  8  9  1  0
  9 10  2  0
 10 11  1  0
 11 12  2  0
 12 13  1  0
 13 14  2  0
 14 15  1  0
 15 16  2  0
 16 17  1  0
 17 18  2  0
 10 19  1  0
 19 20  1  0
 20 21  1  0
 21 22  1  0
 22 23  2  0
 23 24  1  0
 24 25  2  0
 25 26  1  0
 26 27  2  0
 19  2  1  0
 27 22  1  0
  8  3  1  0
 18 13  1  0
  4 28  1  0
  5 29  1  0
  6 30  1  0
  7 31  1  0
 11 32  1  0
 12 33  1  0
 14 34  1  0
 15 35  1  0
 17 36  1  0
 18 37  1  0
 20 38  1  0
 20 39  1  0
 21 40  1  0
 21 41  1  0
 23 42  1  0
 24 43  1  0
 25 44  1  0
 26 45  1  0
 27 46  1  0
M  END
>  <smiles>  (20) 
O=c1c2ccccc2nc(/C=C/c2ccncc2)n1CCc1ccccc1

>  <score_type>  (20) 
oracle

>  <origin>  (20) 
autodockgpu

>  <m_score__min__energy>  (20) 
-6.9800000000000004

>  <m_primary>  (20) 
energy

>  <meeko>  (20) 
{"free_energy": -6.8, "intermolecular_energy": -8.59, "internal_energy": -2.1, "cluster_size": 13, "cluster_id": 1, "rank_in_cluster": 9}

>  <energy>  (20) 
-6.46

>  <cluster_rmsd>  (20) 
1.61

>  <rmsd>  (20) 
271.69

>  <cluster>  (20) 
2

$$$$
