GBOKQMTYAKOHJX-UURMYREPNA-N
     RDKit          3D

 45 48  0  0  0  0  0  0  0  0999 V2000
  141.0020   73.3300  218.9400 H   0  0  0  0  0  0  0  0  0  0  0  0
  139.0100   73.7330  220.8360 N   0  0  0  0  0  0  0  0  0  0  0  0
  139.3310   72.6370  221.4580 C   0  0  0  0  0  0  0  0  0  0  0  0
  139.8220   74.9090  220.7470 C   0  0  0  0  0  0  0  0  0  0  0  0
  141.4210   74.2710  219.1010 N   0  0  0  0  0  0  0  0  0  0  0  0
  140.9500   75.1110  219.9700 C   0  0  0  0  0  0  0  0  0  0  0  0
  139.5510   71.1680  220.6820 S   0  0  0  0  0  0  0  0  0  0  0  0
  139.9570   70.3580  222.1010 C   0  0  0  0  0  0  0  0  0  0  0  0
  140.2030   69.2891  222.1845 H   0  0  0  0  0  0  0  0  0  0  0  0
  139.9280   71.2760  223.1550 C   0  0  0  0  0  0  0  0  0  0  0  0
  140.2580   70.9140  224.5560 C   0  0  0  0  0  0  0  0  0  0  0  0
  140.7400   71.8860  225.4500 C   0  0  0  0  0  0  0  0  0  0  0  0
  140.8699   72.9241  225.1101 H   0  0  0  0  0  0  0  0  0  0  0  0
  141.0550   71.5430  226.7660 C   0  0  0  0  0  0  0  0  0  0  0  0
  141.4333   72.3111  227.4566 H   0  0  0  0  0  0  0  0  0  0  0  0
  140.8920   70.2300  227.2090 C   0  0  0  0  0  0  0  0  0  0  0  0
  141.1432   69.9684  228.2475 H   0  0  0  0  0  0  0  0  0  0  0  0
  140.4090   69.2400  226.3370 C   0  0  0  0  0  0  0  0  0  0  0  0
  140.2360   67.8870  226.7990 N   0  0  0  0  0  0  0  0  0  0  0  0
  141.0260   67.3900  227.6270 O   0  0  0  0  0  0  0  0  0  0  0  0
  139.1910   67.1190  226.3380 O   0  0  0  0  0  0  0  0  0  0  0  0
  140.0940   69.5920  225.0110 C   0  0  0  0  0  0  0  0  0  0  0  0
  139.7146   68.8238  224.3211 H   0  0  0  0  0  0  0  0  0  0  0  0
  139.5830   72.5430  222.7850 N   0  0  0  0  0  0  0  0  0  0  0  0
  139.5360   73.3450  223.4510 H   0  0  0  0  0  0  0  0  0  0  0  0
  139.8250   75.9650  221.6350 C   0  0  0  0  0  0  0  0  0  0  0  0
  138.9300   76.1560  222.6850 O   0  0  0  0  0  0  0  0  0  0  0  0
  138.4880   75.3690  223.1430 H   0  0  0  0  0  0  0  0  0  0  0  0
  140.8640   76.7830  221.3570 N   0  0  0  0  0  0  0  0  0  0  0  0
  141.2090   77.9650  222.1000 C   0  0  0  0  0  0  0  0  0  0  0  0
  141.4760   77.8800  223.4750 C   0  0  0  0  0  0  0  0  0  0  0  0
  141.4076   76.9092  223.9877 H   0  0  0  0  0  0  0  0  0  0  0  0
  141.8290   79.0260  224.1960 C   0  0  0  0  0  0  0  0  0  0  0  0
  142.0319   78.9556  225.2748 H   0  0  0  0  0  0  0  0  0  0  0  0
  141.9240   80.2600  223.5470 C   0  0  0  0  0  0  0  0  0  0  0  0
  142.1978   81.1610  224.1155 H   0  0  0  0  0  0  0  0  0  0  0  0
  141.6710   80.3490  222.1750 C   0  0  0  0  0  0  0  0  0  0  0  0
  141.7491   81.3199  221.6639 H   0  0  0  0  0  0  0  0  0  0  0  0
  141.3190   79.2060  221.4520 C   0  0  0  0  0  0  0  0  0  0  0  0
  141.1274   79.2787  220.3713 H   0  0  0  0  0  0  0  0  0  0  0  0
  141.5460   76.2730  220.3320 N   0  0  0  0  0  0  0  0  0  0  0  0
  142.7490   76.8580  219.7340 C   0  0  0  0  0  0  0  0  0  0  0  0
  143.4307   77.1895  220.5311 H   0  0  0  0  0  0  0  0  0  0  0  0
  143.2525   76.1041  219.1110 H   0  0  0  0  0  0  0  0  0  0  0  0
  142.4669   77.7195  219.1110 H   0  0  0  0  0  0  0  0  0  0  0  0
  1  2  1  0
  2  3  2  0
  3  4  1  0
  4  5  1  0
  5  6  2  0
  6  7  1  0
  7  8  1  0
  8  9  1  0
  8 10  2  0
 10 11  1  0
 11 12  2  0
 12 13  1  0
 12 14  1  0
 14 15  1  0
 14 16  2  0
 16 17  1  0
 16 18  1  0
 18 19  1  0
 19 20  2  0
 19 21  1  0
 18 22  2  0
 22 23  1  0
 10 24  1  0
 24 25  1  0
  4 26  2  0
 26 27  1  0
 27 28  1  0
 26 29  1  0
 29 30  1  0
 30 31  2  0
 31 32  1  0
 31 33  1  0
 33 34  1  0
 33 35  2  0
 35 36  1  0
 35 37  1  0
 37 38  1  0
 37 39  2  0
 39 40  1  0
 29 41  1  0
 41 42  1  0
 42 43  1  0
 42 44  1  0
 42 45  1  0
 41  3  1  0
 24  6  1  0
 39 30  1  0
 22 11  1  0
M  CHG  2  19   1  21  -1
M  END
>  <UniqueID>  (1) 
27

>  <SMILES>  (1) 
[H]/N=c1/c(/N=c2\[nH]c(-c3cccc([N+](=O)[O-])c3)cs2)c(O)n(-c2ccccc2)n1C

>  <Energy>  (1) 
133.56763920973702

>  <Genealogy>  (1) 
Cn1c(=N)c(N=c2[nH]c(-c3cccc([N+](=O)[O-])c3)cs2)c(O)n1-c1ccccc1 (tautomer)
[H]/N=c1/c(/N=c2\[nH]c(-c3cccc([N+](=O)[O-])c3)cs2)c(O)n(-c2ccccc2)n1C (cis-trans isomerization)
[H]/N=c1/c(/N=c2\[nH]c(-c3cccc([N+](=O)[O-])c3)cs2)c(O)n(-c2ccccc2)n1C (3D coordinates assigned)
[H]/N=c1/c(/N=c2\[nH]c(-c3cccc([N+](=O)[O-])c3)cs2)c(O)n(-c2ccccc2)n1C (optimized conformer: 133.56763920973702 kcal/mol)

>  <smiles>  (1) 
Cn1c(N)c(N=c2[nH]c(-c3cccc([N+](=O)[O-])c3)cs2)c(=O)n1-c1ccccc1

>  <score_type>  (1) 
oracle

>  <origin>  (1) 
autodockgpu

>  <m_score__min__energy>  (1) 
-8.6300000000000008

>  <m_primary>  (1) 
energy

>  <meeko>  (1) 
{"free_energy": -8.27, "intermolecular_energy": -10.36, "internal_energy": -1.42, "cluster_size": 6, "cluster_id": 2, "rank_in_cluster": 5}

>  <energy>  (1) 
-8.63

>  <cluster_rmsd>  (1) 
0.0

>  <rmsd>  (1) 
272.27

>  <cluster>  (1) 
1

$$$$
GBOKQMTYAKOHJX-UURMYREPNA-N
     RDKit          3D

 45 48  0  0  0  0  0  0  0  0999 V2000
  136.6730   74.9930  221.4600 H   0  0  0  0  0  0  0  0  0  0  0  0
  139.2530   74.0950  220.9410 N   0  0  0  0  0  0  0  0  0  0  0  0
  139.5560   72.9560  221.4920 C   0  0  0  0  0  0  0  0  0  0  0  0
  139.3160   75.3740  221.5830 C   0  0  0  0  0  0  0  0  0  0  0  0
  137.0090   75.9080  221.8290 N   0  0  0  0  0  0  0  0  0  0  0  0
  138.2670   76.2030  221.9400 C   0  0  0  0  0  0  0  0  0  0  0  0
  139.8810   71.5660  220.6140 S   0  0  0  0  0  0  0  0  0  0  0  0
  140.1970   70.6450  221.9880 C   0  0  0  0  0  0  0  0  0  0  0  0
  140.4682   69.5790  222.0002 H   0  0  0  0  0  0  0  0  0  0  0  0
  140.0560   71.4660  223.1100 C   0  0  0  0  0  0  0  0  0  0  0  0
  140.2840   70.9910  224.4980 C   0  0  0  0  0  0  0  0  0  0  0  0
  140.6970   71.8860  225.5000 C   0  0  0  0  0  0  0  0  0  0  0  0
  140.8495   72.9476  225.2555 H   0  0  0  0  0  0  0  0  0  0  0  0
  140.9150   71.4360  226.8040 C   0  0  0  0  0  0  0  0  0  0  0  0
  141.2396   72.1442  227.5805 H   0  0  0  0  0  0  0  0  0  0  0  0
  140.7230   70.0930  227.1260 C   0  0  0  0  0  0  0  0  0  0  0  0
  140.8976   69.7476  228.1557 H   0  0  0  0  0  0  0  0  0  0  0  0
  140.3080   69.1780  226.1440 C   0  0  0  0  0  0  0  0  0  0  0  0
  140.1050   67.7930  226.4810 N   0  0  0  0  0  0  0  0  0  0  0  0
  139.0690   67.1950  226.1230 O   0  0  0  0  0  0  0  0  0  0  0  0
  141.0530   67.1020  227.2010 O   0  0  0  0  0  0  0  0  0  0  0  0
  140.0900   69.6380  224.8310 C   0  0  0  0  0  0  0  0  0  0  0  0
  139.7636   68.9298  224.0552 H   0  0  0  0  0  0  0  0  0  0  0  0
  139.7040   72.7520  222.8220 N   0  0  0  0  0  0  0  0  0  0  0  0
  139.5800   73.4920  223.5480 H   0  0  0  0  0  0  0  0  0  0  0  0
  140.4370   76.1700  221.6990 C   0  0  0  0  0  0  0  0  0  0  0  0
  141.7390   75.8090  221.3610 O   0  0  0  0  0  0  0  0  0  0  0  0
  142.5170   76.4300  221.5470 H   0  0  0  0  0  0  0  0  0  0  0  0
  140.0770   77.3870  222.1620 N   0  0  0  0  0  0  0  0  0  0  0  0
  140.9720   78.4930  222.3690 C   0  0  0  0  0  0  0  0  0  0  0  0
  141.5440   78.7100  223.6330 C   0  0  0  0  0  0  0  0  0  0  0  0
  141.2959   78.0400  224.4693 H   0  0  0  0  0  0  0  0  0  0  0  0
  142.4280   79.7750  223.8320 C   0  0  0  0  0  0  0  0  0  0  0  0
  142.8674   79.9456  224.8259 H   0  0  0  0  0  0  0  0  0  0  0  0
  142.7540   80.6230  222.7700 C   0  0  0  0  0  0  0  0  0  0  0  0
  143.4474   81.4620  222.9290 H   0  0  0  0  0  0  0  0  0  0  0  0
  142.1990   80.4050  221.5060 C   0  0  0  0  0  0  0  0  0  0  0  0
  142.4579   81.0710  220.6697 H   0  0  0  0  0  0  0  0  0  0  0  0
  141.3150   79.3410  221.3040 C   0  0  0  0  0  0  0  0  0  0  0  0
  140.8862   79.1674  220.3060 H   0  0  0  0  0  0  0  0  0  0  0  0
  138.7540   77.4070  222.3250 N   0  0  0  0  0  0  0  0  0  0  0  0
  137.9710   78.5510  222.8010 C   0  0  0  0  0  0  0  0  0  0  0  0
  137.9653   78.5593  223.9009 H   0  0  0  0  0  0  0  0  0  0  0  0
  138.4212   79.4834  222.4296 H   0  0  0  0  0  0  0  0  0  0  0  0
  136.9388   78.4689  222.4296 H   0  0  0  0  0  0  0  0  0  0  0  0
  1  2  1  0
  2  3  2  0
  3  4  1  0
  4  5  1  0
  5  6  2  0
  6  7  1  0
  7  8  1  0
  8  9  1  0
  8 10  2  0
 10 11  1  0
 11 12  2  0
 12 13  1  0
 12 14  1  0
 14 15  1  0
 14 16  2  0
 16 17  1  0
 16 18  1  0
 18 19  1  0
 19 20  2  0
 19 21  1  0
 18 22  2  0
 22 23  1  0
 10 24  1  0
 24 25  1  0
  4 26  2  0
 26 27  1  0
 27 28  1  0
 26 29  1  0
 29 30  1  0
 30 31  2  0
 31 32  1  0
 31 33  1  0
 33 34  1  0
 33 35  2  0
 35 36  1  0
 35 37  1  0
 37 38  1  0
 37 39  2  0
 39 40  1  0
 29 41  1  0
 41 42  1  0
 42 43  1  0
 42 44  1  0
 42 45  1  0
 41  3  1  0
 24  6  1  0
 39 30  1  0
 22 11  1  0
M  CHG  2  19   1  21  -1
M  END
>  <UniqueID>  (2) 
27

>  <SMILES>  (2) 
[H]/N=c1/c(/N=c2\[nH]c(-c3cccc([N+](=O)[O-])c3)cs2)c(O)n(-c2ccccc2)n1C

>  <Energy>  (2) 
133.56763920973702

>  <Genealogy>  (2) 
Cn1c(=N)c(N=c2[nH]c(-c3cccc([N+](=O)[O-])c3)cs2)c(O)n1-c1ccccc1 (tautomer)
[H]/N=c1/c(/N=c2\[nH]c(-c3cccc([N+](=O)[O-])c3)cs2)c(O)n(-c2ccccc2)n1C (cis-trans isomerization)
[H]/N=c1/c(/N=c2\[nH]c(-c3cccc([N+](=O)[O-])c3)cs2)c(O)n(-c2ccccc2)n1C (3D coordinates assigned)
[H]/N=c1/c(/N=c2\[nH]c(-c3cccc([N+](=O)[O-])c3)cs2)c(O)n(-c2ccccc2)n1C (optimized conformer: 133.56763920973702 kcal/mol)

>  <smiles>  (2) 
Cn1c(N)c(N=c2[nH]c(-c3cccc([N+](=O)[O-])c3)cs2)c(=O)n1-c1ccccc1

>  <score_type>  (2) 
oracle

>  <origin>  (2) 
autodockgpu

>  <m_score__min__energy>  (2) 
-8.6300000000000008

>  <m_primary>  (2) 
energy

>  <meeko>  (2) 
{"free_energy": -8.54, "intermolecular_energy": -10.62, "internal_energy": -1.26, "cluster_size": 12, "cluster_id": 1, "rank_in_cluster": 7}

>  <energy>  (2) 
-8.63

>  <cluster_rmsd>  (2) 
1.69

>  <rmsd>  (2) 
272.08

>  <cluster>  (2) 
1

$$$$
GBOKQMTYAKOHJX-UURMYREPNA-N
     RDKit          3D

 45 48  0  0  0  0  0  0  0  0999 V2000
  136.4200   75.3670  221.3970 H   0  0  0  0  0  0  0  0  0  0  0  0
  139.0580   74.5240  221.1420 N   0  0  0  0  0  0  0  0  0  0  0  0
  139.7500   73.5090  221.5680 C   0  0  0  0  0  0  0  0  0  0  0  0
  139.0320   75.8260  221.7400 C   0  0  0  0  0  0  0  0  0  0  0  0
  136.6990   76.3000  221.7720 N   0  0  0  0  0  0  0  0  0  0  0  0
  137.9350   76.6350  221.9770 C   0  0  0  0  0  0  0  0  0  0  0  0
  141.0450   72.8580  220.7260 S   0  0  0  0  0  0  0  0  0  0  0  0
  141.3690   71.7030  221.9080 C   0  0  0  0  0  0  0  0  0  0  0  0
  142.1639   70.9438  221.8658 H   0  0  0  0  0  0  0  0  0  0  0  0
  140.4550   71.8740  222.9520 C   0  0  0  0  0  0  0  0  0  0  0  0
  140.4600   71.0390  224.1800 C   0  0  0  0  0  0  0  0  0  0  0  0
  141.0340   71.5230  225.3690 C   0  0  0  0  0  0  0  0  0  0  0  0
  141.4793   72.5286  225.3913 H   0  0  0  0  0  0  0  0  0  0  0  0
  141.0420   70.7350  226.5210 C   0  0  0  0  0  0  0  0  0  0  0  0
  141.4936   71.1226  227.4461 H   0  0  0  0  0  0  0  0  0  0  0  0
  140.4800   69.4580  226.5050 C   0  0  0  0  0  0  0  0  0  0  0  0
  140.4934   68.8435  227.4173 H   0  0  0  0  0  0  0  0  0  0  0  0
  139.8970   68.9520  225.3310 C   0  0  0  0  0  0  0  0  0  0  0  0
  139.3120   67.6370  225.3190 N   0  0  0  0  0  0  0  0  0  0  0  0
  139.2070   66.9950  224.2530 O   0  0  0  0  0  0  0  0  0  0  0  0
  138.8600   67.0620  226.4850 O   0  0  0  0  0  0  0  0  0  0  0  0
  139.8920   69.7520  224.1720 C   0  0  0  0  0  0  0  0  0  0  0  0
  139.4377   69.3652  223.2478 H   0  0  0  0  0  0  0  0  0  0  0  0
  139.5610   72.8850  222.7550 N   0  0  0  0  0  0  0  0  0  0  0  0
  138.8290   73.1510  223.4490 H   0  0  0  0  0  0  0  0  0  0  0  0
  140.1170   76.6590  221.9210 C   0  0  0  0  0  0  0  0  0  0  0  0
  141.4520   76.3250  221.7060 O   0  0  0  0  0  0  0  0  0  0  0  0
  142.1540   76.5010  222.4140 H   0  0  0  0  0  0  0  0  0  0  0  0
  139.6870   77.8790  222.3070 N   0  0  0  0  0  0  0  0  0  0  0  0
  140.5320   79.0170  222.5490 C   0  0  0  0  0  0  0  0  0  0  0  0
  141.4330   79.0110  223.6240 C   0  0  0  0  0  0  0  0  0  0  0  0
  141.4831   78.1385  224.2919 H   0  0  0  0  0  0  0  0  0  0  0  0
  142.2680   80.1100  223.8500 C   0  0  0  0  0  0  0  0  0  0  0  0
  142.9689   80.1023  224.6978 H   0  0  0  0  0  0  0  0  0  0  0  0
  142.2130   81.2180  223.0000 C   0  0  0  0  0  0  0  0  0  0  0  0
  142.8669   82.0837  223.1817 H   0  0  0  0  0  0  0  0  0  0  0  0
  141.3270   81.2260  221.9190 C   0  0  0  0  0  0  0  0  0  0  0  0
  141.2869   82.0966  221.2479 H   0  0  0  0  0  0  0  0  0  0  0  0
  140.4920   80.1290  221.6900 C   0  0  0  0  0  0  0  0  0  0  0  0
  139.8008   80.1357  220.8343 H   0  0  0  0  0  0  0  0  0  0  0  0
  138.3550   77.8660  222.3580 N   0  0  0  0  0  0  0  0  0  0  0  0
  137.5040   79.0020  222.7250 C   0  0  0  0  0  0  0  0  0  0  0  0
  137.4468   79.0783  223.8209 H   0  0  0  0  0  0  0  0  0  0  0  0
  137.9322   79.9285  222.3148 H   0  0  0  0  0  0  0  0  0  0  0  0
  136.4945   78.8515  222.3148 H   0  0  0  0  0  0  0  0  0  0  0  0
  1  2  1  0
  2  3  2  0
  3  4  1  0
  4  5  1  0
  5  6  2  0
  6  7  1  0
  7  8  1  0
  8  9  1  0
  8 10  2  0
 10 11  1  0
 11 12  2  0
 12 13  1  0
 12 14  1  0
 14 15  1  0
 14 16  2  0
 16 17  1  0
 16 18  1  0
 18 19  1  0
 19 20  2  0
 19 21  1  0
 18 22  2  0
 22 23  1  0
 10 24  1  0
 24 25  1  0
  4 26  2  0
 26 27  1  0
 27 28  1  0
 26 29  1  0
 29 30  1  0
 30 31  2  0
 31 32  1  0
 31 33  1  0
 33 34  1  0
 33 35  2  0
 35 36  1  0
 35 37  1  0
 37 38  1  0
 37 39  2  0
 39 40  1  0
 29 41  1  0
 41 42  1  0
 42 43  1  0
 42 44  1  0
 42 45  1  0
 41  3  1  0
 24  6  1  0
 39 30  1  0
 22 11  1  0
M  CHG  2  19   1  21  -1
M  END
>  <UniqueID>  (3) 
27

>  <SMILES>  (3) 
[H]/N=c1/c(/N=c2\[nH]c(-c3cccc([N+](=O)[O-])c3)cs2)c(O)n(-c2ccccc2)n1C

>  <Energy>  (3) 
133.56763920973702

>  <Genealogy>  (3) 
Cn1c(=N)c(N=c2[nH]c(-c3cccc([N+](=O)[O-])c3)cs2)c(O)n1-c1ccccc1 (tautomer)
[H]/N=c1/c(/N=c2\[nH]c(-c3cccc([N+](=O)[O-])c3)cs2)c(O)n(-c2ccccc2)n1C (cis-trans isomerization)
[H]/N=c1/c(/N=c2\[nH]c(-c3cccc([N+](=O)[O-])c3)cs2)c(O)n(-c2ccccc2)n1C (3D coordinates assigned)
[H]/N=c1/c(/N=c2\[nH]c(-c3cccc([N+](=O)[O-])c3)cs2)c(O)n(-c2ccccc2)n1C (optimized conformer: 133.56763920973702 kcal/mol)

>  <smiles>  (3) 
Cn1c(N)c(N=c2[nH]c(-c3cccc([N+](=O)[O-])c3)cs2)c(=O)n1-c1ccccc1

>  <score_type>  (3) 
oracle

>  <origin>  (3) 
autodockgpu

>  <m_score__min__energy>  (3) 
-8.6300000000000008

>  <m_primary>  (3) 
energy

>  <meeko>  (3) 
{"free_energy": -8.4, "intermolecular_energy": -10.49, "internal_energy": -1.21, "cluster_size": 6, "cluster_id": 2, "rank_in_cluster": 2}

>  <energy>  (3) 
-8.6

>  <cluster_rmsd>  (3) 
1.59

>  <rmsd>  (3) 
272.16

>  <cluster>  (3) 
1

$$$$
GBOKQMTYAKOHJX-UURMYREPNA-N
     RDKit          3D

 45 48  0  0  0  0  0  0  0  0999 V2000
  136.6490   74.6580  219.5010 H   0  0  0  0  0  0  0  0  0  0  0  0
  138.9120   73.5290  220.6570 N   0  0  0  0  0  0  0  0  0  0  0  0
  138.9430   72.4870  221.4360 C   0  0  0  0  0  0  0  0  0  0  0  0
  138.7880   74.8890  221.0880 C   0  0  0  0  0  0  0  0  0  0  0  0
  136.8480   75.5990  219.9030 N   0  0  0  0  0  0  0  0  0  0  0  0
  137.8530   75.8290  220.6910 C   0  0  0  0  0  0  0  0  0  0  0  0
  138.3930   70.9740  220.9710 S   0  0  0  0  0  0  0  0  0  0  0  0
  138.8080   70.2560  222.4380 C   0  0  0  0  0  0  0  0  0  0  0  0
  138.6476   69.2016  222.7074 H   0  0  0  0  0  0  0  0  0  0  0  0
  139.3910   71.2300  223.2540 C   0  0  0  0  0  0  0  0  0  0  0  0
  139.9010   70.9460  224.6190 C   0  0  0  0  0  0  0  0  0  0  0  0
  140.6970   71.8880  225.2940 C   0  0  0  0  0  0  0  0  0  0  0  0
  140.9410   72.8448  224.8091 H   0  0  0  0  0  0  0  0  0  0  0  0
  141.1800   71.6170  226.5760 C   0  0  0  0  0  0  0  0  0  0  0  0
  141.8029   72.3604  227.0950 H   0  0  0  0  0  0  0  0  0  0  0  0
  140.8760   70.4080  227.2010 C   0  0  0  0  0  0  0  0  0  0  0  0
  141.2616   70.2023  228.2104 H   0  0  0  0  0  0  0  0  0  0  0  0
  140.0800   69.4510  226.5490 C   0  0  0  0  0  0  0  0  0  0  0  0
  139.7630   68.2060  227.2000 N   0  0  0  0  0  0  0  0  0  0  0  0
  140.0250   68.0330  228.4080 O   0  0  0  0  0  0  0  0  0  0  0  0
  139.1600   67.1850  226.5010 O   0  0  0  0  0  0  0  0  0  0  0  0
  139.5960   69.7300  225.2570 C   0  0  0  0  0  0  0  0  0  0  0  0
  138.9710   68.9874  224.7394 H   0  0  0  0  0  0  0  0  0  0  0  0
  139.4660   72.4680  222.6850 N   0  0  0  0  0  0  0  0  0  0  0  0
  139.8920   73.2950  223.1570 H   0  0  0  0  0  0  0  0  0  0  0  0
  139.7500   75.6230  221.7520 C   0  0  0  0  0  0  0  0  0  0  0  0
  140.9480   75.1310  222.2640 O   0  0  0  0  0  0  0  0  0  0  0  0
  141.8040   75.6670  222.1940 H   0  0  0  0  0  0  0  0  0  0  0  0
  139.3720   76.9190  221.8000 N   0  0  0  0  0  0  0  0  0  0  0  0
  140.1450   77.9850  222.3770 C   0  0  0  0  0  0  0  0  0  0  0  0
  141.4820   78.1750  221.9950 C   0  0  0  0  0  0  0  0  0  0  0  0
  141.9441   77.4974  221.2620 H   0  0  0  0  0  0  0  0  0  0  0  0
  142.2290   79.2230  222.5430 C   0  0  0  0  0  0  0  0  0  0  0  0
  143.2785   79.3638  222.2451 H   0  0  0  0  0  0  0  0  0  0  0  0
  141.6440   80.0910  223.4680 C   0  0  0  0  0  0  0  0  0  0  0  0
  142.2340   80.9124  223.9007 H   0  0  0  0  0  0  0  0  0  0  0  0
  140.3090   79.9160  223.8440 C   0  0  0  0  0  0  0  0  0  0  0  0
  139.8479   80.6019  224.5699 H   0  0  0  0  0  0  0  0  0  0  0  0
  139.5600   78.8700  223.2980 C   0  0  0  0  0  0  0  0  0  0  0  0
  138.5078   78.7391  223.5907 H   0  0  0  0  0  0  0  0  0  0  0  0
  138.2070   77.0470  221.1660 N   0  0  0  0  0  0  0  0  0  0  0  0
  137.4670   78.3000  220.9880 C   0  0  0  0  0  0  0  0  0  0  0  0
  137.2179   78.7218  221.9729 H   0  0  0  0  0  0  0  0  0  0  0  0
  138.0873   79.0159  220.4288 H   0  0  0  0  0  0  0  0  0  0  0  0
  136.5406   78.1025  220.4288 H   0  0  0  0  0  0  0  0  0  0  0  0
  1  2  1  0
  2  3  2  0
  3  4  1  0
  4  5  1  0
  5  6  2  0
  6  7  1  0
  7  8  1  0
  8  9  1  0
  8 10  2  0
 10 11  1  0
 11 12  2  0
 12 13  1  0
 12 14  1  0
 14 15  1  0
 14 16  2  0
 16 17  1  0
 16 18  1  0
 18 19  1  0
 19 20  2  0
 19 21  1  0
 18 22  2  0
 22 23  1  0
 10 24  1  0
 24 25  1  0
  4 26  2  0
 26 27  1  0
 27 28  1  0
 26 29  1  0
 29 30  1  0
 30 31  2  0
 31 32  1  0
 31 33  1  0
 33 34  1  0
 33 35  2  0
 35 36  1  0
 35 37  1  0
 37 38  1  0
 37 39  2  0
 39 40  1  0
 29 41  1  0
 41 42  1  0
 42 43  1  0
 42 44  1  0
 42 45  1  0
 41  3  1  0
 24  6  1  0
 39 30  1  0
 22 11  1  0
M  CHG  2  19   1  21  -1
M  END
>  <UniqueID>  (4) 
27

>  <SMILES>  (4) 
[H]/N=c1/c(/N=c2\[nH]c(-c3cccc([N+](=O)[O-])c3)cs2)c(O)n(-c2ccccc2)n1C

>  <Energy>  (4) 
133.56763920973702

>  <Genealogy>  (4) 
Cn1c(=N)c(N=c2[nH]c(-c3cccc([N+](=O)[O-])c3)cs2)c(O)n1-c1ccccc1 (tautomer)
[H]/N=c1/c(/N=c2\[nH]c(-c3cccc([N+](=O)[O-])c3)cs2)c(O)n(-c2ccccc2)n1C (cis-trans isomerization)
[H]/N=c1/c(/N=c2\[nH]c(-c3cccc([N+](=O)[O-])c3)cs2)c(O)n(-c2ccccc2)n1C (3D coordinates assigned)
[H]/N=c1/c(/N=c2\[nH]c(-c3cccc([N+](=O)[O-])c3)cs2)c(O)n(-c2ccccc2)n1C (optimized conformer: 133.56763920973702 kcal/mol)

>  <smiles>  (4) 
Cn1c(N)c(N=c2[nH]c(-c3cccc([N+](=O)[O-])c3)cs2)c(=O)n1-c1ccccc1

>  <score_type>  (4) 
oracle

>  <origin>  (4) 
autodockgpu

>  <m_score__min__energy>  (4) 
-8.6300000000000008

>  <m_primary>  (4) 
energy

>  <meeko>  (4) 
{"free_energy": -7.71, "intermolecular_energy": -9.8, "internal_energy": -1.68, "cluster_size": 12, "cluster_id": 1, "rank_in_cluster": 12}

>  <energy>  (4) 
-8.6

>  <cluster_rmsd>  (4) 
1.58

>  <rmsd>  (4) 
272.21

>  <cluster>  (4) 
1

$$$$
GBOKQMTYAKOHJX-UURMYREPNA-N
     RDKit          3D

 45 48  0  0  0  0  0  0  0  0999 V2000
  136.4940   74.9920  221.4320 H   0  0  0  0  0  0  0  0  0  0  0  0
  139.0370   73.9350  221.0280 N   0  0  0  0  0  0  0  0  0  0  0  0
  139.1020   72.7900  221.6400 C   0  0  0  0  0  0  0  0  0  0  0  0
  139.1520   75.2210  221.6500 C   0  0  0  0  0  0  0  0  0  0  0  0
  136.8680   75.8490  221.8930 N   0  0  0  0  0  0  0  0  0  0  0  0
  138.1370   76.0960  221.9970 C   0  0  0  0  0  0  0  0  0  0  0  0
  138.6480   71.3400  220.9320 S   0  0  0  0  0  0  0  0  0  0  0  0
  139.0590   70.4270  222.2870 C   0  0  0  0  0  0  0  0  0  0  0  0
  138.9477   69.3373  222.3876 H   0  0  0  0  0  0  0  0  0  0  0  0
  139.5660   71.2920  223.2620 C   0  0  0  0  0  0  0  0  0  0  0  0
  140.0510   70.8270  224.5860 C   0  0  0  0  0  0  0  0  0  0  0  0
  140.6960   71.7170  225.4620 C   0  0  0  0  0  0  0  0  0  0  0  0
  140.8394   72.7669  225.1666 H   0  0  0  0  0  0  0  0  0  0  0  0
  141.1560   71.2770  226.7050 C   0  0  0  0  0  0  0  0  0  0  0  0
  141.6587   71.9819  227.3836 H   0  0  0  0  0  0  0  0  0  0  0  0
  140.9810   69.9480  227.0900 C   0  0  0  0  0  0  0  0  0  0  0  0
  141.3494   69.6095  228.0697 H   0  0  0  0  0  0  0  0  0  0  0  0
  140.3370   69.0390  226.2340 C   0  0  0  0  0  0  0  0  0  0  0  0
  140.1510   67.6690  226.6370 N   0  0  0  0  0  0  0  0  0  0  0  0
  141.0790   67.0310  227.1750 O   0  0  0  0  0  0  0  0  0  0  0  0
  138.9430   67.0390  226.4390 O   0  0  0  0  0  0  0  0  0  0  0  0
  139.8750   69.4890  224.9820 C   0  0  0  0  0  0  0  0  0  0  0  0
  139.3698   68.7846  224.3048 H   0  0  0  0  0  0  0  0  0  0  0  0
  139.5890   72.6040  222.8900 N   0  0  0  0  0  0  0  0  0  0  0  0
  139.9560   73.3690  223.4970 H   0  0  0  0  0  0  0  0  0  0  0  0
  140.3030   75.9740  221.7520 C   0  0  0  0  0  0  0  0  0  0  0  0
  141.5890   75.5570  221.4160 O   0  0  0  0  0  0  0  0  0  0  0  0
  142.3570   75.6580  222.0690 H   0  0  0  0  0  0  0  0  0  0  0  0
  139.9920   77.2110  222.1970 N   0  0  0  0  0  0  0  0  0  0  0  0
  140.9310   78.2840  222.3860 C   0  0  0  0  0  0  0  0  0  0  0  0
  141.3480   79.0560  221.2910 C   0  0  0  0  0  0  0  0  0  0  0  0
  140.9657   78.8314  220.2843 H   0  0  0  0  0  0  0  0  0  0  0  0
  142.2490   80.1110  221.4760 C   0  0  0  0  0  0  0  0  0  0  0  0
  142.5787   80.7094  220.6139 H   0  0  0  0  0  0  0  0  0  0  0  0
  142.7300   80.4050  222.7540 C   0  0  0  0  0  0  0  0  0  0  0  0
  143.4400   81.2328  222.8975 H   0  0  0  0  0  0  0  0  0  0  0  0
  142.3090   79.6470  223.8510 C   0  0  0  0  0  0  0  0  0  0  0  0
  142.6858   79.8806  224.8577 H   0  0  0  0  0  0  0  0  0  0  0  0
  141.4100   78.5930  223.6690 C   0  0  0  0  0  0  0  0  0  0  0  0
  141.0760   78.0026  224.5350 H   0  0  0  0  0  0  0  0  0  0  0  0
  138.6720   77.2860  222.3620 N   0  0  0  0  0  0  0  0  0  0  0  0
  137.9360   78.4660  222.8230 C   0  0  0  0  0  0  0  0  0  0  0  0
  137.9245   78.4844  223.9228 H   0  0  0  0  0  0  0  0  0  0  0  0
  138.4275   79.3751  222.4462 H   0  0  0  0  0  0  0  0  0  0  0  0
  136.9034   78.4244  222.4462 H   0  0  0  0  0  0  0  0  0  0  0  0
  1  2  1  0
  2  3  2  0
  3  4  1  0
  4  5  1  0
  5  6  2  0
  6  7  1  0
  7  8  1  0
  8  9  1  0
  8 10  2  0
 10 11  1  0
 11 12  2  0
 12 13  1  0
 12 14  1  0
 14 15  1  0
 14 16  2  0
 16 17  1  0
 16 18  1  0
 18 19  1  0
 19 20  2  0
 19 21  1  0
 18 22  2  0
 22 23  1  0
 10 24  1  0
 24 25  1  0
  4 26  2  0
 26 27  1  0
 27 28  1  0
 26 29  1  0
 29 30  1  0
 30 31  2  0
 31 32  1  0
 31 33  1  0
 33 34  1  0
 33 35  2  0
 35 36  1  0
 35 37  1  0
 37 38  1  0
 37 39  2  0
 39 40  1  0
 29 41  1  0
 41 42  1  0
 42 43  1  0
 42 44  1  0
 42 45  1  0
 41  3  1  0
 24  6  1  0
 39 30  1  0
 22 11  1  0
M  CHG  2  19   1  21  -1
M  END
>  <UniqueID>  (5) 
27

>  <SMILES>  (5) 
[H]/N=c1/c(/N=c2\[nH]c(-c3cccc([N+](=O)[O-])c3)cs2)c(O)n(-c2ccccc2)n1C

>  <Energy>  (5) 
133.56763920973702

>  <Genealogy>  (5) 
Cn1c(=N)c(N=c2[nH]c(-c3cccc([N+](=O)[O-])c3)cs2)c(O)n1-c1ccccc1 (tautomer)
[H]/N=c1/c(/N=c2\[nH]c(-c3cccc([N+](=O)[O-])c3)cs2)c(O)n(-c2ccccc2)n1C (cis-trans isomerization)
[H]/N=c1/c(/N=c2\[nH]c(-c3cccc([N+](=O)[O-])c3)cs2)c(O)n(-c2ccccc2)n1C (3D coordinates assigned)
[H]/N=c1/c(/N=c2\[nH]c(-c3cccc([N+](=O)[O-])c3)cs2)c(O)n(-c2ccccc2)n1C (optimized conformer: 133.56763920973702 kcal/mol)

>  <smiles>  (5) 
Cn1c(N)c(N=c2[nH]c(-c3cccc([N+](=O)[O-])c3)cs2)c(=O)n1-c1ccccc1

>  <score_type>  (5) 
oracle

>  <origin>  (5) 
autodockgpu

>  <m_score__min__energy>  (5) 
-8.6300000000000008

>  <m_primary>  (5) 
energy

>  <meeko>  (5) 
{"free_energy": -8.38, "intermolecular_energy": -10.46, "internal_energy": -1.26, "cluster_size": 12, "cluster_id": 1, "rank_in_cluster": 11}

>  <energy>  (5) 
-8.58

>  <cluster_rmsd>  (5) 
1.75

>  <rmsd>  (5) 
271.99

>  <cluster>  (5) 
1

$$$$
GBOKQMTYAKOHJX-UURMYREPNA-N
     RDKit          3D

 45 48  0  0  0  0  0  0  0  0999 V2000
  136.6370   75.0260  221.5600 H   0  0  0  0  0  0  0  0  0  0  0  0
  139.1790   74.1370  220.8680 N   0  0  0  0  0  0  0  0  0  0  0  0
  139.4950   72.9740  221.3550 C   0  0  0  0  0  0  0  0  0  0  0  0
  139.2860   75.3880  221.5580 C   0  0  0  0  0  0  0  0  0  0  0  0
  136.9990   75.9230  221.9510 N   0  0  0  0  0  0  0  0  0  0  0  0
  138.2630   76.2060  222.0060 C   0  0  0  0  0  0  0  0  0  0  0  0
  140.0380   71.6980  220.4150 S   0  0  0  0  0  0  0  0  0  0  0  0
  140.2430   70.6730  221.7360 C   0  0  0  0  0  0  0  0  0  0  0  0
  140.5926   69.6309  221.6943 H   0  0  0  0  0  0  0  0  0  0  0  0
  139.8930   71.3730  222.8940 C   0  0  0  0  0  0  0  0  0  0  0  0
  139.9740   70.7840  224.2550 C   0  0  0  0  0  0  0  0  0  0  0  0
  139.7230   69.4160  224.4560 C   0  0  0  0  0  0  0  0  0  0  0  0
  139.4683   68.7753  223.5989 H   0  0  0  0  0  0  0  0  0  0  0  0
  139.7950   68.8650  225.7370 C   0  0  0  0  0  0  0  0  0  0  0  0
  139.5962   67.7932  225.8841 H   0  0  0  0  0  0  0  0  0  0  0  0
  140.1180   69.6680  226.8310 C   0  0  0  0  0  0  0  0  0  0  0  0
  140.1703   69.2260  227.8369 H   0  0  0  0  0  0  0  0  0  0  0  0
  140.3770   71.0380  226.6560 C   0  0  0  0  0  0  0  0  0  0  0  0
  140.7170   71.8620  227.7870 N   0  0  0  0  0  0  0  0  0  0  0  0
  139.9890   71.8860  228.8010 O   0  0  0  0  0  0  0  0  0  0  0  0
  141.8550   72.6360  227.7710 O   0  0  0  0  0  0  0  0  0  0  0  0
  140.3030   71.5870  225.3630 C   0  0  0  0  0  0  0  0  0  0  0  0
  140.5050   72.6582  225.2159 H   0  0  0  0  0  0  0  0  0  0  0  0
  139.4830   72.6550  222.6710 N   0  0  0  0  0  0  0  0  0  0  0  0
  139.2090   73.3130  223.4330 H   0  0  0  0  0  0  0  0  0  0  0  0
  140.4170   76.1730  221.6480 C   0  0  0  0  0  0  0  0  0  0  0  0
  141.6960   75.8200  221.2250 O   0  0  0  0  0  0  0  0  0  0  0  0
  142.5110   76.3210  221.5570 H   0  0  0  0  0  0  0  0  0  0  0  0
  140.0900   77.3710  222.1810 N   0  0  0  0  0  0  0  0  0  0  0  0
  141.0040   78.4620  222.3860 C   0  0  0  0  0  0  0  0  0  0  0  0
  141.3180   79.3280  221.3280 C   0  0  0  0  0  0  0  0  0  0  0  0
  140.8743   79.1633  220.3350 H   0  0  0  0  0  0  0  0  0  0  0  0
  142.1930   80.4000  221.5310 C   0  0  0  0  0  0  0  0  0  0  0  0
  142.4414   81.0722  220.6964 H   0  0  0  0  0  0  0  0  0  0  0  0
  142.7520   80.6180  222.7930 C   0  0  0  0  0  0  0  0  0  0  0  0
  143.4425   81.4596  222.9506 H   0  0  0  0  0  0  0  0  0  0  0  0
  142.4340   79.7670  223.8550 C   0  0  0  0  0  0  0  0  0  0  0  0
  142.8719   79.9411  224.8489 H   0  0  0  0  0  0  0  0  0  0  0  0
  141.5600   78.6950  223.6550 C   0  0  0  0  0  0  0  0  0  0  0  0
  141.3064   78.0310  224.4945 H   0  0  0  0  0  0  0  0  0  0  0  0
  138.7780   77.3910  222.4150 N   0  0  0  0  0  0  0  0  0  0  0  0
  138.0300   78.5170  222.9800 C   0  0  0  0  0  0  0  0  0  0  0  0
  138.0641   78.4657  224.0783 H   0  0  0  0  0  0  0  0  0  0  0  0
  138.4803   79.4623  222.6430 H   0  0  0  0  0  0  0  0  0  0  0  0
  136.9840   78.4684  222.6430 H   0  0  0  0  0  0  0  0  0  0  0  0
  1  2  1  0
  2  3  2  0
  3  4  1  0
  4  5  1  0
  5  6  2  0
  6  7  1  0
  7  8  1  0
  8  9  1  0
  8 10  2  0
 10 11  1  0
 11 12  2  0
 12 13  1  0
 12 14  1  0
 14 15  1  0
 14 16  2  0
 16 17  1  0
 16 18  1  0
 18 19  1  0
 19 20  2  0
 19 21  1  0
 18 22  2  0
 22 23  1  0
 10 24  1  0
 24 25  1  0
  4 26  2  0
 26 27  1  0
 27 28  1  0
 26 29  1  0
 29 30  1  0
 30 31  2  0
 31 32  1  0
 31 33  1  0
 33 34  1  0
 33 35  2  0
 35 36  1  0
 35 37  1  0
 37 38  1  0
 37 39  2  0
 39 40  1  0
 29 41  1  0
 41 42  1  0
 42 43  1  0
 42 44  1  0
 42 45  1  0
 41  3  1  0
 24  6  1  0
 39 30  1  0
 22 11  1  0
M  CHG  2  19   1  21  -1
M  END
>  <UniqueID>  (6) 
27

>  <SMILES>  (6) 
[H]/N=c1/c(/N=c2\[nH]c(-c3cccc([N+](=O)[O-])c3)cs2)c(O)n(-c2ccccc2)n1C

>  <Energy>  (6) 
133.56763920973702

>  <Genealogy>  (6) 
Cn1c(=N)c(N=c2[nH]c(-c3cccc([N+](=O)[O-])c3)cs2)c(O)n1-c1ccccc1 (tautomer)
[H]/N=c1/c(/N=c2\[nH]c(-c3cccc([N+](=O)[O-])c3)cs2)c(O)n(-c2ccccc2)n1C (cis-trans isomerization)
[H]/N=c1/c(/N=c2\[nH]c(-c3cccc([N+](=O)[O-])c3)cs2)c(O)n(-c2ccccc2)n1C (3D coordinates assigned)
[H]/N=c1/c(/N=c2\[nH]c(-c3cccc([N+](=O)[O-])c3)cs2)c(O)n(-c2ccccc2)n1C (optimized conformer: 133.56763920973702 kcal/mol)

>  <smiles>  (6) 
Cn1c(N)c(N=c2[nH]c(-c3cccc([N+](=O)[O-])c3)cs2)c(=O)n1-c1ccccc1

>  <score_type>  (6) 
oracle

>  <origin>  (6) 
autodockgpu

>  <m_score__min__energy>  (6) 
-8.6300000000000008

>  <m_primary>  (6) 
energy

>  <meeko>  (6) 
{"free_energy": -8.4, "intermolecular_energy": -10.49, "internal_energy": -1.23, "cluster_size": 12, "cluster_id": 1, "rank_in_cluster": 9}

>  <energy>  (6) 
-8.56

>  <cluster_rmsd>  (6) 
1.6

>  <rmsd>  (6) 
272.16

>  <cluster>  (6) 
1

$$$$
GBOKQMTYAKOHJX-UURMYREPNA-N
     RDKit          3D

 45 48  0  0  0  0  0  0  0  0999 V2000
  136.7410   74.5240  221.5420 H   0  0  0  0  0  0  0  0  0  0  0  0
  139.3260   73.6740  220.9690 N   0  0  0  0  0  0  0  0  0  0  0  0
  139.3890   72.5270  221.5790 C   0  0  0  0  0  0  0  0  0  0  0  0
  139.3790   74.9590  221.6010 C   0  0  0  0  0  0  0  0  0  0  0  0
  137.0680   75.4460  221.9060 N   0  0  0  0  0  0  0  0  0  0  0  0
  138.3220   75.7680  221.9810 C   0  0  0  0  0  0  0  0  0  0  0  0
  139.2690   71.0550  220.7880 S   0  0  0  0  0  0  0  0  0  0  0  0
  139.4810   70.1590  222.1980 C   0  0  0  0  0  0  0  0  0  0  0  0
  139.4777   69.0614  222.2703 H   0  0  0  0  0  0  0  0  0  0  0  0
  139.6620   71.0490  223.2610 C   0  0  0  0  0  0  0  0  0  0  0  0
  139.9020   70.6070  224.6580 C   0  0  0  0  0  0  0  0  0  0  0  0
  139.4580   69.3470  225.0940 C   0  0  0  0  0  0  0  0  0  0  0  0
  138.9320   68.6809  224.3942 H   0  0  0  0  0  0  0  0  0  0  0  0
  139.6800   68.9350  226.4090 C   0  0  0  0  0  0  0  0  0  0  0  0
  139.3276   67.9470  226.7403 H   0  0  0  0  0  0  0  0  0  0  0  0
  140.3470   69.7710  227.3050 C   0  0  0  0  0  0  0  0  0  0  0  0
  140.5154   69.4390  228.3401 H   0  0  0  0  0  0  0  0  0  0  0  0
  140.8050   71.0340  226.8940 C   0  0  0  0  0  0  0  0  0  0  0  0
  141.4990   71.8910  227.8190 N   0  0  0  0  0  0  0  0  0  0  0  0
  141.8090   73.0570  227.4980 O   0  0  0  0  0  0  0  0  0  0  0  0
  141.8300   71.4410  229.0770 O   0  0  0  0  0  0  0  0  0  0  0  0
  140.5770   71.4430  225.5660 C   0  0  0  0  0  0  0  0  0  0  0  0
  140.9316   72.4299  225.2340 H   0  0  0  0  0  0  0  0  0  0  0  0
  139.6140   72.3650  222.9050 N   0  0  0  0  0  0  0  0  0  0  0  0
  139.7510   73.1500  223.5780 H   0  0  0  0  0  0  0  0  0  0  0  0
  140.4850   75.7790  221.6820 C   0  0  0  0  0  0  0  0  0  0  0  0
  141.7850   75.4440  221.3110 O   0  0  0  0  0  0  0  0  0  0  0  0
  142.5690   76.0290  221.5710 H   0  0  0  0  0  0  0  0  0  0  0  0
  140.1120   76.9910  222.1470 N   0  0  0  0  0  0  0  0  0  0  0  0
  140.9890   78.1170  222.3230 C   0  0  0  0  0  0  0  0  0  0  0  0
  141.3370   78.9190  221.2250 C   0  0  0  0  0  0  0  0  0  0  0  0
  140.9486   78.6776  220.2246 H   0  0  0  0  0  0  0  0  0  0  0  0
  142.1760   80.0240  221.3990 C   0  0  0  0  0  0  0  0  0  0  0  0
  142.4507   80.6463  220.5346 H   0  0  0  0  0  0  0  0  0  0  0  0
  142.6660   80.3390  222.6690 C   0  0  0  0  0  0  0  0  0  0  0  0
  143.3293   81.2063  222.8028 H   0  0  0  0  0  0  0  0  0  0  0  0
  142.3140   79.5530  223.7690 C   0  0  0  0  0  0  0  0  0  0  0  0
  142.6972   79.8038  224.7691 H   0  0  0  0  0  0  0  0  0  0  0  0
  141.4750   78.4480  223.5990 C   0  0  0  0  0  0  0  0  0  0  0  0
  141.1941   77.8349  224.4680 H   0  0  0  0  0  0  0  0  0  0  0  0
  138.7940   76.9850  222.3450 N   0  0  0  0  0  0  0  0  0  0  0  0
  138.0000   78.1150  222.8350 C   0  0  0  0  0  0  0  0  0  0  0  0
  138.0007   78.1140  223.9350 H   0  0  0  0  0  0  0  0  0  0  0  0
  138.4365   79.0560  222.4689 H   0  0  0  0  0  0  0  0  0  0  0  0
  136.9668   78.0232  222.4689 H   0  0  0  0  0  0  0  0  0  0  0  0
  1  2  1  0
  2  3  2  0
  3  4  1  0
  4  5  1  0
  5  6  2  0
  6  7  1  0
  7  8  1  0
  8  9  1  0
  8 10  2  0
 10 11  1  0
 11 12  2  0
 12 13  1  0
 12 14  1  0
 14 15  1  0
 14 16  2  0
 16 17  1  0
 16 18  1  0
 18 19  1  0
 19 20  2  0
 19 21  1  0
 18 22  2  0
 22 23  1  0
 10 24  1  0
 24 25  1  0
  4 26  2  0
 26 27  1  0
 27 28  1  0
 26 29  1  0
 29 30  1  0
 30 31  2  0
 31 32  1  0
 31 33  1  0
 33 34  1  0
 33 35  2  0
 35 36  1  0
 35 37  1  0
 37 38  1  0
 37 39  2  0
 39 40  1  0
 29 41  1  0
 41 42  1  0
 42 43  1  0
 42 44  1  0
 42 45  1  0
 41  3  1  0
 24  6  1  0
 39 30  1  0
 22 11  1  0
M  CHG  2  19   1  21  -1
M  END
>  <UniqueID>  (7) 
27

>  <SMILES>  (7) 
[H]/N=c1/c(/N=c2\[nH]c(-c3cccc([N+](=O)[O-])c3)cs2)c(O)n(-c2ccccc2)n1C

>  <Energy>  (7) 
133.56763920973702

>  <Genealogy>  (7) 
Cn1c(=N)c(N=c2[nH]c(-c3cccc([N+](=O)[O-])c3)cs2)c(O)n1-c1ccccc1 (tautomer)
[H]/N=c1/c(/N=c2\[nH]c(-c3cccc([N+](=O)[O-])c3)cs2)c(O)n(-c2ccccc2)n1C (cis-trans isomerization)
[H]/N=c1/c(/N=c2\[nH]c(-c3cccc([N+](=O)[O-])c3)cs2)c(O)n(-c2ccccc2)n1C (3D coordinates assigned)
[H]/N=c1/c(/N=c2\[nH]c(-c3cccc([N+](=O)[O-])c3)cs2)c(O)n(-c2ccccc2)n1C (optimized conformer: 133.56763920973702 kcal/mol)

>  <smiles>  (7) 
Cn1c(N)c(N=c2[nH]c(-c3cccc([N+](=O)[O-])c3)cs2)c(=O)n1-c1ccccc1

>  <score_type>  (7) 
oracle

>  <origin>  (7) 
autodockgpu

>  <m_score__min__energy>  (7) 
-8.6300000000000008

>  <m_primary>  (7) 
energy

>  <meeko>  (7) 
{"free_energy": -8.4, "intermolecular_energy": -10.48, "internal_energy": -1.19, "cluster_size": 12, "cluster_id": 1, "rank_in_cluster": 10}

>  <energy>  (7) 
-8.54

>  <cluster_rmsd>  (7) 
1.74

>  <rmsd>  (7) 
272.04

>  <cluster>  (7) 
1

$$$$
GBOKQMTYAKOHJX-UURMYREPNA-N
     RDKit          3D

 45 48  0  0  0  0  0  0  0  0999 V2000
  136.7000   74.7070  221.5070 H   0  0  0  0  0  0  0  0  0  0  0  0
  139.2910   73.7760  221.1200 N   0  0  0  0  0  0  0  0  0  0  0  0
  139.5170   72.6690  221.7630 C   0  0  0  0  0  0  0  0  0  0  0  0
  139.3410   75.0930  221.6820 C   0  0  0  0  0  0  0  0  0  0  0  0
  137.0280   75.6270  221.8740 N   0  0  0  0  0  0  0  0  0  0  0  0
  138.2830   75.9350  221.9780 C   0  0  0  0  0  0  0  0  0  0  0  0
  139.5780   71.1680  221.0200 S   0  0  0  0  0  0  0  0  0  0  0  0
  139.9330   70.3550  222.4520 C   0  0  0  0  0  0  0  0  0  0  0  0
  140.0758   69.2695  222.5582 H   0  0  0  0  0  0  0  0  0  0  0  0
  140.0150   71.2960  223.4820 C   0  0  0  0  0  0  0  0  0  0  0  0
  140.3380   70.9370  224.8860 C   0  0  0  0  0  0  0  0  0  0  0  0
  141.0370   71.8360  225.7100 C   0  0  0  0  0  0  0  0  0  0  0  0
  141.3449   72.8148  225.3135 H   0  0  0  0  0  0  0  0  0  0  0  0
  141.3430   71.4940  227.0290 C   0  0  0  0  0  0  0  0  0  0  0  0
  141.8904   72.2046  227.6657 H   0  0  0  0  0  0  0  0  0  0  0  0
  140.9580   70.2560  227.5430 C   0  0  0  0  0  0  0  0  0  0  0  0
  141.2061   69.9943  228.5822 H   0  0  0  0  0  0  0  0  0  0  0  0
  140.2550   69.3410  226.7410 C   0  0  0  0  0  0  0  0  0  0  0  0
  139.8520   68.0660  227.2770 N   0  0  0  0  0  0  0  0  0  0  0  0
  140.0950   67.7680  228.4640 O   0  0  0  0  0  0  0  0  0  0  0  0
  139.1880   67.1550  226.4880 O   0  0  0  0  0  0  0  0  0  0  0  0
  139.9490   69.6910  225.4130 C   0  0  0  0  0  0  0  0  0  0  0  0
  139.3984   68.9814  224.7780 H   0  0  0  0  0  0  0  0  0  0  0  0
  139.7860   72.5820  223.0870 N   0  0  0  0  0  0  0  0  0  0  0  0
  139.8310   73.4000  223.7330 H   0  0  0  0  0  0  0  0  0  0  0  0
  140.4560   75.9020  221.7600 C   0  0  0  0  0  0  0  0  0  0  0  0
  141.7630   75.5290  221.4560 O   0  0  0  0  0  0  0  0  0  0  0  0
  142.5330   76.1730  221.5870 H   0  0  0  0  0  0  0  0  0  0  0  0
  140.0840   77.1420  222.1450 N   0  0  0  0  0  0  0  0  0  0  0  0
  140.9720   78.2640  222.2920 C   0  0  0  0  0  0  0  0  0  0  0  0
  141.3330   79.0290  221.1730 C   0  0  0  0  0  0  0  0  0  0  0  0
  140.9466   78.7617  220.1784 H   0  0  0  0  0  0  0  0  0  0  0  0
  142.1830   80.1310  221.3180 C   0  0  0  0  0  0  0  0  0  0  0  0
  142.4689   80.7240  220.4367 H   0  0  0  0  0  0  0  0  0  0  0  0
  142.6690   80.4790  222.5810 C   0  0  0  0  0  0  0  0  0  0  0  0
  143.3399   81.3435  222.6930 H   0  0  0  0  0  0  0  0  0  0  0  0
  142.3030   79.7290  223.7020 C   0  0  0  0  0  0  0  0  0  0  0  0
  142.6830   80.0057  224.6965 H   0  0  0  0  0  0  0  0  0  0  0  0
  141.4540   78.6270  223.5600 C   0  0  0  0  0  0  0  0  0  0  0  0
  141.1626   78.0422  224.4449 H   0  0  0  0  0  0  0  0  0  0  0  0
  138.7600   77.1640  222.2940 N   0  0  0  0  0  0  0  0  0  0  0  0
  137.9660   78.3300  222.6920 C   0  0  0  0  0  0  0  0  0  0  0  0
  137.9259   78.3889  223.7897 H   0  0  0  0  0  0  0  0  0  0  0  0
  138.4305   79.2436  222.2925 H   0  0  0  0  0  0  0  0  0  0  0  0
  136.9458   78.2326  222.2925 H   0  0  0  0  0  0  0  0  0  0  0  0
  1  2  1  0
  2  3  2  0
  3  4  1  0
  4  5  1  0
  5  6  2  0
  6  7  1  0
  7  8  1  0
  8  9  1  0
  8 10  2  0
 10 11  1  0
 11 12  2  0
 12 13  1  0
 12 14  1  0
 14 15  1  0
 14 16  2  0
 16 17  1  0
 16 18  1  0
 18 19  1  0
 19 20  2  0
 19 21  1  0
 18 22  2  0
 22 23  1  0
 10 24  1  0
 24 25  1  0
  4 26  2  0
 26 27  1  0
 27 28  1  0
 26 29  1  0
 29 30  1  0
 30 31  2  0
 31 32  1  0
 31 33  1  0
 33 34  1  0
 33 35  2  0
 35 36  1  0
 35 37  1  0
 37 38  1  0
 37 39  2  0
 39 40  1  0
 29 41  1  0
 41 42  1  0
 42 43  1  0
 42 44  1  0
 42 45  1  0
 41  3  1  0
 24  6  1  0
 39 30  1  0
 22 11  1  0
M  CHG  2  19   1  21  -1
M  END
>  <UniqueID>  (8) 
27

>  <SMILES>  (8) 
[H]/N=c1/c(/N=c2\[nH]c(-c3cccc([N+](=O)[O-])c3)cs2)c(O)n(-c2ccccc2)n1C

>  <Energy>  (8) 
133.56763920973702

>  <Genealogy>  (8) 
Cn1c(=N)c(N=c2[nH]c(-c3cccc([N+](=O)[O-])c3)cs2)c(O)n1-c1ccccc1 (tautomer)
[H]/N=c1/c(/N=c2\[nH]c(-c3cccc([N+](=O)[O-])c3)cs2)c(O)n(-c2ccccc2)n1C (cis-trans isomerization)
[H]/N=c1/c(/N=c2\[nH]c(-c3cccc([N+](=O)[O-])c3)cs2)c(O)n(-c2ccccc2)n1C (3D coordinates assigned)
[H]/N=c1/c(/N=c2\[nH]c(-c3cccc([N+](=O)[O-])c3)cs2)c(O)n(-c2ccccc2)n1C (optimized conformer: 133.56763920973702 kcal/mol)

>  <smiles>  (8) 
Cn1c(N)c(N=c2[nH]c(-c3cccc([N+](=O)[O-])c3)cs2)c(=O)n1-c1ccccc1

>  <score_type>  (8) 
oracle

>  <origin>  (8) 
autodockgpu

>  <m_score__min__energy>  (8) 
-8.6300000000000008

>  <m_primary>  (8) 
energy

>  <meeko>  (8) 
{"free_energy": -8.6, "intermolecular_energy": -10.69, "internal_energy": -1.22, "cluster_size": 12, "cluster_id": 1, "rank_in_cluster": 3}

>  <energy>  (8) 
-8.5

>  <cluster_rmsd>  (8) 
1.74

>  <rmsd>  (8) 
272.03

>  <cluster>  (8) 
1

$$$$
GBOKQMTYAKOHJX-UURMYREPNA-N
     RDKit          3D

 45 48  0  0  0  0  0  0  0  0999 V2000
  141.1120   73.2600  218.9440 H   0  0  0  0  0  0  0  0  0  0  0  0
  139.0920   73.7060  220.8010 N   0  0  0  0  0  0  0  0  0  0  0  0
  139.3770   72.6180  221.4540 C   0  0  0  0  0  0  0  0  0  0  0  0
  139.9220   74.8700  220.7160 C   0  0  0  0  0  0  0  0  0  0  0  0
  141.5530   74.1890  219.1210 N   0  0  0  0  0  0  0  0  0  0  0  0
  141.0720   75.0460  219.9660 C   0  0  0  0  0  0  0  0  0  0  0  0
  139.5750   71.1260  220.7170 S   0  0  0  0  0  0  0  0  0  0  0  0
  139.9410   70.3420  222.1620 C   0  0  0  0  0  0  0  0  0  0  0  0
  140.1606   69.2701  222.2755 H   0  0  0  0  0  0  0  0  0  0  0  0
  139.9180   71.2860  223.1920 C   0  0  0  0  0  0  0  0  0  0  0  0
  140.2180   70.9520  224.6070 C   0  0  0  0  0  0  0  0  0  0  0  0
  140.8510   71.8880  225.4430 C   0  0  0  0  0  0  0  0  0  0  0  0
  141.1229   72.8778  225.0474 H   0  0  0  0  0  0  0  0  0  0  0  0
  141.1370   71.5700  226.7720 C   0  0  0  0  0  0  0  0  0  0  0  0
  141.6327   72.3100  227.4176 H   0  0  0  0  0  0  0  0  0  0  0  0
  140.7970   70.3180  227.2850 C   0  0  0  0  0  0  0  0  0  0  0  0
  141.0280   70.0753  228.3327 H   0  0  0  0  0  0  0  0  0  0  0  0
  140.1610   69.3650  226.4710 C   0  0  0  0  0  0  0  0  0  0  0  0
  139.8050   68.0760  227.0060 N   0  0  0  0  0  0  0  0  0  0  0  0
  140.0430   67.7920  228.1970 O   0  0  0  0  0  0  0  0  0  0  0  0
  139.1910   67.1350  226.2110 O   0  0  0  0  0  0  0  0  0  0  0  0
  139.8750   69.6920  225.1320 C   0  0  0  0  0  0  0  0  0  0  0  0
  139.3768   68.9529  224.4874 H   0  0  0  0  0  0  0  0  0  0  0  0
  139.6080   72.5510  222.7860 N   0  0  0  0  0  0  0  0  0  0  0  0
  139.5700   73.3710  223.4310 H   0  0  0  0  0  0  0  0  0  0  0  0
  139.9150   75.9380  221.5890 C   0  0  0  0  0  0  0  0  0  0  0  0
  138.9960   76.1550  222.6130 O   0  0  0  0  0  0  0  0  0  0  0  0
  138.5710   75.3790  223.1060 H   0  0  0  0  0  0  0  0  0  0  0  0
  140.9710   76.7380  221.3280 N   0  0  0  0  0  0  0  0  0  0  0  0
  141.3130   77.9260  222.0630 C   0  0  0  0  0  0  0  0  0  0  0  0
  141.4880   79.1460  221.3910 C   0  0  0  0  0  0  0  0  0  0  0  0
  141.3770   79.1904  220.2975 H   0  0  0  0  0  0  0  0  0  0  0  0
  141.8030   80.3050  222.1070 C   0  0  0  0  0  0  0  0  0  0  0  0
  141.9447   81.2575  221.5753 H   0  0  0  0  0  0  0  0  0  0  0  0
  141.9380   80.2550  223.4970 C   0  0  0  0  0  0  0  0  0  0  0  0
  142.1898   81.1668  224.0584 H   0  0  0  0  0  0  0  0  0  0  0  0
  141.7530   79.0460  224.1740 C   0  0  0  0  0  0  0  0  0  0  0  0
  141.8563   79.0078  225.2685 H   0  0  0  0  0  0  0  0  0  0  0  0
  141.4370   77.8860  223.4620 C   0  0  0  0  0  0  0  0  0  0  0  0
  141.2847   76.9380  223.9987 H   0  0  0  0  0  0  0  0  0  0  0  0
  141.6730   76.2060  220.3270 N   0  0  0  0  0  0  0  0  0  0  0  0
  142.8990   76.7670  219.7530 C   0  0  0  0  0  0  0  0  0  0  0  0
  143.5752   77.0764  220.5636 H   0  0  0  0  0  0  0  0  0  0  0  0
  143.3948   76.0062  219.1323 H   0  0  0  0  0  0  0  0  0  0  0  0
  142.6474   77.6396  219.1323 H   0  0  0  0  0  0  0  0  0  0  0  0
  1  2  1  0
  2  3  2  0
  3  4  1  0
  4  5  1  0
  5  6  2  0
  6  7  1  0
  7  8  1  0
  8  9  1  0
  8 10  2  0
 10 11  1  0
 11 12  2  0
 12 13  1  0
 12 14  1  0
 14 15  1  0
 14 16  2  0
 16 17  1  0
 16 18  1  0
 18 19  1  0
 19 20  2  0
 19 21  1  0
 18 22  2  0
 22 23  1  0
 10 24  1  0
 24 25  1  0
  4 26  2  0
 26 27  1  0
 27 28  1  0
 26 29  1  0
 29 30  1  0
 30 31  2  0
 31 32  1  0
 31 33  1  0
 33 34  1  0
 33 35  2  0
 35 36  1  0
 35 37  1  0
 37 38  1  0
 37 39  2  0
 39 40  1  0
 29 41  1  0
 41 42  1  0
 42 43  1  0
 42 44  1  0
 42 45  1  0
 41  3  1  0
 24  6  1  0
 39 30  1  0
 22 11  1  0
M  CHG  2  19   1  21  -1
M  END
>  <UniqueID>  (9) 
27

>  <SMILES>  (9) 
[H]/N=c1/c(/N=c2\[nH]c(-c3cccc([N+](=O)[O-])c3)cs2)c(O)n(-c2ccccc2)n1C

>  <Energy>  (9) 
133.56763920973702

>  <Genealogy>  (9) 
Cn1c(=N)c(N=c2[nH]c(-c3cccc([N+](=O)[O-])c3)cs2)c(O)n1-c1ccccc1 (tautomer)
[H]/N=c1/c(/N=c2\[nH]c(-c3cccc([N+](=O)[O-])c3)cs2)c(O)n(-c2ccccc2)n1C (cis-trans isomerization)
[H]/N=c1/c(/N=c2\[nH]c(-c3cccc([N+](=O)[O-])c3)cs2)c(O)n(-c2ccccc2)n1C (3D coordinates assigned)
[H]/N=c1/c(/N=c2\[nH]c(-c3cccc([N+](=O)[O-])c3)cs2)c(O)n(-c2ccccc2)n1C (optimized conformer: 133.56763920973702 kcal/mol)

>  <smiles>  (9) 
Cn1c(N)c(N=c2[nH]c(-c3cccc([N+](=O)[O-])c3)cs2)c(=O)n1-c1ccccc1

>  <score_type>  (9) 
oracle

>  <origin>  (9) 
autodockgpu

>  <m_score__min__energy>  (9) 
-8.6300000000000008

>  <m_primary>  (9) 
energy

>  <meeko>  (9) 
{"free_energy": -8.27, "intermolecular_energy": -10.36, "internal_energy": -1.38, "cluster_size": 1, "cluster_id": 3, "rank_in_cluster": 1}

>  <energy>  (9) 
-8.4

>  <cluster_rmsd>  (9) 
0.69

>  <rmsd>  (9) 
272.19

>  <cluster>  (9) 
1

$$$$
GBOKQMTYAKOHJX-UURMYREPNA-N
     RDKit          3D

 45 48  0  0  0  0  0  0  0  0999 V2000
  136.5880   75.6890  220.0930 H   0  0  0  0  0  0  0  0  0  0  0  0
  138.8420   74.3820  221.0630 N   0  0  0  0  0  0  0  0  0  0  0  0
  139.6080   73.4430  221.5370 C   0  0  0  0  0  0  0  0  0  0  0  0
  138.9160   75.7710  221.4060 C   0  0  0  0  0  0  0  0  0  0  0  0
  136.9320   76.6240  220.4030 N   0  0  0  0  0  0  0  0  0  0  0  0
  138.0430   76.7850  221.0510 C   0  0  0  0  0  0  0  0  0  0  0  0
  141.0110   72.9280  220.7770 S   0  0  0  0  0  0  0  0  0  0  0  0
  141.3820   71.8140  221.9840 C   0  0  0  0  0  0  0  0  0  0  0  0
  142.2520   71.1410  221.9941 H   0  0  0  0  0  0  0  0  0  0  0  0
  140.3940   71.8910  222.9720 C   0  0  0  0  0  0  0  0  0  0  0  0
  140.4120   71.0630  224.2040 C   0  0  0  0  0  0  0  0  0  0  0  0
  140.9600   71.5680  225.3960 C   0  0  0  0  0  0  0  0  0  0  0  0
  141.3758   72.5862  225.4178 H   0  0  0  0  0  0  0  0  0  0  0  0
  140.9800   70.7860  226.5520 C   0  0  0  0  0  0  0  0  0  0  0  0
  141.4112   71.1910  227.4794 H   0  0  0  0  0  0  0  0  0  0  0  0
  140.4560   69.4940  226.5370 C   0  0  0  0  0  0  0  0  0  0  0  0
  140.4788   68.8843  227.4523 H   0  0  0  0  0  0  0  0  0  0  0  0
  139.8990   68.9660  225.3600 C   0  0  0  0  0  0  0  0  0  0  0  0
  139.3530   67.6340  225.3490 N   0  0  0  0  0  0  0  0  0  0  0  0
  139.2150   67.0100  224.2770 O   0  0  0  0  0  0  0  0  0  0  0  0
  138.9760   67.0230  226.5230 O   0  0  0  0  0  0  0  0  0  0  0  0
  139.8820   69.7590  224.1970 C   0  0  0  0  0  0  0  0  0  0  0  0
  139.4488   69.3542  223.2705 H   0  0  0  0  0  0  0  0  0  0  0  0
  139.4150   72.8040  222.7150 N   0  0  0  0  0  0  0  0  0  0  0  0
  138.6200   72.9950  223.3630 H   0  0  0  0  0  0  0  0  0  0  0  0
  140.0230   76.4290  221.9010 C   0  0  0  0  0  0  0  0  0  0  0  0
  141.2160   75.8360  222.3070 O   0  0  0  0  0  0  0  0  0  0  0  0
  142.1110   76.2430  222.0630 H   0  0  0  0  0  0  0  0  0  0  0  0
  139.7930   77.7600  221.8980 N   0  0  0  0  0  0  0  0  0  0  0  0
  140.7380   78.7640  222.3040 C   0  0  0  0  0  0  0  0  0  0  0  0
  141.2150   78.7910  223.6240 C   0  0  0  0  0  0  0  0  0  0  0  0
  140.8549   78.0496  224.3524 H   0  0  0  0  0  0  0  0  0  0  0  0
  142.1470   79.7580  224.0160 C   0  0  0  0  0  0  0  0  0  0  0  0
  142.5126   79.7798  225.0532 H   0  0  0  0  0  0  0  0  0  0  0  0
  142.6140   80.6960  223.0920 C   0  0  0  0  0  0  0  0  0  0  0  0
  143.3444   81.4575  223.4028 H   0  0  0  0  0  0  0  0  0  0  0  0
  142.1530   80.6670  221.7720 C   0  0  0  0  0  0  0  0  0  0  0  0
  142.5236   81.4035  221.0438 H   0  0  0  0  0  0  0  0  0  0  0  0
  141.2220   79.7030  221.3780 C   0  0  0  0  0  0  0  0  0  0  0  0
  140.8661   79.6790  220.3375 H   0  0  0  0  0  0  0  0  0  0  0  0
  138.5790   77.9820  221.3940 N   0  0  0  0  0  0  0  0  0  0  0  0
  137.9600   79.2970  221.2110 C   0  0  0  0  0  0  0  0  0  0  0  0
  137.7499   79.7434  222.1942 H   0  0  0  0  0  0  0  0  0  0  0  0
  138.6453   79.9501  220.6507 H   0  0  0  0  0  0  0  0  0  0  0  0
  137.0200   79.1850  220.6507 H   0  0  0  0  0  0  0  0  0  0  0  0
  1  2  1  0
  2  3  2  0
  3  4  1  0
  4  5  1  0
  5  6  2  0
  6  7  1  0
  7  8  1  0
  8  9  1  0
  8 10  2  0
 10 11  1  0
 11 12  2  0
 12 13  1  0
 12 14  1  0
 14 15  1  0
 14 16  2  0
 16 17  1  0
 16 18  1  0
 18 19  1  0
 19 20  2  0
 19 21  1  0
 18 22  2  0
 22 23  1  0
 10 24  1  0
 24 25  1  0
  4 26  2  0
 26 27  1  0
 27 28  1  0
 26 29  1  0
 29 30  1  0
 30 31  2  0
 31 32  1  0
 31 33  1  0
 33 34  1  0
 33 35  2  0
 35 36  1  0
 35 37  1  0
 37 38  1  0
 37 39  2  0
 39 40  1  0
 29 41  1  0
 41 42  1  0
 42 43  1  0
 42 44  1  0
 42 45  1  0
 41  3  1  0
 24  6  1  0
 39 30  1  0
 22 11  1  0
M  CHG  2  19   1  21  -1
M  END
>  <UniqueID>  (10) 
27

>  <SMILES>  (10) 
[H]/N=c1/c(/N=c2\[nH]c(-c3cccc([N+](=O)[O-])c3)cs2)c(O)n(-c2ccccc2)n1C

>  <Energy>  (10) 
133.56763920973702

>  <Genealogy>  (10) 
Cn1c(=N)c(N=c2[nH]c(-c3cccc([N+](=O)[O-])c3)cs2)c(O)n1-c1ccccc1 (tautomer)
[H]/N=c1/c(/N=c2\[nH]c(-c3cccc([N+](=O)[O-])c3)cs2)c(O)n(-c2ccccc2)n1C (cis-trans isomerization)
[H]/N=c1/c(/N=c2\[nH]c(-c3cccc([N+](=O)[O-])c3)cs2)c(O)n(-c2ccccc2)n1C (3D coordinates assigned)
[H]/N=c1/c(/N=c2\[nH]c(-c3cccc([N+](=O)[O-])c3)cs2)c(O)n(-c2ccccc2)n1C (optimized conformer: 133.56763920973702 kcal/mol)

>  <smiles>  (10) 
Cn1c(N)c(N=c2[nH]c(-c3cccc([N+](=O)[O-])c3)cs2)c(=O)n1-c1ccccc1

>  <score_type>  (10) 
oracle

>  <origin>  (10) 
autodockgpu

>  <m_score__min__energy>  (10) 
-8.6300000000000008

>  <m_primary>  (10) 
energy

>  <meeko>  (10) 
{"free_energy": -8.39, "intermolecular_energy": -10.48, "internal_energy": -1.23, "cluster_size": 6, "cluster_id": 2, "rank_in_cluster": 3}

>  <energy>  (10) 
-8.4

>  <cluster_rmsd>  (10) 
0.63

>  <rmsd>  (10) 
272.25

>  <cluster>  (10) 
1

$$$$
GBOKQMTYAKOHJX-UURMYREPNA-N
     RDKit          3D

 45 48  0  0  0  0  0  0  0  0999 V2000
  136.5350   75.0630  221.4100 H   0  0  0  0  0  0  0  0  0  0  0  0
  139.0960   74.0960  220.9210 N   0  0  0  0  0  0  0  0  0  0  0  0
  139.3830   72.9510  221.4670 C   0  0  0  0  0  0  0  0  0  0  0  0
  139.1870   75.3730  221.5630 C   0  0  0  0  0  0  0  0  0  0  0  0
  136.8920   75.9680  221.7880 N   0  0  0  0  0  0  0  0  0  0  0  0
  138.1560   76.2290  221.9110 C   0  0  0  0  0  0  0  0  0  0  0  0
  139.5650   71.5330  220.5930 S   0  0  0  0  0  0  0  0  0  0  0  0
  139.9440   70.6170  221.9550 C   0  0  0  0  0  0  0  0  0  0  0  0
  140.1607   69.5386  221.9661 H   0  0  0  0  0  0  0  0  0  0  0  0
  139.9360   71.4620  223.0690 C   0  0  0  0  0  0  0  0  0  0  0  0
  140.2510   70.9960  224.4430 C   0  0  0  0  0  0  0  0  0  0  0  0
  140.7620   71.8900  225.4000 C   0  0  0  0  0  0  0  0  0  0  0  0
  140.9265   72.9436  225.1302 H   0  0  0  0  0  0  0  0  0  0  0  0
  141.0620   71.4500  226.6900 C   0  0  0  0  0  0  0  0  0  0  0  0
  141.4632   72.1574  227.4307 H   0  0  0  0  0  0  0  0  0  0  0  0
  140.8550   70.1160  227.0440 C   0  0  0  0  0  0  0  0  0  0  0  0
  141.0952   69.7774  228.0627 H   0  0  0  0  0  0  0  0  0  0  0  0
  140.3420   69.2030  226.1080 C   0  0  0  0  0  0  0  0  0  0  0  0
  140.1240   67.8290  226.4780 N   0  0  0  0  0  0  0  0  0  0  0  0
  139.0820   67.2340  226.1350 O   0  0  0  0  0  0  0  0  0  0  0  0
  141.0650   67.1450  227.2140 O   0  0  0  0  0  0  0  0  0  0  0  0
  140.0420   69.6530  224.8080 C   0  0  0  0  0  0  0  0  0  0  0  0
  139.6391   68.9457  224.0681 H   0  0  0  0  0  0  0  0  0  0  0  0
  139.6280   72.7600  222.7850 N   0  0  0  0  0  0  0  0  0  0  0  0
  139.6010   73.5160  223.5040 H   0  0  0  0  0  0  0  0  0  0  0  0
  140.3260   76.1390  221.6910 C   0  0  0  0  0  0  0  0  0  0  0  0
  141.6220   75.7440  221.3650 O   0  0  0  0  0  0  0  0  0  0  0  0
  142.4170   76.3300  221.5870 H   0  0  0  0  0  0  0  0  0  0  0  0
  139.9940   77.3650  222.1510 N   0  0  0  0  0  0  0  0  0  0  0  0
  140.9160   78.4460  222.3680 C   0  0  0  0  0  0  0  0  0  0  0  0
  141.3010   79.2710  221.2990 C   0  0  0  0  0  0  0  0  0  0  0  0
  140.9056   79.0805  220.2903 H   0  0  0  0  0  0  0  0  0  0  0  0
  142.1850   80.3340  221.5110 C   0  0  0  0  0  0  0  0  0  0  0  0
  142.4882   80.9733  220.6688 H   0  0  0  0  0  0  0  0  0  0  0  0
  142.6830   80.5840  222.7920 C   0  0  0  0  0  0  0  0  0  0  0  0
  143.3813   81.4178  222.9570 H   0  0  0  0  0  0  0  0  0  0  0  0
  142.2950   79.7760  223.8640 C   0  0  0  0  0  0  0  0  0  0  0  0
  142.6847   79.9767  224.8729 H   0  0  0  0  0  0  0  0  0  0  0  0
  141.4120   78.7130  223.6550 C   0  0  0  0  0  0  0  0  0  0  0  0
  141.1040   78.0825  224.5021 H   0  0  0  0  0  0  0  0  0  0  0  0
  138.6710   77.4200  222.3010 N   0  0  0  0  0  0  0  0  0  0  0  0
  137.9140   78.5840  222.7700 C   0  0  0  0  0  0  0  0  0  0  0  0
  137.9056   78.5970  223.8699 H   0  0  0  0  0  0  0  0  0  0  0  0
  138.3871   79.5040  222.3961 H   0  0  0  0  0  0  0  0  0  0  0  0
  136.8812   78.5247  222.3961 H   0  0  0  0  0  0  0  0  0  0  0  0
  1  2  1  0
  2  3  2  0
  3  4  1  0
  4  5  1  0
  5  6  2  0
  6  7  1  0
  7  8  1  0
  8  9  1  0
  8 10  2  0
 10 11  1  0
 11 12  2  0
 12 13  1  0
 12 14  1  0
 14 15  1  0
 14 16  2  0
 16 17  1  0
 16 18  1  0
 18 19  1  0
 19 20  2  0
 19 21  1  0
 18 22  2  0
 22 23  1  0
 10 24  1  0
 24 25  1  0
  4 26  2  0
 26 27  1  0
 27 28  1  0
 26 29  1  0
 29 30  1  0
 30 31  2  0
 31 32  1  0
 31 33  1  0
 33 34  1  0
 33 35  2  0
 35 36  1  0
 35 37  1  0
 37 38  1  0
 37 39  2  0
 39 40  1  0
 29 41  1  0
 41 42  1  0
 42 43  1  0
 42 44  1  0
 42 45  1  0
 41  3  1  0
 24  6  1  0
 39 30  1  0
 22 11  1  0
M  CHG  2  19   1  21  -1
M  END
>  <UniqueID>  (11) 
27

>  <SMILES>  (11) 
[H]/N=c1/c(/N=c2\[nH]c(-c3cccc([N+](=O)[O-])c3)cs2)c(O)n(-c2ccccc2)n1C

>  <Energy>  (11) 
133.56763920973702

>  <Genealogy>  (11) 
Cn1c(=N)c(N=c2[nH]c(-c3cccc([N+](=O)[O-])c3)cs2)c(O)n1-c1ccccc1 (tautomer)
[H]/N=c1/c(/N=c2\[nH]c(-c3cccc([N+](=O)[O-])c3)cs2)c(O)n(-c2ccccc2)n1C (cis-trans isomerization)
[H]/N=c1/c(/N=c2\[nH]c(-c3cccc([N+](=O)[O-])c3)cs2)c(O)n(-c2ccccc2)n1C (3D coordinates assigned)
[H]/N=c1/c(/N=c2\[nH]c(-c3cccc([N+](=O)[O-])c3)cs2)c(O)n(-c2ccccc2)n1C (optimized conformer: 133.56763920973702 kcal/mol)

>  <smiles>  (11) 
Cn1c(N)c(N=c2[nH]c(-c3cccc([N+](=O)[O-])c3)cs2)c(=O)n1-c1ccccc1

>  <score_type>  (11) 
oracle

>  <origin>  (11) 
autodockgpu

>  <m_score__min__energy>  (11) 
-8.6300000000000008

>  <m_primary>  (11) 
energy

>  <meeko>  (11) 
{"free_energy": -8.58, "intermolecular_energy": -10.67, "internal_energy": -1.25, "cluster_size": 12, "cluster_id": 1, "rank_in_cluster": 5}

>  <energy>  (11) 
-8.38

>  <cluster_rmsd>  (11) 
1.79

>  <rmsd>  (11) 
271.99

>  <cluster>  (11) 
1

$$$$
GBOKQMTYAKOHJX-UURMYREPNA-N
     RDKit          3D

 45 48  0  0  0  0  0  0  0  0999 V2000
  136.6610   74.8500  221.3790 H   0  0  0  0  0  0  0  0  0  0  0  0
  139.2530   73.9140  221.0130 N   0  0  0  0  0  0  0  0  0  0  0  0
  139.4300   72.7820  221.6300 C   0  0  0  0  0  0  0  0  0  0  0  0
  139.3000   75.2110  221.6210 C   0  0  0  0  0  0  0  0  0  0  0  0
  136.9870   75.7550  221.7830 N   0  0  0  0  0  0  0  0  0  0  0  0
  138.2420   76.0510  221.9230 C   0  0  0  0  0  0  0  0  0  0  0  0
  139.3860   71.2960  220.8570 S   0  0  0  0  0  0  0  0  0  0  0  0
  139.7280   70.4350  222.2630 C   0  0  0  0  0  0  0  0  0  0  0  0
  139.8107   69.3411  222.3444 H   0  0  0  0  0  0  0  0  0  0  0  0
  139.8890   71.3490  223.3100 C   0  0  0  0  0  0  0  0  0  0  0  0
  140.2240   70.9430  224.6980 C   0  0  0  0  0  0  0  0  0  0  0  0
  140.6870   71.8910  225.6260 C   0  0  0  0  0  0  0  0  0  0  0  0
  140.7989   72.9427  225.3236 H   0  0  0  0  0  0  0  0  0  0  0  0
  141.0060   71.5060  226.9300 C   0  0  0  0  0  0  0  0  0  0  0  0
  141.3695   72.2555  227.6484 H   0  0  0  0  0  0  0  0  0  0  0  0
  140.8660   70.1760  227.3260 C   0  0  0  0  0  0  0  0  0  0  0  0
  141.1210   69.8821  228.3549 H   0  0  0  0  0  0  0  0  0  0  0  0
  140.4010   69.2090  226.4180 C   0  0  0  0  0  0  0  0  0  0  0  0
  140.2520   67.8380  226.8310 N   0  0  0  0  0  0  0  0  0  0  0  0
  141.0740   67.3130  227.6090 O   0  0  0  0  0  0  0  0  0  0  0  0
  139.1950   67.0820  226.3770 O   0  0  0  0  0  0  0  0  0  0  0  0
  140.0820   69.6030  225.1050 C   0  0  0  0  0  0  0  0  0  0  0  0
  139.7168   68.8537  224.3872 H   0  0  0  0  0  0  0  0  0  0  0  0
  139.7250   72.6530  222.9450 N   0  0  0  0  0  0  0  0  0  0  0  0
  139.8330   73.4540  223.6050 H   0  0  0  0  0  0  0  0  0  0  0  0
  140.4180   76.0080  221.7480 C   0  0  0  0  0  0  0  0  0  0  0  0
  141.7290   75.6360  221.4590 O   0  0  0  0  0  0  0  0  0  0  0  0
  142.4900   76.2990  221.5420 H   0  0  0  0  0  0  0  0  0  0  0  0
  140.0470   77.2380  222.1660 N   0  0  0  0  0  0  0  0  0  0  0  0
  140.9390   78.3470  222.3690 C   0  0  0  0  0  0  0  0  0  0  0  0
  141.3200   79.1540  221.2860 C   0  0  0  0  0  0  0  0  0  0  0  0
  140.9461   78.9282  220.2764 H   0  0  0  0  0  0  0  0  0  0  0  0
  142.1730   80.2440  221.4850 C   0  0  0  0  0  0  0  0  0  0  0  0
  142.4737   80.8693  220.6314 H   0  0  0  0  0  0  0  0  0  0  0  0
  142.6440   80.5400  222.7670 C   0  0  0  0  0  0  0  0  0  0  0  0
  143.3175   81.3959  222.9217 H   0  0  0  0  0  0  0  0  0  0  0  0
  142.2590   79.7480  223.8530 C   0  0  0  0  0  0  0  0  0  0  0  0
  142.6280   79.9825  224.8624 H   0  0  0  0  0  0  0  0  0  0  0  0
  141.4060   78.6590  223.6570 C   0  0  0  0  0  0  0  0  0  0  0  0
  141.0986   78.0430  224.5149 H   0  0  0  0  0  0  0  0  0  0  0  0
  138.7200   77.2650  222.2890 N   0  0  0  0  0  0  0  0  0  0  0  0
  137.9260   78.4220  222.7090 C   0  0  0  0  0  0  0  0  0  0  0  0
  137.8955   78.4664  223.8077 H   0  0  0  0  0  0  0  0  0  0  0  0
  138.3836   79.3424  222.3174 H   0  0  0  0  0  0  0  0  0  0  0  0
  136.9026   78.3260  222.3174 H   0  0  0  0  0  0  0  0  0  0  0  0
  1  2  1  0
  2  3  2  0
  3  4  1  0
  4  5  1  0
  5  6  2  0
  6  7  1  0
  7  8  1  0
  8  9  1  0
  8 10  2  0
 10 11  1  0
 11 12  2  0
 12 13  1  0
 12 14  1  0
 14 15  1  0
 14 16  2  0
 16 17  1  0
 16 18  1  0
 18 19  1  0
 19 20  2  0
 19 21  1  0
 18 22  2  0
 22 23  1  0
 10 24  1  0
 24 25  1  0
  4 26  2  0
 26 27  1  0
 27 28  1  0
 26 29  1  0
 29 30  1  0
 30 31  2  0
 31 32  1  0
 31 33  1  0
 33 34  1  0
 33 35  2  0
 35 36  1  0
 35 37  1  0
 37 38  1  0
 37 39  2  0
 39 40  1  0
 29 41  1  0
 41 42  1  0
 42 43  1  0
 42 44  1  0
 42 45  1  0
 41  3  1  0
 24  6  1  0
 39 30  1  0
 22 11  1  0
M  CHG  2  19   1  21  -1
M  END
>  <UniqueID>  (12) 
27

>  <SMILES>  (12) 
[H]/N=c1/c(/N=c2\[nH]c(-c3cccc([N+](=O)[O-])c3)cs2)c(O)n(-c2ccccc2)n1C

>  <Energy>  (12) 
133.56763920973702

>  <Genealogy>  (12) 
Cn1c(=N)c(N=c2[nH]c(-c3cccc([N+](=O)[O-])c3)cs2)c(O)n1-c1ccccc1 (tautomer)
[H]/N=c1/c(/N=c2\[nH]c(-c3cccc([N+](=O)[O-])c3)cs2)c(O)n(-c2ccccc2)n1C (cis-trans isomerization)
[H]/N=c1/c(/N=c2\[nH]c(-c3cccc([N+](=O)[O-])c3)cs2)c(O)n(-c2ccccc2)n1C (3D coordinates assigned)
[H]/N=c1/c(/N=c2\[nH]c(-c3cccc([N+](=O)[O-])c3)cs2)c(O)n(-c2ccccc2)n1C (optimized conformer: 133.56763920973702 kcal/mol)

>  <smiles>  (12) 
Cn1c(N)c(N=c2[nH]c(-c3cccc([N+](=O)[O-])c3)cs2)c(=O)n1-c1ccccc1

>  <score_type>  (12) 
oracle

>  <origin>  (12) 
autodockgpu

>  <m_score__min__energy>  (12) 
-8.6300000000000008

>  <m_primary>  (12) 
energy

>  <meeko>  (12) 
{"free_energy": -8.63, "intermolecular_energy": -10.72, "internal_energy": -1.25, "cluster_size": 12, "cluster_id": 1, "rank_in_cluster": 2}

>  <energy>  (12) 
-7.71

>  <cluster_rmsd>  (12) 
1.98

>  <rmsd>  (12) 
271.64

>  <cluster>  (12) 
1

$$$$
GBOKQMTYAKOHJX-UURMYREPNA-N
     RDKit          3D

 45 48  0  0  0  0  0  0  0  0999 V2000
  136.6900   74.7970  221.5860 H   0  0  0  0  0  0  0  0  0  0  0  0
  139.2650   73.9400  220.9810 N   0  0  0  0  0  0  0  0  0  0  0  0
  139.3640   72.7890  221.5790 C   0  0  0  0  0  0  0  0  0  0  0  0
  139.3300   75.2200  221.6210 C   0  0  0  0  0  0  0  0  0  0  0  0
  137.0240   75.7140  221.9530 N   0  0  0  0  0  0  0  0  0  0  0  0
  138.2800   76.0310  222.0180 C   0  0  0  0  0  0  0  0  0  0  0  0
  139.1290   71.3240  220.8000 S   0  0  0  0  0  0  0  0  0  0  0  0
  139.4650   70.4160  222.1780 C   0  0  0  0  0  0  0  0  0  0  0  0
  139.4442   69.3184  222.2474 H   0  0  0  0  0  0  0  0  0  0  0  0
  139.7750   71.2970  223.2190 C   0  0  0  0  0  0  0  0  0  0  0  0
  140.1480   70.8420  224.5820 C   0  0  0  0  0  0  0  0  0  0  0  0
  140.6750   71.7500  225.5180 C   0  0  0  0  0  0  0  0  0  0  0  0
  140.8091   72.8057  225.2396 H   0  0  0  0  0  0  0  0  0  0  0  0
  141.0290   71.3200  226.7980 C   0  0  0  0  0  0  0  0  0  0  0  0
  141.4409   72.0382  227.5223 H   0  0  0  0  0  0  0  0  0  0  0  0
  140.8630   69.9840  227.1630 C   0  0  0  0  0  0  0  0  0  0  0  0
  141.1477   69.6538  228.1729 H   0  0  0  0  0  0  0  0  0  0  0  0
  140.3340   69.0570  226.2480 C   0  0  0  0  0  0  0  0  0  0  0  0
  140.1570   67.6800  226.6300 N   0  0  0  0  0  0  0  0  0  0  0  0
  141.0770   67.0510  227.1910 O   0  0  0  0  0  0  0  0  0  0  0  0
  138.9660   67.0340  226.3850 O   0  0  0  0  0  0  0  0  0  0  0  0
  139.9790   69.4970  224.9590 C   0  0  0  0  0  0  0  0  0  0  0  0
  139.5636   68.7793  224.2362 H   0  0  0  0  0  0  0  0  0  0  0  0
  139.7210   72.6150  222.8730 N   0  0  0  0  0  0  0  0  0  0  0  0
  139.9450   73.3930  223.5310 H   0  0  0  0  0  0  0  0  0  0  0  0
  140.4400   76.0360  221.6970 C   0  0  0  0  0  0  0  0  0  0  0  0
  141.7340   75.6970  221.3110 O   0  0  0  0  0  0  0  0  0  0  0  0
  142.4790   75.6220  221.9920 H   0  0  0  0  0  0  0  0  0  0  0  0
  140.0760   77.2460  222.1740 N   0  0  0  0  0  0  0  0  0  0  0  0
  140.9590   78.3660  222.3500 C   0  0  0  0  0  0  0  0  0  0  0  0
  141.4890   78.6550  223.6170 C   0  0  0  0  0  0  0  0  0  0  0  0
  141.2165   78.0304  224.4805 H   0  0  0  0  0  0  0  0  0  0  0  0
  142.3630   79.7350  223.7860 C   0  0  0  0  0  0  0  0  0  0  0  0
  142.7708   79.9614  224.7822 H   0  0  0  0  0  0  0  0  0  0  0  0
  142.7180   80.5260  222.6900 C   0  0  0  0  0  0  0  0  0  0  0  0
  143.4029   81.3763  222.8244 H   0  0  0  0  0  0  0  0  0  0  0  0
  142.2030   80.2370  221.4230 C   0  0  0  0  0  0  0  0  0  0  0  0
  142.4846   80.8589  220.5605 H   0  0  0  0  0  0  0  0  0  0  0  0
  141.3310   79.1590  221.2510 C   0  0  0  0  0  0  0  0  0  0  0  0
  140.9339   78.9300  220.2511 H   0  0  0  0  0  0  0  0  0  0  0  0
  138.7600   77.2430  222.3850 N   0  0  0  0  0  0  0  0  0  0  0  0
  137.9760   78.3730  222.8910 C   0  0  0  0  0  0  0  0  0  0  0  0
  137.9840   78.3615  223.9909 H   0  0  0  0  0  0  0  0  0  0  0  0
  138.4157   79.3148  222.5310 H   0  0  0  0  0  0  0  0  0  0  0  0
  136.9398   78.2909  222.5310 H   0  0  0  0  0  0  0  0  0  0  0  0
  1  2  1  0
  2  3  2  0
  3  4  1  0
  4  5  1  0
  5  6  2  0
  6  7  1  0
  7  8  1  0
  8  9  1  0
  8 10  2  0
 10 11  1  0
 11 12  2  0
 12 13  1  0
 12 14  1  0
 14 15  1  0
 14 16  2  0
 16 17  1  0
 16 18  1  0
 18 19  1  0
 19 20  2  0
 19 21  1  0
 18 22  2  0
 22 23  1  0
 10 24  1  0
 24 25  1  0
  4 26  2  0
 26 27  1  0
 27 28  1  0
 26 29  1  0
 29 30  1  0
 30 31  2  0
 31 32  1  0
 31 33  1  0
 33 34  1  0
 33 35  2  0
 35 36  1  0
 35 37  1  0
 37 38  1  0
 37 39  2  0
 39 40  1  0
 29 41  1  0
 41 42  1  0
 42 43  1  0
 42 44  1  0
 42 45  1  0
 41  3  1  0
 24  6  1  0
 39 30  1  0
 22 11  1  0
M  CHG  2  19   1  21  -1
M  END
>  <UniqueID>  (13) 
27

>  <SMILES>  (13) 
[H]/N=c1/c(/N=c2\[nH]c(-c3cccc([N+](=O)[O-])c3)cs2)c(O)n(-c2ccccc2)n1C

>  <Energy>  (13) 
133.56763920973702

>  <Genealogy>  (13) 
Cn1c(=N)c(N=c2[nH]c(-c3cccc([N+](=O)[O-])c3)cs2)c(O)n1-c1ccccc1 (tautomer)
[H]/N=c1/c(/N=c2\[nH]c(-c3cccc([N+](=O)[O-])c3)cs2)c(O)n(-c2ccccc2)n1C (cis-trans isomerization)
[H]/N=c1/c(/N=c2\[nH]c(-c3cccc([N+](=O)[O-])c3)cs2)c(O)n(-c2ccccc2)n1C (3D coordinates assigned)
[H]/N=c1/c(/N=c2\[nH]c(-c3cccc([N+](=O)[O-])c3)cs2)c(O)n(-c2ccccc2)n1C (optimized conformer: 133.56763920973702 kcal/mol)

>  <smiles>  (13) 
Cn1c(N)c(N=c2[nH]c(-c3cccc([N+](=O)[O-])c3)cs2)c(=O)n1-c1ccccc1

>  <score_type>  (13) 
oracle

>  <origin>  (13) 
autodockgpu

>  <m_score__min__energy>  (13) 
-8.6300000000000008

>  <m_primary>  (13) 
energy

>  <meeko>  (13) 
{"free_energy": -8.5, "intermolecular_energy": -10.59, "internal_energy": -1.25, "cluster_size": 12, "cluster_id": 1, "rank_in_cluster": 8}

>  <energy>  (13) 
-8.41

>  <cluster_rmsd>  (13) 
0.0

>  <rmsd>  (13) 
271.81

>  <cluster>  (13) 
2

$$$$
GBOKQMTYAKOHJX-UURMYREPNA-N
     RDKit          3D

 45 48  0  0  0  0  0  0  0  0999 V2000
  136.7740   74.6260  221.5970 H   0  0  0  0  0  0  0  0  0  0  0  0
  139.3890   73.7780  221.1400 N   0  0  0  0  0  0  0  0  0  0  0  0
  139.5740   72.6680  221.7930 C   0  0  0  0  0  0  0  0  0  0  0  0
  139.4060   75.0920  221.7090 C   0  0  0  0  0  0  0  0  0  0  0  0
  137.0820   75.5890  221.8550 N   0  0  0  0  0  0  0  0  0  0  0  0
  138.3300   75.9170  221.9860 C   0  0  0  0  0  0  0  0  0  0  0  0
  139.5810   71.1600  221.0620 S   0  0  0  0  0  0  0  0  0  0  0  0
  139.9050   70.3460  222.5000 C   0  0  0  0  0  0  0  0  0  0  0  0
  140.0085   69.2569  222.6145 H   0  0  0  0  0  0  0  0  0  0  0  0
  140.0200   71.2920  223.5240 C   0  0  0  0  0  0  0  0  0  0  0  0
  140.3280   70.9320  224.9310 C   0  0  0  0  0  0  0  0  0  0  0  0
  141.0140   71.8330  225.7640 C   0  0  0  0  0  0  0  0  0  0  0  0
  141.3220   72.8136  225.3721 H   0  0  0  0  0  0  0  0  0  0  0  0
  141.3070   71.4910  227.0860 C   0  0  0  0  0  0  0  0  0  0  0  0
  141.8450   72.2026  227.7295 H   0  0  0  0  0  0  0  0  0  0  0  0
  140.9200   70.2500  227.5940 C   0  0  0  0  0  0  0  0  0  0  0  0
  141.1566   69.9881  228.6358 H   0  0  0  0  0  0  0  0  0  0  0  0
  140.2300   69.3330  226.7830 C   0  0  0  0  0  0  0  0  0  0  0  0
  139.8260   68.0570  227.3120 N   0  0  0  0  0  0  0  0  0  0  0  0
  140.0210   67.7730  228.5120 O   0  0  0  0  0  0  0  0  0  0  0  0
  139.2140   67.1260  226.5040 O   0  0  0  0  0  0  0  0  0  0  0  0
  139.9380   69.6840  225.4510 C   0  0  0  0  0  0  0  0  0  0  0  0
  139.3978   68.9732  224.8084 H   0  0  0  0  0  0  0  0  0  0  0  0
  139.8390   72.5820  223.1180 N   0  0  0  0  0  0  0  0  0  0  0  0
  139.9130   73.4030  223.7570 H   0  0  0  0  0  0  0  0  0  0  0  0
  140.5060   75.9180  221.8140 C   0  0  0  0  0  0  0  0  0  0  0  0
  141.8250   75.5670  221.5360 O   0  0  0  0  0  0  0  0  0  0  0  0
  142.5670   76.2560  221.5730 H   0  0  0  0  0  0  0  0  0  0  0  0
  140.1070   77.1510  222.1950 N   0  0  0  0  0  0  0  0  0  0  0  0
  140.9730   78.2860  222.3660 C   0  0  0  0  0  0  0  0  0  0  0  0
  141.3140   79.0850  221.2640 C   0  0  0  0  0  0  0  0  0  0  0  0
  140.9284   78.8341  220.2648 H   0  0  0  0  0  0  0  0  0  0  0  0
  142.1430   80.2000  221.4320 C   0  0  0  0  0  0  0  0  0  0  0  0
  142.4123   80.8203  220.5644 H   0  0  0  0  0  0  0  0  0  0  0  0
  142.6290   80.5260  222.7010 C   0  0  0  0  0  0  0  0  0  0  0  0
  143.2841   81.4000  222.8310 H   0  0  0  0  0  0  0  0  0  0  0  0
  142.2830   79.7420  223.8050 C   0  0  0  0  0  0  0  0  0  0  0  0
  142.6625   80.0017  224.8043 H   0  0  0  0  0  0  0  0  0  0  0  0
  141.4550   78.6280  223.6400 C   0  0  0  0  0  0  0  0  0  0  0  0
  141.1797   78.0165  224.5119 H   0  0  0  0  0  0  0  0  0  0  0  0
  138.7800   77.1510  222.3170 N   0  0  0  0  0  0  0  0  0  0  0  0
  137.9600   78.3030  222.7030 C   0  0  0  0  0  0  0  0  0  0  0  0
  137.9133   78.3687  223.8000 H   0  0  0  0  0  0  0  0  0  0  0  0
  138.4074   79.2233  222.2993 H   0  0  0  0  0  0  0  0  0  0  0  0
  136.9440   78.1816  222.2993 H   0  0  0  0  0  0  0  0  0  0  0  0
  1  2  1  0
  2  3  2  0
  3  4  1  0
  4  5  1  0
  5  6  2  0
  6  7  1  0
  7  8  1  0
  8  9  1  0
  8 10  2  0
 10 11  1  0
 11 12  2  0
 12 13  1  0
 12 14  1  0
 14 15  1  0
 14 16  2  0
 16 17  1  0
 16 18  1  0
 18 19  1  0
 19 20  2  0
 19 21  1  0
 18 22  2  0
 22 23  1  0
 10 24  1  0
 24 25  1  0
  4 26  2  0
 26 27  1  0
 27 28  1  0
 26 29  1  0
 29 30  1  0
 30 31  2  0
 31 32  1  0
 31 33  1  0
 33 34  1  0
 33 35  2  0
 35 36  1  0
 35 37  1  0
 37 38  1  0
 37 39  2  0
 39 40  1  0
 29 41  1  0
 41 42  1  0
 42 43  1  0
 42 44  1  0
 42 45  1  0
 41  3  1  0
 24  6  1  0
 39 30  1  0
 22 11  1  0
M  CHG  2  19   1  21  -1
M  END
>  <UniqueID>  (14) 
27

>  <SMILES>  (14) 
[H]/N=c1/c(/N=c2\[nH]c(-c3cccc([N+](=O)[O-])c3)cs2)c(O)n(-c2ccccc2)n1C

>  <Energy>  (14) 
133.56763920973702

>  <Genealogy>  (14) 
Cn1c(=N)c(N=c2[nH]c(-c3cccc([N+](=O)[O-])c3)cs2)c(O)n1-c1ccccc1 (tautomer)
[H]/N=c1/c(/N=c2\[nH]c(-c3cccc([N+](=O)[O-])c3)cs2)c(O)n(-c2ccccc2)n1C (cis-trans isomerization)
[H]/N=c1/c(/N=c2\[nH]c(-c3cccc([N+](=O)[O-])c3)cs2)c(O)n(-c2ccccc2)n1C (3D coordinates assigned)
[H]/N=c1/c(/N=c2\[nH]c(-c3cccc([N+](=O)[O-])c3)cs2)c(O)n(-c2ccccc2)n1C (optimized conformer: 133.56763920973702 kcal/mol)

>  <smiles>  (14) 
Cn1c(N)c(N=c2[nH]c(-c3cccc([N+](=O)[O-])c3)cs2)c(=O)n1-c1ccccc1

>  <score_type>  (14) 
oracle

>  <origin>  (14) 
autodockgpu

>  <m_score__min__energy>  (14) 
-8.6300000000000008

>  <m_primary>  (14) 
energy

>  <meeko>  (14) 
{"free_energy": -8.6, "intermolecular_energy": -10.69, "internal_energy": -1.22, "cluster_size": 12, "cluster_id": 1, "rank_in_cluster": 4}

>  <energy>  (14) 
-8.4

>  <cluster_rmsd>  (14) 
0.45

>  <rmsd>  (14) 
271.9

>  <cluster>  (14) 
2

$$$$
GBOKQMTYAKOHJX-UURMYREPNA-N
     RDKit          3D

 45 48  0  0  0  0  0  0  0  0999 V2000
  136.7420   74.6420  221.3950 H   0  0  0  0  0  0  0  0  0  0  0  0
  139.3620   73.7600  221.0990 N   0  0  0  0  0  0  0  0  0  0  0  0
  139.5290   72.6510  221.7570 C   0  0  0  0  0  0  0  0  0  0  0  0
  139.3670   75.0750  221.6660 C   0  0  0  0  0  0  0  0  0  0  0  0
  137.0400   75.5770  221.7500 N   0  0  0  0  0  0  0  0  0  0  0  0
  138.2850   75.9020  221.9140 C   0  0  0  0  0  0  0  0  0  0  0  0
  139.4830   71.1380  221.0380 S   0  0  0  0  0  0  0  0  0  0  0  0
  139.8120   70.3270  222.4770 C   0  0  0  0  0  0  0  0  0  0  0  0
  139.8886   69.2365  222.5988 H   0  0  0  0  0  0  0  0  0  0  0  0
  139.9710   71.2770  223.4900 C   0  0  0  0  0  0  0  0  0  0  0  0
  140.2950   70.9200  224.8950 C   0  0  0  0  0  0  0  0  0  0  0  0
  140.9840   71.8260  225.7200 C   0  0  0  0  0  0  0  0  0  0  0  0
  141.2823   72.8079  225.3240 H   0  0  0  0  0  0  0  0  0  0  0  0
  141.2920   71.4870  227.0390 C   0  0  0  0  0  0  0  0  0  0  0  0
  141.8318   72.2026  227.6766 H   0  0  0  0  0  0  0  0  0  0  0  0
  140.9180   70.2440  227.5520 C   0  0  0  0  0  0  0  0  0  0  0  0
  141.1668   69.9843  228.5915 H   0  0  0  0  0  0  0  0  0  0  0  0
  140.2260   69.3230  226.7490 C   0  0  0  0  0  0  0  0  0  0  0  0
  139.8350   68.0440  227.2830 N   0  0  0  0  0  0  0  0  0  0  0  0
  140.0300   67.7680  228.4850 O   0  0  0  0  0  0  0  0  0  0  0  0
  139.2350   67.1030  226.4770 O   0  0  0  0  0  0  0  0  0  0  0  0
  139.9180   69.6700  225.4200 C   0  0  0  0  0  0  0  0  0  0  0  0
  139.3758   68.9550  224.7838 H   0  0  0  0  0  0  0  0  0  0  0  0
  139.8160   72.5680  223.0770 N   0  0  0  0  0  0  0  0  0  0  0  0
  139.9240   73.3920  223.7080 H   0  0  0  0  0  0  0  0  0  0  0  0
  140.4650   75.9000  221.7990 C   0  0  0  0  0  0  0  0  0  0  0  0
  141.7900   75.5460  221.5560 O   0  0  0  0  0  0  0  0  0  0  0  0
  142.5250   76.2420  221.5610 H   0  0  0  0  0  0  0  0  0  0  0  0
  140.0580   77.1340  222.1680 N   0  0  0  0  0  0  0  0  0  0  0  0
  140.9220   78.2670  222.3600 C   0  0  0  0  0  0  0  0  0  0  0  0
  141.4070   78.5750  223.6410 C   0  0  0  0  0  0  0  0  0  0  0  0
  141.1145   77.9556  224.5017 H   0  0  0  0  0  0  0  0  0  0  0  0
  142.2610   79.6670  223.8260 C   0  0  0  0  0  0  0  0  0  0  0  0
  142.6334   79.9082  224.8325 H   0  0  0  0  0  0  0  0  0  0  0  0
  142.6420   80.4520  222.7350 C   0  0  0  0  0  0  0  0  0  0  0  0
  143.3111   81.3124  222.8834 H   0  0  0  0  0  0  0  0  0  0  0  0
  142.1730   80.1440  221.4550 C   0  0  0  0  0  0  0  0  0  0  0  0
  142.4759   80.7602  220.5956 H   0  0  0  0  0  0  0  0  0  0  0  0
  141.3190   79.0530  221.2660 C   0  0  0  0  0  0  0  0  0  0  0  0
  140.9567   78.8094  220.2564 H   0  0  0  0  0  0  0  0  0  0  0  0
  138.7280   77.1370  222.2540 N   0  0  0  0  0  0  0  0  0  0  0  0
  137.9000   78.2900  222.6170 C   0  0  0  0  0  0  0  0  0  0  0  0
  137.8427   78.3698  223.7126 H   0  0  0  0  0  0  0  0  0  0  0  0
  138.3474   79.2068  222.2055 H   0  0  0  0  0  0  0  0  0  0  0  0
  136.8883   78.1590  222.2055 H   0  0  0  0  0  0  0  0  0  0  0  0
  1  2  1  0
  2  3  2  0
  3  4  1  0
  4  5  1  0
  5  6  2  0
  6  7  1  0
  7  8  1  0
  8  9  1  0
  8 10  2  0
 10 11  1  0
 11 12  2  0
 12 13  1  0
 12 14  1  0
 14 15  1  0
 14 16  2  0
 16 17  1  0
 16 18  1  0
 18 19  1  0
 19 20  2  0
 19 21  1  0
 18 22  2  0
 22 23  1  0
 10 24  1  0
 24 25  1  0
  4 26  2  0
 26 27  1  0
 27 28  1  0
 26 29  1  0
 29 30  1  0
 30 31  2  0
 31 32  1  0
 31 33  1  0
 33 34  1  0
 33 35  2  0
 35 36  1  0
 35 37  1  0
 37 38  1  0
 37 39  2  0
 39 40  1  0
 29 41  1  0
 41 42  1  0
 42 43  1  0
 42 44  1  0
 42 45  1  0
 41  3  1  0
 24  6  1  0
 39 30  1  0
 22 11  1  0
M  CHG  2  19   1  21  -1
M  END
>  <UniqueID>  (15) 
27

>  <SMILES>  (15) 
[H]/N=c1/c(/N=c2\[nH]c(-c3cccc([N+](=O)[O-])c3)cs2)c(O)n(-c2ccccc2)n1C

>  <Energy>  (15) 
133.56763920973702

>  <Genealogy>  (15) 
Cn1c(=N)c(N=c2[nH]c(-c3cccc([N+](=O)[O-])c3)cs2)c(O)n1-c1ccccc1 (tautomer)
[H]/N=c1/c(/N=c2\[nH]c(-c3cccc([N+](=O)[O-])c3)cs2)c(O)n(-c2ccccc2)n1C (cis-trans isomerization)
[H]/N=c1/c(/N=c2\[nH]c(-c3cccc([N+](=O)[O-])c3)cs2)c(O)n(-c2ccccc2)n1C (3D coordinates assigned)
[H]/N=c1/c(/N=c2\[nH]c(-c3cccc([N+](=O)[O-])c3)cs2)c(O)n(-c2ccccc2)n1C (optimized conformer: 133.56763920973702 kcal/mol)

>  <smiles>  (15) 
Cn1c(N)c(N=c2[nH]c(-c3cccc([N+](=O)[O-])c3)cs2)c(=O)n1-c1ccccc1

>  <score_type>  (15) 
oracle

>  <origin>  (15) 
autodockgpu

>  <m_score__min__energy>  (15) 
-8.6300000000000008

>  <m_primary>  (15) 
energy

>  <meeko>  (15) 
{"free_energy": -8.56, "intermolecular_energy": -10.65, "internal_energy": -1.22, "cluster_size": 12, "cluster_id": 1, "rank_in_cluster": 6}

>  <energy>  (15) 
-8.39

>  <cluster_rmsd>  (15) 
0.19

>  <rmsd>  (15) 
271.74

>  <cluster>  (15) 
2

$$$$
GBOKQMTYAKOHJX-UURMYREPNA-N
     RDKit          3D

 45 48  0  0  0  0  0  0  0  0999 V2000
  140.8630   73.3940  218.7110 H   0  0  0  0  0  0  0  0  0  0  0  0
  139.0410   73.7290  220.7840 N   0  0  0  0  0  0  0  0  0  0  0  0
  139.3490   72.6440  221.4310 C   0  0  0  0  0  0  0  0  0  0  0  0
  139.8590   74.9000  220.6810 C   0  0  0  0  0  0  0  0  0  0  0  0
  141.3050   74.3240  218.8780 N   0  0  0  0  0  0  0  0  0  0  0  0
  140.9210   75.1260  219.8220 C   0  0  0  0  0  0  0  0  0  0  0  0
  139.5960   71.1640  220.6840 S   0  0  0  0  0  0  0  0  0  0  0  0
  139.9680   70.3780  222.1260 C   0  0  0  0  0  0  0  0  0  0  0  0
  140.2165   69.3118  222.2328 H   0  0  0  0  0  0  0  0  0  0  0  0
  139.9070   71.3120  223.1640 C   0  0  0  0  0  0  0  0  0  0  0  0
  140.2010   70.9740  224.5800 C   0  0  0  0  0  0  0  0  0  0  0  0
  140.8370   71.9050  225.4190 C   0  0  0  0  0  0  0  0  0  0  0  0
  141.1159   72.8937  225.0258 H   0  0  0  0  0  0  0  0  0  0  0  0
  141.1170   71.5830  226.7480 C   0  0  0  0  0  0  0  0  0  0  0  0
  141.6158   72.3186  227.3962 H   0  0  0  0  0  0  0  0  0  0  0  0
  140.7670   70.3320  227.2580 C   0  0  0  0  0  0  0  0  0  0  0  0
  140.9929   70.0862  228.3061 H   0  0  0  0  0  0  0  0  0  0  0  0
  140.1280   69.3850  226.4410 C   0  0  0  0  0  0  0  0  0  0  0  0
  139.7620   68.0980  226.9730 N   0  0  0  0  0  0  0  0  0  0  0  0
  139.9730   67.8190  228.1700 O   0  0  0  0  0  0  0  0  0  0  0  0
  139.1670   67.1520  226.1680 O   0  0  0  0  0  0  0  0  0  0  0  0
  139.8480   69.7150  225.1020 C   0  0  0  0  0  0  0  0  0  0  0  0
  139.3470   68.9800  224.4549 H   0  0  0  0  0  0  0  0  0  0  0  0
  139.5660   72.5720  222.7660 N   0  0  0  0  0  0  0  0  0  0  0  0
  139.4990   73.3840  223.4170 H   0  0  0  0  0  0  0  0  0  0  0  0
  139.9510   75.9120  221.6130 C   0  0  0  0  0  0  0  0  0  0  0  0
  139.1500   76.0630  222.7430 O   0  0  0  0  0  0  0  0  0  0  0  0
  138.6390   75.2780  223.1280 H   0  0  0  0  0  0  0  0  0  0  0  0
  140.9740   76.7320  221.2870 N   0  0  0  0  0  0  0  0  0  0  0  0
  141.3970   77.8730  222.0520 C   0  0  0  0  0  0  0  0  0  0  0  0
  141.7180   79.0760  221.4040 C   0  0  0  0  0  0  0  0  0  0  0  0
  141.6589   79.1410  220.3075 H   0  0  0  0  0  0  0  0  0  0  0  0
  142.1130   80.1930  222.1490 C   0  0  0  0  0  0  0  0  0  0  0  0
  142.3695   81.1321  221.6368 H   0  0  0  0  0  0  0  0  0  0  0  0
  142.1820   80.1170  223.5420 C   0  0  0  0  0  0  0  0  0  0  0  0
  142.4962   80.9949  224.1255 H   0  0  0  0  0  0  0  0  0  0  0  0
  141.8520   78.9260  224.1950 C   0  0  0  0  0  0  0  0  0  0  0  0
  141.9040   78.8678  225.2922 H   0  0  0  0  0  0  0  0  0  0  0  0
  141.4560   77.8090  223.4540 C   0  0  0  0  0  0  0  0  0  0  0  0
  141.1893   76.8755  223.9711 H   0  0  0  0  0  0  0  0  0  0  0  0
  141.5610   76.2640  220.1850 N   0  0  0  0  0  0  0  0  0  0  0  0
  142.7180   76.8640  219.5160 C   0  0  0  0  0  0  0  0  0  0  0  0
  143.4280   77.2322  220.2712 H   0  0  0  0  0  0  0  0  0  0  0  0
  143.2108   76.1078  218.8872 H   0  0  0  0  0  0  0  0  0  0  0  0
  142.3839   77.7025  218.8872 H   0  0  0  0  0  0  0  0  0  0  0  0
  1  2  1  0
  2  3  2  0
  3  4  1  0
  4  5  1  0
  5  6  2  0
  6  7  1  0
  7  8  1  0
  8  9  1  0
  8 10  2  0
 10 11  1  0
 11 12  2  0
 12 13  1  0
 12 14  1  0
 14 15  1  0
 14 16  2  0
 16 17  1  0
 16 18  1  0
 18 19  1  0
 19 20  2  0
 19 21  1  0
 18 22  2  0
 22 23  1  0
 10 24  1  0
 24 25  1  0
  4 26  2  0
 26 27  1  0
 27 28  1  0
 26 29  1  0
 29 30  1  0
 30 31  2  0
 31 32  1  0
 31 33  1  0
 33 34  1  0
 33 35  2  0
 35 36  1  0
 35 37  1  0
 37 38  1  0
 37 39  2  0
 39 40  1  0
 29 41  1  0
 41 42  1  0
 42 43  1  0
 42 44  1  0
 42 45  1  0
 41  3  1  0
 24  6  1  0
 39 30  1  0
 22 11  1  0
M  CHG  2  19   1  21  -1
M  END
>  <UniqueID>  (16) 
27

>  <SMILES>  (16) 
[H]/N=c1/c(/N=c2\[nH]c(-c3cccc([N+](=O)[O-])c3)cs2)c(O)n(-c2ccccc2)n1C

>  <Energy>  (16) 
133.56763920973702

>  <Genealogy>  (16) 
Cn1c(=N)c(N=c2[nH]c(-c3cccc([N+](=O)[O-])c3)cs2)c(O)n1-c1ccccc1 (tautomer)
[H]/N=c1/c(/N=c2\[nH]c(-c3cccc([N+](=O)[O-])c3)cs2)c(O)n(-c2ccccc2)n1C (cis-trans isomerization)
[H]/N=c1/c(/N=c2\[nH]c(-c3cccc([N+](=O)[O-])c3)cs2)c(O)n(-c2ccccc2)n1C (3D coordinates assigned)
[H]/N=c1/c(/N=c2\[nH]c(-c3cccc([N+](=O)[O-])c3)cs2)c(O)n(-c2ccccc2)n1C (optimized conformer: 133.56763920973702 kcal/mol)

>  <smiles>  (16) 
Cn1c(N)c(N=c2[nH]c(-c3cccc([N+](=O)[O-])c3)cs2)c(=O)n1-c1ccccc1

>  <score_type>  (16) 
oracle

>  <origin>  (16) 
autodockgpu

>  <m_score__min__energy>  (16) 
-8.6300000000000008

>  <m_primary>  (16) 
energy

>  <meeko>  (16) 
{"free_energy": -8.29, "intermolecular_energy": -10.38, "internal_energy": -1.37, "cluster_size": 6, "cluster_id": 2, "rank_in_cluster": 4}

>  <energy>  (16) 
-8.29

>  <cluster_rmsd>  (16) 
1.99

>  <rmsd>  (16) 
271.87

>  <cluster>  (16) 
2

$$$$
GBOKQMTYAKOHJX-UURMYREPNA-N
     RDKit          3D

 45 48  0  0  0  0  0  0  0  0999 V2000
  136.3290   75.4210  222.0490 H   0  0  0  0  0  0  0  0  0  0  0  0
  138.8870   74.4180  221.6150 N   0  0  0  0  0  0  0  0  0  0  0  0
  139.8440   73.5370  221.6030 C   0  0  0  0  0  0  0  0  0  0  0  0
  138.9820   75.7450  222.1470 C   0  0  0  0  0  0  0  0  0  0  0  0
  136.6880   76.3610  222.3250 N   0  0  0  0  0  0  0  0  0  0  0  0
  137.9530   76.6290  222.4220 C   0  0  0  0  0  0  0  0  0  0  0  0
  139.6520   71.9610  222.1390 S   0  0  0  0  0  0  0  0  0  0  0  0
  141.2350   71.5270  221.7600 C   0  0  0  0  0  0  0  0  0  0  0  0
  141.6893   70.5390  221.9260 H   0  0  0  0  0  0  0  0  0  0  0  0
  141.8730   72.6380  221.1980 C   0  0  0  0  0  0  0  0  0  0  0  0
  143.2780   72.6120  220.7220 C   0  0  0  0  0  0  0  0  0  0  0  0
  144.0920   73.7520  220.8370 C   0  0  0  0  0  0  0  0  0  0  0  0
  143.6860   74.6701  221.2868 H   0  0  0  0  0  0  0  0  0  0  0  0
  145.4130   73.7270  220.3840 C   0  0  0  0  0  0  0  0  0  0  0  0
  146.0412   74.6250  220.4779 H   0  0  0  0  0  0  0  0  0  0  0  0
  145.9390   72.5680  219.8130 C   0  0  0  0  0  0  0  0  0  0  0  0
  146.9799   72.5578  219.4576 H   0  0  0  0  0  0  0  0  0  0  0  0
  145.1480   71.4140  219.6890 C   0  0  0  0  0  0  0  0  0  0  0  0
  145.6960   70.2170  219.1050 N   0  0  0  0  0  0  0  0  0  0  0  0
  146.3300   70.2640  218.0320 O   0  0  0  0  0  0  0  0  0  0  0  0
  145.5320   68.9980  219.7240 O   0  0  0  0  0  0  0  0  0  0  0  0
  143.8170   71.4450  220.1470 C   0  0  0  0  0  0  0  0  0  0  0  0
  143.1900   70.5459  220.0545 H   0  0  0  0  0  0  0  0  0  0  0  0
  141.0880   73.7500  221.1110 N   0  0  0  0  0  0  0  0  0  0  0  0
  141.4100   74.6520  220.6970 H   0  0  0  0  0  0  0  0  0  0  0  0
  140.1230   76.5170  222.2060 C   0  0  0  0  0  0  0  0  0  0  0  0
  141.4170   76.0940  221.9120 O   0  0  0  0  0  0  0  0  0  0  0  0
  142.1990   76.7350  221.9580 H   0  0  0  0  0  0  0  0  0  0  0  0
  139.7940   77.7780  222.5610 N   0  0  0  0  0  0  0  0  0  0  0  0
  140.7180   78.8730  222.6830 C   0  0  0  0  0  0  0  0  0  0  0  0
  141.5880   78.9420  223.7830 C   0  0  0  0  0  0  0  0  0  0  0  0
  141.5523   78.1641  224.5599 H   0  0  0  0  0  0  0  0  0  0  0  0
  142.5000   79.9970  223.8940 C   0  0  0  0  0  0  0  0  0  0  0  0
  143.1755   80.0502  224.7605 H   0  0  0  0  0  0  0  0  0  0  0  0
  142.5540   80.9830  222.9060 C   0  0  0  0  0  0  0  0  0  0  0  0
  143.2686   81.8144  222.9969 H   0  0  0  0  0  0  0  0  0  0  0  0
  141.7000   80.9130  221.8020 C   0  0  0  0  0  0  0  0  0  0  0  0
  141.7460   81.6875  221.0223 H   0  0  0  0  0  0  0  0  0  0  0  0
  140.7880   79.8610  221.6870 C   0  0  0  0  0  0  0  0  0  0  0  0
  140.1222   79.8062  220.8131 H   0  0  0  0  0  0  0  0  0  0  0  0
  138.4710   77.8480  222.7090 N   0  0  0  0  0  0  0  0  0  0  0  0
  137.7170   79.0490  223.0790 C   0  0  0  0  0  0  0  0  0  0  0  0
  137.6676   79.1277  224.1751 H   0  0  0  0  0  0  0  0  0  0  0  0
  138.2194   79.9379  222.6698 H   0  0  0  0  0  0  0  0  0  0  0  0
  136.6981   78.9828  222.6698 H   0  0  0  0  0  0  0  0  0  0  0  0
  1  2  1  0
  2  3  2  0
  3  4  1  0
  4  5  1  0
  5  6  2  0
  6  7  1  0
  7  8  1  0
  8  9  1  0
  8 10  2  0
 10 11  1  0
 11 12  2  0
 12 13  1  0
 12 14  1  0
 14 15  1  0
 14 16  2  0
 16 17  1  0
 16 18  1  0
 18 19  1  0
 19 20  2  0
 19 21  1  0
 18 22  2  0
 22 23  1  0
 10 24  1  0
 24 25  1  0
  4 26  2  0
 26 27  1  0
 27 28  1  0
 26 29  1  0
 29 30  1  0
 30 31  2  0
 31 32  1  0
 31 33  1  0
 33 34  1  0
 33 35  2  0
 35 36  1  0
 35 37  1  0
 37 38  1  0
 37 39  2  0
 39 40  1  0
 29 41  1  0
 41 42  1  0
 42 43  1  0
 42 44  1  0
 42 45  1  0
 41  3  1  0
 24  6  1  0
 39 30  1  0
 22 11  1  0
M  CHG  2  19   1  21  -1
M  END
>  <UniqueID>  (17) 
27

>  <SMILES>  (17) 
[H]/N=c1/c(/N=c2\[nH]c(-c3cccc([N+](=O)[O-])c3)cs2)c(O)n(-c2ccccc2)n1C

>  <Energy>  (17) 
133.56763920973702

>  <Genealogy>  (17) 
Cn1c(=N)c(N=c2[nH]c(-c3cccc([N+](=O)[O-])c3)cs2)c(O)n1-c1ccccc1 (tautomer)
[H]/N=c1/c(/N=c2\[nH]c(-c3cccc([N+](=O)[O-])c3)cs2)c(O)n(-c2ccccc2)n1C (cis-trans isomerization)
[H]/N=c1/c(/N=c2\[nH]c(-c3cccc([N+](=O)[O-])c3)cs2)c(O)n(-c2ccccc2)n1C (3D coordinates assigned)
[H]/N=c1/c(/N=c2\[nH]c(-c3cccc([N+](=O)[O-])c3)cs2)c(O)n(-c2ccccc2)n1C (optimized conformer: 133.56763920973702 kcal/mol)

>  <smiles>  (17) 
Cn1c(N)c(N=c2[nH]c(-c3cccc([N+](=O)[O-])c3)cs2)c(=O)n1-c1ccccc1

>  <score_type>  (17) 
oracle

>  <origin>  (17) 
autodockgpu

>  <m_score__min__energy>  (17) 
-8.6300000000000008

>  <m_primary>  (17) 
energy

>  <meeko>  (17) 
{"free_energy": -7.44, "intermolecular_energy": -9.53, "internal_energy": -1.81, "cluster_size": 1, "cluster_id": 4, "rank_in_cluster": 1}

>  <energy>  (17) 
-8.27

>  <cluster_rmsd>  (17) 
1.97

>  <rmsd>  (17) 
271.89

>  <cluster>  (17) 
2

$$$$
GBOKQMTYAKOHJX-UURMYREPNA-N
     RDKit          3D

 45 48  0  0  0  0  0  0  0  0999 V2000
  136.5220   75.6490  220.4680 H   0  0  0  0  0  0  0  0  0  0  0  0
  138.9410   74.4330  221.1000 N   0  0  0  0  0  0  0  0  0  0  0  0
  139.6990   73.4820  221.5610 C   0  0  0  0  0  0  0  0  0  0  0  0
  138.9770   75.8040  221.5160 C   0  0  0  0  0  0  0  0  0  0  0  0
  136.8410   76.5820  220.8080 N   0  0  0  0  0  0  0  0  0  0  0  0
  138.0120   76.7780  221.3290 C   0  0  0  0  0  0  0  0  0  0  0  0
  141.0890   72.9550  220.7860 S   0  0  0  0  0  0  0  0  0  0  0  0
  141.4550   71.8280  221.9830 C   0  0  0  0  0  0  0  0  0  0  0  0
  142.3170   71.1446  221.9818 H   0  0  0  0  0  0  0  0  0  0  0  0
  140.4770   71.9090  222.9780 C   0  0  0  0  0  0  0  0  0  0  0  0
  140.4940   71.0720  224.2040 C   0  0  0  0  0  0  0  0  0  0  0  0
  141.0770   71.5540  225.3890 C   0  0  0  0  0  0  0  0  0  0  0  0
  141.5204   72.5605  225.4095 H   0  0  0  0  0  0  0  0  0  0  0  0
  141.0970   70.7640  226.5400 C   0  0  0  0  0  0  0  0  0  0  0  0
  141.5562   71.1507  227.4618 H   0  0  0  0  0  0  0  0  0  0  0  0
  140.5370   69.4860  226.5260 C   0  0  0  0  0  0  0  0  0  0  0  0
  140.5590   68.8694  227.4367 H   0  0  0  0  0  0  0  0  0  0  0  0
  139.9450   68.9820  225.3550 C   0  0  0  0  0  0  0  0  0  0  0  0
  139.3620   67.6650  225.3450 N   0  0  0  0  0  0  0  0  0  0  0  0
  139.2500   67.0260  224.2800 O   0  0  0  0  0  0  0  0  0  0  0  0
  138.9220   67.0870  226.5140 O   0  0  0  0  0  0  0  0  0  0  0  0
  139.9290   69.7840  224.1980 C   0  0  0  0  0  0  0  0  0  0  0  0
  139.4683   69.3980  223.2767 H   0  0  0  0  0  0  0  0  0  0  0  0
  139.5070   72.8370  222.7360 N   0  0  0  0  0  0  0  0  0  0  0  0
  138.7190   73.0320  223.3920 H   0  0  0  0  0  0  0  0  0  0  0  0
  140.0980   76.5030  221.9140 C   0  0  0  0  0  0  0  0  0  0  0  0
  141.3630   75.9660  222.1390 O   0  0  0  0  0  0  0  0  0  0  0  0
  142.1970   76.5270  222.0170 H   0  0  0  0  0  0  0  0  0  0  0  0
  139.7940   77.8150  222.0190 N   0  0  0  0  0  0  0  0  0  0  0  0
  140.7230   78.8540  222.3700 C   0  0  0  0  0  0  0  0  0  0  0  0
  141.3240   78.8650  223.6390 C   0  0  0  0  0  0  0  0  0  0  0  0
  141.0727   78.0833  224.3710 H   0  0  0  0  0  0  0  0  0  0  0  0
  142.2410   79.8660  223.9760 C   0  0  0  0  0  0  0  0  0  0  0  0
  142.7036   79.8740  224.9739 H   0  0  0  0  0  0  0  0  0  0  0  0
  142.5700   80.8560  223.0460 C   0  0  0  0  0  0  0  0  0  0  0  0
  143.2888   81.6446  223.3132 H   0  0  0  0  0  0  0  0  0  0  0  0
  141.9860   80.8440  221.7770 C   0  0  0  0  0  0  0  0  0  0  0  0
  142.2484   81.6214  221.0443 H   0  0  0  0  0  0  0  0  0  0  0  0
  141.0690   79.8460  221.4370 C   0  0  0  0  0  0  0  0  0  0  0  0
  140.6160   79.8369  220.4346 H   0  0  0  0  0  0  0  0  0  0  0  0
  138.5170   77.9860  221.6770 N   0  0  0  0  0  0  0  0  0  0  0  0
  137.8070   79.2680  221.6490 C   0  0  0  0  0  0  0  0  0  0  0  0
  137.6198   79.6060  222.6789 H   0  0  0  0  0  0  0  0  0  0  0  0
  138.4199   80.0152  221.1235 H   0  0  0  0  0  0  0  0  0  0  0  0
  136.8485   79.1449  221.1235 H   0  0  0  0  0  0  0  0  0  0  0  0
  1  2  1  0
  2  3  2  0
  3  4  1  0
  4  5  1  0
  5  6  2  0
  6  7  1  0
  7  8  1  0
  8  9  1  0
  8 10  2  0
 10 11  1  0
 11 12  2  0
 12 13  1  0
 12 14  1  0
 14 15  1  0
 14 16  2  0
 16 17  1  0
 16 18  1  0
 18 19  1  0
 19 20  2  0
 19 21  1  0
 18 22  2  0
 22 23  1  0
 10 24  1  0
 24 25  1  0
  4 26  2  0
 26 27  1  0
 27 28  1  0
 26 29  1  0
 29 30  1  0
 30 31  2  0
 31 32  1  0
 31 33  1  0
 33 34  1  0
 33 35  2  0
 35 36  1  0
 35 37  1  0
 37 38  1  0
 37 39  2  0
 39 40  1  0
 29 41  1  0
 41 42  1  0
 42 43  1  0
 42 44  1  0
 42 45  1  0
 41  3  1  0
 24  6  1  0
 39 30  1  0
 22 11  1  0
M  CHG  2  19   1  21  -1
M  END
>  <UniqueID>  (18) 
27

>  <SMILES>  (18) 
[H]/N=c1/c(/N=c2\[nH]c(-c3cccc([N+](=O)[O-])c3)cs2)c(O)n(-c2ccccc2)n1C

>  <Energy>  (18) 
133.56763920973702

>  <Genealogy>  (18) 
Cn1c(=N)c(N=c2[nH]c(-c3cccc([N+](=O)[O-])c3)cs2)c(O)n1-c1ccccc1 (tautomer)
[H]/N=c1/c(/N=c2\[nH]c(-c3cccc([N+](=O)[O-])c3)cs2)c(O)n(-c2ccccc2)n1C (cis-trans isomerization)
[H]/N=c1/c(/N=c2\[nH]c(-c3cccc([N+](=O)[O-])c3)cs2)c(O)n(-c2ccccc2)n1C (3D coordinates assigned)
[H]/N=c1/c(/N=c2\[nH]c(-c3cccc([N+](=O)[O-])c3)cs2)c(O)n(-c2ccccc2)n1C (optimized conformer: 133.56763920973702 kcal/mol)

>  <smiles>  (18) 
Cn1c(N)c(N=c2[nH]c(-c3cccc([N+](=O)[O-])c3)cs2)c(=O)n1-c1ccccc1

>  <score_type>  (18) 
oracle

>  <origin>  (18) 
autodockgpu

>  <m_score__min__energy>  (18) 
-8.6300000000000008

>  <m_primary>  (18) 
energy

>  <meeko>  (18) 
{"free_energy": -8.41, "intermolecular_energy": -10.5, "internal_energy": -1.23, "cluster_size": 6, "cluster_id": 2, "rank_in_cluster": 1}

>  <energy>  (18) 
-7.62

>  <cluster_rmsd>  (18) 
1.33

>  <rmsd>  (18) 
271.59

>  <cluster>  (18) 
2

$$$$
GBOKQMTYAKOHJX-UURMYREPNA-N
     RDKit          3D

 45 48  0  0  0  0  0  0  0  0999 V2000
  136.2480   75.0240  219.6910 H   0  0  0  0  0  0  0  0  0  0  0  0
  138.4730   73.7140  220.7280 N   0  0  0  0  0  0  0  0  0  0  0  0
  138.5380   72.6580  221.4850 C   0  0  0  0  0  0  0  0  0  0  0  0
  138.4680   75.0710  221.1860 C   0  0  0  0  0  0  0  0  0  0  0  0
  136.4780   75.9140  220.1850 N   0  0  0  0  0  0  0  0  0  0  0  0
  137.5590   76.0700  220.8840 C   0  0  0  0  0  0  0  0  0  0  0  0
  137.8730   71.1790  221.0640 S   0  0  0  0  0  0  0  0  0  0  0  0
  138.4090   70.4190  222.4680 C   0  0  0  0  0  0  0  0  0  0  0  0
  138.2300   69.3682  222.7398 H   0  0  0  0  0  0  0  0  0  0  0  0
  139.1200   71.3510  223.2290 C   0  0  0  0  0  0  0  0  0  0  0  0
  139.7590   71.0210  224.5280 C   0  0  0  0  0  0  0  0  0  0  0  0
  140.6880   71.9010  225.1100 C   0  0  0  0  0  0  0  0  0  0  0  0
  140.9407   72.8432  224.6017 H   0  0  0  0  0  0  0  0  0  0  0  0
  141.2920   71.5870  226.3290 C   0  0  0  0  0  0  0  0  0  0  0  0
  142.0183   72.2820  226.7756 H   0  0  0  0  0  0  0  0  0  0  0  0
  140.9780   70.3950  226.9830 C   0  0  0  0  0  0  0  0  0  0  0  0
  141.4595   70.1548  227.9424 H   0  0  0  0  0  0  0  0  0  0  0  0
  140.0510   69.5000  226.4240 C   0  0  0  0  0  0  0  0  0  0  0  0
  139.7240   68.2740  227.1050 N   0  0  0  0  0  0  0  0  0  0  0  0
  139.9610   68.1380  228.3230 O   0  0  0  0  0  0  0  0  0  0  0  0
  139.1400   67.2300  226.4240 O   0  0  0  0  0  0  0  0  0  0  0  0
  139.4460   69.8220  225.1950 C   0  0  0  0  0  0  0  0  0  0  0  0
  138.7187   69.1272  224.7497 H   0  0  0  0  0  0  0  0  0  0  0  0
  139.1900   72.5940  222.6700 N   0  0  0  0  0  0  0  0  0  0  0  0
  139.7020   73.3930  223.1040 H   0  0  0  0  0  0  0  0  0  0  0  0
  139.5250   75.7350  221.7720 C   0  0  0  0  0  0  0  0  0  0  0  0
  140.7320   75.1650  222.1710 O   0  0  0  0  0  0  0  0  0  0  0  0
  141.5980   75.6870  222.1180 H   0  0  0  0  0  0  0  0  0  0  0  0
  139.2310   77.0490  221.8710 N   0  0  0  0  0  0  0  0  0  0  0  0
  140.1130   78.0580  222.3920 C   0  0  0  0  0  0  0  0  0  0  0  0
  141.4300   78.1580  221.9170 C   0  0  0  0  0  0  0  0  0  0  0  0
  141.7924   77.4537  221.1537 H   0  0  0  0  0  0  0  0  0  0  0  0
  142.2830   79.1500  222.4110 C   0  0  0  0  0  0  0  0  0  0  0  0
  143.3166   79.2197  222.0411 H   0  0  0  0  0  0  0  0  0  0  0  0
  141.8240   80.0530  223.3740 C   0  0  0  0  0  0  0  0  0  0  0  0
  142.4969   80.8312  223.7634 H   0  0  0  0  0  0  0  0  0  0  0  0
  140.5100   79.9670  223.8420 C   0  0  0  0  0  0  0  0  0  0  0  0
  140.1484   80.6796  224.5979 H   0  0  0  0  0  0  0  0  0  0  0  0
  139.6550   78.9770  223.3510 C   0  0  0  0  0  0  0  0  0  0  0  0
  138.6193   78.9169  223.7167 H   0  0  0  0  0  0  0  0  0  0  0  0
  138.0250   77.2570  221.3430 N   0  0  0  0  0  0  0  0  0  0  0  0
  137.3480   78.5540  221.2470 C   0  0  0  0  0  0  0  0  0  0  0  0
  137.1473   78.9386  222.2579 H   0  0  0  0  0  0  0  0  0  0  0  0
  137.9906   79.2638  220.7056 H   0  0  0  0  0  0  0  0  0  0  0  0
  136.3982   78.4327  220.7056 H   0  0  0  0  0  0  0  0  0  0  0  0
  1  2  1  0
  2  3  2  0
  3  4  1  0
  4  5  1  0
  5  6  2  0
  6  7  1  0
  7  8  1  0
  8  9  1  0
  8 10  2  0
 10 11  1  0
 11 12  2  0
 12 13  1  0
 12 14  1  0
 14 15  1  0
 14 16  2  0
 16 17  1  0
 16 18  1  0
 18 19  1  0
 19 20  2  0
 19 21  1  0
 18 22  2  0
 22 23  1  0
 10 24  1  0
 24 25  1  0
  4 26  2  0
 26 27  1  0
 27 28  1  0
 26 29  1  0
 29 30  1  0
 30 31  2  0
 31 32  1  0
 31 33  1  0
 33 34  1  0
 33 35  2  0
 35 36  1  0
 35 37  1  0
 37 38  1  0
 37 39  2  0
 39 40  1  0
 29 41  1  0
 41 42  1  0
 42 43  1  0
 42 44  1  0
 42 45  1  0
 41  3  1  0
 24  6  1  0
 39 30  1  0
 22 11  1  0
M  CHG  2  19   1  21  -1
M  END
>  <UniqueID>  (19) 
27

>  <SMILES>  (19) 
[H]/N=c1/c(/N=c2\[nH]c(-c3cccc([N+](=O)[O-])c3)cs2)c(O)n(-c2ccccc2)n1C

>  <Energy>  (19) 
133.56763920973702

>  <Genealogy>  (19) 
Cn1c(=N)c(N=c2[nH]c(-c3cccc([N+](=O)[O-])c3)cs2)c(O)n1-c1ccccc1 (tautomer)
[H]/N=c1/c(/N=c2\[nH]c(-c3cccc([N+](=O)[O-])c3)cs2)c(O)n(-c2ccccc2)n1C (cis-trans isomerization)
[H]/N=c1/c(/N=c2\[nH]c(-c3cccc([N+](=O)[O-])c3)cs2)c(O)n(-c2ccccc2)n1C (3D coordinates assigned)
[H]/N=c1/c(/N=c2\[nH]c(-c3cccc([N+](=O)[O-])c3)cs2)c(O)n(-c2ccccc2)n1C (optimized conformer: 133.56763920973702 kcal/mol)

>  <smiles>  (19) 
Cn1c(N)c(N=c2[nH]c(-c3cccc([N+](=O)[O-])c3)cs2)c(=O)n1-c1ccccc1

>  <score_type>  (19) 
oracle

>  <origin>  (19) 
autodockgpu

>  <m_score__min__energy>  (19) 
-8.6300000000000008

>  <m_primary>  (19) 
energy

>  <meeko>  (19) 
{"free_energy": -7.62, "intermolecular_energy": -9.71, "internal_energy": -1.73, "cluster_size": 6, "cluster_id": 2, "rank_in_cluster": 6}

>  <energy>  (19) 
-8.27

>  <cluster_rmsd>  (19) 
0.0

>  <rmsd>  (19) 
271.9

>  <cluster>  (19) 
3

$$$$
GBOKQMTYAKOHJX-UURMYREPNA-N
     RDKit          3D

 45 48  0  0  0  0  0  0  0  0999 V2000
  137.3450   74.4920  223.0850 H   0  0  0  0  0  0  0  0  0  0  0  0
  137.6590   75.0180  222.2410 N   0  0  0  0  0  0  0  0  0  0  0  0
  138.8480   75.5230  222.1290 C   0  0  0  0  0  0  0  0  0  0  0  0
  139.9370   74.8830  221.5620 C   0  0  0  0  0  0  0  0  0  0  0  0
  139.9720   73.6100  220.9070 N   0  0  0  0  0  0  0  0  0  0  0  0
  139.9270   72.4530  221.4970 C   0  0  0  0  0  0  0  0  0  0  0  0
  139.9460   70.9950  220.6700 S   0  0  0  0  0  0  0  0  0  0  0  0
  139.9100   70.0730  222.0800 C   0  0  0  0  0  0  0  0  0  0  0  0
  139.8946   68.9743  222.1311 H   0  0  0  0  0  0  0  0  0  0  0  0
  139.9030   70.9440  223.1740 C   0  0  0  0  0  0  0  0  0  0  0  0
  139.8960   70.4760  224.5830 C   0  0  0  0  0  0  0  0  0  0  0  0
  139.5020   69.1640  224.8980 C   0  0  0  0  0  0  0  0  0  0  0  0
  139.2003   68.4763  224.0942 H   0  0  0  0  0  0  0  0  0  0  0  0
  139.4910   68.7280  226.2240 C   0  0  0  0  0  0  0  0  0  0  0  0
  139.1788   67.6999  226.4598 H   0  0  0  0  0  0  0  0  0  0  0  0
  139.8740   69.5900  227.2510 C   0  0  0  0  0  0  0  0  0  0  0  0
  139.8613   69.2382  228.2932 H   0  0  0  0  0  0  0  0  0  0  0  0
  140.2760   70.9050  226.9630 C   0  0  0  0  0  0  0  0  0  0  0  0
  140.6770   71.7910  228.0260 N   0  0  0  0  0  0  0  0  0  0  0  0
  141.8270   72.2740  228.0530 O   0  0  0  0  0  0  0  0  0  0  0  0
  139.7950   72.1240  229.0290 O   0  0  0  0  0  0  0  0  0  0  0  0
  140.2840   71.3390  225.6250 C   0  0  0  0  0  0  0  0  0  0  0  0
  140.5977   72.3668  225.3899 H   0  0  0  0  0  0  0  0  0  0  0  0
  139.9180   72.2660  222.8380 N   0  0  0  0  0  0  0  0  0  0  0  0
  139.9370   73.0380  223.5400 H   0  0  0  0  0  0  0  0  0  0  0  0
  140.9100   75.8590  221.4960 C   0  0  0  0  0  0  0  0  0  0  0  0
  142.1690   75.7230  220.9150 O   0  0  0  0  0  0  0  0  0  0  0  0
  142.9420   76.3120  221.2010 H   0  0  0  0  0  0  0  0  0  0  0  0
  140.4430   76.9980  222.0510 N   0  0  0  0  0  0  0  0  0  0  0  0
  141.1640   78.2400  222.1240 C   0  0  0  0  0  0  0  0  0  0  0  0
  141.2380   79.0790  221.0010 C   0  0  0  0  0  0  0  0  0  0  0  0
  140.7546   78.7787  220.0596 H   0  0  0  0  0  0  0  0  0  0  0  0
  141.9240   80.2950  221.0750 C   0  0  0  0  0  0  0  0  0  0  0  0
  141.9848   80.9459  220.1904 H   0  0  0  0  0  0  0  0  0  0  0  0
  142.5330   80.6850  222.2720 C   0  0  0  0  0  0  0  0  0  0  0  0
  143.0753   81.6404  222.3279 H   0  0  0  0  0  0  0  0  0  0  0  0
  142.4520   79.8600  223.3970 C   0  0  0  0  0  0  0  0  0  0  0  0
  142.9280   80.1681  224.3396 H   0  0  0  0  0  0  0  0  0  0  0  0
  141.7670   78.6440  223.3260 C   0  0  0  0  0  0  0  0  0  0  0  0
  141.6999   78.0005  224.2156 H   0  0  0  0  0  0  0  0  0  0  0  0
  139.1890   76.7930  222.4530 N   0  0  0  0  0  0  0  0  0  0  0  0
  138.3280   77.7890  223.0970 C   0  0  0  0  0  0  0  0  0  0  0  0
  138.4106   77.6934  224.1897 H   0  0  0  0  0  0  0  0  0  0  0  0
  138.6431   78.7979  222.7923 H   0  0  0  0  0  0  0  0  0  0  0  0
  137.2841   77.6232  222.7923 H   0  0  0  0  0  0  0  0  0  0  0  0
  1  2  1  0
  2  3  2  0
  3  4  1  0
  4  5  1  0
  5  6  2  0
  6  7  1  0
  7  8  1  0
  8  9  1  0
  8 10  2  0
 10 11  1  0
 11 12  2  0
 12 13  1  0
 12 14  1  0
 14 15  1  0
 14 16  2  0
 16 17  1  0
 16 18  1  0
 18 19  1  0
 19 20  2  0
 19 21  1  0
 18 22  2  0
 22 23  1  0
 10 24  1  0
 24 25  1  0
  4 26  2  0
 26 27  1  0
 27 28  1  0
 26 29  1  0
 29 30  1  0
 30 31  2  0
 31 32  1  0
 31 33  1  0
 33 34  1  0
 33 35  2  0
 35 36  1  0
 35 37  1  0
 37 38  1  0
 37 39  2  0
 39 40  1  0
 29 41  1  0
 41 42  1  0
 42 43  1  0
 42 44  1  0
 42 45  1  0
 41  3  1  0
 24  6  1  0
 39 30  1  0
 22 11  1  0
M  CHG  2  19   1  21  -1
M  END
>  <UniqueID>  (20) 
27

>  <SMILES>  (20) 
[H]/N=c1/c(/N=c2\[nH]c(-c3cccc([N+](=O)[O-])c3)cs2)c(O)n(-c2ccccc2)n1C

>  <Energy>  (20) 
133.56763920973702

>  <Genealogy>  (20) 
Cn1c(=N)c(N=c2[nH]c(-c3cccc([N+](=O)[O-])c3)cs2)c(O)n1-c1ccccc1 (tautomer)
[H]/N=c1/c(/N=c2\[nH]c(-c3cccc([N+](=O)[O-])c3)cs2)c(O)n(-c2ccccc2)n1C (cis-trans isomerization)
[H]/N=c1/c(/N=c2\[nH]c(-c3cccc([N+](=O)[O-])c3)cs2)c(O)n(-c2ccccc2)n1C (3D coordinates assigned)
[H]/N=c1/c(/N=c2\[nH]c(-c3cccc([N+](=O)[O-])c3)cs2)c(O)n(-c2ccccc2)n1C (optimized conformer: 133.56763920973702 kcal/mol)

>  <smiles>  (20) 
Cn1c(N)c(N=c2[nH]c(-c3cccc([N+](=O)[O-])c3)cs2)c(=O)n1-c1ccccc1

>  <score_type>  (20) 
oracle

>  <origin>  (20) 
autodockgpu

>  <m_score__min__energy>  (20) 
-8.6300000000000008

>  <m_primary>  (20) 
energy

>  <meeko>  (20) 
{"free_energy": -8.63, "intermolecular_energy": -10.72, "internal_energy": -1.12, "cluster_size": 12, "cluster_id": 1, "rank_in_cluster": 1}

>  <energy>  (20) 
-7.44

>  <cluster_rmsd>  (20) 
0.0

>  <rmsd>  (20) 
271.61

>  <cluster>  (20) 
4

$$$$
DVQUYCKLNVLYBS-CREQSCFXNA-M
     RDKit          3D

 44 47  0  0  0  0  0  0  0  0999 V2000
  139.5901   69.3001  222.5628 H   0  0  0  0  0  0  0  0  0  0  0  0
  139.8010   70.3680  222.4040 C   0  0  0  0  0  0  0  0  0  0  0  0
  139.6910   71.1870  220.9370 S   0  0  0  0  0  0  0  0  0  0  0  0
  140.1820   72.6520  221.6070 C   0  0  0  0  0  0  0  0  0  0  0  0
  140.2870   73.7850  220.9790 N   0  0  0  0  0  0  0  0  0  0  0  0
  140.1590   75.0820  221.5760 C   0  0  0  0  0  0  0  0  0  0  0  0
  139.0470   75.6470  222.1840 C   0  0  0  0  0  0  0  0  0  0  0  0
  137.7650   75.0280  222.3370 N   0  0  0  0  0  0  0  0  0  0  0  0
  136.9110   75.4540  221.9180 H   0  0  0  0  0  0  0  0  0  0  0  0
  137.6710   74.1020  222.8070 H   0  0  0  0  0  0  0  0  0  0  0  0
  139.3000   76.9540  222.4350 N   0  0  0  0  0  0  0  0  0  0  0  0
  138.3820   77.8910  223.0850 C   0  0  0  0  0  0  0  0  0  0  0  0
  138.4743   77.7968  224.1771 H   0  0  0  0  0  0  0  0  0  0  0  0
  138.6325   78.9187  222.7832 H   0  0  0  0  0  0  0  0  0  0  0  0
  137.3494   77.6616  222.7832 H   0  0  0  0  0  0  0  0  0  0  0  0
  140.5100   77.2500  221.9610 N   0  0  0  0  0  0  0  0  0  0  0  0
  141.1020   78.5600  221.9080 C   0  0  0  0  0  0  0  0  0  0  0  0
  141.7150   79.1090  223.0470 C   0  0  0  0  0  0  0  0  0  0  0  0
  141.7628   78.5257  223.9784 H   0  0  0  0  0  0  0  0  0  0  0  0
  142.2640   80.3930  223.0010 C   0  0  0  0  0  0  0  0  0  0  0  0
  142.7490   80.8151  223.8935 H   0  0  0  0  0  0  0  0  0  0  0  0
  142.1980   81.1420  221.8230 C   0  0  0  0  0  0  0  0  0  0  0  0
  142.6314   82.1524  221.7887 H   0  0  0  0  0  0  0  0  0  0  0  0
  141.5810   80.6070  220.6880 C   0  0  0  0  0  0  0  0  0  0  0  0
  141.5289   81.1972  219.7612 H   0  0  0  0  0  0  0  0  0  0  0  0
  141.0300   79.3220  220.7300 C   0  0  0  0  0  0  0  0  0  0  0  0
  140.5387   78.9068  219.8377 H   0  0  0  0  0  0  0  0  0  0  0  0
  141.0380   76.1290  221.4250 C   0  0  0  0  0  0  0  0  0  0  0  0
  142.1520   76.0740  220.8370 O   0  0  0  0  0  0  0  0  0  0  0  0
  140.4100   72.5450  222.9300 N   0  0  0  0  0  0  0  0  0  0  0  0
  140.2070   71.2790  223.3880 C   0  0  0  0  0  0  0  0  0  0  0  0
  140.3980   70.9360  224.8200 C   0  0  0  0  0  0  0  0  0  0  0  0
  140.9410   71.8920  225.6970 C   0  0  0  0  0  0  0  0  0  0  0  0
  141.2316   72.8812  225.3136 H   0  0  0  0  0  0  0  0  0  0  0  0
  141.1140   71.5960  227.0490 C   0  0  0  0  0  0  0  0  0  0  0  0
  141.5440   72.3512  227.7234 H   0  0  0  0  0  0  0  0  0  0  0  0
  140.7450   70.3480  227.5510 C   0  0  0  0  0  0  0  0  0  0  0  0
  140.8870   70.1243  228.6186 H   0  0  0  0  0  0  0  0  0  0  0  0
  140.1930   69.3750  226.7010 C   0  0  0  0  0  0  0  0  0  0  0  0
  139.7990   68.0900  227.2160 N   0  0  0  0  0  0  0  0  0  0  0  0
  140.0100   67.7900  228.4100 O   0  0  0  0  0  0  0  0  0  0  0  0
  139.1720   67.1720  226.4050 O   0  0  0  0  0  0  0  0  0  0  0  0
  140.0240   69.6780  225.3360 C   0  0  0  0  0  0  0  0  0  0  0  0
  139.5939   68.9222  224.6624 H   0  0  0  0  0  0  0  0  0  0  0  0
  1  2  1  0
  2  3  1  0
  3  4  1  0
  4  5  2  0
  5  6  1  0
  6  7  2  0
  7  8  1  0
  8  9  1  0
  8 10  1  0
  7 11  1  0
 11 12  1  0
 12 13  1  0
 12 14  1  0
 12 15  1  0
 11 16  1  0
 16 17  1  0
 17 18  2  0
 18 19  1  0
 18 20  1  0
 20 21  1  0
 20 22  2  0
 22 23  1  0
 22 24  1  0
 24 25  1  0
 24 26  2  0
 26 27  1  0
 16 28  1  0
 28 29  2  0
  4 30  1  0
 30 31  1  0
 31 32  1  0
 32 33  2  0
 33 34  1  0
 33 35  1  0
 35 36  1  0
 35 37  2  0
 37 38  1  0
 37 39  1  0
 39 40  1  0
 40 41  2  0
 40 42  1  0
 39 43  2  0
 43 44  1  0
 31  2  2  0
 43 32  1  0
 28  6  1  0
 26 17  1  0
M  CHG  3  30  -1  40   1  42  -1
M  END
>  <UniqueID>  (21) 
28

>  <SMILES>  (21) 
Cn1c(N)c(/N=c2/[n-]c(-c3cccc([N+](=O)[O-])c3)cs2)c(=O)n1-c1ccccc1

>  <Energy>  (21) 
132.10637475221327

>  <Genealogy>  (21) 
Cn1c(N)c(N=c2[n-]c(-c3cccc([N+](=O)[O-])c3)cs2)c(=O)n1-c1ccccc1 (protonated)
Cn1c(N)c(/N=c2/[n-]c(-c3cccc([N+](=O)[O-])c3)cs2)c(=O)n1-c1ccccc1 (cis-trans isomerization)
Cn1c(N)c(/N=c2/[n-]c(-c3cccc([N+](=O)[O-])c3)cs2)c(=O)n1-c1ccccc1 (3D coordinates assigned)
Cn1c(N)c(/N=c2/[n-]c(-c3cccc([N+](=O)[O-])c3)cs2)c(=O)n1-c1ccccc1 (optimized conformer: 132.10637475221327 kcal/mol)

>  <smiles>  (21) 
Cn1c(N)c(N=c2[nH]c(-c3cccc([N+](=O)[O-])c3)cs2)c(=O)n1-c1ccccc1

>  <score_type>  (21) 
oracle

>  <origin>  (21) 
autodockgpu

>  <m_score__min__energy>  (21) 
-8.4600000000000009

>  <m_primary>  (21) 
energy

>  <meeko>  (21) 
{"free_energy": -8.46, "intermolecular_energy": -10.25, "internal_energy": -1.32, "cluster_size": 13, "cluster_id": 1, "rank_in_cluster": 1}

>  <energy>  (21) 
-8.46

>  <cluster_rmsd>  (21) 
0.0

>  <rmsd>  (21) 
272.27

>  <cluster>  (21) 
1

$$$$
DVQUYCKLNVLYBS-CREQSCFXNA-M
     RDKit          3D

 44 47  0  0  0  0  0  0  0  0999 V2000
  142.6191   75.8839  221.0605 H   0  0  0  0  0  0  0  0  0  0  0  0
  141.7190   75.2800  221.2480 C   0  0  0  0  0  0  0  0  0  0  0  0
  141.5150   73.6610  220.8340 S   0  0  0  0  0  0  0  0  0  0  0  0
  139.9450   73.6020  221.4430 C   0  0  0  0  0  0  0  0  0  0  0  0
  139.1720   72.5590  221.4690 N   0  0  0  0  0  0  0  0  0  0  0  0
  139.0140   71.6690  222.5820 C   0  0  0  0  0  0  0  0  0  0  0  0
  137.8660   71.0200  223.0130 C   0  0  0  0  0  0  0  0  0  0  0  0
  136.5680   71.1180  222.4160 N   0  0  0  0  0  0  0  0  0  0  0  0
  136.4150   71.6910  221.5580 H   0  0  0  0  0  0  0  0  0  0  0  0
  135.7670   70.5620  222.7830 H   0  0  0  0  0  0  0  0  0  0  0  0
  138.1150   70.4340  224.2090 N   0  0  0  0  0  0  0  0  0  0  0  0
  137.1610   69.6380  224.9850 C   0  0  0  0  0  0  0  0  0  0  0  0
  137.3440   69.7907  226.0589 H   0  0  0  0  0  0  0  0  0  0  0  0
  136.1359   69.9524  224.7394 H   0  0  0  0  0  0  0  0  0  0  0  0
  137.2867   68.5732  224.7394 H   0  0  0  0  0  0  0  0  0  0  0  0
  139.3610   70.7320  224.5760 N   0  0  0  0  0  0  0  0  0  0  0  0
  139.9720   70.4140  225.8380 C   0  0  0  0  0  0  0  0  0  0  0  0
  140.1080   69.0770  226.2450 C   0  0  0  0  0  0  0  0  0  0  0  0
  139.7663   68.2661  225.5849 H   0  0  0  0  0  0  0  0  0  0  0  0
  140.6760   68.7720  227.4860 C   0  0  0  0  0  0  0  0  0  0  0  0
  140.7866   67.7227  227.7969 H   0  0  0  0  0  0  0  0  0  0  0  0
  141.1030   69.7990  228.3310 C   0  0  0  0  0  0  0  0  0  0  0  0
  141.5499   69.5577  229.3067 H   0  0  0  0  0  0  0  0  0  0  0  0
  140.9630   71.1330  227.9380 C   0  0  0  0  0  0  0  0  0  0  0  0
  141.2997   71.9408  228.6044 H   0  0  0  0  0  0  0  0  0  0  0  0
  140.3950   71.4410  226.6980 C   0  0  0  0  0  0  0  0  0  0  0  0
  140.2789   72.4920  226.3946 H   0  0  0  0  0  0  0  0  0  0  0  0
  139.9150   71.4900  223.6060 C   0  0  0  0  0  0  0  0  0  0  0  0
  141.0710   71.9920  223.6630 O   0  0  0  0  0  0  0  0  0  0  0  0
  139.5720   74.7820  221.9770 N   0  0  0  0  0  0  0  0  0  0  0  0
  140.5470   75.7270  221.8720 C   0  0  0  0  0  0  0  0  0  0  0  0
  140.3500   77.1010  222.4000 C   0  0  0  0  0  0  0  0  0  0  0  0
  139.0510   77.5520  222.6960 C   0  0  0  0  0  0  0  0  0  0  0  0
  138.1906   76.8888  222.5230 H   0  0  0  0  0  0  0  0  0  0  0  0
  138.8450   78.8330  223.2070 C   0  0  0  0  0  0  0  0  0  0  0  0
  137.8235   79.1746  223.4302 H   0  0  0  0  0  0  0  0  0  0  0  0
  139.9260   79.6840  223.4370 C   0  0  0  0  0  0  0  0  0  0  0  0
  139.7521   80.6928  223.8395 H   0  0  0  0  0  0  0  0  0  0  0  0
  141.2370   79.2590  223.1570 C   0  0  0  0  0  0  0  0  0  0  0  0
  142.3570   80.1280  223.4030 N   0  0  0  0  0  0  0  0  0  0  0  0
  143.4700   79.8950  222.8860 O   0  0  0  0  0  0  0  0  0  0  0  0
  142.2200   81.2380  224.2050 O   0  0  0  0  0  0  0  0  0  0  0  0
  141.4380   77.9660  222.6380 C   0  0  0  0  0  0  0  0  0  0  0  0
  142.4597   77.6250  222.4146 H   0  0  0  0  0  0  0  0  0  0  0  0
  1  2  1  0
  2  3  1  0
  3  4  1  0
  4  5  2  0
  5  6  1  0
  6  7  2  0
  7  8  1  0
  8  9  1  0
  8 10  1  0
  7 11  1  0
 11 12  1  0
 12 13  1  0
 12 14  1  0
 12 15  1  0
 11 16  1  0
 16 17  1  0
 17 18  2  0
 18 19  1  0
 18 20  1  0
 20 21  1  0
 20 22  2  0
 22 23  1  0
 22 24  1  0
 24 25  1  0
 24 26  2  0
 26 27  1  0
 16 28  1  0
 28 29  2  0
  4 30  1  0
 30 31  1  0
 31 32  1  0
 32 33  2  0
 33 34  1  0
 33 35  1  0
 35 36  1  0
 35 37  2  0
 37 38  1  0
 37 39  1  0
 39 40  1  0
 40 41  2  0
 40 42  1  0
 39 43  2  0
 43 44  1  0
 31  2  2  0
 43 32  1  0
 28  6  1  0
 26 17  1  0
M  CHG  3  30  -1  40   1  42  -1
M  END
>  <UniqueID>  (22) 
28

>  <SMILES>  (22) 
Cn1c(N)c(/N=c2/[n-]c(-c3cccc([N+](=O)[O-])c3)cs2)c(=O)n1-c1ccccc1

>  <Energy>  (22) 
132.10637475221327

>  <Genealogy>  (22) 
Cn1c(N)c(N=c2[n-]c(-c3cccc([N+](=O)[O-])c3)cs2)c(=O)n1-c1ccccc1 (protonated)
Cn1c(N)c(/N=c2/[n-]c(-c3cccc([N+](=O)[O-])c3)cs2)c(=O)n1-c1ccccc1 (cis-trans isomerization)
Cn1c(N)c(/N=c2/[n-]c(-c3cccc([N+](=O)[O-])c3)cs2)c(=O)n1-c1ccccc1 (3D coordinates assigned)
Cn1c(N)c(/N=c2/[n-]c(-c3cccc([N+](=O)[O-])c3)cs2)c(=O)n1-c1ccccc1 (optimized conformer: 132.10637475221327 kcal/mol)

>  <smiles>  (22) 
Cn1c(N)c(N=c2[nH]c(-c3cccc([N+](=O)[O-])c3)cs2)c(=O)n1-c1ccccc1

>  <score_type>  (22) 
oracle

>  <origin>  (22) 
autodockgpu

>  <m_score__min__energy>  (22) 
-8.4600000000000009

>  <m_primary>  (22) 
energy

>  <meeko>  (22) 
{"free_energy": -8.18, "intermolecular_energy": -9.97, "internal_energy": -1.31, "cluster_size": 5, "cluster_id": 3, "rank_in_cluster": 1}

>  <energy>  (22) 
-8.41

>  <cluster_rmsd>  (22) 
0.07

>  <rmsd>  (22) 
272.27

>  <cluster>  (22) 
1

$$$$
DVQUYCKLNVLYBS-CREQSCFXNA-M
     RDKit          3D

 44 47  0  0  0  0  0  0  0  0999 V2000
  142.7025   75.8107  221.1871 H   0  0  0  0  0  0  0  0  0  0  0  0
  141.7900   75.2160  221.3410 C   0  0  0  0  0  0  0  0  0  0  0  0
  141.5970   73.5900  220.9520 S   0  0  0  0  0  0  0  0  0  0  0  0
  139.9980   73.5530  221.4800 C   0  0  0  0  0  0  0  0  0  0  0  0
  139.2180   72.5140  221.4890 N   0  0  0  0  0  0  0  0  0  0  0  0
  139.0260   71.6270  222.5990 C   0  0  0  0  0  0  0  0  0  0  0  0
  137.8610   70.9950  223.0090 C   0  0  0  0  0  0  0  0  0  0  0  0
  136.5760   71.1110  222.3880 N   0  0  0  0  0  0  0  0  0  0  0  0
  135.7310   70.6800  222.8200 H   0  0  0  0  0  0  0  0  0  0  0  0
  136.4480   71.6900  221.5300 H   0  0  0  0  0  0  0  0  0  0  0  0
  138.0790   70.4060  224.2100 N   0  0  0  0  0  0  0  0  0  0  0  0
  137.1010   69.6250  224.9680 C   0  0  0  0  0  0  0  0  0  0  0  0
  137.2757   69.7645  226.0450 H   0  0  0  0  0  0  0  0  0  0  0  0
  136.0856   69.9635  224.7144 H   0  0  0  0  0  0  0  0  0  0  0  0
  137.2065   68.5598  224.7144 H   0  0  0  0  0  0  0  0  0  0  0  0
  139.3230   70.6870  224.5990 N   0  0  0  0  0  0  0  0  0  0  0  0
  139.9060   70.3610  225.8730 C   0  0  0  0  0  0  0  0  0  0  0  0
  140.3620   71.3790  226.7260 C   0  0  0  0  0  0  0  0  0  0  0  0
  140.2522   72.4325  226.4292 H   0  0  0  0  0  0  0  0  0  0  0  0
  140.9550   71.0590  227.9510 C   0  0  0  0  0  0  0  0  0  0  0  0
  141.3038   71.8606  228.6187 H   0  0  0  0  0  0  0  0  0  0  0  0
  141.1050   69.7220  228.3280 C   0  0  0  0  0  0  0  0  0  0  0  0
  141.5711   69.4718  229.2925 H   0  0  0  0  0  0  0  0  0  0  0  0
  140.6630   68.7020  227.4800 C   0  0  0  0  0  0  0  0  0  0  0  0
  140.7818   67.6497  227.7774 H   0  0  0  0  0  0  0  0  0  0  0  0
  140.0700   69.0190  226.2540 C   0  0  0  0  0  0  0  0  0  0  0  0
  139.7306   68.2143  225.5853 H   0  0  0  0  0  0  0  0  0  0  0  0
  139.9060   71.4360  223.6390 C   0  0  0  0  0  0  0  0  0  0  0  0
  141.0670   71.9220  223.7180 O   0  0  0  0  0  0  0  0  0  0  0  0
  139.6060   74.7450  221.9700 N   0  0  0  0  0  0  0  0  0  0  0  0
  140.5910   75.6830  221.8940 C   0  0  0  0  0  0  0  0  0  0  0  0
  140.3750   77.0690  222.3820 C   0  0  0  0  0  0  0  0  0  0  0  0
  139.0680   77.5180  222.6440 C   0  0  0  0  0  0  0  0  0  0  0  0
  138.2152   76.8442  222.4748 H   0  0  0  0  0  0  0  0  0  0  0  0
  138.8450   78.8120  223.1170 C   0  0  0  0  0  0  0  0  0  0  0  0
  137.8177   79.1532  223.3127 H   0  0  0  0  0  0  0  0  0  0  0  0
  139.9170   79.6750  223.3430 C   0  0  0  0  0  0  0  0  0  0  0  0
  139.7302   80.6928  223.7160 H   0  0  0  0  0  0  0  0  0  0  0  0
  141.2350   79.2520  223.0970 C   0  0  0  0  0  0  0  0  0  0  0  0
  142.3450   80.1350  223.3390 N   0  0  0  0  0  0  0  0  0  0  0  0
  143.4450   79.9440  222.7780 O   0  0  0  0  0  0  0  0  0  0  0  0
  142.2120   81.2130  224.1840 O   0  0  0  0  0  0  0  0  0  0  0  0
  141.4530   77.9470  222.6160 C   0  0  0  0  0  0  0  0  0  0  0  0
  142.4806   77.6070  222.4196 H   0  0  0  0  0  0  0  0  0  0  0  0
  1  2  1  0
  2  3  1  0
  3  4  1  0
  4  5  2  0
  5  6  1  0
  6  7  2  0
  7  8  1  0
  8  9  1  0
  8 10  1  0
  7 11  1  0
 11 12  1  0
 12 13  1  0
 12 14  1  0
 12 15  1  0
 11 16  1  0
 16 17  1  0
 17 18  2  0
 18 19  1  0
 18 20  1  0
 20 21  1  0
 20 22  2  0
 22 23  1  0
 22 24  1  0
 24 25  1  0
 24 26  2  0
 26 27  1  0
 16 28  1  0
 28 29  2  0
  4 30  1  0
 30 31  1  0
 31 32  1  0
 32 33  2  0
 33 34  1  0
 33 35  1  0
 35 36  1  0
 35 37  2  0
 37 38  1  0
 37 39  1  0
 39 40  1  0
 40 41  2  0
 40 42  1  0
 39 43  2  0
 43 44  1  0
 31  2  2  0
 43 32  1  0
 28  6  1  0
 26 17  1  0
M  CHG  3  30  -1  40   1  42  -1
M  END
>  <UniqueID>  (23) 
28

>  <SMILES>  (23) 
Cn1c(N)c(/N=c2/[n-]c(-c3cccc([N+](=O)[O-])c3)cs2)c(=O)n1-c1ccccc1

>  <Energy>  (23) 
132.10637475221327

>  <Genealogy>  (23) 
Cn1c(N)c(N=c2[n-]c(-c3cccc([N+](=O)[O-])c3)cs2)c(=O)n1-c1ccccc1 (protonated)
Cn1c(N)c(/N=c2/[n-]c(-c3cccc([N+](=O)[O-])c3)cs2)c(=O)n1-c1ccccc1 (cis-trans isomerization)
Cn1c(N)c(/N=c2/[n-]c(-c3cccc([N+](=O)[O-])c3)cs2)c(=O)n1-c1ccccc1 (3D coordinates assigned)
Cn1c(N)c(/N=c2/[n-]c(-c3cccc([N+](=O)[O-])c3)cs2)c(=O)n1-c1ccccc1 (optimized conformer: 132.10637475221327 kcal/mol)

>  <smiles>  (23) 
Cn1c(N)c(N=c2[nH]c(-c3cccc([N+](=O)[O-])c3)cs2)c(=O)n1-c1ccccc1

>  <score_type>  (23) 
oracle

>  <origin>  (23) 
autodockgpu

>  <m_score__min__energy>  (23) 
-8.4600000000000009

>  <m_primary>  (23) 
energy

>  <meeko>  (23) 
{"free_energy": -8.14, "intermolecular_energy": -9.93, "internal_energy": -1.32, "cluster_size": 5, "cluster_id": 3, "rank_in_cluster": 4}

>  <energy>  (23) 
-8.25

>  <cluster_rmsd>  (23) 
0.68

>  <rmsd>  (23) 
272.34

>  <cluster>  (23) 
1

$$$$
DVQUYCKLNVLYBS-CREQSCFXNA-M
     RDKit          3D

 44 47  0  0  0  0  0  0  0  0999 V2000
  139.6855   69.9818  221.3372 H   0  0  0  0  0  0  0  0  0  0  0  0
  140.0400   71.0200  221.4170 C   0  0  0  0  0  0  0  0  0  0  0  0
  140.4020   72.0390  220.1270 S   0  0  0  0  0  0  0  0  0  0  0  0
  140.8500   73.3130  221.1340 C   0  0  0  0  0  0  0  0  0  0  0  0
  141.2330   74.4940  220.7510 N   0  0  0  0  0  0  0  0  0  0  0  0
  140.8610   75.7310  221.3720 C   0  0  0  0  0  0  0  0  0  0  0  0
  139.7160   76.0230  222.1010 C   0  0  0  0  0  0  0  0  0  0  0  0
  138.6430   75.1170  222.3800 N   0  0  0  0  0  0  0  0  0  0  0  0
  138.8330   74.1470  222.7130 H   0  0  0  0  0  0  0  0  0  0  0  0
  137.6510   75.4310  222.3270 H   0  0  0  0  0  0  0  0  0  0  0  0
  139.6730   77.3560  222.3380 N   0  0  0  0  0  0  0  0  0  0  0  0
  138.6310   78.0560  223.0920 C   0  0  0  0  0  0  0  0  0  0  0  0
  138.8134   77.9335  224.1698 H   0  0  0  0  0  0  0  0  0  0  0  0
  138.6493   79.1257  222.8363 H   0  0  0  0  0  0  0  0  0  0  0  0
  137.6476   77.6346  222.8363 H   0  0  0  0  0  0  0  0  0  0  0  0
  140.7200   77.9260  221.7430 N   0  0  0  0  0  0  0  0  0  0  0  0
  140.9730   79.3380  221.6430 C   0  0  0  0  0  0  0  0  0  0  0  0
  140.7470   80.0170  220.4340 C   0  0  0  0  0  0  0  0  0  0  0  0
  140.3529   79.4708  219.5643 H   0  0  0  0  0  0  0  0  0  0  0  0
  141.0210   81.3840  220.3320 C   0  0  0  0  0  0  0  0  0  0  0  0
  140.8339   81.9124  219.3856 H   0  0  0  0  0  0  0  0  0  0  0  0
  141.5320   82.0800  221.4300 C   0  0  0  0  0  0  0  0  0  0  0  0
  141.7473   83.1556  221.3475 H   0  0  0  0  0  0  0  0  0  0  0  0
  141.7700   81.4100  222.6340 C   0  0  0  0  0  0  0  0  0  0  0  0
  142.1730   81.9586  223.4981 H   0  0  0  0  0  0  0  0  0  0  0  0
  141.4960   80.0430  222.7400 C   0  0  0  0  0  0  0  0  0  0  0  0
  141.6908   79.5172  223.6864 H   0  0  0  0  0  0  0  0  0  0  0  0
  141.4430   76.9570  221.1430 C   0  0  0  0  0  0  0  0  0  0  0  0
  142.4700   77.1610  220.4400 O   0  0  0  0  0  0  0  0  0  0  0  0
  140.7120   72.9940  222.4350 N   0  0  0  0  0  0  0  0  0  0  0  0
  140.2670   71.7190  222.6090 C   0  0  0  0  0  0  0  0  0  0  0  0
  140.0390   71.1590  223.9660 C   0  0  0  0  0  0  0  0  0  0  0  0
  139.3320   69.9510  224.1090 C   0  0  0  0  0  0  0  0  0  0  0  0
  138.9428   69.4372  223.2176 H   0  0  0  0  0  0  0  0  0  0  0  0
  139.1210   69.4000  225.3740 C   0  0  0  0  0  0  0  0  0  0  0  0
  138.5634   68.4571  225.4737 H   0  0  0  0  0  0  0  0  0  0  0  0
  139.6130   70.0380  226.5120 C   0  0  0  0  0  0  0  0  0  0  0  0
  139.4395   69.5959  227.5042 H   0  0  0  0  0  0  0  0  0  0  0  0
  140.3290   71.2420  226.4000 C   0  0  0  0  0  0  0  0  0  0  0  0
  140.8490   71.8980  227.5710 N   0  0  0  0  0  0  0  0  0  0  0  0
  140.2570   71.8060  228.6670 O   0  0  0  0  0  0  0  0  0  0  0  0
  142.0130   72.6290  227.5060 O   0  0  0  0  0  0  0  0  0  0  0  0
  140.5360   71.7950  225.1220 C   0  0  0  0  0  0  0  0  0  0  0  0
  141.0941   72.7378  225.0238 H   0  0  0  0  0  0  0  0  0  0  0  0
  1  2  1  0
  2  3  1  0
  3  4  1  0
  4  5  2  0
  5  6  1  0
  6  7  2  0
  7  8  1  0
  8  9  1  0
  8 10  1  0
  7 11  1  0
 11 12  1  0
 12 13  1  0
 12 14  1  0
 12 15  1  0
 11 16  1  0
 16 17  1  0
 17 18  2  0
 18 19  1  0
 18 20  1  0
 20 21  1  0
 20 22  2  0
 22 23  1  0
 22 24  1  0
 24 25  1  0
 24 26  2  0
 26 27  1  0
 16 28  1  0
 28 29  2  0
  4 30  1  0
 30 31  1  0
 31 32  1  0
 32 33  2  0
 33 34  1  0
 33 35  1  0
 35 36  1  0
 35 37  2  0
 37 38  1  0
 37 39  1  0
 39 40  1  0
 40 41  2  0
 40 42  1  0
 39 43  2  0
 43 44  1  0
 31  2  2  0
 43 32  1  0
 28  6  1  0
 26 17  1  0
M  CHG  3  30  -1  40   1  42  -1
M  END
>  <UniqueID>  (24) 
28

>  <SMILES>  (24) 
Cn1c(N)c(/N=c2/[n-]c(-c3cccc([N+](=O)[O-])c3)cs2)c(=O)n1-c1ccccc1

>  <Energy>  (24) 
132.10637475221327

>  <Genealogy>  (24) 
Cn1c(N)c(N=c2[n-]c(-c3cccc([N+](=O)[O-])c3)cs2)c(=O)n1-c1ccccc1 (protonated)
Cn1c(N)c(/N=c2/[n-]c(-c3cccc([N+](=O)[O-])c3)cs2)c(=O)n1-c1ccccc1 (cis-trans isomerization)
Cn1c(N)c(/N=c2/[n-]c(-c3cccc([N+](=O)[O-])c3)cs2)c(=O)n1-c1ccccc1 (3D coordinates assigned)
Cn1c(N)c(/N=c2/[n-]c(-c3cccc([N+](=O)[O-])c3)cs2)c(=O)n1-c1ccccc1 (optimized conformer: 132.10637475221327 kcal/mol)

>  <smiles>  (24) 
Cn1c(N)c(N=c2[nH]c(-c3cccc([N+](=O)[O-])c3)cs2)c(=O)n1-c1ccccc1

>  <score_type>  (24) 
oracle

>  <origin>  (24) 
autodockgpu

>  <m_score__min__energy>  (24) 
-8.4600000000000009

>  <m_primary>  (24) 
energy

>  <meeko>  (24) 
{"free_energy": -7.82, "intermolecular_energy": -9.61, "internal_energy": -1.89, "cluster_size": 13, "cluster_id": 1, "rank_in_cluster": 9}

>  <energy>  (24) 
-8.08

>  <cluster_rmsd>  (24) 
0.9

>  <rmsd>  (24) 
272.31

>  <cluster>  (24) 
1

$$$$
DVQUYCKLNVLYBS-CREQSCFXNA-M
     RDKit          3D

 44 47  0  0  0  0  0  0  0  0999 V2000
  139.0558   70.2392  221.5430 H   0  0  0  0  0  0  0  0  0  0  0  0
  139.5830   71.2030  221.6000 C   0  0  0  0  0  0  0  0  0  0  0  0
  139.9200   72.2200  220.3010 S   0  0  0  0  0  0  0  0  0  0  0  0
  140.7080   73.3530  221.2670 C   0  0  0  0  0  0  0  0  0  0  0  0
  141.2190   74.4780  220.8670 N   0  0  0  0  0  0  0  0  0  0  0  0
  140.9060   75.7710  221.4010 C   0  0  0  0  0  0  0  0  0  0  0  0
  139.8310   76.1390  222.1980 C   0  0  0  0  0  0  0  0  0  0  0  0
  138.7860   75.2740  222.6560 N   0  0  0  0  0  0  0  0  0  0  0  0
  138.9360   74.2450  222.7280 H   0  0  0  0  0  0  0  0  0  0  0  0
  137.8800   75.6620  222.9940 H   0  0  0  0  0  0  0  0  0  0  0  0
  139.8120   77.4890  222.3140 N   0  0  0  0  0  0  0  0  0  0  0  0
  138.8420   78.2660  223.0880 C   0  0  0  0  0  0  0  0  0  0  0  0
  139.0270   78.1178  224.1622 H   0  0  0  0  0  0  0  0  0  0  0  0
  138.9466   79.3329  222.8417 H   0  0  0  0  0  0  0  0  0  0  0  0
  137.8236   77.9310  222.8417 H   0  0  0  0  0  0  0  0  0  0  0  0
  140.8020   77.9920  221.5770 N   0  0  0  0  0  0  0  0  0  0  0  0
  141.0470   79.3860  221.3240 C   0  0  0  0  0  0  0  0  0  0  0  0
  141.5450   80.2160  222.3410 C   0  0  0  0  0  0  0  0  0  0  0  0
  141.7709   79.7934  223.3311 H   0  0  0  0  0  0  0  0  0  0  0  0
  141.7550   81.5770  222.1010 C   0  0  0  0  0  0  0  0  0  0  0  0
  142.1530   82.2206  222.8994 H   0  0  0  0  0  0  0  0  0  0  0  0
  141.4600   82.1210  220.8480 C   0  0  0  0  0  0  0  0  0  0  0  0
  141.6251   83.1923  220.6605 H   0  0  0  0  0  0  0  0  0  0  0  0
  140.9550   81.3030  219.8330 C   0  0  0  0  0  0  0  0  0  0  0  0
  140.7233   81.7315  218.8468 H   0  0  0  0  0  0  0  0  0  0  0  0
  140.7440   79.9420  220.0690 C   0  0  0  0  0  0  0  0  0  0  0  0
  140.3394   79.3035  219.2699 H   0  0  0  0  0  0  0  0  0  0  0  0
  141.4670   76.9640  221.0070 C   0  0  0  0  0  0  0  0  0  0  0  0
  142.4270   77.0920  220.2000 O   0  0  0  0  0  0  0  0  0  0  0  0
  140.7060   72.9910  222.5650 N   0  0  0  0  0  0  0  0  0  0  0  0
  140.0880   71.7930  222.7650 C   0  0  0  0  0  0  0  0  0  0  0  0
  139.9680   71.2050  224.1240 C   0  0  0  0  0  0  0  0  0  0  0  0
  139.1530   70.0760  224.3220 C   0  0  0  0  0  0  0  0  0  0  0  0
  138.6025   69.6450  223.4728 H   0  0  0  0  0  0  0  0  0  0  0  0
  139.0370   69.4980  225.5870 C   0  0  0  0  0  0  0  0  0  0  0  0
  138.3923   68.6182  225.7295 H   0  0  0  0  0  0  0  0  0  0  0  0
  139.7340   70.0300  226.6710 C   0  0  0  0  0  0  0  0  0  0  0  0
  139.6355   69.5674  227.6641 H   0  0  0  0  0  0  0  0  0  0  0  0
  140.5620   71.1540  226.5030 C   0  0  0  0  0  0  0  0  0  0  0  0
  141.2920   71.6990  227.6160 N   0  0  0  0  0  0  0  0  0  0  0  0
  141.4690   71.0260  228.6530 O   0  0  0  0  0  0  0  0  0  0  0  0
  141.8200   72.9690  227.5540 O   0  0  0  0  0  0  0  0  0  0  0  0
  140.6710   71.7340  225.2250 C   0  0  0  0  0  0  0  0  0  0  0  0
  141.3153   72.6143  225.0834 H   0  0  0  0  0  0  0  0  0  0  0  0
  1  2  1  0
  2  3  1  0
  3  4  1  0
  4  5  2  0
  5  6  1  0
  6  7  2  0
  7  8  1  0
  8  9  1  0
  8 10  1  0
  7 11  1  0
 11 12  1  0
 12 13  1  0
 12 14  1  0
 12 15  1  0
 11 16  1  0
 16 17  1  0
 17 18  2  0
 18 19  1  0
 18 20  1  0
 20 21  1  0
 20 22  2  0
 22 23  1  0
 22 24  1  0
 24 25  1  0
 24 26  2  0
 26 27  1  0
 16 28  1  0
 28 29  2  0
  4 30  1  0
 30 31  1  0
 31 32  1  0
 32 33  2  0
 33 34  1  0
 33 35  1  0
 35 36  1  0
 35 37  2  0
 37 38  1  0
 37 39  1  0
 39 40  1  0
 40 41  2  0
 40 42  1  0
 39 43  2  0
 43 44  1  0
 31  2  2  0
 43 32  1  0
 28  6  1  0
 26 17  1  0
M  CHG  3  30  -1  40   1  42  -1
M  END
>  <UniqueID>  (25) 
28

>  <SMILES>  (25) 
Cn1c(N)c(/N=c2/[n-]c(-c3cccc([N+](=O)[O-])c3)cs2)c(=O)n1-c1ccccc1

>  <Energy>  (25) 
132.10637475221327

>  <Genealogy>  (25) 
Cn1c(N)c(N=c2[n-]c(-c3cccc([N+](=O)[O-])c3)cs2)c(=O)n1-c1ccccc1 (protonated)
Cn1c(N)c(/N=c2/[n-]c(-c3cccc([N+](=O)[O-])c3)cs2)c(=O)n1-c1ccccc1 (cis-trans isomerization)
Cn1c(N)c(/N=c2/[n-]c(-c3cccc([N+](=O)[O-])c3)cs2)c(=O)n1-c1ccccc1 (3D coordinates assigned)
Cn1c(N)c(/N=c2/[n-]c(-c3cccc([N+](=O)[O-])c3)cs2)c(=O)n1-c1ccccc1 (optimized conformer: 132.10637475221327 kcal/mol)

>  <smiles>  (25) 
Cn1c(N)c(N=c2[nH]c(-c3cccc([N+](=O)[O-])c3)cs2)c(=O)n1-c1ccccc1

>  <score_type>  (25) 
oracle

>  <origin>  (25) 
autodockgpu

>  <m_score__min__energy>  (25) 
-8.4600000000000009

>  <m_primary>  (25) 
energy

>  <meeko>  (25) 
{"free_energy": -7.77, "intermolecular_energy": -9.56, "internal_energy": -1.93, "cluster_size": 13, "cluster_id": 1, "rank_in_cluster": 12}

>  <energy>  (25) 
-8.05

>  <cluster_rmsd>  (25) 
0.7

>  <rmsd>  (25) 
272.27

>  <cluster>  (25) 
1

$$$$
DVQUYCKLNVLYBS-CREQSCFXNA-M
     RDKit          3D

 44 47  0  0  0  0  0  0  0  0999 V2000
  138.8885   69.2962  223.0304 H   0  0  0  0  0  0  0  0  0  0  0  0
  139.1360   70.3420  222.7960 C   0  0  0  0  0  0  0  0  0  0  0  0
  138.7920   71.1360  221.3520 S   0  0  0  0  0  0  0  0  0  0  0  0
  139.5060   72.5750  221.8600 C   0  0  0  0  0  0  0  0  0  0  0  0
  139.5620   73.6830  221.1840 N   0  0  0  0  0  0  0  0  0  0  0  0
  139.5440   75.0010  221.7460 C   0  0  0  0  0  0  0  0  0  0  0  0
  138.4490   75.8070  222.0260 C   0  0  0  0  0  0  0  0  0  0  0  0
  137.0770   75.4720  221.7960 N   0  0  0  0  0  0  0  0  0  0  0  0
  136.8150   74.5760  221.3320 H   0  0  0  0  0  0  0  0  0  0  0  0
  136.3100   76.0810  222.1530 H   0  0  0  0  0  0  0  0  0  0  0  0
  138.8880   77.0430  222.3640 N   0  0  0  0  0  0  0  0  0  0  0  0
  138.0410   78.1750  222.7460 C   0  0  0  0  0  0  0  0  0  0  0  0
  137.9910   78.2418  223.8428 H   0  0  0  0  0  0  0  0  0  0  0  0
  138.4670   79.1048  222.3411 H   0  0  0  0  0  0  0  0  0  0  0  0
  137.0288   78.0286  222.3411 H   0  0  0  0  0  0  0  0  0  0  0  0
  140.2170   77.0650  222.2580 N   0  0  0  0  0  0  0  0  0  0  0  0
  141.0600   78.2210  222.4020 C   0  0  0  0  0  0  0  0  0  0  0  0
  141.5230   78.6100  223.6700 C   0  0  0  0  0  0  0  0  0  0  0  0
  141.2587   78.0140  224.5559 H   0  0  0  0  0  0  0  0  0  0  0  0
  142.3180   79.7510  223.8110 C   0  0  0  0  0  0  0  0  0  0  0  0
  142.6833   80.0468  224.8055 H   0  0  0  0  0  0  0  0  0  0  0  0
  142.6490   80.5160  222.6900 C   0  0  0  0  0  0  0  0  0  0  0  0
  143.2762   81.4127  222.8023 H   0  0  0  0  0  0  0  0  0  0  0  0
  142.1840   80.1430  221.4260 C   0  0  0  0  0  0  0  0  0  0  0  0
  142.4442   80.7472  220.5444 H   0  0  0  0  0  0  0  0  0  0  0  0
  141.3880   79.0020  221.2810 C   0  0  0  0  0  0  0  0  0  0  0  0
  141.0175   78.7151  220.2858 H   0  0  0  0  0  0  0  0  0  0  0  0
  140.6280   75.8390  221.8730 C   0  0  0  0  0  0  0  0  0  0  0  0
  141.8260   75.5320  221.6230 O   0  0  0  0  0  0  0  0  0  0  0  0
  139.9850   72.4790  223.1150 N   0  0  0  0  0  0  0  0  0  0  0  0
  139.7910   71.2400  223.6480 C   0  0  0  0  0  0  0  0  0  0  0  0
  140.2390   70.9140  225.0260 C   0  0  0  0  0  0  0  0  0  0  0  0
  140.9040   71.8910  225.7900 C   0  0  0  0  0  0  0  0  0  0  0  0
  141.0981   72.8834  225.3570 H   0  0  0  0  0  0  0  0  0  0  0  0
  141.3190   71.6110  227.0920 C   0  0  0  0  0  0  0  0  0  0  0  0
  141.8410   72.3823  227.6773 H   0  0  0  0  0  0  0  0  0  0  0  0
  141.0760   70.3590  227.6560 C   0  0  0  0  0  0  0  0  0  0  0  0
  141.4087   70.1478  228.6830 H   0  0  0  0  0  0  0  0  0  0  0  0
  140.4080   69.3650  226.9190 C   0  0  0  0  0  0  0  0  0  0  0  0
  140.1440   68.0750  227.5010 N   0  0  0  0  0  0  0  0  0  0  0  0
  139.5330   67.1980  226.8550 O   0  0  0  0  0  0  0  0  0  0  0  0
  140.5700   67.7800  228.7760 O   0  0  0  0  0  0  0  0  0  0  0  0
  139.9950   69.6520  225.6050 C   0  0  0  0  0  0  0  0  0  0  0  0
  139.4736   68.8797  225.0204 H   0  0  0  0  0  0  0  0  0  0  0  0
  1  2  1  0
  2  3  1  0
  3  4  1  0
  4  5  2  0
  5  6  1  0
  6  7  2  0
  7  8  1  0
  8  9  1  0
  8 10  1  0
  7 11  1  0
 11 12  1  0
 12 13  1  0
 12 14  1  0
 12 15  1  0
 11 16  1  0
 16 17  1  0
 17 18  2  0
 18 19  1  0
 18 20  1  0
 20 21  1  0
 20 22  2  0
 22 23  1  0
 22 24  1  0
 24 25  1  0
 24 26  2  0
 26 27  1  0
 16 28  1  0
 28 29  2  0
  4 30  1  0
 30 31  1  0
 31 32  1  0
 32 33  2  0
 33 34  1  0
 33 35  1  0
 35 36  1  0
 35 37  2  0
 37 38  1  0
 37 39  1  0
 39 40  1  0
 40 41  2  0
 40 42  1  0
 39 43  2  0
 43 44  1  0
 31  2  2  0
 43 32  1  0
 28  6  1  0
 26 17  1  0
M  CHG  3  30  -1  40   1  42  -1
M  END
>  <UniqueID>  (26) 
28

>  <SMILES>  (26) 
Cn1c(N)c(/N=c2/[n-]c(-c3cccc([N+](=O)[O-])c3)cs2)c(=O)n1-c1ccccc1

>  <Energy>  (26) 
132.10637475221327

>  <Genealogy>  (26) 
Cn1c(N)c(N=c2[n-]c(-c3cccc([N+](=O)[O-])c3)cs2)c(=O)n1-c1ccccc1 (protonated)
Cn1c(N)c(/N=c2/[n-]c(-c3cccc([N+](=O)[O-])c3)cs2)c(=O)n1-c1ccccc1 (cis-trans isomerization)
Cn1c(N)c(/N=c2/[n-]c(-c3cccc([N+](=O)[O-])c3)cs2)c(=O)n1-c1ccccc1 (3D coordinates assigned)
Cn1c(N)c(/N=c2/[n-]c(-c3cccc([N+](=O)[O-])c3)cs2)c(=O)n1-c1ccccc1 (optimized conformer: 132.10637475221327 kcal/mol)

>  <smiles>  (26) 
Cn1c(N)c(N=c2[nH]c(-c3cccc([N+](=O)[O-])c3)cs2)c(=O)n1-c1ccccc1

>  <score_type>  (26) 
oracle

>  <origin>  (26) 
autodockgpu

>  <m_score__min__energy>  (26) 
-8.4600000000000009

>  <m_primary>  (26) 
energy

>  <meeko>  (26) 
{"free_energy": -8.25, "intermolecular_energy": -10.04, "internal_energy": -1.33, "cluster_size": 13, "cluster_id": 1, "rank_in_cluster": 3}

>  <energy>  (26) 
-7.83

>  <cluster_rmsd>  (26) 
1.72

>  <rmsd>  (26) 
272.27

>  <cluster>  (26) 
1

$$$$
DVQUYCKLNVLYBS-CREQSCFXNA-M
     RDKit          3D

 44 47  0  0  0  0  0  0  0  0999 V2000
  142.6265   75.7096  221.1062 H   0  0  0  0  0  0  0  0  0  0  0  0
  141.7100   75.1290  221.2880 C   0  0  0  0  0  0  0  0  0  0  0  0
  141.4860   73.5010  220.9210 S   0  0  0  0  0  0  0  0  0  0  0  0
  139.8990   73.4920  221.4870 C   0  0  0  0  0  0  0  0  0  0  0  0
  139.1050   72.4650  221.5250 N   0  0  0  0  0  0  0  0  0  0  0  0
  138.9660   71.5620  222.6290 C   0  0  0  0  0  0  0  0  0  0  0  0
  137.8290   70.8940  223.0620 C   0  0  0  0  0  0  0  0  0  0  0  0
  136.5260   70.9820  222.4750 N   0  0  0  0  0  0  0  0  0  0  0  0
  136.3290   71.6600  221.7080 H   0  0  0  0  0  0  0  0  0  0  0  0
  135.7690   70.3210  222.7510 H   0  0  0  0  0  0  0  0  0  0  0  0
  138.0940   70.3000  224.2500 N   0  0  0  0  0  0  0  0  0  0  0  0
  137.1560   69.4840  225.0250 C   0  0  0  0  0  0  0  0  0  0  0  0
  137.3352   69.6399  226.0991 H   0  0  0  0  0  0  0  0  0  0  0  0
  136.1248   69.7773  224.7789 H   0  0  0  0  0  0  0  0  0  0  0  0
  137.3038   68.4221  224.7789 H   0  0  0  0  0  0  0  0  0  0  0  0
  139.3390   70.6090  224.6110 N   0  0  0  0  0  0  0  0  0  0  0  0
  139.9630   70.2870  225.8660 C   0  0  0  0  0  0  0  0  0  0  0  0
  140.1420   68.9470  226.2470 C   0  0  0  0  0  0  0  0  0  0  0  0
  139.8243   68.1387  225.5719 H   0  0  0  0  0  0  0  0  0  0  0  0
  140.7220   68.6360  227.4800 C   0  0  0  0  0  0  0  0  0  0  0  0
  140.8669   67.5848  227.7698 H   0  0  0  0  0  0  0  0  0  0  0  0
  141.1180   69.6600  228.3450 C   0  0  0  0  0  0  0  0  0  0  0  0
  141.5747   69.4143  229.3151 H   0  0  0  0  0  0  0  0  0  0  0  0
  140.9340   70.9960  227.9780 C   0  0  0  0  0  0  0  0  0  0  0  0
  141.2457   71.8011  228.6596 H   0  0  0  0  0  0  0  0  0  0  0  0
  140.3540   71.3100  226.7450 C   0  0  0  0  0  0  0  0  0  0  0  0
  140.2034   72.3624  226.4625 H   0  0  0  0  0  0  0  0  0  0  0  0
  139.8760   71.3840  223.6450 C   0  0  0  0  0  0  0  0  0  0  0  0
  141.0260   71.9010  223.6990 O   0  0  0  0  0  0  0  0  0  0  0  0
  139.5350   74.6950  221.9720 N   0  0  0  0  0  0  0  0  0  0  0  0
  140.5310   75.6180  221.8640 C   0  0  0  0  0  0  0  0  0  0  0  0
  140.3460   77.0120  222.3420 C   0  0  0  0  0  0  0  0  0  0  0  0
  139.0620   77.4580  222.7050 C   0  0  0  0  0  0  0  0  0  0  0  0
  138.2033   76.7756  222.6208 H   0  0  0  0  0  0  0  0  0  0  0  0
  138.8690   78.7590  223.1710 C   0  0  0  0  0  0  0  0  0  0  0  0
  137.8593   79.0966  223.4477 H   0  0  0  0  0  0  0  0  0  0  0  0
  139.9490   79.6340  223.2880 C   0  0  0  0  0  0  0  0  0  0  0  0
  139.7861   80.6580  223.6552 H   0  0  0  0  0  0  0  0  0  0  0  0
  141.2450   79.2140  222.9390 C   0  0  0  0  0  0  0  0  0  0  0  0
  142.3650   80.1090  223.0690 N   0  0  0  0  0  0  0  0  0  0  0  0
  142.9690   80.5250  222.0580 O   0  0  0  0  0  0  0  0  0  0  0  0
  142.7840   80.5320  224.3100 O   0  0  0  0  0  0  0  0  0  0  0  0
  141.4330   77.9020  222.4660 C   0  0  0  0  0  0  0  0  0  0  0  0
  142.4429   77.5656  222.1888 H   0  0  0  0  0  0  0  0  0  0  0  0
  1  2  1  0
  2  3  1  0
  3  4  1  0
  4  5  2  0
  5  6  1  0
  6  7  2  0
  7  8  1  0
  8  9  1  0
  8 10  1  0
  7 11  1  0
 11 12  1  0
 12 13  1  0
 12 14  1  0
 12 15  1  0
 11 16  1  0
 16 17  1  0
 17 18  2  0
 18 19  1  0
 18 20  1  0
 20 21  1  0
 20 22  2  0
 22 23  1  0
 22 24  1  0
 24 25  1  0
 24 26  2  0
 26 27  1  0
 16 28  1  0
 28 29  2  0
  4 30  1  0
 30 31  1  0
 31 32  1  0
 32 33  2  0
 33 34  1  0
 33 35  1  0
 35 36  1  0
 35 37  2  0
 37 38  1  0
 37 39  1  0
 39 40  1  0
 40 41  2  0
 40 42  1  0
 39 43  2  0
 43 44  1  0
 31  2  2  0
 43 32  1  0
 28  6  1  0
 26 17  1  0
M  CHG  3  30  -1  40   1  42  -1
M  END
>  <UniqueID>  (27) 
28

>  <SMILES>  (27) 
Cn1c(N)c(/N=c2/[n-]c(-c3cccc([N+](=O)[O-])c3)cs2)c(=O)n1-c1ccccc1

>  <Energy>  (27) 
132.10637475221327

>  <Genealogy>  (27) 
Cn1c(N)c(N=c2[n-]c(-c3cccc([N+](=O)[O-])c3)cs2)c(=O)n1-c1ccccc1 (protonated)
Cn1c(N)c(/N=c2/[n-]c(-c3cccc([N+](=O)[O-])c3)cs2)c(=O)n1-c1ccccc1 (cis-trans isomerization)
Cn1c(N)c(/N=c2/[n-]c(-c3cccc([N+](=O)[O-])c3)cs2)c(=O)n1-c1ccccc1 (3D coordinates assigned)
Cn1c(N)c(/N=c2/[n-]c(-c3cccc([N+](=O)[O-])c3)cs2)c(=O)n1-c1ccccc1 (optimized conformer: 132.10637475221327 kcal/mol)

>  <smiles>  (27) 
Cn1c(N)c(N=c2[nH]c(-c3cccc([N+](=O)[O-])c3)cs2)c(=O)n1-c1ccccc1

>  <score_type>  (27) 
oracle

>  <origin>  (27) 
autodockgpu

>  <m_score__min__energy>  (27) 
-8.4600000000000009

>  <m_primary>  (27) 
energy

>  <meeko>  (27) 
{"free_energy": -7.98, "intermolecular_energy": -9.77, "internal_energy": -1.35, "cluster_size": 5, "cluster_id": 3, "rank_in_cluster": 5}

>  <energy>  (27) 
-7.83

>  <cluster_rmsd>  (27) 
1.18

>  <rmsd>  (27) 
271.91

>  <cluster>  (27) 
1

$$$$
DVQUYCKLNVLYBS-CREQSCFXNA-M
     RDKit          3D

 44 47  0  0  0  0  0  0  0  0999 V2000
  140.6234   69.5760  222.0907 H   0  0  0  0  0  0  0  0  0  0  0  0
  140.3230   70.6340  222.0690 C   0  0  0  0  0  0  0  0  0  0  0  0
  139.9460   71.5230  220.6900 S   0  0  0  0  0  0  0  0  0  0  0  0
  139.6500   72.9330  221.5620 C   0  0  0  0  0  0  0  0  0  0  0  0
  139.2590   74.0700  221.0700 N   0  0  0  0  0  0  0  0  0  0  0  0
  139.3550   75.3390  221.7310 C   0  0  0  0  0  0  0  0  0  0  0  0
  138.3300   76.1750  222.1500 C   0  0  0  0  0  0  0  0  0  0  0  0
  136.9280   75.9300  221.9980 N   0  0  0  0  0  0  0  0  0  0  0  0
  136.5790   75.0070  221.6630 H   0  0  0  0  0  0  0  0  0  0  0  0
  136.2260   76.6440  222.2870 H   0  0  0  0  0  0  0  0  0  0  0  0
  138.8620   77.3560  222.5480 N   0  0  0  0  0  0  0  0  0  0  0  0
  138.1090   78.4960  223.0760 C   0  0  0  0  0  0  0  0  0  0  0  0
  138.1265   78.4694  224.1755 H   0  0  0  0  0  0  0  0  0  0  0  0
  138.5669   79.4324  222.7245 H   0  0  0  0  0  0  0  0  0  0  0  0
  137.0680   78.4423  222.7245 H   0  0  0  0  0  0  0  0  0  0  0  0
  140.1790   77.3180  222.3470 N   0  0  0  0  0  0  0  0  0  0  0  0
  141.0940   78.4140  222.5160 C   0  0  0  0  0  0  0  0  0  0  0  0
  141.6590   78.6810  223.7740 C   0  0  0  0  0  0  0  0  0  0  0  0
  141.4175   78.0353  224.6312 H   0  0  0  0  0  0  0  0  0  0  0  0
  142.5270   79.7640  223.9410 C   0  0  0  0  0  0  0  0  0  0  0  0
  142.9736   79.9630  224.9263 H   0  0  0  0  0  0  0  0  0  0  0  0
  142.8280   80.5940  222.8580 C   0  0  0  0  0  0  0  0  0  0  0  0
  143.5111   81.4458  222.9912 H   0  0  0  0  0  0  0  0  0  0  0  0
  142.2610   80.3420  221.6050 C   0  0  0  0  0  0  0  0  0  0  0  0
  142.4974   80.9965  220.7531 H   0  0  0  0  0  0  0  0  0  0  0  0
  141.3940   79.2590  221.4340 C   0  0  0  0  0  0  0  0  0  0  0  0
  140.9447   79.0674  220.4484 H   0  0  0  0  0  0  0  0  0  0  0  0
  140.4920   76.1070  221.8400 C   0  0  0  0  0  0  0  0  0  0  0  0
  141.6500   75.7590  221.4800 O   0  0  0  0  0  0  0  0  0  0  0  0
  139.8090   72.7440  222.8860 N   0  0  0  0  0  0  0  0  0  0  0  0
  140.1890   71.4710  223.1840 C   0  0  0  0  0  0  0  0  0  0  0  0
  140.4180   71.0410  224.5870 C   0  0  0  0  0  0  0  0  0  0  0  0
  141.0650   71.9110  225.4830 C   0  0  0  0  0  0  0  0  0  0  0  0
  141.4068   72.8969  225.1349 H   0  0  0  0  0  0  0  0  0  0  0  0
  141.2770   71.5340  226.8100 C   0  0  0  0  0  0  0  0  0  0  0  0
  141.7886   72.2217  227.4995 H   0  0  0  0  0  0  0  0  0  0  0  0
  140.8430   70.2890  227.2660 C   0  0  0  0  0  0  0  0  0  0  0  0
  141.0153   70.0004  228.3134 H   0  0  0  0  0  0  0  0  0  0  0  0
  140.1870   69.4010  226.3960 C   0  0  0  0  0  0  0  0  0  0  0  0
  139.7270   68.1210  226.8650 N   0  0  0  0  0  0  0  0  0  0  0  0
  139.1980   67.3070  226.0790 O   0  0  0  0  0  0  0  0  0  0  0  0
  139.8710   67.7660  228.1870 O   0  0  0  0  0  0  0  0  0  0  0  0
  139.9800   69.7870  225.0580 C   0  0  0  0  0  0  0  0  0  0  0  0
  139.4682   69.0988  224.3692 H   0  0  0  0  0  0  0  0  0  0  0  0
  1  2  1  0
  2  3  1  0
  3  4  1  0
  4  5  2  0
  5  6  1  0
  6  7  2  0
  7  8  1  0
  8  9  1  0
  8 10  1  0
  7 11  1  0
 11 12  1  0
 12 13  1  0
 12 14  1  0
 12 15  1  0
 11 16  1  0
 16 17  1  0
 17 18  2  0
 18 19  1  0
 18 20  1  0
 20 21  1  0
 20 22  2  0
 22 23  1  0
 22 24  1  0
 24 25  1  0
 24 26  2  0
 26 27  1  0
 16 28  1  0
 28 29  2  0
  4 30  1  0
 30 31  1  0
 31 32  1  0
 32 33  2  0
 33 34  1  0
 33 35  1  0
 35 36  1  0
 35 37  2  0
 37 38  1  0
 37 39  1  0
 39 40  1  0
 40 41  2  0
 40 42  1  0
 39 43  2  0
 43 44  1  0
 31  2  2  0
 43 32  1  0
 28  6  1  0
 26 17  1  0
M  CHG  3  30  -1  40   1  42  -1
M  END
>  <UniqueID>  (28) 
28

>  <SMILES>  (28) 
Cn1c(N)c(/N=c2/[n-]c(-c3cccc([N+](=O)[O-])c3)cs2)c(=O)n1-c1ccccc1

>  <Energy>  (28) 
132.10637475221327

>  <Genealogy>  (28) 
Cn1c(N)c(N=c2[n-]c(-c3cccc([N+](=O)[O-])c3)cs2)c(=O)n1-c1ccccc1 (protonated)
Cn1c(N)c(/N=c2/[n-]c(-c3cccc([N+](=O)[O-])c3)cs2)c(=O)n1-c1ccccc1 (cis-trans isomerization)
Cn1c(N)c(/N=c2/[n-]c(-c3cccc([N+](=O)[O-])c3)cs2)c(=O)n1-c1ccccc1 (3D coordinates assigned)
Cn1c(N)c(/N=c2/[n-]c(-c3cccc([N+](=O)[O-])c3)cs2)c(=O)n1-c1ccccc1 (optimized conformer: 132.10637475221327 kcal/mol)

>  <smiles>  (28) 
Cn1c(N)c(N=c2[nH]c(-c3cccc([N+](=O)[O-])c3)cs2)c(=O)n1-c1ccccc1

>  <score_type>  (28) 
oracle

>  <origin>  (28) 
autodockgpu

>  <m_score__min__energy>  (28) 
-8.4600000000000009

>  <m_primary>  (28) 
energy

>  <meeko>  (28) 
{"free_energy": -8.05, "intermolecular_energy": -9.84, "internal_energy": -1.33, "cluster_size": 13, "cluster_id": 1, "rank_in_cluster": 5}

>  <energy>  (28) 
-7.82

>  <cluster_rmsd>  (28) 
1.73

>  <rmsd>  (28) 
272.26

>  <cluster>  (28) 
1

$$$$
DVQUYCKLNVLYBS-CREQSCFXNA-M
     RDKit          3D

 44 47  0  0  0  0  0  0  0  0999 V2000
  139.1073   70.4348  221.3393 H   0  0  0  0  0  0  0  0  0  0  0  0
  139.6770   71.3710  221.4340 C   0  0  0  0  0  0  0  0  0  0  0  0
  139.9640   72.4790  220.2000 S   0  0  0  0  0  0  0  0  0  0  0  0
  140.8660   73.4990  221.1920 C   0  0  0  0  0  0  0  0  0  0  0  0
  141.3960   74.6330  220.8460 N   0  0  0  0  0  0  0  0  0  0  0  0
  141.0370   75.9150  221.3780 C   0  0  0  0  0  0  0  0  0  0  0  0
  139.9670   76.2420  222.1980 C   0  0  0  0  0  0  0  0  0  0  0  0
  138.9730   75.3340  222.6870 N   0  0  0  0  0  0  0  0  0  0  0  0
  139.1600   74.3090  222.7340 H   0  0  0  0  0  0  0  0  0  0  0  0
  138.0720   75.6850  223.0750 H   0  0  0  0  0  0  0  0  0  0  0  0
  139.8880   77.5900  222.3030 N   0  0  0  0  0  0  0  0  0  0  0  0
  138.9030   78.3290  223.0950 C   0  0  0  0  0  0  0  0  0  0  0  0
  139.1051   78.1774  224.1656 H   0  0  0  0  0  0  0  0  0  0  0  0
  138.9709   79.4008  222.8572 H   0  0  0  0  0  0  0  0  0  0  0  0
  137.8929   77.9640  222.8572 H   0  0  0  0  0  0  0  0  0  0  0  0
  140.8370   78.1310  221.5390 N   0  0  0  0  0  0  0  0  0  0  0  0
  141.0120   79.5320  221.2690 C   0  0  0  0  0  0  0  0  0  0  0  0
  140.7810   80.0420  219.9810 C   0  0  0  0  0  0  0  0  0  0  0  0
  140.4420   79.3701  219.1787 H   0  0  0  0  0  0  0  0  0  0  0  0
  140.9800   81.4000  219.7140 C   0  0  0  0  0  0  0  0  0  0  0  0
  140.7908   81.7954  218.7051 H   0  0  0  0  0  0  0  0  0  0  0  0
  141.4190   82.2550  220.7280 C   0  0  0  0  0  0  0  0  0  0  0  0
  141.5736   83.3235  220.5172 H   0  0  0  0  0  0  0  0  0  0  0  0
  141.6620   81.7540  222.0100 C   0  0  0  0  0  0  0  0  0  0  0  0
  142.0093   82.4281  222.8069 H   0  0  0  0  0  0  0  0  0  0  0  0
  141.4640   80.3970  222.2800 C   0  0  0  0  0  0  0  0  0  0  0  0
  141.6628   80.0045  223.2882 H   0  0  0  0  0  0  0  0  0  0  0  0
  141.5340   77.1290  220.9610 C   0  0  0  0  0  0  0  0  0  0  0  0
  142.4670   77.2930  220.1300 O   0  0  0  0  0  0  0  0  0  0  0  0
  140.9400   73.0300  222.4530 N   0  0  0  0  0  0  0  0  0  0  0  0
  140.2880   71.8450  222.6030 C   0  0  0  0  0  0  0  0  0  0  0  0
  140.2380   71.1500  223.9150 C   0  0  0  0  0  0  0  0  0  0  0  0
  140.6210   71.8400  225.0800 C   0  0  0  0  0  0  0  0  0  0  0  0
  140.9648   72.8824  225.0088 H   0  0  0  0  0  0  0  0  0  0  0  0
  140.5680   71.2120  226.3250 C   0  0  0  0  0  0  0  0  0  0  0  0
  140.8747   71.7605  227.2278 H   0  0  0  0  0  0  0  0  0  0  0  0
  140.1280   69.8920  226.4310 C   0  0  0  0  0  0  0  0  0  0  0  0
  140.0900   69.4058  227.4170 H   0  0  0  0  0  0  0  0  0  0  0  0
  139.7330   69.1800  225.2850 C   0  0  0  0  0  0  0  0  0  0  0  0
  139.2680   67.8220  225.3900 N   0  0  0  0  0  0  0  0  0  0  0  0
  138.8980   67.3590  226.4900 O   0  0  0  0  0  0  0  0  0  0  0  0
  139.2110   67.0120  224.2790 O   0  0  0  0  0  0  0  0  0  0  0  0
  139.7920   69.8180  224.0310 C   0  0  0  0  0  0  0  0  0  0  0  0
  139.4855   69.2687  223.1286 H   0  0  0  0  0  0  0  0  0  0  0  0
  1  2  1  0
  2  3  1  0
  3  4  1  0
  4  5  2  0
  5  6  1  0
  6  7  2  0
  7  8  1  0
  8  9  1  0
  8 10  1  0
  7 11  1  0
 11 12  1  0
 12 13  1  0
 12 14  1  0
 12 15  1  0
 11 16  1  0
 16 17  1  0
 17 18  2  0
 18 19  1  0
 18 20  1  0
 20 21  1  0
 20 22  2  0
 22 23  1  0
 22 24  1  0
 24 25  1  0
 24 26  2  0
 26 27  1  0
 16 28  1  0
 28 29  2  0
  4 30  1  0
 30 31  1  0
 31 32  1  0
 32 33  2  0
 33 34  1  0
 33 35  1  0
 35 36  1  0
 35 37  2  0
 37 38  1  0
 37 39  1  0
 39 40  1  0
 40 41  2  0
 40 42  1  0
 39 43  2  0
 43 44  1  0
 31  2  2  0
 43 32  1  0
 28  6  1  0
 26 17  1  0
M  CHG  3  30  -1  40   1  42  -1
M  END
>  <UniqueID>  (29) 
28

>  <SMILES>  (29) 
Cn1c(N)c(/N=c2/[n-]c(-c3cccc([N+](=O)[O-])c3)cs2)c(=O)n1-c1ccccc1

>  <Energy>  (29) 
132.10637475221327

>  <Genealogy>  (29) 
Cn1c(N)c(N=c2[n-]c(-c3cccc([N+](=O)[O-])c3)cs2)c(=O)n1-c1ccccc1 (protonated)
Cn1c(N)c(/N=c2/[n-]c(-c3cccc([N+](=O)[O-])c3)cs2)c(=O)n1-c1ccccc1 (cis-trans isomerization)
Cn1c(N)c(/N=c2/[n-]c(-c3cccc([N+](=O)[O-])c3)cs2)c(=O)n1-c1ccccc1 (3D coordinates assigned)
Cn1c(N)c(/N=c2/[n-]c(-c3cccc([N+](=O)[O-])c3)cs2)c(=O)n1-c1ccccc1 (optimized conformer: 132.10637475221327 kcal/mol)

>  <smiles>  (29) 
Cn1c(N)c(N=c2[nH]c(-c3cccc([N+](=O)[O-])c3)cs2)c(=O)n1-c1ccccc1

>  <score_type>  (29) 
oracle

>  <origin>  (29) 
autodockgpu

>  <m_score__min__energy>  (29) 
-8.4600000000000009

>  <m_primary>  (29) 
energy

>  <meeko>  (29) 
{"free_energy": -7.83, "intermolecular_energy": -9.62, "internal_energy": -1.92, "cluster_size": 13, "cluster_id": 1, "rank_in_cluster": 7}

>  <energy>  (29) 
-7.82

>  <cluster_rmsd>  (29) 
1.66

>  <rmsd>  (29) 
272.3

>  <cluster>  (29) 
1

$$$$
DVQUYCKLNVLYBS-CREQSCFXNA-M
     RDKit          3D

 44 47  0  0  0  0  0  0  0  0999 V2000
  139.1253   70.3986  221.3148 H   0  0  0  0  0  0  0  0  0  0  0  0
  139.6940   71.3360  221.4040 C   0  0  0  0  0  0  0  0  0  0  0  0
  139.9810   72.4360  220.1630 S   0  0  0  0  0  0  0  0  0  0  0  0
  140.8820   73.4630  221.1490 C   0  0  0  0  0  0  0  0  0  0  0  0
  141.4110   74.5960  220.7960 N   0  0  0  0  0  0  0  0  0  0  0  0
  141.0790   75.8760  221.3480 C   0  0  0  0  0  0  0  0  0  0  0  0
  140.0260   76.2090  222.1890 C   0  0  0  0  0  0  0  0  0  0  0  0
  139.0280   75.3100  222.6840 N   0  0  0  0  0  0  0  0  0  0  0  0
  139.2090   74.2840  222.7350 H   0  0  0  0  0  0  0  0  0  0  0  0
  138.1290   75.6690  223.0700 H   0  0  0  0  0  0  0  0  0  0  0  0
  139.9690   77.5570  222.3100 N   0  0  0  0  0  0  0  0  0  0  0  0
  139.0080   78.3010  223.1260 C   0  0  0  0  0  0  0  0  0  0  0  0
  139.2244   78.1335  224.1914 H   0  0  0  0  0  0  0  0  0  0  0  0
  139.0885   79.3745  222.8999 H   0  0  0  0  0  0  0  0  0  0  0  0
  137.9889   77.9541  222.8999 H   0  0  0  0  0  0  0  0  0  0  0  0
  140.9130   78.0930  221.5370 N   0  0  0  0  0  0  0  0  0  0  0  0
  141.1040   79.4940  221.2800 C   0  0  0  0  0  0  0  0  0  0  0  0
  141.5800   80.3440  222.2920 C   0  0  0  0  0  0  0  0  0  0  0  0
  141.8303   79.9318  223.2807 H   0  0  0  0  0  0  0  0  0  0  0  0
  141.7370   81.7120  222.0480 C   0  0  0  0  0  0  0  0  0  0  0  0
  142.1176   82.3715  222.8418 H   0  0  0  0  0  0  0  0  0  0  0  0
  141.4110   82.2420  220.7970 C   0  0  0  0  0  0  0  0  0  0  0  0
  141.5345   83.3184  220.6068 H   0  0  0  0  0  0  0  0  0  0  0  0
  140.9280   81.4050  219.7870 C   0  0  0  0  0  0  0  0  0  0  0  0
  140.6727   81.8233  218.8022 H   0  0  0  0  0  0  0  0  0  0  0  0
  140.7690   80.0370  220.0270 C   0  0  0  0  0  0  0  0  0  0  0  0
  140.3803   79.3829  219.2326 H   0  0  0  0  0  0  0  0  0  0  0  0
  141.5860   77.0880  220.9370 C   0  0  0  0  0  0  0  0  0  0  0  0
  142.5090   77.2480  220.0920 O   0  0  0  0  0  0  0  0  0  0  0  0
  140.9550   73.0030  222.4140 N   0  0  0  0  0  0  0  0  0  0  0  0
  140.3030   71.8180  222.5700 C   0  0  0  0  0  0  0  0  0  0  0  0
  140.2540   71.1320  223.8870 C   0  0  0  0  0  0  0  0  0  0  0  0
  140.6410   71.8280  225.0470 C   0  0  0  0  0  0  0  0  0  0  0  0
  140.9887   72.8687  224.9687 H   0  0  0  0  0  0  0  0  0  0  0  0
  140.5870   71.2080  226.2960 C   0  0  0  0  0  0  0  0  0  0  0  0
  140.8962   71.7613  227.1950 H   0  0  0  0  0  0  0  0  0  0  0  0
  140.1430   69.8900  226.4110 C   0  0  0  0  0  0  0  0  0  0  0  0
  140.1050   69.4101  227.4001 H   0  0  0  0  0  0  0  0  0  0  0  0
  139.7440   69.1720  225.2700 C   0  0  0  0  0  0  0  0  0  0  0  0
  139.2740   67.8170  225.3850 N   0  0  0  0  0  0  0  0  0  0  0  0
  138.8870   67.3680  226.4850 O   0  0  0  0  0  0  0  0  0  0  0  0
  139.2330   66.9940  224.2830 O   0  0  0  0  0  0  0  0  0  0  0  0
  139.8040   69.8020  224.0120 C   0  0  0  0  0  0  0  0  0  0  0  0
  139.4951   69.2479  223.1134 H   0  0  0  0  0  0  0  0  0  0  0  0
  1  2  1  0
  2  3  1  0
  3  4  1  0
  4  5  2  0
  5  6  1  0
  6  7  2  0
  7  8  1  0
  8  9  1  0
  8 10  1  0
  7 11  1  0
 11 12  1  0
 12 13  1  0
 12 14  1  0
 12 15  1  0
 11 16  1  0
 16 17  1  0
 17 18  2  0
 18 19  1  0
 18 20  1  0
 20 21  1  0
 20 22  2  0
 22 23  1  0
 22 24  1  0
 24 25  1  0
 24 26  2  0
 26 27  1  0
 16 28  1  0
 28 29  2  0
  4 30  1  0
 30 31  1  0
 31 32  1  0
 32 33  2  0
 33 34  1  0
 33 35  1  0
 35 36  1  0
 35 37  2  0
 37 38  1  0
 37 39  1  0
 39 40  1  0
 40 41  2  0
 40 42  1  0
 39 43  2  0
 43 44  1  0
 31  2  2  0
 43 32  1  0
 28  6  1  0
 26 17  1  0
M  CHG  3  30  -1  40   1  42  -1
M  END
>  <UniqueID>  (30) 
28

>  <SMILES>  (30) 
Cn1c(N)c(/N=c2/[n-]c(-c3cccc([N+](=O)[O-])c3)cs2)c(=O)n1-c1ccccc1

>  <Energy>  (30) 
132.10637475221327

>  <Genealogy>  (30) 
Cn1c(N)c(N=c2[n-]c(-c3cccc([N+](=O)[O-])c3)cs2)c(=O)n1-c1ccccc1 (protonated)
Cn1c(N)c(/N=c2/[n-]c(-c3cccc([N+](=O)[O-])c3)cs2)c(=O)n1-c1ccccc1 (cis-trans isomerization)
Cn1c(N)c(/N=c2/[n-]c(-c3cccc([N+](=O)[O-])c3)cs2)c(=O)n1-c1ccccc1 (3D coordinates assigned)
Cn1c(N)c(/N=c2/[n-]c(-c3cccc([N+](=O)[O-])c3)cs2)c(=O)n1-c1ccccc1 (optimized conformer: 132.10637475221327 kcal/mol)

>  <smiles>  (30) 
Cn1c(N)c(N=c2[nH]c(-c3cccc([N+](=O)[O-])c3)cs2)c(=O)n1-c1ccccc1

>  <score_type>  (30) 
oracle

>  <origin>  (30) 
autodockgpu

>  <m_score__min__energy>  (30) 
-8.4600000000000009

>  <m_primary>  (30) 
energy

>  <meeko>  (30) 
{"free_energy": -7.79, "intermolecular_energy": -9.58, "internal_energy": -1.94, "cluster_size": 13, "cluster_id": 1, "rank_in_cluster": 10}

>  <energy>  (30) 
-7.79

>  <cluster_rmsd>  (30) 
1.18

>  <rmsd>  (30) 
271.92

>  <cluster>  (30) 
1

$$$$
DVQUYCKLNVLYBS-CREQSCFXNA-M
     RDKit          3D

 44 47  0  0  0  0  0  0  0  0999 V2000
  140.6096   69.7056  222.0012 H   0  0  0  0  0  0  0  0  0  0  0  0
  140.3000   70.7600  222.0500 C   0  0  0  0  0  0  0  0  0  0  0  0
  139.9020   71.7310  220.7350 S   0  0  0  0  0  0  0  0  0  0  0  0
  139.6030   73.0810  221.6980 C   0  0  0  0  0  0  0  0  0  0  0  0
  139.1980   74.2440  221.2830 N   0  0  0  0  0  0  0  0  0  0  0  0
  140.0410   75.3720  221.0180 C   0  0  0  0  0  0  0  0  0  0  0  0
  141.1410   75.4510  220.1760 C   0  0  0  0  0  0  0  0  0  0  0  0
  141.6710   74.3840  219.3810 N   0  0  0  0  0  0  0  0  0  0  0  0
  142.5090   74.5300  218.7790 H   0  0  0  0  0  0  0  0  0  0  0  0
  141.2740   73.4220  219.4450 H   0  0  0  0  0  0  0  0  0  0  0  0
  141.7610   76.6400  220.3710 N   0  0  0  0  0  0  0  0  0  0  0  0
  142.9510   77.1090  219.6590 C   0  0  0  0  0  0  0  0  0  0  0  0
  143.7183   77.4114  220.3868 H   0  0  0  0  0  0  0  0  0  0  0  0
  143.3437   76.2984  219.0276 H   0  0  0  0  0  0  0  0  0  0  0  0
  142.6851   77.9696  219.0276 H   0  0  0  0  0  0  0  0  0  0  0  0
  141.1260   77.2940  221.3430 N   0  0  0  0  0  0  0  0  0  0  0  0
  141.5410   78.5330  221.9430 C   0  0  0  0  0  0  0  0  0  0  0  0
  141.7280   79.6780  221.1500 C   0  0  0  0  0  0  0  0  0  0  0  0
  141.5338   79.6331  220.0682 H   0  0  0  0  0  0  0  0  0  0  0  0
  142.1600   80.8740  221.7310 C   0  0  0  0  0  0  0  0  0  0  0  0
  142.2977   81.7695  221.1072 H   0  0  0  0  0  0  0  0  0  0  0  0
  142.4170   80.9330  223.1030 C   0  0  0  0  0  0  0  0  0  0  0  0
  142.7565   81.8749  223.5586 H   0  0  0  0  0  0  0  0  0  0  0  0
  142.2430   79.7960  223.8970 C   0  0  0  0  0  0  0  0  0  0  0  0
  142.4461   79.8438  224.9770 H   0  0  0  0  0  0  0  0  0  0  0  0
  141.8110   78.5980  223.3200 C   0  0  0  0  0  0  0  0  0  0  0  0
  141.6821   77.7031  223.9466 H   0  0  0  0  0  0  0  0  0  0  0  0
  140.0890   76.5340  221.7550 C   0  0  0  0  0  0  0  0  0  0  0  0
  139.3150   76.8330  222.7040 O   0  0  0  0  0  0  0  0  0  0  0  0
  139.7770   72.8090  223.0060 N   0  0  0  0  0  0  0  0  0  0  0  0
  140.1700   71.5230  223.2180 C   0  0  0  0  0  0  0  0  0  0  0  0
  140.4150   71.0070  224.5890 C   0  0  0  0  0  0  0  0  0  0  0  0
  140.8190   71.8940  225.6030 C   0  0  0  0  0  0  0  0  0  0  0  0
  140.9619   72.9597  225.3707 H   0  0  0  0  0  0  0  0  0  0  0  0
  141.0400   71.4330  226.9010 C   0  0  0  0  0  0  0  0  0  0  0  0
  141.3596   72.1364  227.6840 H   0  0  0  0  0  0  0  0  0  0  0  0
  140.8580   70.0850  227.2120 C   0  0  0  0  0  0  0  0  0  0  0  0
  141.0347   69.7316  228.2386 H   0  0  0  0  0  0  0  0  0  0  0  0
  140.4500   69.1760  226.2200 C   0  0  0  0  0  0  0  0  0  0  0  0
  140.2500   67.7870  226.5380 N   0  0  0  0  0  0  0  0  0  0  0  0
  141.0990   67.1570  227.2040 O   0  0  0  0  0  0  0  0  0  0  0  0
  139.1150   67.1290  226.1230 O   0  0  0  0  0  0  0  0  0  0  0  0
  140.2320   69.6470  224.9110 C   0  0  0  0  0  0  0  0  0  0  0  0
  139.9141   68.9430  224.1279 H   0  0  0  0  0  0  0  0  0  0  0  0
  1  2  1  0
  2  3  1  0
  3  4  1  0
  4  5  2  0
  5  6  1  0
  6  7  2  0
  7  8  1  0
  8  9  1  0
  8 10  1  0
  7 11  1  0
 11 12  1  0
 12 13  1  0
 12 14  1  0
 12 15  1  0
 11 16  1  0
 16 17  1  0
 17 18  2  0
 18 19  1  0
 18 20  1  0
 20 21  1  0
 20 22  2  0
 22 23  1  0
 22 24  1  0
 24 25  1  0
 24 26  2  0
 26 27  1  0
 16 28  1  0
 28 29  2  0
  4 30  1  0
 30 31  1  0
 31 32  1  0
 32 33  2  0
 33 34  1  0
 33 35  1  0
 35 36  1  0
 35 37  2  0
 37 38  1  0
 37 39  1  0
 39 40  1  0
 40 41  2  0
 40 42  1  0
 39 43  2  0
 43 44  1  0
 31  2  2  0
 43 32  1  0
 28  6  1  0
 26 17  1  0
M  CHG  3  30  -1  40   1  42  -1
M  END
>  <UniqueID>  (31) 
28

>  <SMILES>  (31) 
Cn1c(N)c(/N=c2/[n-]c(-c3cccc([N+](=O)[O-])c3)cs2)c(=O)n1-c1ccccc1

>  <Energy>  (31) 
132.10637475221327

>  <Genealogy>  (31) 
Cn1c(N)c(N=c2[n-]c(-c3cccc([N+](=O)[O-])c3)cs2)c(=O)n1-c1ccccc1 (protonated)
Cn1c(N)c(/N=c2/[n-]c(-c3cccc([N+](=O)[O-])c3)cs2)c(=O)n1-c1ccccc1 (cis-trans isomerization)
Cn1c(N)c(/N=c2/[n-]c(-c3cccc([N+](=O)[O-])c3)cs2)c(=O)n1-c1ccccc1 (3D coordinates assigned)
Cn1c(N)c(/N=c2/[n-]c(-c3cccc([N+](=O)[O-])c3)cs2)c(=O)n1-c1ccccc1 (optimized conformer: 132.10637475221327 kcal/mol)

>  <smiles>  (31) 
Cn1c(N)c(N=c2[nH]c(-c3cccc([N+](=O)[O-])c3)cs2)c(=O)n1-c1ccccc1

>  <score_type>  (31) 
oracle

>  <origin>  (31) 
autodockgpu

>  <m_score__min__energy>  (31) 
-8.4600000000000009

>  <m_primary>  (31) 
energy

>  <meeko>  (31) 
{"free_energy": -8.05, "intermolecular_energy": -9.84, "internal_energy": -1.32, "cluster_size": 2, "cluster_id": 2, "rank_in_cluster": 2}

>  <energy>  (31) 
-7.77

>  <cluster_rmsd>  (31) 
1.69

>  <rmsd>  (31) 
272.34

>  <cluster>  (31) 
1

$$$$
DVQUYCKLNVLYBS-CREQSCFXNA-M
     RDKit          3D

 44 47  0  0  0  0  0  0  0  0999 V2000
  140.0000   69.8504  221.4268 H   0  0  0  0  0  0  0  0  0  0  0  0
  140.2620   70.9180  221.4680 C   0  0  0  0  0  0  0  0  0  0  0  0
  140.6050   71.9000  220.1440 S   0  0  0  0  0  0  0  0  0  0  0  0
  140.8930   73.2560  221.1010 C   0  0  0  0  0  0  0  0  0  0  0  0
  141.1960   74.4450  220.6740 N   0  0  0  0  0  0  0  0  0  0  0  0
  140.8560   75.6750  221.3280 C   0  0  0  0  0  0  0  0  0  0  0  0
  139.7240   75.9740  222.0730 C   0  0  0  0  0  0  0  0  0  0  0  0
  138.6340   75.0850  222.3420 N   0  0  0  0  0  0  0  0  0  0  0  0
  138.8030   74.1310  222.7260 H   0  0  0  0  0  0  0  0  0  0  0  0
  137.6470   75.3990  222.2280 H   0  0  0  0  0  0  0  0  0  0  0  0
  139.7120   77.3020  222.3420 N   0  0  0  0  0  0  0  0  0  0  0  0
  138.6920   78.0060  223.1210 C   0  0  0  0  0  0  0  0  0  0  0  0
  138.8907   77.8688  224.1942 H   0  0  0  0  0  0  0  0  0  0  0  0
  138.7196   79.0783  222.8771 H   0  0  0  0  0  0  0  0  0  0  0  0
  137.6992   77.5999  222.8771 H   0  0  0  0  0  0  0  0  0  0  0  0
  140.7660   77.8630  221.7500 N   0  0  0  0  0  0  0  0  0  0  0  0
  141.0490   79.2710  221.6810 C   0  0  0  0  0  0  0  0  0  0  0  0
  141.5660   79.9480  222.7970 C   0  0  0  0  0  0  0  0  0  0  0  0
  141.7777   79.3943  223.7236 H   0  0  0  0  0  0  0  0  0  0  0  0
  141.8130   81.3230  222.7360 C   0  0  0  0  0  0  0  0  0  0  0  0
  142.2259   81.8463  223.6110 H   0  0  0  0  0  0  0  0  0  0  0  0
  141.5360   82.0330  221.5650 C   0  0  0  0  0  0  0  0  0  0  0  0
  141.7307   83.1146  221.5183 H   0  0  0  0  0  0  0  0  0  0  0  0
  141.0110   81.3680  220.4520 C   0  0  0  0  0  0  0  0  0  0  0  0
  140.7931   81.9272  219.5301 H   0  0  0  0  0  0  0  0  0  0  0  0
  140.7630   79.9940  220.5100 C   0  0  0  0  0  0  0  0  0  0  0  0
  140.3422   79.4760  219.6356 H   0  0  0  0  0  0  0  0  0  0  0  0
  141.4620   76.8930  221.1210 C   0  0  0  0  0  0  0  0  0  0  0  0
  142.4870   77.0910  220.4130 O   0  0  0  0  0  0  0  0  0  0  0  0
  140.7130   72.9910  222.4100 N   0  0  0  0  0  0  0  0  0  0  0  0
  140.3670   71.6920  222.6310 C   0  0  0  0  0  0  0  0  0  0  0  0
  140.1160   71.1830  224.0030 C   0  0  0  0  0  0  0  0  0  0  0  0
  139.3800   69.9980  224.1800 C   0  0  0  0  0  0  0  0  0  0  0  0
  138.9857   69.4642  223.3027 H   0  0  0  0  0  0  0  0  0  0  0  0
  139.1460   69.4940  225.4600 C   0  0  0  0  0  0  0  0  0  0  0  0
  138.5649   68.5685  225.5852 H   0  0  0  0  0  0  0  0  0  0  0  0
  139.6440   70.1560  226.5810 C   0  0  0  0  0  0  0  0  0  0  0  0
  139.4529   69.7504  227.5855 H   0  0  0  0  0  0  0  0  0  0  0  0
  140.3890   71.3390  226.4350 C   0  0  0  0  0  0  0  0  0  0  0  0
  140.9160   72.0200  227.5880 N   0  0  0  0  0  0  0  0  0  0  0  0
  140.3070   71.9910  228.6790 O   0  0  0  0  0  0  0  0  0  0  0  0
  142.1060   72.7080  227.5140 O   0  0  0  0  0  0  0  0  0  0  0  0
  140.6190   71.8450  225.1410 C   0  0  0  0  0  0  0  0  0  0  0  0
  141.1999   72.7708  225.0166 H   0  0  0  0  0  0  0  0  0  0  0  0
  1  2  1  0
  2  3  1  0
  3  4  1  0
  4  5  2  0
  5  6  1  0
  6  7  2  0
  7  8  1  0
  8  9  1  0
  8 10  1  0
  7 11  1  0
 11 12  1  0
 12 13  1  0
 12 14  1  0
 12 15  1  0
 11 16  1  0
 16 17  1  0
 17 18  2  0
 18 19  1  0
 18 20  1  0
 20 21  1  0
 20 22  2  0
 22 23  1  0
 22 24  1  0
 24 25  1  0
 24 26  2  0
 26 27  1  0
 16 28  1  0
 28 29  2  0
  4 30  1  0
 30 31  1  0
 31 32  1  0
 32 33  2  0
 33 34  1  0
 33 35  1  0
 35 36  1  0
 35 37  2  0
 37 38  1  0
 37 39  1  0
 39 40  1  0
 40 41  2  0
 40 42  1  0
 39 43  2  0
 43 44  1  0
 31  2  2  0
 43 32  1  0
 28  6  1  0
 26 17  1  0
M  CHG  3  30  -1  40   1  42  -1
M  END
>  <UniqueID>  (32) 
28

>  <SMILES>  (32) 
Cn1c(N)c(/N=c2/[n-]c(-c3cccc([N+](=O)[O-])c3)cs2)c(=O)n1-c1ccccc1

>  <Energy>  (32) 
132.10637475221327

>  <Genealogy>  (32) 
Cn1c(N)c(N=c2[n-]c(-c3cccc([N+](=O)[O-])c3)cs2)c(=O)n1-c1ccccc1 (protonated)
Cn1c(N)c(/N=c2/[n-]c(-c3cccc([N+](=O)[O-])c3)cs2)c(=O)n1-c1ccccc1 (cis-trans isomerization)
Cn1c(N)c(/N=c2/[n-]c(-c3cccc([N+](=O)[O-])c3)cs2)c(=O)n1-c1ccccc1 (3D coordinates assigned)
Cn1c(N)c(/N=c2/[n-]c(-c3cccc([N+](=O)[O-])c3)cs2)c(=O)n1-c1ccccc1 (optimized conformer: 132.10637475221327 kcal/mol)

>  <smiles>  (32) 
Cn1c(N)c(N=c2[nH]c(-c3cccc([N+](=O)[O-])c3)cs2)c(=O)n1-c1ccccc1

>  <score_type>  (32) 
oracle

>  <origin>  (32) 
autodockgpu

>  <m_score__min__energy>  (32) 
-8.4600000000000009

>  <m_primary>  (32) 
energy

>  <meeko>  (32) 
{"free_energy": -7.77, "intermolecular_energy": -9.56, "internal_energy": -1.84, "cluster_size": 13, "cluster_id": 1, "rank_in_cluster": 11}

>  <energy>  (32) 
-7.77

>  <cluster_rmsd>  (32) 
1.68

>  <rmsd>  (32) 
272.33

>  <cluster>  (32) 
1

$$$$
DVQUYCKLNVLYBS-CREQSCFXNA-M
     RDKit          3D

 44 47  0  0  0  0  0  0  0  0999 V2000
  138.0096   71.2969  222.2907 H   0  0  0  0  0  0  0  0  0  0  0  0
  138.8940   71.9420  222.1830 C   0  0  0  0  0  0  0  0  0  0  0  0
  139.1510   73.0630  220.9550 S   0  0  0  0  0  0  0  0  0  0  0  0
  140.6570   73.5210  221.5550 C   0  0  0  0  0  0  0  0  0  0  0  0
  141.4340   74.4360  221.0580 N   0  0  0  0  0  0  0  0  0  0  0  0
  141.1490   75.8400  221.0220 C   0  0  0  0  0  0  0  0  0  0  0  0
  141.8340   76.8450  220.3540 C   0  0  0  0  0  0  0  0  0  0  0  0
  143.0020   76.6730  219.5450 N   0  0  0  0  0  0  0  0  0  0  0  0
  143.1360   75.8120  218.9730 H   0  0  0  0  0  0  0  0  0  0  0  0
  143.7080   77.4350  219.4560 H   0  0  0  0  0  0  0  0  0  0  0  0
  141.3450   78.0460  220.7460 N   0  0  0  0  0  0  0  0  0  0  0  0
  141.7930   79.3510  220.2560 C   0  0  0  0  0  0  0  0  0  0  0  0
  142.0179   80.0061  221.1106 H   0  0  0  0  0  0  0  0  0  0  0  0
  142.6983   79.2220  219.6446 H   0  0  0  0  0  0  0  0  0  0  0  0
  140.9994   79.8053  219.6446 H   0  0  0  0  0  0  0  0  0  0  0  0
  140.4120   77.8420  221.6760 N   0  0  0  0  0  0  0  0  0  0  0  0
  139.7420   78.8570  222.4430 C   0  0  0  0  0  0  0  0  0  0  0  0
  140.4780   79.8760  223.0690 C   0  0  0  0  0  0  0  0  0  0  0  0
  141.5714   79.9121  222.9540 H   0  0  0  0  0  0  0  0  0  0  0  0
  139.8260   80.8450  223.8380 C   0  0  0  0  0  0  0  0  0  0  0  0
  140.4066   81.6448  224.3209 H   0  0  0  0  0  0  0  0  0  0  0  0
  138.4380   80.7990  223.9940 C   0  0  0  0  0  0  0  0  0  0  0  0
  137.9266   81.5628  224.5982 H   0  0  0  0  0  0  0  0  0  0  0  0
  137.7000   79.7820  223.3820 C   0  0  0  0  0  0  0  0  0  0  0  0
  136.6076   79.7453  223.5062 H   0  0  0  0  0  0  0  0  0  0  0  0
  138.3480   78.8110  222.6120 C   0  0  0  0  0  0  0  0  0  0  0  0
  137.7644   78.0086  222.1371 H   0  0  0  0  0  0  0  0  0  0  0  0
  140.2910   76.5100  221.8640 C   0  0  0  0  0  0  0  0  0  0  0  0
  139.5340   75.9740  222.7190 O   0  0  0  0  0  0  0  0  0  0  0  0
  140.9680   72.8570  222.6850 N   0  0  0  0  0  0  0  0  0  0  0  0
  139.9980   71.9700  223.0450 C   0  0  0  0  0  0  0  0  0  0  0  0
  140.1320   71.1330  224.2640 C   0  0  0  0  0  0  0  0  0  0  0  0
  140.6890   71.6880  225.4300 C   0  0  0  0  0  0  0  0  0  0  0  0
  141.0314   72.7334  225.4266 H   0  0  0  0  0  0  0  0  0  0  0  0
  140.8110   70.9240  226.5910 C   0  0  0  0  0  0  0  0  0  0  0  0
  141.2533   71.3688  227.4946 H   0  0  0  0  0  0  0  0  0  0  0  0
  140.3750   69.5990  226.6120 C   0  0  0  0  0  0  0  0  0  0  0  0
  140.4748   69.0053  227.5326 H   0  0  0  0  0  0  0  0  0  0  0  0
  139.8090   69.0180  225.4640 C   0  0  0  0  0  0  0  0  0  0  0  0
  139.3480   67.6560  225.4840 N   0  0  0  0  0  0  0  0  0  0  0  0
  139.2120   67.0130  224.4210 O   0  0  0  0  0  0  0  0  0  0  0  0
  139.0570   67.0310  226.6750 O   0  0  0  0  0  0  0  0  0  0  0  0
  139.6920   69.7940  224.2950 C   0  0  0  0  0  0  0  0  0  0  0  0
  139.2502   69.3484  223.3915 H   0  0  0  0  0  0  0  0  0  0  0  0
  1  2  1  0
  2  3  1  0
  3  4  1  0
  4  5  2  0
  5  6  1  0
  6  7  2  0
  7  8  1  0
  8  9  1  0
  8 10  1  0
  7 11  1  0
 11 12  1  0
 12 13  1  0
 12 14  1  0
 12 15  1  0
 11 16  1  0
 16 17  1  0
 17 18  2  0
 18 19  1  0
 18 20  1  0
 20 21  1  0
 20 22  2  0
 22 23  1  0
 22 24  1  0
 24 25  1  0
 24 26  2  0
 26 27  1  0
 16 28  1  0
 28 29  2  0
  4 30  1  0
 30 31  1  0
 31 32  1  0
 32 33  2  0
 33 34  1  0
 33 35  1  0
 35 36  1  0
 35 37  2  0
 37 38  1  0
 37 39  1  0
 39 40  1  0
 40 41  2  0
 40 42  1  0
 39 43  2  0
 43 44  1  0
 31  2  2  0
 43 32  1  0
 28  6  1  0
 26 17  1  0
M  CHG  3  30  -1  40   1  42  -1
M  END
>  <UniqueID>  (33) 
28

>  <SMILES>  (33) 
Cn1c(N)c(/N=c2/[n-]c(-c3cccc([N+](=O)[O-])c3)cs2)c(=O)n1-c1ccccc1

>  <Energy>  (33) 
132.10637475221327

>  <Genealogy>  (33) 
Cn1c(N)c(N=c2[n-]c(-c3cccc([N+](=O)[O-])c3)cs2)c(=O)n1-c1ccccc1 (protonated)
Cn1c(N)c(/N=c2/[n-]c(-c3cccc([N+](=O)[O-])c3)cs2)c(=O)n1-c1ccccc1 (cis-trans isomerization)
Cn1c(N)c(/N=c2/[n-]c(-c3cccc([N+](=O)[O-])c3)cs2)c(=O)n1-c1ccccc1 (3D coordinates assigned)
Cn1c(N)c(/N=c2/[n-]c(-c3cccc([N+](=O)[O-])c3)cs2)c(=O)n1-c1ccccc1 (optimized conformer: 132.10637475221327 kcal/mol)

>  <smiles>  (33) 
Cn1c(N)c(N=c2[nH]c(-c3cccc([N+](=O)[O-])c3)cs2)c(=O)n1-c1ccccc1

>  <score_type>  (33) 
oracle

>  <origin>  (33) 
autodockgpu

>  <m_score__min__energy>  (33) 
-8.4600000000000009

>  <m_primary>  (33) 
energy

>  <meeko>  (33) 
{"free_energy": -8.24, "intermolecular_energy": -10.03, "internal_energy": -1.2, "cluster_size": 2, "cluster_id": 2, "rank_in_cluster": 1}

>  <energy>  (33) 
-7.77

>  <cluster_rmsd>  (33) 
1.73

>  <rmsd>  (33) 
272.27

>  <cluster>  (33) 
1

$$$$
DVQUYCKLNVLYBS-CREQSCFXNA-M
     RDKit          3D

 44 47  0  0  0  0  0  0  0  0999 V2000
  138.8822   70.3941  221.4302 H   0  0  0  0  0  0  0  0  0  0  0  0
  139.4620   71.3270  221.4890 C   0  0  0  0  0  0  0  0  0  0  0  0
  139.7540   72.3870  220.2150 S   0  0  0  0  0  0  0  0  0  0  0  0
  140.6720   73.4320  221.1660 C   0  0  0  0  0  0  0  0  0  0  0  0
  141.2110   74.5480  220.7770 N   0  0  0  0  0  0  0  0  0  0  0  0
  140.9260   75.8430  221.3200 C   0  0  0  0  0  0  0  0  0  0  0  0
  139.8940   76.2160  222.1710 C   0  0  0  0  0  0  0  0  0  0  0  0
  138.8750   75.3520  222.6870 N   0  0  0  0  0  0  0  0  0  0  0  0
  139.0220   74.3210  222.7380 H   0  0  0  0  0  0  0  0  0  0  0  0
  137.9970   75.7430  223.0890 H   0  0  0  0  0  0  0  0  0  0  0  0
  139.8800   77.5660  222.2800 N   0  0  0  0  0  0  0  0  0  0  0  0
  138.9520   78.3460  223.1010 C   0  0  0  0  0  0  0  0  0  0  0  0
  139.1648   78.1672  224.1653 H   0  0  0  0  0  0  0  0  0  0  0  0
  139.0749   79.4160  222.8773 H   0  0  0  0  0  0  0  0  0  0  0  0
  137.9191   78.0409  222.8773 H   0  0  0  0  0  0  0  0  0  0  0  0
  140.8300   78.0650  221.4900 N   0  0  0  0  0  0  0  0  0  0  0  0
  141.0610   79.4580  221.2170 C   0  0  0  0  0  0  0  0  0  0  0  0
  141.5650   80.3040  222.2180 C   0  0  0  0  0  0  0  0  0  0  0  0
  141.8067   79.8951  223.2102 H   0  0  0  0  0  0  0  0  0  0  0  0
  141.7610   81.6640  221.9590 C   0  0  0  0  0  0  0  0  0  0  0  0
  142.1637   82.3204  222.7445 H   0  0  0  0  0  0  0  0  0  0  0  0
  141.4460   82.1900  220.7040 C   0  0  0  0  0  0  0  0  0  0  0  0
  141.6009   83.2601  220.5017 H   0  0  0  0  0  0  0  0  0  0  0  0
  140.9340   81.3570  219.7050 C   0  0  0  0  0  0  0  0  0  0  0  0
  140.6858   81.7724  218.7172 H   0  0  0  0  0  0  0  0  0  0  0  0
  140.7370   79.9960  219.9600 C   0  0  0  0  0  0  0  0  0  0  0  0
  140.3271   79.3447  219.1740 H   0  0  0  0  0  0  0  0  0  0  0  0
  141.4640   77.0340  220.8910 C   0  0  0  0  0  0  0  0  0  0  0  0
  142.3810   77.1590  220.0340 O   0  0  0  0  0  0  0  0  0  0  0  0
  140.7470   73.0080  222.4430 N   0  0  0  0  0  0  0  0  0  0  0  0
  140.0830   71.8350  222.6370 C   0  0  0  0  0  0  0  0  0  0  0  0
  140.0340   71.1890  223.9740 C   0  0  0  0  0  0  0  0  0  0  0  0
  139.6120   69.8520  224.0840 C   0  0  0  0  0  0  0  0  0  0  0  0
  139.3102   69.2992  223.1821 H   0  0  0  0  0  0  0  0  0  0  0  0
  139.5730   69.2210  225.3280 C   0  0  0  0  0  0  0  0  0  0  0  0
  139.2382   68.1757  225.4008 H   0  0  0  0  0  0  0  0  0  0  0  0
  139.9560   69.9080  226.4790 C   0  0  0  0  0  0  0  0  0  0  0  0
  139.9208   69.4018  227.4550 H   0  0  0  0  0  0  0  0  0  0  0  0
  140.3870   71.2440  226.4000 C   0  0  0  0  0  0  0  0  0  0  0  0
  140.7950   71.9540  227.5840 N   0  0  0  0  0  0  0  0  0  0  0  0
  141.8390   72.6390  227.5880 O   0  0  0  0  0  0  0  0  0  0  0  0
  140.0360   71.8990  228.7300 O   0  0  0  0  0  0  0  0  0  0  0  0
  140.4220   71.8760  225.1420 C   0  0  0  0  0  0  0  0  0  0  0  0
  140.7571   72.9212  225.0698 H   0  0  0  0  0  0  0  0  0  0  0  0
  1  2  1  0
  2  3  1  0
  3  4  1  0
  4  5  2  0
  5  6  1  0
  6  7  2  0
  7  8  1  0
  8  9  1  0
  8 10  1  0
  7 11  1  0
 11 12  1  0
 12 13  1  0
 12 14  1  0
 12 15  1  0
 11 16  1  0
 16 17  1  0
 17 18  2  0
 18 19  1  0
 18 20  1  0
 20 21  1  0
 20 22  2  0
 22 23  1  0
 22 24  1  0
 24 25  1  0
 24 26  2  0
 26 27  1  0
 16 28  1  0
 28 29  2  0
  4 30  1  0
 30 31  1  0
 31 32  1  0
 32 33  2  0
 33 34  1  0
 33 35  1  0
 35 36  1  0
 35 37  2  0
 37 38  1  0
 37 39  1  0
 39 40  1  0
 40 41  2  0
 40 42  1  0
 39 43  2  0
 43 44  1  0
 31  2  2  0
 43 32  1  0
 28  6  1  0
 26 17  1  0
M  CHG  3  30  -1  40   1  42  -1
M  END
>  <UniqueID>  (34) 
28

>  <SMILES>  (34) 
Cn1c(N)c(/N=c2/[n-]c(-c3cccc([N+](=O)[O-])c3)cs2)c(=O)n1-c1ccccc1

>  <Energy>  (34) 
132.10637475221327

>  <Genealogy>  (34) 
Cn1c(N)c(N=c2[n-]c(-c3cccc([N+](=O)[O-])c3)cs2)c(=O)n1-c1ccccc1 (protonated)
Cn1c(N)c(/N=c2/[n-]c(-c3cccc([N+](=O)[O-])c3)cs2)c(=O)n1-c1ccccc1 (cis-trans isomerization)
Cn1c(N)c(/N=c2/[n-]c(-c3cccc([N+](=O)[O-])c3)cs2)c(=O)n1-c1ccccc1 (3D coordinates assigned)
Cn1c(N)c(/N=c2/[n-]c(-c3cccc([N+](=O)[O-])c3)cs2)c(=O)n1-c1ccccc1 (optimized conformer: 132.10637475221327 kcal/mol)

>  <smiles>  (34) 
Cn1c(N)c(N=c2[nH]c(-c3cccc([N+](=O)[O-])c3)cs2)c(=O)n1-c1ccccc1

>  <score_type>  (34) 
oracle

>  <origin>  (34) 
autodockgpu

>  <m_score__min__energy>  (34) 
-8.4600000000000009

>  <m_primary>  (34) 
energy

>  <meeko>  (34) 
{"free_energy": -7.82, "intermolecular_energy": -9.61, "internal_energy": -1.95, "cluster_size": 13, "cluster_id": 1, "rank_in_cluster": 8}

>  <energy>  (34) 
-8.24

>  <cluster_rmsd>  (34) 
0.0

>  <rmsd>  (34) 
272.03

>  <cluster>  (34) 
2

$$$$
DVQUYCKLNVLYBS-CREQSCFXNA-M
     RDKit          3D

 44 47  0  0  0  0  0  0  0  0999 V2000
  142.6366   75.8542  221.1272 H   0  0  0  0  0  0  0  0  0  0  0  0
  141.7230   75.2670  221.3020 C   0  0  0  0  0  0  0  0  0  0  0  0
  141.5030   73.6450  220.9060 S   0  0  0  0  0  0  0  0  0  0  0  0
  139.9190   73.6200  221.4800 C   0  0  0  0  0  0  0  0  0  0  0  0
  139.1290   72.5880  221.5030 N   0  0  0  0  0  0  0  0  0  0  0  0
  138.9850   71.6760  222.5990 C   0  0  0  0  0  0  0  0  0  0  0  0
  137.8450   71.0060  223.0210 C   0  0  0  0  0  0  0  0  0  0  0  0
  136.5450   71.0990  222.4280 N   0  0  0  0  0  0  0  0  0  0  0  0
  135.7450   70.5460  222.8020 H   0  0  0  0  0  0  0  0  0  0  0  0
  136.3560   71.7750  221.6570 H   0  0  0  0  0  0  0  0  0  0  0  0
  138.1040   70.4020  224.2060 N   0  0  0  0  0  0  0  0  0  0  0  0
  137.1620   69.5810  224.9690 C   0  0  0  0  0  0  0  0  0  0  0  0
  137.3335   69.7305  226.0452 H   0  0  0  0  0  0  0  0  0  0  0  0
  136.1323   69.8749  224.7175 H   0  0  0  0  0  0  0  0  0  0  0  0
  137.3125   68.5208  224.7175 H   0  0  0  0  0  0  0  0  0  0  0  0
  139.3470   70.7080  224.5760 N   0  0  0  0  0  0  0  0  0  0  0  0
  139.9640   70.3750  225.8310 C   0  0  0  0  0  0  0  0  0  0  0  0
  140.1040   69.0330  226.2200 C   0  0  0  0  0  0  0  0  0  0  0  0
  139.7606   68.2302  225.5510 H   0  0  0  0  0  0  0  0  0  0  0  0
  140.6780   68.7130  227.4540 C   0  0  0  0  0  0  0  0  0  0  0  0
  140.7913   67.6599  227.7507 H   0  0  0  0  0  0  0  0  0  0  0  0
  141.1080   69.7300  228.3110 C   0  0  0  0  0  0  0  0  0  0  0  0
  141.5605   69.4771  229.2812 H   0  0  0  0  0  0  0  0  0  0  0  0
  140.9630   71.0690  227.9350 C   0  0  0  0  0  0  0  0  0  0  0  0
  141.3003   71.8690  228.6105 H   0  0  0  0  0  0  0  0  0  0  0  0
  140.3900   71.3920  226.7020 C   0  0  0  0  0  0  0  0  0  0  0  0
  140.2720   72.4466  226.4122 H   0  0  0  0  0  0  0  0  0  0  0  0
  139.8900   71.4900  223.6180 C   0  0  0  0  0  0  0  0  0  0  0  0
  141.0390   72.0060  223.6830 O   0  0  0  0  0  0  0  0  0  0  0  0
  139.5530   74.8120  221.9880 N   0  0  0  0  0  0  0  0  0  0  0  0
  140.5440   75.7410  221.8920 C   0  0  0  0  0  0  0  0  0  0  0  0
  140.3560   77.1260  222.3960 C   0  0  0  0  0  0  0  0  0  0  0  0
  139.0590   77.5920  222.6760 C   0  0  0  0  0  0  0  0  0  0  0  0
  138.1940   76.9333  222.5091 H   0  0  0  0  0  0  0  0  0  0  0  0
  138.8620   78.8840  223.1640 C   0  0  0  0  0  0  0  0  0  0  0  0
  137.8424   79.2389  223.3751 H   0  0  0  0  0  0  0  0  0  0  0  0
  139.9500   79.7290  223.3860 C   0  0  0  0  0  0  0  0  0  0  0  0
  139.7833   80.7464  223.7696 H   0  0  0  0  0  0  0  0  0  0  0  0
  141.2580   79.2870  223.1220 C   0  0  0  0  0  0  0  0  0  0  0  0
  142.3840   80.1500  223.3600 N   0  0  0  0  0  0  0  0  0  0  0  0
  143.4760   79.9460  222.7870 O   0  0  0  0  0  0  0  0  0  0  0  0
  142.2770   81.2230  224.2160 O   0  0  0  0  0  0  0  0  0  0  0  0
  141.4500   77.9840  222.6260 C   0  0  0  0  0  0  0  0  0  0  0  0
  142.4697   77.6298  222.4146 H   0  0  0  0  0  0  0  0  0  0  0  0
  1  2  1  0
  2  3  1  0
  3  4  1  0
  4  5  2  0
  5  6  1  0
  6  7  2  0
  7  8  1  0
  8  9  1  0
  8 10  1  0
  7 11  1  0
 11 12  1  0
 12 13  1  0
 12 14  1  0
 12 15  1  0
 11 16  1  0
 16 17  1  0
 17 18  2  0
 18 19  1  0
 18 20  1  0
 20 21  1  0
 20 22  2  0
 22 23  1  0
 22 24  1  0
 24 25  1  0
 24 26  2  0
 26 27  1  0
 16 28  1  0
 28 29  2  0
  4 30  1  0
 30 31  1  0
 31 32  1  0
 32 33  2  0
 33 34  1  0
 33 35  1  0
 35 36  1  0
 35 37  2  0
 37 38  1  0
 37 39  1  0
 39 40  1  0
 40 41  2  0
 40 42  1  0
 39 43  2  0
 43 44  1  0
 31  2  2  0
 43 32  1  0
 28  6  1  0
 26 17  1  0
M  CHG  3  30  -1  40   1  42  -1
M  END
>  <UniqueID>  (35) 
28

>  <SMILES>  (35) 
Cn1c(N)c(/N=c2/[n-]c(-c3cccc([N+](=O)[O-])c3)cs2)c(=O)n1-c1ccccc1

>  <Energy>  (35) 
132.10637475221327

>  <Genealogy>  (35) 
Cn1c(N)c(N=c2[n-]c(-c3cccc([N+](=O)[O-])c3)cs2)c(=O)n1-c1ccccc1 (protonated)
Cn1c(N)c(/N=c2/[n-]c(-c3cccc([N+](=O)[O-])c3)cs2)c(=O)n1-c1ccccc1 (cis-trans isomerization)
Cn1c(N)c(/N=c2/[n-]c(-c3cccc([N+](=O)[O-])c3)cs2)c(=O)n1-c1ccccc1 (3D coordinates assigned)
Cn1c(N)c(/N=c2/[n-]c(-c3cccc([N+](=O)[O-])c3)cs2)c(=O)n1-c1ccccc1 (optimized conformer: 132.10637475221327 kcal/mol)

>  <smiles>  (35) 
Cn1c(N)c(N=c2[nH]c(-c3cccc([N+](=O)[O-])c3)cs2)c(=O)n1-c1ccccc1

>  <score_type>  (35) 
oracle

>  <origin>  (35) 
autodockgpu

>  <m_score__min__energy>  (35) 
-8.4600000000000009

>  <m_primary>  (35) 
energy

>  <meeko>  (35) 
{"free_energy": -8.18, "intermolecular_energy": -9.97, "internal_energy": -1.3, "cluster_size": 5, "cluster_id": 3, "rank_in_cluster": 2}

>  <energy>  (35) 
-8.05

>  <cluster_rmsd>  (35) 
1.61

>  <rmsd>  (35) 
272.18

>  <cluster>  (35) 
2

$$$$
DVQUYCKLNVLYBS-CREQSCFXNA-M
     RDKit          3D

 44 47  0  0  0  0  0  0  0  0999 V2000
  139.7014   69.3031  222.5305 H   0  0  0  0  0  0  0  0  0  0  0  0
  139.9020   70.3740  222.3790 C   0  0  0  0  0  0  0  0  0  0  0  0
  139.8180   71.1940  220.9110 S   0  0  0  0  0  0  0  0  0  0  0  0
  140.2730   72.6650  221.5960 C   0  0  0  0  0  0  0  0  0  0  0  0
  140.3790   73.8000  220.9730 N   0  0  0  0  0  0  0  0  0  0  0  0
  140.2090   75.0930  221.5660 C   0  0  0  0  0  0  0  0  0  0  0  0
  139.0780   75.6270  222.1670 C   0  0  0  0  0  0  0  0  0  0  0  0
  137.8130   74.9710  222.3120 N   0  0  0  0  0  0  0  0  0  0  0  0
  137.7480   74.0230  222.7400 H   0  0  0  0  0  0  0  0  0  0  0  0
  136.9260   75.4580  222.0620 H   0  0  0  0  0  0  0  0  0  0  0  0
  139.2910   76.9420  222.4160 N   0  0  0  0  0  0  0  0  0  0  0  0
  138.3420   77.8530  223.0590 C   0  0  0  0  0  0  0  0  0  0  0  0
  138.4329   77.7657  224.1518 H   0  0  0  0  0  0  0  0  0  0  0  0
  138.5620   78.8867  222.7542 H   0  0  0  0  0  0  0  0  0  0  0  0
  137.3181   77.5909  222.7542 H   0  0  0  0  0  0  0  0  0  0  0  0
  140.4940   77.2720  221.9490 N   0  0  0  0  0  0  0  0  0  0  0  0
  141.0490   78.5980  221.8980 C   0  0  0  0  0  0  0  0  0  0  0  0
  141.0080   79.3390  220.7050 C   0  0  0  0  0  0  0  0  0  0  0  0
  140.5291   78.9127  219.8112 H   0  0  0  0  0  0  0  0  0  0  0  0
  141.5740   80.6170  220.6500 C   0  0  0  0  0  0  0  0  0  0  0  0
  141.5324   81.1966  219.7160 H   0  0  0  0  0  0  0  0  0  0  0  0
  142.1920   81.1580  221.7800 C   0  0  0  0  0  0  0  0  0  0  0  0
  142.6365   82.1632  221.7350 H   0  0  0  0  0  0  0  0  0  0  0  0
  142.2460   80.4230  222.9680 C   0  0  0  0  0  0  0  0  0  0  0  0
  142.7332   80.8501  223.8569 H   0  0  0  0  0  0  0  0  0  0  0  0
  141.6810   79.1450  223.0270 C   0  0  0  0  0  0  0  0  0  0  0  0
  141.7317   78.5660  223.9609 H   0  0  0  0  0  0  0  0  0  0  0  0
  141.0590   76.1660  221.4190 C   0  0  0  0  0  0  0  0  0  0  0  0
  142.1770   76.1420  220.8380 O   0  0  0  0  0  0  0  0  0  0  0  0
  140.4680   72.5580  222.9240 N   0  0  0  0  0  0  0  0  0  0  0  0
  140.2710   71.2880  223.3750 C   0  0  0  0  0  0  0  0  0  0  0  0
  140.4300   70.9450  224.8110 C   0  0  0  0  0  0  0  0  0  0  0  0
  140.9520   71.9020  225.7000 C   0  0  0  0  0  0  0  0  0  0  0  0
  141.2497   72.8918  225.3235 H   0  0  0  0  0  0  0  0  0  0  0  0
  141.0950   71.6050  227.0560 C   0  0  0  0  0  0  0  0  0  0  0  0
  141.5093   72.3601  227.7402 H   0  0  0  0  0  0  0  0  0  0  0  0
  140.7160   70.3570  227.5490 C   0  0  0  0  0  0  0  0  0  0  0  0
  140.8333   70.1334  228.6196 H   0  0  0  0  0  0  0  0  0  0  0  0
  140.1850   69.3830  226.6860 C   0  0  0  0  0  0  0  0  0  0  0  0
  139.7820   68.0970  227.1910 N   0  0  0  0  0  0  0  0  0  0  0  0
  139.9770   67.7930  228.3870 O   0  0  0  0  0  0  0  0  0  0  0  0
  139.1650   67.1820  226.3690 O   0  0  0  0  0  0  0  0  0  0  0  0
  140.0470   69.6860  225.3180 C   0  0  0  0  0  0  0  0  0  0  0  0
  139.6343   68.9294  224.6344 H   0  0  0  0  0  0  0  0  0  0  0  0
  1  2  1  0
  2  3  1  0
  3  4  1  0
  4  5  2  0
  5  6  1  0
  6  7  2  0
  7  8  1  0
  8  9  1  0
  8 10  1  0
  7 11  1  0
 11 12  1  0
 12 13  1  0
 12 14  1  0
 12 15  1  0
 11 16  1  0
 16 17  1  0
 17 18  2  0
 18 19  1  0
 18 20  1  0
 20 21  1  0
 20 22  2  0
 22 23  1  0
 22 24  1  0
 24 25  1  0
 24 26  2  0
 26 27  1  0
 16 28  1  0
 28 29  2  0
  4 30  1  0
 30 31  1  0
 31 32  1  0
 32 33  2  0
 33 34  1  0
 33 35  1  0
 35 36  1  0
 35 37  2  0
 37 38  1  0
 37 39  1  0
 39 40  1  0
 40 41  2  0
 40 42  1  0
 39 43  2  0
 43 44  1  0
 31  2  2  0
 43 32  1  0
 28  6  1  0
 26 17  1  0
M  CHG  3  30  -1  40   1  42  -1
M  END
>  <UniqueID>  (36) 
28

>  <SMILES>  (36) 
Cn1c(N)c(/N=c2/[n-]c(-c3cccc([N+](=O)[O-])c3)cs2)c(=O)n1-c1ccccc1

>  <Energy>  (36) 
132.10637475221327

>  <Genealogy>  (36) 
Cn1c(N)c(N=c2[n-]c(-c3cccc([N+](=O)[O-])c3)cs2)c(=O)n1-c1ccccc1 (protonated)
Cn1c(N)c(/N=c2/[n-]c(-c3cccc([N+](=O)[O-])c3)cs2)c(=O)n1-c1ccccc1 (cis-trans isomerization)
Cn1c(N)c(/N=c2/[n-]c(-c3cccc([N+](=O)[O-])c3)cs2)c(=O)n1-c1ccccc1 (3D coordinates assigned)
Cn1c(N)c(/N=c2/[n-]c(-c3cccc([N+](=O)[O-])c3)cs2)c(=O)n1-c1ccccc1 (optimized conformer: 132.10637475221327 kcal/mol)

>  <smiles>  (36) 
Cn1c(N)c(N=c2[nH]c(-c3cccc([N+](=O)[O-])c3)cs2)c(=O)n1-c1ccccc1

>  <score_type>  (36) 
oracle

>  <origin>  (36) 
autodockgpu

>  <m_score__min__energy>  (36) 
-8.4600000000000009

>  <m_primary>  (36) 
energy

>  <meeko>  (36) 
{"free_energy": -8.41, "intermolecular_energy": -10.2, "internal_energy": -1.33, "cluster_size": 13, "cluster_id": 1, "rank_in_cluster": 2}

>  <energy>  (36) 
-8.18

>  <cluster_rmsd>  (36) 
0.0

>  <rmsd>  (36) 
272.28

>  <cluster>  (36) 
3

$$$$
DVQUYCKLNVLYBS-CREQSCFXNA-M
     RDKit          3D

 44 47  0  0  0  0  0  0  0  0999 V2000
  138.9990   70.3361  221.3782 H   0  0  0  0  0  0  0  0  0  0  0  0
  139.5670   71.2750  221.4540 C   0  0  0  0  0  0  0  0  0  0  0  0
  139.8970   72.3320  220.1860 S   0  0  0  0  0  0  0  0  0  0  0  0
  140.7670   73.3910  221.1650 C   0  0  0  0  0  0  0  0  0  0  0  0
  141.3090   74.5110  220.7910 N   0  0  0  0  0  0  0  0  0  0  0  0
  141.0050   75.8030  221.3320 C   0  0  0  0  0  0  0  0  0  0  0  0
  139.9640   76.1640  222.1760 C   0  0  0  0  0  0  0  0  0  0  0  0
  138.9520   75.2900  222.6860 N   0  0  0  0  0  0  0  0  0  0  0  0
  139.1050   74.2590  222.7260 H   0  0  0  0  0  0  0  0  0  0  0  0
  138.0720   75.6710  223.0940 H   0  0  0  0  0  0  0  0  0  0  0  0
  139.9340   77.5140  222.2840 N   0  0  0  0  0  0  0  0  0  0  0  0
  138.9930   78.2850  223.0990 C   0  0  0  0  0  0  0  0  0  0  0  0
  139.2039   78.1122  224.1647 H   0  0  0  0  0  0  0  0  0  0  0  0
  139.1033   79.3557  222.8723 H   0  0  0  0  0  0  0  0  0  0  0  0
  137.9649   77.9662  222.8723 H   0  0  0  0  0  0  0  0  0  0  0  0
  140.8840   78.0240  221.5000 N   0  0  0  0  0  0  0  0  0  0  0  0
  141.1000   79.4190  221.2270 C   0  0  0  0  0  0  0  0  0  0  0  0
  141.5790   80.2740  222.2340 C   0  0  0  0  0  0  0  0  0  0  0  0
  141.8117   79.8702  223.2304 H   0  0  0  0  0  0  0  0  0  0  0  0
  141.7610   81.6350  221.9750 C   0  0  0  0  0  0  0  0  0  0  0  0
  142.1434   82.2980  222.7650 H   0  0  0  0  0  0  0  0  0  0  0  0
  141.4580   82.1550  220.7140 C   0  0  0  0  0  0  0  0  0  0  0  0
  141.6026   83.2265  220.5114 H   0  0  0  0  0  0  0  0  0  0  0  0
  140.9710   81.3130  219.7100 C   0  0  0  0  0  0  0  0  0  0  0  0
  140.7314   81.7230  218.7178 H   0  0  0  0  0  0  0  0  0  0  0  0
  140.7880   79.9510  219.9650 C   0  0  0  0  0  0  0  0  0  0  0  0
  140.3981   79.2931  219.1743 H   0  0  0  0  0  0  0  0  0  0  0  0
  141.5330   77.0000  220.9060 C   0  0  0  0  0  0  0  0  0  0  0  0
  142.4540   77.1340  220.0540 O   0  0  0  0  0  0  0  0  0  0  0  0
  140.7980   72.9740  222.4460 N   0  0  0  0  0  0  0  0  0  0  0  0
  140.1390   71.7950  222.6220 C   0  0  0  0  0  0  0  0  0  0  0  0
  140.0450   71.1550  223.9590 C   0  0  0  0  0  0  0  0  0  0  0  0
  139.5830   69.8310  224.0640 C   0  0  0  0  0  0  0  0  0  0  0  0
  139.2839   69.2840  223.1577 H   0  0  0  0  0  0  0  0  0  0  0  0
  139.5010   69.2060  225.3080 C   0  0  0  0  0  0  0  0  0  0  0  0
  139.1330   68.1717  225.3772 H   0  0  0  0  0  0  0  0  0  0  0  0
  139.8830   69.8850  226.4650 C   0  0  0  0  0  0  0  0  0  0  0  0
  139.8145   69.3829  227.4413 H   0  0  0  0  0  0  0  0  0  0  0  0
  140.3550   71.2070  226.3910 C   0  0  0  0  0  0  0  0  0  0  0  0
  140.7620   71.9070  227.5800 N   0  0  0  0  0  0  0  0  0  0  0  0
  141.8070   72.5920  227.5910 O   0  0  0  0  0  0  0  0  0  0  0  0
  140.0010   71.8450  228.7250 O   0  0  0  0  0  0  0  0  0  0  0  0
  140.4320   71.8330  225.1330 C   0  0  0  0  0  0  0  0  0  0  0  0
  140.7999   72.8674  225.0646 H   0  0  0  0  0  0  0  0  0  0  0  0
  1  2  1  0
  2  3  1  0
  3  4  1  0
  4  5  2  0
  5  6  1  0
  6  7  2  0
  7  8  1  0
  8  9  1  0
  8 10  1  0
  7 11  1  0
 11 12  1  0
 12 13  1  0
 12 14  1  0
 12 15  1  0
 11 16  1  0
 16 17  1  0
 17 18  2  0
 18 19  1  0
 18 20  1  0
 20 21  1  0
 20 22  2  0
 22 23  1  0
 22 24  1  0
 24 25  1  0
 24 26  2  0
 26 27  1  0
 16 28  1  0
 28 29  2  0
  4 30  1  0
 30 31  1  0
 31 32  1  0
 32 33  2  0
 33 34  1  0
 33 35  1  0
 35 36  1  0
 35 37  2  0
 37 38  1  0
 37 39  1  0
 39 40  1  0
 40 41  2  0
 40 42  1  0
 39 43  2  0
 43 44  1  0
 31  2  2  0
 43 32  1  0
 28  6  1  0
 26 17  1  0
M  CHG  3  30  -1  40   1  42  -1
M  END
>  <UniqueID>  (37) 
28

>  <SMILES>  (37) 
Cn1c(N)c(/N=c2/[n-]c(-c3cccc([N+](=O)[O-])c3)cs2)c(=O)n1-c1ccccc1

>  <Energy>  (37) 
132.10637475221327

>  <Genealogy>  (37) 
Cn1c(N)c(N=c2[n-]c(-c3cccc([N+](=O)[O-])c3)cs2)c(=O)n1-c1ccccc1 (protonated)
Cn1c(N)c(/N=c2/[n-]c(-c3cccc([N+](=O)[O-])c3)cs2)c(=O)n1-c1ccccc1 (cis-trans isomerization)
Cn1c(N)c(/N=c2/[n-]c(-c3cccc([N+](=O)[O-])c3)cs2)c(=O)n1-c1ccccc1 (3D coordinates assigned)
Cn1c(N)c(/N=c2/[n-]c(-c3cccc([N+](=O)[O-])c3)cs2)c(=O)n1-c1ccccc1 (optimized conformer: 132.10637475221327 kcal/mol)

>  <smiles>  (37) 
Cn1c(N)c(N=c2[nH]c(-c3cccc([N+](=O)[O-])c3)cs2)c(=O)n1-c1ccccc1

>  <score_type>  (37) 
oracle

>  <origin>  (37) 
autodockgpu

>  <m_score__min__energy>  (37) 
-8.4600000000000009

>  <m_primary>  (37) 
energy

>  <meeko>  (37) 
{"free_energy": -7.83, "intermolecular_energy": -9.62, "internal_energy": -1.96, "cluster_size": 13, "cluster_id": 1, "rank_in_cluster": 6}

>  <energy>  (37) 
-8.18

>  <cluster_rmsd>  (37) 
0.06

>  <rmsd>  (37) 
272.28

>  <cluster>  (37) 
3

$$$$
DVQUYCKLNVLYBS-CREQSCFXNA-M
     RDKit          3D

 44 47  0  0  0  0  0  0  0  0999 V2000
  142.6361   75.8546  221.1187 H   0  0  0  0  0  0  0  0  0  0  0  0
  141.7230   75.2670  221.2950 C   0  0  0  0  0  0  0  0  0  0  0  0
  141.5040   73.6450  220.9020 S   0  0  0  0  0  0  0  0  0  0  0  0
  139.9210   73.6190  221.4760 C   0  0  0  0  0  0  0  0  0  0  0  0
  139.1320   72.5870  221.5020 N   0  0  0  0  0  0  0  0  0  0  0  0
  138.9870   71.6780  222.6000 C   0  0  0  0  0  0  0  0  0  0  0  0
  137.8460   71.0100  223.0250 C   0  0  0  0  0  0  0  0  0  0  0  0
  136.5460   71.1050  222.4340 N   0  0  0  0  0  0  0  0  0  0  0  0
  135.7460   70.5520  222.8090 H   0  0  0  0  0  0  0  0  0  0  0  0
  136.3560   71.7830  221.6650 H   0  0  0  0  0  0  0  0  0  0  0  0
  138.1060   70.4080  224.2110 N   0  0  0  0  0  0  0  0  0  0  0  0
  137.1630   69.5910  224.9780 C   0  0  0  0  0  0  0  0  0  0  0  0
  137.3374   69.7421  226.0535 H   0  0  0  0  0  0  0  0  0  0  0  0
  136.1336   69.8875  224.7283 H   0  0  0  0  0  0  0  0  0  0  0  0
  137.3098   68.5298  224.7283 H   0  0  0  0  0  0  0  0  0  0  0  0
  139.3500   70.7130  224.5780 N   0  0  0  0  0  0  0  0  0  0  0  0
  139.9690   70.3820  225.8330 C   0  0  0  0  0  0  0  0  0  0  0  0
  140.1180   69.0390  226.2200 C   0  0  0  0  0  0  0  0  0  0  0  0
  139.7805   68.2350  225.5494 H   0  0  0  0  0  0  0  0  0  0  0  0
  140.6930   68.7210  227.4530 C   0  0  0  0  0  0  0  0  0  0  0  0
  140.8138   67.6680  227.7474 H   0  0  0  0  0  0  0  0  0  0  0  0
  141.1150   69.7390  228.3130 C   0  0  0  0  0  0  0  0  0  0  0  0
  141.5675   69.4868  229.2834 H   0  0  0  0  0  0  0  0  0  0  0  0
  140.9620   71.0770  227.9400 C   0  0  0  0  0  0  0  0  0  0  0  0
  141.2943   71.8777  228.6172 H   0  0  0  0  0  0  0  0  0  0  0  0
  140.3870   71.3990  226.7070 C   0  0  0  0  0  0  0  0  0  0  0  0
  140.2614   72.4535  226.4201 H   0  0  0  0  0  0  0  0  0  0  0  0
  139.8930   71.4920  223.6180 C   0  0  0  0  0  0  0  0  0  0  0  0
  141.0440   72.0050  223.6790 O   0  0  0  0  0  0  0  0  0  0  0  0
  139.5540   74.8120  221.9840 N   0  0  0  0  0  0  0  0  0  0  0  0
  140.5440   75.7410  221.8850 C   0  0  0  0  0  0  0  0  0  0  0  0
  140.3560   77.1260  222.3870 C   0  0  0  0  0  0  0  0  0  0  0  0
  139.0580   77.5940  222.6640 C   0  0  0  0  0  0  0  0  0  0  0  0
  138.1929   76.9359  222.4952 H   0  0  0  0  0  0  0  0  0  0  0  0
  138.8600   78.8860  223.1510 C   0  0  0  0  0  0  0  0  0  0  0  0
  137.8400   79.2411  223.3598 H   0  0  0  0  0  0  0  0  0  0  0  0
  139.9480   79.7310  223.3750 C   0  0  0  0  0  0  0  0  0  0  0  0
  139.7808   80.7483  223.7586 H   0  0  0  0  0  0  0  0  0  0  0  0
  141.2560   79.2890  223.1130 C   0  0  0  0  0  0  0  0  0  0  0  0
  142.3830   80.1520  223.3530 N   0  0  0  0  0  0  0  0  0  0  0  0
  143.4750   79.9470  222.7810 O   0  0  0  0  0  0  0  0  0  0  0  0
  142.2740   81.2240  224.2080 O   0  0  0  0  0  0  0  0  0  0  0  0
  141.4500   77.9850  222.6180 C   0  0  0  0  0  0  0  0  0  0  0  0
  142.4703   77.6313  222.4084 H   0  0  0  0  0  0  0  0  0  0  0  0
  1  2  1  0
  2  3  1  0
  3  4  1  0
  4  5  2  0
  5  6  1  0
  6  7  2  0
  7  8  1  0
  8  9  1  0
  8 10  1  0
  7 11  1  0
 11 12  1  0
 12 13  1  0
 12 14  1  0
 12 15  1  0
 11 16  1  0
 16 17  1  0
 17 18  2  0
 18 19  1  0
 18 20  1  0
 20 21  1  0
 20 22  2  0
 22 23  1  0
 22 24  1  0
 24 25  1  0
 24 26  2  0
 26 27  1  0
 16 28  1  0
 28 29  2  0
  4 30  1  0
 30 31  1  0
 31 32  1  0
 32 33  2  0
 33 34  1  0
 33 35  1  0
 35 36  1  0
 35 37  2  0
 37 38  1  0
 37 39  1  0
 39 40  1  0
 40 41  2  0
 40 42  1  0
 39 43  2  0
 43 44  1  0
 31  2  2  0
 43 32  1  0
 28  6  1  0
 26 17  1  0
M  CHG  3  30  -1  40   1  42  -1
M  END
>  <UniqueID>  (38) 
28

>  <SMILES>  (38) 
Cn1c(N)c(/N=c2/[n-]c(-c3cccc([N+](=O)[O-])c3)cs2)c(=O)n1-c1ccccc1

>  <Energy>  (38) 
132.10637475221327

>  <Genealogy>  (38) 
Cn1c(N)c(N=c2[n-]c(-c3cccc([N+](=O)[O-])c3)cs2)c(=O)n1-c1ccccc1 (protonated)
Cn1c(N)c(/N=c2/[n-]c(-c3cccc([N+](=O)[O-])c3)cs2)c(=O)n1-c1ccccc1 (cis-trans isomerization)
Cn1c(N)c(/N=c2/[n-]c(-c3cccc([N+](=O)[O-])c3)cs2)c(=O)n1-c1ccccc1 (3D coordinates assigned)
Cn1c(N)c(/N=c2/[n-]c(-c3cccc([N+](=O)[O-])c3)cs2)c(=O)n1-c1ccccc1 (optimized conformer: 132.10637475221327 kcal/mol)

>  <smiles>  (38) 
Cn1c(N)c(N=c2[nH]c(-c3cccc([N+](=O)[O-])c3)cs2)c(=O)n1-c1ccccc1

>  <score_type>  (38) 
oracle

>  <origin>  (38) 
autodockgpu

>  <m_score__min__energy>  (38) 
-8.4600000000000009

>  <m_primary>  (38) 
energy

>  <meeko>  (38) 
{"free_energy": -8.18, "intermolecular_energy": -9.97, "internal_energy": -1.31, "cluster_size": 5, "cluster_id": 3, "rank_in_cluster": 3}

>  <energy>  (38) 
-8.18

>  <cluster_rmsd>  (38) 
0.06

>  <rmsd>  (38) 
272.28

>  <cluster>  (38) 
3

$$$$
DVQUYCKLNVLYBS-CREQSCFXNA-M
     RDKit          3D

 44 47  0  0  0  0  0  0  0  0999 V2000
  138.9414   70.3941  221.4035 H   0  0  0  0  0  0  0  0  0  0  0  0
  139.5200   71.3270  221.4730 C   0  0  0  0  0  0  0  0  0  0  0  0
  139.8360   72.3870  220.2040 S   0  0  0  0  0  0  0  0  0  0  0  0
  140.7350   73.4320  221.1730 C   0  0  0  0  0  0  0  0  0  0  0  0
  141.2820   74.5480  220.7950 N   0  0  0  0  0  0  0  0  0  0  0  0
  140.9850   75.8430  221.3320 C   0  0  0  0  0  0  0  0  0  0  0  0
  139.9480   76.2110  222.1770 C   0  0  0  0  0  0  0  0  0  0  0  0
  138.9340   75.3420  222.6930 N   0  0  0  0  0  0  0  0  0  0  0  0
  138.0000   75.7140  222.9720 H   0  0  0  0  0  0  0  0  0  0  0  0
  139.0820   74.3120  222.7330 H   0  0  0  0  0  0  0  0  0  0  0  0
  139.9230   77.5620  222.2810 N   0  0  0  0  0  0  0  0  0  0  0  0
  138.9860   78.3390  223.0950 C   0  0  0  0  0  0  0  0  0  0  0  0
  139.1951   78.1656  224.1609 H   0  0  0  0  0  0  0  0  0  0  0  0
  139.1028   79.4089  222.8678 H   0  0  0  0  0  0  0  0  0  0  0  0
  137.9562   78.0262  222.8678 H   0  0  0  0  0  0  0  0  0  0  0  0
  140.8720   78.0650  221.4910 N   0  0  0  0  0  0  0  0  0  0  0  0
  141.0920   79.4590  221.2140 C   0  0  0  0  0  0  0  0  0  0  0  0
  141.5890   80.3120  222.2120 C   0  0  0  0  0  0  0  0  0  0  0  0
  141.8332   79.9085  223.2057 H   0  0  0  0  0  0  0  0  0  0  0  0
  141.7750   81.6730  221.9480 C   0  0  0  0  0  0  0  0  0  0  0  0
  142.1704   82.3358  222.7318 H   0  0  0  0  0  0  0  0  0  0  0  0
  141.4590   82.1910  220.6900 C   0  0  0  0  0  0  0  0  0  0  0  0
  141.6078   83.2611  220.4831 H   0  0  0  0  0  0  0  0  0  0  0  0
  140.9540   81.3510  219.6940 C   0  0  0  0  0  0  0  0  0  0  0  0
  140.7033   81.7609  218.7045 H   0  0  0  0  0  0  0  0  0  0  0  0
  140.7670   79.9900  219.9540 C   0  0  0  0  0  0  0  0  0  0  0  0
  140.3641   79.3325  219.1696 H   0  0  0  0  0  0  0  0  0  0  0  0
  141.5160   77.0370  220.9000 C   0  0  0  0  0  0  0  0  0  0  0  0
  142.4340   77.1650  220.0450 O   0  0  0  0  0  0  0  0  0  0  0  0
  140.7870   73.0080  222.4510 N   0  0  0  0  0  0  0  0  0  0  0  0
  140.1190   71.8350  222.6320 C   0  0  0  0  0  0  0  0  0  0  0  0
  140.0440   71.1880  223.9670 C   0  0  0  0  0  0  0  0  0  0  0  0
  139.5970   69.8580  224.0710 C   0  0  0  0  0  0  0  0  0  0  0  0
  139.2955   69.3114  223.1653 H   0  0  0  0  0  0  0  0  0  0  0  0
  139.5330   69.2270  225.3130 C   0  0  0  0  0  0  0  0  0  0  0  0
  139.1768   68.1885  225.3809 H   0  0  0  0  0  0  0  0  0  0  0  0
  139.9180   69.9050  226.4700 C   0  0  0  0  0  0  0  0  0  0  0  0
  139.8628   69.3983  227.4448 H   0  0  0  0  0  0  0  0  0  0  0  0
  140.3760   71.2320  226.3970 C   0  0  0  0  0  0  0  0  0  0  0  0
  140.7850   71.9320  227.5850 N   0  0  0  0  0  0  0  0  0  0  0  0
  141.8330   72.6130  227.5950 O   0  0  0  0  0  0  0  0  0  0  0  0
  140.0240   71.8740  228.7310 O   0  0  0  0  0  0  0  0  0  0  0  0
  140.4340   71.8650  225.1410 C   0  0  0  0  0  0  0  0  0  0  0  0
  140.7891   72.9040  225.0742 H   0  0  0  0  0  0  0  0  0  0  0  0
  1  2  1  0
  2  3  1  0
  3  4  1  0
  4  5  2  0
  5  6  1  0
  6  7  2  0
  7  8  1  0
  8  9  1  0
  8 10  1  0
  7 11  1  0
 11 12  1  0
 12 13  1  0
 12 14  1  0
 12 15  1  0
 11 16  1  0
 16 17  1  0
 17 18  2  0
 18 19  1  0
 18 20  1  0
 20 21  1  0
 20 22  2  0
 22 23  1  0
 22 24  1  0
 24 25  1  0
 24 26  2  0
 26 27  1  0
 16 28  1  0
 28 29  2  0
  4 30  1  0
 30 31  1  0
 31 32  1  0
 32 33  2  0
 33 34  1  0
 33 35  1  0
 35 36  1  0
 35 37  2  0
 37 38  1  0
 37 39  1  0
 39 40  1  0
 40 41  2  0
 40 42  1  0
 39 43  2  0
 43 44  1  0
 31  2  2  0
 43 32  1  0
 28  6  1  0
 26 17  1  0
M  CHG  3  30  -1  40   1  42  -1
M  END
>  <UniqueID>  (39) 
28

>  <SMILES>  (39) 
Cn1c(N)c(/N=c2/[n-]c(-c3cccc([N+](=O)[O-])c3)cs2)c(=O)n1-c1ccccc1

>  <Energy>  (39) 
132.10637475221327

>  <Genealogy>  (39) 
Cn1c(N)c(N=c2[n-]c(-c3cccc([N+](=O)[O-])c3)cs2)c(=O)n1-c1ccccc1 (protonated)
Cn1c(N)c(/N=c2/[n-]c(-c3cccc([N+](=O)[O-])c3)cs2)c(=O)n1-c1ccccc1 (cis-trans isomerization)
Cn1c(N)c(/N=c2/[n-]c(-c3cccc([N+](=O)[O-])c3)cs2)c(=O)n1-c1ccccc1 (3D coordinates assigned)
Cn1c(N)c(/N=c2/[n-]c(-c3cccc([N+](=O)[O-])c3)cs2)c(=O)n1-c1ccccc1 (optimized conformer: 132.10637475221327 kcal/mol)

>  <smiles>  (39) 
Cn1c(N)c(N=c2[nH]c(-c3cccc([N+](=O)[O-])c3)cs2)c(=O)n1-c1ccccc1

>  <score_type>  (39) 
oracle

>  <origin>  (39) 
autodockgpu

>  <m_score__min__energy>  (39) 
-8.4600000000000009

>  <m_primary>  (39) 
energy

>  <meeko>  (39) 
{"free_energy": -7.77, "intermolecular_energy": -9.56, "internal_energy": -1.96, "cluster_size": 13, "cluster_id": 1, "rank_in_cluster": 13}

>  <energy>  (39) 
-8.14

>  <cluster_rmsd>  (39) 
0.08

>  <rmsd>  (39) 
272.27

>  <cluster>  (39) 
3

$$$$
DVQUYCKLNVLYBS-CREQSCFXNA-M
     RDKit          3D

 44 47  0  0  0  0  0  0  0  0999 V2000
  141.1694   69.9450  222.0346 H   0  0  0  0  0  0  0  0  0  0  0  0
  140.6610   70.9190  222.0880 C   0  0  0  0  0  0  0  0  0  0  0  0
  140.2120   71.8690  220.7730 S   0  0  0  0  0  0  0  0  0  0  0  0
  139.5700   73.0850  221.7460 C   0  0  0  0  0  0  0  0  0  0  0  0
  138.9910   74.1720  221.3330 N   0  0  0  0  0  0  0  0  0  0  0  0
  139.1390   75.4700  221.9250 C   0  0  0  0  0  0  0  0  0  0  0  0
  138.1490   76.3700  222.2930 C   0  0  0  0  0  0  0  0  0  0  0  0
  136.7380   76.1760  222.1460 N   0  0  0  0  0  0  0  0  0  0  0  0
  136.3560   75.2730  221.7920 H   0  0  0  0  0  0  0  0  0  0  0  0
  136.0630   76.9060  222.4580 H   0  0  0  0  0  0  0  0  0  0  0  0
  138.7290   77.5470  222.6300 N   0  0  0  0  0  0  0  0  0  0  0  0
  138.0240   78.7440  223.0920 C   0  0  0  0  0  0  0  0  0  0  0  0
  138.0135   78.7618  224.1918 H   0  0  0  0  0  0  0  0  0  0  0  0
  138.5383   79.6406  222.7157 H   0  0  0  0  0  0  0  0  0  0  0  0
  136.9905   78.7290  222.7157 H   0  0  0  0  0  0  0  0  0  0  0  0
  140.0440   77.4430  222.4390 N   0  0  0  0  0  0  0  0  0  0  0  0
  141.0040   78.5060  222.5540 C   0  0  0  0  0  0  0  0  0  0  0  0
  141.6140   78.7830  223.7890 C   0  0  0  0  0  0  0  0  0  0  0  0
  141.3729   78.1687  224.6690 H   0  0  0  0  0  0  0  0  0  0  0  0
  142.5260   79.8360  223.9040 C   0  0  0  0  0  0  0  0  0  0  0  0
  143.0067   80.0430  224.8715 H   0  0  0  0  0  0  0  0  0  0  0  0
  142.8280   80.6260  222.7920 C   0  0  0  0  0  0  0  0  0  0  0  0
  143.5463   81.4540  222.8841 H   0  0  0  0  0  0  0  0  0  0  0  0
  142.2170   80.3640  221.5620 C   0  0  0  0  0  0  0  0  0  0  0  0
  142.4546   80.9871  220.6872 H   0  0  0  0  0  0  0  0  0  0  0  0
  141.3050   79.3120  221.4420 C   0  0  0  0  0  0  0  0  0  0  0  0
  140.8210   79.1138  220.4743 H   0  0  0  0  0  0  0  0  0  0  0  0
  140.3070   76.1930  221.9990 C   0  0  0  0  0  0  0  0  0  0  0  0
  141.4500   75.7790  221.6660 O   0  0  0  0  0  0  0  0  0  0  0  0
  139.6670   72.7800  223.0550 N   0  0  0  0  0  0  0  0  0  0  0  0
  140.2770   71.5800  223.2620 C   0  0  0  0  0  0  0  0  0  0  0  0
  140.4840   71.0450  224.6320 C   0  0  0  0  0  0  0  0  0  0  0  0
  140.8740   71.9160  225.6650 C   0  0  0  0  0  0  0  0  0  0  0  0
  141.0337   72.9826  225.4486 H   0  0  0  0  0  0  0  0  0  0  0  0
  141.0600   71.4370  226.9630 C   0  0  0  0  0  0  0  0  0  0  0  0
  141.3701   72.1272  227.7614 H   0  0  0  0  0  0  0  0  0  0  0  0
  140.8550   70.0890  227.2530 C   0  0  0  0  0  0  0  0  0  0  0  0
  141.0040   69.7218  228.2791 H   0  0  0  0  0  0  0  0  0  0  0  0
  140.4590   69.1960  226.2420 C   0  0  0  0  0  0  0  0  0  0  0  0
  140.2350   67.8060  226.5390 N   0  0  0  0  0  0  0  0  0  0  0  0
  141.0630   67.1570  227.2130 O   0  0  0  0  0  0  0  0  0  0  0  0
  139.0990   67.1680  226.0940 O   0  0  0  0  0  0  0  0  0  0  0  0
  140.2760   69.6840  224.9340 C   0  0  0  0  0  0  0  0  0  0  0  0
  139.9662   68.9930  224.1362 H   0  0  0  0  0  0  0  0  0  0  0  0
  1  2  1  0
  2  3  1  0
  3  4  1  0
  4  5  2  0
  5  6  1  0
  6  7  2  0
  7  8  1  0
  8  9  1  0
  8 10  1  0
  7 11  1  0
 11 12  1  0
 12 13  1  0
 12 14  1  0
 12 15  1  0
 11 16  1  0
 16 17  1  0
 17 18  2  0
 18 19  1  0
 18 20  1  0
 20 21  1  0
 20 22  2  0
 22 23  1  0
 22 24  1  0
 24 25  1  0
 24 26  2  0
 26 27  1  0
 16 28  1  0
 28 29  2  0
  4 30  1  0
 30 31  1  0
 31 32  1  0
 32 33  2  0
 33 34  1  0
 33 35  1  0
 35 36  1  0
 35 37  2  0
 37 38  1  0
 37 39  1  0
 39 40  1  0
 40 41  2  0
 40 42  1  0
 39 43  2  0
 43 44  1  0
 31  2  2  0
 43 32  1  0
 28  6  1  0
 26 17  1  0
M  CHG  3  30  -1  40   1  42  -1
M  END
>  <UniqueID>  (40) 
28

>  <SMILES>  (40) 
Cn1c(N)c(/N=c2/[n-]c(-c3cccc([N+](=O)[O-])c3)cs2)c(=O)n1-c1ccccc1

>  <Energy>  (40) 
132.10637475221327

>  <Genealogy>  (40) 
Cn1c(N)c(N=c2[n-]c(-c3cccc([N+](=O)[O-])c3)cs2)c(=O)n1-c1ccccc1 (protonated)
Cn1c(N)c(/N=c2/[n-]c(-c3cccc([N+](=O)[O-])c3)cs2)c(=O)n1-c1ccccc1 (cis-trans isomerization)
Cn1c(N)c(/N=c2/[n-]c(-c3cccc([N+](=O)[O-])c3)cs2)c(=O)n1-c1ccccc1 (3D coordinates assigned)
Cn1c(N)c(/N=c2/[n-]c(-c3cccc([N+](=O)[O-])c3)cs2)c(=O)n1-c1ccccc1 (optimized conformer: 132.10637475221327 kcal/mol)

>  <smiles>  (40) 
Cn1c(N)c(N=c2[nH]c(-c3cccc([N+](=O)[O-])c3)cs2)c(=O)n1-c1ccccc1

>  <score_type>  (40) 
oracle

>  <origin>  (40) 
autodockgpu

>  <m_score__min__energy>  (40) 
-8.4600000000000009

>  <m_primary>  (40) 
energy

>  <meeko>  (40) 
{"free_energy": -8.08, "intermolecular_energy": -9.87, "internal_energy": -1.37, "cluster_size": 13, "cluster_id": 1, "rank_in_cluster": 4}

>  <energy>  (40) 
-7.98

>  <cluster_rmsd>  (40) 
0.3

>  <rmsd>  (40) 
272.23

>  <cluster>  (40) 
3

$$$$
DVQUYCKLNVLYBS-HNRYJENLNA-M
     RDKit          3D

 44 47  0  0  0  0  0  0  0  0999 V2000
  139.5096   69.9962  221.2969 H   0  0  0  0  0  0  0  0  0  0  0  0
  139.9090   71.0180  221.3770 C   0  0  0  0  0  0  0  0  0  0  0  0
  140.2110   72.0610  220.0910 S   0  0  0  0  0  0  0  0  0  0  0  0
  140.7740   73.2850  221.0860 C   0  0  0  0  0  0  0  0  0  0  0  0
  141.1530   74.4480  220.6510 N   0  0  0  0  0  0  0  0  0  0  0  0
  140.8150   75.7180  221.2320 C   0  0  0  0  0  0  0  0  0  0  0  0
  139.6760   75.9990  221.9590 C   0  0  0  0  0  0  0  0  0  0  0  0
  138.6810   75.0470  222.3420 N   0  0  0  0  0  0  0  0  0  0  0  0
  138.9410   74.1190  222.7440 H   0  0  0  0  0  0  0  0  0  0  0  0
  137.6690   75.2550  222.1920 H   0  0  0  0  0  0  0  0  0  0  0  0
  139.6560   77.3160  222.2730 N   0  0  0  0  0  0  0  0  0  0  0  0
  138.6050   78.0070  223.0250 C   0  0  0  0  0  0  0  0  0  0  0  0
  138.7867   77.8875  224.1033 H   0  0  0  0  0  0  0  0  0  0  0  0
  138.6131   79.0765  222.7681 H   0  0  0  0  0  0  0  0  0  0  0  0
  137.6263   77.5756  222.7681 H   0  0  0  0  0  0  0  0  0  0  0  0
  140.7500   77.8840  221.7680 N   0  0  0  0  0  0  0  0  0  0  0  0
  141.1290   79.2640  221.9100 C   0  0  0  0  0  0  0  0  0  0  0  0
  140.8360   80.1880  220.8930 C   0  0  0  0  0  0  0  0  0  0  0  0
  140.3277   79.8517  219.9773 H   0  0  0  0  0  0  0  0  0  0  0  0
  141.1880   81.5340  221.0400 C   0  0  0  0  0  0  0  0  0  0  0  0
  140.9610   82.2524  220.2385 H   0  0  0  0  0  0  0  0  0  0  0  0
  141.8280   81.9660  222.2050 C   0  0  0  0  0  0  0  0  0  0  0  0
  142.1076   83.0238  222.3181 H   0  0  0  0  0  0  0  0  0  0  0  0
  142.1130   81.0560  223.2260 C   0  0  0  0  0  0  0  0  0  0  0  0
  142.6136   81.3985  224.1436 H   0  0  0  0  0  0  0  0  0  0  0  0
  141.7620   79.7090  223.0820 C   0  0  0  0  0  0  0  0  0  0  0  0
  141.9828   78.9959  223.8900 H   0  0  0  0  0  0  0  0  0  0  0  0
  141.4560   76.9380  221.1090 C   0  0  0  0  0  0  0  0  0  0  0  0
  142.5160   77.1640  220.4660 O   0  0  0  0  0  0  0  0  0  0  0  0
  140.7290   72.9370  222.3890 N   0  0  0  0  0  0  0  0  0  0  0  0
  140.2530   71.6730  222.5670 C   0  0  0  0  0  0  0  0  0  0  0  0
  140.1350   71.0760  223.9240 C   0  0  0  0  0  0  0  0  0  0  0  0
  139.5090   69.8330  224.1300 C   0  0  0  0  0  0  0  0  0  0  0  0
  139.0952   69.2816  223.2729 H   0  0  0  0  0  0  0  0  0  0  0  0
  139.4090   69.2940  225.4140 C   0  0  0  0  0  0  0  0  0  0  0  0
  138.9202   68.3198  225.5621 H   0  0  0  0  0  0  0  0  0  0  0  0
  139.9260   69.9850  226.5100 C   0  0  0  0  0  0  0  0  0  0  0  0
  139.8441   69.5514  227.5176 H   0  0  0  0  0  0  0  0  0  0  0  0
  140.5510   71.2320  226.3350 C   0  0  0  0  0  0  0  0  0  0  0  0
  141.0850   71.9500  227.4630 N   0  0  0  0  0  0  0  0  0  0  0  0
  142.1200   72.6390  227.3470 O   0  0  0  0  0  0  0  0  0  0  0  0
  140.4620   71.8910  228.6880 O   0  0  0  0  0  0  0  0  0  0  0  0
  140.6480   71.7690  225.0380 C   0  0  0  0  0  0  0  0  0  0  0  0
  141.1323   72.7458  224.8916 H   0  0  0  0  0  0  0  0  0  0  0  0
  1  2  1  0
  2  3  1  0
  3  4  1  0
  4  5  2  0
  5  6  1  0
  6  7  2  0
  7  8  1  0
  8  9  1  0
  8 10  1  0
  7 11  1  0
 11 12  1  0
 12 13  1  0
 12 14  1  0
 12 15  1  0
 11 16  1  0
 16 17  1  0
 17 18  2  0
 18 19  1  0
 18 20  1  0
 20 21  1  0
 20 22  2  0
 22 23  1  0
 22 24  1  0
 24 25  1  0
 24 26  2  0
 26 27  1  0
 16 28  1  0
 28 29  2  0
  4 30  1  0
 30 31  1  0
 31 32  1  0
 32 33  2  0
 33 34  1  0
 33 35  1  0
 35 36  1  0
 35 37  2  0
 37 38  1  0
 37 39  1  0
 39 40  1  0
 40 41  2  0
 40 42  1  0
 39 43  2  0
 43 44  1  0
 31  2  2  0
 43 32  1  0
 28  6  1  0
 26 17  1  0
M  CHG  3  30  -1  40   1  42  -1
M  END
>  <UniqueID>  (41) 
29

>  <SMILES>  (41) 
Cn1c(N)c(/N=c2\[n-]c(-c3cccc([N+](=O)[O-])c3)cs2)c(=O)n1-c1ccccc1

>  <Energy>  (41) 
128.89770299645846

>  <Genealogy>  (41) 
Cn1c(N)c(N=c2[n-]c(-c3cccc([N+](=O)[O-])c3)cs2)c(=O)n1-c1ccccc1 (protonated)
Cn1c(N)c(/N=c2\[n-]c(-c3cccc([N+](=O)[O-])c3)cs2)c(=O)n1-c1ccccc1 (cis-trans isomerization)
Cn1c(N)c(/N=c2\[n-]c(-c3cccc([N+](=O)[O-])c3)cs2)c(=O)n1-c1ccccc1 (3D coordinates assigned)
Cn1c(N)c(/N=c2\[n-]c(-c3cccc([N+](=O)[O-])c3)cs2)c(=O)n1-c1ccccc1 (optimized conformer: 128.89770299645846 kcal/mol)

>  <smiles>  (41) 
Cn1c(N)c(N=c2[nH]c(-c3cccc([N+](=O)[O-])c3)cs2)c(=O)n1-c1ccccc1

>  <score_type>  (41) 
oracle

>  <origin>  (41) 
autodockgpu

>  <m_score__min__energy>  (41) 
-8.8200000000000003

>  <m_primary>  (41) 
energy

>  <meeko>  (41) 
{"free_energy": -8.18, "intermolecular_energy": -9.97, "internal_energy": -1.93, "cluster_size": 17, "cluster_id": 1, "rank_in_cluster": 11}

>  <energy>  (41) 
-8.82

>  <cluster_rmsd>  (41) 
0.0

>  <rmsd>  (41) 
271.41

>  <cluster>  (41) 
1

$$$$
DVQUYCKLNVLYBS-HNRYJENLNA-M
     RDKit          3D

 44 47  0  0  0  0  0  0  0  0999 V2000
  142.5633   75.8712  221.0038 H   0  0  0  0  0  0  0  0  0  0  0  0
  141.6870   75.2500  221.2410 C   0  0  0  0  0  0  0  0  0  0  0  0
  141.4950   73.6260  220.8450 S   0  0  0  0  0  0  0  0  0  0  0  0
  139.9730   73.5330  221.5390 C   0  0  0  0  0  0  0  0  0  0  0  0
  139.2710   72.4420  221.5890 N   0  0  0  0  0  0  0  0  0  0  0  0
  139.0830   71.6120  222.7460 C   0  0  0  0  0  0  0  0  0  0  0  0
  137.9320   70.9230  223.0710 C   0  0  0  0  0  0  0  0  0  0  0  0
  136.7590   70.8380  222.2600 N   0  0  0  0  0  0  0  0  0  0  0  0
  136.6820   71.3590  221.3580 H   0  0  0  0  0  0  0  0  0  0  0  0
  135.9390   70.2760  222.5780 H   0  0  0  0  0  0  0  0  0  0  0  0
  138.0940   70.3190  224.2730 N   0  0  0  0  0  0  0  0  0  0  0  0
  137.0930   69.5060  224.9700 C   0  0  0  0  0  0  0  0  0  0  0  0
  137.2254   69.6135  226.0567 H   0  0  0  0  0  0  0  0  0  0  0  0
  136.0850   69.8444  224.6882 H   0  0  0  0  0  0  0  0  0  0  0  0
  137.2175   68.4500  224.6882 H   0  0  0  0  0  0  0  0  0  0  0  0
  139.3150   70.6030  224.7240 N   0  0  0  0  0  0  0  0  0  0  0  0
  139.8960   70.1230  225.9490 C   0  0  0  0  0  0  0  0  0  0  0  0
  140.0040   68.7430  226.1910 C   0  0  0  0  0  0  0  0  0  0  0  0
  139.6300   68.0251  225.4461 H   0  0  0  0  0  0  0  0  0  0  0  0
  140.5850   68.2790  227.3750 C   0  0  0  0  0  0  0  0  0  0  0  0
  140.6620   67.1978  227.5621 H   0  0  0  0  0  0  0  0  0  0  0  0
  141.0680   69.1870  228.3210 C   0  0  0  0  0  0  0  0  0  0  0  0
  141.5226   68.8199  229.2530 H   0  0  0  0  0  0  0  0  0  0  0  0
  140.9740   70.5610  228.0840 C   0  0  0  0  0  0  0  0  0  0  0  0
  141.3571   71.2747  228.8282 H   0  0  0  0  0  0  0  0  0  0  0  0
  140.3930   71.0290  226.9010 C   0  0  0  0  0  0  0  0  0  0  0  0
  140.3249   72.1110  226.7151 H   0  0  0  0  0  0  0  0  0  0  0  0
  139.9250   71.4070  223.8260 C   0  0  0  0  0  0  0  0  0  0  0  0
  141.0710   71.9060  223.9840 O   0  0  0  0  0  0  0  0  0  0  0  0
  139.5970   74.7070  222.0870 N   0  0  0  0  0  0  0  0  0  0  0  0
  140.5410   75.6760  221.9240 C   0  0  0  0  0  0  0  0  0  0  0  0
  140.3260   77.0560  222.4350 C   0  0  0  0  0  0  0  0  0  0  0  0
  139.0360   77.5520  222.6960 C   0  0  0  0  0  0  0  0  0  0  0  0
  138.1592   76.9109  222.5222 H   0  0  0  0  0  0  0  0  0  0  0  0
  138.8600   78.8520  223.1740 C   0  0  0  0  0  0  0  0  0  0  0  0
  137.8463   79.2276  223.3774 H   0  0  0  0  0  0  0  0  0  0  0  0
  139.9630   79.6770  223.3950 C   0  0  0  0  0  0  0  0  0  0  0  0
  139.8142   80.6991  223.7735 H   0  0  0  0  0  0  0  0  0  0  0  0
  141.2630   79.2100  223.1370 C   0  0  0  0  0  0  0  0  0  0  0  0
  142.4050   80.0570  223.3610 N   0  0  0  0  0  0  0  0  0  0  0  0
  143.4910   79.8280  222.7890 O   0  0  0  0  0  0  0  0  0  0  0  0
  142.3210   81.1360  224.2110 O   0  0  0  0  0  0  0  0  0  0  0  0
  141.4330   77.8990  222.6550 C   0  0  0  0  0  0  0  0  0  0  0  0
  142.4468   77.5263  222.4466 H   0  0  0  0  0  0  0  0  0  0  0  0
  1  2  1  0
  2  3  1  0
  3  4  1  0
  4  5  2  0
  5  6  1  0
  6  7  2  0
  7  8  1  0
  8  9  1  0
  8 10  1  0
  7 11  1  0
 11 12  1  0
 12 13  1  0
 12 14  1  0
 12 15  1  0
 11 16  1  0
 16 17  1  0
 17 18  2  0
 18 19  1  0
 18 20  1  0
 20 21  1  0
 20 22  2  0
 22 23  1  0
 22 24  1  0
 24 25  1  0
 24 26  2  0
 26 27  1  0
 16 28  1  0
 28 29  2  0
  4 30  1  0
 30 31  1  0
 31 32  1  0
 32 33  2  0
 33 34  1  0
 33 35  1  0
 35 36  1  0
 35 37  2  0
 37 38  1  0
 37 39  1  0
 39 40  1  0
 40 41  2  0
 40 42  1  0
 39 43  2  0
 43 44  1  0
 31  2  2  0
 43 32  1  0
 28  6  1  0
 26 17  1  0
M  CHG  3  30  -1  40   1  42  -1
M  END
>  <UniqueID>  (42) 
29

>  <SMILES>  (42) 
Cn1c(N)c(/N=c2\[n-]c(-c3cccc([N+](=O)[O-])c3)cs2)c(=O)n1-c1ccccc1

>  <Energy>  (42) 
128.89770299645846

>  <Genealogy>  (42) 
Cn1c(N)c(N=c2[n-]c(-c3cccc([N+](=O)[O-])c3)cs2)c(=O)n1-c1ccccc1 (protonated)
Cn1c(N)c(/N=c2\[n-]c(-c3cccc([N+](=O)[O-])c3)cs2)c(=O)n1-c1ccccc1 (cis-trans isomerization)
Cn1c(N)c(/N=c2\[n-]c(-c3cccc([N+](=O)[O-])c3)cs2)c(=O)n1-c1ccccc1 (3D coordinates assigned)
Cn1c(N)c(/N=c2\[n-]c(-c3cccc([N+](=O)[O-])c3)cs2)c(=O)n1-c1ccccc1 (optimized conformer: 128.89770299645846 kcal/mol)

>  <smiles>  (42) 
Cn1c(N)c(N=c2[nH]c(-c3cccc([N+](=O)[O-])c3)cs2)c(=O)n1-c1ccccc1

>  <score_type>  (42) 
oracle

>  <origin>  (42) 
autodockgpu

>  <m_score__min__energy>  (42) 
-8.8200000000000003

>  <m_primary>  (42) 
energy

>  <meeko>  (42) 
{"free_energy": -8.26, "intermolecular_energy": -10.05, "internal_energy": -1.32, "cluster_size": 2, "cluster_id": 2, "rank_in_cluster": 1}

>  <energy>  (42) 
-8.78

>  <cluster_rmsd>  (42) 
0.69

>  <rmsd>  (42) 
271.19

>  <cluster>  (42) 
1

$$$$
DVQUYCKLNVLYBS-HNRYJENLNA-M
     RDKit          3D

 44 47  0  0  0  0  0  0  0  0999 V2000
  139.8037   69.4729  222.2353 H   0  0  0  0  0  0  0  0  0  0  0  0
  139.9550   70.5570  222.1260 C   0  0  0  0  0  0  0  0  0  0  0  0
  139.8920   71.4200  220.6820 S   0  0  0  0  0  0  0  0  0  0  0  0
  140.2300   72.8830  221.4250 C   0  0  0  0  0  0  0  0  0  0  0  0
  140.2840   74.0150  220.7920 N   0  0  0  0  0  0  0  0  0  0  0  0
  140.1450   75.3180  221.3810 C   0  0  0  0  0  0  0  0  0  0  0  0
  139.0310   75.7940  222.0420 C   0  0  0  0  0  0  0  0  0  0  0  0
  137.8560   75.0360  222.3400 N   0  0  0  0  0  0  0  0  0  0  0  0
  137.9150   74.0950  222.7860 H   0  0  0  0  0  0  0  0  0  0  0  0
  136.9140   75.4040  222.0810 H   0  0  0  0  0  0  0  0  0  0  0  0
  139.2300   77.0900  222.3850 N   0  0  0  0  0  0  0  0  0  0  0  0
  138.2750   77.9520  223.0860 C   0  0  0  0  0  0  0  0  0  0  0  0
  138.4043   77.8352  224.1721 H   0  0  0  0  0  0  0  0  0  0  0  0
  138.4536   79.0007  222.8061 H   0  0  0  0  0  0  0  0  0  0  0  0
  137.2500   77.6673  222.8061 H   0  0  0  0  0  0  0  0  0  0  0  0
  140.4400   77.4540  221.9620 N   0  0  0  0  0  0  0  0  0  0  0  0
  141.0530   78.7400  222.1600 C   0  0  0  0  0  0  0  0  0  0  0  0
  141.7450   79.0200  223.3500 C   0  0  0  0  0  0  0  0  0  0  0  0
  141.8063   78.2577  224.1407 H   0  0  0  0  0  0  0  0  0  0  0  0
  142.3560   80.2640  223.5330 C   0  0  0  0  0  0  0  0  0  0  0  0
  142.8927   80.4798  224.4686 H   0  0  0  0  0  0  0  0  0  0  0  0
  142.2860   81.2340  222.5290 C   0  0  0  0  0  0  0  0  0  0  0  0
  142.7644   82.2136  222.6761 H   0  0  0  0  0  0  0  0  0  0  0  0
  141.6080   80.9590  221.3380 C   0  0  0  0  0  0  0  0  0  0  0  0
  141.5562   81.7214  220.5467 H   0  0  0  0  0  0  0  0  0  0  0  0
  140.9950   79.7150  221.1510 C   0  0  0  0  0  0  0  0  0  0  0  0
  140.4661   79.5002  220.2107 H   0  0  0  0  0  0  0  0  0  0  0  0
  141.0040   76.4020  221.3270 C   0  0  0  0  0  0  0  0  0  0  0  0
  142.1270   76.4380  220.7570 O   0  0  0  0  0  0  0  0  0  0  0  0
  140.3790   72.7480  222.7600 N   0  0  0  0  0  0  0  0  0  0  0  0
  140.2330   71.4550  223.1650 C   0  0  0  0  0  0  0  0  0  0  0  0
  140.3750   71.0740  224.5950 C   0  0  0  0  0  0  0  0  0  0  0  0
  140.7040   72.0230  225.5800 C   0  0  0  0  0  0  0  0  0  0  0  0
  140.8600   73.0740  225.2953 H   0  0  0  0  0  0  0  0  0  0  0  0
  140.8340   71.6400  226.9170 C   0  0  0  0  0  0  0  0  0  0  0  0
  141.0890   72.3912  227.6791 H   0  0  0  0  0  0  0  0  0  0  0  0
  140.6420   70.3090  227.2910 C   0  0  0  0  0  0  0  0  0  0  0  0
  140.7450   70.0172  228.3466 H   0  0  0  0  0  0  0  0  0  0  0  0
  140.3180   69.3400  226.3270 C   0  0  0  0  0  0  0  0  0  0  0  0
  140.1200   67.9650  226.7060 N   0  0  0  0  0  0  0  0  0  0  0  0
  139.1800   67.3000  226.2240 O   0  0  0  0  0  0  0  0  0  0  0  0
  140.9660   67.3590  227.6080 O   0  0  0  0  0  0  0  0  0  0  0  0
  140.1890   69.7320  224.9820 C   0  0  0  0  0  0  0  0  0  0  0  0
  139.9389   68.9788  224.2203 H   0  0  0  0  0  0  0  0  0  0  0  0
  1  2  1  0
  2  3  1  0
  3  4  1  0
  4  5  2  0
  5  6  1  0
  6  7  2  0
  7  8  1  0
  8  9  1  0
  8 10  1  0
  7 11  1  0
 11 12  1  0
 12 13  1  0
 12 14  1  0
 12 15  1  0
 11 16  1  0
 16 17  1  0
 17 18  2  0
 18 19  1  0
 18 20  1  0
 20 21  1  0
 20 22  2  0
 22 23  1  0
 22 24  1  0
 24 25  1  0
 24 26  2  0
 26 27  1  0
 16 28  1  0
 28 29  2  0
  4 30  1  0
 30 31  1  0
 31 32  1  0
 32 33  2  0
 33 34  1  0
 33 35  1  0
 35 36  1  0
 35 37  2  0
 37 38  1  0
 37 39  1  0
 39 40  1  0
 40 41  2  0
 40 42  1  0
 39 43  2  0
 43 44  1  0
 31  2  2  0
 43 32  1  0
 28  6  1  0
 26 17  1  0
M  CHG  3  30  -1  40   1  42  -1
M  END
>  <UniqueID>  (43) 
29

>  <SMILES>  (43) 
Cn1c(N)c(/N=c2\[n-]c(-c3cccc([N+](=O)[O-])c3)cs2)c(=O)n1-c1ccccc1

>  <Energy>  (43) 
128.89770299645846

>  <Genealogy>  (43) 
Cn1c(N)c(N=c2[n-]c(-c3cccc([N+](=O)[O-])c3)cs2)c(=O)n1-c1ccccc1 (protonated)
Cn1c(N)c(/N=c2\[n-]c(-c3cccc([N+](=O)[O-])c3)cs2)c(=O)n1-c1ccccc1 (cis-trans isomerization)
Cn1c(N)c(/N=c2\[n-]c(-c3cccc([N+](=O)[O-])c3)cs2)c(=O)n1-c1ccccc1 (3D coordinates assigned)
Cn1c(N)c(/N=c2\[n-]c(-c3cccc([N+](=O)[O-])c3)cs2)c(=O)n1-c1ccccc1 (optimized conformer: 128.89770299645846 kcal/mol)

>  <smiles>  (43) 
Cn1c(N)c(N=c2[nH]c(-c3cccc([N+](=O)[O-])c3)cs2)c(=O)n1-c1ccccc1

>  <score_type>  (43) 
oracle

>  <origin>  (43) 
autodockgpu

>  <m_score__min__energy>  (43) 
-8.8200000000000003

>  <m_primary>  (43) 
energy

>  <meeko>  (43) 
{"free_energy": -8.44, "intermolecular_energy": -10.23, "internal_energy": -1.45, "cluster_size": 17, "cluster_id": 1, "rank_in_cluster": 7}

>  <energy>  (43) 
-8.71

>  <cluster_rmsd>  (43) 
0.66

>  <rmsd>  (43) 
271.18

>  <cluster>  (43) 
1

$$$$
DVQUYCKLNVLYBS-HNRYJENLNA-M
     RDKit          3D

 44 47  0  0  0  0  0  0  0  0999 V2000
  139.8064   69.8742  221.3049 H   0  0  0  0  0  0  0  0  0  0  0  0
  140.1080   70.9300  221.3700 C   0  0  0  0  0  0  0  0  0  0  0  0
  140.4160   71.9480  220.0660 S   0  0  0  0  0  0  0  0  0  0  0  0
  140.7920   73.2540  221.0460 C   0  0  0  0  0  0  0  0  0  0  0  0
  141.1010   74.4300  220.5900 N   0  0  0  0  0  0  0  0  0  0  0  0
  140.7720   75.6860  221.2050 C   0  0  0  0  0  0  0  0  0  0  0  0
  139.6360   75.9550  221.9420 C   0  0  0  0  0  0  0  0  0  0  0  0
  138.6370   74.9990  222.3040 N   0  0  0  0  0  0  0  0  0  0  0  0
  137.6220   75.1920  222.1580 H   0  0  0  0  0  0  0  0  0  0  0  0
  138.9100   74.0990  222.7580 H   0  0  0  0  0  0  0  0  0  0  0  0
  139.6250   77.2640  222.2900 N   0  0  0  0  0  0  0  0  0  0  0  0
  138.5800   77.9410  223.0620 C   0  0  0  0  0  0  0  0  0  0  0  0
  138.7771   77.8133  224.1366 H   0  0  0  0  0  0  0  0  0  0  0  0
  138.5775   79.0128  222.8145 H   0  0  0  0  0  0  0  0  0  0  0  0
  137.6008   77.5052  222.8145 H   0  0  0  0  0  0  0  0  0  0  0  0
  140.7210   77.8390  221.7950 N   0  0  0  0  0  0  0  0  0  0  0  0
  141.1080   79.2130  221.9710 C   0  0  0  0  0  0  0  0  0  0  0  0
  140.7540   80.1770  221.0130 C   0  0  0  0  0  0  0  0  0  0  0  0
  140.1906   79.8778  220.1169 H   0  0  0  0  0  0  0  0  0  0  0  0
  141.1150   81.5160  221.1940 C   0  0  0  0  0  0  0  0  0  0  0  0
  140.8407   82.2664  220.4379 H   0  0  0  0  0  0  0  0  0  0  0  0
  141.8240   81.9010  222.3350 C   0  0  0  0  0  0  0  0  0  0  0  0
  142.1102   82.9539  222.4746 H   0  0  0  0  0  0  0  0  0  0  0  0
  142.1700   80.9500  223.2990 C   0  0  0  0  0  0  0  0  0  0  0  0
  142.7247   81.2553  224.1985 H   0  0  0  0  0  0  0  0  0  0  0  0
  141.8110   79.6100  223.1200 C   0  0  0  0  0  0  0  0  0  0  0  0
  142.0804   78.8642  223.8823 H   0  0  0  0  0  0  0  0  0  0  0  0
  141.4190   76.9050  221.1110 C   0  0  0  0  0  0  0  0  0  0  0  0
  142.4780   77.1420  220.4700 O   0  0  0  0  0  0  0  0  0  0  0  0
  140.6770   72.9510  222.3560 N   0  0  0  0  0  0  0  0  0  0  0  0
  140.3010   71.6560  222.5530 C   0  0  0  0  0  0  0  0  0  0  0  0
  140.1320   71.1010  223.9220 C   0  0  0  0  0  0  0  0  0  0  0  0
  139.4090   69.9160  224.1510 C   0  0  0  0  0  0  0  0  0  0  0  0
  138.9556   69.3805  223.3039 H   0  0  0  0  0  0  0  0  0  0  0  0
  139.2630   69.4150  225.4460 C   0  0  0  0  0  0  0  0  0  0  0  0
  138.6997   68.4850  225.6126 H   0  0  0  0  0  0  0  0  0  0  0  0
  139.8280   70.0880  226.5300 C   0  0  0  0  0  0  0  0  0  0  0  0
  139.7075   69.6853  227.5465 H   0  0  0  0  0  0  0  0  0  0  0  0
  140.5500   71.2770  226.3310 C   0  0  0  0  0  0  0  0  0  0  0  0
  141.1340   71.9770  227.4450 N   0  0  0  0  0  0  0  0  0  0  0  0
  142.1630   72.6680  227.2950 O   0  0  0  0  0  0  0  0  0  0  0  0
  140.5690   71.8950  228.6970 O   0  0  0  0  0  0  0  0  0  0  0  0
  140.6930   71.7760  225.0230 C   0  0  0  0  0  0  0  0  0  0  0  0
  141.2522   72.7087  224.8580 H   0  0  0  0  0  0  0  0  0  0  0  0
  1  2  1  0
  2  3  1  0
  3  4  1  0
  4  5  2  0
  5  6  1  0
  6  7  2  0
  7  8  1  0
  8  9  1  0
  8 10  1  0
  7 11  1  0
 11 12  1  0
 12 13  1  0
 12 14  1  0
 12 15  1  0
 11 16  1  0
 16 17  1  0
 17 18  2  0
 18 19  1  0
 18 20  1  0
 20 21  1  0
 20 22  2  0
 22 23  1  0
 22 24  1  0
 24 25  1  0
 24 26  2  0
 26 27  1  0
 16 28  1  0
 28 29  2  0
  4 30  1  0
 30 31  1  0
 31 32  1  0
 32 33  2  0
 33 34  1  0
 33 35  1  0
 35 36  1  0
 35 37  2  0
 37 38  1  0
 37 39  1  0
 39 40  1  0
 40 41  2  0
 40 42  1  0
 39 43  2  0
 43 44  1  0
 31  2  2  0
 43 32  1  0
 28  6  1  0
 26 17  1  0
M  CHG  3  30  -1  40   1  42  -1
M  END
>  <UniqueID>  (44) 
29

>  <SMILES>  (44) 
Cn1c(N)c(/N=c2\[n-]c(-c3cccc([N+](=O)[O-])c3)cs2)c(=O)n1-c1ccccc1

>  <Energy>  (44) 
128.89770299645846

>  <Genealogy>  (44) 
Cn1c(N)c(N=c2[n-]c(-c3cccc([N+](=O)[O-])c3)cs2)c(=O)n1-c1ccccc1 (protonated)
Cn1c(N)c(/N=c2\[n-]c(-c3cccc([N+](=O)[O-])c3)cs2)c(=O)n1-c1ccccc1 (cis-trans isomerization)
Cn1c(N)c(/N=c2\[n-]c(-c3cccc([N+](=O)[O-])c3)cs2)c(=O)n1-c1ccccc1 (3D coordinates assigned)
Cn1c(N)c(/N=c2\[n-]c(-c3cccc([N+](=O)[O-])c3)cs2)c(=O)n1-c1ccccc1 (optimized conformer: 128.89770299645846 kcal/mol)

>  <smiles>  (44) 
Cn1c(N)c(N=c2[nH]c(-c3cccc([N+](=O)[O-])c3)cs2)c(=O)n1-c1ccccc1

>  <score_type>  (44) 
oracle

>  <origin>  (44) 
autodockgpu

>  <m_score__min__energy>  (44) 
-8.8200000000000003

>  <m_primary>  (44) 
energy

>  <meeko>  (44) 
{"free_energy": -8.19, "intermolecular_energy": -9.98, "internal_energy": -1.92, "cluster_size": 17, "cluster_id": 1, "rank_in_cluster": 10}

>  <energy>  (44) 
-8.7

>  <cluster_rmsd>  (44) 
0.68

>  <rmsd>  (44) 
271.18

>  <cluster>  (44) 
1

$$$$
DVQUYCKLNVLYBS-HNRYJENLNA-M
     RDKit          3D

 44 47  0  0  0  0  0  0  0  0999 V2000
  133.9464   74.1510  226.2204 H   0  0  0  0  0  0  0  0  0  0  0  0
  134.5440   74.5510  225.3880 C   0  0  0  0  0  0  0  0  0  0  0  0
  134.6840   76.1750  224.9670 S   0  0  0  0  0  0  0  0  0  0  0  0
  135.7010   75.8550  223.6750 C   0  0  0  0  0  0  0  0  0  0  0  0
  136.2200   76.7780  222.9230 N   0  0  0  0  0  0  0  0  0  0  0  0
  137.6210   76.9810  222.6810 C   0  0  0  0  0  0  0  0  0  0  0  0
  138.5260   76.0120  222.2970 C   0  0  0  0  0  0  0  0  0  0  0  0
  138.2040   74.6560  221.9780 N   0  0  0  0  0  0  0  0  0  0  0  0
  137.8620   73.9920  222.7070 H   0  0  0  0  0  0  0  0  0  0  0  0
  138.3410   74.2980  221.0070 H   0  0  0  0  0  0  0  0  0  0  0  0
  139.7680   76.5500  222.2470 N   0  0  0  0  0  0  0  0  0  0  0  0
  141.0010   75.8410  221.8960 C   0  0  0  0  0  0  0  0  0  0  0  0
  141.5250   75.5397  222.8150 H   0  0  0  0  0  0  0  0  0  0  0  0
  140.7542   74.9469  221.3047 H   0  0  0  0  0  0  0  0  0  0  0  0
  141.6496   76.5041  221.3047 H   0  0  0  0  0  0  0  0  0  0  0  0
  139.6820   77.8350  222.5890 N   0  0  0  0  0  0  0  0  0  0  0  0
  140.7700   78.7750  222.6250 C   0  0  0  0  0  0  0  0  0  0  0  0
  141.4790   78.9920  223.8180 C   0  0  0  0  0  0  0  0  0  0  0  0
  141.1921   78.4519  224.7323 H   0  0  0  0  0  0  0  0  0  0  0  0
  142.5490   79.8930  223.8470 C   0  0  0  0  0  0  0  0  0  0  0  0
  143.0980   80.0639  224.7847 H   0  0  0  0  0  0  0  0  0  0  0  0
  142.9210   80.5760  222.6860 C   0  0  0  0  0  0  0  0  0  0  0  0
  143.7605   81.2863  222.7112 H   0  0  0  0  0  0  0  0  0  0  0  0
  142.2270   80.3570  221.4930 C   0  0  0  0  0  0  0  0  0  0  0  0
  142.5229   80.8926  220.5789 H   0  0  0  0  0  0  0  0  0  0  0  0
  141.1560   79.4570  221.4600 C   0  0  0  0  0  0  0  0  0  0  0  0
  140.6147   79.2833  220.5183 H   0  0  0  0  0  0  0  0  0  0  0  0
  138.3910   78.1130  222.8810 C   0  0  0  0  0  0  0  0  0  0  0  0
  137.9840   79.2300  223.2980 O   0  0  0  0  0  0  0  0  0  0  0  0
  135.9610   74.5370  223.5520 N   0  0  0  0  0  0  0  0  0  0  0  0
  135.3180   73.7960  224.4980 C   0  0  0  0  0  0  0  0  0  0  0  0
  135.4480   72.3150  224.5380 C   0  0  0  0  0  0  0  0  0  0  0  0
  136.4700   71.6470  223.8390 C   0  0  0  0  0  0  0  0  0  0  0  0
  137.1952   72.2251  223.2475 H   0  0  0  0  0  0  0  0  0  0  0  0
  136.5700   70.2550  223.8910 C   0  0  0  0  0  0  0  0  0  0  0  0
  137.3750   69.7435  223.3429 H   0  0  0  0  0  0  0  0  0  0  0  0
  135.6550   69.5100  224.6340 C   0  0  0  0  0  0  0  0  0  0  0  0
  135.7429   68.4141  224.6694 H   0  0  0  0  0  0  0  0  0  0  0  0
  134.6210   70.1510  225.3380 C   0  0  0  0  0  0  0  0  0  0  0  0
  133.6720   69.3870  226.1060 N   0  0  0  0  0  0  0  0  0  0  0  0
  132.5840   69.8890  226.4550 O   0  0  0  0  0  0  0  0  0  0  0  0
  133.9480   68.0880  226.4670 O   0  0  0  0  0  0  0  0  0  0  0  0
  134.5250   71.5530  225.2810 C   0  0  0  0  0  0  0  0  0  0  0  0
  133.7163   72.0627  225.8253 H   0  0  0  0  0  0  0  0  0  0  0  0
  1  2  1  0
  2  3  1  0
  3  4  1  0
  4  5  2  0
  5  6  1  0
  6  7  2  0
  7  8  1  0
  8  9  1  0
  8 10  1  0
  7 11  1  0
 11 12  1  0
 12 13  1  0
 12 14  1  0
 12 15  1  0
 11 16  1  0
 16 17  1  0
 17 18  2  0
 18 19  1  0
 18 20  1  0
 20 21  1  0
 20 22  2  0
 22 23  1  0
 22 24  1  0
 24 25  1  0
 24 26  2  0
 26 27  1  0
 16 28  1  0
 28 29  2  0
  4 30  1  0
 30 31  1  0
 31 32  1  0
 32 33  2  0
 33 34  1  0
 33 35  1  0
 35 36  1  0
 35 37  2  0
 37 38  1  0
 37 39  1  0
 39 40  1  0
 40 41  2  0
 40 42  1  0
 39 43  2  0
 43 44  1  0
 31  2  2  0
 43 32  1  0
 28  6  1  0
 26 17  1  0
M  CHG  3  30  -1  40   1  42  -1
M  END
>  <UniqueID>  (45) 
29

>  <SMILES>  (45) 
Cn1c(N)c(/N=c2\[n-]c(-c3cccc([N+](=O)[O-])c3)cs2)c(=O)n1-c1ccccc1

>  <Energy>  (45) 
128.89770299645846

>  <Genealogy>  (45) 
Cn1c(N)c(N=c2[n-]c(-c3cccc([N+](=O)[O-])c3)cs2)c(=O)n1-c1ccccc1 (protonated)
Cn1c(N)c(/N=c2\[n-]c(-c3cccc([N+](=O)[O-])c3)cs2)c(=O)n1-c1ccccc1 (cis-trans isomerization)
Cn1c(N)c(/N=c2\[n-]c(-c3cccc([N+](=O)[O-])c3)cs2)c(=O)n1-c1ccccc1 (3D coordinates assigned)
Cn1c(N)c(/N=c2\[n-]c(-c3cccc([N+](=O)[O-])c3)cs2)c(=O)n1-c1ccccc1 (optimized conformer: 128.89770299645846 kcal/mol)

>  <smiles>  (45) 
Cn1c(N)c(N=c2[nH]c(-c3cccc([N+](=O)[O-])c3)cs2)c(=O)n1-c1ccccc1

>  <score_type>  (45) 
oracle

>  <origin>  (45) 
autodockgpu

>  <m_score__min__energy>  (45) 
-8.8200000000000003

>  <m_primary>  (45) 
energy

>  <meeko>  (45) 
{"free_energy": -6.98, "intermolecular_energy": -8.77, "internal_energy": -1.89, "cluster_size": 1, "cluster_id": 3, "rank_in_cluster": 1}

>  <energy>  (45) 
-8.65

>  <cluster_rmsd>  (45) 
0.41

>  <rmsd>  (45) 
271.51

>  <cluster>  (45) 
1

$$$$
DVQUYCKLNVLYBS-HNRYJENLNA-M
     RDKit          3D

 44 47  0  0  0  0  0  0  0  0999 V2000
  139.3748   69.2961  223.6623 H   0  0  0  0  0  0  0  0  0  0  0  0
  139.5980   70.3220  223.3340 C   0  0  0  0  0  0  0  0  0  0  0  0
  139.3500   70.9370  221.7870 S   0  0  0  0  0  0  0  0  0  0  0  0
  139.9440   72.4520  222.1860 C   0  0  0  0  0  0  0  0  0  0  0  0
  139.9810   73.4510  221.3570 N   0  0  0  0  0  0  0  0  0  0  0  0
  139.9340   74.8430  221.7100 C   0  0  0  0  0  0  0  0  0  0  0  0
  138.8140   75.5370  222.1210 C   0  0  0  0  0  0  0  0  0  0  0  0
  137.5250   74.9660  222.3600 N   0  0  0  0  0  0  0  0  0  0  0  0
  137.3950   74.1810  223.0350 H   0  0  0  0  0  0  0  0  0  0  0  0
  136.6930   75.3080  221.8310 H   0  0  0  0  0  0  0  0  0  0  0  0
  139.1300   76.8440  222.2840 N   0  0  0  0  0  0  0  0  0  0  0  0
  138.2100   77.9080  222.6980 C   0  0  0  0  0  0  0  0  0  0  0  0
  138.1715   77.9526  223.7964 H   0  0  0  0  0  0  0  0  0  0  0  0
  138.5636   78.8723  222.3041 H   0  0  0  0  0  0  0  0  0  0  0  0
  137.2048   77.6974  222.3041 H   0  0  0  0  0  0  0  0  0  0  0  0
  140.4200   77.0040  221.9890 N   0  0  0  0  0  0  0  0  0  0  0  0
  141.1590   78.2340  222.0720 C   0  0  0  0  0  0  0  0  0  0  0  0
  141.3180   79.0440  220.9340 C   0  0  0  0  0  0  0  0  0  0  0  0
  140.8870   78.7286  219.9724 H   0  0  0  0  0  0  0  0  0  0  0  0
  142.0220   80.2490  221.0200 C   0  0  0  0  0  0  0  0  0  0  0  0
  142.1485   80.8765  220.1254 H   0  0  0  0  0  0  0  0  0  0  0  0
  142.5650   80.6570  222.2410 C   0  0  0  0  0  0  0  0  0  0  0  0
  143.1212   81.6038  222.3061 H   0  0  0  0  0  0  0  0  0  0  0  0
  142.4020   79.8630  223.3800 C   0  0  0  0  0  0  0  0  0  0  0  0
  142.8270   80.1872  224.3414 H   0  0  0  0  0  0  0  0  0  0  0  0
  141.6990   78.6570  223.2980 C   0  0  0  0  0  0  0  0  0  0  0  0
  141.5683   78.0370  224.1972 H   0  0  0  0  0  0  0  0  0  0  0  0
  140.9220   75.8070  221.6130 C   0  0  0  0  0  0  0  0  0  0  0  0
  142.1030   75.6280  221.2120 O   0  0  0  0  0  0  0  0  0  0  0  0
  140.3200   72.5220  223.4800 N   0  0  0  0  0  0  0  0  0  0  0  0
  140.1370   71.3390  224.1320 C   0  0  0  0  0  0  0  0  0  0  0  0
  140.5030   71.1840  225.5650 C   0  0  0  0  0  0  0  0  0  0  0  0
  141.0430   72.2500  226.3060 C   0  0  0  0  0  0  0  0  0  0  0  0
  141.2011   73.2257  225.8233 H   0  0  0  0  0  0  0  0  0  0  0  0
  141.3800   72.0790  227.6500 C   0  0  0  0  0  0  0  0  0  0  0  0
  141.7993   72.9211  228.2201 H   0  0  0  0  0  0  0  0  0  0  0  0
  141.1880   70.8460  228.2740 C   0  0  0  0  0  0  0  0  0  0  0  0
  141.4553   70.7217  229.3338 H   0  0  0  0  0  0  0  0  0  0  0  0
  140.6550   69.7620  227.5560 C   0  0  0  0  0  0  0  0  0  0  0  0
  140.4560   68.4860  228.1930 N   0  0  0  0  0  0  0  0  0  0  0  0
  139.4510   67.7930  227.9310 O   0  0  0  0  0  0  0  0  0  0  0  0
  141.3710   68.0090  229.1040 O   0  0  0  0  0  0  0  0  0  0  0  0
  140.3190   69.9410  226.2020 C   0  0  0  0  0  0  0  0  0  0  0  0
  139.9057   69.0965  225.6310 H   0  0  0  0  0  0  0  0  0  0  0  0
  1  2  1  0
  2  3  1  0
  3  4  1  0
  4  5  2  0
  5  6  1  0
  6  7  2  0
  7  8  1  0
  8  9  1  0
  8 10  1  0
  7 11  1  0
 11 12  1  0
 12 13  1  0
 12 14  1  0
 12 15  1  0
 11 16  1  0
 16 17  1  0
 17 18  2  0
 18 19  1  0
 18 20  1  0
 20 21  1  0
 20 22  2  0
 22 23  1  0
 22 24  1  0
 24 25  1  0
 24 26  2  0
 26 27  1  0
 16 28  1  0
 28 29  2  0
  4 30  1  0
 30 31  1  0
 31 32  1  0
 32 33  2  0
 33 34  1  0
 33 35  1  0
 35 36  1  0
 35 37  2  0
 37 38  1  0
 37 39  1  0
 39 40  1  0
 40 41  2  0
 40 42  1  0
 39 43  2  0
 43 44  1  0
 31  2  2  0
 43 32  1  0
 28  6  1  0
 26 17  1  0
M  CHG  3  30  -1  40   1  42  -1
M  END
>  <UniqueID>  (46) 
29

>  <SMILES>  (46) 
Cn1c(N)c(/N=c2\[n-]c(-c3cccc([N+](=O)[O-])c3)cs2)c(=O)n1-c1ccccc1

>  <Energy>  (46) 
128.89770299645846

>  <Genealogy>  (46) 
Cn1c(N)c(N=c2[n-]c(-c3cccc([N+](=O)[O-])c3)cs2)c(=O)n1-c1ccccc1 (protonated)
Cn1c(N)c(/N=c2\[n-]c(-c3cccc([N+](=O)[O-])c3)cs2)c(=O)n1-c1ccccc1 (cis-trans isomerization)
Cn1c(N)c(/N=c2\[n-]c(-c3cccc([N+](=O)[O-])c3)cs2)c(=O)n1-c1ccccc1 (3D coordinates assigned)
Cn1c(N)c(/N=c2\[n-]c(-c3cccc([N+](=O)[O-])c3)cs2)c(=O)n1-c1ccccc1 (optimized conformer: 128.89770299645846 kcal/mol)

>  <smiles>  (46) 
Cn1c(N)c(N=c2[nH]c(-c3cccc([N+](=O)[O-])c3)cs2)c(=O)n1-c1ccccc1

>  <score_type>  (46) 
oracle

>  <origin>  (46) 
autodockgpu

>  <m_score__min__energy>  (46) 
-8.8200000000000003

>  <m_primary>  (46) 
energy

>  <meeko>  (46) 
{"free_energy": -8.65, "intermolecular_energy": -10.44, "internal_energy": -1.34, "cluster_size": 17, "cluster_id": 1, "rank_in_cluster": 5}

>  <energy>  (46) 
-8.56

>  <cluster_rmsd>  (46) 
0.84

>  <rmsd>  (46) 
271.1

>  <cluster>  (46) 
1

$$$$
DVQUYCKLNVLYBS-HNRYJENLNA-M
     RDKit          3D

 44 47  0  0  0  0  0  0  0  0999 V2000
  139.8105   69.9159  221.2811 H   0  0  0  0  0  0  0  0  0  0  0  0
  140.1160   70.9700  221.3550 C   0  0  0  0  0  0  0  0  0  0  0  0
  140.4060   72.0050  220.0590 S   0  0  0  0  0  0  0  0  0  0  0  0
  140.8010   73.2970  221.0500 C   0  0  0  0  0  0  0  0  0  0  0  0
  141.1060   74.4780  220.6040 N   0  0  0  0  0  0  0  0  0  0  0  0
  140.7630   75.7270  221.2240 C   0  0  0  0  0  0  0  0  0  0  0  0
  139.6250   75.9800  221.9640 C   0  0  0  0  0  0  0  0  0  0  0  0
  138.6380   75.0100  222.3250 N   0  0  0  0  0  0  0  0  0  0  0  0
  138.9060   74.0890  222.7360 H   0  0  0  0  0  0  0  0  0  0  0  0
  137.6270   75.1990  222.1480 H   0  0  0  0  0  0  0  0  0  0  0  0
  139.5980   77.2870  222.3170 N   0  0  0  0  0  0  0  0  0  0  0  0
  138.5470   77.9490  223.0940 C   0  0  0  0  0  0  0  0  0  0  0  0
  138.7493   77.8215  224.1677 H   0  0  0  0  0  0  0  0  0  0  0  0
  138.5299   79.0212  222.8488 H   0  0  0  0  0  0  0  0  0  0  0  0
  137.5726   77.5013  222.8488 H   0  0  0  0  0  0  0  0  0  0  0  0
  140.6860   77.8770  221.8220 N   0  0  0  0  0  0  0  0  0  0  0  0
  141.0560   79.2550  222.0020 C   0  0  0  0  0  0  0  0  0  0  0  0
  141.6150   79.6860  223.2170 C   0  0  0  0  0  0  0  0  0  0  0  0
  141.7574   78.9697  224.0395 H   0  0  0  0  0  0  0  0  0  0  0  0
  141.9910   81.0230  223.3840 C   0  0  0  0  0  0  0  0  0  0  0  0
  142.4235   81.3567  224.3388 H   0  0  0  0  0  0  0  0  0  0  0  0
  141.8180   81.9350  222.3400 C   0  0  0  0  0  0  0  0  0  0  0  0
  142.1121   82.9864  222.4742 H   0  0  0  0  0  0  0  0  0  0  0  0
  141.2710   81.5120  221.1240 C   0  0  0  0  0  0  0  0  0  0  0  0
  141.1372   82.2301  220.3016 H   0  0  0  0  0  0  0  0  0  0  0  0
  140.8940   80.1750  220.9540 C   0  0  0  0  0  0  0  0  0  0  0  0
  140.4689   79.8435  219.9951 H   0  0  0  0  0  0  0  0  0  0  0  0
  141.3950   76.9550  221.1330 C   0  0  0  0  0  0  0  0  0  0  0  0
  142.4490   77.2070  220.4910 O   0  0  0  0  0  0  0  0  0  0  0  0
  140.7070   72.9770  222.3580 N   0  0  0  0  0  0  0  0  0  0  0  0
  140.3300   71.6800  222.5430 C   0  0  0  0  0  0  0  0  0  0  0  0
  140.1810   71.1080  223.9080 C   0  0  0  0  0  0  0  0  0  0  0  0
  139.5410   69.8730  224.1220 C   0  0  0  0  0  0  0  0  0  0  0  0
  139.1398   69.3099  223.2664 H   0  0  0  0  0  0  0  0  0  0  0  0
  139.4120   69.3580  225.4130 C   0  0  0  0  0  0  0  0  0  0  0  0
  138.9123   68.3904  225.5681 H   0  0  0  0  0  0  0  0  0  0  0  0
  139.9130   70.0630  226.5080 C   0  0  0  0  0  0  0  0  0  0  0  0
  139.8079   69.6474  227.5210 H   0  0  0  0  0  0  0  0  0  0  0  0
  140.5510   71.3010  226.3230 C   0  0  0  0  0  0  0  0  0  0  0  0
  141.0680   72.0350  227.4490 N   0  0  0  0  0  0  0  0  0  0  0  0
  142.1630   72.6310  227.3720 O   0  0  0  0  0  0  0  0  0  0  0  0
  140.3650   72.0920  228.6300 O   0  0  0  0  0  0  0  0  0  0  0  0
  140.6770   71.8160  225.0200 C   0  0  0  0  0  0  0  0  0  0  0  0
  141.1707   72.7870  224.8672 H   0  0  0  0  0  0  0  0  0  0  0  0
  1  2  1  0
  2  3  1  0
  3  4  1  0
  4  5  2  0
  5  6  1  0
  6  7  2  0
  7  8  1  0
  8  9  1  0
  8 10  1  0
  7 11  1  0
 11 12  1  0
 12 13  1  0
 12 14  1  0
 12 15  1  0
 11 16  1  0
 16 17  1  0
 17 18  2  0
 18 19  1  0
 18 20  1  0
 20 21  1  0
 20 22  2  0
 22 23  1  0
 22 24  1  0
 24 25  1  0
 24 26  2  0
 26 27  1  0
 16 28  1  0
 28 29  2  0
  4 30  1  0
 30 31  1  0
 31 32  1  0
 32 33  2  0
 33 34  1  0
 33 35  1  0
 35 36  1  0
 35 37  2  0
 37 38  1  0
 37 39  1  0
 39 40  1  0
 40 41  2  0
 40 42  1  0
 39 43  2  0
 43 44  1  0
 31  2  2  0
 43 32  1  0
 28  6  1  0
 26 17  1  0
M  CHG  3  30  -1  40   1  42  -1
M  END
>  <UniqueID>  (47) 
29

>  <SMILES>  (47) 
Cn1c(N)c(/N=c2\[n-]c(-c3cccc([N+](=O)[O-])c3)cs2)c(=O)n1-c1ccccc1

>  <Energy>  (47) 
128.89770299645846

>  <Genealogy>  (47) 
Cn1c(N)c(N=c2[n-]c(-c3cccc([N+](=O)[O-])c3)cs2)c(=O)n1-c1ccccc1 (protonated)
Cn1c(N)c(/N=c2\[n-]c(-c3cccc([N+](=O)[O-])c3)cs2)c(=O)n1-c1ccccc1 (cis-trans isomerization)
Cn1c(N)c(/N=c2\[n-]c(-c3cccc([N+](=O)[O-])c3)cs2)c(=O)n1-c1ccccc1 (3D coordinates assigned)
Cn1c(N)c(/N=c2\[n-]c(-c3cccc([N+](=O)[O-])c3)cs2)c(=O)n1-c1ccccc1 (optimized conformer: 128.89770299645846 kcal/mol)

>  <smiles>  (47) 
Cn1c(N)c(N=c2[nH]c(-c3cccc([N+](=O)[O-])c3)cs2)c(=O)n1-c1ccccc1

>  <score_type>  (47) 
oracle

>  <origin>  (47) 
autodockgpu

>  <m_score__min__energy>  (47) 
-8.8200000000000003

>  <m_primary>  (47) 
energy

>  <meeko>  (47) 
{"free_energy": -8.14, "intermolecular_energy": -9.93, "internal_energy": -1.93, "cluster_size": 17, "cluster_id": 1, "rank_in_cluster": 13}

>  <energy>  (47) 
-8.44

>  <cluster_rmsd>  (47) 
0.78

>  <rmsd>  (47) 
271.13

>  <cluster>  (47) 
1

$$$$
DVQUYCKLNVLYBS-HNRYJENLNA-M
     RDKit          3D

 44 47  0  0  0  0  0  0  0  0999 V2000
  139.6813   69.8734  221.3220 H   0  0  0  0  0  0  0  0  0  0  0  0
  140.0160   70.9190  221.3900 C   0  0  0  0  0  0  0  0  0  0  0  0
  140.3030   71.9480  220.0890 S   0  0  0  0  0  0  0  0  0  0  0  0
  140.7560   73.2270  221.0720 C   0  0  0  0  0  0  0  0  0  0  0  0
  141.0810   74.4000  220.6200 N   0  0  0  0  0  0  0  0  0  0  0  0
  140.7530   75.6590  221.2300 C   0  0  0  0  0  0  0  0  0  0  0  0
  139.6210   75.9300  221.9710 C   0  0  0  0  0  0  0  0  0  0  0  0
  138.6240   74.9760  222.3420 N   0  0  0  0  0  0  0  0  0  0  0  0
  138.8820   74.0500  222.7490 H   0  0  0  0  0  0  0  0  0  0  0  0
  137.6130   75.1800  222.1770 H   0  0  0  0  0  0  0  0  0  0  0  0
  139.6100   77.2410  222.3120 N   0  0  0  0  0  0  0  0  0  0  0  0
  138.5670   77.9210  223.0860 C   0  0  0  0  0  0  0  0  0  0  0  0
  138.7648   77.7920  224.1604 H   0  0  0  0  0  0  0  0  0  0  0  0
  138.5673   78.9930  222.8392 H   0  0  0  0  0  0  0  0  0  0  0  0
  137.5863   77.4882  222.8392 H   0  0  0  0  0  0  0  0  0  0  0  0
  140.7030   77.8150  221.8110 N   0  0  0  0  0  0  0  0  0  0  0  0
  141.0890   79.1900  221.9780 C   0  0  0  0  0  0  0  0  0  0  0  0
  140.7410   80.1470  221.0100 C   0  0  0  0  0  0  0  0  0  0  0  0
  140.1832   79.8409  220.1127 H   0  0  0  0  0  0  0  0  0  0  0  0
  141.1010   81.4870  221.1830 C   0  0  0  0  0  0  0  0  0  0  0  0
  140.8307   82.2316  220.4198 H   0  0  0  0  0  0  0  0  0  0  0  0
  141.8040   81.8810  222.3250 C   0  0  0  0  0  0  0  0  0  0  0  0
  142.0892   82.9350  222.4582 H   0  0  0  0  0  0  0  0  0  0  0  0
  142.1450   80.9370  223.2980 C   0  0  0  0  0  0  0  0  0  0  0  0
  142.6957   81.2491  224.1976 H   0  0  0  0  0  0  0  0  0  0  0  0
  141.7860   79.5950  223.1280 C   0  0  0  0  0  0  0  0  0  0  0  0
  142.0506   78.8550  223.8977 H   0  0  0  0  0  0  0  0  0  0  0  0
  141.3990   76.8790  221.1280 C   0  0  0  0  0  0  0  0  0  0  0  0
  142.4550   77.1130  220.4810 O   0  0  0  0  0  0  0  0  0  0  0  0
  140.6830   72.9070  222.3810 N   0  0  0  0  0  0  0  0  0  0  0  0
  140.2760   71.6210  222.5740 C   0  0  0  0  0  0  0  0  0  0  0  0
  140.1440   71.0500  223.9400 C   0  0  0  0  0  0  0  0  0  0  0  0
  139.5100   69.8140  224.1640 C   0  0  0  0  0  0  0  0  0  0  0  0
  139.1004   69.2486  223.3140 H   0  0  0  0  0  0  0  0  0  0  0  0
  139.3970   69.3000  225.4570 C   0  0  0  0  0  0  0  0  0  0  0  0
  138.9021   68.3311  225.6191 H   0  0  0  0  0  0  0  0  0  0  0  0
  139.9080   70.0080  226.5440 C   0  0  0  0  0  0  0  0  0  0  0  0
  139.8146   69.5939  227.5588 H   0  0  0  0  0  0  0  0  0  0  0  0
  140.5420   71.2480  226.3510 C   0  0  0  0  0  0  0  0  0  0  0  0
  141.0700   71.9840  227.4700 N   0  0  0  0  0  0  0  0  0  0  0  0
  142.1110   72.6630  227.3510 O   0  0  0  0  0  0  0  0  0  0  0  0
  140.4360   71.9530  228.6910 O   0  0  0  0  0  0  0  0  0  0  0  0
  140.6520   71.7600  225.0460 C   0  0  0  0  0  0  0  0  0  0  0  0
  141.1429   72.7313  224.8858 H   0  0  0  0  0  0  0  0  0  0  0  0
  1  2  1  0
  2  3  1  0
  3  4  1  0
  4  5  2  0
  5  6  1  0
  6  7  2  0
  7  8  1  0
  8  9  1  0
  8 10  1  0
  7 11  1  0
 11 12  1  0
 12 13  1  0
 12 14  1  0
 12 15  1  0
 11 16  1  0
 16 17  1  0
 17 18  2  0
 18 19  1  0
 18 20  1  0
 20 21  1  0
 20 22  2  0
 22 23  1  0
 22 24  1  0
 24 25  1  0
 24 26  2  0
 26 27  1  0
 16 28  1  0
 28 29  2  0
  4 30  1  0
 30 31  1  0
 31 32  1  0
 32 33  2  0
 33 34  1  0
 33 35  1  0
 35 36  1  0
 35 37  2  0
 37 38  1  0
 37 39  1  0
 39 40  1  0
 40 41  2  0
 40 42  1  0
 39 43  2  0
 43 44  1  0
 31  2  2  0
 43 32  1  0
 28  6  1  0
 26 17  1  0
M  CHG  3  30  -1  40   1  42  -1
M  END
>  <UniqueID>  (48) 
29

>  <SMILES>  (48) 
Cn1c(N)c(/N=c2\[n-]c(-c3cccc([N+](=O)[O-])c3)cs2)c(=O)n1-c1ccccc1

>  <Energy>  (48) 
128.89770299645846

>  <Genealogy>  (48) 
Cn1c(N)c(N=c2[n-]c(-c3cccc([N+](=O)[O-])c3)cs2)c(=O)n1-c1ccccc1 (protonated)
Cn1c(N)c(/N=c2\[n-]c(-c3cccc([N+](=O)[O-])c3)cs2)c(=O)n1-c1ccccc1 (cis-trans isomerization)
Cn1c(N)c(/N=c2\[n-]c(-c3cccc([N+](=O)[O-])c3)cs2)c(=O)n1-c1ccccc1 (3D coordinates assigned)
Cn1c(N)c(/N=c2\[n-]c(-c3cccc([N+](=O)[O-])c3)cs2)c(=O)n1-c1ccccc1 (optimized conformer: 128.89770299645846 kcal/mol)

>  <smiles>  (48) 
Cn1c(N)c(N=c2[nH]c(-c3cccc([N+](=O)[O-])c3)cs2)c(=O)n1-c1ccccc1

>  <score_type>  (48) 
oracle

>  <origin>  (48) 
autodockgpu

>  <m_score__min__energy>  (48) 
-8.8200000000000003

>  <m_primary>  (48) 
energy

>  <meeko>  (48) 
{"free_energy": -8.16, "intermolecular_energy": -9.95, "internal_energy": -1.93, "cluster_size": 17, "cluster_id": 1, "rank_in_cluster": 12}

>  <energy>  (48) 
-8.31

>  <cluster_rmsd>  (48) 
1.35

>  <rmsd>  (48) 
271.04

>  <cluster>  (48) 
1

$$$$
DVQUYCKLNVLYBS-HNRYJENLNA-M
     RDKit          3D

 44 47  0  0  0  0  0  0  0  0999 V2000
  142.5695   75.8654  221.0226 H   0  0  0  0  0  0  0  0  0  0  0  0
  141.6890   75.2480  221.2540 C   0  0  0  0  0  0  0  0  0  0  0  0
  141.4980   73.6210  220.8680 S   0  0  0  0  0  0  0  0  0  0  0  0
  139.9670   73.5380  221.5430 C   0  0  0  0  0  0  0  0  0  0  0  0
  139.2610   72.4490  221.5920 N   0  0  0  0  0  0  0  0  0  0  0  0
  139.0760   71.6150  222.7470 C   0  0  0  0  0  0  0  0  0  0  0  0
  137.9260   70.9240  223.0720 C   0  0  0  0  0  0  0  0  0  0  0  0
  136.7510   70.8410  222.2620 N   0  0  0  0  0  0  0  0  0  0  0  0
  135.9700   70.1920  222.5020 H   0  0  0  0  0  0  0  0  0  0  0  0
  136.6730   71.4100  221.3890 H   0  0  0  0  0  0  0  0  0  0  0  0
  138.0890   70.3170  224.2720 N   0  0  0  0  0  0  0  0  0  0  0  0
  137.0910   69.5010  224.9680 C   0  0  0  0  0  0  0  0  0  0  0  0
  137.2227   69.6086  226.0548 H   0  0  0  0  0  0  0  0  0  0  0  0
  136.0820   69.8361  224.6859 H   0  0  0  0  0  0  0  0  0  0  0  0
  137.2190   68.4455  224.6859 H   0  0  0  0  0  0  0  0  0  0  0  0
  139.3110   70.6000  224.7220 N   0  0  0  0  0  0  0  0  0  0  0  0
  139.8940   70.1170  225.9450 C   0  0  0  0  0  0  0  0  0  0  0  0
  140.0100   68.7370  226.1790 C   0  0  0  0  0  0  0  0  0  0  0  0
  139.6405   68.0215  225.4297 H   0  0  0  0  0  0  0  0  0  0  0  0
  140.5930   68.2690  227.3600 C   0  0  0  0  0  0  0  0  0  0  0  0
  140.6758   67.1871  227.5405 H   0  0  0  0  0  0  0  0  0  0  0  0
  141.0710   69.1740  228.3120 C   0  0  0  0  0  0  0  0  0  0  0  0
  141.5274   68.8042  229.2420 H   0  0  0  0  0  0  0  0  0  0  0  0
  140.9690   70.5490  228.0820 C   0  0  0  0  0  0  0  0  0  0  0  0
  141.3481   71.2608  228.8301 H   0  0  0  0  0  0  0  0  0  0  0  0
  140.3850   71.0210  226.9010 C   0  0  0  0  0  0  0  0  0  0  0  0
  140.3103   72.1036  226.7210 H   0  0  0  0  0  0  0  0  0  0  0  0
  139.9190   71.4080  223.8250 C   0  0  0  0  0  0  0  0  0  0  0  0
  141.0650   71.9060  223.9830 O   0  0  0  0  0  0  0  0  0  0  0  0
  139.5870   74.7170  222.0780 N   0  0  0  0  0  0  0  0  0  0  0  0
  140.5360   75.6820  221.9200 C   0  0  0  0  0  0  0  0  0  0  0  0
  140.3190   77.0660  222.4180 C   0  0  0  0  0  0  0  0  0  0  0  0
  139.0270   77.5640  222.6700 C   0  0  0  0  0  0  0  0  0  0  0  0
  138.1510   76.9211  222.4985 H   0  0  0  0  0  0  0  0  0  0  0  0
  138.8490   78.8680  223.1360 C   0  0  0  0  0  0  0  0  0  0  0  0
  137.8345   79.2452  223.3323 H   0  0  0  0  0  0  0  0  0  0  0  0
  139.9510   79.6950  223.3540 C   0  0  0  0  0  0  0  0  0  0  0  0
  139.8005   80.7205  223.7223 H   0  0  0  0  0  0  0  0  0  0  0  0
  141.2520   79.2260  223.1060 C   0  0  0  0  0  0  0  0  0  0  0  0
  142.3940   80.0760  223.3270 N   0  0  0  0  0  0  0  0  0  0  0  0
  143.4710   79.8630  222.7330 O   0  0  0  0  0  0  0  0  0  0  0  0
  142.3170   81.1390  224.1980 O   0  0  0  0  0  0  0  0  0  0  0  0
  141.4250   77.9120  222.6350 C   0  0  0  0  0  0  0  0  0  0  0  0
  142.4398   77.5388  222.4328 H   0  0  0  0  0  0  0  0  0  0  0  0
  1  2  1  0
  2  3  1  0
  3  4  1  0
  4  5  2  0
  5  6  1  0
  6  7  2  0
  7  8  1  0
  8  9  1  0
  8 10  1  0
  7 11  1  0
 11 12  1  0
 12 13  1  0
 12 14  1  0
 12 15  1  0
 11 16  1  0
 16 17  1  0
 17 18  2  0
 18 19  1  0
 18 20  1  0
 20 21  1  0
 20 22  2  0
 22 23  1  0
 22 24  1  0
 24 25  1  0
 24 26  2  0
 26 27  1  0
 16 28  1  0
 28 29  2  0
  4 30  1  0
 30 31  1  0
 31 32  1  0
 32 33  2  0
 33 34  1  0
 33 35  1  0
 35 36  1  0
 35 37  2  0
 37 38  1  0
 37 39  1  0
 39 40  1  0
 40 41  2  0
 40 42  1  0
 39 43  2  0
 43 44  1  0
 31  2  2  0
 43 32  1  0
 28  6  1  0
 26 17  1  0
M  CHG  3  30  -1  40   1  42  -1
M  END
>  <UniqueID>  (49) 
29

>  <SMILES>  (49) 
Cn1c(N)c(/N=c2\[n-]c(-c3cccc([N+](=O)[O-])c3)cs2)c(=O)n1-c1ccccc1

>  <Energy>  (49) 
128.89770299645846

>  <Genealogy>  (49) 
Cn1c(N)c(N=c2[n-]c(-c3cccc([N+](=O)[O-])c3)cs2)c(=O)n1-c1ccccc1 (protonated)
Cn1c(N)c(/N=c2\[n-]c(-c3cccc([N+](=O)[O-])c3)cs2)c(=O)n1-c1ccccc1 (cis-trans isomerization)
Cn1c(N)c(/N=c2\[n-]c(-c3cccc([N+](=O)[O-])c3)cs2)c(=O)n1-c1ccccc1 (3D coordinates assigned)
Cn1c(N)c(/N=c2\[n-]c(-c3cccc([N+](=O)[O-])c3)cs2)c(=O)n1-c1ccccc1 (optimized conformer: 128.89770299645846 kcal/mol)

>  <smiles>  (49) 
Cn1c(N)c(N=c2[nH]c(-c3cccc([N+](=O)[O-])c3)cs2)c(=O)n1-c1ccccc1

>  <score_type>  (49) 
oracle

>  <origin>  (49) 
autodockgpu

>  <m_score__min__energy>  (49) 
-8.8200000000000003

>  <m_primary>  (49) 
energy

>  <meeko>  (49) 
{"free_energy": -8.25, "intermolecular_energy": -10.04, "internal_energy": -1.34, "cluster_size": 2, "cluster_id": 2, "rank_in_cluster": 2}

>  <energy>  (49) 
-8.21

>  <cluster_rmsd>  (49) 
1.41

>  <rmsd>  (49) 
270.96

>  <cluster>  (49) 
1

$$$$
DVQUYCKLNVLYBS-HNRYJENLNA-M
     RDKit          3D

 44 47  0  0  0  0  0  0  0  0999 V2000
  139.2308   70.1138  221.3735 H   0  0  0  0  0  0  0  0  0  0  0  0
  139.6970   71.1070  221.4520 C   0  0  0  0  0  0  0  0  0  0  0  0
  139.9950   72.1590  220.1730 S   0  0  0  0  0  0  0  0  0  0  0  0
  140.6850   73.3240  221.1600 C   0  0  0  0  0  0  0  0  0  0  0  0
  141.1110   74.4720  220.7280 N   0  0  0  0  0  0  0  0  0  0  0  0
  140.7850   75.7560  221.2830 C   0  0  0  0  0  0  0  0  0  0  0  0
  139.6550   76.0590  222.0160 C   0  0  0  0  0  0  0  0  0  0  0  0
  138.6610   75.1200  222.4330 N   0  0  0  0  0  0  0  0  0  0  0  0
  138.9150   74.1490  222.7170 H   0  0  0  0  0  0  0  0  0  0  0  0
  137.6510   75.3870  222.4260 H   0  0  0  0  0  0  0  0  0  0  0  0
  139.6440   77.3830  222.2990 N   0  0  0  0  0  0  0  0  0  0  0  0
  138.6050   78.0960  223.0470 C   0  0  0  0  0  0  0  0  0  0  0  0
  138.7815   77.9749  224.1260 H   0  0  0  0  0  0  0  0  0  0  0  0
  138.6350   79.1647  222.7883 H   0  0  0  0  0  0  0  0  0  0  0  0
  137.6186   77.6836  222.7883 H   0  0  0  0  0  0  0  0  0  0  0  0
  140.7350   77.9350  221.7680 N   0  0  0  0  0  0  0  0  0  0  0  0
  141.1200   79.3160  221.8730 C   0  0  0  0  0  0  0  0  0  0  0  0
  140.9120   80.1940  220.7960 C   0  0  0  0  0  0  0  0  0  0  0  0
  140.4660   79.8204  219.8624 H   0  0  0  0  0  0  0  0  0  0  0  0
  141.2700   81.5410  220.9070 C   0  0  0  0  0  0  0  0  0  0  0  0
  141.1091   82.2235  220.0594 H   0  0  0  0  0  0  0  0  0  0  0  0
  141.8320   82.0220  222.0930 C   0  0  0  0  0  0  0  0  0  0  0  0
  142.1169   83.0812  222.1766 H   0  0  0  0  0  0  0  0  0  0  0  0
  142.0320   81.1570  223.1730 C   0  0  0  0  0  0  0  0  0  0  0  0
  142.4704   81.5369  224.1076 H   0  0  0  0  0  0  0  0  0  0  0  0
  141.6750   79.8090  223.0660 C   0  0  0  0  0  0  0  0  0  0  0  0
  141.8293   79.1320  223.9192 H   0  0  0  0  0  0  0  0  0  0  0  0
  141.4290   76.9700  221.1250 C   0  0  0  0  0  0  0  0  0  0  0  0
  142.4820   77.1760  220.4640 O   0  0  0  0  0  0  0  0  0  0  0  0
  140.6870   72.9480  222.4560 N   0  0  0  0  0  0  0  0  0  0  0  0
  140.1440   71.7120  222.6340 C   0  0  0  0  0  0  0  0  0  0  0  0
  140.0610   71.0920  223.9830 C   0  0  0  0  0  0  0  0  0  0  0  0
  139.5940   69.7760  224.1620 C   0  0  0  0  0  0  0  0  0  0  0  0
  139.2812   69.1841  223.2892 H   0  0  0  0  0  0  0  0  0  0  0  0
  139.5250   69.2170  225.4390 C   0  0  0  0  0  0  0  0  0  0  0  0
  139.1619   68.1865  225.5661 H   0  0  0  0  0  0  0  0  0  0  0  0
  139.9140   69.9580  226.5550 C   0  0  0  0  0  0  0  0  0  0  0  0
  139.8562   69.5081  227.5571 H   0  0  0  0  0  0  0  0  0  0  0  0
  140.3790   71.2750  226.4070 C   0  0  0  0  0  0  0  0  0  0  0  0
  140.7800   72.0460  227.5550 N   0  0  0  0  0  0  0  0  0  0  0  0
  141.8560   72.6800  227.5530 O   0  0  0  0  0  0  0  0  0  0  0  0
  139.9850   72.0960  228.6770 O   0  0  0  0  0  0  0  0  0  0  0  0
  140.4460   71.8330  225.1170 C   0  0  0  0  0  0  0  0  0  0  0  0
  140.8051   72.8652  224.9922 H   0  0  0  0  0  0  0  0  0  0  0  0
  1  2  1  0
  2  3  1  0
  3  4  1  0
  4  5  2  0
  5  6  1  0
  6  7  2  0
  7  8  1  0
  8  9  1  0
  8 10  1  0
  7 11  1  0
 11 12  1  0
 12 13  1  0
 12 14  1  0
 12 15  1  0
 11 16  1  0
 16 17  1  0
 17 18  2  0
 18 19  1  0
 18 20  1  0
 20 21  1  0
 20 22  2  0
 22 23  1  0
 22 24  1  0
 24 25  1  0
 24 26  2  0
 26 27  1  0
 16 28  1  0
 28 29  2  0
  4 30  1  0
 30 31  1  0
 31 32  1  0
 32 33  2  0
 33 34  1  0
 33 35  1  0
 35 36  1  0
 35 37  2  0
 37 38  1  0
 37 39  1  0
 39 40  1  0
 40 41  2  0
 40 42  1  0
 39 43  2  0
 43 44  1  0
 31  2  2  0
 43 32  1  0
 28  6  1  0
 26 17  1  0
M  CHG  3  30  -1  40   1  42  -1
M  END
>  <UniqueID>  (50) 
29

>  <SMILES>  (50) 
Cn1c(N)c(/N=c2\[n-]c(-c3cccc([N+](=O)[O-])c3)cs2)c(=O)n1-c1ccccc1

>  <Energy>  (50) 
128.89770299645846

>  <Genealogy>  (50) 
Cn1c(N)c(N=c2[n-]c(-c3cccc([N+](=O)[O-])c3)cs2)c(=O)n1-c1ccccc1 (protonated)
Cn1c(N)c(/N=c2\[n-]c(-c3cccc([N+](=O)[O-])c3)cs2)c(=O)n1-c1ccccc1 (cis-trans isomerization)
Cn1c(N)c(/N=c2\[n-]c(-c3cccc([N+](=O)[O-])c3)cs2)c(=O)n1-c1ccccc1 (3D coordinates assigned)
Cn1c(N)c(/N=c2\[n-]c(-c3cccc([N+](=O)[O-])c3)cs2)c(=O)n1-c1ccccc1 (optimized conformer: 128.89770299645846 kcal/mol)

>  <smiles>  (50) 
Cn1c(N)c(N=c2[nH]c(-c3cccc([N+](=O)[O-])c3)cs2)c(=O)n1-c1ccccc1

>  <score_type>  (50) 
oracle

>  <origin>  (50) 
autodockgpu

>  <m_score__min__energy>  (50) 
-8.8200000000000003

>  <m_primary>  (50) 
energy

>  <meeko>  (50) 
{"free_energy": -8.09, "intermolecular_energy": -9.88, "internal_energy": -1.95, "cluster_size": 17, "cluster_id": 1, "rank_in_cluster": 15}

>  <energy>  (50) 
-8.19

>  <cluster_rmsd>  (50) 
1.82

>  <rmsd>  (50) 
271.26

>  <cluster>  (50) 
1

$$$$
DVQUYCKLNVLYBS-HNRYJENLNA-M
     RDKit          3D

 44 47  0  0  0  0  0  0  0  0999 V2000
  139.8457   69.3055  222.4298 H   0  0  0  0  0  0  0  0  0  0  0  0
  139.9460   70.3920  222.2900 C   0  0  0  0  0  0  0  0  0  0  0  0
  139.7990   71.2150  220.8290 S   0  0  0  0  0  0  0  0  0  0  0  0
  140.0970   72.7090  221.5260 C   0  0  0  0  0  0  0  0  0  0  0  0
  140.0800   73.8270  220.8650 N   0  0  0  0  0  0  0  0  0  0  0  0
  140.0620   75.1450  221.4360 C   0  0  0  0  0  0  0  0  0  0  0  0
  138.9890   75.7390  222.0700 C   0  0  0  0  0  0  0  0  0  0  0  0
  137.7390   75.1060  222.3530 N   0  0  0  0  0  0  0  0  0  0  0  0
  136.8320   75.5890  222.1710 H   0  0  0  0  0  0  0  0  0  0  0  0
  137.7170   74.1550  222.7840 H   0  0  0  0  0  0  0  0  0  0  0  0
  139.3120   77.0120  222.4020 N   0  0  0  0  0  0  0  0  0  0  0  0
  138.4350   77.9750  223.0750 C   0  0  0  0  0  0  0  0  0  0  0  0
  138.5362   77.8639  224.1647 H   0  0  0  0  0  0  0  0  0  0  0  0
  138.7194   78.9966  222.7826 H   0  0  0  0  0  0  0  0  0  0  0  0
  137.3913   77.7871  222.7826 H   0  0  0  0  0  0  0  0  0  0  0  0
  140.5600   77.2480  222.0000 N   0  0  0  0  0  0  0  0  0  0  0  0
  141.2950   78.4680  222.1950 C   0  0  0  0  0  0  0  0  0  0  0  0
  141.4690   79.3690  221.1310 C   0  0  0  0  0  0  0  0  0  0  0  0
  141.0532   79.1337  220.1402 H   0  0  0  0  0  0  0  0  0  0  0  0
  142.1690   80.5640  221.3270 C   0  0  0  0  0  0  0  0  0  0  0  0
  142.3079   81.2634  220.4894 H   0  0  0  0  0  0  0  0  0  0  0  0
  142.6920   80.8700  222.5860 C   0  0  0  0  0  0  0  0  0  0  0  0
  143.2444   81.8090  222.7380 H   0  0  0  0  0  0  0  0  0  0  0  0
  142.5140   79.9840  223.6530 C   0  0  0  0  0  0  0  0  0  0  0  0
  142.9238   80.2276  224.6443 H   0  0  0  0  0  0  0  0  0  0  0  0
  141.8150   78.7880  223.4600 C   0  0  0  0  0  0  0  0  0  0  0  0
  141.6719   78.0952  224.3023 H   0  0  0  0  0  0  0  0  0  0  0  0
  141.0270   76.1360  221.3880 C   0  0  0  0  0  0  0  0  0  0  0  0
  142.1580   76.0520  220.8390 O   0  0  0  0  0  0  0  0  0  0  0  0
  140.2930   72.6140  222.8580 N   0  0  0  0  0  0  0  0  0  0  0  0
  140.2180   71.3270  223.2980 C   0  0  0  0  0  0  0  0  0  0  0  0
  140.4220   70.9880  224.7310 C   0  0  0  0  0  0  0  0  0  0  0  0
  141.0310   71.8910  225.6210 C   0  0  0  0  0  0  0  0  0  0  0  0
  141.3655   72.8739  225.2577 H   0  0  0  0  0  0  0  0  0  0  0  0
  141.2140   71.5490  226.9620 C   0  0  0  0  0  0  0  0  0  0  0  0
  141.6894   72.2646  227.6490 H   0  0  0  0  0  0  0  0  0  0  0  0
  140.7970   70.3040  227.4360 C   0  0  0  0  0  0  0  0  0  0  0  0
  140.9441   70.0440  228.4947 H   0  0  0  0  0  0  0  0  0  0  0  0
  140.1900   69.3810  226.5670 C   0  0  0  0  0  0  0  0  0  0  0  0
  139.7590   68.0940  227.0490 N   0  0  0  0  0  0  0  0  0  0  0  0
  139.8930   67.7870  228.2520 O   0  0  0  0  0  0  0  0  0  0  0  0
  139.1920   67.1790  226.1920 O   0  0  0  0  0  0  0  0  0  0  0  0
  140.0100   69.7320  225.2170 C   0  0  0  0  0  0  0  0  0  0  0  0
  139.5397   69.0137  224.5294 H   0  0  0  0  0  0  0  0  0  0  0  0
  1  2  1  0
  2  3  1  0
  3  4  1  0
  4  5  2  0
  5  6  1  0
  6  7  2  0
  7  8  1  0
  8  9  1  0
  8 10  1  0
  7 11  1  0
 11 12  1  0
 12 13  1  0
 12 14  1  0
 12 15  1  0
 11 16  1  0
 16 17  1  0
 17 18  2  0
 18 19  1  0
 18 20  1  0
 20 21  1  0
 20 22  2  0
 22 23  1  0
 22 24  1  0
 24 25  1  0
 24 26  2  0
 26 27  1  0
 16 28  1  0
 28 29  2  0
  4 30  1  0
 30 31  1  0
 31 32  1  0
 32 33  2  0
 33 34  1  0
 33 35  1  0
 35 36  1  0
 35 37  2  0
 37 38  1  0
 37 39  1  0
 39 40  1  0
 40 41  2  0
 40 42  1  0
 39 43  2  0
 43 44  1  0
 31  2  2  0
 43 32  1  0
 28  6  1  0
 26 17  1  0
M  CHG  3  30  -1  40   1  42  -1
M  END
>  <UniqueID>  (51) 
29

>  <SMILES>  (51) 
Cn1c(N)c(/N=c2\[n-]c(-c3cccc([N+](=O)[O-])c3)cs2)c(=O)n1-c1ccccc1

>  <Energy>  (51) 
128.89770299645846

>  <Genealogy>  (51) 
Cn1c(N)c(N=c2[n-]c(-c3cccc([N+](=O)[O-])c3)cs2)c(=O)n1-c1ccccc1 (protonated)
Cn1c(N)c(/N=c2\[n-]c(-c3cccc([N+](=O)[O-])c3)cs2)c(=O)n1-c1ccccc1 (cis-trans isomerization)
Cn1c(N)c(/N=c2\[n-]c(-c3cccc([N+](=O)[O-])c3)cs2)c(=O)n1-c1ccccc1 (3D coordinates assigned)
Cn1c(N)c(/N=c2\[n-]c(-c3cccc([N+](=O)[O-])c3)cs2)c(=O)n1-c1ccccc1 (optimized conformer: 128.89770299645846 kcal/mol)

>  <smiles>  (51) 
Cn1c(N)c(N=c2[nH]c(-c3cccc([N+](=O)[O-])c3)cs2)c(=O)n1-c1ccccc1

>  <score_type>  (51) 
oracle

>  <origin>  (51) 
autodockgpu

>  <m_score__min__energy>  (51) 
-8.8200000000000003

>  <m_primary>  (51) 
energy

>  <meeko>  (51) 
{"free_energy": -8.78, "intermolecular_energy": -10.57, "internal_energy": -1.36, "cluster_size": 17, "cluster_id": 1, "rank_in_cluster": 2}

>  <energy>  (51) 
-8.18

>  <cluster_rmsd>  (51) 
1.81

>  <rmsd>  (51) 
271.26

>  <cluster>  (51) 
1

$$$$
DVQUYCKLNVLYBS-HNRYJENLNA-M
     RDKit          3D

 44 47  0  0  0  0  0  0  0  0999 V2000
  139.1178   69.2490  223.4086 H   0  0  0  0  0  0  0  0  0  0  0  0
  139.4170   70.2680  223.1220 C   0  0  0  0  0  0  0  0  0  0  0  0
  139.2070   70.9670  221.6050 S   0  0  0  0  0  0  0  0  0  0  0  0
  139.9180   72.4130  222.0620 C   0  0  0  0  0  0  0  0  0  0  0  0
  140.0260   73.4410  221.2760 N   0  0  0  0  0  0  0  0  0  0  0  0
  139.9710   74.8190  221.6760 C   0  0  0  0  0  0  0  0  0  0  0  0
  138.8470   75.4920  222.1110 C   0  0  0  0  0  0  0  0  0  0  0  0
  137.5620   74.9060  222.3300 N   0  0  0  0  0  0  0  0  0  0  0  0
  137.4290   74.1230  223.0070 H   0  0  0  0  0  0  0  0  0  0  0  0
  136.7340   75.2330  221.7830 H   0  0  0  0  0  0  0  0  0  0  0  0
  139.1550   76.7950  222.3190 N   0  0  0  0  0  0  0  0  0  0  0  0
  138.2290   77.8380  222.7680 C   0  0  0  0  0  0  0  0  0  0  0  0
  138.2083   77.8613  223.8676 H   0  0  0  0  0  0  0  0  0  0  0  0
  138.5634   78.8141  222.3868 H   0  0  0  0  0  0  0  0  0  0  0  0
  137.2201   77.6215  222.3868 H   0  0  0  0  0  0  0  0  0  0  0  0
  140.4430   76.9720  222.0300 N   0  0  0  0  0  0  0  0  0  0  0  0
  141.1750   78.2040  222.1540 C   0  0  0  0  0  0  0  0  0  0  0  0
  141.4130   79.0050  221.0250 C   0  0  0  0  0  0  0  0  0  0  0  0
  141.0498   78.6826  220.0380 H   0  0  0  0  0  0  0  0  0  0  0  0
  142.1100   80.2110  221.1510 C   0  0  0  0  0  0  0  0  0  0  0  0
  142.2993   80.8317  220.2628 H   0  0  0  0  0  0  0  0  0  0  0  0
  142.5660   80.6280  222.4040 C   0  0  0  0  0  0  0  0  0  0  0  0
  143.1162   81.5756  222.5009 H   0  0  0  0  0  0  0  0  0  0  0  0
  142.3240   79.8430  223.5340 C   0  0  0  0  0  0  0  0  0  0  0  0
  142.6808   80.1746  224.5203 H   0  0  0  0  0  0  0  0  0  0  0  0
  141.6280   78.6350  223.4120 C   0  0  0  0  0  0  0  0  0  0  0  0
  141.4350   78.0210  224.3041 H   0  0  0  0  0  0  0  0  0  0  0  0
  140.9530   75.7920  221.6130 C   0  0  0  0  0  0  0  0  0  0  0  0
  142.1350   75.6350  221.2060 O   0  0  0  0  0  0  0  0  0  0  0  0
  140.3070   72.3980  223.3540 N   0  0  0  0  0  0  0  0  0  0  0  0
  140.0380   71.2060  223.9570 C   0  0  0  0  0  0  0  0  0  0  0  0
  140.4000   70.9620  225.3790 C   0  0  0  0  0  0  0  0  0  0  0  0
  140.7160   72.0210  226.2500 C   0  0  0  0  0  0  0  0  0  0  0  0
  140.6967   73.0568  225.8801 H   0  0  0  0  0  0  0  0  0  0  0  0
  141.0540   71.7660  227.5810 C   0  0  0  0  0  0  0  0  0  0  0  0
  141.2963   72.6019  228.2537 H   0  0  0  0  0  0  0  0  0  0  0  0
  141.0860   70.4560  228.0620 C   0  0  0  0  0  0  0  0  0  0  0  0
  141.3522   70.2654  229.1121 H   0  0  0  0  0  0  0  0  0  0  0  0
  140.7800   69.3790  227.2120 C   0  0  0  0  0  0  0  0  0  0  0  0
  140.8140   68.0260  227.7020 N   0  0  0  0  0  0  0  0  0  0  0  0
  140.5870   67.0660  226.9370 O   0  0  0  0  0  0  0  0  0  0  0  0
  141.0980   67.7670  229.0240 O   0  0  0  0  0  0  0  0  0  0  0  0
  140.4410   69.6430  225.8730 C   0  0  0  0  0  0  0  0  0  0  0  0
  140.2039   68.8058  225.2000 H   0  0  0  0  0  0  0  0  0  0  0  0
  1  2  1  0
  2  3  1  0
  3  4  1  0
  4  5  2  0
  5  6  1  0
  6  7  2  0
  7  8  1  0
  8  9  1  0
  8 10  1  0
  7 11  1  0
 11 12  1  0
 12 13  1  0
 12 14  1  0
 12 15  1  0
 11 16  1  0
 16 17  1  0
 17 18  2  0
 18 19  1  0
 18 20  1  0
 20 21  1  0
 20 22  2  0
 22 23  1  0
 22 24  1  0
 24 25  1  0
 24 26  2  0
 26 27  1  0
 16 28  1  0
 28 29  2  0
  4 30  1  0
 30 31  1  0
 31 32  1  0
 32 33  2  0
 33 34  1  0
 33 35  1  0
 35 36  1  0
 35 37  2  0
 37 38  1  0
 37 39  1  0
 39 40  1  0
 40 41  2  0
 40 42  1  0
 39 43  2  0
 43 44  1  0
 31  2  2  0
 43 32  1  0
 28  6  1  0
 26 17  1  0
M  CHG  3  30  -1  40   1  42  -1
M  END
>  <UniqueID>  (52) 
29

>  <SMILES>  (52) 
Cn1c(N)c(/N=c2\[n-]c(-c3cccc([N+](=O)[O-])c3)cs2)c(=O)n1-c1ccccc1

>  <Energy>  (52) 
128.89770299645846

>  <Genealogy>  (52) 
Cn1c(N)c(N=c2[n-]c(-c3cccc([N+](=O)[O-])c3)cs2)c(=O)n1-c1ccccc1 (protonated)
Cn1c(N)c(/N=c2\[n-]c(-c3cccc([N+](=O)[O-])c3)cs2)c(=O)n1-c1ccccc1 (cis-trans isomerization)
Cn1c(N)c(/N=c2\[n-]c(-c3cccc([N+](=O)[O-])c3)cs2)c(=O)n1-c1ccccc1 (3D coordinates assigned)
Cn1c(N)c(/N=c2\[n-]c(-c3cccc([N+](=O)[O-])c3)cs2)c(=O)n1-c1ccccc1 (optimized conformer: 128.89770299645846 kcal/mol)

>  <smiles>  (52) 
Cn1c(N)c(N=c2[nH]c(-c3cccc([N+](=O)[O-])c3)cs2)c(=O)n1-c1ccccc1

>  <score_type>  (52) 
oracle

>  <origin>  (52) 
autodockgpu

>  <m_score__min__energy>  (52) 
-8.8200000000000003

>  <m_primary>  (52) 
energy

>  <meeko>  (52) 
{"free_energy": -8.82, "intermolecular_energy": -10.61, "internal_energy": -1.31, "cluster_size": 17, "cluster_id": 1, "rank_in_cluster": 1}

>  <energy>  (52) 
-8.16

>  <cluster_rmsd>  (52) 
1.81

>  <rmsd>  (52) 
271.26

>  <cluster>  (52) 
1

$$$$
DVQUYCKLNVLYBS-HNRYJENLNA-M
     RDKit          3D

 44 47  0  0  0  0  0  0  0  0999 V2000
  139.6855   69.3623  222.3906 H   0  0  0  0  0  0  0  0  0  0  0  0
  139.8440   70.4420  222.2520 C   0  0  0  0  0  0  0  0  0  0  0  0
  139.7180   71.2770  220.7960 S   0  0  0  0  0  0  0  0  0  0  0  0
  140.1130   72.7490  221.4920 C   0  0  0  0  0  0  0  0  0  0  0  0
  140.1500   73.8680  220.8340 N   0  0  0  0  0  0  0  0  0  0  0  0
  140.1040   75.1850  221.4060 C   0  0  0  0  0  0  0  0  0  0  0  0
  139.0160   75.7580  222.0350 C   0  0  0  0  0  0  0  0  0  0  0  0
  137.7770   75.1010  222.3120 N   0  0  0  0  0  0  0  0  0  0  0  0
  137.7500   74.1530  222.7460 H   0  0  0  0  0  0  0  0  0  0  0  0
  136.8730   75.5520  222.0480 H   0  0  0  0  0  0  0  0  0  0  0  0
  139.3130   77.0370  222.3700 N   0  0  0  0  0  0  0  0  0  0  0  0
  138.4150   77.9820  223.0390 C   0  0  0  0  0  0  0  0  0  0  0  0
  138.5165   77.8752  224.1291 H   0  0  0  0  0  0  0  0  0  0  0  0
  138.6783   79.0088  222.7451 H   0  0  0  0  0  0  0  0  0  0  0  0
  137.3761   77.7714  222.7451 H   0  0  0  0  0  0  0  0  0  0  0  0
  140.5580   77.2960  221.9730 N   0  0  0  0  0  0  0  0  0  0  0  0
  141.2690   78.5300  222.1730 C   0  0  0  0  0  0  0  0  0  0  0  0
  141.3880   79.4570  221.1240 C   0  0  0  0  0  0  0  0  0  0  0  0
  140.9481   79.2321  220.1412 H   0  0  0  0  0  0  0  0  0  0  0  0
  142.0640   80.6650  221.3250 C   0  0  0  0  0  0  0  0  0  0  0  0
  142.1596   81.3851  220.4990 H   0  0  0  0  0  0  0  0  0  0  0  0
  142.6180   80.9580  222.5740 C   0  0  0  0  0  0  0  0  0  0  0  0
  143.1520   81.9070  222.7294 H   0  0  0  0  0  0  0  0  0  0  0  0
  142.4940   80.0460  223.6260 C   0  0  0  0  0  0  0  0  0  0  0  0
  142.9271   80.2794  224.6099 H   0  0  0  0  0  0  0  0  0  0  0  0
  141.8190   78.8360  223.4280 C   0  0  0  0  0  0  0  0  0  0  0  0
  141.7190   78.1220  224.2588 H   0  0  0  0  0  0  0  0  0  0  0  0
  141.0490   76.1950  221.3630 C   0  0  0  0  0  0  0  0  0  0  0  0
  142.1840   76.1320  220.8190 O   0  0  0  0  0  0  0  0  0  0  0  0
  140.3270   72.6380  222.8200 N   0  0  0  0  0  0  0  0  0  0  0  0
  140.1850   71.3560  223.2570 C   0  0  0  0  0  0  0  0  0  0  0  0
  140.3950   71.0000  224.6860 C   0  0  0  0  0  0  0  0  0  0  0  0
  140.7720   71.9670  225.6370 C   0  0  0  0  0  0  0  0  0  0  0  0
  140.9163   73.0122  225.3259 H   0  0  0  0  0  0  0  0  0  0  0  0
  140.9640   71.6080  226.9730 C   0  0  0  0  0  0  0  0  0  0  0  0
  141.2548   72.3726  227.7084 H   0  0  0  0  0  0  0  0  0  0  0  0
  140.7890   70.2850  227.3800 C   0  0  0  0  0  0  0  0  0  0  0  0
  140.9423   70.0123  228.4346 H   0  0  0  0  0  0  0  0  0  0  0  0
  140.4180   69.2990  226.4500 C   0  0  0  0  0  0  0  0  0  0  0  0
  140.2370   67.9310  226.8640 N   0  0  0  0  0  0  0  0  0  0  0  0
  141.0450   67.3910  227.6480 O   0  0  0  0  0  0  0  0  0  0  0  0
  139.1690   67.1960  226.4030 O   0  0  0  0  0  0  0  0  0  0  0  0
  140.2260   69.6670  225.1060 C   0  0  0  0  0  0  0  0  0  0  0  0
  139.9391   68.9005  224.3710 H   0  0  0  0  0  0  0  0  0  0  0  0
  1  2  1  0
  2  3  1  0
  3  4  1  0
  4  5  2  0
  5  6  1  0
  6  7  2  0
  7  8  1  0
  8  9  1  0
  8 10  1  0
  7 11  1  0
 11 12  1  0
 12 13  1  0
 12 14  1  0
 12 15  1  0
 11 16  1  0
 16 17  1  0
 17 18  2  0
 18 19  1  0
 18 20  1  0
 20 21  1  0
 20 22  2  0
 22 23  1  0
 22 24  1  0
 24 25  1  0
 24 26  2  0
 26 27  1  0
 16 28  1  0
 28 29  2  0
  4 30  1  0
 30 31  1  0
 31 32  1  0
 32 33  2  0
 33 34  1  0
 33 35  1  0
 35 36  1  0
 35 37  2  0
 37 38  1  0
 37 39  1  0
 39 40  1  0
 40 41  2  0
 40 42  1  0
 39 43  2  0
 43 44  1  0
 31  2  2  0
 43 32  1  0
 28  6  1  0
 26 17  1  0
M  CHG  3  30  -1  40   1  42  -1
M  END
>  <UniqueID>  (53) 
29

>  <SMILES>  (53) 
Cn1c(N)c(/N=c2\[n-]c(-c3cccc([N+](=O)[O-])c3)cs2)c(=O)n1-c1ccccc1

>  <Energy>  (53) 
128.89770299645846

>  <Genealogy>  (53) 
Cn1c(N)c(N=c2[n-]c(-c3cccc([N+](=O)[O-])c3)cs2)c(=O)n1-c1ccccc1 (protonated)
Cn1c(N)c(/N=c2\[n-]c(-c3cccc([N+](=O)[O-])c3)cs2)c(=O)n1-c1ccccc1 (cis-trans isomerization)
Cn1c(N)c(/N=c2\[n-]c(-c3cccc([N+](=O)[O-])c3)cs2)c(=O)n1-c1ccccc1 (3D coordinates assigned)
Cn1c(N)c(/N=c2\[n-]c(-c3cccc([N+](=O)[O-])c3)cs2)c(=O)n1-c1ccccc1 (optimized conformer: 128.89770299645846 kcal/mol)

>  <smiles>  (53) 
Cn1c(N)c(N=c2[nH]c(-c3cccc([N+](=O)[O-])c3)cs2)c(=O)n1-c1ccccc1

>  <score_type>  (53) 
oracle

>  <origin>  (53) 
autodockgpu

>  <m_score__min__energy>  (53) 
-8.8200000000000003

>  <m_primary>  (53) 
energy

>  <meeko>  (53) 
{"free_energy": -8.71, "intermolecular_energy": -10.5, "internal_energy": -1.4, "cluster_size": 17, "cluster_id": 1, "rank_in_cluster": 3}

>  <energy>  (53) 
-8.14

>  <cluster_rmsd>  (53) 
1.84

>  <rmsd>  (53) 
271.27

>  <cluster>  (53) 
1

$$$$
DVQUYCKLNVLYBS-HNRYJENLNA-M
     RDKit          3D

 44 47  0  0  0  0  0  0  0  0999 V2000
  139.6785   69.3634  222.3446 H   0  0  0  0  0  0  0  0  0  0  0  0
  139.8550   70.4420  222.2200 C   0  0  0  0  0  0  0  0  0  0  0  0
  139.7470   71.2980  220.7740 S   0  0  0  0  0  0  0  0  0  0  0  0
  140.1620   72.7550  221.4890 C   0  0  0  0  0  0  0  0  0  0  0  0
  140.2170   73.8810  220.8460 N   0  0  0  0  0  0  0  0  0  0  0  0
  140.1370   75.1910  221.4300 C   0  0  0  0  0  0  0  0  0  0  0  0
  139.0380   75.7270  222.0710 C   0  0  0  0  0  0  0  0  0  0  0  0
  137.8200   75.0320  222.3500 N   0  0  0  0  0  0  0  0  0  0  0  0
  137.8230   74.0710  222.7570 H   0  0  0  0  0  0  0  0  0  0  0  0
  136.9010   75.4690  222.1150 H   0  0  0  0  0  0  0  0  0  0  0  0
  139.3000   77.0110  222.4150 N   0  0  0  0  0  0  0  0  0  0  0  0
  138.3790   77.9240  223.0980 C   0  0  0  0  0  0  0  0  0  0  0  0
  138.4918   77.8122  224.1865 H   0  0  0  0  0  0  0  0  0  0  0  0
  138.6093   78.9604  222.8101 H   0  0  0  0  0  0  0  0  0  0  0  0
  137.3447   77.6847  222.8101 H   0  0  0  0  0  0  0  0  0  0  0  0
  140.5340   77.3100  222.0130 N   0  0  0  0  0  0  0  0  0  0  0  0
  141.2100   78.5620  222.2190 C   0  0  0  0  0  0  0  0  0  0  0  0
  141.2280   79.5340  221.2050 C   0  0  0  0  0  0  0  0  0  0  0  0
  140.7349   79.3307  220.2430 H   0  0  0  0  0  0  0  0  0  0  0  0
  141.8700   80.7590  221.4130 C   0  0  0  0  0  0  0  0  0  0  0  0
  141.8853   81.5146  220.6138 H   0  0  0  0  0  0  0  0  0  0  0  0
  142.4920   81.0230  222.6360 C   0  0  0  0  0  0  0  0  0  0  0  0
  142.9996   81.9854  222.7977 H   0  0  0  0  0  0  0  0  0  0  0  0
  142.4700   80.0660  223.6540 C   0  0  0  0  0  0  0  0  0  0  0  0
  142.9572   80.2771  224.6174 H   0  0  0  0  0  0  0  0  0  0  0  0
  141.8290   78.8400  223.4490 C   0  0  0  0  0  0  0  0  0  0  0  0
  141.8095   78.0906  224.2540 H   0  0  0  0  0  0  0  0  0  0  0  0
  141.0530   76.2280  221.3900 C   0  0  0  0  0  0  0  0  0  0  0  0
  142.1860   76.2030  220.8380 O   0  0  0  0  0  0  0  0  0  0  0  0
  140.3700   72.6240  222.8160 N   0  0  0  0  0  0  0  0  0  0  0  0
  140.2080   71.3380  223.2370 C   0  0  0  0  0  0  0  0  0  0  0  0
  140.4070   70.9620  224.6620 C   0  0  0  0  0  0  0  0  0  0  0  0
  140.7610   71.9170  225.6330 C   0  0  0  0  0  0  0  0  0  0  0  0
  140.8945   72.9691  225.3409 H   0  0  0  0  0  0  0  0  0  0  0  0
  140.9440   71.5390  226.9640 C   0  0  0  0  0  0  0  0  0  0  0  0
  141.2158   72.2953  227.7151 H   0  0  0  0  0  0  0  0  0  0  0  0
  140.7840   70.2070  227.3470 C   0  0  0  0  0  0  0  0  0  0  0  0
  140.9310   69.9189  228.3984 H   0  0  0  0  0  0  0  0  0  0  0  0
  140.4360   69.2310  226.3970 C   0  0  0  0  0  0  0  0  0  0  0  0
  140.2710   67.8540  226.7860 N   0  0  0  0  0  0  0  0  0  0  0  0
  141.0660   67.3190  227.5870 O   0  0  0  0  0  0  0  0  0  0  0  0
  139.2340   67.1040  226.2820 O   0  0  0  0  0  0  0  0  0  0  0  0
  140.2540   69.6190  225.0580 C   0  0  0  0  0  0  0  0  0  0  0  0
  139.9876   68.8608  224.3069 H   0  0  0  0  0  0  0  0  0  0  0  0
  1  2  1  0
  2  3  1  0
  3  4  1  0
  4  5  2  0
  5  6  1  0
  6  7  2  0
  7  8  1  0
  8  9  1  0
  8 10  1  0
  7 11  1  0
 11 12  1  0
 12 13  1  0
 12 14  1  0
 12 15  1  0
 11 16  1  0
 16 17  1  0
 17 18  2  0
 18 19  1  0
 18 20  1  0
 20 21  1  0
 20 22  2  0
 22 23  1  0
 22 24  1  0
 24 25  1  0
 24 26  2  0
 26 27  1  0
 16 28  1  0
 28 29  2  0
  4 30  1  0
 30 31  1  0
 31 32  1  0
 32 33  2  0
 33 34  1  0
 33 35  1  0
 35 36  1  0
 35 37  2  0
 37 38  1  0
 37 39  1  0
 39 40  1  0
 40 41  2  0
 40 42  1  0
 39 43  2  0
 43 44  1  0
 31  2  2  0
 43 32  1  0
 28  6  1  0
 26 17  1  0
M  CHG  3  30  -1  40   1  42  -1
M  END
>  <UniqueID>  (54) 
29

>  <SMILES>  (54) 
Cn1c(N)c(/N=c2\[n-]c(-c3cccc([N+](=O)[O-])c3)cs2)c(=O)n1-c1ccccc1

>  <Energy>  (54) 
128.89770299645846

>  <Genealogy>  (54) 
Cn1c(N)c(N=c2[n-]c(-c3cccc([N+](=O)[O-])c3)cs2)c(=O)n1-c1ccccc1 (protonated)
Cn1c(N)c(/N=c2\[n-]c(-c3cccc([N+](=O)[O-])c3)cs2)c(=O)n1-c1ccccc1 (cis-trans isomerization)
Cn1c(N)c(/N=c2\[n-]c(-c3cccc([N+](=O)[O-])c3)cs2)c(=O)n1-c1ccccc1 (3D coordinates assigned)
Cn1c(N)c(/N=c2\[n-]c(-c3cccc([N+](=O)[O-])c3)cs2)c(=O)n1-c1ccccc1 (optimized conformer: 128.89770299645846 kcal/mol)

>  <smiles>  (54) 
Cn1c(N)c(N=c2[nH]c(-c3cccc([N+](=O)[O-])c3)cs2)c(=O)n1-c1ccccc1

>  <score_type>  (54) 
oracle

>  <origin>  (54) 
autodockgpu

>  <m_score__min__energy>  (54) 
-8.8200000000000003

>  <m_primary>  (54) 
energy

>  <meeko>  (54) 
{"free_energy": -8.7, "intermolecular_energy": -10.49, "internal_energy": -1.42, "cluster_size": 17, "cluster_id": 1, "rank_in_cluster": 4}

>  <energy>  (54) 
-8.1

>  <cluster_rmsd>  (54) 
1.73

>  <rmsd>  (54) 
271.22

>  <cluster>  (54) 
1

$$$$
DVQUYCKLNVLYBS-HNRYJENLNA-M
     RDKit          3D

 44 47  0  0  0  0  0  0  0  0999 V2000
  138.3668   70.0033  222.7019 H   0  0  0  0  0  0  0  0  0  0  0  0
  138.8980   70.9500  222.5240 C   0  0  0  0  0  0  0  0  0  0  0  0
  138.7860   71.8970  221.1370 S   0  0  0  0  0  0  0  0  0  0  0  0
  139.8660   73.0420  221.7100 C   0  0  0  0  0  0  0  0  0  0  0  0
  140.1860   74.1180  221.0580 N   0  0  0  0  0  0  0  0  0  0  0  0
  140.0470   75.4660  221.5340 C   0  0  0  0  0  0  0  0  0  0  0  0
  138.9320   75.9970  222.1510 C   0  0  0  0  0  0  0  0  0  0  0  0
  137.7570   75.2680  222.5100 N   0  0  0  0  0  0  0  0  0  0  0  0
  136.8200   75.7270  222.5400 H   0  0  0  0  0  0  0  0  0  0  0  0
  137.8260   74.2630  222.7860 H   0  0  0  0  0  0  0  0  0  0  0  0
  139.1320   77.3170  222.3840 N   0  0  0  0  0  0  0  0  0  0  0  0
  138.1770   78.2360  223.0080 C   0  0  0  0  0  0  0  0  0  0  0  0
  138.2563   78.1597  224.1025 H   0  0  0  0  0  0  0  0  0  0  0  0
  138.4016   79.2663  222.6950 H   0  0  0  0  0  0  0  0  0  0  0  0
  137.1560   77.9720  222.6950 H   0  0  0  0  0  0  0  0  0  0  0  0
  140.3430   77.6430  221.9340 N   0  0  0  0  0  0  0  0  0  0  0  0
  140.9570   78.9410  222.0230 C   0  0  0  0  0  0  0  0  0  0  0  0
  141.7290   79.2850  223.1460 C   0  0  0  0  0  0  0  0  0  0  0  0
  141.8535   78.5638  223.9672 H   0  0  0  0  0  0  0  0  0  0  0  0
  142.3390   80.5400  223.2230 C   0  0  0  0  0  0  0  0  0  0  0  0
  142.9373   80.8065  224.1067 H   0  0  0  0  0  0  0  0  0  0  0  0
  142.1900   81.4570  222.1790 C   0  0  0  0  0  0  0  0  0  0  0  0
  142.6693   82.4451  222.2425 H   0  0  0  0  0  0  0  0  0  0  0  0
  141.4320   81.1190  221.0540 C   0  0  0  0  0  0  0  0  0  0  0  0
  141.3174   81.8405  220.2316 H   0  0  0  0  0  0  0  0  0  0  0  0
  140.8190   79.8640  220.9730 C   0  0  0  0  0  0  0  0  0  0  0  0
  140.2272   79.5992  220.0844 H   0  0  0  0  0  0  0  0  0  0  0  0
  140.9070   76.5410  221.3910 C   0  0  0  0  0  0  0  0  0  0  0  0
  142.0310   76.5280  220.8210 O   0  0  0  0  0  0  0  0  0  0  0  0
  140.3100   72.7410  222.9490 N   0  0  0  0  0  0  0  0  0  0  0  0
  139.7830   71.5730  223.4130 C   0  0  0  0  0  0  0  0  0  0  0  0
  140.1500   71.0400  224.7520 C   0  0  0  0  0  0  0  0  0  0  0  0
  140.7020   71.8670  225.7480 C   0  0  0  0  0  0  0  0  0  0  0  0
  140.8674   72.9348  225.5418 H   0  0  0  0  0  0  0  0  0  0  0  0
  141.0410   71.3410  226.9960 C   0  0  0  0  0  0  0  0  0  0  0  0
  141.4692   71.9974  227.7679 H   0  0  0  0  0  0  0  0  0  0  0  0
  140.8400   69.9880  227.2700 C   0  0  0  0  0  0  0  0  0  0  0  0
  141.1095   69.5840  228.2570 H   0  0  0  0  0  0  0  0  0  0  0  0
  140.2950   69.1380  226.2920 C   0  0  0  0  0  0  0  0  0  0  0  0
  140.0870   67.7410  226.5680 N   0  0  0  0  0  0  0  0  0  0  0  0
  141.0330   67.0180  226.9450 O   0  0  0  0  0  0  0  0  0  0  0  0
  138.8410   67.1760  226.4210 O   0  0  0  0  0  0  0  0  0  0  0  0
  139.9570   69.6740  225.0360 C   0  0  0  0  0  0  0  0  0  0  0  0
  139.5349   69.0153  224.2627 H   0  0  0  0  0  0  0  0  0  0  0  0
  1  2  1  0
  2  3  1  0
  3  4  1  0
  4  5  2  0
  5  6  1  0
  6  7  2  0
  7  8  1  0
  8  9  1  0
  8 10  1  0
  7 11  1  0
 11 12  1  0
 12 13  1  0
 12 14  1  0
 12 15  1  0
 11 16  1  0
 16 17  1  0
 17 18  2  0
 18 19  1  0
 18 20  1  0
 20 21  1  0
 20 22  2  0
 22 23  1  0
 22 24  1  0
 24 25  1  0
 24 26  2  0
 26 27  1  0
 16 28  1  0
 28 29  2  0
  4 30  1  0
 30 31  1  0
 31 32  1  0
 32 33  2  0
 33 34  1  0
 33 35  1  0
 35 36  1  0
 35 37  2  0
 37 38  1  0
 37 39  1  0
 39 40  1  0
 40 41  2  0
 40 42  1  0
 39 43  2  0
 43 44  1  0
 31  2  2  0
 43 32  1  0
 28  6  1  0
 26 17  1  0
M  CHG  3  30  -1  40   1  42  -1
M  END
>  <UniqueID>  (55) 
29

>  <SMILES>  (55) 
Cn1c(N)c(/N=c2\[n-]c(-c3cccc([N+](=O)[O-])c3)cs2)c(=O)n1-c1ccccc1

>  <Energy>  (55) 
128.89770299645846

>  <Genealogy>  (55) 
Cn1c(N)c(N=c2[n-]c(-c3cccc([N+](=O)[O-])c3)cs2)c(=O)n1-c1ccccc1 (protonated)
Cn1c(N)c(/N=c2\[n-]c(-c3cccc([N+](=O)[O-])c3)cs2)c(=O)n1-c1ccccc1 (cis-trans isomerization)
Cn1c(N)c(/N=c2\[n-]c(-c3cccc([N+](=O)[O-])c3)cs2)c(=O)n1-c1ccccc1 (3D coordinates assigned)
Cn1c(N)c(/N=c2\[n-]c(-c3cccc([N+](=O)[O-])c3)cs2)c(=O)n1-c1ccccc1 (optimized conformer: 128.89770299645846 kcal/mol)

>  <smiles>  (55) 
Cn1c(N)c(N=c2[nH]c(-c3cccc([N+](=O)[O-])c3)cs2)c(=O)n1-c1ccccc1

>  <score_type>  (55) 
oracle

>  <origin>  (55) 
autodockgpu

>  <m_score__min__energy>  (55) 
-8.8200000000000003

>  <m_primary>  (55) 
energy

>  <meeko>  (55) 
{"free_energy": -8.56, "intermolecular_energy": -10.35, "internal_energy": -1.45, "cluster_size": 17, "cluster_id": 1, "rank_in_cluster": 6}

>  <energy>  (55) 
-8.09

>  <cluster_rmsd>  (55) 
1.83

>  <rmsd>  (55) 
271.26

>  <cluster>  (55) 
1

$$$$
DVQUYCKLNVLYBS-HNRYJENLNA-M
     RDKit          3D

 44 47  0  0  0  0  0  0  0  0999 V2000
  138.5314   70.7555  221.2338 H   0  0  0  0  0  0  0  0  0  0  0  0
  139.2070   71.6040  221.4170 C   0  0  0  0  0  0  0  0  0  0  0  0
  139.6340   72.7830  220.2940 S   0  0  0  0  0  0  0  0  0  0  0  0
  140.6310   73.5900  221.3730 C   0  0  0  0  0  0  0  0  0  0  0  0
  141.2650   74.6860  221.0840 N   0  0  0  0  0  0  0  0  0  0  0  0
  140.8500   76.0170  221.4290 C   0  0  0  0  0  0  0  0  0  0  0  0
  139.7060   76.3550  222.1230 C   0  0  0  0  0  0  0  0  0  0  0  0
  138.7860   75.4290  222.7060 N   0  0  0  0  0  0  0  0  0  0  0  0
  138.9760   74.4030  222.7100 H   0  0  0  0  0  0  0  0  0  0  0  0
  137.8840   75.7680  223.1090 H   0  0  0  0  0  0  0  0  0  0  0  0
  139.6010   77.7040  222.1880 N   0  0  0  0  0  0  0  0  0  0  0  0
  138.5170   78.4540  222.8280 C   0  0  0  0  0  0  0  0  0  0  0  0
  138.6183   78.3839  223.9211 H   0  0  0  0  0  0  0  0  0  0  0  0
  138.5705   79.5091  222.5217 H   0  0  0  0  0  0  0  0  0  0  0  0
  137.5485   78.0319  222.5217 H   0  0  0  0  0  0  0  0  0  0  0  0
  140.6450   78.2370  221.5540 N   0  0  0  0  0  0  0  0  0  0  0  0
  140.9290   79.6410  221.4260 C   0  0  0  0  0  0  0  0  0  0  0  0
  140.7600   80.2890  220.1910 C   0  0  0  0  0  0  0  0  0  0  0  0
  140.4218   79.7174  219.3141 H   0  0  0  0  0  0  0  0  0  0  0  0
  141.0200   81.6580  220.0720 C   0  0  0  0  0  0  0  0  0  0  0  0
  140.8921   82.1594  219.1013 H   0  0  0  0  0  0  0  0  0  0  0  0
  141.4420   82.3890  221.1850 C   0  0  0  0  0  0  0  0  0  0  0  0
  141.6478   83.4654  221.0896 H   0  0  0  0  0  0  0  0  0  0  0  0
  141.6030   81.7540  222.4200 C   0  0  0  0  0  0  0  0  0  0  0  0
  141.9326   82.3315  223.2963 H   0  0  0  0  0  0  0  0  0  0  0  0
  141.3450   80.3840  222.5420 C   0  0  0  0  0  0  0  0  0  0  0  0
  141.4686   79.8876  223.5158 H   0  0  0  0  0  0  0  0  0  0  0  0
  141.4030   77.2310  221.0630 C   0  0  0  0  0  0  0  0  0  0  0  0
  142.4340   77.4010  220.3580 O   0  0  0  0  0  0  0  0  0  0  0  0
  140.6440   72.9990  222.5860 N   0  0  0  0  0  0  0  0  0  0  0  0
  139.8580   71.8870  222.6240 C   0  0  0  0  0  0  0  0  0  0  0  0
  139.7390   71.0680  223.8600 C   0  0  0  0  0  0  0  0  0  0  0  0
  138.9350   69.9150  223.9040 C   0  0  0  0  0  0  0  0  0  0  0  0
  138.3784   69.6031  223.0080 H   0  0  0  0  0  0  0  0  0  0  0  0
  138.8380   69.1630  225.0770 C   0  0  0  0  0  0  0  0  0  0  0  0
  138.2088   68.2610  225.0982 H   0  0  0  0  0  0  0  0  0  0  0  0
  139.5350   69.5500  226.2220 C   0  0  0  0  0  0  0  0  0  0  0  0
  139.4527   68.9514  227.1412 H   0  0  0  0  0  0  0  0  0  0  0  0
  140.3420   70.7010  226.2070 C   0  0  0  0  0  0  0  0  0  0  0  0
  141.0620   71.1070  227.3860 N   0  0  0  0  0  0  0  0  0  0  0  0
  141.3720   72.3030  227.5630 O   0  0  0  0  0  0  0  0  0  0  0  0
  141.4230   70.1810  228.3390 O   0  0  0  0  0  0  0  0  0  0  0  0
  140.4340   71.4540  225.0230 C   0  0  0  0  0  0  0  0  0  0  0  0
  141.0588   72.3591  225.0046 H   0  0  0  0  0  0  0  0  0  0  0  0
  1  2  1  0
  2  3  1  0
  3  4  1  0
  4  5  2  0
  5  6  1  0
  6  7  2  0
  7  8  1  0
  8  9  1  0
  8 10  1  0
  7 11  1  0
 11 12  1  0
 12 13  1  0
 12 14  1  0
 12 15  1  0
 11 16  1  0
 16 17  1  0
 17 18  2  0
 18 19  1  0
 18 20  1  0
 20 21  1  0
 20 22  2  0
 22 23  1  0
 22 24  1  0
 24 25  1  0
 24 26  2  0
 26 27  1  0
 16 28  1  0
 28 29  2  0
  4 30  1  0
 30 31  1  0
 31 32  1  0
 32 33  2  0
 33 34  1  0
 33 35  1  0
 35 36  1  0
 35 37  2  0
 37 38  1  0
 37 39  1  0
 39 40  1  0
 40 41  2  0
 40 42  1  0
 39 43  2  0
 43 44  1  0
 31  2  2  0
 43 32  1  0
 28  6  1  0
 26 17  1  0
M  CHG  3  30  -1  40   1  42  -1
M  END
>  <UniqueID>  (56) 
29

>  <SMILES>  (56) 
Cn1c(N)c(/N=c2\[n-]c(-c3cccc([N+](=O)[O-])c3)cs2)c(=O)n1-c1ccccc1

>  <Energy>  (56) 
128.89770299645846

>  <Genealogy>  (56) 
Cn1c(N)c(N=c2[n-]c(-c3cccc([N+](=O)[O-])c3)cs2)c(=O)n1-c1ccccc1 (protonated)
Cn1c(N)c(/N=c2\[n-]c(-c3cccc([N+](=O)[O-])c3)cs2)c(=O)n1-c1ccccc1 (cis-trans isomerization)
Cn1c(N)c(/N=c2\[n-]c(-c3cccc([N+](=O)[O-])c3)cs2)c(=O)n1-c1ccccc1 (3D coordinates assigned)
Cn1c(N)c(/N=c2\[n-]c(-c3cccc([N+](=O)[O-])c3)cs2)c(=O)n1-c1ccccc1 (optimized conformer: 128.89770299645846 kcal/mol)

>  <smiles>  (56) 
Cn1c(N)c(N=c2[nH]c(-c3cccc([N+](=O)[O-])c3)cs2)c(=O)n1-c1ccccc1

>  <score_type>  (56) 
oracle

>  <origin>  (56) 
autodockgpu

>  <m_score__min__energy>  (56) 
-8.8200000000000003

>  <m_primary>  (56) 
energy

>  <meeko>  (56) 
{"free_energy": -7.66, "intermolecular_energy": -9.45, "internal_energy": -1.91, "cluster_size": 17, "cluster_id": 1, "rank_in_cluster": 17}

>  <energy>  (56) 
-8.05

>  <cluster_rmsd>  (56) 
1.85

>  <rmsd>  (56) 
271.31

>  <cluster>  (56) 
1

$$$$
DVQUYCKLNVLYBS-HNRYJENLNA-M
     RDKit          3D

 44 47  0  0  0  0  0  0  0  0999 V2000
  139.0398   70.2811  221.8051 H   0  0  0  0  0  0  0  0  0  0  0  0
  139.5890   71.2340  221.8250 C   0  0  0  0  0  0  0  0  0  0  0  0
  139.8080   72.2720  220.5180 S   0  0  0  0  0  0  0  0  0  0  0  0
  140.7050   73.3690  221.4120 C   0  0  0  0  0  0  0  0  0  0  0  0
  141.1640   74.4840  220.9300 N   0  0  0  0  0  0  0  0  0  0  0  0
  140.8440   75.8020  221.4020 C   0  0  0  0  0  0  0  0  0  0  0  0
  139.7500   76.1440  222.1700 C   0  0  0  0  0  0  0  0  0  0  0  0
  138.7960   75.2270  222.7110 N   0  0  0  0  0  0  0  0  0  0  0  0
  137.8790   75.5540  223.0870 H   0  0  0  0  0  0  0  0  0  0  0  0
  139.0210   74.2090  222.7700 H   0  0  0  0  0  0  0  0  0  0  0  0
  139.7300   77.4870  222.3520 N   0  0  0  0  0  0  0  0  0  0  0  0
  138.7180   78.2400  223.0980 C   0  0  0  0  0  0  0  0  0  0  0  0
  138.8883   78.1132  224.1773 H   0  0  0  0  0  0  0  0  0  0  0  0
  138.7892   79.3065  222.8383 H   0  0  0  0  0  0  0  0  0  0  0  0
  137.7169   77.8654  222.8383 H   0  0  0  0  0  0  0  0  0  0  0  0
  140.7800   78.0110  221.7220 N   0  0  0  0  0  0  0  0  0  0  0  0
  141.1450   79.4020  221.7000 C   0  0  0  0  0  0  0  0  0  0  0  0
  141.0830   80.1330  220.5020 C   0  0  0  0  0  0  0  0  0  0  0  0
  140.7675   79.6364  219.5726 H   0  0  0  0  0  0  0  0  0  0  0  0
  141.4210   81.4900  220.4870 C   0  0  0  0  0  0  0  0  0  0  0  0
  141.3765   82.0566  219.5452 H   0  0  0  0  0  0  0  0  0  0  0  0
  141.8150   82.1270  221.6660 C   0  0  0  0  0  0  0  0  0  0  0  0
  142.0829   83.1938  221.6515 H   0  0  0  0  0  0  0  0  0  0  0  0
  141.8690   81.4090  222.8650 C   0  0  0  0  0  0  0  0  0  0  0  0
  142.1766   81.9121  223.7936 H   0  0  0  0  0  0  0  0  0  0  0  0
  141.5320   80.0510  222.8840 C   0  0  0  0  0  0  0  0  0  0  0  0
  141.5703   79.4899  223.8293 H   0  0  0  0  0  0  0  0  0  0  0  0
  141.4570   77.0100  221.1170 C   0  0  0  0  0  0  0  0  0  0  0  0
  142.4690   77.1800  220.3860 O   0  0  0  0  0  0  0  0  0  0  0  0
  140.8380   72.9820  222.6980 N   0  0  0  0  0  0  0  0  0  0  0  0
  140.2250   71.7900  222.9420 C   0  0  0  0  0  0  0  0  0  0  0  0
  140.2620   71.1660  224.2910 C   0  0  0  0  0  0  0  0  0  0  0  0
  140.7070   71.8780  225.4200 C   0  0  0  0  0  0  0  0  0  0  0  0
  141.0360   72.9221  225.3123 H   0  0  0  0  0  0  0  0  0  0  0  0
  140.7340   71.2690  226.6760 C   0  0  0  0  0  0  0  0  0  0  0  0
  141.0804   71.8370  227.5520 H   0  0  0  0  0  0  0  0  0  0  0  0
  140.3240   69.9440  226.8260 C   0  0  0  0  0  0  0  0  0  0  0  0
  140.3484   69.4734  227.8199 H   0  0  0  0  0  0  0  0  0  0  0  0
  139.8800   69.2070  225.7150 C   0  0  0  0  0  0  0  0  0  0  0  0
  139.4570   67.8390  225.8630 N   0  0  0  0  0  0  0  0  0  0  0  0
  139.2710   67.3490  226.9960 O   0  0  0  0  0  0  0  0  0  0  0  0
  139.2510   67.0460  224.7570 O   0  0  0  0  0  0  0  0  0  0  0  0
  139.8560   69.8260  224.4520 C   0  0  0  0  0  0  0  0  0  0  0  0
  139.5149   69.2550  223.5759 H   0  0  0  0  0  0  0  0  0  0  0  0
  1  2  1  0
  2  3  1  0
  3  4  1  0
  4  5  2  0
  5  6  1  0
  6  7  2  0
  7  8  1  0
  8  9  1  0
  8 10  1  0
  7 11  1  0
 11 12  1  0
 12 13  1  0
 12 14  1  0
 12 15  1  0
 11 16  1  0
 16 17  1  0
 17 18  2  0
 18 19  1  0
 18 20  1  0
 20 21  1  0
 20 22  2  0
 22 23  1  0
 22 24  1  0
 24 25  1  0
 24 26  2  0
 26 27  1  0
 16 28  1  0
 28 29  2  0
  4 30  1  0
 30 31  1  0
 31 32  1  0
 32 33  2  0
 33 34  1  0
 33 35  1  0
 35 36  1  0
 35 37  2  0
 37 38  1  0
 37 39  1  0
 39 40  1  0
 40 41  2  0
 40 42  1  0
 39 43  2  0
 43 44  1  0
 31  2  2  0
 43 32  1  0
 28  6  1  0
 26 17  1  0
M  CHG  3  30  -1  40   1  42  -1
M  END
>  <UniqueID>  (57) 
29

>  <SMILES>  (57) 
Cn1c(N)c(/N=c2\[n-]c(-c3cccc([N+](=O)[O-])c3)cs2)c(=O)n1-c1ccccc1

>  <Energy>  (57) 
128.89770299645846

>  <Genealogy>  (57) 
Cn1c(N)c(N=c2[n-]c(-c3cccc([N+](=O)[O-])c3)cs2)c(=O)n1-c1ccccc1 (protonated)
Cn1c(N)c(/N=c2\[n-]c(-c3cccc([N+](=O)[O-])c3)cs2)c(=O)n1-c1ccccc1 (cis-trans isomerization)
Cn1c(N)c(/N=c2\[n-]c(-c3cccc([N+](=O)[O-])c3)cs2)c(=O)n1-c1ccccc1 (3D coordinates assigned)
Cn1c(N)c(/N=c2\[n-]c(-c3cccc([N+](=O)[O-])c3)cs2)c(=O)n1-c1ccccc1 (optimized conformer: 128.89770299645846 kcal/mol)

>  <smiles>  (57) 
Cn1c(N)c(N=c2[nH]c(-c3cccc([N+](=O)[O-])c3)cs2)c(=O)n1-c1ccccc1

>  <score_type>  (57) 
oracle

>  <origin>  (57) 
autodockgpu

>  <m_score__min__energy>  (57) 
-8.8200000000000003

>  <m_primary>  (57) 
energy

>  <meeko>  (57) 
{"free_energy": -8.31, "intermolecular_energy": -10.1, "internal_energy": -1.91, "cluster_size": 17, "cluster_id": 1, "rank_in_cluster": 8}

>  <energy>  (57) 
-7.66

>  <cluster_rmsd>  (57) 
1.75

>  <rmsd>  (57) 
271.11

>  <cluster>  (57) 
1

$$$$
DVQUYCKLNVLYBS-HNRYJENLNA-M
     RDKit          3D

 44 47  0  0  0  0  0  0  0  0999 V2000
  139.0263   70.3515  221.6290 H   0  0  0  0  0  0  0  0  0  0  0  0
  139.5810   71.3000  221.6810 C   0  0  0  0  0  0  0  0  0  0  0  0
  139.8170   72.3750  220.4070 S   0  0  0  0  0  0  0  0  0  0  0  0
  140.7140   73.4390  221.3390 C   0  0  0  0  0  0  0  0  0  0  0  0
  141.1840   74.5650  220.8940 N   0  0  0  0  0  0  0  0  0  0  0  0
  140.8380   75.8730  221.3760 C   0  0  0  0  0  0  0  0  0  0  0  0
  139.7370   76.1880  222.1460 C   0  0  0  0  0  0  0  0  0  0  0  0
  138.8020   75.2480  222.6800 N   0  0  0  0  0  0  0  0  0  0  0  0
  139.0290   74.2310  222.7440 H   0  0  0  0  0  0  0  0  0  0  0  0
  137.8550   75.5640  222.9860 H   0  0  0  0  0  0  0  0  0  0  0  0
  139.6900   77.5280  222.3380 N   0  0  0  0  0  0  0  0  0  0  0  0
  138.6640   78.2560  223.0890 C   0  0  0  0  0  0  0  0  0  0  0  0
  138.8408   78.1306  224.1674 H   0  0  0  0  0  0  0  0  0  0  0  0
  138.7102   79.3245  222.8317 H   0  0  0  0  0  0  0  0  0  0  0  0
  137.6707   77.8595  222.8317 H   0  0  0  0  0  0  0  0  0  0  0  0
  140.7300   78.0780  221.7110 N   0  0  0  0  0  0  0  0  0  0  0  0
  141.0670   79.4760  221.7000 C   0  0  0  0  0  0  0  0  0  0  0  0
  140.9310   80.2290  220.5220 C   0  0  0  0  0  0  0  0  0  0  0  0
  140.5777   79.7445  219.5998 H   0  0  0  0  0  0  0  0  0  0  0  0
  141.2430   81.5920  220.5170 C   0  0  0  0  0  0  0  0  0  0  0  0
  141.1411   82.1757  219.5902 H   0  0  0  0  0  0  0  0  0  0  0  0
  141.6840   82.2130  221.6880 C   0  0  0  0  0  0  0  0  0  0  0  0
  141.9308   83.2849  221.6820 H   0  0  0  0  0  0  0  0  0  0  0  0
  141.8120   81.4740  222.8670 C   0  0  0  0  0  0  0  0  0  0  0  0
  142.1568   81.9653  223.7888 H   0  0  0  0  0  0  0  0  0  0  0  0
  141.5020   80.1100  222.8760 C   0  0  0  0  0  0  0  0  0  0  0  0
  141.5991   79.5319  223.8068 H   0  0  0  0  0  0  0  0  0  0  0  0
  141.4270   77.0950  221.0990 C   0  0  0  0  0  0  0  0  0  0  0  0
  142.4350   77.2900  220.3700 O   0  0  0  0  0  0  0  0  0  0  0  0
  140.8340   73.0140  222.6140 N   0  0  0  0  0  0  0  0  0  0  0  0
  140.2120   71.8200  222.8190 C   0  0  0  0  0  0  0  0  0  0  0  0
  140.2340   71.1560  224.1490 C   0  0  0  0  0  0  0  0  0  0  0  0
  140.6780   71.8310  225.3010 C   0  0  0  0  0  0  0  0  0  0  0  0
  141.0179   72.8745  225.2259 H   0  0  0  0  0  0  0  0  0  0  0  0
  140.6900   71.1850  226.5390 C   0  0  0  0  0  0  0  0  0  0  0  0
  141.0357   71.7238  227.4335 H   0  0  0  0  0  0  0  0  0  0  0  0
  140.2660   69.8600  226.6480 C   0  0  0  0  0  0  0  0  0  0  0  0
  140.2788   69.3603  227.6279 H   0  0  0  0  0  0  0  0  0  0  0  0
  139.8230   69.1610  225.5130 C   0  0  0  0  0  0  0  0  0  0  0  0
  139.3860   67.7930  225.6180 N   0  0  0  0  0  0  0  0  0  0  0  0
  139.2270   67.0940  224.5960 O   0  0  0  0  0  0  0  0  0  0  0  0
  139.1350   67.2310  226.8490 O   0  0  0  0  0  0  0  0  0  0  0  0
  139.8130   69.8170  224.2690 C   0  0  0  0  0  0  0  0  0  0  0  0
  139.4707   69.2755  223.3748 H   0  0  0  0  0  0  0  0  0  0  0  0
  1  2  1  0
  2  3  1  0
  3  4  1  0
  4  5  2  0
  5  6  1  0
  6  7  2  0
  7  8  1  0
  8  9  1  0
  8 10  1  0
  7 11  1  0
 11 12  1  0
 12 13  1  0
 12 14  1  0
 12 15  1  0
 11 16  1  0
 16 17  1  0
 17 18  2  0
 18 19  1  0
 18 20  1  0
 20 21  1  0
 20 22  2  0
 22 23  1  0
 22 24  1  0
 24 25  1  0
 24 26  2  0
 26 27  1  0
 16 28  1  0
 28 29  2  0
  4 30  1  0
 30 31  1  0
 31 32  1  0
 32 33  2  0
 33 34  1  0
 33 35  1  0
 35 36  1  0
 35 37  2  0
 37 38  1  0
 37 39  1  0
 39 40  1  0
 40 41  2  0
 40 42  1  0
 39 43  2  0
 43 44  1  0
 31  2  2  0
 43 32  1  0
 28  6  1  0
 26 17  1  0
M  CHG  3  30  -1  40   1  42  -1
M  END
>  <UniqueID>  (58) 
29

>  <SMILES>  (58) 
Cn1c(N)c(/N=c2\[n-]c(-c3cccc([N+](=O)[O-])c3)cs2)c(=O)n1-c1ccccc1

>  <Energy>  (58) 
128.89770299645846

>  <Genealogy>  (58) 
Cn1c(N)c(N=c2[n-]c(-c3cccc([N+](=O)[O-])c3)cs2)c(=O)n1-c1ccccc1 (protonated)
Cn1c(N)c(/N=c2\[n-]c(-c3cccc([N+](=O)[O-])c3)cs2)c(=O)n1-c1ccccc1 (cis-trans isomerization)
Cn1c(N)c(/N=c2\[n-]c(-c3cccc([N+](=O)[O-])c3)cs2)c(=O)n1-c1ccccc1 (3D coordinates assigned)
Cn1c(N)c(/N=c2\[n-]c(-c3cccc([N+](=O)[O-])c3)cs2)c(=O)n1-c1ccccc1 (optimized conformer: 128.89770299645846 kcal/mol)

>  <smiles>  (58) 
Cn1c(N)c(N=c2[nH]c(-c3cccc([N+](=O)[O-])c3)cs2)c(=O)n1-c1ccccc1

>  <score_type>  (58) 
oracle

>  <origin>  (58) 
autodockgpu

>  <m_score__min__energy>  (58) 
-8.8200000000000003

>  <m_primary>  (58) 
energy

>  <meeko>  (58) 
{"free_energy": -8.21, "intermolecular_energy": -10.0, "internal_energy": -1.92, "cluster_size": 17, "cluster_id": 1, "rank_in_cluster": 9}

>  <energy>  (58) 
-8.26

>  <cluster_rmsd>  (58) 
0.0

>  <rmsd>  (58) 
271.14

>  <cluster>  (58) 
2

$$$$
DVQUYCKLNVLYBS-HNRYJENLNA-M
     RDKit          3D

 44 47  0  0  0  0  0  0  0  0999 V2000
  139.7093   69.3765  221.6418 H   0  0  0  0  0  0  0  0  0  0  0  0
  139.9940   70.4390  221.6370 C   0  0  0  0  0  0  0  0  0  0  0  0
  140.2720   71.3780  220.2680 S   0  0  0  0  0  0  0  0  0  0  0  0
  140.6380   72.7480  221.1590 C   0  0  0  0  0  0  0  0  0  0  0  0
  140.9230   73.8970  220.6260 N   0  0  0  0  0  0  0  0  0  0  0  0
  140.6930   75.1840  221.2230 C   0  0  0  0  0  0  0  0  0  0  0  0
  139.5810   75.5510  221.9540 C   0  0  0  0  0  0  0  0  0  0  0  0
  138.5100   74.6820  222.3270 N   0  0  0  0  0  0  0  0  0  0  0  0
  137.5130   74.9830  222.2510 H   0  0  0  0  0  0  0  0  0  0  0  0
  138.7130   73.7360  222.7190 H   0  0  0  0  0  0  0  0  0  0  0  0
  139.6720   76.8620  222.2830 N   0  0  0  0  0  0  0  0  0  0  0  0
  138.6830   77.6300  223.0440 C   0  0  0  0  0  0  0  0  0  0  0  0
  138.8609   77.4918  224.1207 H   0  0  0  0  0  0  0  0  0  0  0  0
  138.7737   78.6967  222.7913 H   0  0  0  0  0  0  0  0  0  0  0  0
  137.6719   77.2780  222.7913 H   0  0  0  0  0  0  0  0  0  0  0  0
  140.8100   77.3420  221.7830 N   0  0  0  0  0  0  0  0  0  0  0  0
  141.3030   78.6840  221.9410 C   0  0  0  0  0  0  0  0  0  0  0  0
  141.1330   79.6270  220.9130 C   0  0  0  0  0  0  0  0  0  0  0  0
  140.6332   79.3343  219.9778 H   0  0  0  0  0  0  0  0  0  0  0  0
  141.5970   80.9360  221.0750 C   0  0  0  0  0  0  0  0  0  0  0  0
  141.4667   81.6691  220.2654 H   0  0  0  0  0  0  0  0  0  0  0  0
  142.2260   81.3140  222.2640 C   0  0  0  0  0  0  0  0  0  0  0  0
  142.5924   82.3437  222.3886 H   0  0  0  0  0  0  0  0  0  0  0  0
  142.3900   80.3850  223.2950 C   0  0  0  0  0  0  0  0  0  0  0  0
  142.8834   80.6845  224.2314 H   0  0  0  0  0  0  0  0  0  0  0  0
  141.9270   79.0740  223.1370 C   0  0  0  0  0  0  0  0  0  0  0  0
  142.0523   78.3464  223.9524 H   0  0  0  0  0  0  0  0  0  0  0  0
  141.4340   76.3470  221.1130 C   0  0  0  0  0  0  0  0  0  0  0  0
  142.5090   76.4910  220.4710 O   0  0  0  0  0  0  0  0  0  0  0  0
  140.5410   72.5260  222.4870 N   0  0  0  0  0  0  0  0  0  0  0  0
  140.1870   71.2410  222.7690 C   0  0  0  0  0  0  0  0  0  0  0  0
  140.0410   70.7710  224.1720 C   0  0  0  0  0  0  0  0  0  0  0  0
  139.4950   69.5100  224.4730 C   0  0  0  0  0  0  0  0  0  0  0  0
  139.1672   68.8484  223.6576 H   0  0  0  0  0  0  0  0  0  0  0  0
  139.3660   69.0920  225.7980 C   0  0  0  0  0  0  0  0  0  0  0  0
  138.9405   68.1023  226.0204 H   0  0  0  0  0  0  0  0  0  0  0  0
  139.7740   69.9230  226.8430 C   0  0  0  0  0  0  0  0  0  0  0  0
  139.6691   69.5841  227.8842 H   0  0  0  0  0  0  0  0  0  0  0  0
  140.3180   71.1900  226.5720 C   0  0  0  0  0  0  0  0  0  0  0  0
  140.7380   72.0530  227.6450 N   0  0  0  0  0  0  0  0  0  0  0  0
  141.8290   72.6580  227.5850 O   0  0  0  0  0  0  0  0  0  0  0  0
  139.9460   72.2250  228.7560 O   0  0  0  0  0  0  0  0  0  0  0  0
  140.4440   71.6050  225.2340 C   0  0  0  0  0  0  0  0  0  0  0  0
  140.8642   72.5972  225.0129 H   0  0  0  0  0  0  0  0  0  0  0  0
  1  2  1  0
  2  3  1  0
  3  4  1  0
  4  5  2  0
  5  6  1  0
  6  7  2  0
  7  8  1  0
  8  9  1  0
  8 10  1  0
  7 11  1  0
 11 12  1  0
 12 13  1  0
 12 14  1  0
 12 15  1  0
 11 16  1  0
 16 17  1  0
 17 18  2  0
 18 19  1  0
 18 20  1  0
 20 21  1  0
 20 22  2  0
 22 23  1  0
 22 24  1  0
 24 25  1  0
 24 26  2  0
 26 27  1  0
 16 28  1  0
 28 29  2  0
  4 30  1  0
 30 31  1  0
 31 32  1  0
 32 33  2  0
 33 34  1  0
 33 35  1  0
 35 36  1  0
 35 37  2  0
 37 38  1  0
 37 39  1  0
 39 40  1  0
 40 41  2  0
 40 42  1  0
 39 43  2  0
 43 44  1  0
 31  2  2  0
 43 32  1  0
 28  6  1  0
 26 17  1  0
M  CHG  3  30  -1  40   1  42  -1
M  END
>  <UniqueID>  (59) 
29

>  <SMILES>  (59) 
Cn1c(N)c(/N=c2\[n-]c(-c3cccc([N+](=O)[O-])c3)cs2)c(=O)n1-c1ccccc1

>  <Energy>  (59) 
128.89770299645846

>  <Genealogy>  (59) 
Cn1c(N)c(N=c2[n-]c(-c3cccc([N+](=O)[O-])c3)cs2)c(=O)n1-c1ccccc1 (protonated)
Cn1c(N)c(/N=c2\[n-]c(-c3cccc([N+](=O)[O-])c3)cs2)c(=O)n1-c1ccccc1 (cis-trans isomerization)
Cn1c(N)c(/N=c2\[n-]c(-c3cccc([N+](=O)[O-])c3)cs2)c(=O)n1-c1ccccc1 (3D coordinates assigned)
Cn1c(N)c(/N=c2\[n-]c(-c3cccc([N+](=O)[O-])c3)cs2)c(=O)n1-c1ccccc1 (optimized conformer: 128.89770299645846 kcal/mol)

>  <smiles>  (59) 
Cn1c(N)c(N=c2[nH]c(-c3cccc([N+](=O)[O-])c3)cs2)c(=O)n1-c1ccccc1

>  <score_type>  (59) 
oracle

>  <origin>  (59) 
autodockgpu

>  <m_score__min__energy>  (59) 
-8.8200000000000003

>  <m_primary>  (59) 
energy

>  <meeko>  (59) 
{"free_energy": -8.1, "intermolecular_energy": -9.89, "internal_energy": -1.94, "cluster_size": 17, "cluster_id": 1, "rank_in_cluster": 14}

>  <energy>  (59) 
-8.25

>  <cluster_rmsd>  (59) 
0.03

>  <rmsd>  (59) 
271.13

>  <cluster>  (59) 
2

$$$$
DVQUYCKLNVLYBS-HNRYJENLNA-M
     RDKit          3D

 44 47  0  0  0  0  0  0  0  0999 V2000
  138.9727   70.4370  221.3956 H   0  0  0  0  0  0  0  0  0  0  0  0
  139.5390   71.3730  221.5110 C   0  0  0  0  0  0  0  0  0  0  0  0
  139.8730   72.4800  220.2870 S   0  0  0  0  0  0  0  0  0  0  0  0
  140.7270   73.4990  221.3060 C   0  0  0  0  0  0  0  0  0  0  0  0
  141.2430   74.6280  220.9250 N   0  0  0  0  0  0  0  0  0  0  0  0
  140.8720   75.9300  221.4050 C   0  0  0  0  0  0  0  0  0  0  0  0
  139.7560   76.2270  222.1610 C   0  0  0  0  0  0  0  0  0  0  0  0
  138.8280   75.2720  222.6810 N   0  0  0  0  0  0  0  0  0  0  0  0
  139.0640   74.2570  222.7340 H   0  0  0  0  0  0  0  0  0  0  0  0
  137.8760   75.5760  222.9850 H   0  0  0  0  0  0  0  0  0  0  0  0
  139.6870   77.5660  222.3540 N   0  0  0  0  0  0  0  0  0  0  0  0
  138.6400   78.2770  223.0940 C   0  0  0  0  0  0  0  0  0  0  0  0
  138.8112   78.1607  224.1744 H   0  0  0  0  0  0  0  0  0  0  0  0
  138.6662   79.3449  222.8314 H   0  0  0  0  0  0  0  0  0  0  0  0
  137.6570   77.8589  222.8314 H   0  0  0  0  0  0  0  0  0  0  0  0
  140.7270   78.1330  221.7430 N   0  0  0  0  0  0  0  0  0  0  0  0
  141.0430   79.5350  221.7390 C   0  0  0  0  0  0  0  0  0  0  0  0
  140.8640   80.2990  220.5740 C   0  0  0  0  0  0  0  0  0  0  0  0
  140.4926   79.8196  219.6563 H   0  0  0  0  0  0  0  0  0  0  0  0
  141.1560   81.6670  220.5760 C   0  0  0  0  0  0  0  0  0  0  0  0
  141.0203   82.2592  219.6590 H   0  0  0  0  0  0  0  0  0  0  0  0
  141.6200   82.2820  221.7420 C   0  0  0  0  0  0  0  0  0  0  0  0
  141.8515   83.3574  221.7416 H   0  0  0  0  0  0  0  0  0  0  0  0
  141.7900   81.5310  222.9090 C   0  0  0  0  0  0  0  0  0  0  0  0
  142.1520   82.0167  223.8272 H   0  0  0  0  0  0  0  0  0  0  0  0
  141.5000   80.1620  222.9100 C   0  0  0  0  0  0  0  0  0  0  0  0
  141.6304   79.5748  223.8310 H   0  0  0  0  0  0  0  0  0  0  0  0
  141.4460   77.1610  221.1380 C   0  0  0  0  0  0  0  0  0  0  0  0
  142.4610   77.3730  220.4230 O   0  0  0  0  0  0  0  0  0  0  0  0
  140.7600   73.0350  222.5730 N   0  0  0  0  0  0  0  0  0  0  0  0
  140.1050   71.8470  222.7010 C   0  0  0  0  0  0  0  0  0  0  0  0
  140.0320   71.1440  224.0100 C   0  0  0  0  0  0  0  0  0  0  0  0
  139.5260   69.8360  224.1150 C   0  0  0  0  0  0  0  0  0  0  0  0
  139.1751   69.3121  223.2137 H   0  0  0  0  0  0  0  0  0  0  0  0
  139.4660   69.1980  225.3550 C   0  0  0  0  0  0  0  0  0  0  0  0
  139.0711   68.1737  225.4244 H   0  0  0  0  0  0  0  0  0  0  0  0
  139.9040   69.8520  226.5070 C   0  0  0  0  0  0  0  0  0  0  0  0
  139.8546   69.3397  227.4792 H   0  0  0  0  0  0  0  0  0  0  0  0
  140.4080   71.1620  226.4320 C   0  0  0  0  0  0  0  0  0  0  0  0
  140.8590   71.8440  227.6170 N   0  0  0  0  0  0  0  0  0  0  0  0
  140.2490   71.7120  228.6990 O   0  0  0  0  0  0  0  0  0  0  0  0
  141.9720   72.6520  227.5790 O   0  0  0  0  0  0  0  0  0  0  0  0
  140.4650   71.7990  225.1800 C   0  0  0  0  0  0  0  0  0  0  0  0
  140.8540   72.8257  225.1127 H   0  0  0  0  0  0  0  0  0  0  0  0
  1  2  1  0
  2  3  1  0
  3  4  1  0
  4  5  2  0
  5  6  1  0
  6  7  2  0
  7  8  1  0
  8  9  1  0
  8 10  1  0
  7 11  1  0
 11 12  1  0
 12 13  1  0
 12 14  1  0
 12 15  1  0
 11 16  1  0
 16 17  1  0
 17 18  2  0
 18 19  1  0
 18 20  1  0
 20 21  1  0
 20 22  2  0
 22 23  1  0
 22 24  1  0
 24 25  1  0
 24 26  2  0
 26 27  1  0
 16 28  1  0
 28 29  2  0
  4 30  1  0
 30 31  1  0
 31 32  1  0
 32 33  2  0
 33 34  1  0
 33 35  1  0
 35 36  1  0
 35 37  2  0
 37 38  1  0
 37 39  1  0
 39 40  1  0
 40 41  2  0
 40 42  1  0
 39 43  2  0
 43 44  1  0
 31  2  2  0
 43 32  1  0
 28  6  1  0
 26 17  1  0
M  CHG  3  30  -1  40   1  42  -1
M  END
>  <UniqueID>  (60) 
29

>  <SMILES>  (60) 
Cn1c(N)c(/N=c2\[n-]c(-c3cccc([N+](=O)[O-])c3)cs2)c(=O)n1-c1ccccc1

>  <Energy>  (60) 
128.89770299645846

>  <Genealogy>  (60) 
Cn1c(N)c(N=c2[n-]c(-c3cccc([N+](=O)[O-])c3)cs2)c(=O)n1-c1ccccc1 (protonated)
Cn1c(N)c(/N=c2\[n-]c(-c3cccc([N+](=O)[O-])c3)cs2)c(=O)n1-c1ccccc1 (cis-trans isomerization)
Cn1c(N)c(/N=c2\[n-]c(-c3cccc([N+](=O)[O-])c3)cs2)c(=O)n1-c1ccccc1 (3D coordinates assigned)
Cn1c(N)c(/N=c2\[n-]c(-c3cccc([N+](=O)[O-])c3)cs2)c(=O)n1-c1ccccc1 (optimized conformer: 128.89770299645846 kcal/mol)

>  <smiles>  (60) 
Cn1c(N)c(N=c2[nH]c(-c3cccc([N+](=O)[O-])c3)cs2)c(=O)n1-c1ccccc1

>  <score_type>  (60) 
oracle

>  <origin>  (60) 
autodockgpu

>  <m_score__min__energy>  (60) 
-8.8200000000000003

>  <m_primary>  (60) 
energy

>  <meeko>  (60) 
{"free_energy": -8.05, "intermolecular_energy": -9.84, "internal_energy": -1.94, "cluster_size": 17, "cluster_id": 1, "rank_in_cluster": 16}

>  <energy>  (60) 
-6.98

>  <cluster_rmsd>  (60) 
0.0

>  <rmsd>  (60) 
270.27

>  <cluster>  (60) 
3

$$$$
XUIJDXCNGWSLDF-JVGCEYTDNA-N
     RDKit          3D

 45 48  0  0  0  0  0  0  0  0999 V2000
  138.6674   69.3153  223.4932 H   0  0  0  0  0  0  0  0  0  0  0  0
  139.0980   70.2700  223.1570 C   0  0  0  0  0  0  0  0  0  0  0  0
  138.9280   70.9420  221.6220 S   0  0  0  0  0  0  0  0  0  0  0  0
  139.8560   72.2870  221.9930 C   0  0  0  0  0  0  0  0  0  0  0  0
  140.0790   73.2560  221.1550 N   0  0  0  0  0  0  0  0  0  0  0  0
  139.8800   74.6490  221.4280 C   0  0  0  0  0  0  0  0  0  0  0  0
  138.7410   75.2780  221.9080 C   0  0  0  0  0  0  0  0  0  0  0  0
  137.4990   74.6410  222.2290 N   0  0  0  0  0  0  0  0  0  0  0  0
  137.4030   74.0630  223.0910 H   0  0  0  0  0  0  0  0  0  0  0  0
  136.6480   74.7940  221.6460 H   0  0  0  0  0  0  0  0  0  0  0  0
  139.0360   76.5720  222.1850 N   0  0  0  0  0  0  0  0  0  0  0  0
  138.1030   77.5740  222.7050 C   0  0  0  0  0  0  0  0  0  0  0  0
  138.1203   77.5554  223.8047 H   0  0  0  0  0  0  0  0  0  0  0  0
  138.4013   78.5717  222.3504 H   0  0  0  0  0  0  0  0  0  0  0  0
  137.0866   77.3476  222.3504 H   0  0  0  0  0  0  0  0  0  0  0  0
  140.3330   76.7690  221.9440 N   0  0  0  0  0  0  0  0  0  0  0  0
  141.0640   77.9830  222.1900 C   0  0  0  0  0  0  0  0  0  0  0  0
  141.4810   78.3140  223.4890 C   0  0  0  0  0  0  0  0  0  0  0  0
  141.2373   77.6472  224.3292 H   0  0  0  0  0  0  0  0  0  0  0  0
  142.2050   79.4880  223.7190 C   0  0  0  0  0  0  0  0  0  0  0  0
  142.5236   79.7466  224.7396 H   0  0  0  0  0  0  0  0  0  0  0  0
  142.5240   80.3330  222.6520 C   0  0  0  0  0  0  0  0  0  0  0  0
  143.0916   81.2575  222.8342 H   0  0  0  0  0  0  0  0  0  0  0  0
  142.1230   80.0050  221.3550 C   0  0  0  0  0  0  0  0  0  0  0  0
  142.3773   80.6701  220.5165 H   0  0  0  0  0  0  0  0  0  0  0  0
  141.3980   78.8310  221.1210 C   0  0  0  0  0  0  0  0  0  0  0  0
  141.0890   78.5717  220.0976 H   0  0  0  0  0  0  0  0  0  0  0  0
  140.8610   75.6100  221.4970 C   0  0  0  0  0  0  0  0  0  0  0  0
  142.0790   75.4370  221.2220 O   0  0  0  0  0  0  0  0  0  0  0  0
  140.2900   72.2570  223.2750 N   0  0  0  0  0  0  0  0  0  0  0  0
  140.8280   73.0260  223.7300 H   0  0  0  0  0  0  0  0  0  0  0  0
  139.8800   71.1330  223.9310 C   0  0  0  0  0  0  0  0  0  0  0  0
  140.2400   70.8610  225.3440 C   0  0  0  0  0  0  0  0  0  0  0  0
  140.8730   71.8510  226.1170 C   0  0  0  0  0  0  0  0  0  0  0  0
  141.1006   72.8303  225.6707 H   0  0  0  0  0  0  0  0  0  0  0  0
  141.2140   71.5990  227.4460 C   0  0  0  0  0  0  0  0  0  0  0  0
  141.7091   72.3800  228.0417 H   0  0  0  0  0  0  0  0  0  0  0  0
  140.9300   70.3610  228.0230 C   0  0  0  0  0  0  0  0  0  0  0  0
  141.2016   70.1722  229.0721 H   0  0  0  0  0  0  0  0  0  0  0  0
  140.2990   69.3530  227.2730 C   0  0  0  0  0  0  0  0  0  0  0  0
  140.0020   68.0740  227.8650 N   0  0  0  0  0  0  0  0  0  0  0  0
  140.4490   67.7760  228.9910 O   0  0  0  0  0  0  0  0  0  0  0  0
  139.2210   67.1600  227.1970 O   0  0  0  0  0  0  0  0  0  0  0  0
  139.9590   69.6140  225.9330 C   0  0  0  0  0  0  0  0  0  0  0  0
  139.4662   68.8319  225.3368 H   0  0  0  0  0  0  0  0  0  0  0  0
  1  2  1  0
  2  3  1  0
  3  4  1  0
  4  5  2  0
  5  6  1  0
  6  7  2  0
  7  8  1  0
  8  9  1  0
  8 10  1  0
  7 11  1  0
 11 12  1  0
 12 13  1  0
 12 14  1  0
 12 15  1  0
 11 16  1  0
 16 17  1  0
 17 18  2  0
 18 19  1  0
 18 20  1  0
 20 21  1  0
 20 22  2  0
 22 23  1  0
 22 24  1  0
 24 25  1  0
 24 26  2  0
 26 27  1  0
 16 28  1  0
 28 29  2  0
  4 30  1  0
 30 31  1  0
 30 32  1  0
 32 33  1  0
 33 34  2  0
 34 35  1  0
 34 36  1  0
 36 37  1  0
 36 38  2  0
 38 39  1  0
 38 40  1  0
 40 41  1  0
 41 42  2  0
 41 43  1  0
 40 44  2  0
 44 45  1  0
 32  2  2  0
 44 33  1  0
 28  6  1  0
 26 17  1  0
M  CHG  2  41   1  43  -1
M  END
>  <UniqueID>  (61) 
30

>  <SMILES>  (61) 
Cn1c(N)c(/N=c2\[nH]c(-c3cccc([N+](=O)[O-])c3)cs2)c(=O)n1-c1ccccc1

>  <Energy>  (61) 
132.82359016973697

>  <Genealogy>  (61) 
Cn1c(N)c(/N=c2\[nH]c(-c3cccc([N+](=O)[O-])c3)cs2)c(=O)n1-c1ccccc1 (cis-trans isomerization)
Cn1c(N)c(/N=c2\[nH]c(-c3cccc([N+](=O)[O-])c3)cs2)c(=O)n1-c1ccccc1 (3D coordinates assigned)
Cn1c(N)c(/N=c2\[nH]c(-c3cccc([N+](=O)[O-])c3)cs2)c(=O)n1-c1ccccc1 (optimized conformer: 132.82359016973697 kcal/mol)

>  <smiles>  (61) 
Cn1c(N)c(N=c2[nH]c(-c3cccc([N+](=O)[O-])c3)cs2)c(=O)n1-c1ccccc1

>  <score_type>  (61) 
oracle

>  <origin>  (61) 
autodockgpu

>  <m_score__min__energy>  (61) 
-8.5800000000000001

>  <m_primary>  (61) 
energy

>  <meeko>  (61) 
{"free_energy": -8.58, "intermolecular_energy": -10.37, "internal_energy": -1.23, "cluster_size": 6, "cluster_id": 1, "rank_in_cluster": 1}

>  <energy>  (61) 
-8.58

>  <cluster_rmsd>  (61) 
0.0

>  <rmsd>  (61) 
271.49

>  <cluster>  (61) 
1

$$$$
XUIJDXCNGWSLDF-JVGCEYTDNA-N
     RDKit          3D

 45 48  0  0  0  0  0  0  0  0999 V2000
  142.4406   75.9844  220.9519 H   0  0  0  0  0  0  0  0  0  0  0  0
  141.6010   75.3270  221.2220 C   0  0  0  0  0  0  0  0  0  0  0  0
  141.4620   73.6940  220.8340 S   0  0  0  0  0  0  0  0  0  0  0  0
  139.9730   73.5330  221.5860 C   0  0  0  0  0  0  0  0  0  0  0  0
  139.3230   72.4090  221.6530 N   0  0  0  0  0  0  0  0  0  0  0  0
  138.9930   71.7140  222.8620 C   0  0  0  0  0  0  0  0  0  0  0  0
  137.8600   70.9640  223.1430 C   0  0  0  0  0  0  0  0  0  0  0  0
  136.7610   70.7340  222.2540 N   0  0  0  0  0  0  0  0  0  0  0  0
  136.7200   71.2020  221.3230 H   0  0  0  0  0  0  0  0  0  0  0  0
  136.0130   70.0470  222.4880 H   0  0  0  0  0  0  0  0  0  0  0  0
  138.0280   70.3430  224.3360 N   0  0  0  0  0  0  0  0  0  0  0  0
  137.0580   69.4620  224.9900 C   0  0  0  0  0  0  0  0  0  0  0  0
  137.1580   69.5528  226.0817 H   0  0  0  0  0  0  0  0  0  0  0  0
  136.0399   69.7506  224.6898 H   0  0  0  0  0  0  0  0  0  0  0  0
  137.2476   68.4209  224.6898 H   0  0  0  0  0  0  0  0  0  0  0  0
  139.2460   70.6330  224.7940 N   0  0  0  0  0  0  0  0  0  0  0  0
  139.8490   70.1050  225.9880 C   0  0  0  0  0  0  0  0  0  0  0  0
  139.9840   68.7190  226.1660 C   0  0  0  0  0  0  0  0  0  0  0  0
  139.6157   68.0289  225.3926 H   0  0  0  0  0  0  0  0  0  0  0  0
  140.5850   68.2120  227.3230 C   0  0  0  0  0  0  0  0  0  0  0  0
  140.6831   67.1251  227.4609 H   0  0  0  0  0  0  0  0  0  0  0  0
  141.0610   69.0870  228.3040 C   0  0  0  0  0  0  0  0  0  0  0  0
  141.5300   68.6874  229.2152 H   0  0  0  0  0  0  0  0  0  0  0  0
  140.9420   70.4680  228.1290 C   0  0  0  0  0  0  0  0  0  0  0  0
  141.3203   71.1548  228.9005 H   0  0  0  0  0  0  0  0  0  0  0  0
  140.3420   70.9770  226.9730 C   0  0  0  0  0  0  0  0  0  0  0  0
  140.2557   72.0648  226.8343 H   0  0  0  0  0  0  0  0  0  0  0  0
  139.8480   71.4530  223.9060 C   0  0  0  0  0  0  0  0  0  0  0  0
  141.0290   71.8790  224.0120 O   0  0  0  0  0  0  0  0  0  0  0  0
  139.5700   74.6950  222.1500 N   0  0  0  0  0  0  0  0  0  0  0  0
  138.7040   74.8010  222.7220 H   0  0  0  0  0  0  0  0  0  0  0  0
  140.4650   75.7040  221.9470 C   0  0  0  0  0  0  0  0  0  0  0  0
  140.2420   77.0800  222.4550 C   0  0  0  0  0  0  0  0  0  0  0  0
  138.9360   77.5440  222.6930 C   0  0  0  0  0  0  0  0  0  0  0  0
  138.0775   76.8835  222.5014 H   0  0  0  0  0  0  0  0  0  0  0  0
  138.7230   78.8380  223.1710 C   0  0  0  0  0  0  0  0  0  0  0  0
  137.6977   79.1919  223.3539 H   0  0  0  0  0  0  0  0  0  0  0  0
  139.8040   79.6850  223.4180 C   0  0  0  0  0  0  0  0  0  0  0  0
  139.6257   80.7028  223.7951 H   0  0  0  0  0  0  0  0  0  0  0  0
  141.1190   79.2460  223.1880 C   0  0  0  0  0  0  0  0  0  0  0  0
  142.2390   80.1150  223.4450 N   0  0  0  0  0  0  0  0  0  0  0  0
  143.3670   79.8520  222.9810 O   0  0  0  0  0  0  0  0  0  0  0  0
  142.0830   81.2500  224.2060 O   0  0  0  0  0  0  0  0  0  0  0  0
  141.3280   77.9400  222.7060 C   0  0  0  0  0  0  0  0  0  0  0  0
  142.3535   77.5867  222.5230 H   0  0  0  0  0  0  0  0  0  0  0  0
  1  2  1  0
  2  3  1  0
  3  4  1  0
  4  5  2  0
  5  6  1  0
  6  7  2  0
  7  8  1  0
  8  9  1  0
  8 10  1  0
  7 11  1  0
 11 12  1  0
 12 13  1  0
 12 14  1  0
 12 15  1  0
 11 16  1  0
 16 17  1  0
 17 18  2  0
 18 19  1  0
 18 20  1  0
 20 21  1  0
 20 22  2  0
 22 23  1  0
 22 24  1  0
 24 25  1  0
 24 26  2  0
 26 27  1  0
 16 28  1  0
 28 29  2  0
  4 30  1  0
 30 31  1  0
 30 32  1  0
 32 33  1  0
 33 34  2  0
 34 35  1  0
 34 36  1  0
 36 37  1  0
 36 38  2  0
 38 39  1  0
 38 40  1  0
 40 41  1  0
 41 42  2  0
 41 43  1  0
 40 44  2  0
 44 45  1  0
 32  2  2  0
 44 33  1  0
 28  6  1  0
 26 17  1  0
M  CHG  2  41   1  43  -1
M  END
>  <UniqueID>  (62) 
30

>  <SMILES>  (62) 
Cn1c(N)c(/N=c2\[nH]c(-c3cccc([N+](=O)[O-])c3)cs2)c(=O)n1-c1ccccc1

>  <Energy>  (62) 
132.82359016973697

>  <Genealogy>  (62) 
Cn1c(N)c(/N=c2\[nH]c(-c3cccc([N+](=O)[O-])c3)cs2)c(=O)n1-c1ccccc1 (cis-trans isomerization)
Cn1c(N)c(/N=c2\[nH]c(-c3cccc([N+](=O)[O-])c3)cs2)c(=O)n1-c1ccccc1 (3D coordinates assigned)
Cn1c(N)c(/N=c2\[nH]c(-c3cccc([N+](=O)[O-])c3)cs2)c(=O)n1-c1ccccc1 (optimized conformer: 132.82359016973697 kcal/mol)

>  <smiles>  (62) 
Cn1c(N)c(N=c2[nH]c(-c3cccc([N+](=O)[O-])c3)cs2)c(=O)n1-c1ccccc1

>  <score_type>  (62) 
oracle

>  <origin>  (62) 
autodockgpu

>  <m_score__min__energy>  (62) 
-8.5800000000000001

>  <m_primary>  (62) 
energy

>  <meeko>  (62) 
{"free_energy": -8.5, "intermolecular_energy": -10.29, "internal_energy": -1.21, "cluster_size": 9, "cluster_id": 2, "rank_in_cluster": 3}

>  <energy>  (62) 
-8.58

>  <cluster_rmsd>  (62) 
0.12

>  <rmsd>  (62) 
271.43

>  <cluster>  (62) 
1

$$$$
XUIJDXCNGWSLDF-JVGCEYTDNA-N
     RDKit          3D

 45 48  0  0  0  0  0  0  0  0999 V2000
  142.4382   76.0502  220.9332 H   0  0  0  0  0  0  0  0  0  0  0  0
  141.6040   75.3870  221.2060 C   0  0  0  0  0  0  0  0  0  0  0  0
  141.4700   73.7570  220.8080 S   0  0  0  0  0  0  0  0  0  0  0  0
  139.9880   73.5830  221.5700 C   0  0  0  0  0  0  0  0  0  0  0  0
  139.3420   72.4560  221.6340 N   0  0  0  0  0  0  0  0  0  0  0  0
  139.0080   71.7610  222.8420 C   0  0  0  0  0  0  0  0  0  0  0  0
  137.8580   71.0410  223.1310 C   0  0  0  0  0  0  0  0  0  0  0  0
  136.7420   70.8490  222.2540 N   0  0  0  0  0  0  0  0  0  0  0  0
  136.7720   71.1910  221.2700 H   0  0  0  0  0  0  0  0  0  0  0  0
  135.9050   70.3070  222.5580 H   0  0  0  0  0  0  0  0  0  0  0  0
  138.0240   70.4050  224.3170 N   0  0  0  0  0  0  0  0  0  0  0  0
  137.0370   69.5460  224.9760 C   0  0  0  0  0  0  0  0  0  0  0  0
  137.1419   69.6373  226.0672 H   0  0  0  0  0  0  0  0  0  0  0  0
  136.0244   69.8554  224.6778 H   0  0  0  0  0  0  0  0  0  0  0  0
  137.2037   68.5004  224.6778 H   0  0  0  0  0  0  0  0  0  0  0  0
  139.2550   70.6570  224.7620 N   0  0  0  0  0  0  0  0  0  0  0  0
  139.8570   70.1040  225.9450 C   0  0  0  0  0  0  0  0  0  0  0  0
  139.9640   68.7130  226.1060 C   0  0  0  0  0  0  0  0  0  0  0  0
  139.5746   68.0399  225.3280 H   0  0  0  0  0  0  0  0  0  0  0  0
  140.5640   68.1800  227.2520 C   0  0  0  0  0  0  0  0  0  0  0  0
  140.6391   67.0897  227.3771 H   0  0  0  0  0  0  0  0  0  0  0  0
  141.0680   69.0330  228.2380 C   0  0  0  0  0  0  0  0  0  0  0  0
  141.5368   68.6133  229.1402 H   0  0  0  0  0  0  0  0  0  0  0  0
  140.9770   70.4180  228.0790 C   0  0  0  0  0  0  0  0  0  0  0  0
  141.3773   71.0877  228.8544 H   0  0  0  0  0  0  0  0  0  0  0  0
  140.3770   70.9540  226.9340 C   0  0  0  0  0  0  0  0  0  0  0  0
  140.3126   72.0449  226.8085 H   0  0  0  0  0  0  0  0  0  0  0  0
  139.8680   71.4680  223.8730 C   0  0  0  0  0  0  0  0  0  0  0  0
  141.0620   71.8600  223.9680 O   0  0  0  0  0  0  0  0  0  0  0  0
  139.5840   74.7400  222.1460 N   0  0  0  0  0  0  0  0  0  0  0  0
  138.7210   74.8370  222.7250 H   0  0  0  0  0  0  0  0  0  0  0  0
  140.4730   75.7540  221.9430 C   0  0  0  0  0  0  0  0  0  0  0  0
  140.2480   77.1250  222.4630 C   0  0  0  0  0  0  0  0  0  0  0  0
  138.9420   77.5840  222.7080 C   0  0  0  0  0  0  0  0  0  0  0  0
  138.0848   76.9228  222.5130 H   0  0  0  0  0  0  0  0  0  0  0  0
  138.7260   78.8730  223.1970 C   0  0  0  0  0  0  0  0  0  0  0  0
  137.7000   79.2225  223.3848 H   0  0  0  0  0  0  0  0  0  0  0  0
  139.8060   79.7210  223.4490 C   0  0  0  0  0  0  0  0  0  0  0  0
  139.6261   80.7351  223.8354 H   0  0  0  0  0  0  0  0  0  0  0  0
  141.1220   79.2870  223.2120 C   0  0  0  0  0  0  0  0  0  0  0  0
  142.2400   80.1570  223.4720 N   0  0  0  0  0  0  0  0  0  0  0  0
  142.1100   81.1550  224.2100 O   0  0  0  0  0  0  0  0  0  0  0  0
  143.4700   79.9020  222.9110 O   0  0  0  0  0  0  0  0  0  0  0  0
  141.3320   77.9860  222.7180 C   0  0  0  0  0  0  0  0  0  0  0  0
  142.3578   77.6370  222.5285 H   0  0  0  0  0  0  0  0  0  0  0  0
  1  2  1  0
  2  3  1  0
  3  4  1  0
  4  5  2  0
  5  6  1  0
  6  7  2  0
  7  8  1  0
  8  9  1  0
  8 10  1  0
  7 11  1  0
 11 12  1  0
 12 13  1  0
 12 14  1  0
 12 15  1  0
 11 16  1  0
 16 17  1  0
 17 18  2  0
 18 19  1  0
 18 20  1  0
 20 21  1  0
 20 22  2  0
 22 23  1  0
 22 24  1  0
 24 25  1  0
 24 26  2  0
 26 27  1  0
 16 28  1  0
 28 29  2  0
  4 30  1  0
 30 31  1  0
 30 32  1  0
 32 33  1  0
 33 34  2  0
 34 35  1  0
 34 36  1  0
 36 37  1  0
 36 38  2  0
 38 39  1  0
 38 40  1  0
 40 41  1  0
 41 42  2  0
 41 43  1  0
 40 44  2  0
 44 45  1  0
 32  2  2  0
 44 33  1  0
 28  6  1  0
 26 17  1  0
M  CHG  2  41   1  43  -1
M  END
>  <UniqueID>  (63) 
30

>  <SMILES>  (63) 
Cn1c(N)c(/N=c2\[nH]c(-c3cccc([N+](=O)[O-])c3)cs2)c(=O)n1-c1ccccc1

>  <Energy>  (63) 
132.82359016973697

>  <Genealogy>  (63) 
Cn1c(N)c(/N=c2\[nH]c(-c3cccc([N+](=O)[O-])c3)cs2)c(=O)n1-c1ccccc1 (cis-trans isomerization)
Cn1c(N)c(/N=c2\[nH]c(-c3cccc([N+](=O)[O-])c3)cs2)c(=O)n1-c1ccccc1 (3D coordinates assigned)
Cn1c(N)c(/N=c2\[nH]c(-c3cccc([N+](=O)[O-])c3)cs2)c(=O)n1-c1ccccc1 (optimized conformer: 132.82359016973697 kcal/mol)

>  <smiles>  (63) 
Cn1c(N)c(N=c2[nH]c(-c3cccc([N+](=O)[O-])c3)cs2)c(=O)n1-c1ccccc1

>  <score_type>  (63) 
oracle

>  <origin>  (63) 
autodockgpu

>  <m_score__min__energy>  (63) 
-8.5800000000000001

>  <m_primary>  (63) 
energy

>  <meeko>  (63) 
{"free_energy": -8.47, "intermolecular_energy": -10.26, "internal_energy": -1.22, "cluster_size": 9, "cluster_id": 2, "rank_in_cluster": 7}

>  <energy>  (63) 
-8.55

>  <cluster_rmsd>  (63) 
0.26

>  <rmsd>  (63) 
271.39

>  <cluster>  (63) 
1

$$$$
XUIJDXCNGWSLDF-JVGCEYTDNA-N
     RDKit          3D

 45 48  0  0  0  0  0  0  0  0999 V2000
  139.4276   69.0167  223.1788 H   0  0  0  0  0  0  0  0  0  0  0  0
  139.5810   70.0630  222.8760 C   0  0  0  0  0  0  0  0  0  0  0  0
  139.3710   70.6810  221.3240 S   0  0  0  0  0  0  0  0  0  0  0  0
  139.8070   72.2370  221.7700 C   0  0  0  0  0  0  0  0  0  0  0  0
  139.8110   73.2440  220.9470 N   0  0  0  0  0  0  0  0  0  0  0  0
  139.6740   74.6200  221.3230 C   0  0  0  0  0  0  0  0  0  0  0  0
  138.5940   75.2420  221.9330 C   0  0  0  0  0  0  0  0  0  0  0  0
  137.3650   74.6150  222.3120 N   0  0  0  0  0  0  0  0  0  0  0  0
  136.5020   74.7400  221.7400 H   0  0  0  0  0  0  0  0  0  0  0  0
  137.3190   73.9670  223.1280 H   0  0  0  0  0  0  0  0  0  0  0  0
  138.9470   76.5080  222.2660 N   0  0  0  0  0  0  0  0  0  0  0  0
  138.0870   77.4950  222.9220 C   0  0  0  0  0  0  0  0  0  0  0  0
  138.1769   77.3919  224.0135 H   0  0  0  0  0  0  0  0  0  0  0  0
  138.3962   78.5073  222.6227 H   0  0  0  0  0  0  0  0  0  0  0  0
  137.0419   77.3273  222.6227 H   0  0  0  0  0  0  0  0  0  0  0  0
  140.2250   76.6910  221.9340 N   0  0  0  0  0  0  0  0  0  0  0  0
  141.0070   77.8700  222.1950 C   0  0  0  0  0  0  0  0  0  0  0  0
  141.3000   78.7740  221.1610 C   0  0  0  0  0  0  0  0  0  0  0  0
  140.9399   78.5753  220.1408 H   0  0  0  0  0  0  0  0  0  0  0  0
  142.0480   79.9260  221.4240 C   0  0  0  0  0  0  0  0  0  0  0  0
  142.2808   80.6280  220.6097 H   0  0  0  0  0  0  0  0  0  0  0  0
  142.5000   80.1860  222.7210 C   0  0  0  0  0  0  0  0  0  0  0  0
  143.0906   81.0910  222.9261 H   0  0  0  0  0  0  0  0  0  0  0  0
  142.2020   79.2970  223.7570 C   0  0  0  0  0  0  0  0  0  0  0  0
  142.5559   79.5040  224.7777 H   0  0  0  0  0  0  0  0  0  0  0  0
  141.4540   78.1440  223.4970 C   0  0  0  0  0  0  0  0  0  0  0  0
  141.2152   77.4495  224.3159 H   0  0  0  0  0  0  0  0  0  0  0  0
  140.6840   75.5520  221.3720 C   0  0  0  0  0  0  0  0  0  0  0  0
  141.8700   75.3700  220.9890 O   0  0  0  0  0  0  0  0  0  0  0  0
  140.0990   72.3150  223.0900 N   0  0  0  0  0  0  0  0  0  0  0  0
  140.3320   73.2010  223.5880 H   0  0  0  0  0  0  0  0  0  0  0  0
  139.9840   71.1080  223.7150 C   0  0  0  0  0  0  0  0  0  0  0  0
  140.2660   70.9300  225.1610 C   0  0  0  0  0  0  0  0  0  0  0  0
  140.8270   71.9810  225.9070 C   0  0  0  0  0  0  0  0  0  0  0  0
  141.0570   72.9379  225.4157 H   0  0  0  0  0  0  0  0  0  0  0  0
  141.0940   71.8180  227.2670 C   0  0  0  0  0  0  0  0  0  0  0  0
  141.5333   72.6465  227.8420 H   0  0  0  0  0  0  0  0  0  0  0  0
  140.8060   70.6080  227.9010 C   0  0  0  0  0  0  0  0  0  0  0  0
  141.0186   70.4888  228.9737 H   0  0  0  0  0  0  0  0  0  0  0  0
  140.2460   69.5410  227.1770 C   0  0  0  0  0  0  0  0  0  0  0  0
  139.9460   68.2920  227.8280 N   0  0  0  0  0  0  0  0  0  0  0  0
  139.2900   67.4090  227.2370 O   0  0  0  0  0  0  0  0  0  0  0  0
  140.3750   68.0510  229.1120 O   0  0  0  0  0  0  0  0  0  0  0  0
  139.9800   69.7120  225.8060 C   0  0  0  0  0  0  0  0  0  0  0  0
  139.5427   68.8828  225.2305 H   0  0  0  0  0  0  0  0  0  0  0  0
  1  2  1  0
  2  3  1  0
  3  4  1  0
  4  5  2  0
  5  6  1  0
  6  7  2  0
  7  8  1  0
  8  9  1  0
  8 10  1  0
  7 11  1  0
 11 12  1  0
 12 13  1  0
 12 14  1  0
 12 15  1  0
 11 16  1  0
 16 17  1  0
 17 18  2  0
 18 19  1  0
 18 20  1  0
 20 21  1  0
 20 22  2  0
 22 23  1  0
 22 24  1  0
 24 25  1  0
 24 26  2  0
 26 27  1  0
 16 28  1  0
 28 29  2  0
  4 30  1  0
 30 31  1  0
 30 32  1  0
 32 33  1  0
 33 34  2  0
 34 35  1  0
 34 36  1  0
 36 37  1  0
 36 38  2  0
 38 39  1  0
 38 40  1  0
 40 41  1  0
 41 42  2  0
 41 43  1  0
 40 44  2  0
 44 45  1  0
 32  2  2  0
 44 33  1  0
 28  6  1  0
 26 17  1  0
M  CHG  2  41   1  43  -1
M  END
>  <UniqueID>  (64) 
30

>  <SMILES>  (64) 
Cn1c(N)c(/N=c2\[nH]c(-c3cccc([N+](=O)[O-])c3)cs2)c(=O)n1-c1ccccc1

>  <Energy>  (64) 
132.82359016973697

>  <Genealogy>  (64) 
Cn1c(N)c(/N=c2\[nH]c(-c3cccc([N+](=O)[O-])c3)cs2)c(=O)n1-c1ccccc1 (cis-trans isomerization)
Cn1c(N)c(/N=c2\[nH]c(-c3cccc([N+](=O)[O-])c3)cs2)c(=O)n1-c1ccccc1 (3D coordinates assigned)
Cn1c(N)c(/N=c2\[nH]c(-c3cccc([N+](=O)[O-])c3)cs2)c(=O)n1-c1ccccc1 (optimized conformer: 132.82359016973697 kcal/mol)

>  <smiles>  (64) 
Cn1c(N)c(N=c2[nH]c(-c3cccc([N+](=O)[O-])c3)cs2)c(=O)n1-c1ccccc1

>  <score_type>  (64) 
oracle

>  <origin>  (64) 
autodockgpu

>  <m_score__min__energy>  (64) 
-8.5800000000000001

>  <m_primary>  (64) 
energy

>  <meeko>  (64) 
{"free_energy": -8.54, "intermolecular_energy": -10.33, "internal_energy": -1.23, "cluster_size": 6, "cluster_id": 1, "rank_in_cluster": 4}

>  <energy>  (64) 
-8.54

>  <cluster_rmsd>  (64) 
0.28

>  <rmsd>  (64) 
271.41

>  <cluster>  (64) 
1

$$$$
XUIJDXCNGWSLDF-JVGCEYTDNA-N
     RDKit          3D

 45 48  0  0  0  0  0  0  0  0999 V2000
  140.0949   69.2636  221.9967 H   0  0  0  0  0  0  0  0  0  0  0  0
  139.9300   70.3440  221.8720 C   0  0  0  0  0  0  0  0  0  0  0  0
  139.6260   71.1330  220.4160 S   0  0  0  0  0  0  0  0  0  0  0  0
  139.5240   72.6440  221.1340 C   0  0  0  0  0  0  0  0  0  0  0  0
  139.2580   73.7340  220.4760 N   0  0  0  0  0  0  0  0  0  0  0  0
  140.0040   74.9540  220.5580 C   0  0  0  0  0  0  0  0  0  0  0  0
  140.6100   75.6640  219.5320 C   0  0  0  0  0  0  0  0  0  0  0  0
  140.6140   75.3030  218.1460 N   0  0  0  0  0  0  0  0  0  0  0  0
  140.1950   74.4030  217.8280 H   0  0  0  0  0  0  0  0  0  0  0  0
  140.9730   75.9580  217.4200 H   0  0  0  0  0  0  0  0  0  0  0  0
  141.0610   76.8460  220.0210 N   0  0  0  0  0  0  0  0  0  0  0  0
  141.7640   77.8790  219.2570 C   0  0  0  0  0  0  0  0  0  0  0  0
  142.2444   78.5849  219.9505 H   0  0  0  0  0  0  0  0  0  0  0  0
  142.5303   77.4087  218.6233 H   0  0  0  0  0  0  0  0  0  0  0  0
  141.0453   78.4193  218.6233 H   0  0  0  0  0  0  0  0  0  0  0  0
  140.7170   76.9280  221.3060 N   0  0  0  0  0  0  0  0  0  0  0  0
  140.9330   78.0590  222.1690 C   0  0  0  0  0  0  0  0  0  0  0  0
  142.2020   78.6550  222.2580 C   0  0  0  0  0  0  0  0  0  0  0  0
  143.0408   78.2488  221.6737 H   0  0  0  0  0  0  0  0  0  0  0  0
  142.4020   79.7630  223.0870 C   0  0  0  0  0  0  0  0  0  0  0  0
  143.3990   80.2221  223.1592 H   0  0  0  0  0  0  0  0  0  0  0  0
  141.3370   80.2880  223.8240 C   0  0  0  0  0  0  0  0  0  0  0  0
  141.4968   81.1578  224.4781 H   0  0  0  0  0  0  0  0  0  0  0  0
  140.0690   79.7080  223.7300 C   0  0  0  0  0  0  0  0  0  0  0  0
  139.2303   80.1244  224.3073 H   0  0  0  0  0  0  0  0  0  0  0  0
  139.8650   78.5990  222.9030 C   0  0  0  0  0  0  0  0  0  0  0  0
  138.8645   78.1483  222.8273 H   0  0  0  0  0  0  0  0  0  0  0  0
  140.0650   75.7950  221.6440 C   0  0  0  0  0  0  0  0  0  0  0  0
  139.5610   75.5700  222.7770 O   0  0  0  0  0  0  0  0  0  0  0  0
  139.7010   72.5730  222.4740 N   0  0  0  0  0  0  0  0  0  0  0  0
  139.6150   73.3870  223.1210 H   0  0  0  0  0  0  0  0  0  0  0  0
  139.9370   71.2970  222.8960 C   0  0  0  0  0  0  0  0  0  0  0  0
  140.1770   70.9620  224.3210 C   0  0  0  0  0  0  0  0  0  0  0  0
  140.7640   71.9070  225.1810 C   0  0  0  0  0  0  0  0  0  0  0  0
  141.0450   72.8980  224.7950 H   0  0  0  0  0  0  0  0  0  0  0  0
  140.9920   71.5940  226.5220 C   0  0  0  0  0  0  0  0  0  0  0  0
  141.4526   72.3395  227.1869 H   0  0  0  0  0  0  0  0  0  0  0  0
  140.6390   70.3410  227.0240 C   0  0  0  0  0  0  0  0  0  0  0  0
  140.8212   70.1053  228.0829 H   0  0  0  0  0  0  0  0  0  0  0  0
  140.0520   69.3780  226.1850 C   0  0  0  0  0  0  0  0  0  0  0  0
  139.6840   68.0840  226.6980 N   0  0  0  0  0  0  0  0  0  0  0  0
  139.1950   67.2170  225.9450 O   0  0  0  0  0  0  0  0  0  0  0  0
  139.8640   67.7820  228.0280 O   0  0  0  0  0  0  0  0  0  0  0  0
  139.8250   69.6990  224.8330 C   0  0  0  0  0  0  0  0  0  0  0  0
  139.3663   68.9526  224.1678 H   0  0  0  0  0  0  0  0  0  0  0  0
  1  2  1  0
  2  3  1  0
  3  4  1  0
  4  5  2  0
  5  6  1  0
  6  7  2  0
  7  8  1  0
  8  9  1  0
  8 10  1  0
  7 11  1  0
 11 12  1  0
 12 13  1  0
 12 14  1  0
 12 15  1  0
 11 16  1  0
 16 17  1  0
 17 18  2  0
 18 19  1  0
 18 20  1  0
 20 21  1  0
 20 22  2  0
 22 23  1  0
 22 24  1  0
 24 25  1  0
 24 26  2  0
 26 27  1  0
 16 28  1  0
 28 29  2  0
  4 30  1  0
 30 31  1  0
 30 32  1  0
 32 33  1  0
 33 34  2  0
 34 35  1  0
 34 36  1  0
 36 37  1  0
 36 38  2  0
 38 39  1  0
 38 40  1  0
 40 41  1  0
 41 42  2  0
 41 43  1  0
 40 44  2  0
 44 45  1  0
 32  2  2  0
 44 33  1  0
 28  6  1  0
 26 17  1  0
M  CHG  2  41   1  43  -1
M  END
>  <UniqueID>  (65) 
30

>  <SMILES>  (65) 
Cn1c(N)c(/N=c2\[nH]c(-c3cccc([N+](=O)[O-])c3)cs2)c(=O)n1-c1ccccc1

>  <Energy>  (65) 
132.82359016973697

>  <Genealogy>  (65) 
Cn1c(N)c(/N=c2\[nH]c(-c3cccc([N+](=O)[O-])c3)cs2)c(=O)n1-c1ccccc1 (cis-trans isomerization)
Cn1c(N)c(/N=c2\[nH]c(-c3cccc([N+](=O)[O-])c3)cs2)c(=O)n1-c1ccccc1 (3D coordinates assigned)
Cn1c(N)c(/N=c2\[nH]c(-c3cccc([N+](=O)[O-])c3)cs2)c(=O)n1-c1ccccc1 (optimized conformer: 132.82359016973697 kcal/mol)

>  <smiles>  (65) 
Cn1c(N)c(N=c2[nH]c(-c3cccc([N+](=O)[O-])c3)cs2)c(=O)n1-c1ccccc1

>  <score_type>  (65) 
oracle

>  <origin>  (65) 
autodockgpu

>  <m_score__min__energy>  (65) 
-8.5800000000000001

>  <m_primary>  (65) 
energy

>  <meeko>  (65) 
{"free_energy": -7.91, "intermolecular_energy": -9.7, "internal_energy": -1.76, "cluster_size": 5, "cluster_id": 3, "rank_in_cluster": 4}

>  <energy>  (65) 
-8.41

>  <cluster_rmsd>  (65) 
0.56

>  <rmsd>  (65) 
271.23

>  <cluster>  (65) 
1

$$$$
XUIJDXCNGWSLDF-JVGCEYTDNA-N
     RDKit          3D

 45 48  0  0  0  0  0  0  0  0999 V2000
  142.4249   76.0211  220.9533 H   0  0  0  0  0  0  0  0  0  0  0  0
  141.5780   75.3730  221.2230 C   0  0  0  0  0  0  0  0  0  0  0  0
  141.4200   73.7430  220.8320 S   0  0  0  0  0  0  0  0  0  0  0  0
  139.9310   73.5960  221.5850 C   0  0  0  0  0  0  0  0  0  0  0  0
  139.2670   72.4800  221.6500 N   0  0  0  0  0  0  0  0  0  0  0  0
  138.9560   71.7710  222.8560 C   0  0  0  0  0  0  0  0  0  0  0  0
  137.8170   71.0380  223.1550 C   0  0  0  0  0  0  0  0  0  0  0  0
  136.6900   70.8450  222.2940 N   0  0  0  0  0  0  0  0  0  0  0  0
  136.6790   71.2460  221.3310 H   0  0  0  0  0  0  0  0  0  0  0  0
  135.8870   70.2470  222.5830 H   0  0  0  0  0  0  0  0  0  0  0  0
  138.0050   70.3930  224.3330 N   0  0  0  0  0  0  0  0  0  0  0  0
  137.0360   69.5200  224.9990 C   0  0  0  0  0  0  0  0  0  0  0  0
  137.1438   69.6171  226.0894 H   0  0  0  0  0  0  0  0  0  0  0  0
  136.0170   69.8109  224.7039 H   0  0  0  0  0  0  0  0  0  0  0  0
  137.2193   68.4763  224.7039 H   0  0  0  0  0  0  0  0  0  0  0  0
  139.2400   70.6520  224.7620 N   0  0  0  0  0  0  0  0  0  0  0  0
  139.8640   70.0920  225.9310 C   0  0  0  0  0  0  0  0  0  0  0  0
  140.3520   70.9290  226.9480 C   0  0  0  0  0  0  0  0  0  0  0  0
  140.2684   72.0211  226.8461 H   0  0  0  0  0  0  0  0  0  0  0  0
  140.9440   70.3790  228.0900 C   0  0  0  0  0  0  0  0  0  0  0  0
  141.3308   71.0384  228.8809 H   0  0  0  0  0  0  0  0  0  0  0  0
  141.0440   68.9910  228.2260 C   0  0  0  0  0  0  0  0  0  0  0  0
  141.5121   68.5591  229.1229 H   0  0  0  0  0  0  0  0  0  0  0  0
  140.5500   68.1520  227.2240 C   0  0  0  0  0  0  0  0  0  0  0  0
  140.6267   67.0602  227.3342 H   0  0  0  0  0  0  0  0  0  0  0  0
  139.9580   68.6990  226.0810 C   0  0  0  0  0  0  0  0  0  0  0  0
  139.5646   68.0356  225.2967 H   0  0  0  0  0  0  0  0  0  0  0  0
  139.8340   71.4760  223.8720 C   0  0  0  0  0  0  0  0  0  0  0  0
  141.0260   71.8770  223.9530 O   0  0  0  0  0  0  0  0  0  0  0  0
  139.5410   74.7620  222.1530 N   0  0  0  0  0  0  0  0  0  0  0  0
  138.6770   74.8760  222.7260 H   0  0  0  0  0  0  0  0  0  0  0  0
  140.4470   75.7620  221.9500 C   0  0  0  0  0  0  0  0  0  0  0  0
  140.2410   77.1390  222.4630 C   0  0  0  0  0  0  0  0  0  0  0  0
  138.9410   77.6120  222.7160 C   0  0  0  0  0  0  0  0  0  0  0  0
  138.0757   76.9578  222.5338 H   0  0  0  0  0  0  0  0  0  0  0  0
  138.7430   78.9070  223.1970 C   0  0  0  0  0  0  0  0  0  0  0  0
  137.7225   79.2685  223.3919 H   0  0  0  0  0  0  0  0  0  0  0  0
  139.8340   79.7460  223.4320 C   0  0  0  0  0  0  0  0  0  0  0  0
  139.6681   80.7648  223.8121 H   0  0  0  0  0  0  0  0  0  0  0  0
  141.1430   79.2970  223.1860 C   0  0  0  0  0  0  0  0  0  0  0  0
  142.2710   80.1580  223.4300 N   0  0  0  0  0  0  0  0  0  0  0  0
  143.3880   79.8980  222.9360 O   0  0  0  0  0  0  0  0  0  0  0  0
  142.1380   81.2820  224.2120 O   0  0  0  0  0  0  0  0  0  0  0  0
  141.3350   77.9910  222.7010 C   0  0  0  0  0  0  0  0  0  0  0  0
  142.3555   77.6303  222.5049 H   0  0  0  0  0  0  0  0  0  0  0  0
  1  2  1  0
  2  3  1  0
  3  4  1  0
  4  5  2  0
  5  6  1  0
  6  7  2  0
  7  8  1  0
  8  9  1  0
  8 10  1  0
  7 11  1  0
 11 12  1  0
 12 13  1  0
 12 14  1  0
 12 15  1  0
 11 16  1  0
 16 17  1  0
 17 18  2  0
 18 19  1  0
 18 20  1  0
 20 21  1  0
 20 22  2  0
 22 23  1  0
 22 24  1  0
 24 25  1  0
 24 26  2  0
 26 27  1  0
 16 28  1  0
 28 29  2  0
  4 30  1  0
 30 31  1  0
 30 32  1  0
 32 33  1  0
 33 34  2  0
 34 35  1  0
 34 36  1  0
 36 37  1  0
 36 38  2  0
 38 39  1  0
 38 40  1  0
 40 41  1  0
 41 42  2  0
 41 43  1  0
 40 44  2  0
 44 45  1  0
 32  2  2  0
 44 33  1  0
 28  6  1  0
 26 17  1  0
M  CHG  2  41   1  43  -1
M  END
>  <UniqueID>  (66) 
30

>  <SMILES>  (66) 
Cn1c(N)c(/N=c2\[nH]c(-c3cccc([N+](=O)[O-])c3)cs2)c(=O)n1-c1ccccc1

>  <Energy>  (66) 
132.82359016973697

>  <Genealogy>  (66) 
Cn1c(N)c(/N=c2\[nH]c(-c3cccc([N+](=O)[O-])c3)cs2)c(=O)n1-c1ccccc1 (cis-trans isomerization)
Cn1c(N)c(/N=c2\[nH]c(-c3cccc([N+](=O)[O-])c3)cs2)c(=O)n1-c1ccccc1 (3D coordinates assigned)
Cn1c(N)c(/N=c2\[nH]c(-c3cccc([N+](=O)[O-])c3)cs2)c(=O)n1-c1ccccc1 (optimized conformer: 132.82359016973697 kcal/mol)

>  <smiles>  (66) 
Cn1c(N)c(N=c2[nH]c(-c3cccc([N+](=O)[O-])c3)cs2)c(=O)n1-c1ccccc1

>  <score_type>  (66) 
oracle

>  <origin>  (66) 
autodockgpu

>  <m_score__min__energy>  (66) 
-8.5800000000000001

>  <m_primary>  (66) 
energy

>  <meeko>  (66) 
{"free_energy": -8.49, "intermolecular_energy": -10.28, "internal_energy": -1.21, "cluster_size": 9, "cluster_id": 2, "rank_in_cluster": 5}

>  <energy>  (66) 
-8.39

>  <cluster_rmsd>  (66) 
1.43

>  <rmsd>  (66) 
271.13

>  <cluster>  (66) 
1

$$$$
XUIJDXCNGWSLDF-JVGCEYTDNA-N
     RDKit          3D

 45 48  0  0  0  0  0  0  0  0999 V2000
  142.4162   76.0650  220.8894 H   0  0  0  0  0  0  0  0  0  0  0  0
  141.5860   75.4010  221.1720 C   0  0  0  0  0  0  0  0  0  0  0  0
  141.4470   73.7710  220.7730 S   0  0  0  0  0  0  0  0  0  0  0  0
  139.9750   73.5950  221.5550 C   0  0  0  0  0  0  0  0  0  0  0  0
  139.3320   72.4670  221.6260 N   0  0  0  0  0  0  0  0  0  0  0  0
  139.0130   71.7710  222.8370 C   0  0  0  0  0  0  0  0  0  0  0  0
  137.8720   71.0410  223.1350 C   0  0  0  0  0  0  0  0  0  0  0  0
  136.7510   70.8390  222.2680 N   0  0  0  0  0  0  0  0  0  0  0  0
  135.9340   70.2680  222.5760 H   0  0  0  0  0  0  0  0  0  0  0  0
  136.6950   71.3100  221.3400 H   0  0  0  0  0  0  0  0  0  0  0  0
  138.0520   70.4080  224.3210 N   0  0  0  0  0  0  0  0  0  0  0  0
  137.0790   69.5420  224.9890 C   0  0  0  0  0  0  0  0  0  0  0  0
  137.1888   69.6397  226.0791 H   0  0  0  0  0  0  0  0  0  0  0  0
  136.0614   69.8387  224.6949 H   0  0  0  0  0  0  0  0  0  0  0  0
  137.2556   68.4969  224.6949 H   0  0  0  0  0  0  0  0  0  0  0  0
  139.2850   70.6720  224.7560 N   0  0  0  0  0  0  0  0  0  0  0  0
  139.9010   70.1240  225.9350 C   0  0  0  0  0  0  0  0  0  0  0  0
  140.3740   70.9710  226.9500 C   0  0  0  0  0  0  0  0  0  0  0  0
  140.2848   72.0618  226.8393 H   0  0  0  0  0  0  0  0  0  0  0  0
  140.9580   70.4330  228.1010 C   0  0  0  0  0  0  0  0  0  0  0  0
  141.3325   71.1006  228.8910 H   0  0  0  0  0  0  0  0  0  0  0  0
  141.0660   69.0470  228.2480 C   0  0  0  0  0  0  0  0  0  0  0  0
  141.5293   68.6247  229.1519 H   0  0  0  0  0  0  0  0  0  0  0  0
  140.5860   68.1980  227.2480 C   0  0  0  0  0  0  0  0  0  0  0  0
  140.6682   67.1075  227.3668 H   0  0  0  0  0  0  0  0  0  0  0  0
  140.0010   68.7330  226.0960 C   0  0  0  0  0  0  0  0  0  0  0  0
  139.6179   68.0617  225.3133 H   0  0  0  0  0  0  0  0  0  0  0  0
  139.8840   71.4870  223.8620 C   0  0  0  0  0  0  0  0  0  0  0  0
  141.0750   71.8890  223.9460 O   0  0  0  0  0  0  0  0  0  0  0  0
  139.5780   74.7510  222.1380 N   0  0  0  0  0  0  0  0  0  0  0  0
  138.7240   74.8470  222.7290 H   0  0  0  0  0  0  0  0  0  0  0  0
  140.4640   75.7660  221.9250 C   0  0  0  0  0  0  0  0  0  0  0  0
  140.2450   77.1360  222.4510 C   0  0  0  0  0  0  0  0  0  0  0  0
  138.9420   77.5960  222.7080 C   0  0  0  0  0  0  0  0  0  0  0  0
  138.0820   76.9370  222.5179 H   0  0  0  0  0  0  0  0  0  0  0  0
  138.7330   78.8840  223.2030 C   0  0  0  0  0  0  0  0  0  0  0  0
  137.7095   79.2341  223.4026 H   0  0  0  0  0  0  0  0  0  0  0  0
  139.8160   79.7300  223.4460 C   0  0  0  0  0  0  0  0  0  0  0  0
  139.6411   80.7434  223.8363 H   0  0  0  0  0  0  0  0  0  0  0  0
  141.1290   79.2950  223.1950 C   0  0  0  0  0  0  0  0  0  0  0  0
  142.2500   80.1640  223.4470 N   0  0  0  0  0  0  0  0  0  0  0  0
  142.1310   81.1540  224.1980 O   0  0  0  0  0  0  0  0  0  0  0  0
  143.4710   79.9170  222.8630 O   0  0  0  0  0  0  0  0  0  0  0  0
  141.3330   77.9950  222.6970 C   0  0  0  0  0  0  0  0  0  0  0  0
  142.3565   77.6450  222.4971 H   0  0  0  0  0  0  0  0  0  0  0  0
  1  2  1  0
  2  3  1  0
  3  4  1  0
  4  5  2  0
  5  6  1  0
  6  7  2  0
  7  8  1  0
  8  9  1  0
  8 10  1  0
  7 11  1  0
 11 12  1  0
 12 13  1  0
 12 14  1  0
 12 15  1  0
 11 16  1  0
 16 17  1  0
 17 18  2  0
 18 19  1  0
 18 20  1  0
 20 21  1  0
 20 22  2  0
 22 23  1  0
 22 24  1  0
 24 25  1  0
 24 26  2  0
 26 27  1  0
 16 28  1  0
 28 29  2  0
  4 30  1  0
 30 31  1  0
 30 32  1  0
 32 33  1  0
 33 34  2  0
 34 35  1  0
 34 36  1  0
 36 37  1  0
 36 38  2  0
 38 39  1  0
 38 40  1  0
 40 41  1  0
 41 42  2  0
 41 43  1  0
 40 44  2  0
 44 45  1  0
 32  2  2  0
 44 33  1  0
 28  6  1  0
 26 17  1  0
M  CHG  2  41   1  43  -1
M  END
>  <UniqueID>  (67) 
30

>  <SMILES>  (67) 
Cn1c(N)c(/N=c2\[nH]c(-c3cccc([N+](=O)[O-])c3)cs2)c(=O)n1-c1ccccc1

>  <Energy>  (67) 
132.82359016973697

>  <Genealogy>  (67) 
Cn1c(N)c(/N=c2\[nH]c(-c3cccc([N+](=O)[O-])c3)cs2)c(=O)n1-c1ccccc1 (cis-trans isomerization)
Cn1c(N)c(/N=c2\[nH]c(-c3cccc([N+](=O)[O-])c3)cs2)c(=O)n1-c1ccccc1 (3D coordinates assigned)
Cn1c(N)c(/N=c2\[nH]c(-c3cccc([N+](=O)[O-])c3)cs2)c(=O)n1-c1ccccc1 (optimized conformer: 132.82359016973697 kcal/mol)

>  <smiles>  (67) 
Cn1c(N)c(N=c2[nH]c(-c3cccc([N+](=O)[O-])c3)cs2)c(=O)n1-c1ccccc1

>  <score_type>  (67) 
oracle

>  <origin>  (67) 
autodockgpu

>  <m_score__min__energy>  (67) 
-8.5800000000000001

>  <m_primary>  (67) 
energy

>  <meeko>  (67) 
{"free_energy": -8.47, "intermolecular_energy": -10.26, "internal_energy": -1.21, "cluster_size": 9, "cluster_id": 2, "rank_in_cluster": 8}

>  <energy>  (67) 
-8.5

>  <cluster_rmsd>  (67) 
0.0

>  <rmsd>  (67) 
271.28

>  <cluster>  (67) 
2

$$$$
XUIJDXCNGWSLDF-JVGCEYTDNA-N
     RDKit          3D

 45 48  0  0  0  0  0  0  0  0999 V2000
  142.3846   76.0812  220.8699 H   0  0  0  0  0  0  0  0  0  0  0  0
  141.5670   75.4040  221.1580 C   0  0  0  0  0  0  0  0  0  0  0  0
  141.4480   73.7740  220.7520 S   0  0  0  0  0  0  0  0  0  0  0  0
  139.9870   73.5740  221.5480 C   0  0  0  0  0  0  0  0  0  0  0  0
  139.3600   72.4370  221.6200 N   0  0  0  0  0  0  0  0  0  0  0  0
  139.0250   71.7520  222.8330 C   0  0  0  0  0  0  0  0  0  0  0  0
  137.8800   71.0230  223.1230 C   0  0  0  0  0  0  0  0  0  0  0  0
  136.7720   70.8110  222.2420 N   0  0  0  0  0  0  0  0  0  0  0  0
  135.9470   70.2510  222.5480 H   0  0  0  0  0  0  0  0  0  0  0  0
  136.7350   71.2640  221.3040 H   0  0  0  0  0  0  0  0  0  0  0  0
  138.0450   70.4020  224.3170 N   0  0  0  0  0  0  0  0  0  0  0  0
  137.0640   69.5410  224.9800 C   0  0  0  0  0  0  0  0  0  0  0  0
  137.1713   69.6352  226.0707 H   0  0  0  0  0  0  0  0  0  0  0  0
  136.0493   69.8455  224.6837 H   0  0  0  0  0  0  0  0  0  0  0  0
  137.2343   68.4954  224.6837 H   0  0  0  0  0  0  0  0  0  0  0  0
  139.2710   70.6710  224.7670 N   0  0  0  0  0  0  0  0  0  0  0  0
  139.8710   70.1370  225.9590 C   0  0  0  0  0  0  0  0  0  0  0  0
  139.9890   68.7480  226.1370 C   0  0  0  0  0  0  0  0  0  0  0  0
  139.6091   68.0621  225.3655 H   0  0  0  0  0  0  0  0  0  0  0  0
  140.5880   68.2350  227.2920 C   0  0  0  0  0  0  0  0  0  0  0  0
  140.6727   67.1470  227.4300 H   0  0  0  0  0  0  0  0  0  0  0  0
  141.0790   69.1030  228.2710 C   0  0  0  0  0  0  0  0  0  0  0  0
  141.5461   68.6977  229.1807 H   0  0  0  0  0  0  0  0  0  0  0  0
  140.9770   70.4850  228.0950 C   0  0  0  0  0  0  0  0  0  0  0  0
  141.3677   71.1669  228.8647 H   0  0  0  0  0  0  0  0  0  0  0  0
  140.3790   71.0030  226.9420 C   0  0  0  0  0  0  0  0  0  0  0  0
  140.3060   72.0919  226.8041 H   0  0  0  0  0  0  0  0  0  0  0  0
  139.8820   71.4790  223.8730 C   0  0  0  0  0  0  0  0  0  0  0  0
  141.0710   71.8840  223.9710 O   0  0  0  0  0  0  0  0  0  0  0  0
  139.5800   74.7210  222.1420 N   0  0  0  0  0  0  0  0  0  0  0  0
  138.7300   74.8020  222.7420 H   0  0  0  0  0  0  0  0  0  0  0  0
  140.4490   75.7500  221.9240 C   0  0  0  0  0  0  0  0  0  0  0  0
  140.2160   77.1140  222.4590 C   0  0  0  0  0  0  0  0  0  0  0  0
  138.9080   77.5640  222.7070 C   0  0  0  0  0  0  0  0  0  0  0  0
  138.0540   76.9013  222.5032 H   0  0  0  0  0  0  0  0  0  0  0  0
  138.6860   78.8460  223.2100 C   0  0  0  0  0  0  0  0  0  0  0  0
  137.6583   79.1880  223.4020 H   0  0  0  0  0  0  0  0  0  0  0  0
  139.7610   79.6970  223.4710 C   0  0  0  0  0  0  0  0  0  0  0  0
  139.5754   80.7060  223.8678 H   0  0  0  0  0  0  0  0  0  0  0  0
  141.0790   79.2730  223.2300 C   0  0  0  0  0  0  0  0  0  0  0  0
  142.1920   80.1460  223.4990 N   0  0  0  0  0  0  0  0  0  0  0  0
  143.3350   79.8650  223.0860 O   0  0  0  0  0  0  0  0  0  0  0  0
  142.0130   81.3050  224.2190 O   0  0  0  0  0  0  0  0  0  0  0  0
  141.2960   77.9780  222.7220 C   0  0  0  0  0  0  0  0  0  0  0  0
  142.3235   77.6366  222.5279 H   0  0  0  0  0  0  0  0  0  0  0  0
  1  2  1  0
  2  3  1  0
  3  4  1  0
  4  5  2  0
  5  6  1  0
  6  7  2  0
  7  8  1  0
  8  9  1  0
  8 10  1  0
  7 11  1  0
 11 12  1  0
 12 13  1  0
 12 14  1  0
 12 15  1  0
 11 16  1  0
 16 17  1  0
 17 18  2  0
 18 19  1  0
 18 20  1  0
 20 21  1  0
 20 22  2  0
 22 23  1  0
 22 24  1  0
 24 25  1  0
 24 26  2  0
 26 27  1  0
 16 28  1  0
 28 29  2  0
  4 30  1  0
 30 31  1  0
 30 32  1  0
 32 33  1  0
 33 34  2  0
 34 35  1  0
 34 36  1  0
 36 37  1  0
 36 38  2  0
 38 39  1  0
 38 40  1  0
 40 41  1  0
 41 42  2  0
 41 43  1  0
 40 44  2  0
 44 45  1  0
 32  2  2  0
 44 33  1  0
 28  6  1  0
 26 17  1  0
M  CHG  2  41   1  43  -1
M  END
>  <UniqueID>  (68) 
30

>  <SMILES>  (68) 
Cn1c(N)c(/N=c2\[nH]c(-c3cccc([N+](=O)[O-])c3)cs2)c(=O)n1-c1ccccc1

>  <Energy>  (68) 
132.82359016973697

>  <Genealogy>  (68) 
Cn1c(N)c(/N=c2\[nH]c(-c3cccc([N+](=O)[O-])c3)cs2)c(=O)n1-c1ccccc1 (cis-trans isomerization)
Cn1c(N)c(/N=c2\[nH]c(-c3cccc([N+](=O)[O-])c3)cs2)c(=O)n1-c1ccccc1 (3D coordinates assigned)
Cn1c(N)c(/N=c2\[nH]c(-c3cccc([N+](=O)[O-])c3)cs2)c(=O)n1-c1ccccc1 (optimized conformer: 132.82359016973697 kcal/mol)

>  <smiles>  (68) 
Cn1c(N)c(N=c2[nH]c(-c3cccc([N+](=O)[O-])c3)cs2)c(=O)n1-c1ccccc1

>  <score_type>  (68) 
oracle

>  <origin>  (68) 
autodockgpu

>  <m_score__min__energy>  (68) 
-8.5800000000000001

>  <m_primary>  (68) 
energy

>  <meeko>  (68) 
{"free_energy": -8.49, "intermolecular_energy": -10.28, "internal_energy": -1.21, "cluster_size": 9, "cluster_id": 2, "rank_in_cluster": 4}

>  <energy>  (68) 
-8.5

>  <cluster_rmsd>  (68) 
0.05

>  <rmsd>  (68) 
271.28

>  <cluster>  (68) 
2

$$$$
XUIJDXCNGWSLDF-JVGCEYTDNA-N
     RDKit          3D

 45 48  0  0  0  0  0  0  0  0999 V2000
  140.1369   69.2573  222.0264 H   0  0  0  0  0  0  0  0  0  0  0  0
  139.9530   70.3340  221.8960 C   0  0  0  0  0  0  0  0  0  0  0  0
  139.6570   71.1140  220.4330 S   0  0  0  0  0  0  0  0  0  0  0  0
  139.5150   72.6240  221.1450 C   0  0  0  0  0  0  0  0  0  0  0  0
  139.2380   73.7070  220.4800 N   0  0  0  0  0  0  0  0  0  0  0  0
  139.9760   74.9330  220.5510 C   0  0  0  0  0  0  0  0  0  0  0  0
  140.5720   75.6410  219.5180 C   0  0  0  0  0  0  0  0  0  0  0  0
  140.5740   75.2710  218.1350 N   0  0  0  0  0  0  0  0  0  0  0  0
  141.0560   75.8630  217.4250 H   0  0  0  0  0  0  0  0  0  0  0  0
  140.1540   74.3710  217.8170 H   0  0  0  0  0  0  0  0  0  0  0  0
  141.0160   76.8300  219.9970 N   0  0  0  0  0  0  0  0  0  0  0  0
  141.7080   77.8630  219.2250 C   0  0  0  0  0  0  0  0  0  0  0  0
  142.1858   78.5763  219.9127 H   0  0  0  0  0  0  0  0  0  0  0  0
  142.4753   77.3947  218.5911 H   0  0  0  0  0  0  0  0  0  0  0  0
  140.9829   78.3944  218.5911 H   0  0  0  0  0  0  0  0  0  0  0  0
  140.6750   76.9180  221.2830 N   0  0  0  0  0  0  0  0  0  0  0  0
  140.8860   78.0560  222.1380 C   0  0  0  0  0  0  0  0  0  0  0  0
  139.8490   78.5360  222.9540 C   0  0  0  0  0  0  0  0  0  0  0  0
  138.8639   78.0469  222.9327 H   0  0  0  0  0  0  0  0  0  0  0  0
  140.0640   79.6340  223.7940 C   0  0  0  0  0  0  0  0  0  0  0  0
  139.2466   80.0110  224.4263 H   0  0  0  0  0  0  0  0  0  0  0  0
  141.3170   80.2520  223.8300 C   0  0  0  0  0  0  0  0  0  0  0  0
  141.4842   81.1171  224.4886 H   0  0  0  0  0  0  0  0  0  0  0  0
  142.3580   79.7720  223.0300 C   0  0  0  0  0  0  0  0  0  0  0  0
  143.3446   80.2575  223.0620 H   0  0  0  0  0  0  0  0  0  0  0  0
  142.1460   78.6750  222.1890 C   0  0  0  0  0  0  0  0  0  0  0  0
  142.9687   78.2955  221.5652 H   0  0  0  0  0  0  0  0  0  0  0  0
  140.0340   75.7820  221.6310 C   0  0  0  0  0  0  0  0  0  0  0  0
  139.5360   75.5610  222.7670 O   0  0  0  0  0  0  0  0  0  0  0  0
  139.6720   72.5600  222.4880 N   0  0  0  0  0  0  0  0  0  0  0  0
  139.5590   73.3730  223.1320 H   0  0  0  0  0  0  0  0  0  0  0  0
  139.9250   71.2900  222.9170 C   0  0  0  0  0  0  0  0  0  0  0  0
  140.1480   70.9630  224.3470 C   0  0  0  0  0  0  0  0  0  0  0  0
  140.7460   71.9040  225.2030 C   0  0  0  0  0  0  0  0  0  0  0  0
  141.0486   72.8859  224.8101 H   0  0  0  0  0  0  0  0  0  0  0  0
  140.9580   71.6000  226.5480 C   0  0  0  0  0  0  0  0  0  0  0  0
  141.4255   72.3438  227.2100 H   0  0  0  0  0  0  0  0  0  0  0  0
  140.5800   70.3570  227.0580 C   0  0  0  0  0  0  0  0  0  0  0  0
  140.7512   70.1267  228.1199 H   0  0  0  0  0  0  0  0  0  0  0  0
  139.9820   69.3980  226.2230 C   0  0  0  0  0  0  0  0  0  0  0  0
  139.5870   68.1150  226.7440 N   0  0  0  0  0  0  0  0  0  0  0  0
  139.6140   67.8910  227.9720 O   0  0  0  0  0  0  0  0  0  0  0  0
  139.1740   67.1120  225.8970 O   0  0  0  0  0  0  0  0  0  0  0  0
  139.7710   69.7110  224.8670 C   0  0  0  0  0  0  0  0  0  0  0  0
  139.3050   68.9666  224.2047 H   0  0  0  0  0  0  0  0  0  0  0  0
  1  2  1  0
  2  3  1  0
  3  4  1  0
  4  5  2  0
  5  6  1  0
  6  7  2  0
  7  8  1  0
  8  9  1  0
  8 10  1  0
  7 11  1  0
 11 12  1  0
 12 13  1  0
 12 14  1  0
 12 15  1  0
 11 16  1  0
 16 17  1  0
 17 18  2  0
 18 19  1  0
 18 20  1  0
 20 21  1  0
 20 22  2  0
 22 23  1  0
 22 24  1  0
 24 25  1  0
 24 26  2  0
 26 27  1  0
 16 28  1  0
 28 29  2  0
  4 30  1  0
 30 31  1  0
 30 32  1  0
 32 33  1  0
 33 34  2  0
 34 35  1  0
 34 36  1  0
 36 37  1  0
 36 38  2  0
 38 39  1  0
 38 40  1  0
 40 41  1  0
 41 42  2  0
 41 43  1  0
 40 44  2  0
 44 45  1  0
 32  2  2  0
 44 33  1  0
 28  6  1  0
 26 17  1  0
M  CHG  2  41   1  43  -1
M  END
>  <UniqueID>  (69) 
30

>  <SMILES>  (69) 
Cn1c(N)c(/N=c2\[nH]c(-c3cccc([N+](=O)[O-])c3)cs2)c(=O)n1-c1ccccc1

>  <Energy>  (69) 
132.82359016973697

>  <Genealogy>  (69) 
Cn1c(N)c(/N=c2\[nH]c(-c3cccc([N+](=O)[O-])c3)cs2)c(=O)n1-c1ccccc1 (cis-trans isomerization)
Cn1c(N)c(/N=c2\[nH]c(-c3cccc([N+](=O)[O-])c3)cs2)c(=O)n1-c1ccccc1 (3D coordinates assigned)
Cn1c(N)c(/N=c2\[nH]c(-c3cccc([N+](=O)[O-])c3)cs2)c(=O)n1-c1ccccc1 (optimized conformer: 132.82359016973697 kcal/mol)

>  <smiles>  (69) 
Cn1c(N)c(N=c2[nH]c(-c3cccc([N+](=O)[O-])c3)cs2)c(=O)n1-c1ccccc1

>  <score_type>  (69) 
oracle

>  <origin>  (69) 
autodockgpu

>  <m_score__min__energy>  (69) 
-8.5800000000000001

>  <m_primary>  (69) 
energy

>  <meeko>  (69) 
{"free_energy": -7.92, "intermolecular_energy": -9.71, "internal_energy": -1.73, "cluster_size": 5, "cluster_id": 3, "rank_in_cluster": 2}

>  <energy>  (69) 
-8.5

>  <cluster_rmsd>  (69) 
0.05

>  <rmsd>  (69) 
271.29

>  <cluster>  (69) 
2

$$$$
XUIJDXCNGWSLDF-JVGCEYTDNA-N
     RDKit          3D

 45 48  0  0  0  0  0  0  0  0999 V2000
  142.4225   76.0165  220.9546 H   0  0  0  0  0  0  0  0  0  0  0  0
  141.5880   75.3520  221.2230 C   0  0  0  0  0  0  0  0  0  0  0  0
  141.4600   73.7210  220.8260 S   0  0  0  0  0  0  0  0  0  0  0  0
  139.9730   73.5450  221.5810 C   0  0  0  0  0  0  0  0  0  0  0  0
  139.3300   72.4160  221.6430 N   0  0  0  0  0  0  0  0  0  0  0  0
  139.0020   71.7170  222.8500 C   0  0  0  0  0  0  0  0  0  0  0  0
  137.8700   70.9630  223.1270 C   0  0  0  0  0  0  0  0  0  0  0  0
  136.7720   70.7350  222.2380 N   0  0  0  0  0  0  0  0  0  0  0  0
  136.8080   71.0640  221.2500 H   0  0  0  0  0  0  0  0  0  0  0  0
  135.9420   70.1790  222.5380 H   0  0  0  0  0  0  0  0  0  0  0  0
  138.0400   70.3370  224.3180 N   0  0  0  0  0  0  0  0  0  0  0  0
  137.0720   69.4520  224.9690 C   0  0  0  0  0  0  0  0  0  0  0  0
  137.1699   69.5415  226.0610 H   0  0  0  0  0  0  0  0  0  0  0  0
  136.0534   69.7377  224.6675 H   0  0  0  0  0  0  0  0  0  0  0  0
  137.2655   68.4120  224.6675 H   0  0  0  0  0  0  0  0  0  0  0  0
  139.2580   70.6280  224.7770 N   0  0  0  0  0  0  0  0  0  0  0  0
  139.8610   70.0970  225.9700 C   0  0  0  0  0  0  0  0  0  0  0  0
  140.0020   68.7100  226.1410 C   0  0  0  0  0  0  0  0  0  0  0  0
  139.6376   68.0222  225.3637 H   0  0  0  0  0  0  0  0  0  0  0  0
  140.6040   68.2000  227.2960 C   0  0  0  0  0  0  0  0  0  0  0  0
  140.7065   67.1128  227.4286 H   0  0  0  0  0  0  0  0  0  0  0  0
  141.0750   69.0710  228.2810 C   0  0  0  0  0  0  0  0  0  0  0  0
  141.5451   68.6687  229.1905 H   0  0  0  0  0  0  0  0  0  0  0  0
  140.9500   70.4530  228.1130 C   0  0  0  0  0  0  0  0  0  0  0  0
  141.3244   71.1373  228.8886 H   0  0  0  0  0  0  0  0  0  0  0  0
  140.3490   70.9660  226.9590 C   0  0  0  0  0  0  0  0  0  0  0  0
  140.2583   72.0541  226.8257 H   0  0  0  0  0  0  0  0  0  0  0  0
  139.8580   71.4530  223.8930 C   0  0  0  0  0  0  0  0  0  0  0  0
  141.0380   71.8810  224.0000 O   0  0  0  0  0  0  0  0  0  0  0  0
  139.5630   74.7020  222.1530 N   0  0  0  0  0  0  0  0  0  0  0  0
  138.6980   74.7980  222.7270 H   0  0  0  0  0  0  0  0  0  0  0  0
  140.4510   75.7180  221.9530 C   0  0  0  0  0  0  0  0  0  0  0  0
  140.2200   77.0890  222.4700 C   0  0  0  0  0  0  0  0  0  0  0  0
  138.9120   77.5430  222.7120 C   0  0  0  0  0  0  0  0  0  0  0  0
  138.0576   76.8781  222.5174 H   0  0  0  0  0  0  0  0  0  0  0  0
  138.6910   78.8330  223.1980 C   0  0  0  0  0  0  0  0  0  0  0  0
  137.6637   79.1792  223.3846 H   0  0  0  0  0  0  0  0  0  0  0  0
  139.7670   79.6850  223.4480 C   0  0  0  0  0  0  0  0  0  0  0  0
  139.5829   80.6994  223.8316 H   0  0  0  0  0  0  0  0  0  0  0  0
  141.0850   79.2560  223.2130 C   0  0  0  0  0  0  0  0  0  0  0  0
  142.1990   80.1320  223.4720 N   0  0  0  0  0  0  0  0  0  0  0  0
  143.3340   79.8650  223.0270 O   0  0  0  0  0  0  0  0  0  0  0  0
  142.0300   81.2770  224.2160 O   0  0  0  0  0  0  0  0  0  0  0  0
  141.3010   77.9550  222.7230 C   0  0  0  0  0  0  0  0  0  0  0  0
  142.3283   77.6097  222.5350 H   0  0  0  0  0  0  0  0  0  0  0  0
  1  2  1  0
  2  3  1  0
  3  4  1  0
  4  5  2  0
  5  6  1  0
  6  7  2  0
  7  8  1  0
  8  9  1  0
  8 10  1  0
  7 11  1  0
 11 12  1  0
 12 13  1  0
 12 14  1  0
 12 15  1  0
 11 16  1  0
 16 17  1  0
 17 18  2  0
 18 19  1  0
 18 20  1  0
 20 21  1  0
 20 22  2  0
 22 23  1  0
 22 24  1  0
 24 25  1  0
 24 26  2  0
 26 27  1  0
 16 28  1  0
 28 29  2  0
  4 30  1  0
 30 31  1  0
 30 32  1  0
 32 33  1  0
 33 34  2  0
 34 35  1  0
 34 36  1  0
 36 37  1  0
 36 38  2  0
 38 39  1  0
 38 40  1  0
 40 41  1  0
 41 42  2  0
 41 43  1  0
 40 44  2  0
 44 45  1  0
 32  2  2  0
 44 33  1  0
 28  6  1  0
 26 17  1  0
M  CHG  2  41   1  43  -1
M  END
>  <UniqueID>  (70) 
30

>  <SMILES>  (70) 
Cn1c(N)c(/N=c2\[nH]c(-c3cccc([N+](=O)[O-])c3)cs2)c(=O)n1-c1ccccc1

>  <Energy>  (70) 
132.82359016973697

>  <Genealogy>  (70) 
Cn1c(N)c(/N=c2\[nH]c(-c3cccc([N+](=O)[O-])c3)cs2)c(=O)n1-c1ccccc1 (cis-trans isomerization)
Cn1c(N)c(/N=c2\[nH]c(-c3cccc([N+](=O)[O-])c3)cs2)c(=O)n1-c1ccccc1 (3D coordinates assigned)
Cn1c(N)c(/N=c2\[nH]c(-c3cccc([N+](=O)[O-])c3)cs2)c(=O)n1-c1ccccc1 (optimized conformer: 132.82359016973697 kcal/mol)

>  <smiles>  (70) 
Cn1c(N)c(N=c2[nH]c(-c3cccc([N+](=O)[O-])c3)cs2)c(=O)n1-c1ccccc1

>  <score_type>  (70) 
oracle

>  <origin>  (70) 
autodockgpu

>  <m_score__min__energy>  (70) 
-8.5800000000000001

>  <m_primary>  (70) 
energy

>  <meeko>  (70) 
{"free_energy": -8.5, "intermolecular_energy": -10.29, "internal_energy": -1.21, "cluster_size": 9, "cluster_id": 2, "rank_in_cluster": 1}

>  <energy>  (70) 
-8.49

>  <cluster_rmsd>  (70) 
0.06

>  <rmsd>  (70) 
271.29

>  <cluster>  (70) 
2

$$$$
XUIJDXCNGWSLDF-JVGCEYTDNA-N
     RDKit          3D

 45 48  0  0  0  0  0  0  0  0999 V2000
  140.1017   69.2459  221.9326 H   0  0  0  0  0  0  0  0  0  0  0  0
  139.9210   70.3260  221.8290 C   0  0  0  0  0  0  0  0  0  0  0  0
  139.5670   71.1330  220.3940 S   0  0  0  0  0  0  0  0  0  0  0  0
  139.4720   72.6320  221.1370 C   0  0  0  0  0  0  0  0  0  0  0  0
  139.1760   73.7290  220.5030 N   0  0  0  0  0  0  0  0  0  0  0  0
  139.9240   74.9500  220.5690 C   0  0  0  0  0  0  0  0  0  0  0  0
  140.5020   75.6620  219.5280 C   0  0  0  0  0  0  0  0  0  0  0  0
  140.4720   75.3040  218.1430 N   0  0  0  0  0  0  0  0  0  0  0  0
  139.8910   74.5040  217.8110 H   0  0  0  0  0  0  0  0  0  0  0  0
  140.9730   75.8720  217.4280 H   0  0  0  0  0  0  0  0  0  0  0  0
  140.9640   76.8430  220.0080 N   0  0  0  0  0  0  0  0  0  0  0  0
  141.6460   77.8790  219.2290 C   0  0  0  0  0  0  0  0  0  0  0  0
  142.1200   78.5991  219.9122 H   0  0  0  0  0  0  0  0  0  0  0  0
  142.4153   77.4141  218.5949 H   0  0  0  0  0  0  0  0  0  0  0  0
  140.9149   78.4018  218.5949 H   0  0  0  0  0  0  0  0  0  0  0  0
  140.6530   76.9240  221.3020 N   0  0  0  0  0  0  0  0  0  0  0  0
  140.8900   78.0530  222.1610 C   0  0  0  0  0  0  0  0  0  0  0  0
  139.8710   78.5390  222.9960 C   0  0  0  0  0  0  0  0  0  0  0  0
  138.8800   78.0617  222.9863 H   0  0  0  0  0  0  0  0  0  0  0  0
  140.1120   79.6280  223.8400 C   0  0  0  0  0  0  0  0  0  0  0  0
  139.3087   80.0102  224.4869 H   0  0  0  0  0  0  0  0  0  0  0  0
  141.3730   80.2310  223.8620 C   0  0  0  0  0  0  0  0  0  0  0  0
  141.5606   81.0887  224.5246 H   0  0  0  0  0  0  0  0  0  0  0  0
  142.3950   79.7450  223.0430 C   0  0  0  0  0  0  0  0  0  0  0  0
  143.3876   80.2187  223.0631 H   0  0  0  0  0  0  0  0  0  0  0  0
  142.1570   78.6560  222.1970 C   0  0  0  0  0  0  0  0  0  0  0  0
  142.9655   78.2712  221.5581 H   0  0  0  0  0  0  0  0  0  0  0  0
  140.0110   75.7890  221.6540 C   0  0  0  0  0  0  0  0  0  0  0  0
  139.5360   75.5610  222.7990 O   0  0  0  0  0  0  0  0  0  0  0  0
  139.6870   72.5440  222.4710 N   0  0  0  0  0  0  0  0  0  0  0  0
  139.6110   73.3470  223.1320 H   0  0  0  0  0  0  0  0  0  0  0  0
  139.9460   71.2640  222.8670 C   0  0  0  0  0  0  0  0  0  0  0  0
  140.2300   70.9110  224.2790 C   0  0  0  0  0  0  0  0  0  0  0  0
  140.6690   71.8960  225.1810 C   0  0  0  0  0  0  0  0  0  0  0  0
  140.8019   72.9324  224.8372 H   0  0  0  0  0  0  0  0  0  0  0  0
  140.9370   71.5660  226.5100 C   0  0  0  0  0  0  0  0  0  0  0  0
  141.2804   72.3438  227.2079 H   0  0  0  0  0  0  0  0  0  0  0  0
  140.7720   70.2550  226.9590 C   0  0  0  0  0  0  0  0  0  0  0  0
  140.9851   70.0057  228.0090 H   0  0  0  0  0  0  0  0  0  0  0  0
  140.3350   69.2510  226.0770 C   0  0  0  0  0  0  0  0  0  0  0  0
  140.1610   67.8970  226.5360 N   0  0  0  0  0  0  0  0  0  0  0  0
  140.9670   67.3900  227.3420 O   0  0  0  0  0  0  0  0  0  0  0  0
  139.1030   67.1390  226.0900 O   0  0  0  0  0  0  0  0  0  0  0  0
  140.0670   69.5900  224.7380 C   0  0  0  0  0  0  0  0  0  0  0  0
  139.7252   68.8118  224.0398 H   0  0  0  0  0  0  0  0  0  0  0  0
  1  2  1  0
  2  3  1  0
  3  4  1  0
  4  5  2  0
  5  6  1  0
  6  7  2  0
  7  8  1  0
  8  9  1  0
  8 10  1  0
  7 11  1  0
 11 12  1  0
 12 13  1  0
 12 14  1  0
 12 15  1  0
 11 16  1  0
 16 17  1  0
 17 18  2  0
 18 19  1  0
 18 20  1  0
 20 21  1  0
 20 22  2  0
 22 23  1  0
 22 24  1  0
 24 25  1  0
 24 26  2  0
 26 27  1  0
 16 28  1  0
 28 29  2  0
  4 30  1  0
 30 31  1  0
 30 32  1  0
 32 33  1  0
 33 34  2  0
 34 35  1  0
 34 36  1  0
 36 37  1  0
 36 38  2  0
 38 39  1  0
 38 40  1  0
 40 41  1  0
 41 42  2  0
 41 43  1  0
 40 44  2  0
 44 45  1  0
 32  2  2  0
 44 33  1  0
 28  6  1  0
 26 17  1  0
M  CHG  2  41   1  43  -1
M  END
>  <UniqueID>  (71) 
30

>  <SMILES>  (71) 
Cn1c(N)c(/N=c2\[nH]c(-c3cccc([N+](=O)[O-])c3)cs2)c(=O)n1-c1ccccc1

>  <Energy>  (71) 
132.82359016973697

>  <Genealogy>  (71) 
Cn1c(N)c(/N=c2\[nH]c(-c3cccc([N+](=O)[O-])c3)cs2)c(=O)n1-c1ccccc1 (cis-trans isomerization)
Cn1c(N)c(/N=c2\[nH]c(-c3cccc([N+](=O)[O-])c3)cs2)c(=O)n1-c1ccccc1 (3D coordinates assigned)
Cn1c(N)c(/N=c2\[nH]c(-c3cccc([N+](=O)[O-])c3)cs2)c(=O)n1-c1ccccc1 (optimized conformer: 132.82359016973697 kcal/mol)

>  <smiles>  (71) 
Cn1c(N)c(N=c2[nH]c(-c3cccc([N+](=O)[O-])c3)cs2)c(=O)n1-c1ccccc1

>  <score_type>  (71) 
oracle

>  <origin>  (71) 
autodockgpu

>  <m_score__min__energy>  (71) 
-8.5800000000000001

>  <m_primary>  (71) 
energy

>  <meeko>  (71) 
{"free_energy": -7.89, "intermolecular_energy": -9.68, "internal_energy": -1.74, "cluster_size": 5, "cluster_id": 3, "rank_in_cluster": 5}

>  <energy>  (71) 
-8.49

>  <cluster_rmsd>  (71) 
0.09

>  <rmsd>  (71) 
271.28

>  <cluster>  (71) 
2

$$$$
XUIJDXCNGWSLDF-JVGCEYTDNA-N
     RDKit          3D

 45 48  0  0  0  0  0  0  0  0999 V2000
  139.3725   68.9956  223.1664 H   0  0  0  0  0  0  0  0  0  0  0  0
  139.5760   70.0320  222.8590 C   0  0  0  0  0  0  0  0  0  0  0  0
  139.4080   70.6500  221.3020 S   0  0  0  0  0  0  0  0  0  0  0  0
  139.9100   72.1870  221.7430 C   0  0  0  0  0  0  0  0  0  0  0  0
  139.9660   73.1880  220.9140 N   0  0  0  0  0  0  0  0  0  0  0  0
  139.7990   74.5660  221.2690 C   0  0  0  0  0  0  0  0  0  0  0  0
  138.6910   75.1820  221.8330 C   0  0  0  0  0  0  0  0  0  0  0  0
  137.4570   74.5440  222.1760 N   0  0  0  0  0  0  0  0  0  0  0  0
  136.7000   74.4310  221.4680 H   0  0  0  0  0  0  0  0  0  0  0  0
  137.3130   74.1190  223.1170 H   0  0  0  0  0  0  0  0  0  0  0  0
  139.0170   76.4560  222.1630 N   0  0  0  0  0  0  0  0  0  0  0  0
  138.1230   77.4390  222.7770 C   0  0  0  0  0  0  0  0  0  0  0  0
  138.1918   77.3634  223.8722 H   0  0  0  0  0  0  0  0  0  0  0  0
  138.4172   78.4505  222.4601 H   0  0  0  0  0  0  0  0  0  0  0  0
  137.0883   77.2419  222.4601 H   0  0  0  0  0  0  0  0  0  0  0  0
  140.3040   76.6500  221.8740 N   0  0  0  0  0  0  0  0  0  0  0  0
  141.0630   77.8410  222.1490 C   0  0  0  0  0  0  0  0  0  0  0  0
  141.3970   78.7280  221.1130 C   0  0  0  0  0  0  0  0  0  0  0  0
  141.0875   78.5068  220.0809 H   0  0  0  0  0  0  0  0  0  0  0  0
  142.1220   79.8920  221.3890 C   0  0  0  0  0  0  0  0  0  0  0  0
  142.3893   80.5795  220.5730 H   0  0  0  0  0  0  0  0  0  0  0  0
  142.5070   80.1820  222.7010 C   0  0  0  0  0  0  0  0  0  0  0  0
  143.0783   81.0970  222.9164 H   0  0  0  0  0  0  0  0  0  0  0  0
  142.1670   79.3110  223.7390 C   0  0  0  0  0  0  0  0  0  0  0  0
  142.4686   79.5418  224.7714 H   0  0  0  0  0  0  0  0  0  0  0  0
  141.4430   78.1450  223.4660 C   0  0  0  0  0  0  0  0  0  0  0  0
  141.1706   77.4643  224.2860 H   0  0  0  0  0  0  0  0  0  0  0  0
  140.7960   75.5110  221.3430 C   0  0  0  0  0  0  0  0  0  0  0  0
  141.9970   75.3390  221.0040 O   0  0  0  0  0  0  0  0  0  0  0  0
  140.1930   72.2600  223.0650 N   0  0  0  0  0  0  0  0  0  0  0  0
  140.4610   73.1380  223.5600 H   0  0  0  0  0  0  0  0  0  0  0  0
  140.0190   71.0630  223.6950 C   0  0  0  0  0  0  0  0  0  0  0  0
  140.2790   70.8820  225.1450 C   0  0  0  0  0  0  0  0  0  0  0  0
  140.8120   71.9380  225.9050 C   0  0  0  0  0  0  0  0  0  0  0  0
  141.0356   72.9009  225.4224 H   0  0  0  0  0  0  0  0  0  0  0  0
  141.0590   71.7710  227.2690 C   0  0  0  0  0  0  0  0  0  0  0  0
  141.4764   72.6028  227.8555 H   0  0  0  0  0  0  0  0  0  0  0  0
  140.7790   70.5540  227.8920 C   0  0  0  0  0  0  0  0  0  0  0  0
  140.9766   70.4321  228.9672 H   0  0  0  0  0  0  0  0  0  0  0  0
  140.2460   69.4830  227.1540 C   0  0  0  0  0  0  0  0  0  0  0  0
  139.9530   68.2250  227.7930 N   0  0  0  0  0  0  0  0  0  0  0  0
  139.2220   67.3830  227.2340 O   0  0  0  0  0  0  0  0  0  0  0  0
  140.4750   67.9320  229.0320 O   0  0  0  0  0  0  0  0  0  0  0  0
  140.0000   69.6570  225.7800 C   0  0  0  0  0  0  0  0  0  0  0  0
  139.5839   68.8245  225.1937 H   0  0  0  0  0  0  0  0  0  0  0  0
  1  2  1  0
  2  3  1  0
  3  4  1  0
  4  5  2  0
  5  6  1  0
  6  7  2  0
  7  8  1  0
  8  9  1  0
  8 10  1  0
  7 11  1  0
 11 12  1  0
 12 13  1  0
 12 14  1  0
 12 15  1  0
 11 16  1  0
 16 17  1  0
 17 18  2  0
 18 19  1  0
 18 20  1  0
 20 21  1  0
 20 22  2  0
 22 23  1  0
 22 24  1  0
 24 25  1  0
 24 26  2  0
 26 27  1  0
 16 28  1  0
 28 29  2  0
  4 30  1  0
 30 31  1  0
 30 32  1  0
 32 33  1  0
 33 34  2  0
 34 35  1  0
 34 36  1  0
 36 37  1  0
 36 38  2  0
 38 39  1  0
 38 40  1  0
 40 41  1  0
 41 42  2  0
 41 43  1  0
 40 44  2  0
 44 45  1  0
 32  2  2  0
 44 33  1  0
 28  6  1  0
 26 17  1  0
M  CHG  2  41   1  43  -1
M  END
>  <UniqueID>  (72) 
30

>  <SMILES>  (72) 
Cn1c(N)c(/N=c2\[nH]c(-c3cccc([N+](=O)[O-])c3)cs2)c(=O)n1-c1ccccc1

>  <Energy>  (72) 
132.82359016973697

>  <Genealogy>  (72) 
Cn1c(N)c(/N=c2\[nH]c(-c3cccc([N+](=O)[O-])c3)cs2)c(=O)n1-c1ccccc1 (cis-trans isomerization)
Cn1c(N)c(/N=c2\[nH]c(-c3cccc([N+](=O)[O-])c3)cs2)c(=O)n1-c1ccccc1 (3D coordinates assigned)
Cn1c(N)c(/N=c2\[nH]c(-c3cccc([N+](=O)[O-])c3)cs2)c(=O)n1-c1ccccc1 (optimized conformer: 132.82359016973697 kcal/mol)

>  <smiles>  (72) 
Cn1c(N)c(N=c2[nH]c(-c3cccc([N+](=O)[O-])c3)cs2)c(=O)n1-c1ccccc1

>  <score_type>  (72) 
oracle

>  <origin>  (72) 
autodockgpu

>  <m_score__min__energy>  (72) 
-8.5800000000000001

>  <m_primary>  (72) 
energy

>  <meeko>  (72) 
{"free_energy": -8.55, "intermolecular_energy": -10.34, "internal_energy": -1.23, "cluster_size": 6, "cluster_id": 1, "rank_in_cluster": 3}

>  <energy>  (72) 
-8.48

>  <cluster_rmsd>  (72) 
0.07

>  <rmsd>  (72) 
271.28

>  <cluster>  (72) 
2

$$$$
XUIJDXCNGWSLDF-JVGCEYTDNA-N
     RDKit          3D

 45 48  0  0  0  0  0  0  0  0999 V2000
  138.8198   69.1815  223.3848 H   0  0  0  0  0  0  0  0  0  0  0  0
  139.1730   70.1690  223.0530 C   0  0  0  0  0  0  0  0  0  0  0  0
  138.9900   70.8140  221.5080 S   0  0  0  0  0  0  0  0  0  0  0  0
  139.7800   72.2400  221.8950 C   0  0  0  0  0  0  0  0  0  0  0  0
  139.9410   73.2210  221.0550 N   0  0  0  0  0  0  0  0  0  0  0  0
  139.7860   74.6100  221.3680 C   0  0  0  0  0  0  0  0  0  0  0  0
  138.6810   75.2550  221.9030 C   0  0  0  0  0  0  0  0  0  0  0  0
  137.4350   74.6420  222.2520 N   0  0  0  0  0  0  0  0  0  0  0  0
  137.3590   74.0300  223.0930 H   0  0  0  0  0  0  0  0  0  0  0  0
  136.5650   74.8450  221.7160 H   0  0  0  0  0  0  0  0  0  0  0  0
  139.0180   76.5350  222.1990 N   0  0  0  0  0  0  0  0  0  0  0  0
  138.1290   77.5460  222.7750 C   0  0  0  0  0  0  0  0  0  0  0  0
  138.1758   77.4928  223.8727 H   0  0  0  0  0  0  0  0  0  0  0  0
  138.4462   78.5454  222.4425 H   0  0  0  0  0  0  0  0  0  0  0  0
  137.0972   77.3592  222.4425 H   0  0  0  0  0  0  0  0  0  0  0  0
  140.3100   76.7060  221.9170 N   0  0  0  0  0  0  0  0  0  0  0  0
  141.0800   77.8960  222.1640 C   0  0  0  0  0  0  0  0  0  0  0  0
  141.3990   78.7690  221.1120 C   0  0  0  0  0  0  0  0  0  0  0  0
  141.0693   78.5379  220.0883 H   0  0  0  0  0  0  0  0  0  0  0  0
  142.1350   79.9320  221.3620 C   0  0  0  0  0  0  0  0  0  0  0  0
  142.3896   80.6096  220.5337 H   0  0  0  0  0  0  0  0  0  0  0  0
  142.5470   80.2340  222.6620 C   0  0  0  0  0  0  0  0  0  0  0  0
  143.1277   81.1478  222.8562 H   0  0  0  0  0  0  0  0  0  0  0  0
  142.2220   79.3760  223.7160 C   0  0  0  0  0  0  0  0  0  0  0  0
  142.5448   79.6166  224.7397 H   0  0  0  0  0  0  0  0  0  0  0  0
  141.4870   78.2120  223.4710 C   0  0  0  0  0  0  0  0  0  0  0  0
  141.2268   77.5420  224.3037 H   0  0  0  0  0  0  0  0  0  0  0  0
  140.7930   75.5450  221.4240 C   0  0  0  0  0  0  0  0  0  0  0  0
  141.9960   75.3500  221.1030 O   0  0  0  0  0  0  0  0  0  0  0  0
  140.1770   72.2570  223.1890 N   0  0  0  0  0  0  0  0  0  0  0  0
  140.6300   73.0740  223.6540 H   0  0  0  0  0  0  0  0  0  0  0  0
  139.8510   71.1040  223.8420 C   0  0  0  0  0  0  0  0  0  0  0  0
  140.1920   70.8740  225.2680 C   0  0  0  0  0  0  0  0  0  0  0  0
  140.7920   71.8950  226.0260 C   0  0  0  0  0  0  0  0  0  0  0  0
  141.0088   72.8672  225.5593 H   0  0  0  0  0  0  0  0  0  0  0  0
  141.1140   71.6820  227.3670 C   0  0  0  0  0  0  0  0  0  0  0  0
  141.5831   72.4871  227.9517 H   0  0  0  0  0  0  0  0  0  0  0  0
  140.8440   70.4530  227.9700 C   0  0  0  0  0  0  0  0  0  0  0  0
  141.1013   70.2950  229.0278 H   0  0  0  0  0  0  0  0  0  0  0  0
  140.2450   69.4150  227.2340 C   0  0  0  0  0  0  0  0  0  0  0  0
  139.9620   68.1460  227.8520 N   0  0  0  0  0  0  0  0  0  0  0  0
  140.3850   67.8880  228.9980 O   0  0  0  0  0  0  0  0  0  0  0  0
  139.2220   67.1950  227.1890 O   0  0  0  0  0  0  0  0  0  0  0  0
  139.9230   69.6360  225.8820 C   0  0  0  0  0  0  0  0  0  0  0  0
  139.4548   68.8306  225.2971 H   0  0  0  0  0  0  0  0  0  0  0  0
  1  2  1  0
  2  3  1  0
  3  4  1  0
  4  5  2  0
  5  6  1  0
  6  7  2  0
  7  8  1  0
  8  9  1  0
  8 10  1  0
  7 11  1  0
 11 12  1  0
 12 13  1  0
 12 14  1  0
 12 15  1  0
 11 16  1  0
 16 17  1  0
 17 18  2  0
 18 19  1  0
 18 20  1  0
 20 21  1  0
 20 22  2  0
 22 23  1  0
 22 24  1  0
 24 25  1  0
 24 26  2  0
 26 27  1  0
 16 28  1  0
 28 29  2  0
  4 30  1  0
 30 31  1  0
 30 32  1  0
 32 33  1  0
 33 34  2  0
 34 35  1  0
 34 36  1  0
 36 37  1  0
 36 38  2  0
 38 39  1  0
 38 40  1  0
 40 41  1  0
 41 42  2  0
 41 43  1  0
 40 44  2  0
 44 45  1  0
 32  2  2  0
 44 33  1  0
 28  6  1  0
 26 17  1  0
M  CHG  2  41   1  43  -1
M  END
>  <UniqueID>  (73) 
30

>  <SMILES>  (73) 
Cn1c(N)c(/N=c2\[nH]c(-c3cccc([N+](=O)[O-])c3)cs2)c(=O)n1-c1ccccc1

>  <Energy>  (73) 
132.82359016973697

>  <Genealogy>  (73) 
Cn1c(N)c(/N=c2\[nH]c(-c3cccc([N+](=O)[O-])c3)cs2)c(=O)n1-c1ccccc1 (cis-trans isomerization)
Cn1c(N)c(/N=c2\[nH]c(-c3cccc([N+](=O)[O-])c3)cs2)c(=O)n1-c1ccccc1 (3D coordinates assigned)
Cn1c(N)c(/N=c2\[nH]c(-c3cccc([N+](=O)[O-])c3)cs2)c(=O)n1-c1ccccc1 (optimized conformer: 132.82359016973697 kcal/mol)

>  <smiles>  (73) 
Cn1c(N)c(N=c2[nH]c(-c3cccc([N+](=O)[O-])c3)cs2)c(=O)n1-c1ccccc1

>  <score_type>  (73) 
oracle

>  <origin>  (73) 
autodockgpu

>  <m_score__min__energy>  (73) 
-8.5800000000000001

>  <m_primary>  (73) 
energy

>  <meeko>  (73) 
{"free_energy": -8.58, "intermolecular_energy": -10.37, "internal_energy": -1.23, "cluster_size": 6, "cluster_id": 1, "rank_in_cluster": 2}

>  <energy>  (73) 
-8.47

>  <cluster_rmsd>  (73) 
0.07

>  <rmsd>  (73) 
271.29

>  <cluster>  (73) 
2

$$$$
XUIJDXCNGWSLDF-JVGCEYTDNA-N
     RDKit          3D

 45 48  0  0  0  0  0  0  0  0999 V2000
  140.1109   69.2155  222.1337 H   0  0  0  0  0  0  0  0  0  0  0  0
  139.9490   70.2940  221.9900 C   0  0  0  0  0  0  0  0  0  0  0  0
  139.6490   71.0590  220.5200 S   0  0  0  0  0  0  0  0  0  0  0  0
  139.5530   72.5820  221.2120 C   0  0  0  0  0  0  0  0  0  0  0  0
  139.2910   73.6620  220.5340 N   0  0  0  0  0  0  0  0  0  0  0  0
  140.0380   74.8830  220.6030 C   0  0  0  0  0  0  0  0  0  0  0  0
  140.6700   75.5650  219.5730 C   0  0  0  0  0  0  0  0  0  0  0  0
  140.7070   75.1670  218.1990 N   0  0  0  0  0  0  0  0  0  0  0  0
  140.1610   74.3430  217.8660 H   0  0  0  0  0  0  0  0  0  0  0  0
  141.2230   75.7290  217.4890 H   0  0  0  0  0  0  0  0  0  0  0  0
  141.1110   76.7580  220.0420 N   0  0  0  0  0  0  0  0  0  0  0  0
  141.8340   77.7700  219.2690 C   0  0  0  0  0  0  0  0  0  0  0  0
  142.3333   78.4688  219.9563 H   0  0  0  0  0  0  0  0  0  0  0  0
  142.5867   77.2786  218.6350 H   0  0  0  0  0  0  0  0  0  0  0  0
  141.1251   78.3228  218.6350 H   0  0  0  0  0  0  0  0  0  0  0  0
  140.7360   76.8750  221.3160 N   0  0  0  0  0  0  0  0  0  0  0  0
  140.9330   78.0280  222.1540 C   0  0  0  0  0  0  0  0  0  0  0  0
  139.8820   78.5260  222.9400 C   0  0  0  0  0  0  0  0  0  0  0  0
  138.8958   78.0399  222.9078 H   0  0  0  0  0  0  0  0  0  0  0  0
  140.0840   79.6380  223.7640 C   0  0  0  0  0  0  0  0  0  0  0  0
  139.2555   80.0294  224.3726 H   0  0  0  0  0  0  0  0  0  0  0  0
  141.3390   80.2520  223.8140 C   0  0  0  0  0  0  0  0  0  0  0  0
  141.4964   81.1284  224.4598 H   0  0  0  0  0  0  0  0  0  0  0  0
  142.3930   79.7540  223.0450 C   0  0  0  0  0  0  0  0  0  0  0  0
  143.3808   80.2360  223.0890 H   0  0  0  0  0  0  0  0  0  0  0  0
  142.1940   78.6430  222.2190 C   0  0  0  0  0  0  0  0  0  0  0  0
  143.0275   78.2498  221.6185 H   0  0  0  0  0  0  0  0  0  0  0  0
  140.0740   75.7520  221.6680 C   0  0  0  0  0  0  0  0  0  0  0  0
  139.5420   75.5570  222.7930 O   0  0  0  0  0  0  0  0  0  0  0  0
  139.7270   72.5340  222.5540 N   0  0  0  0  0  0  0  0  0  0  0  0
  139.6420   73.3590  223.1860 H   0  0  0  0  0  0  0  0  0  0  0  0
  139.9570   71.2650  222.9970 C   0  0  0  0  0  0  0  0  0  0  0  0
  140.1930   70.9530  224.4280 C   0  0  0  0  0  0  0  0  0  0  0  0
  140.7570   71.9200  225.2800 C   0  0  0  0  0  0  0  0  0  0  0  0
  141.0229   72.9106  224.8825 H   0  0  0  0  0  0  0  0  0  0  0  0
  140.9810   71.6300  226.6260 C   0  0  0  0  0  0  0  0  0  0  0  0
  141.4222   72.3930  227.2842 H   0  0  0  0  0  0  0  0  0  0  0  0
  140.6480   70.3760  227.1420 C   0  0  0  0  0  0  0  0  0  0  0  0
  140.8275   70.1571  228.2049 H   0  0  0  0  0  0  0  0  0  0  0  0
  140.0850   69.3920  226.3120 C   0  0  0  0  0  0  0  0  0  0  0  0
  139.7380   68.0980  226.8400 N   0  0  0  0  0  0  0  0  0  0  0  0
  139.9650   67.8160  228.0350 O   0  0  0  0  0  0  0  0  0  0  0  0
  139.1500   67.1490  226.0360 O   0  0  0  0  0  0  0  0  0  0  0  0
  139.8620   69.6900  224.9550 C   0  0  0  0  0  0  0  0  0  0  0  0
  139.4230   68.9257  224.2968 H   0  0  0  0  0  0  0  0  0  0  0  0
  1  2  1  0
  2  3  1  0
  3  4  1  0
  4  5  2  0
  5  6  1  0
  6  7  2  0
  7  8  1  0
  8  9  1  0
  8 10  1  0
  7 11  1  0
 11 12  1  0
 12 13  1  0
 12 14  1  0
 12 15  1  0
 11 16  1  0
 16 17  1  0
 17 18  2  0
 18 19  1  0
 18 20  1  0
 20 21  1  0
 20 22  2  0
 22 23  1  0
 22 24  1  0
 24 25  1  0
 24 26  2  0
 26 27  1  0
 16 28  1  0
 28 29  2  0
  4 30  1  0
 30 31  1  0
 30 32  1  0
 32 33  1  0
 33 34  2  0
 34 35  1  0
 34 36  1  0
 36 37  1  0
 36 38  2  0
 38 39  1  0
 38 40  1  0
 40 41  1  0
 41 42  2  0
 41 43  1  0
 40 44  2  0
 44 45  1  0
 32  2  2  0
 44 33  1  0
 28  6  1  0
 26 17  1  0
M  CHG  2  41   1  43  -1
M  END
>  <UniqueID>  (74) 
30

>  <SMILES>  (74) 
Cn1c(N)c(/N=c2\[nH]c(-c3cccc([N+](=O)[O-])c3)cs2)c(=O)n1-c1ccccc1

>  <Energy>  (74) 
132.82359016973697

>  <Genealogy>  (74) 
Cn1c(N)c(/N=c2\[nH]c(-c3cccc([N+](=O)[O-])c3)cs2)c(=O)n1-c1ccccc1 (cis-trans isomerization)
Cn1c(N)c(/N=c2\[nH]c(-c3cccc([N+](=O)[O-])c3)cs2)c(=O)n1-c1ccccc1 (3D coordinates assigned)
Cn1c(N)c(/N=c2\[nH]c(-c3cccc([N+](=O)[O-])c3)cs2)c(=O)n1-c1ccccc1 (optimized conformer: 132.82359016973697 kcal/mol)

>  <smiles>  (74) 
Cn1c(N)c(N=c2[nH]c(-c3cccc([N+](=O)[O-])c3)cs2)c(=O)n1-c1ccccc1

>  <score_type>  (74) 
oracle

>  <origin>  (74) 
autodockgpu

>  <m_score__min__energy>  (74) 
-8.5800000000000001

>  <m_primary>  (74) 
energy

>  <meeko>  (74) 
{"free_energy": -7.94, "intermolecular_energy": -9.73, "internal_energy": -1.7, "cluster_size": 5, "cluster_id": 3, "rank_in_cluster": 1}

>  <energy>  (74) 
-8.47

>  <cluster_rmsd>  (74) 
0.09

>  <rmsd>  (74) 
271.29

>  <cluster>  (74) 
2

$$$$
XUIJDXCNGWSLDF-JVGCEYTDNA-N
     RDKit          3D

 45 48  0  0  0  0  0  0  0  0999 V2000
  140.1198   69.2119  222.1368 H   0  0  0  0  0  0  0  0  0  0  0  0
  139.9540   70.2900  221.9950 C   0  0  0  0  0  0  0  0  0  0  0  0
  139.6460   71.0550  220.5270 S   0  0  0  0  0  0  0  0  0  0  0  0
  139.5460   72.5780  221.2210 C   0  0  0  0  0  0  0  0  0  0  0  0
  139.2780   73.6570  220.5460 N   0  0  0  0  0  0  0  0  0  0  0  0
  140.0170   74.8820  220.6160 C   0  0  0  0  0  0  0  0  0  0  0  0
  140.6150   75.5880  219.5820 C   0  0  0  0  0  0  0  0  0  0  0  0
  140.6170   75.2170  218.2000 N   0  0  0  0  0  0  0  0  0  0  0  0
  141.2270   75.7120  217.5150 H   0  0  0  0  0  0  0  0  0  0  0  0
  140.0610   74.4030  217.8600 H   0  0  0  0  0  0  0  0  0  0  0  0
  141.0600   76.7760  220.0610 N   0  0  0  0  0  0  0  0  0  0  0  0
  141.7540   77.8080  219.2870 C   0  0  0  0  0  0  0  0  0  0  0  0
  142.2335   78.5210  219.9738 H   0  0  0  0  0  0  0  0  0  0  0  0
  142.5201   77.3378  218.6530 H   0  0  0  0  0  0  0  0  0  0  0  0
  141.0295   78.3402  218.6530 H   0  0  0  0  0  0  0  0  0  0  0  0
  140.7200   76.8670  221.3470 N   0  0  0  0  0  0  0  0  0  0  0  0
  140.9320   78.0050  222.2000 C   0  0  0  0  0  0  0  0  0  0  0  0
  142.1770   78.6550  222.2250 C   0  0  0  0  0  0  0  0  0  0  0  0
  143.0013   78.2850  221.5976 H   0  0  0  0  0  0  0  0  0  0  0  0
  142.3720   79.7710  223.0450 C   0  0  0  0  0  0  0  0  0  0  0  0
  143.3506   80.2729  223.0664 H   0  0  0  0  0  0  0  0  0  0  0  0
  141.3250   80.2490  223.8370 C   0  0  0  0  0  0  0  0  0  0  0  0
  141.4809   81.1254  224.4833 H   0  0  0  0  0  0  0  0  0  0  0  0
  140.0800   79.6150  223.8090 C   0  0  0  0  0  0  0  0  0  0  0  0
  139.2560   79.9939  224.4315 H   0  0  0  0  0  0  0  0  0  0  0  0
  139.8810   78.4990  222.9900 C   0  0  0  0  0  0  0  0  0  0  0  0
  138.8978   78.0063  222.9644 H   0  0  0  0  0  0  0  0  0  0  0  0
  140.0770   75.7320  221.6960 C   0  0  0  0  0  0  0  0  0  0  0  0
  139.5780   75.5120  222.8320 O   0  0  0  0  0  0  0  0  0  0  0  0
  139.7260   72.5290  222.5620 N   0  0  0  0  0  0  0  0  0  0  0  0
  139.6410   73.3530  223.1960 H   0  0  0  0  0  0  0  0  0  0  0  0
  139.9630   71.2600  223.0040 C   0  0  0  0  0  0  0  0  0  0  0  0
  140.2060   70.9480  224.4330 C   0  0  0  0  0  0  0  0  0  0  0  0
  140.7760   71.9130  225.2820 C   0  0  0  0  0  0  0  0  0  0  0  0
  141.0423   72.9029  224.8831 H   0  0  0  0  0  0  0  0  0  0  0  0
  141.0060   71.6230  226.6270 C   0  0  0  0  0  0  0  0  0  0  0  0
  141.4506   72.3860  227.2828 H   0  0  0  0  0  0  0  0  0  0  0  0
  140.6750   70.3700  227.1450 C   0  0  0  0  0  0  0  0  0  0  0  0
  140.8611   70.1504  228.2067 H   0  0  0  0  0  0  0  0  0  0  0  0
  140.1050   69.3870  226.3170 C   0  0  0  0  0  0  0  0  0  0  0  0
  139.7590   68.0930  226.8470 N   0  0  0  0  0  0  0  0  0  0  0  0
  139.9970   67.8100  228.0390 O   0  0  0  0  0  0  0  0  0  0  0  0
  139.1600   67.1470  226.0470 O   0  0  0  0  0  0  0  0  0  0  0  0
  139.8750   69.6860  224.9620 C   0  0  0  0  0  0  0  0  0  0  0  0
  139.4302   68.9230  224.3063 H   0  0  0  0  0  0  0  0  0  0  0  0
  1  2  1  0
  2  3  1  0
  3  4  1  0
  4  5  2  0
  5  6  1  0
  6  7  2  0
  7  8  1  0
  8  9  1  0
  8 10  1  0
  7 11  1  0
 11 12  1  0
 12 13  1  0
 12 14  1  0
 12 15  1  0
 11 16  1  0
 16 17  1  0
 17 18  2  0
 18 19  1  0
 18 20  1  0
 20 21  1  0
 20 22  2  0
 22 23  1  0
 22 24  1  0
 24 25  1  0
 24 26  2  0
 26 27  1  0
 16 28  1  0
 28 29  2  0
  4 30  1  0
 30 31  1  0
 30 32  1  0
 32 33  1  0
 33 34  2  0
 34 35  1  0
 34 36  1  0
 36 37  1  0
 36 38  2  0
 38 39  1  0
 38 40  1  0
 40 41  1  0
 41 42  2  0
 41 43  1  0
 40 44  2  0
 44 45  1  0
 32  2  2  0
 44 33  1  0
 28  6  1  0
 26 17  1  0
M  CHG  2  41   1  43  -1
M  END
>  <UniqueID>  (75) 
30

>  <SMILES>  (75) 
Cn1c(N)c(/N=c2\[nH]c(-c3cccc([N+](=O)[O-])c3)cs2)c(=O)n1-c1ccccc1

>  <Energy>  (75) 
132.82359016973697

>  <Genealogy>  (75) 
Cn1c(N)c(/N=c2\[nH]c(-c3cccc([N+](=O)[O-])c3)cs2)c(=O)n1-c1ccccc1 (cis-trans isomerization)
Cn1c(N)c(/N=c2\[nH]c(-c3cccc([N+](=O)[O-])c3)cs2)c(=O)n1-c1ccccc1 (3D coordinates assigned)
Cn1c(N)c(/N=c2\[nH]c(-c3cccc([N+](=O)[O-])c3)cs2)c(=O)n1-c1ccccc1 (optimized conformer: 132.82359016973697 kcal/mol)

>  <smiles>  (75) 
Cn1c(N)c(N=c2[nH]c(-c3cccc([N+](=O)[O-])c3)cs2)c(=O)n1-c1ccccc1

>  <score_type>  (75) 
oracle

>  <origin>  (75) 
autodockgpu

>  <m_score__min__energy>  (75) 
-8.5800000000000001

>  <m_primary>  (75) 
energy

>  <meeko>  (75) 
{"free_energy": -7.92, "intermolecular_energy": -9.71, "internal_energy": -1.75, "cluster_size": 5, "cluster_id": 3, "rank_in_cluster": 3}

>  <energy>  (75) 
-8.46

>  <cluster_rmsd>  (75) 
0.11

>  <rmsd>  (75) 
271.28

>  <cluster>  (75) 
2

$$$$
XUIJDXCNGWSLDF-JVGCEYTDNA-N
     RDKit          3D

 45 48  0  0  0  0  0  0  0  0999 V2000
  142.4335   75.9248  220.9911 H   0  0  0  0  0  0  0  0  0  0  0  0
  141.5830   75.2790  221.2550 C   0  0  0  0  0  0  0  0  0  0  0  0
  141.4300   73.6450  220.8760 S   0  0  0  0  0  0  0  0  0  0  0  0
  139.9300   73.5060  221.6100 C   0  0  0  0  0  0  0  0  0  0  0  0
  139.2660   72.3900  221.6760 N   0  0  0  0  0  0  0  0  0  0  0  0
  138.9620   71.6770  222.8810 C   0  0  0  0  0  0  0  0  0  0  0  0
  137.8480   70.9020  223.1660 C   0  0  0  0  0  0  0  0  0  0  0  0
  136.7440   70.6600  222.2880 N   0  0  0  0  0  0  0  0  0  0  0  0
  135.8870   70.1730  222.6290 H   0  0  0  0  0  0  0  0  0  0  0  0
  136.7440   71.0210  221.3100 H   0  0  0  0  0  0  0  0  0  0  0  0
  138.0410   70.2720  224.3510 N   0  0  0  0  0  0  0  0  0  0  0  0
  137.0960   69.3660  225.0070 C   0  0  0  0  0  0  0  0  0  0  0  0
  137.1947   69.4607  226.0985 H   0  0  0  0  0  0  0  0  0  0  0  0
  136.0701   69.6267  224.7077 H   0  0  0  0  0  0  0  0  0  0  0  0
  137.3132   68.3300  224.7077 H   0  0  0  0  0  0  0  0  0  0  0  0
  139.2580   70.5820  224.7990 N   0  0  0  0  0  0  0  0  0  0  0  0
  139.8840   70.0550  225.9830 C   0  0  0  0  0  0  0  0  0  0  0  0
  140.3350   70.9180  226.9950 C   0  0  0  0  0  0  0  0  0  0  0  0
  140.2209   72.0059  226.8792 H   0  0  0  0  0  0  0  0  0  0  0  0
  140.9290   70.3980  228.1500 C   0  0  0  0  0  0  0  0  0  0  0  0
  141.2876   71.0774  228.9373 H   0  0  0  0  0  0  0  0  0  0  0  0
  141.0670   69.0160  228.3040 C   0  0  0  0  0  0  0  0  0  0  0  0
  141.5372   68.6088  229.2113 H   0  0  0  0  0  0  0  0  0  0  0  0
  140.6090   68.1510  227.3080 C   0  0  0  0  0  0  0  0  0  0  0  0
  140.7153   67.0633  227.4331 H   0  0  0  0  0  0  0  0  0  0  0  0
  140.0150   68.6670  226.1510 C   0  0  0  0  0  0  0  0  0  0  0  0
  139.6495   67.9833  225.3706 H   0  0  0  0  0  0  0  0  0  0  0  0
  139.8340   71.4230  223.9140 C   0  0  0  0  0  0  0  0  0  0  0  0
  141.0080   71.8710  224.0110 O   0  0  0  0  0  0  0  0  0  0  0  0
  139.5340   74.6770  222.1620 N   0  0  0  0  0  0  0  0  0  0  0  0
  138.6620   74.7960  222.7220 H   0  0  0  0  0  0  0  0  0  0  0  0
  140.4430   75.6740  221.9630 C   0  0  0  0  0  0  0  0  0  0  0  0
  140.2300   77.0550  222.4610 C   0  0  0  0  0  0  0  0  0  0  0  0
  138.9280   77.5280  222.7030 C   0  0  0  0  0  0  0  0  0  0  0  0
  138.0651   76.8700  222.5231 H   0  0  0  0  0  0  0  0  0  0  0  0
  138.7240   78.8270  223.1700 C   0  0  0  0  0  0  0  0  0  0  0  0
  137.7015   79.1873  223.3561 H   0  0  0  0  0  0  0  0  0  0  0  0
  139.8100   79.6710  223.4020 C   0  0  0  0  0  0  0  0  0  0  0  0
  139.6388   80.6929  223.7712 H   0  0  0  0  0  0  0  0  0  0  0  0
  141.1220   79.2240  223.1670 C   0  0  0  0  0  0  0  0  0  0  0  0
  142.2470   80.0900  223.4070 N   0  0  0  0  0  0  0  0  0  0  0  0
  143.3650   79.8320  222.9160 O   0  0  0  0  0  0  0  0  0  0  0  0
  142.1080   81.2170  224.1840 O   0  0  0  0  0  0  0  0  0  0  0  0
  141.3210   77.9130  222.6950 C   0  0  0  0  0  0  0  0  0  0  0  0
  142.3435   77.5539  222.5064 H   0  0  0  0  0  0  0  0  0  0  0  0
  1  2  1  0
  2  3  1  0
  3  4  1  0
  4  5  2  0
  5  6  1  0
  6  7  2  0
  7  8  1  0
  8  9  1  0
  8 10  1  0
  7 11  1  0
 11 12  1  0
 12 13  1  0
 12 14  1  0
 12 15  1  0
 11 16  1  0
 16 17  1  0
 17 18  2  0
 18 19  1  0
 18 20  1  0
 20 21  1  0
 20 22  2  0
 22 23  1  0
 22 24  1  0
 24 25  1  0
 24 26  2  0
 26 27  1  0
 16 28  1  0
 28 29  2  0
  4 30  1  0
 30 31  1  0
 30 32  1  0
 32 33  1  0
 33 34  2  0
 34 35  1  0
 34 36  1  0
 36 37  1  0
 36 38  2  0
 38 39  1  0
 38 40  1  0
 40 41  1  0
 41 42  2  0
 41 43  1  0
 40 44  2  0
 44 45  1  0
 32  2  2  0
 44 33  1  0
 28  6  1  0
 26 17  1  0
M  CHG  2  41   1  43  -1
M  END
>  <UniqueID>  (76) 
30

>  <SMILES>  (76) 
Cn1c(N)c(/N=c2\[nH]c(-c3cccc([N+](=O)[O-])c3)cs2)c(=O)n1-c1ccccc1

>  <Energy>  (76) 
132.82359016973697

>  <Genealogy>  (76) 
Cn1c(N)c(/N=c2\[nH]c(-c3cccc([N+](=O)[O-])c3)cs2)c(=O)n1-c1ccccc1 (cis-trans isomerization)
Cn1c(N)c(/N=c2\[nH]c(-c3cccc([N+](=O)[O-])c3)cs2)c(=O)n1-c1ccccc1 (3D coordinates assigned)
Cn1c(N)c(/N=c2\[nH]c(-c3cccc([N+](=O)[O-])c3)cs2)c(=O)n1-c1ccccc1 (optimized conformer: 132.82359016973697 kcal/mol)

>  <smiles>  (76) 
Cn1c(N)c(N=c2[nH]c(-c3cccc([N+](=O)[O-])c3)cs2)c(=O)n1-c1ccccc1

>  <score_type>  (76) 
oracle

>  <origin>  (76) 
autodockgpu

>  <m_score__min__energy>  (76) 
-8.5800000000000001

>  <m_primary>  (76) 
energy

>  <meeko>  (76) 
{"free_energy": -8.48, "intermolecular_energy": -10.27, "internal_energy": -1.21, "cluster_size": 9, "cluster_id": 2, "rank_in_cluster": 6}

>  <energy>  (76) 
-7.94

>  <cluster_rmsd>  (76) 
0.0

>  <rmsd>  (76) 
270.85

>  <cluster>  (76) 
3

$$$$
XUIJDXCNGWSLDF-JVGCEYTDNA-N
     RDKit          3D

 45 48  0  0  0  0  0  0  0  0999 V2000
  139.7277   69.0850  222.5950 H   0  0  0  0  0  0  0  0  0  0  0  0
  139.8010   70.1630  222.3890 C   0  0  0  0  0  0  0  0  0  0  0  0
  139.6530   70.8900  220.8770 S   0  0  0  0  0  0  0  0  0  0  0  0
  139.8980   72.4350  221.4790 C   0  0  0  0  0  0  0  0  0  0  0  0
  139.8660   73.5050  220.7410 N   0  0  0  0  0  0  0  0  0  0  0  0
  139.6570   74.8380  221.2240 C   0  0  0  0  0  0  0  0  0  0  0  0
  138.5620   75.3430  221.9100 C   0  0  0  0  0  0  0  0  0  0  0  0
  137.3860   74.6120  222.2750 N   0  0  0  0  0  0  0  0  0  0  0  0
  136.5330   74.6390  221.6760 H   0  0  0  0  0  0  0  0  0  0  0  0
  137.3780   73.9860  223.1080 H   0  0  0  0  0  0  0  0  0  0  0  0
  138.8470   76.6010  222.3280 N   0  0  0  0  0  0  0  0  0  0  0  0
  137.9500   77.4800  223.0820 C   0  0  0  0  0  0  0  0  0  0  0  0
  138.1067   77.3264  224.1599 H   0  0  0  0  0  0  0  0  0  0  0  0
  138.1634   78.5283  222.8262 H   0  0  0  0  0  0  0  0  0  0  0  0
  136.9062   77.2454  222.8262 H   0  0  0  0  0  0  0  0  0  0  0  0
  140.1000   76.8890  221.9750 N   0  0  0  0  0  0  0  0  0  0  0  0
  140.8170   78.0920  222.3020 C   0  0  0  0  0  0  0  0  0  0  0  0
  140.8140   79.1860  221.4210 C   0  0  0  0  0  0  0  0  0  0  0  0
  140.2706   79.1196  220.4669 H   0  0  0  0  0  0  0  0  0  0  0  0
  141.4990   80.3590  221.7520 C   0  0  0  0  0  0  0  0  0  0  0  0
  141.4992   81.2106  221.0558 H   0  0  0  0  0  0  0  0  0  0  0  0
  142.1840   80.4500  222.9680 C   0  0  0  0  0  0  0  0  0  0  0  0
  142.7256   81.3720  223.2260 H   0  0  0  0  0  0  0  0  0  0  0  0
  142.1810   79.3710  223.8550 C   0  0  0  0  0  0  0  0  0  0  0  0
  142.7177   79.4452  224.8123 H   0  0  0  0  0  0  0  0  0  0  0  0
  141.4960   78.1960  223.5270 C   0  0  0  0  0  0  0  0  0  0  0  0
  141.4892   77.3508  224.2309 H   0  0  0  0  0  0  0  0  0  0  0  0
  140.6090   75.8260  221.3160 C   0  0  0  0  0  0  0  0  0  0  0  0
  141.7910   75.7490  220.8860 O   0  0  0  0  0  0  0  0  0  0  0  0
  140.0760   72.4260  222.8220 N   0  0  0  0  0  0  0  0  0  0  0  0
  140.1810   73.2840  223.4050 H   0  0  0  0  0  0  0  0  0  0  0  0
  140.0330   71.1640  223.3380 C   0  0  0  0  0  0  0  0  0  0  0  0
  140.2170   70.8900  224.7840 C   0  0  0  0  0  0  0  0  0  0  0  0
  140.7110   71.8920  225.6380 C   0  0  0  0  0  0  0  0  0  0  0  0
  140.9618   72.8826  225.2309 H   0  0  0  0  0  0  0  0  0  0  0  0
  140.8850   71.6370  226.9990 C   0  0  0  0  0  0  0  0  0  0  0  0
  141.2711   72.4280  227.6588 H   0  0  0  0  0  0  0  0  0  0  0  0
  140.5720   70.3850  227.5270 C   0  0  0  0  0  0  0  0  0  0  0  0
  140.7134   70.1942  228.6011 H   0  0  0  0  0  0  0  0  0  0  0  0
  140.0770   69.3650  226.6960 C   0  0  0  0  0  0  0  0  0  0  0  0
  139.7500   68.0710  227.2370 N   0  0  0  0  0  0  0  0  0  0  0  0
  140.0220   67.7890  228.4210 O   0  0  0  0  0  0  0  0  0  0  0  0
  139.1310   67.1230  226.4550 O   0  0  0  0  0  0  0  0  0  0  0  0
  139.9040   69.6280  225.3240 C   0  0  0  0  0  0  0  0  0  0  0  0
  139.5189   68.8364  224.6645 H   0  0  0  0  0  0  0  0  0  0  0  0
  1  2  1  0
  2  3  1  0
  3  4  1  0
  4  5  2  0
  5  6  1  0
  6  7  2  0
  7  8  1  0
  8  9  1  0
  8 10  1  0
  7 11  1  0
 11 12  1  0
 12 13  1  0
 12 14  1  0
 12 15  1  0
 11 16  1  0
 16 17  1  0
 17 18  2  0
 18 19  1  0
 18 20  1  0
 20 21  1  0
 20 22  2  0
 22 23  1  0
 22 24  1  0
 24 25  1  0
 24 26  2  0
 26 27  1  0
 16 28  1  0
 28 29  2  0
  4 30  1  0
 30 31  1  0
 30 32  1  0
 32 33  1  0
 33 34  2  0
 34 35  1  0
 34 36  1  0
 36 37  1  0
 36 38  2  0
 38 39  1  0
 38 40  1  0
 40 41  1  0
 41 42  2  0
 41 43  1  0
 40 44  2  0
 44 45  1  0
 32  2  2  0
 44 33  1  0
 28  6  1  0
 26 17  1  0
M  CHG  2  41   1  43  -1
M  END
>  <UniqueID>  (77) 
30

>  <SMILES>  (77) 
Cn1c(N)c(/N=c2\[nH]c(-c3cccc([N+](=O)[O-])c3)cs2)c(=O)n1-c1ccccc1

>  <Energy>  (77) 
132.82359016973697

>  <Genealogy>  (77) 
Cn1c(N)c(/N=c2\[nH]c(-c3cccc([N+](=O)[O-])c3)cs2)c(=O)n1-c1ccccc1 (cis-trans isomerization)
Cn1c(N)c(/N=c2\[nH]c(-c3cccc([N+](=O)[O-])c3)cs2)c(=O)n1-c1ccccc1 (3D coordinates assigned)
Cn1c(N)c(/N=c2\[nH]c(-c3cccc([N+](=O)[O-])c3)cs2)c(=O)n1-c1ccccc1 (optimized conformer: 132.82359016973697 kcal/mol)

>  <smiles>  (77) 
Cn1c(N)c(N=c2[nH]c(-c3cccc([N+](=O)[O-])c3)cs2)c(=O)n1-c1ccccc1

>  <score_type>  (77) 
oracle

>  <origin>  (77) 
autodockgpu

>  <m_score__min__energy>  (77) 
-8.5800000000000001

>  <m_primary>  (77) 
energy

>  <meeko>  (77) 
{"free_energy": -8.41, "intermolecular_energy": -10.2, "internal_energy": -1.24, "cluster_size": 6, "cluster_id": 1, "rank_in_cluster": 5}

>  <energy>  (77) 
-7.92

>  <cluster_rmsd>  (77) 
0.12

>  <rmsd>  (77) 
270.78

>  <cluster>  (77) 
3

$$$$
XUIJDXCNGWSLDF-JVGCEYTDNA-N
     RDKit          3D

 45 48  0  0  0  0  0  0  0  0999 V2000
  142.4115   76.1072  220.9447 H   0  0  0  0  0  0  0  0  0  0  0  0
  141.5810   75.4380  221.2140 C   0  0  0  0  0  0  0  0  0  0  0  0
  141.4560   73.8090  220.8080 S   0  0  0  0  0  0  0  0  0  0  0  0
  139.9750   73.6230  221.5700 C   0  0  0  0  0  0  0  0  0  0  0  0
  139.3370   72.4910  221.6290 N   0  0  0  0  0  0  0  0  0  0  0  0
  139.0080   71.7890  222.8340 C   0  0  0  0  0  0  0  0  0  0  0  0
  137.8560   71.0740  223.1280 C   0  0  0  0  0  0  0  0  0  0  0  0
  136.7300   70.8980  222.2600 N   0  0  0  0  0  0  0  0  0  0  0  0
  136.6870   71.3820  221.3370 H   0  0  0  0  0  0  0  0  0  0  0  0
  135.9630   70.2340  222.5000 H   0  0  0  0  0  0  0  0  0  0  0  0
  138.0280   70.4260  224.3060 N   0  0  0  0  0  0  0  0  0  0  0  0
  137.0410   69.5690  224.9670 C   0  0  0  0  0  0  0  0  0  0  0  0
  137.1473   69.6613  226.0579 H   0  0  0  0  0  0  0  0  0  0  0  0
  136.0284   69.8792  224.6697 H   0  0  0  0  0  0  0  0  0  0  0  0
  137.2061   68.5229  224.6697 H   0  0  0  0  0  0  0  0  0  0  0  0
  139.2650   70.6660  224.7420 N   0  0  0  0  0  0  0  0  0  0  0  0
  139.8740   70.0970  225.9140 C   0  0  0  0  0  0  0  0  0  0  0  0
  140.3510   70.9250  226.9430 C   0  0  0  0  0  0  0  0  0  0  0  0
  140.2703   72.0180  226.8484 H   0  0  0  0  0  0  0  0  0  0  0  0
  140.9280   70.3660  228.0870 C   0  0  0  0  0  0  0  0  0  0  0  0
  141.3067   71.0192  228.8869 H   0  0  0  0  0  0  0  0  0  0  0  0
  141.0240   68.9770  228.2150 C   0  0  0  0  0  0  0  0  0  0  0  0
  141.4811   68.5383  229.1142 H   0  0  0  0  0  0  0  0  0  0  0  0
  140.5400   68.1460  227.2020 C   0  0  0  0  0  0  0  0  0  0  0  0
  140.6125   67.0533  227.3061 H   0  0  0  0  0  0  0  0  0  0  0  0
  139.9630   68.7020  226.0550 C   0  0  0  0  0  0  0  0  0  0  0  0
  139.5779   68.0449  225.2613 H   0  0  0  0  0  0  0  0  0  0  0  0
  139.8760   71.4800  223.8550 C   0  0  0  0  0  0  0  0  0  0  0  0
  141.0740   71.8620  223.9410 O   0  0  0  0  0  0  0  0  0  0  0  0
  139.5640   74.7750  222.1520 N   0  0  0  0  0  0  0  0  0  0  0  0
  138.7020   74.8640  222.7320 H   0  0  0  0  0  0  0  0  0  0  0  0
  140.4470   75.7950  221.9530 C   0  0  0  0  0  0  0  0  0  0  0  0
  140.2150   77.1620  222.4800 C   0  0  0  0  0  0  0  0  0  0  0  0
  138.9060   77.6130  222.7260 C   0  0  0  0  0  0  0  0  0  0  0  0
  138.0524   76.9483  222.5271 H   0  0  0  0  0  0  0  0  0  0  0  0
  138.6830   78.8990  223.2210 C   0  0  0  0  0  0  0  0  0  0  0  0
  137.6552   79.2423  223.4101 H   0  0  0  0  0  0  0  0  0  0  0  0
  139.7580   79.7510  223.4770 C   0  0  0  0  0  0  0  0  0  0  0  0
  139.5727   80.7625  223.8676 H   0  0  0  0  0  0  0  0  0  0  0  0
  141.0760   79.3250  223.2390 C   0  0  0  0  0  0  0  0  0  0  0  0
  142.1890   80.2000  223.5040 N   0  0  0  0  0  0  0  0  0  0  0  0
  142.0480   81.2070  224.2290 O   0  0  0  0  0  0  0  0  0  0  0  0
  143.4270   79.9420  222.9620 O   0  0  0  0  0  0  0  0  0  0  0  0
  141.2940   78.0280  222.7390 C   0  0  0  0  0  0  0  0  0  0  0  0
  142.3219   77.6860  222.5479 H   0  0  0  0  0  0  0  0  0  0  0  0
  1  2  1  0
  2  3  1  0
  3  4  1  0
  4  5  2  0
  5  6  1  0
  6  7  2  0
  7  8  1  0
  8  9  1  0
  8 10  1  0
  7 11  1  0
 11 12  1  0
 12 13  1  0
 12 14  1  0
 12 15  1  0
 11 16  1  0
 16 17  1  0
 17 18  2  0
 18 19  1  0
 18 20  1  0
 20 21  1  0
 20 22  2  0
 22 23  1  0
 22 24  1  0
 24 25  1  0
 24 26  2  0
 26 27  1  0
 16 28  1  0
 28 29  2  0
  4 30  1  0
 30 31  1  0
 30 32  1  0
 32 33  1  0
 33 34  2  0
 34 35  1  0
 34 36  1  0
 36 37  1  0
 36 38  2  0
 38 39  1  0
 38 40  1  0
 40 41  1  0
 41 42  2  0
 41 43  1  0
 40 44  2  0
 44 45  1  0
 32  2  2  0
 44 33  1  0
 28  6  1  0
 26 17  1  0
M  CHG  2  41   1  43  -1
M  END
>  <UniqueID>  (78) 
30

>  <SMILES>  (78) 
Cn1c(N)c(/N=c2\[nH]c(-c3cccc([N+](=O)[O-])c3)cs2)c(=O)n1-c1ccccc1

>  <Energy>  (78) 
132.82359016973697

>  <Genealogy>  (78) 
Cn1c(N)c(/N=c2\[nH]c(-c3cccc([N+](=O)[O-])c3)cs2)c(=O)n1-c1ccccc1 (cis-trans isomerization)
Cn1c(N)c(/N=c2\[nH]c(-c3cccc([N+](=O)[O-])c3)cs2)c(=O)n1-c1ccccc1 (3D coordinates assigned)
Cn1c(N)c(/N=c2\[nH]c(-c3cccc([N+](=O)[O-])c3)cs2)c(=O)n1-c1ccccc1 (optimized conformer: 132.82359016973697 kcal/mol)

>  <smiles>  (78) 
Cn1c(N)c(N=c2[nH]c(-c3cccc([N+](=O)[O-])c3)cs2)c(=O)n1-c1ccccc1

>  <score_type>  (78) 
oracle

>  <origin>  (78) 
autodockgpu

>  <m_score__min__energy>  (78) 
-8.5800000000000001

>  <m_primary>  (78) 
energy

>  <meeko>  (78) 
{"free_energy": -8.46, "intermolecular_energy": -10.25, "internal_energy": -1.21, "cluster_size": 9, "cluster_id": 2, "rank_in_cluster": 9}

>  <energy>  (78) 
-7.92

>  <cluster_rmsd>  (78) 
0.04

>  <rmsd>  (78) 
270.86

>  <cluster>  (78) 
3

$$$$
XUIJDXCNGWSLDF-JVGCEYTDNA-N
     RDKit          3D

 45 48  0  0  0  0  0  0  0  0999 V2000
  142.4235   75.9702  220.9400 H   0  0  0  0  0  0  0  0  0  0  0  0
  141.5820   75.3160  221.2120 C   0  0  0  0  0  0  0  0  0  0  0  0
  141.4350   73.6850  220.8210 S   0  0  0  0  0  0  0  0  0  0  0  0
  139.9480   73.5280  221.5780 C   0  0  0  0  0  0  0  0  0  0  0  0
  139.2920   72.4070  221.6440 N   0  0  0  0  0  0  0  0  0  0  0  0
  138.9860   71.6980  222.8510 C   0  0  0  0  0  0  0  0  0  0  0  0
  137.8710   70.9230  223.1350 C   0  0  0  0  0  0  0  0  0  0  0  0
  136.7690   70.6780  222.2540 N   0  0  0  0  0  0  0  0  0  0  0  0
  136.7670   71.0600  221.2840 H   0  0  0  0  0  0  0  0  0  0  0  0
  135.9790   70.0600  222.5380 H   0  0  0  0  0  0  0  0  0  0  0  0
  138.0620   70.2970  224.3220 N   0  0  0  0  0  0  0  0  0  0  0  0
  137.1150   69.3920  224.9780 C   0  0  0  0  0  0  0  0  0  0  0  0
  137.2137   69.4863  226.0695 H   0  0  0  0  0  0  0  0  0  0  0  0
  136.0896   69.6544  224.6785 H   0  0  0  0  0  0  0  0  0  0  0  0
  137.3306   68.3557  224.6785 H   0  0  0  0  0  0  0  0  0  0  0  0
  139.2770   70.6080  224.7720 N   0  0  0  0  0  0  0  0  0  0  0  0
  139.9000   70.0840  225.9590 C   0  0  0  0  0  0  0  0  0  0  0  0
  140.3500   70.9490  226.9690 C   0  0  0  0  0  0  0  0  0  0  0  0
  140.2374   72.0367  226.8493 H   0  0  0  0  0  0  0  0  0  0  0  0
  140.9410   70.4330  228.1270 C   0  0  0  0  0  0  0  0  0  0  0  0
  141.2980   71.1149  228.9128 H   0  0  0  0  0  0  0  0  0  0  0  0
  141.0780   69.0510  228.2860 C   0  0  0  0  0  0  0  0  0  0  0  0
  141.5461   68.6464  229.1955 H   0  0  0  0  0  0  0  0  0  0  0  0
  140.6210   68.1830  227.2910 C   0  0  0  0  0  0  0  0  0  0  0  0
  140.7259   67.0956  227.4197 H   0  0  0  0  0  0  0  0  0  0  0  0
  140.0300   68.6960  226.1310 C   0  0  0  0  0  0  0  0  0  0  0  0
  139.6662   68.0103  225.3516 H   0  0  0  0  0  0  0  0  0  0  0  0
  139.8550   71.4460  223.8860 C   0  0  0  0  0  0  0  0  0  0  0  0
  141.0290   71.8950  223.9850 O   0  0  0  0  0  0  0  0  0  0  0  0
  139.5520   74.6910  222.1470 N   0  0  0  0  0  0  0  0  0  0  0  0
  138.6880   74.7990  222.7220 H   0  0  0  0  0  0  0  0  0  0  0  0
  140.4510   75.6970  221.9420 C   0  0  0  0  0  0  0  0  0  0  0  0
  140.2360   77.0720  222.4560 C   0  0  0  0  0  0  0  0  0  0  0  0
  138.9340   77.5370  222.7110 C   0  0  0  0  0  0  0  0  0  0  0  0
  138.0726   76.8775  222.5294 H   0  0  0  0  0  0  0  0  0  0  0  0
  138.7280   78.8300  223.1930 C   0  0  0  0  0  0  0  0  0  0  0  0
  137.7054   79.1844  223.3895 H   0  0  0  0  0  0  0  0  0  0  0  0
  139.8130   79.6760  223.4270 C   0  0  0  0  0  0  0  0  0  0  0  0
  139.6406   80.6934  223.8079 H   0  0  0  0  0  0  0  0  0  0  0  0
  141.1250   79.2360  223.1790 C   0  0  0  0  0  0  0  0  0  0  0  0
  142.2480   80.1050  223.4210 N   0  0  0  0  0  0  0  0  0  0  0  0
  143.3630   79.8570  222.9180 O   0  0  0  0  0  0  0  0  0  0  0  0
  142.1110   81.2210  224.2130 O   0  0  0  0  0  0  0  0  0  0  0  0
  141.3250   77.9310  222.6920 C   0  0  0  0  0  0  0  0  0  0  0  0
  142.3474   77.5774  222.4930 H   0  0  0  0  0  0  0  0  0  0  0  0
  1  2  1  0
  2  3  1  0
  3  4  1  0
  4  5  2  0
  5  6  1  0
  6  7  2  0
  7  8  1  0
  8  9  1  0
  8 10  1  0
  7 11  1  0
 11 12  1  0
 12 13  1  0
 12 14  1  0
 12 15  1  0
 11 16  1  0
 16 17  1  0
 17 18  2  0
 18 19  1  0
 18 20  1  0
 20 21  1  0
 20 22  2  0
 22 23  1  0
 22 24  1  0
 24 25  1  0
 24 26  2  0
 26 27  1  0
 16 28  1  0
 28 29  2  0
  4 30  1  0
 30 31  1  0
 30 32  1  0
 32 33  1  0
 33 34  2  0
 34 35  1  0
 34 36  1  0
 36 37  1  0
 36 38  2  0
 38 39  1  0
 38 40  1  0
 40 41  1  0
 41 42  2  0
 41 43  1  0
 40 44  2  0
 44 45  1  0
 32  2  2  0
 44 33  1  0
 28  6  1  0
 26 17  1  0
M  CHG  2  41   1  43  -1
M  END
>  <UniqueID>  (79) 
30

>  <SMILES>  (79) 
Cn1c(N)c(/N=c2\[nH]c(-c3cccc([N+](=O)[O-])c3)cs2)c(=O)n1-c1ccccc1

>  <Energy>  (79) 
132.82359016973697

>  <Genealogy>  (79) 
Cn1c(N)c(/N=c2\[nH]c(-c3cccc([N+](=O)[O-])c3)cs2)c(=O)n1-c1ccccc1 (cis-trans isomerization)
Cn1c(N)c(/N=c2\[nH]c(-c3cccc([N+](=O)[O-])c3)cs2)c(=O)n1-c1ccccc1 (3D coordinates assigned)
Cn1c(N)c(/N=c2\[nH]c(-c3cccc([N+](=O)[O-])c3)cs2)c(=O)n1-c1ccccc1 (optimized conformer: 132.82359016973697 kcal/mol)

>  <smiles>  (79) 
Cn1c(N)c(N=c2[nH]c(-c3cccc([N+](=O)[O-])c3)cs2)c(=O)n1-c1ccccc1

>  <score_type>  (79) 
oracle

>  <origin>  (79) 
autodockgpu

>  <m_score__min__energy>  (79) 
-8.5800000000000001

>  <m_primary>  (79) 
energy

>  <meeko>  (79) 
{"free_energy": -8.5, "intermolecular_energy": -10.29, "internal_energy": -1.21, "cluster_size": 9, "cluster_id": 2, "rank_in_cluster": 2}

>  <energy>  (79) 
-7.91

>  <cluster_rmsd>  (79) 
0.12

>  <rmsd>  (79) 
270.8

>  <cluster>  (79) 
3

$$$$
XUIJDXCNGWSLDF-JVGCEYTDNA-N
     RDKit          3D

 45 48  0  0  0  0  0  0  0  0999 V2000
  142.2170   70.9742  221.9706 H   0  0  0  0  0  0  0  0  0  0  0  0
  141.4140   71.7260  221.9630 C   0  0  0  0  0  0  0  0  0  0  0  0
  141.1090   72.8310  220.7290 S   0  0  0  0  0  0  0  0  0  0  0  0
  139.8090   73.5250  221.5280 C   0  0  0  0  0  0  0  0  0  0  0  0
  139.0900   74.4860  221.0280 N   0  0  0  0  0  0  0  0  0  0  0  0
  139.1250   75.8540  221.4540 C   0  0  0  0  0  0  0  0  0  0  0  0
  138.1040   76.6080  222.0140 C   0  0  0  0  0  0  0  0  0  0  0  0
  136.7710   76.1560  222.2780 N   0  0  0  0  0  0  0  0  0  0  0  0
  136.0160   76.8330  222.5180 H   0  0  0  0  0  0  0  0  0  0  0  0
  136.5110   75.1520  222.1720 H   0  0  0  0  0  0  0  0  0  0  0  0
  138.6100   77.7960  222.4260 N   0  0  0  0  0  0  0  0  0  0  0  0
  137.8540   78.8760  223.0640 C   0  0  0  0  0  0  0  0  0  0  0  0
  137.9238   78.7763  224.1572 H   0  0  0  0  0  0  0  0  0  0  0  0
  138.2710   79.8465  222.7570 H   0  0  0  0  0  0  0  0  0  0  0  0
  136.7994   78.8164  222.7570 H   0  0  0  0  0  0  0  0  0  0  0  0
  139.9220   77.7990  222.1930 N   0  0  0  0  0  0  0  0  0  0  0  0
  140.8450   78.8400  222.5600 C   0  0  0  0  0  0  0  0  0  0  0  0
  141.1190   79.8940  221.6740 C   0  0  0  0  0  0  0  0  0  0  0  0
  140.6351   79.9194  220.6865 H   0  0  0  0  0  0  0  0  0  0  0  0
  142.0050   80.9120  222.0420 C   0  0  0  0  0  0  0  0  0  0  0  0
  142.2224   81.7319  221.3417 H   0  0  0  0  0  0  0  0  0  0  0  0
  142.6140   80.8870  223.3000 C   0  0  0  0  0  0  0  0  0  0  0  0
  143.3124   81.6866  223.5881 H   0  0  0  0  0  0  0  0  0  0  0  0
  142.3370   79.8480  224.1920 C   0  0  0  0  0  0  0  0  0  0  0  0
  142.8156   79.8311  225.1823 H   0  0  0  0  0  0  0  0  0  0  0  0
  141.4510   78.8290  223.8260 C   0  0  0  0  0  0  0  0  0  0  0  0
  141.2285   78.0162  224.5330 H   0  0  0  0  0  0  0  0  0  0  0  0
  140.2520   76.6240  221.6150 C   0  0  0  0  0  0  0  0  0  0  0  0
  141.4260   76.2820  221.3080 O   0  0  0  0  0  0  0  0  0  0  0  0
  139.5780   72.9260  222.7210 N   0  0  0  0  0  0  0  0  0  0  0  0
  138.7790   73.1590  223.3490 H   0  0  0  0  0  0  0  0  0  0  0  0
  140.4710   71.9280  222.9770 C   0  0  0  0  0  0  0  0  0  0  0  0
  140.4360   71.1300  224.2280 C   0  0  0  0  0  0  0  0  0  0  0  0
  140.9620   71.6600  225.4200 C   0  0  0  0  0  0  0  0  0  0  0  0
  141.4002   72.6689  225.4235 H   0  0  0  0  0  0  0  0  0  0  0  0
  140.9310   70.9130  226.5980 C   0  0  0  0  0  0  0  0  0  0  0  0
  141.3441   71.3361  227.5255 H   0  0  0  0  0  0  0  0  0  0  0  0
  140.3780   69.6310  226.6050 C   0  0  0  0  0  0  0  0  0  0  0  0
  140.3571   69.0501  227.5388 H   0  0  0  0  0  0  0  0  0  0  0  0
  139.8480   69.0780  225.4270 C   0  0  0  0  0  0  0  0  0  0  0  0
  139.2740   67.7570  225.4300 N   0  0  0  0  0  0  0  0  0  0  0  0
  138.8410   67.2550  226.4870 O   0  0  0  0  0  0  0  0  0  0  0  0
  139.1960   67.0260  224.2670 O   0  0  0  0  0  0  0  0  0  0  0  0
  139.8820   69.8370  224.2420 C   0  0  0  0  0  0  0  0  0  0  0  0
  139.4698   69.4133  223.3143 H   0  0  0  0  0  0  0  0  0  0  0  0
  1  2  1  0
  2  3  1  0
  3  4  1  0
  4  5  2  0
  5  6  1  0
  6  7  2  0
  7  8  1  0
  8  9  1  0
  8 10  1  0
  7 11  1  0
 11 12  1  0
 12 13  1  0
 12 14  1  0
 12 15  1  0
 11 16  1  0
 16 17  1  0
 17 18  2  0
 18 19  1  0
 18 20  1  0
 20 21  1  0
 20 22  2  0
 22 23  1  0
 22 24  1  0
 24 25  1  0
 24 26  2  0
 26 27  1  0
 16 28  1  0
 28 29  2  0
  4 30  1  0
 30 31  1  0
 30 32  1  0
 32 33  1  0
 33 34  2  0
 34 35  1  0
 34 36  1  0
 36 37  1  0
 36 38  2  0
 38 39  1  0
 38 40  1  0
 40 41  1  0
 41 42  2  0
 41 43  1  0
 40 44  2  0
 44 45  1  0
 32  2  2  0
 44 33  1  0
 28  6  1  0
 26 17  1  0
M  CHG  2  41   1  43  -1
M  END
>  <UniqueID>  (80) 
30

>  <SMILES>  (80) 
Cn1c(N)c(/N=c2\[nH]c(-c3cccc([N+](=O)[O-])c3)cs2)c(=O)n1-c1ccccc1

>  <Energy>  (80) 
132.82359016973697

>  <Genealogy>  (80) 
Cn1c(N)c(/N=c2\[nH]c(-c3cccc([N+](=O)[O-])c3)cs2)c(=O)n1-c1ccccc1 (cis-trans isomerization)
Cn1c(N)c(/N=c2\[nH]c(-c3cccc([N+](=O)[O-])c3)cs2)c(=O)n1-c1ccccc1 (3D coordinates assigned)
Cn1c(N)c(/N=c2\[nH]c(-c3cccc([N+](=O)[O-])c3)cs2)c(=O)n1-c1ccccc1 (optimized conformer: 132.82359016973697 kcal/mol)

>  <smiles>  (80) 
Cn1c(N)c(N=c2[nH]c(-c3cccc([N+](=O)[O-])c3)cs2)c(=O)n1-c1ccccc1

>  <score_type>  (80) 
oracle

>  <origin>  (80) 
autodockgpu

>  <m_score__min__energy>  (80) 
-8.5800000000000001

>  <m_primary>  (80) 
energy

>  <meeko>  (80) 
{"free_energy": -8.39, "intermolecular_energy": -10.18, "internal_energy": -1.27, "cluster_size": 6, "cluster_id": 1, "rank_in_cluster": 6}

>  <energy>  (80) 
-7.89

>  <cluster_rmsd>  (80) 
0.3

>  <rmsd>  (80) 
270.78

>  <cluster>  (80) 
3

$$$$
