VCSRFCBMABBACK-DHMKUKBTNA-M
     RDKit          3D

 59 62  0  0  0  0  0  0  0  0999 V2000
  135.5440   76.9480  222.6100 O   0  0  0  0  0  0  0  0  0  0  0  0
  136.7790   76.7220  222.4820 C   0  0  0  0  0  0  0  0  0  0  0  0
  137.2290   75.4170  222.1080 N   0  0  0  0  0  0  0  0  0  0  0  0
  136.5450   74.2180  222.5820 C   0  0  0  0  0  0  0  0  0  0  0  0
  136.8780   73.0220  221.7350 C   0  0  0  0  0  0  0  0  0  0  0  0
  135.9810   72.5000  221.0210 O   0  0  0  0  0  0  0  0  0  0  0  0
  138.1780   72.4150  221.7910 N   0  0  0  0  0  0  0  0  0  0  0  0
  138.4070   71.0480  221.3680 C   0  0  0  0  0  0  0  0  0  0  0  0
  139.7600   70.6570  221.9570 C   0  0  2  0  0  0  0  0  0  0  0  0
  139.5650   69.8800  223.1110 O   0  0  0  0  0  0  0  0  0  0  0  0
  140.4600   71.9750  222.3160 C   0  0  0  0  0  0  0  0  0  0  0  0
  139.3680   73.0520  222.3390 C   0  0  1  0  0  0  0  0  0  0  0  0
  139.7640   74.2370  221.4980 C   0  0  0  0  0  0  0  0  0  0  0  0
  140.4160   75.1850  222.0160 O   0  0  0  0  0  0  0  0  0  0  0  0
  139.3750   74.2960  220.1230 N   0  0  0  0  0  0  0  0  0  0  0  0
  140.1370   75.0190  219.1070 C   0  0  1  0  0  0  0  0  0  0  0  0
  139.6200   76.4600  219.0040 C   0  0  0  0  0  0  0  0  0  0  0  0
  138.6830   76.7230  220.0130 O   0  0  0  0  0  0  0  0  0  0  0  0
  141.6130   74.9990  219.4440 C   0  0  0  0  0  0  0  0  0  0  0  0
  142.3490   76.1970  219.4640 C   0  0  0  0  0  0  0  0  0  0  0  0
  143.7080   76.1850  219.7910 C   0  0  0  0  0  0  0  0  0  0  0  0
  144.3440   74.9810  220.1010 C   0  0  0  0  0  0  0  0  0  0  0  0
  143.6210   73.7850  220.0960 C   0  0  0  0  0  0  0  0  0  0  0  0
  144.4180   72.2730  220.4970 Cl  0  0  0  0  0  0  0  0  0  0  0  0
  142.2600   73.7920  219.7740 C   0  0  0  0  0  0  0  0  0  0  0  0
  137.7590   77.7890  222.7430 C   0  0  0  0  0  0  0  0  0  0  0  0
  137.3510   79.0760  223.1260 C   0  0  0  0  0  0  0  0  0  0  0  0
  138.3130   80.0580  223.3790 C   0  0  0  0  0  0  0  0  0  0  0  0
  139.6730   79.7460  223.2710 C   0  0  0  0  0  0  0  0  0  0  0  0
  140.6660   80.7060  223.5220 C   0  0  0  0  0  0  0  0  0  0  0  0
  142.0170   80.3570  223.4180 C   0  0  0  0  0  0  0  0  0  0  0  0
  142.9760   81.2850  223.6600 F   0  0  0  0  0  0  0  0  0  0  0  0
  142.3820   79.0520  223.0710 C   0  0  0  0  0  0  0  0  0  0  0  0
  141.3980   78.0890  222.8210 C   0  0  0  0  0  0  0  0  0  0  0  0
  140.0450   78.4330  222.9070 C   0  0  0  0  0  0  0  0  0  0  0  0
  139.0870   77.5050  222.6480 N   0  0  0  0  0  0  0  0  0  0  0  0
  138.0950   75.3380  221.5320 H   0  0  0  0  0  0  0  0  0  0  0  0
  136.8520   74.0180  223.6192 H   0  0  0  0  0  0  0  0  0  0  0  0
  135.4607   74.3927  222.5210 H   0  0  0  0  0  0  0  0  0  0  0  0
  137.6153   70.3889  221.7539 H   0  0  0  0  0  0  0  0  0  0  0  0
  138.3978   70.9542  220.2720 H   0  0  0  0  0  0  0  0  0  0  0  0
  140.3602   70.0645  221.2508 H   0  0  0  0  0  0  0  0  0  0  0  0
  138.5830   69.7780  223.2220 H   0  0  0  0  0  0  0  0  0  0  0  0
  140.9372   71.8957  223.3039 H   0  0  0  0  0  0  0  0  0  0  0  0
  141.2471   72.2202  221.5877 H   0  0  0  0  0  0  0  0  0  0  0  0
  139.1985   73.4303  223.3579 H   0  0  0  0  0  0  0  0  0  0  0  0
  140.0037   74.5253  218.1331 H   0  0  0  0  0  0  0  0  0  0  0  0
  140.4660   77.1555  219.1066 H   0  0  0  0  0  0  0  0  0  0  0  0
  139.1338   76.5925  218.0262 H   0  0  0  0  0  0  0  0  0  0  0  0
  139.0320   76.3020  220.8430 H   0  0  0  0  0  0  0  0  0  0  0  0
  141.8529   77.1483  219.2211 H   0  0  0  0  0  0  0  0  0  0  0  0
  144.2777   77.1259  219.8042 H   0  0  0  0  0  0  0  0  0  0  0  0
  145.4155   74.9740  220.3495 H   0  0  0  0  0  0  0  0  0  0  0  0
  141.6918   72.8501  219.7785 H   0  0  0  0  0  0  0  0  0  0  0  0
  136.2810   79.3105  223.2265 H   0  0  0  0  0  0  0  0  0  0  0  0
  138.0017   81.0742  223.6625 H   0  0  0  0  0  0  0  0  0  0  0  0
  140.3823   81.7317  223.8002 H   0  0  0  0  0  0  0  0  0  0  0  0
  143.4456   78.7820  222.9944 H   0  0  0  0  0  0  0  0  0  0  0  0
  141.6885   77.0615  222.5568 H   0  0  0  0  0  0  0  0  0  0  0  0
  1  2  2  0
  2  3  1  0
  3  4  1  0
  4  5  1  0
  5  6  2  0
  5  7  1  0
  7  8  1  0
  8  9  1  0
  9 10  1  0
  9 11  1  0
 11 12  1  0
 12 13  1  0
 13 14  2  0
 13 15  1  0
 15 16  1  0
 16 17  1  0
 17 18  1  0
 16 19  1  0
 19 20  2  0
 20 21  1  0
 21 22  2  0
 22 23  1  0
 23 24  1  0
 23 25  2  0
  2 26  1  0
 26 27  2  0
 27 28  1  0
 28 29  2  0
 29 30  1  0
 30 31  2  0
 31 32  1  0
 31 33  1  0
 33 34  2  0
 34 35  1  0
 35 36  2  0
 12  7  1  0
 25 19  1  0
 36 26  1  0
 35 29  1  0
  3 37  1  0
  4 38  1  0
  4 39  1  0
  8 40  1  0
  8 41  1  0
  9 42  1  6
 10 43  1  0
 11 44  1  0
 11 45  1  0
 12 46  1  1
 16 47  1  6
 17 48  1  0
 17 49  1  0
 18 50  1  0
 20 51  1  0
 21 52  1  0
 22 53  1  0
 25 54  1  0
 27 55  1  0
 28 56  1  0
 30 57  1  0
 33 58  1  0
 34 59  1  0
M  CHG  1  15  -1
M  END
>  <UniqueID>  (1) 
153

>  <SMILES>  (1) 
O=C(NCC(=O)N1C[C@H](O)C[C@H]1C(=O)[N-][C@@H](CO)c1cccc(Cl)c1)c1ccc2cc(F)ccc2n1

>  <Energy>  (1) 
60.99469250768789

>  <Genealogy>  (1) 
O=C(NCC(=O)N1C[C@H](O)C[C@H]1C(=O)[N-][C@@H](CO)c1cccc(Cl)c1)c1ccc2cc(F)ccc2n1 (protonated)
O=C(NCC(=O)N1C[C@H](O)C[C@H]1C(=O)[N-][C@@H](CO)c1cccc(Cl)c1)c1ccc2cc(F)ccc2n1 (3D coordinates assigned)
O=C(NCC(=O)N1C[C@H](O)C[C@H]1C(=O)[N-][C@@H](CO)c1cccc(Cl)c1)c1ccc2cc(F)ccc2n1 (nonaromatic ring conformer: 60.99469250768789 kcal/mol)

>  <smiles>  (1) 
O=C(NCC(=O)N1C[C@H](O)C[C@H]1C(=O)N[C@@H](CO)c1cccc(Cl)c1)c1ccc2cc(F)ccc2n1

>  <score_type>  (1) 
oracle

>  <origin>  (1) 
autodockgpu

>  <m_score__min__energy>  (1) 
-8.4800000000000004

>  <m_primary>  (1) 
energy

>  <meeko>  (1) 
{"free_energy": -4.56, "intermolecular_energy": -7.84, "internal_energy": -6.94, "cluster_size": 1, "cluster_id": 11, "rank_in_cluster": 1}

>  <energy>  (1) 
-8.48

>  <cluster_rmsd>  (1) 
0.0

>  <rmsd>  (1) 
270.12

>  <cluster>  (1) 
1

$$$$
VCSRFCBMABBACK-DHMKUKBTNA-M
     RDKit          3D

 59 62  0  0  0  0  0  0  0  0999 V2000
  136.1060   76.8500  221.9800 O   0  0  0  0  0  0  0  0  0  0  0  0
  137.1190   76.2160  222.3860 C   0  0  0  0  0  0  0  0  0  0  0  0
  136.9660   74.9060  222.9390 N   0  0  0  0  0  0  0  0  0  0  0  0
  135.7980   74.5580  223.7420 C   0  0  0  0  0  0  0  0  0  0  0  0
  134.9470   73.5240  223.0600 C   0  0  0  0  0  0  0  0  0  0  0  0
  134.0480   72.9320  223.7140 O   0  0  0  0  0  0  0  0  0  0  0  0
  135.1980   73.1420  221.6980 N   0  0  0  0  0  0  0  0  0  0  0  0
  134.4790   73.7360  220.5880 C   0  0  0  0  0  0  0  0  0  0  0  0
  134.7120   72.8040  219.4020 C   0  0  2  0  0  0  0  0  0  0  0  0
  133.5840   71.9860  219.2180 O   0  0  0  0  0  0  0  0  0  0  0  0
  135.9330   71.9490  219.7720 C   0  0  0  0  0  0  0  0  0  0  0  0
  136.1140   72.0860  221.2890 C   0  0  1  0  0  0  0  0  0  0  0  0
  137.5320   72.4610  221.6280 C   0  0  0  0  0  0  0  0  0  0  0  0
  138.2100   73.1500  220.8190 O   0  0  0  0  0  0  0  0  0  0  0  0
  138.1150   72.0080  222.8540 N   0  0  0  0  0  0  0  0  0  0  0  0
  139.4430   71.4020  222.9310 C   0  0  1  0  0  0  0  0  0  0  0  0
  140.5120   72.4720  222.6720 C   0  0  0  0  0  0  0  0  0  0  0  0
  139.9440   73.7530  222.6820 O   0  0  0  0  0  0  0  0  0  0  0  0
  139.6460   70.7530  224.2840 C   0  0  0  0  0  0  0  0  0  0  0  0
  139.3170   69.4000  224.4730 C   0  0  0  0  0  0  0  0  0  0  0  0
  139.5190   68.7910  225.7160 C   0  0  0  0  0  0  0  0  0  0  0  0
  140.0530   69.5250  226.7770 C   0  0  0  0  0  0  0  0  0  0  0  0
  140.3950   70.8690  226.5980 C   0  0  0  0  0  0  0  0  0  0  0  0
  141.0760   71.7890  227.9300 Cl  0  0  0  0  0  0  0  0  0  0  0  0
  140.1980   71.4810  225.3560 C   0  0  0  0  0  0  0  0  0  0  0  0
  138.4540   76.8320  222.3200 C   0  0  0  0  0  0  0  0  0  0  0  0
  139.4400   76.3440  221.4470 C   0  0  0  0  0  0  0  0  0  0  0  0
  140.6910   76.9660  221.4030 C   0  0  0  0  0  0  0  0  0  0  0  0
  140.9440   78.0810  222.2090 C   0  0  0  0  0  0  0  0  0  0  0  0
  142.1870   78.7330  222.1870 C   0  0  0  0  0  0  0  0  0  0  0  0
  142.4030   79.8540  222.9960 C   0  0  0  0  0  0  0  0  0  0  0  0
  143.6050   80.4830  222.9740 F   0  0  0  0  0  0  0  0  0  0  0  0
  141.3810   80.3320  223.8230 C   0  0  0  0  0  0  0  0  0  0  0  0
  140.1390   79.6890  223.8500 C   0  0  0  0  0  0  0  0  0  0  0  0
  139.9200   78.5580  223.0560 C   0  0  0  0  0  0  0  0  0  0  0  0
  138.7200   77.9210  223.0920 N   0  0  0  0  0  0  0  0  0  0  0  0
  137.7360   74.2170  222.8000 H   0  0  0  0  0  0  0  0  0  0  0  0
  136.1359   74.1603  224.7103 H   0  0  0  0  0  0  0  0  0  0  0  0
  135.1923   75.4657  223.8805 H   0  0  0  0  0  0  0  0  0  0  0  0
  133.4055   73.8036  220.8181 H   0  0  0  0  0  0  0  0  0  0  0  0
  134.8278   74.7577  220.3773 H   0  0  0  0  0  0  0  0  0  0  0  0
  134.8807   73.3600  218.4680 H   0  0  0  0  0  0  0  0  0  0  0  0
  133.4440   71.5000  220.0720 H   0  0  0  0  0  0  0  0  0  0  0  0
  135.7563   70.8970  219.5034 H   0  0  0  0  0  0  0  0  0  0  0  0
  136.8314   72.2818  219.2316 H   0  0  0  0  0  0  0  0  0  0  0  0
  135.9050   71.1381  221.8065 H   0  0  0  0  0  0  0  0  0  0  0  0
  139.5320   70.6203  222.1622 H   0  0  0  0  0  0  0  0  0  0  0  0
  141.2806   72.4118  223.4566 H   0  0  0  0  0  0  0  0  0  0  0  0
  140.9602   72.2918  221.6837 H   0  0  0  0  0  0  0  0  0  0  0  0
  138.9640   73.6290  222.7900 H   0  0  0  0  0  0  0  0  0  0  0  0
  138.8986   68.8169  223.6394 H   0  0  0  0  0  0  0  0  0  0  0  0
  139.2567   67.7322  225.8578 H   0  0  0  0  0  0  0  0  0  0  0  0
  140.2049   69.0453  227.7551 H   0  0  0  0  0  0  0  0  0  0  0  0
  140.4755   72.5361  225.2156 H   0  0  0  0  0  0  0  0  0  0  0  0
  139.2292   75.4781  220.8022 H   0  0  0  0  0  0  0  0  0  0  0  0
  141.4753   76.5793  220.7356 H   0  0  0  0  0  0  0  0  0  0  0  0
  142.9910   78.3627  221.5339 H   0  0  0  0  0  0  0  0  0  0  0  0
  141.5546   81.2162  224.4540 H   0  0  0  0  0  0  0  0  0  0  0  0
  139.3348   80.0724  224.4952 H   0  0  0  0  0  0  0  0  0  0  0  0
  1  2  2  0
  2  3  1  0
  3  4  1  0
  4  5  1  0
  5  6  2  0
  5  7  1  0
  7  8  1  0
  8  9  1  0
  9 10  1  0
  9 11  1  0
 11 12  1  0
 12 13  1  0
 13 14  2  0
 13 15  1  0
 15 16  1  0
 16 17  1  0
 17 18  1  0
 16 19  1  0
 19 20  2  0
 20 21  1  0
 21 22  2  0
 22 23  1  0
 23 24  1  0
 23 25  2  0
  2 26  1  0
 26 27  2  0
 27 28  1  0
 28 29  2  0
 29 30  1  0
 30 31  2  0
 31 32  1  0
 31 33  1  0
 33 34  2  0
 34 35  1  0
 35 36  2  0
 12  7  1  0
 25 19  1  0
 36 26  1  0
 35 29  1  0
  3 37  1  0
  4 38  1  0
  4 39  1  0
  8 40  1  0
  8 41  1  0
  9 42  1  6
 10 43  1  0
 11 44  1  0
 11 45  1  0
 12 46  1  1
 16 47  1  6
 17 48  1  0
 17 49  1  0
 18 50  1  0
 20 51  1  0
 21 52  1  0
 22 53  1  0
 25 54  1  0
 27 55  1  0
 28 56  1  0
 30 57  1  0
 33 58  1  0
 34 59  1  0
M  CHG  1  15  -1
M  END
>  <UniqueID>  (2) 
153

>  <SMILES>  (2) 
O=C(NCC(=O)N1C[C@H](O)C[C@H]1C(=O)[N-][C@@H](CO)c1cccc(Cl)c1)c1ccc2cc(F)ccc2n1

>  <Energy>  (2) 
60.99469250768789

>  <Genealogy>  (2) 
O=C(NCC(=O)N1C[C@H](O)C[C@H]1C(=O)[N-][C@@H](CO)c1cccc(Cl)c1)c1ccc2cc(F)ccc2n1 (protonated)
O=C(NCC(=O)N1C[C@H](O)C[C@H]1C(=O)[N-][C@@H](CO)c1cccc(Cl)c1)c1ccc2cc(F)ccc2n1 (3D coordinates assigned)
O=C(NCC(=O)N1C[C@H](O)C[C@H]1C(=O)[N-][C@@H](CO)c1cccc(Cl)c1)c1ccc2cc(F)ccc2n1 (nonaromatic ring conformer: 60.99469250768789 kcal/mol)

>  <smiles>  (2) 
O=C(NCC(=O)N1C[C@H](O)C[C@H]1C(=O)N[C@@H](CO)c1cccc(Cl)c1)c1ccc2cc(F)ccc2n1

>  <score_type>  (2) 
oracle

>  <origin>  (2) 
autodockgpu

>  <m_score__min__energy>  (2) 
-8.4800000000000004

>  <m_primary>  (2) 
energy

>  <meeko>  (2) 
{"free_energy": -6.93, "intermolecular_energy": -10.21, "internal_energy": -5.36, "cluster_size": 4, "cluster_id": 2, "rank_in_cluster": 3}

>  <energy>  (2) 
-7.96

>  <cluster_rmsd>  (2) 
1.95

>  <rmsd>  (2) 
269.83

>  <cluster>  (2) 
1

$$$$
VCSRFCBMABBACK-DHMKUKBTNA-M
     RDKit          3D

 59 62  0  0  0  0  0  0  0  0999 V2000
  136.5510   70.1580  222.0420 O   0  0  0  0  0  0  0  0  0  0  0  0
  137.4540   70.8300  222.6120 C   0  0  0  0  0  0  0  0  0  0  0  0
  137.8020   72.1240  222.1120 N   0  0  0  0  0  0  0  0  0  0  0  0
  137.7900   72.4070  220.6800 C   0  0  0  0  0  0  0  0  0  0  0  0
  139.0370   71.9050  220.0090 C   0  0  0  0  0  0  0  0  0  0  0  0
  139.1390   70.6810  219.7290 O   0  0  0  0  0  0  0  0  0  0  0  0
  140.1470   72.7820  219.7570 N   0  0  0  0  0  0  0  0  0  0  0  0
  140.2980   73.4890  218.5010 C   0  0  0  0  0  0  0  0  0  0  0  0
  141.7510   73.9550  218.4640 C   0  0  2  0  0  0  0  0  0  0  0  0
  142.5010   73.0930  217.6480 O   0  0  0  0  0  0  0  0  0  0  0  0
  142.2520   73.8850  219.9140 C   0  0  0  0  0  0  0  0  0  0  0  0
  141.2600   72.9940  220.6720 C   0  0  1  0  0  0  0  0  0  0  0  0
  140.7840   73.6710  221.9300 C   0  0  0  0  0  0  0  0  0  0  0  0
  140.2640   72.9880  222.8530 O   0  0  0  0  0  0  0  0  0  0  0  0
  140.8970   75.0920  222.0610 N   0  0  0  0  0  0  0  0  0  0  0  0
  140.1140   76.0330  221.2630 C   0  0  1  0  0  0  0  0  0  0  0  0
  138.7090   76.1720  221.8630 C   0  0  0  0  0  0  0  0  0  0  0  0
  138.2440   74.9340  222.3280 O   0  0  0  0  0  0  0  0  0  0  0  0
  140.8100   77.3760  221.2010 C   0  0  0  0  0  0  0  0  0  0  0  0
  141.1070   77.9610  219.9580 C   0  0  0  0  0  0  0  0  0  0  0  0
  141.7340   79.2090  219.8960 C   0  0  0  0  0  0  0  0  0  0  0  0
  142.0680   79.8840  221.0720 C   0  0  0  0  0  0  0  0  0  0  0  0
  141.7680   79.3180  222.3150 C   0  0  0  0  0  0  0  0  0  0  0  0
  142.1780   80.1730  223.7930 Cl  0  0  0  0  0  0  0  0  0  0  0  0
  141.1370   78.0720  222.3810 C   0  0  0  0  0  0  0  0  0  0  0  0
  138.1700   70.2760  223.7730 C   0  0  0  0  0  0  0  0  0  0  0  0
  138.1430   68.9020  224.0590 C   0  0  0  0  0  0  0  0  0  0  0  0
  138.8480   68.4120  225.1620 C   0  0  0  0  0  0  0  0  0  0  0  0
  139.5920   69.2900  225.9580 C   0  0  0  0  0  0  0  0  0  0  0  0
  140.3160   68.8330  227.0710 C   0  0  0  0  0  0  0  0  0  0  0  0
  141.0610   69.7350  227.8380 C   0  0  0  0  0  0  0  0  0  0  0  0
  141.7590   69.2930  228.9140 F   0  0  0  0  0  0  0  0  0  0  0  0
  141.0930   71.0910  227.4960 C   0  0  0  0  0  0  0  0  0  0  0  0
  140.3750   71.5540  226.3880 C   0  0  0  0  0  0  0  0  0  0  0  0
  139.6150   70.6620  225.6250 C   0  0  0  0  0  0  0  0  0  0  0  0
  138.9040   71.1110  224.5570 N   0  0  0  0  0  0  0  0  0  0  0  0
  138.1190   72.8490  222.7910 H   0  0  0  0  0  0  0  0  0  0  0  0
  136.9171   71.9154  220.2258 H   0  0  0  0  0  0  0  0  0  0  0  0
  137.7401   73.4974  220.5441 H   0  0  0  0  0  0  0  0  0  0  0  0
  140.0884   72.8179  217.6551 H   0  0  0  0  0  0  0  0  0  0  0  0
  139.5977   74.3337  218.4228 H   0  0  0  0  0  0  0  0  0  0  0  0
  141.8475   74.9719  218.0558 H   0  0  0  0  0  0  0  0  0  0  0  0
  141.9960   72.2400  217.5960 H   0  0  0  0  0  0  0  0  0  0  0  0
  143.2601   73.4461  219.9475 H   0  0  0  0  0  0  0  0  0  0  0  0
  142.3126   74.8869  220.3639 H   0  0  0  0  0  0  0  0  0  0  0  0
  141.7247   72.0456  220.9796 H   0  0  0  0  0  0  0  0  0  0  0  0
  140.0226   75.6504  220.2357 H   0  0  0  0  0  0  0  0  0  0  0  0
  138.7432   76.8830  222.7017 H   0  0  0  0  0  0  0  0  0  0  0  0
  138.0253   76.5358  221.0819 H   0  0  0  0  0  0  0  0  0  0  0  0
  138.9710   74.5470  222.8830 H   0  0  0  0  0  0  0  0  0  0  0  0
  140.8446   77.4340  219.0288 H   0  0  0  0  0  0  0  0  0  0  0  0
  141.9646   79.6599  218.9195 H   0  0  0  0  0  0  0  0  0  0  0  0
  142.5679   80.8625  221.0205 H   0  0  0  0  0  0  0  0  0  0  0  0
  140.8946   77.6329  223.3600 H   0  0  0  0  0  0  0  0  0  0  0  0
  137.5703   68.2149  223.4188 H   0  0  0  0  0  0  0  0  0  0  0  0
  138.8181   67.3393  225.4036 H   0  0  0  0  0  0  0  0  0  0  0  0
  140.2973   67.7665  227.3396 H   0  0  0  0  0  0  0  0  0  0  0  0
  141.6842   71.7952  228.0998 H   0  0  0  0  0  0  0  0  0  0  0  0
  140.4083   72.6196  226.1171 H   0  0  0  0  0  0  0  0  0  0  0  0
  1  2  2  0
  2  3  1  0
  3  4  1  0
  4  5  1  0
  5  6  2  0
  5  7  1  0
  7  8  1  0
  8  9  1  0
  9 10  1  0
  9 11  1  0
 11 12  1  0
 12 13  1  0
 13 14  2  0
 13 15  1  0
 15 16  1  0
 16 17  1  0
 17 18  1  0
 16 19  1  0
 19 20  2  0
 20 21  1  0
 21 22  2  0
 22 23  1  0
 23 24  1  0
 23 25  2  0
  2 26  1  0
 26 27  2  0
 27 28  1  0
 28 29  2  0
 29 30  1  0
 30 31  2  0
 31 32  1  0
 31 33  1  0
 33 34  2  0
 34 35  1  0
 35 36  2  0
 12  7  1  0
 25 19  1  0
 36 26  1  0
 35 29  1  0
  3 37  1  0
  4 38  1  0
  4 39  1  0
  8 40  1  0
  8 41  1  0
  9 42  1  6
 10 43  1  0
 11 44  1  0
 11 45  1  0
 12 46  1  1
 16 47  1  6
 17 48  1  0
 17 49  1  0
 18 50  1  0
 20 51  1  0
 21 52  1  0
 22 53  1  0
 25 54  1  0
 27 55  1  0
 28 56  1  0
 30 57  1  0
 33 58  1  0
 34 59  1  0
M  CHG  1  15  -1
M  END
>  <UniqueID>  (3) 
153

>  <SMILES>  (3) 
O=C(NCC(=O)N1C[C@H](O)C[C@H]1C(=O)[N-][C@@H](CO)c1cccc(Cl)c1)c1ccc2cc(F)ccc2n1

>  <Energy>  (3) 
60.99469250768789

>  <Genealogy>  (3) 
O=C(NCC(=O)N1C[C@H](O)C[C@H]1C(=O)[N-][C@@H](CO)c1cccc(Cl)c1)c1ccc2cc(F)ccc2n1 (protonated)
O=C(NCC(=O)N1C[C@H](O)C[C@H]1C(=O)[N-][C@@H](CO)c1cccc(Cl)c1)c1ccc2cc(F)ccc2n1 (3D coordinates assigned)
O=C(NCC(=O)N1C[C@H](O)C[C@H]1C(=O)[N-][C@@H](CO)c1cccc(Cl)c1)c1ccc2cc(F)ccc2n1 (nonaromatic ring conformer: 60.99469250768789 kcal/mol)

>  <smiles>  (3) 
O=C(NCC(=O)N1C[C@H](O)C[C@H]1C(=O)N[C@@H](CO)c1cccc(Cl)c1)c1ccc2cc(F)ccc2n1

>  <score_type>  (3) 
oracle

>  <origin>  (3) 
autodockgpu

>  <m_score__min__energy>  (3) 
-8.4800000000000004

>  <m_primary>  (3) 
energy

>  <meeko>  (3) 
{"free_energy": -6.96, "intermolecular_energy": -10.24, "internal_energy": -5.49, "cluster_size": 4, "cluster_id": 1, "rank_in_cluster": 4}

>  <energy>  (3) 
-7.21

>  <cluster_rmsd>  (3) 
1.98

>  <rmsd>  (3) 
269.24

>  <cluster>  (3) 
1

$$$$
VCSRFCBMABBACK-DHMKUKBTNA-M
     RDKit          3D

 59 62  0  0  0  0  0  0  0  0999 V2000
  136.8240   75.3250  220.3900 O   0  0  0  0  0  0  0  0  0  0  0  0
  137.4860   75.1500  221.4510 C   0  0  0  0  0  0  0  0  0  0  0  0
  137.1080   74.1150  222.3630 N   0  0  0  0  0  0  0  0  0  0  0  0
  135.7060   73.7780  222.5830 C   0  0  0  0  0  0  0  0  0  0  0  0
  135.4750   73.2580  223.9740 C   0  0  0  0  0  0  0  0  0  0  0  0
  135.5360   74.0520  224.9500 O   0  0  0  0  0  0  0  0  0  0  0  0
  135.2690   71.8570  224.2160 N   0  0  0  0  0  0  0  0  0  0  0  0
  133.9480   71.2990  224.4240 C   0  0  0  0  0  0  0  0  0  0  0  0
  134.1760   69.9240  225.0450 C   0  0  2  0  0  0  0  0  0  0  0  0
  133.9650   69.9930  226.4320 O   0  0  0  0  0  0  0  0  0  0  0  0
  135.6390   69.5650  224.7470 C   0  0  0  0  0  0  0  0  0  0  0  0
  136.3360   70.8750  224.3580 C   0  0  1  0  0  0  0  0  0  0  0  0
  137.0840   70.7200  223.0610 C   0  0  0  0  0  0  0  0  0  0  0  0
  136.6910   69.8820  222.2050 O   0  0  0  0  0  0  0  0  0  0  0  0
  138.2560   71.5030  222.8170 N   0  0  0  0  0  0  0  0  0  0  0  0
  139.6120   70.9920  223.0040 C   0  0  1  0  0  0  0  0  0  0  0  0
  140.6280   72.1010  222.6970 C   0  0  0  0  0  0  0  0  0  0  0  0
  140.0030   73.3560  222.6870 O   0  0  0  0  0  0  0  0  0  0  0  0
  139.7890   70.4750  224.4160 C   0  0  0  0  0  0  0  0  0  0  0  0
  139.4880   69.1360  224.7200 C   0  0  0  0  0  0  0  0  0  0  0  0
  139.6660   68.6500  226.0200 C   0  0  0  0  0  0  0  0  0  0  0  0
  140.1470   69.4930  227.0240 C   0  0  0  0  0  0  0  0  0  0  0  0
  140.4610   70.8240  226.7310 C   0  0  0  0  0  0  0  0  0  0  0  0
  141.0760   71.8800  227.9910 Cl  0  0  0  0  0  0  0  0  0  0  0  0
  140.2880   71.3130  225.4330 C   0  0  0  0  0  0  0  0  0  0  0  0
  138.6270   76.0240  221.7650 C   0  0  0  0  0  0  0  0  0  0  0  0
  139.9250   75.7170  221.3260 C   0  0  0  0  0  0  0  0  0  0  0  0
  140.9800   76.5800  221.6330 C   0  0  0  0  0  0  0  0  0  0  0  0
  140.7330   77.7540  222.3540 C   0  0  0  0  0  0  0  0  0  0  0  0
  141.7670   78.6470  222.6760 C   0  0  0  0  0  0  0  0  0  0  0  0
  141.4840   79.8180  223.3860 C   0  0  0  0  0  0  0  0  0  0  0  0
  142.4840   80.6800  223.6980 F   0  0  0  0  0  0  0  0  0  0  0  0
  140.1700   80.1060  223.7720 C   0  0  0  0  0  0  0  0  0  0  0  0
  139.1330   79.2230  223.4540 C   0  0  0  0  0  0  0  0  0  0  0  0
  139.4100   78.0420  222.7580 C   0  0  0  0  0  0  0  0  0  0  0  0
  138.4080   77.1730  222.4610 N   0  0  0  0  0  0  0  0  0  0  0  0
  137.8580   73.6410  222.9120 H   0  0  0  0  0  0  0  0  0  0  0  0
  135.0940   74.6796  222.4325 H   0  0  0  0  0  0  0  0  0  0  0  0
  135.4250   72.9896  221.8693 H   0  0  0  0  0  0  0  0  0  0  0  0
  133.3651   71.9361  225.1054 H   0  0  0  0  0  0  0  0  0  0  0  0
  133.3820   71.2317  223.4832 H   0  0  0  0  0  0  0  0  0  0  0  0
  133.4876   69.1688  224.6377 H   0  0  0  0  0  0  0  0  0  0  0  0
  133.7290   70.9350  226.6370 H   0  0  0  0  0  0  0  0  0  0  0  0
  136.1139   69.1320  225.6397 H   0  0  0  0  0  0  0  0  0  0  0  0
  135.7105   68.8205  223.9404 H   0  0  0  0  0  0  0  0  0  0  0  0
  137.0752   71.1783  225.1141 H   0  0  0  0  0  0  0  0  0  0  0  0
  139.7830   70.1548  222.3113 H   0  0  0  0  0  0  0  0  0  0  0  0
  141.4133   72.0947  223.4672 H   0  0  0  0  0  0  0  0  0  0  0  0
  141.0654   71.9155  221.7049 H   0  0  0  0  0  0  0  0  0  0  0  0
  139.1490   73.2530  223.1840 H   0  0  0  0  0  0  0  0  0  0  0  0
  139.1108   68.4672  223.9323 H   0  0  0  0  0  0  0  0  0  0  0  0
  139.4265   67.6017  226.2516 H   0  0  0  0  0  0  0  0  0  0  0  0
  140.2791   69.1097  228.0466 H   0  0  0  0  0  0  0  0  0  0  0  0
  140.5429   72.3583  225.2041 H   0  0  0  0  0  0  0  0  0  0  0  0
  140.1101   74.8023  220.7437 H   0  0  0  0  0  0  0  0  0  0  0  0
  142.0027   76.3373  221.3087 H   0  0  0  0  0  0  0  0  0  0  0  0
  142.8001   78.4256  222.3698 H   0  0  0  0  0  0  0  0  0  0  0  0
  139.9520   81.0301  224.3275 H   0  0  0  0  0  0  0  0  0  0  0  0
  138.1001   79.4573  223.7511 H   0  0  0  0  0  0  0  0  0  0  0  0
  1  2  2  0
  2  3  1  0
  3  4  1  0
  4  5  1  0
  5  6  2  0
  5  7  1  0
  7  8  1  0
  8  9  1  0
  9 10  1  0
  9 11  1  0
 11 12  1  0
 12 13  1  0
 13 14  2  0
 13 15  1  0
 15 16  1  0
 16 17  1  0
 17 18  1  0
 16 19  1  0
 19 20  2  0
 20 21  1  0
 21 22  2  0
 22 23  1  0
 23 24  1  0
 23 25  2  0
  2 26  1  0
 26 27  2  0
 27 28  1  0
 28 29  2  0
 29 30  1  0
 30 31  2  0
 31 32  1  0
 31 33  1  0
 33 34  2  0
 34 35  1  0
 35 36  2  0
 12  7  1  0
 25 19  1  0
 36 26  1  0
 35 29  1  0
  3 37  1  0
  4 38  1  0
  4 39  1  0
  8 40  1  0
  8 41  1  0
  9 42  1  6
 10 43  1  0
 11 44  1  0
 11 45  1  0
 12 46  1  1
 16 47  1  6
 17 48  1  0
 17 49  1  0
 18 50  1  0
 20 51  1  0
 21 52  1  0
 22 53  1  0
 25 54  1  0
 27 55  1  0
 28 56  1  0
 30 57  1  0
 33 58  1  0
 34 59  1  0
M  CHG  1  15  -1
M  END
>  <UniqueID>  (4) 
153

>  <SMILES>  (4) 
O=C(NCC(=O)N1C[C@H](O)C[C@H]1C(=O)[N-][C@@H](CO)c1cccc(Cl)c1)c1ccc2cc(F)ccc2n1

>  <Energy>  (4) 
60.99469250768789

>  <Genealogy>  (4) 
O=C(NCC(=O)N1C[C@H](O)C[C@H]1C(=O)[N-][C@@H](CO)c1cccc(Cl)c1)c1ccc2cc(F)ccc2n1 (protonated)
O=C(NCC(=O)N1C[C@H](O)C[C@H]1C(=O)[N-][C@@H](CO)c1cccc(Cl)c1)c1ccc2cc(F)ccc2n1 (3D coordinates assigned)
O=C(NCC(=O)N1C[C@H](O)C[C@H]1C(=O)[N-][C@@H](CO)c1cccc(Cl)c1)c1ccc2cc(F)ccc2n1 (nonaromatic ring conformer: 60.99469250768789 kcal/mol)

>  <smiles>  (4) 
O=C(NCC(=O)N1C[C@H](O)C[C@H]1C(=O)N[C@@H](CO)c1cccc(Cl)c1)c1ccc2cc(F)ccc2n1

>  <score_type>  (4) 
oracle

>  <origin>  (4) 
autodockgpu

>  <m_score__min__energy>  (4) 
-8.4800000000000004

>  <m_primary>  (4) 
energy

>  <meeko>  (4) 
{"free_energy": -8.19, "intermolecular_energy": -11.47, "internal_energy": -4.6, "cluster_size": 4, "cluster_id": 2, "rank_in_cluster": 2}

>  <energy>  (4) 
-6.96

>  <cluster_rmsd>  (4) 
2.0

>  <rmsd>  (4) 
269.15

>  <cluster>  (4) 
1

$$$$
VCSRFCBMABBACK-DHMKUKBTNA-M
     RDKit          3D

 59 62  0  0  0  0  0  0  0  0999 V2000
  138.5150   70.7320  221.3510 O   0  0  0  0  0  0  0  0  0  0  0  0
  139.4330   70.9890  222.1780 C   0  0  0  0  0  0  0  0  0  0  0  0
  140.3990   72.0000  221.8780 N   0  0  0  0  0  0  0  0  0  0  0  0
  140.8780   72.2060  220.5140 C   0  0  0  0  0  0  0  0  0  0  0  0
  142.0670   73.1230  220.4800 C   0  0  0  0  0  0  0  0  0  0  0  0
  143.1840   72.7040  220.8850 O   0  0  0  0  0  0  0  0  0  0  0  0
  141.9340   74.4930  220.0690 N   0  0  0  0  0  0  0  0  0  0  0  0
  142.2040   74.9180  218.7100 C   0  0  0  0  0  0  0  0  0  0  0  0
  142.3590   76.4350  218.7780 C   0  0  2  0  0  0  0  0  0  0  0  0
  143.7230   76.7710  218.7650 O   0  0  0  0  0  0  0  0  0  0  0  0
  141.7180   76.8650  220.1060 C   0  0  0  0  0  0  0  0  0  0  0  0
  141.6010   75.5960  220.9600 C   0  0  1  0  0  0  0  0  0  0  0  0
  140.2030   75.4370  221.4950 C   0  0  0  0  0  0  0  0  0  0  0  0
  139.9500   74.5280  222.3310 O   0  0  0  0  0  0  0  0  0  0  0  0
  139.1600   76.2990  221.0300 N   0  0  0  0  0  0  0  0  0  0  0  0
  138.6850   77.4570  221.7840 C   0  0  1  0  0  0  0  0  0  0  0  0
  137.9580   76.9850  223.0500 C   0  0  0  0  0  0  0  0  0  0  0  0
  137.5480   75.6510  222.9170 O   0  0  0  0  0  0  0  0  0  0  0  0
  139.8430   78.3670  222.1350 C   0  0  0  0  0  0  0  0  0  0  0  0
  140.7840   77.9710  223.1010 C   0  0  0  0  0  0  0  0  0  0  0  0
  141.8640   78.8010  223.4170 C   0  0  0  0  0  0  0  0  0  0  0  0
  142.0160   80.0300  222.7700 C   0  0  0  0  0  0  0  0  0  0  0  0
  141.0930   80.4300  221.7990 C   0  0  0  0  0  0  0  0  0  0  0  0
  141.2910   81.9690  220.9780 Cl  0  0  0  0  0  0  0  0  0  0  0  0
  140.0140   79.6020  221.4770 C   0  0  0  0  0  0  0  0  0  0  0  0
  139.5290   70.2340  223.4380 C   0  0  0  0  0  0  0  0  0  0  0  0
  139.0550   68.9170  223.5370 C   0  0  0  0  0  0  0  0  0  0  0  0
  139.1780   68.2280  224.7460 C   0  0  0  0  0  0  0  0  0  0  0  0
  139.7920   68.8460  225.8410 C   0  0  0  0  0  0  0  0  0  0  0  0
  139.9370   68.1830  227.0700 C   0  0  0  0  0  0  0  0  0  0  0  0
  140.5680   68.8250  228.1410 C   0  0  0  0  0  0  0  0  0  0  0  0
  140.7070   68.1840  229.3280 F   0  0  0  0  0  0  0  0  0  0  0  0
  141.0620   70.1260  227.9890 C   0  0  0  0  0  0  0  0  0  0  0  0
  140.9230   70.7930  226.7670 C   0  0  0  0  0  0  0  0  0  0  0  0
  140.2790   70.1640  225.6960 C   0  0  0  0  0  0  0  0  0  0  0  0
  140.1270   70.8150  224.5130 N   0  0  0  0  0  0  0  0  0  0  0  0
  140.7980   72.5540  222.6670 H   0  0  0  0  0  0  0  0  0  0  0  0
  141.1639   71.2342  220.0851 H   0  0  0  0  0  0  0  0  0  0  0  0
  140.0686   72.6691  219.9306 H   0  0  0  0  0  0  0  0  0  0  0  0
  143.1296   74.4536  218.3391 H   0  0  0  0  0  0  0  0  0  0  0  0
  141.3979   74.6214  218.0228 H   0  0  0  0  0  0  0  0  0  0  0  0
  141.8820   76.9358  217.9226 H   0  0  0  0  0  0  0  0  0  0  0  0
  143.8400   77.5090  219.4190 H   0  0  0  0  0  0  0  0  0  0  0  0
  142.3526   77.6073  220.6122 H   0  0  0  0  0  0  0  0  0  0  0  0
  140.7339   77.3285  219.9427 H   0  0  0  0  0  0  0  0  0  0  0  0
  142.2702   75.6343  221.8322 H   0  0  0  0  0  0  0  0  0  0  0  0
  137.9789   78.0290  221.1641 H   0  0  0  0  0  0  0  0  0  0  0  0
  138.6385   77.0697  223.9101 H   0  0  0  0  0  0  0  0  0  0  0  0
  137.0693   77.6148  223.2034 H   0  0  0  0  0  0  0  0  0  0  0  0
  138.3640   75.1210  222.7150 H   0  0  0  0  0  0  0  0  0  0  0  0
  140.6702   77.0031  223.6111 H   0  0  0  0  0  0  0  0  0  0  0  0
  142.5950   78.4859  224.1761 H   0  0  0  0  0  0  0  0  0  0  0  0
  142.8631   80.6838  223.0249 H   0  0  0  0  0  0  0  0  0  0  0  0
  139.2946   79.9156  220.7062 H   0  0  0  0  0  0  0  0  0  0  0  0
  138.5892   68.4299  222.6676 H   0  0  0  0  0  0  0  0  0  0  0  0
  138.7929   67.2016  224.8370 H   0  0  0  0  0  0  0  0  0  0  0  0
  139.5545   67.1588  227.1909 H   0  0  0  0  0  0  0  0  0  0  0  0
  141.5609   70.6253  228.8327 H   0  0  0  0  0  0  0  0  0  0  0  0
  141.3201   71.8119  226.6483 H   0  0  0  0  0  0  0  0  0  0  0  0
  1  2  2  0
  2  3  1  0
  3  4  1  0
  4  5  1  0
  5  6  2  0
  5  7  1  0
  7  8  1  0
  8  9  1  0
  9 10  1  0
  9 11  1  0
 11 12  1  0
 12 13  1  0
 13 14  2  0
 13 15  1  0
 15 16  1  0
 16 17  1  0
 17 18  1  0
 16 19  1  0
 19 20  2  0
 20 21  1  0
 21 22  2  0
 22 23  1  0
 23 24  1  0
 23 25  2  0
  2 26  1  0
 26 27  2  0
 27 28  1  0
 28 29  2  0
 29 30  1  0
 30 31  2  0
 31 32  1  0
 31 33  1  0
 33 34  2  0
 34 35  1  0
 35 36  2  0
 12  7  1  0
 25 19  1  0
 36 26  1  0
 35 29  1  0
  3 37  1  0
  4 38  1  0
  4 39  1  0
  8 40  1  0
  8 41  1  0
  9 42  1  6
 10 43  1  0
 11 44  1  0
 11 45  1  0
 12 46  1  1
 16 47  1  6
 17 48  1  0
 17 49  1  0
 18 50  1  0
 20 51  1  0
 21 52  1  0
 22 53  1  0
 25 54  1  0
 27 55  1  0
 28 56  1  0
 30 57  1  0
 33 58  1  0
 34 59  1  0
M  CHG  1  15  -1
M  END
>  <UniqueID>  (5) 
153

>  <SMILES>  (5) 
O=C(NCC(=O)N1C[C@H](O)C[C@H]1C(=O)[N-][C@@H](CO)c1cccc(Cl)c1)c1ccc2cc(F)ccc2n1

>  <Energy>  (5) 
60.99469250768789

>  <Genealogy>  (5) 
O=C(NCC(=O)N1C[C@H](O)C[C@H]1C(=O)[N-][C@@H](CO)c1cccc(Cl)c1)c1ccc2cc(F)ccc2n1 (protonated)
O=C(NCC(=O)N1C[C@H](O)C[C@H]1C(=O)[N-][C@@H](CO)c1cccc(Cl)c1)c1ccc2cc(F)ccc2n1 (3D coordinates assigned)
O=C(NCC(=O)N1C[C@H](O)C[C@H]1C(=O)[N-][C@@H](CO)c1cccc(Cl)c1)c1ccc2cc(F)ccc2n1 (nonaromatic ring conformer: 60.99469250768789 kcal/mol)

>  <smiles>  (5) 
O=C(NCC(=O)N1C[C@H](O)C[C@H]1C(=O)N[C@@H](CO)c1cccc(Cl)c1)c1ccc2cc(F)ccc2n1

>  <score_type>  (5) 
oracle

>  <origin>  (5) 
autodockgpu

>  <m_score__min__energy>  (5) 
-8.4800000000000004

>  <m_primary>  (5) 
energy

>  <meeko>  (5) 
{"free_energy": -7.96, "intermolecular_energy": -11.24, "internal_energy": -4.25, "cluster_size": 4, "cluster_id": 1, "rank_in_cluster": 2}

>  <energy>  (5) 
-8.26

>  <cluster_rmsd>  (5) 
0.0

>  <rmsd>  (5) 
269.32

>  <cluster>  (5) 
2

$$$$
VCSRFCBMABBACK-DHMKUKBTNA-M
     RDKit          3D

 59 62  0  0  0  0  0  0  0  0999 V2000
  140.9850   71.6470  221.0070 O   0  0  0  0  0  0  0  0  0  0  0  0
  140.5330   72.2570  222.0150 C   0  0  0  0  0  0  0  0  0  0  0  0
  140.4030   73.6810  221.9860 N   0  0  0  0  0  0  0  0  0  0  0  0
  141.3780   74.5130  221.2890 C   0  0  0  0  0  0  0  0  0  0  0  0
  140.7310   75.7210  220.6730 C   0  0  0  0  0  0  0  0  0  0  0  0
  140.2490   75.6420  219.5120 O   0  0  0  0  0  0  0  0  0  0  0  0
  140.7270   76.9870  221.3530 N   0  0  0  0  0  0  0  0  0  0  0  0
  141.3530   78.1650  220.7880 C   0  0  0  0  0  0  0  0  0  0  0  0
  141.5040   79.1470  221.9470 C   0  0  2  0  0  0  0  0  0  0  0  0
  142.8260   79.1200  222.4180 O   0  0  0  0  0  0  0  0  0  0  0  0
  140.5400   78.6600  223.0390 C   0  0  0  0  0  0  0  0  0  0  0  0
  140.1860   77.2090  222.6870 C   0  0  1  0  0  0  0  0  0  0  0  0
  138.6930   77.0070  222.6880 C   0  0  0  0  0  0  0  0  0  0  0  0
  137.9240   78.0060  222.6690 O   0  0  0  0  0  0  0  0  0  0  0  0
  138.1540   75.6830  222.7410 N   0  0  0  0  0  0  0  0  0  0  0  0
  136.8050   75.3510  222.2890 C   0  0  1  0  0  0  0  0  0  0  0  0
  136.7980   73.9430  221.6780 C   0  0  0  0  0  0  0  0  0  0  0  0
  137.7170   73.1140  222.3350 O   0  0  0  0  0  0  0  0  0  0  0  0
  135.8270   75.4430  223.4420 C   0  0  0  0  0  0  0  0  0  0  0  0
  135.3030   76.6900  223.8240 C   0  0  0  0  0  0  0  0  0  0  0  0
  134.3870   76.7780  224.8780 C   0  0  0  0  0  0  0  0  0  0  0  0
  133.9850   75.6250  225.5550 C   0  0  0  0  0  0  0  0  0  0  0  0
  134.4900   74.3780  225.1760 C   0  0  0  0  0  0  0  0  0  0  0  0
  133.9760   72.9270  226.0200 Cl  0  0  0  0  0  0  0  0  0  0  0  0
  135.4030   74.2840  224.1210 C   0  0  0  0  0  0  0  0  0  0  0  0
  140.1660   71.5110  223.2300 C   0  0  0  0  0  0  0  0  0  0  0  0
  139.3270   70.3860  223.1700 C   0  0  0  0  0  0  0  0  0  0  0  0
  139.0140   69.6970  224.3440 C   0  0  0  0  0  0  0  0  0  0  0  0
  139.5540   70.1170  225.5650 C   0  0  0  0  0  0  0  0  0  0  0  0
  139.2640   69.4450  226.7630 C   0  0  0  0  0  0  0  0  0  0  0  0
  139.8310   69.8830  227.9650 C   0  0  0  0  0  0  0  0  0  0  0  0
  139.5500   69.2340  229.1220 F   0  0  0  0  0  0  0  0  0  0  0  0
  140.6930   70.9850  227.9750 C   0  0  0  0  0  0  0  0  0  0  0  0
  140.9880   71.6590  226.7860 C   0  0  0  0  0  0  0  0  0  0  0  0
  140.4120   71.2380  225.5820 C   0  0  0  0  0  0  0  0  0  0  0  0
  140.6840   71.9000  224.4270 N   0  0  0  0  0  0  0  0  0  0  0  0
  139.6240   74.1180  222.5240 H   0  0  0  0  0  0  0  0  0  0  0  0
  142.1432   74.8442  222.0065 H   0  0  0  0  0  0  0  0  0  0  0  0
  141.8291   73.9148  220.4836 H   0  0  0  0  0  0  0  0  0  0  0  0
  142.3379   77.9123  220.3683 H   0  0  0  0  0  0  0  0  0  0  0  0
  140.7538   78.5909  219.9697 H   0  0  0  0  0  0  0  0  0  0  0  0
  141.2770   80.1798  221.6441 H   0  0  0  0  0  0  0  0  0  0  0  0
  143.3100   78.4490  221.8680 H   0  0  0  0  0  0  0  0  0  0  0  0
  141.0270   78.7047  224.0243 H   0  0  0  0  0  0  0  0  0  0  0  0
  139.6397   79.2903  223.0869 H   0  0  0  0  0  0  0  0  0  0  0  0
  140.6023   76.5034  223.4211 H   0  0  0  0  0  0  0  0  0  0  0  0
  136.4922   76.0716  221.5190 H   0  0  0  0  0  0  0  0  0  0  0  0
  135.7903   73.5126  221.7741 H   0  0  0  0  0  0  0  0  0  0  0  0
  137.0821   74.0159  220.6178 H   0  0  0  0  0  0  0  0  0  0  0  0
  138.1610   73.6720  223.0260 H   0  0  0  0  0  0  0  0  0  0  0  0
  135.6145   77.6010  223.2919 H   0  0  0  0  0  0  0  0  0  0  0  0
  133.9828   77.7574  225.1738 H   0  0  0  0  0  0  0  0  0  0  0  0
  133.2700   75.6981  226.3877 H   0  0  0  0  0  0  0  0  0  0  0  0
  135.7920   73.3001  223.8199 H   0  0  0  0  0  0  0  0  0  0  0  0
  138.9193   70.0500  222.2052 H   0  0  0  0  0  0  0  0  0  0  0  0
  138.3439   68.8254  224.3090 H   0  0  0  0  0  0  0  0  0  0  0  0
  138.5914   68.5746  226.7568 H   0  0  0  0  0  0  0  0  0  0  0  0
  141.1402   71.3224  228.9217 H   0  0  0  0  0  0  0  0  0  0  0  0
  141.6726   72.5199  226.7969 H   0  0  0  0  0  0  0  0  0  0  0  0
  1  2  2  0
  2  3  1  0
  3  4  1  0
  4  5  1  0
  5  6  2  0
  5  7  1  0
  7  8  1  0
  8  9  1  0
  9 10  1  0
  9 11  1  0
 11 12  1  0
 12 13  1  0
 13 14  2  0
 13 15  1  0
 15 16  1  0
 16 17  1  0
 17 18  1  0
 16 19  1  0
 19 20  2  0
 20 21  1  0
 21 22  2  0
 22 23  1  0
 23 24  1  0
 23 25  2  0
  2 26  1  0
 26 27  2  0
 27 28  1  0
 28 29  2  0
 29 30  1  0
 30 31  2  0
 31 32  1  0
 31 33  1  0
 33 34  2  0
 34 35  1  0
 35 36  2  0
 12  7  1  0
 25 19  1  0
 36 26  1  0
 35 29  1  0
  3 37  1  0
  4 38  1  0
  4 39  1  0
  8 40  1  0
  8 41  1  0
  9 42  1  6
 10 43  1  0
 11 44  1  0
 11 45  1  0
 12 46  1  1
 16 47  1  6
 17 48  1  0
 17 49  1  0
 18 50  1  0
 20 51  1  0
 21 52  1  0
 22 53  1  0
 25 54  1  0
 27 55  1  0
 28 56  1  0
 30 57  1  0
 33 58  1  0
 34 59  1  0
M  CHG  1  15  -1
M  END
>  <UniqueID>  (6) 
153

>  <SMILES>  (6) 
O=C(NCC(=O)N1C[C@H](O)C[C@H]1C(=O)[N-][C@@H](CO)c1cccc(Cl)c1)c1ccc2cc(F)ccc2n1

>  <Energy>  (6) 
60.99469250768789

>  <Genealogy>  (6) 
O=C(NCC(=O)N1C[C@H](O)C[C@H]1C(=O)[N-][C@@H](CO)c1cccc(Cl)c1)c1ccc2cc(F)ccc2n1 (protonated)
O=C(NCC(=O)N1C[C@H](O)C[C@H]1C(=O)[N-][C@@H](CO)c1cccc(Cl)c1)c1ccc2cc(F)ccc2n1 (3D coordinates assigned)
O=C(NCC(=O)N1C[C@H](O)C[C@H]1C(=O)[N-][C@@H](CO)c1cccc(Cl)c1)c1ccc2cc(F)ccc2n1 (nonaromatic ring conformer: 60.99469250768789 kcal/mol)

>  <smiles>  (6) 
O=C(NCC(=O)N1C[C@H](O)C[C@H]1C(=O)N[C@@H](CO)c1cccc(Cl)c1)c1ccc2cc(F)ccc2n1

>  <score_type>  (6) 
oracle

>  <origin>  (6) 
autodockgpu

>  <m_score__min__energy>  (6) 
-8.4800000000000004

>  <m_primary>  (6) 
energy

>  <meeko>  (6) 
{"free_energy": -7.58, "intermolecular_energy": -10.86, "internal_energy": -4.61, "cluster_size": 1, "cluster_id": 3, "rank_in_cluster": 1}

>  <energy>  (6) 
-8.19

>  <cluster_rmsd>  (6) 
0.23

>  <rmsd>  (6) 
269.37

>  <cluster>  (6) 
2

$$$$
VCSRFCBMABBACK-DHMKUKBTNA-M
     RDKit          3D

 59 62  0  0  0  0  0  0  0  0999 V2000
  135.1200   71.4190  222.3890 O   0  0  0  0  0  0  0  0  0  0  0  0
  136.2270   71.8230  222.8410 C   0  0  0  0  0  0  0  0  0  0  0  0
  136.7250   73.1080  222.4590 N   0  0  0  0  0  0  0  0  0  0  0  0
  136.5080   73.6330  221.1150 C   0  0  0  0  0  0  0  0  0  0  0  0
  137.7390   73.4960  220.2640 C   0  0  0  0  0  0  0  0  0  0  0  0
  137.6800   73.7830  219.0390 O   0  0  0  0  0  0  0  0  0  0  0  0
  138.9580   72.9640  220.8070 N   0  0  0  0  0  0  0  0  0  0  0  0
  139.5590   71.7470  220.2980 C   0  0  0  0  0  0  0  0  0  0  0  0
  140.5560   71.3040  221.3660 C   0  0  2  0  0  0  0  0  0  0  0  0
  139.9940   70.2710  222.1340 O   0  0  0  0  0  0  0  0  0  0  0  0
  140.8110   72.5390  222.2430 C   0  0  0  0  0  0  0  0  0  0  0  0
  139.6680   73.5200  221.9510 C   0  0  1  0  0  0  0  0  0  0  0  0
  140.2060   74.8870  221.6220 C   0  0  0  0  0  0  0  0  0  0  0  0
  140.9220   75.0500  220.5970 O   0  0  0  0  0  0  0  0  0  0  0  0
  139.9270   75.9900  222.4890 N   0  0  0  0  0  0  0  0  0  0  0  0
  139.1080   77.1330  222.0910 C   0  0  1  0  0  0  0  0  0  0  0  0
  137.6640   76.9220  222.5670 C   0  0  0  0  0  0  0  0  0  0  0  0
  137.4900   75.6210  223.0600 O   0  0  0  0  0  0  0  0  0  0  0  0
  139.6810   78.4140  222.6580 C   0  0  0  0  0  0  0  0  0  0  0  0
  138.8330   79.3640  223.2530 C   0  0  0  0  0  0  0  0  0  0  0  0
  139.3600   80.5410  223.7930 C   0  0  0  0  0  0  0  0  0  0  0  0
  140.7360   80.7790  223.7470 C   0  0  0  0  0  0  0  0  0  0  0  0
  141.5910   79.8370  223.1680 C   0  0  0  0  0  0  0  0  0  0  0  0
  143.3210   80.1310  223.1200 Cl  0  0  0  0  0  0  0  0  0  0  0  0
  141.0690   78.6560  222.6300 C   0  0  0  0  0  0  0  0  0  0  0  0
  137.0190   70.9660  223.7370 C   0  0  0  0  0  0  0  0  0  0  0  0
  136.5680   69.6910  224.1150 C   0  0  0  0  0  0  0  0  0  0  0  0
  137.3570   68.9010  224.9550 C   0  0  0  0  0  0  0  0  0  0  0  0
  138.5980   69.3760  225.3960 C   0  0  0  0  0  0  0  0  0  0  0  0
  139.4190   68.6080  226.2370 C   0  0  0  0  0  0  0  0  0  0  0  0
  140.6600   69.1060  226.6480 C   0  0  0  0  0  0  0  0  0  0  0  0
  141.4510   68.3640  227.4620 F   0  0  0  0  0  0  0  0  0  0  0  0
  141.0890   70.3660  226.2180 C   0  0  0  0  0  0  0  0  0  0  0  0
  140.2780   71.1370  225.3780 C   0  0  0  0  0  0  0  0  0  0  0  0
  139.0290   70.6530  224.9750 C   0  0  0  0  0  0  0  0  0  0  0  0
  138.2310   71.4060  224.1730 N   0  0  0  0  0  0  0  0  0  0  0  0
  137.2970   73.6420  223.1490 H   0  0  0  0  0  0  0  0  0  0  0  0
  135.6839   73.0777  220.6433 H   0  0  0  0  0  0  0  0  0  0  0  0
  136.2633   74.7022  221.1978 H   0  0  0  0  0  0  0  0  0  0  0  0
  138.7912   70.9743  220.1453 H   0  0  0  0  0  0  0  0  0  0  0  0
  140.0486   71.9101  219.3266 H   0  0  0  0  0  0  0  0  0  0  0  0
  141.4904   70.9262  220.9255 H   0  0  0  0  0  0  0  0  0  0  0  0
  139.1000   70.5880  222.4270 H   0  0  0  0  0  0  0  0  0  0  0  0
  140.8088   72.2577  223.3064 H   0  0  0  0  0  0  0  0  0  0  0  0
  141.7899   72.9897  222.0227 H   0  0  0  0  0  0  0  0  0  0  0  0
  139.0088   73.6412  222.8232 H   0  0  0  0  0  0  0  0  0  0  0  0
  139.1100   77.2169  220.9942 H   0  0  0  0  0  0  0  0  0  0  0  0
  137.4378   77.6440  223.3655 H   0  0  0  0  0  0  0  0  0  0  0  0
  136.9851   77.0709  221.7144 H   0  0  0  0  0  0  0  0  0  0  0  0
  138.3980   75.2340  223.1670 H   0  0  0  0  0  0  0  0  0  0  0  0
  137.7492   79.1805  223.2940 H   0  0  0  0  0  0  0  0  0  0  0  0
  138.6900   81.2811  224.2550 H   0  0  0  0  0  0  0  0  0  0  0  0
  141.1469   81.7089  224.1670 H   0  0  0  0  0  0  0  0  0  0  0  0
  141.7453   77.9125  222.1829 H   0  0  0  0  0  0  0  0  0  0  0  0
  135.5995   69.3165  223.7520 H   0  0  0  0  0  0  0  0  0  0  0  0
  137.0038   67.9078  225.2692 H   0  0  0  0  0  0  0  0  0  0  0  0
  139.0864   67.6147  226.5727 H   0  0  0  0  0  0  0  0  0  0  0  0
  142.0670   70.7520  226.5412 H   0  0  0  0  0  0  0  0  0  0  0  0
  140.6226   72.1236  225.0346 H   0  0  0  0  0  0  0  0  0  0  0  0
  1  2  2  0
  2  3  1  0
  3  4  1  0
  4  5  1  0
  5  6  2  0
  5  7  1  0
  7  8  1  0
  8  9  1  0
  9 10  1  0
  9 11  1  0
 11 12  1  0
 12 13  1  0
 13 14  2  0
 13 15  1  0
 15 16  1  0
 16 17  1  0
 17 18  1  0
 16 19  1  0
 19 20  2  0
 20 21  1  0
 21 22  2  0
 22 23  1  0
 23 24  1  0
 23 25  2  0
  2 26  1  0
 26 27  2  0
 27 28  1  0
 28 29  2  0
 29 30  1  0
 30 31  2  0
 31 32  1  0
 31 33  1  0
 33 34  2  0
 34 35  1  0
 35 36  2  0
 12  7  1  0
 25 19  1  0
 36 26  1  0
 35 29  1  0
  3 37  1  0
  4 38  1  0
  4 39  1  0
  8 40  1  0
  8 41  1  0
  9 42  1  6
 10 43  1  0
 11 44  1  0
 11 45  1  0
 12 46  1  1
 16 47  1  6
 17 48  1  0
 17 49  1  0
 18 50  1  0
 20 51  1  0
 21 52  1  0
 22 53  1  0
 25 54  1  0
 27 55  1  0
 28 56  1  0
 30 57  1  0
 33 58  1  0
 34 59  1  0
M  CHG  1  15  -1
M  END
>  <UniqueID>  (7) 
153

>  <SMILES>  (7) 
O=C(NCC(=O)N1C[C@H](O)C[C@H]1C(=O)[N-][C@@H](CO)c1cccc(Cl)c1)c1ccc2cc(F)ccc2n1

>  <Energy>  (7) 
60.99469250768789

>  <Genealogy>  (7) 
O=C(NCC(=O)N1C[C@H](O)C[C@H]1C(=O)[N-][C@@H](CO)c1cccc(Cl)c1)c1ccc2cc(F)ccc2n1 (protonated)
O=C(NCC(=O)N1C[C@H](O)C[C@H]1C(=O)[N-][C@@H](CO)c1cccc(Cl)c1)c1ccc2cc(F)ccc2n1 (3D coordinates assigned)
O=C(NCC(=O)N1C[C@H](O)C[C@H]1C(=O)[N-][C@@H](CO)c1cccc(Cl)c1)c1ccc2cc(F)ccc2n1 (nonaromatic ring conformer: 60.99469250768789 kcal/mol)

>  <smiles>  (7) 
O=C(NCC(=O)N1C[C@H](O)C[C@H]1C(=O)N[C@@H](CO)c1cccc(Cl)c1)c1ccc2cc(F)ccc2n1

>  <score_type>  (7) 
oracle

>  <origin>  (7) 
autodockgpu

>  <m_score__min__energy>  (7) 
-8.4800000000000004

>  <m_primary>  (7) 
energy

>  <meeko>  (7) 
{"free_energy": -6.33, "intermolecular_energy": -9.61, "internal_energy": -5.33, "cluster_size": 3, "cluster_id": 5, "rank_in_cluster": 3}

>  <energy>  (7) 
-6.93

>  <cluster_rmsd>  (7) 
1.83

>  <rmsd>  (7) 
268.84

>  <cluster>  (7) 
2

$$$$
VCSRFCBMABBACK-DHMKUKBTNA-M
     RDKit          3D

 59 62  0  0  0  0  0  0  0  0999 V2000
  136.6640   75.2500  220.4570 O   0  0  0  0  0  0  0  0  0  0  0  0
  137.3490   75.0330  221.4940 C   0  0  0  0  0  0  0  0  0  0  0  0
  137.0300   73.9240  222.3390 N   0  0  0  0  0  0  0  0  0  0  0  0
  135.6460   73.5140  222.5550 C   0  0  0  0  0  0  0  0  0  0  0  0
  135.4320   73.0120  223.9550 C   0  0  0  0  0  0  0  0  0  0  0  0
  135.4850   73.8220  224.9190 O   0  0  0  0  0  0  0  0  0  0  0  0
  135.2500   71.6120  224.2200 N   0  0  0  0  0  0  0  0  0  0  0  0
  133.9380   71.0340  224.4360 C   0  0  0  0  0  0  0  0  0  0  0  0
  134.1900   69.6740  225.0800 C   0  0  2  0  0  0  0  0  0  0  0  0
  133.9760   69.7610  226.4650 O   0  0  0  0  0  0  0  0  0  0  0  0
  135.6590   69.3360  224.7890 C   0  0  0  0  0  0  0  0  0  0  0  0
  136.3330   70.6510  224.3790 C   0  0  1  0  0  0  0  0  0  0  0  0
  137.0860   70.4880  223.0860 C   0  0  0  0  0  0  0  0  0  0  0  0
  136.7160   69.6200  222.2490 O   0  0  0  0  0  0  0  0  0  0  0  0
  138.2350   71.2990  222.8230 N   0  0  0  0  0  0  0  0  0  0  0  0
  139.6050   70.8260  223.0090 C   0  0  1  0  0  0  0  0  0  0  0  0
  140.5900   71.9510  222.6580 C   0  0  0  0  0  0  0  0  0  0  0  0
  139.9570   73.2000  222.7190 O   0  0  0  0  0  0  0  0  0  0  0  0
  139.8110   70.3540  224.4330 C   0  0  0  0  0  0  0  0  0  0  0  0
  139.5630   69.0130  224.7740 C   0  0  0  0  0  0  0  0  0  0  0  0
  139.7660   68.5690  226.0840 C   0  0  0  0  0  0  0  0  0  0  0  0
  140.2210   69.4560  227.0620 C   0  0  0  0  0  0  0  0  0  0  0  0
  140.4830   70.7890  226.7320 C   0  0  0  0  0  0  0  0  0  0  0  0
  141.0650   71.9010  227.9600 Cl  0  0  0  0  0  0  0  0  0  0  0  0
  140.2840   71.2370  225.4230 C   0  0  0  0  0  0  0  0  0  0  0  0
  138.4590   75.9310  221.8510 C   0  0  0  0  0  0  0  0  0  0  0  0
  139.7870   75.6200  221.5180 C   0  0  0  0  0  0  0  0  0  0  0  0
  140.8110   76.5060  221.8620 C   0  0  0  0  0  0  0  0  0  0  0  0
  140.5050   77.7060  222.5140 C   0  0  0  0  0  0  0  0  0  0  0  0
  141.5070   78.6220  222.8700 C   0  0  0  0  0  0  0  0  0  0  0  0
  141.1650   79.8190  223.5100 C   0  0  0  0  0  0  0  0  0  0  0  0
  142.1350   80.7020  223.8550 F   0  0  0  0  0  0  0  0  0  0  0  0
  139.8260   80.1090  223.7890 C   0  0  0  0  0  0  0  0  0  0  0  0
  138.8200   79.2020  223.4360 C   0  0  0  0  0  0  0  0  0  0  0  0
  139.1550   77.9960  222.8110 C   0  0  0  0  0  0  0  0  0  0  0  0
  138.1830   77.1060  222.4820 N   0  0  0  0  0  0  0  0  0  0  0  0
  137.8080   73.4460  222.8450 H   0  0  0  0  0  0  0  0  0  0  0  0
  134.9863   74.3766  222.3799 H   0  0  0  0  0  0  0  0  0  0  0  0
  135.4155   72.6963  221.8563 H   0  0  0  0  0  0  0  0  0  0  0  0
  133.3430   71.6719  225.1061 H   0  0  0  0  0  0  0  0  0  0  0  0
  133.3743   70.9411  223.4960 H   0  0  0  0  0  0  0  0  0  0  0  0
  133.5154   68.9003  224.6846 H   0  0  0  0  0  0  0  0  0  0  0  0
  133.9290   70.7290  226.6840 H   0  0  0  0  0  0  0  0  0  0  0  0
  136.1406   68.9262  225.6891 H   0  0  0  0  0  0  0  0  0  0  0  0
  135.7443   68.5797  223.9948 H   0  0  0  0  0  0  0  0  0  0  0  0
  137.0656   70.9794  225.1310 H   0  0  0  0  0  0  0  0  0  0  0  0
  139.7886   69.9730  222.3392 H   0  0  0  0  0  0  0  0  0  0  0  0
  141.4264   71.9347  223.3723 H   0  0  0  0  0  0  0  0  0  0  0  0
  140.9595   71.7912  221.6343 H   0  0  0  0  0  0  0  0  0  0  0  0
  139.0880   73.0560  223.1790 H   0  0  0  0  0  0  0  0  0  0  0  0
  139.2075   68.3097  224.0065 H   0  0  0  0  0  0  0  0  0  0  0  0
  139.5670   67.5191  226.3449 H   0  0  0  0  0  0  0  0  0  0  0  0
  140.3734   69.1053  228.0934 H   0  0  0  0  0  0  0  0  0  0  0  0
  140.4979   72.2846  225.1648 H   0  0  0  0  0  0  0  0  0  0  0  0
  140.0199   74.6840  220.9892 H   0  0  0  0  0  0  0  0  0  0  0  0
  141.8559   76.2609  221.6208 H   0  0  0  0  0  0  0  0  0  0  0  0
  142.5607   78.3994  222.6461 H   0  0  0  0  0  0  0  0  0  0  0  0
  139.5622   81.0533  224.2877 H   0  0  0  0  0  0  0  0  0  0  0  0
  137.7669   79.4373  223.6498 H   0  0  0  0  0  0  0  0  0  0  0  0
  1  2  2  0
  2  3  1  0
  3  4  1  0
  4  5  1  0
  5  6  2  0
  5  7  1  0
  7  8  1  0
  8  9  1  0
  9 10  1  0
  9 11  1  0
 11 12  1  0
 12 13  1  0
 13 14  2  0
 13 15  1  0
 15 16  1  0
 16 17  1  0
 17 18  1  0
 16 19  1  0
 19 20  2  0
 20 21  1  0
 21 22  2  0
 22 23  1  0
 23 24  1  0
 23 25  2  0
  2 26  1  0
 26 27  2  0
 27 28  1  0
 28 29  2  0
 29 30  1  0
 30 31  2  0
 31 32  1  0
 31 33  1  0
 33 34  2  0
 34 35  1  0
 35 36  2  0
 12  7  1  0
 25 19  1  0
 36 26  1  0
 35 29  1  0
  3 37  1  0
  4 38  1  0
  4 39  1  0
  8 40  1  0
  8 41  1  0
  9 42  1  6
 10 43  1  0
 11 44  1  0
 11 45  1  0
 12 46  1  1
 16 47  1  6
 17 48  1  0
 17 49  1  0
 18 50  1  0
 20 51  1  0
 21 52  1  0
 22 53  1  0
 25 54  1  0
 27 55  1  0
 28 56  1  0
 30 57  1  0
 33 58  1  0
 34 59  1  0
M  CHG  1  15  -1
M  END
>  <UniqueID>  (8) 
153

>  <SMILES>  (8) 
O=C(NCC(=O)N1C[C@H](O)C[C@H]1C(=O)[N-][C@@H](CO)c1cccc(Cl)c1)c1ccc2cc(F)ccc2n1

>  <Energy>  (8) 
60.99469250768789

>  <Genealogy>  (8) 
O=C(NCC(=O)N1C[C@H](O)C[C@H]1C(=O)[N-][C@@H](CO)c1cccc(Cl)c1)c1ccc2cc(F)ccc2n1 (protonated)
O=C(NCC(=O)N1C[C@H](O)C[C@H]1C(=O)[N-][C@@H](CO)c1cccc(Cl)c1)c1ccc2cc(F)ccc2n1 (3D coordinates assigned)
O=C(NCC(=O)N1C[C@H](O)C[C@H]1C(=O)[N-][C@@H](CO)c1cccc(Cl)c1)c1ccc2cc(F)ccc2n1 (nonaromatic ring conformer: 60.99469250768789 kcal/mol)

>  <smiles>  (8) 
O=C(NCC(=O)N1C[C@H](O)C[C@H]1C(=O)N[C@@H](CO)c1cccc(Cl)c1)c1ccc2cc(F)ccc2n1

>  <score_type>  (8) 
oracle

>  <origin>  (8) 
autodockgpu

>  <m_score__min__energy>  (8) 
-8.4800000000000004

>  <m_primary>  (8) 
energy

>  <meeko>  (8) 
{"free_energy": -8.26, "intermolecular_energy": -11.54, "internal_energy": -4.58, "cluster_size": 4, "cluster_id": 2, "rank_in_cluster": 1}

>  <energy>  (8) 
-6.41

>  <cluster_rmsd>  (8) 
1.65

>  <rmsd>  (8) 
268.66

>  <cluster>  (8) 
2

$$$$
VCSRFCBMABBACK-DHMKUKBTNA-M
     RDKit          3D

 59 62  0  0  0  0  0  0  0  0999 V2000
  137.8570   75.3390  222.3430 O   0  0  0  0  0  0  0  0  0  0  0  0
  138.8750   75.9000  221.8520 C   0  0  0  0  0  0  0  0  0  0  0  0
  139.6100   75.2550  220.8080 N   0  0  0  0  0  0  0  0  0  0  0  0
  139.7760   73.8060  220.7870 C   0  0  0  0  0  0  0  0  0  0  0  0
  141.0520   73.3860  221.4590 C   0  0  0  0  0  0  0  0  0  0  0  0
  141.0060   72.8620  222.6040 O   0  0  0  0  0  0  0  0  0  0  0  0
  142.3280   73.6490  220.8540 N   0  0  0  0  0  0  0  0  0  0  0  0
  143.2710   72.5890  220.5570 C   0  0  0  0  0  0  0  0  0  0  0  0
  144.6110   73.2840  220.3300 C   0  0  2  0  0  0  0  0  0  0  0  0
  145.4040   73.1650  221.4840 O   0  0  0  0  0  0  0  0  0  0  0  0
  144.2810   74.7590  220.0610 C   0  0  0  0  0  0  0  0  0  0  0  0
  142.8450   74.9770  220.5540 C   0  0  1  0  0  0  0  0  0  0  0  0
  142.0080   75.6380  219.4900 C   0  0  0  0  0  0  0  0  0  0  0  0
  141.4950   74.9430  218.5720 O   0  0  0  0  0  0  0  0  0  0  0  0
  141.8230   77.0570  219.5090 N   0  0  0  0  0  0  0  0  0  0  0  0
  141.3000   77.8090  218.3710 C   0  0  1  0  0  0  0  0  0  0  0  0
  139.7870   77.5780  218.2520 C   0  0  0  0  0  0  0  0  0  0  0  0
  139.1710   77.6760  219.5070 O   0  0  0  0  0  0  0  0  0  0  0  0
  141.6090   79.2830  218.5280 C   0  0  0  0  0  0  0  0  0  0  0  0
  142.5540   79.8990  217.6890 C   0  0  0  0  0  0  0  0  0  0  0  0
  142.8310   81.2640  217.8190 C   0  0  0  0  0  0  0  0  0  0  0  0
  142.1670   82.0240  218.7840 C   0  0  0  0  0  0  0  0  0  0  0  0
  141.2170   81.4250  219.6170 C   0  0  0  0  0  0  0  0  0  0  0  0
  140.3750   82.3850  220.8230 Cl  0  0  0  0  0  0  0  0  0  0  0  0
  140.9340   80.0620  219.4880 C   0  0  0  0  0  0  0  0  0  0  0  0
  139.3240   77.2040  222.3680 C   0  0  0  0  0  0  0  0  0  0  0  0
  138.4340   78.0800  223.0100 C   0  0  0  0  0  0  0  0  0  0  0  0
  138.9030   79.3030  223.4990 C   0  0  0  0  0  0  0  0  0  0  0  0
  140.2560   79.6340  223.3660 C   0  0  0  0  0  0  0  0  0  0  0  0
  140.7620   80.8510  223.8500 C   0  0  0  0  0  0  0  0  0  0  0  0
  142.1230   81.1460  223.7130 C   0  0  0  0  0  0  0  0  0  0  0  0
  142.6110   82.3220  224.1790 F   0  0  0  0  0  0  0  0  0  0  0  0
  142.9830   80.2280  223.1010 C   0  0  0  0  0  0  0  0  0  0  0  0
  142.4870   79.0130  222.6180 C   0  0  0  0  0  0  0  0  0  0  0  0
  141.1250   78.7170  222.7360 C   0  0  0  0  0  0  0  0  0  0  0  0
  140.6370   77.5440  222.2530 N   0  0  0  0  0  0  0  0  0  0  0  0
  140.0760   75.8510  220.0890 H   0  0  0  0  0  0  0  0  0  0  0  0
  138.9272   73.3418  221.3106 H   0  0  0  0  0  0  0  0  0  0  0  0
  139.8162   73.4794  219.7374 H   0  0  0  0  0  0  0  0  0  0  0  0
  143.3400   71.8884  221.4022 H   0  0  0  0  0  0  0  0  0  0  0  0
  142.9620   72.0034  219.6786 H   0  0  0  0  0  0  0  0  0  0  0  0
  145.1683   72.8402  219.4919 H   0  0  0  0  0  0  0  0  0  0  0  0
  145.5710   72.1950  221.6150 H   0  0  0  0  0  0  0  0  0  0  0  0
  144.9755   75.4109  220.6112 H   0  0  0  0  0  0  0  0  0  0  0  0
  144.3774   75.0013  218.9924 H   0  0  0  0  0  0  0  0  0  0  0  0
  142.8176   75.6361  221.4342 H   0  0  0  0  0  0  0  0  0  0  0  0
  141.7850   77.4560  217.4489 H   0  0  0  0  0  0  0  0  0  0  0  0
  139.3579   78.3350  217.5790 H   0  0  0  0  0  0  0  0  0  0  0  0
  139.6137   76.5686  217.8507 H   0  0  0  0  0  0  0  0  0  0  0  0
  139.8990   77.6680  220.1830 H   0  0  0  0  0  0  0  0  0  0  0  0
  143.0783   79.3045  216.9263 H   0  0  0  0  0  0  0  0  0  0  0  0
  143.5728   81.7392  217.1602 H   0  0  0  0  0  0  0  0  0  0  0  0
  142.3916   83.0957  218.8891 H   0  0  0  0  0  0  0  0  0  0  0  0
  140.1804   79.5955  220.1395 H   0  0  0  0  0  0  0  0  0  0  0  0
  137.3752   77.8060  223.1274 H   0  0  0  0  0  0  0  0  0  0  0  0
  138.2097   80.0036  223.9873 H   0  0  0  0  0  0  0  0  0  0  0  0
  140.0889   81.5722  224.3367 H   0  0  0  0  0  0  0  0  0  0  0  0
  144.0529   80.4626  222.9994 H   0  0  0  0  0  0  0  0  0  0  0  0
  143.1680   78.2900  222.1452 H   0  0  0  0  0  0  0  0  0  0  0  0
  1  2  2  0
  2  3  1  0
  3  4  1  0
  4  5  1  0
  5  6  2  0
  5  7  1  0
  7  8  1  0
  8  9  1  0
  9 10  1  0
  9 11  1  0
 11 12  1  0
 12 13  1  0
 13 14  2  0
 13 15  1  0
 15 16  1  0
 16 17  1  0
 17 18  1  0
 16 19  1  0
 19 20  2  0
 20 21  1  0
 21 22  2  0
 22 23  1  0
 23 24  1  0
 23 25  2  0
  2 26  1  0
 26 27  2  0
 27 28  1  0
 28 29  2  0
 29 30  1  0
 30 31  2  0
 31 32  1  0
 31 33  1  0
 33 34  2  0
 34 35  1  0
 35 36  2  0
 12  7  1  0
 25 19  1  0
 36 26  1  0
 35 29  1  0
  3 37  1  0
  4 38  1  0
  4 39  1  0
  8 40  1  0
  8 41  1  0
  9 42  1  6
 10 43  1  0
 11 44  1  0
 11 45  1  0
 12 46  1  1
 16 47  1  6
 17 48  1  0
 17 49  1  0
 18 50  1  0
 20 51  1  0
 21 52  1  0
 22 53  1  0
 25 54  1  0
 27 55  1  0
 28 56  1  0
 30 57  1  0
 33 58  1  0
 34 59  1  0
M  CHG  1  15  -1
M  END
>  <UniqueID>  (9) 
153

>  <SMILES>  (9) 
O=C(NCC(=O)N1C[C@H](O)C[C@H]1C(=O)[N-][C@@H](CO)c1cccc(Cl)c1)c1ccc2cc(F)ccc2n1

>  <Energy>  (9) 
60.99469250768789

>  <Genealogy>  (9) 
O=C(NCC(=O)N1C[C@H](O)C[C@H]1C(=O)[N-][C@@H](CO)c1cccc(Cl)c1)c1ccc2cc(F)ccc2n1 (protonated)
O=C(NCC(=O)N1C[C@H](O)C[C@H]1C(=O)[N-][C@@H](CO)c1cccc(Cl)c1)c1ccc2cc(F)ccc2n1 (3D coordinates assigned)
O=C(NCC(=O)N1C[C@H](O)C[C@H]1C(=O)[N-][C@@H](CO)c1cccc(Cl)c1)c1ccc2cc(F)ccc2n1 (nonaromatic ring conformer: 60.99469250768789 kcal/mol)

>  <smiles>  (9) 
O=C(NCC(=O)N1C[C@H](O)C[C@H]1C(=O)N[C@@H](CO)c1cccc(Cl)c1)c1ccc2cc(F)ccc2n1

>  <score_type>  (9) 
oracle

>  <origin>  (9) 
autodockgpu

>  <m_score__min__energy>  (9) 
-8.4800000000000004

>  <m_primary>  (9) 
energy

>  <meeko>  (9) 
{"free_energy": -5.76, "intermolecular_energy": -9.04, "internal_energy": -6.71, "cluster_size": 2, "cluster_id": 7, "rank_in_cluster": 1}

>  <energy>  (9) 
-7.58

>  <cluster_rmsd>  (9) 
0.0

>  <rmsd>  (9) 
269.77

>  <cluster>  (9) 
3

$$$$
VCSRFCBMABBACK-DHMKUKBTNA-M
     RDKit          3D

 59 62  0  0  0  0  0  0  0  0999 V2000
  136.5150   70.1350  222.1600 O   0  0  0  0  0  0  0  0  0  0  0  0
  137.4310   70.8080  222.7060 C   0  0  0  0  0  0  0  0  0  0  0  0
  137.7840   72.0910  222.1810 N   0  0  0  0  0  0  0  0  0  0  0  0
  137.7560   72.3520  220.7460 C   0  0  0  0  0  0  0  0  0  0  0  0
  138.9870   71.8240  220.0650 C   0  0  0  0  0  0  0  0  0  0  0  0
  139.0920   70.5880  219.8460 O   0  0  0  0  0  0  0  0  0  0  0  0
  140.0810   72.6960  219.7350 N   0  0  0  0  0  0  0  0  0  0  0  0
  140.1660   73.3720  218.4560 C   0  0  0  0  0  0  0  0  0  0  0  0
  141.6140   73.8380  218.3330 C   0  0  2  0  0  0  0  0  0  0  0  0
  142.3230   72.9560  217.5010 O   0  0  0  0  0  0  0  0  0  0  0  0
  142.1890   73.8030  219.7570 C   0  0  0  0  0  0  0  0  0  0  0  0
  141.2390   72.9310  220.5860 C   0  0  1  0  0  0  0  0  0  0  0  0
  140.8270   73.6390  221.8500 C   0  0  0  0  0  0  0  0  0  0  0  0
  140.2730   72.9920  222.7810 O   0  0  0  0  0  0  0  0  0  0  0  0
  141.0380   75.0480  221.9780 N   0  0  0  0  0  0  0  0  0  0  0  0
  140.2190   76.0450  221.2920 C   0  0  1  0  0  0  0  0  0  0  0  0
  138.7840   75.5200  221.1450 C   0  0  0  0  0  0  0  0  0  0  0  0
  138.3520   74.9210  222.3370 O   0  0  0  0  0  0  0  0  0  0  0  0
  140.2390   77.3550  222.0510 C   0  0  0  0  0  0  0  0  0  0  0  0
  139.0590   77.8540  222.6280 C   0  0  0  0  0  0  0  0  0  0  0  0
  139.0760   79.0550  223.3440 C   0  0  0  0  0  0  0  0  0  0  0  0
  140.2690   79.7660  223.4920 C   0  0  0  0  0  0  0  0  0  0  0  0
  141.4520   79.2740  222.9310 C   0  0  0  0  0  0  0  0  0  0  0  0
  142.9530   80.1630  223.1270 Cl  0  0  0  0  0  0  0  0  0  0  0  0
  141.4400   78.0720  222.2180 C   0  0  0  0  0  0  0  0  0  0  0  0
  138.1580   70.2650  223.8660 C   0  0  0  0  0  0  0  0  0  0  0  0
  138.1340   68.8940  224.1650 C   0  0  0  0  0  0  0  0  0  0  0  0
  138.8490   68.4150  225.2660 C   0  0  0  0  0  0  0  0  0  0  0  0
  139.6010   69.3010  226.0480 C   0  0  0  0  0  0  0  0  0  0  0  0
  140.3360   68.8550  227.1580 C   0  0  0  0  0  0  0  0  0  0  0  0
  141.0870   69.7640  227.9100 C   0  0  0  0  0  0  0  0  0  0  0  0
  141.7950   69.3320  228.9830 F   0  0  0  0  0  0  0  0  0  0  0  0
  141.1150   71.1170  227.5540 C   0  0  0  0  0  0  0  0  0  0  0  0
  140.3880   71.5690  226.4480 C   0  0  0  0  0  0  0  0  0  0  0  0
  139.6210   70.6700  225.7010 C   0  0  0  0  0  0  0  0  0  0  0  0
  138.8990   71.1080  224.6360 N   0  0  0  0  0  0  0  0  0  0  0  0
  138.1170   72.8230  222.8450 H   0  0  0  0  0  0  0  0  0  0  0  0
  136.8706   71.8648  220.3115 H   0  0  0  0  0  0  0  0  0  0  0  0
  137.7185   73.4409  220.5944 H   0  0  0  0  0  0  0  0  0  0  0  0
  139.9146   72.6801  217.6386 H   0  0  0  0  0  0  0  0  0  0  0  0
  139.4609   74.2140  218.3932 H   0  0  0  0  0  0  0  0  0  0  0  0
  141.6874   74.8447  217.8957 H   0  0  0  0  0  0  0  0  0  0  0  0
  141.8580   72.0800  217.5530 H   0  0  0  0  0  0  0  0  0  0  0  0
  143.1980   73.3651  219.7492 H   0  0  0  0  0  0  0  0  0  0  0  0
  142.2712   74.8156  220.1789 H   0  0  0  0  0  0  0  0  0  0  0  0
  141.7203   71.9906  220.8925 H   0  0  0  0  0  0  0  0  0  0  0  0
  140.6329   76.2273  220.2893 H   0  0  0  0  0  0  0  0  0  0  0  0
  138.1159   76.3586  220.8992 H   0  0  0  0  0  0  0  0  0  0  0  0
  138.7625   74.7679  220.3426 H   0  0  0  0  0  0  0  0  0  0  0  0
  139.1580   74.8070  222.9070 H   0  0  0  0  0  0  0  0  0  0  0  0
  138.1171   77.2970  222.5159 H   0  0  0  0  0  0  0  0  0  0  0  0
  138.1480   79.4405  223.7915 H   0  0  0  0  0  0  0  0  0  0  0  0
  140.2782   80.7138  224.0503 H   0  0  0  0  0  0  0  0  0  0  0  0
  142.3736   77.6837  221.7848 H   0  0  0  0  0  0  0  0  0  0  0  0
  137.5559   68.2006  223.5365 H   0  0  0  0  0  0  0  0  0  0  0  0
  138.8213   67.3446  225.5180 H   0  0  0  0  0  0  0  0  0  0  0  0
  140.3211   67.7908  227.4361 H   0  0  0  0  0  0  0  0  0  0  0  0
  141.7108   71.8274  228.1460 H   0  0  0  0  0  0  0  0  0  0  0  0
  140.4197   72.6317  226.1659 H   0  0  0  0  0  0  0  0  0  0  0  0
  1  2  2  0
  2  3  1  0
  3  4  1  0
  4  5  1  0
  5  6  2  0
  5  7  1  0
  7  8  1  0
  8  9  1  0
  9 10  1  0
  9 11  1  0
 11 12  1  0
 12 13  1  0
 13 14  2  0
 13 15  1  0
 15 16  1  0
 16 17  1  0
 17 18  1  0
 16 19  1  0
 19 20  2  0
 20 21  1  0
 21 22  2  0
 22 23  1  0
 23 24  1  0
 23 25  2  0
  2 26  1  0
 26 27  2  0
 27 28  1  0
 28 29  2  0
 29 30  1  0
 30 31  2  0
 31 32  1  0
 31 33  1  0
 33 34  2  0
 34 35  1  0
 35 36  2  0
 12  7  1  0
 25 19  1  0
 36 26  1  0
 35 29  1  0
  3 37  1  0
  4 38  1  0
  4 39  1  0
  8 40  1  0
  8 41  1  0
  9 42  1  6
 10 43  1  0
 11 44  1  0
 11 45  1  0
 12 46  1  1
 16 47  1  6
 17 48  1  0
 17 49  1  0
 18 50  1  0
 20 51  1  0
 21 52  1  0
 22 53  1  0
 25 54  1  0
 27 55  1  0
 28 56  1  0
 30 57  1  0
 33 58  1  0
 34 59  1  0
M  CHG  1  15  -1
M  END
>  <UniqueID>  (10) 
153

>  <SMILES>  (10) 
O=C(NCC(=O)N1C[C@H](O)C[C@H]1C(=O)[N-][C@@H](CO)c1cccc(Cl)c1)c1ccc2cc(F)ccc2n1

>  <Energy>  (10) 
60.99469250768789

>  <Genealogy>  (10) 
O=C(NCC(=O)N1C[C@H](O)C[C@H]1C(=O)[N-][C@@H](CO)c1cccc(Cl)c1)c1ccc2cc(F)ccc2n1 (protonated)
O=C(NCC(=O)N1C[C@H](O)C[C@H]1C(=O)[N-][C@@H](CO)c1cccc(Cl)c1)c1ccc2cc(F)ccc2n1 (3D coordinates assigned)
O=C(NCC(=O)N1C[C@H](O)C[C@H]1C(=O)[N-][C@@H](CO)c1cccc(Cl)c1)c1ccc2cc(F)ccc2n1 (nonaromatic ring conformer: 60.99469250768789 kcal/mol)

>  <smiles>  (10) 
O=C(NCC(=O)N1C[C@H](O)C[C@H]1C(=O)N[C@@H](CO)c1cccc(Cl)c1)c1ccc2cc(F)ccc2n1

>  <score_type>  (10) 
oracle

>  <origin>  (10) 
autodockgpu

>  <m_score__min__energy>  (10) 
-8.4800000000000004

>  <m_primary>  (10) 
energy

>  <meeko>  (10) 
{"free_energy": -7.21, "intermolecular_energy": -10.49, "internal_energy": -5.39, "cluster_size": 4, "cluster_id": 1, "rank_in_cluster": 3}

>  <energy>  (10) 
-6.95

>  <cluster_rmsd>  (10) 
0.0

>  <rmsd>  (10) 
268.56

>  <cluster>  (10) 
4

$$$$
VCSRFCBMABBACK-DHMKUKBTNA-M
     RDKit          3D

 59 62  0  0  0  0  0  0  0  0999 V2000
  140.1750   74.7160  222.0070 O   0  0  0  0  0  0  0  0  0  0  0  0
  139.4670   75.7170  221.7110 C   0  0  0  0  0  0  0  0  0  0  0  0
  138.3590   75.5670  220.8180 N   0  0  0  0  0  0  0  0  0  0  0  0
  138.4180   74.6410  219.6920 C   0  0  0  0  0  0  0  0  0  0  0  0
  139.3580   75.1280  218.6260 C   0  0  0  0  0  0  0  0  0  0  0  0
  138.9760   75.1470  217.4260 O   0  0  0  0  0  0  0  0  0  0  0  0
  140.7110   75.4920  218.9430 N   0  0  0  0  0  0  0  0  0  0  0  0
  141.7550   74.5010  219.1120 C   0  0  0  0  0  0  0  0  0  0  0  0
  142.8930   75.2210  219.8290 C   0  0  2  0  0  0  0  0  0  0  0  0
  142.8700   74.8950  221.1950 O   0  0  0  0  0  0  0  0  0  0  0  0
  142.6300   76.7210  219.6370 C   0  0  0  0  0  0  0  0  0  0  0  0
  141.1630   76.8520  219.2060 C   0  0  1  0  0  0  0  0  0  0  0  0
  141.0420   77.6950  217.9650 C   0  0  0  0  0  0  0  0  0  0  0  0
  142.0720   77.9820  217.2970 O   0  0  0  0  0  0  0  0  0  0  0  0
  139.7620   78.1940  217.5650 N   0  0  0  0  0  0  0  0  0  0  0  0
  139.0210   79.1970  218.3270 C   0  0  1  0  0  0  0  0  0  0  0  0
  138.2790   78.5190  219.4870 C   0  0  0  0  0  0  0  0  0  0  0  0
  137.6030   77.3750  219.0400 O   0  0  0  0  0  0  0  0  0  0  0  0
  139.9620   80.2670  218.8410 C   0  0  0  0  0  0  0  0  0  0  0  0
  139.8890   80.6870  220.1800 C   0  0  0  0  0  0  0  0  0  0  0  0
  140.7660   81.6630  220.6630 C   0  0  0  0  0  0  0  0  0  0  0  0
  141.7230   82.2250  219.8160 C   0  0  0  0  0  0  0  0  0  0  0  0
  141.8130   81.8080  218.4850 C   0  0  0  0  0  0  0  0  0  0  0  0
  143.0250   82.5070  217.4240 Cl  0  0  0  0  0  0  0  0  0  0  0  0
  140.9410   80.8290  217.9980 C   0  0  0  0  0  0  0  0  0  0  0  0
  139.7930   77.0440  222.2580 C   0  0  0  0  0  0  0  0  0  0  0  0
  138.8050   77.8580  222.8350 C   0  0  0  0  0  0  0  0  0  0  0  0
  139.1570   79.1050  223.3580 C   0  0  0  0  0  0  0  0  0  0  0  0
  140.4930   79.5240  223.3230 C   0  0  0  0  0  0  0  0  0  0  0  0
  140.8840   80.7680  223.8430 C   0  0  0  0  0  0  0  0  0  0  0  0
  142.2290   81.1500  223.8040 C   0  0  0  0  0  0  0  0  0  0  0  0
  142.6050   82.3530  224.3050 F   0  0  0  0  0  0  0  0  0  0  0  0
  143.1880   80.2920  223.2550 C   0  0  0  0  0  0  0  0  0  0  0  0
  142.8070   79.0500  222.7370 C   0  0  0  0  0  0  0  0  0  0  0  0
  141.4620   78.6670  222.7570 C   0  0  0  0  0  0  0  0  0  0  0  0
  141.0860   77.4680  222.2390 N   0  0  0  0  0  0  0  0  0  0  0  0
  137.5250   76.1780  220.9580 H   0  0  0  0  0  0  0  0  0  0  0  0
  138.7640   73.6612  220.0530 H   0  0  0  0  0  0  0  0  0  0  0  0
  137.4113   74.5648  219.2553 H   0  0  0  0  0  0  0  0  0  0  0  0
  141.3905   73.6592  219.7191 H   0  0  0  0  0  0  0  0  0  0  0  0
  142.0808   74.0849  218.1473 H   0  0  0  0  0  0  0  0  0  0  0  0
  143.8772   74.9330  219.4310 H   0  0  0  0  0  0  0  0  0  0  0  0
  142.2240   75.5160  221.6240 H   0  0  0  0  0  0  0  0  0  0  0  0
  142.7990   77.2607  220.5805 H   0  0  0  0  0  0  0  0  0  0  0  0
  143.3068   77.1513  218.8841 H   0  0  0  0  0  0  0  0  0  0  0  0
  140.5574   77.3433  219.9818 H   0  0  0  0  0  0  0  0  0  0  0  0
  138.2826   79.6799  217.6701 H   0  0  0  0  0  0  0  0  0  0  0  0
  139.0054   78.2302  220.2609 H   0  0  0  0  0  0  0  0  0  0  0  0
  137.5442   79.2263  219.8991 H   0  0  0  0  0  0  0  0  0  0  0  0
  138.1440   76.9960  218.2980 H   0  0  0  0  0  0  0  0  0  0  0  0
  139.1380   80.2456  220.8517 H   0  0  0  0  0  0  0  0  0  0  0  0
  140.7018   81.9885  221.7118 H   0  0  0  0  0  0  0  0  0  0  0  0
  142.4074   82.9974  220.1968 H   0  0  0  0  0  0  0  0  0  0  0  0
  141.0198   80.4964  216.9525 H   0  0  0  0  0  0  0  0  0  0  0  0
  137.7603   77.5161  222.8751 H   0  0  0  0  0  0  0  0  0  0  0  0
  138.3864   79.7563  223.7963 H   0  0  0  0  0  0  0  0  0  0  0  0
  140.1330   81.4420  224.2809 H   0  0  0  0  0  0  0  0  0  0  0  0
  144.2451   80.5952  223.2307 H   0  0  0  0  0  0  0  0  0  0  0  0
  143.5651   78.3745  222.3139 H   0  0  0  0  0  0  0  0  0  0  0  0
  1  2  2  0
  2  3  1  0
  3  4  1  0
  4  5  1  0
  5  6  2  0
  5  7  1  0
  7  8  1  0
  8  9  1  0
  9 10  1  0
  9 11  1  0
 11 12  1  0
 12 13  1  0
 13 14  2  0
 13 15  1  0
 15 16  1  0
 16 17  1  0
 17 18  1  0
 16 19  1  0
 19 20  2  0
 20 21  1  0
 21 22  2  0
 22 23  1  0
 23 24  1  0
 23 25  2  0
  2 26  1  0
 26 27  2  0
 27 28  1  0
 28 29  2  0
 29 30  1  0
 30 31  2  0
 31 32  1  0
 31 33  1  0
 33 34  2  0
 34 35  1  0
 35 36  2  0
 12  7  1  0
 25 19  1  0
 36 26  1  0
 35 29  1  0
  3 37  1  0
  4 38  1  0
  4 39  1  0
  8 40  1  0
  8 41  1  0
  9 42  1  6
 10 43  1  0
 11 44  1  0
 11 45  1  0
 12 46  1  1
 16 47  1  6
 17 48  1  0
 17 49  1  0
 18 50  1  0
 20 51  1  0
 21 52  1  0
 22 53  1  0
 25 54  1  0
 27 55  1  0
 28 56  1  0
 30 57  1  0
 33 58  1  0
 34 59  1  0
M  CHG  1  15  -1
M  END
>  <UniqueID>  (11) 
153

>  <SMILES>  (11) 
O=C(NCC(=O)N1C[C@H](O)C[C@H]1C(=O)[N-][C@@H](CO)c1cccc(Cl)c1)c1ccc2cc(F)ccc2n1

>  <Energy>  (11) 
60.99469250768789

>  <Genealogy>  (11) 
O=C(NCC(=O)N1C[C@H](O)C[C@H]1C(=O)[N-][C@@H](CO)c1cccc(Cl)c1)c1ccc2cc(F)ccc2n1 (protonated)
O=C(NCC(=O)N1C[C@H](O)C[C@H]1C(=O)[N-][C@@H](CO)c1cccc(Cl)c1)c1ccc2cc(F)ccc2n1 (3D coordinates assigned)
O=C(NCC(=O)N1C[C@H](O)C[C@H]1C(=O)[N-][C@@H](CO)c1cccc(Cl)c1)c1ccc2cc(F)ccc2n1 (nonaromatic ring conformer: 60.99469250768789 kcal/mol)

>  <smiles>  (11) 
O=C(NCC(=O)N1C[C@H](O)C[C@H]1C(=O)N[C@@H](CO)c1cccc(Cl)c1)c1ccc2cc(F)ccc2n1

>  <score_type>  (11) 
oracle

>  <origin>  (11) 
autodockgpu

>  <m_score__min__energy>  (11) 
-8.4800000000000004

>  <m_primary>  (11) 
energy

>  <meeko>  (11) 
{"free_energy": -4.28, "intermolecular_energy": -7.56, "internal_energy": -7.27, "cluster_size": 2, "cluster_id": 7, "rank_in_cluster": 2}

>  <energy>  (11) 
-6.61

>  <cluster_rmsd>  (11) 
0.0

>  <rmsd>  (11) 
269.2

>  <cluster>  (11) 
5

$$$$
VCSRFCBMABBACK-DHMKUKBTNA-M
     RDKit          3D

 59 62  0  0  0  0  0  0  0  0999 V2000
  135.3300   71.3020  222.2420 O   0  0  0  0  0  0  0  0  0  0  0  0
  136.3920   71.7540  222.7510 C   0  0  0  0  0  0  0  0  0  0  0  0
  136.8650   73.0510  222.3780 N   0  0  0  0  0  0  0  0  0  0  0  0
  136.7090   73.5490  221.0150 C   0  0  0  0  0  0  0  0  0  0  0  0
  137.9750   73.3890  220.2210 C   0  0  0  0  0  0  0  0  0  0  0  0
  138.0320   73.8460  219.0490 O   0  0  0  0  0  0  0  0  0  0  0  0
  139.0900   72.6520  220.7470 N   0  0  0  0  0  0  0  0  0  0  0  0
  139.4990   71.3770  220.1910 C   0  0  0  0  0  0  0  0  0  0  0  0
  140.4020   70.7410  221.2440 C   0  0  2  0  0  0  0  0  0  0  0  0
  139.6780   69.7780  221.9660 O   0  0  0  0  0  0  0  0  0  0  0  0
  140.8380   71.8840  222.1710 C   0  0  0  0  0  0  0  0  0  0  0  0
  139.8660   73.0430  221.9160 C   0  0  1  0  0  0  0  0  0  0  0  0
  140.6140   74.3210  221.6460 C   0  0  0  0  0  0  0  0  0  0  0  0
  141.5710   74.3270  220.8250 O   0  0  0  0  0  0  0  0  0  0  0  0
  140.2560   75.5180  222.3440 N   0  0  0  0  0  0  0  0  0  0  0  0
  139.6440   76.6720  221.6890 C   0  0  1  0  0  0  0  0  0  0  0  0
  138.1220   76.4870  221.6350 C   0  0  0  0  0  0  0  0  0  0  0  0
  137.6800   75.7050  222.7110 O   0  0  0  0  0  0  0  0  0  0  0  0
  140.0070   77.9460  222.4230 C   0  0  0  0  0  0  0  0  0  0  0  0
  139.0280   78.6450  223.1500 C   0  0  0  0  0  0  0  0  0  0  0  0
  139.3630   79.8130  223.8420 C   0  0  0  0  0  0  0  0  0  0  0  0
  140.6750   80.2910  223.8180 C   0  0  0  0  0  0  0  0  0  0  0  0
  141.6600   79.5980  223.1080 C   0  0  0  0  0  0  0  0  0  0  0  0
  143.3120   80.1930  223.0870 Cl  0  0  0  0  0  0  0  0  0  0  0  0
  141.3320   78.4280  222.4170 C   0  0  0  0  0  0  0  0  0  0  0  0
  137.1620   70.9390  223.7050 C   0  0  0  0  0  0  0  0  0  0  0  0
  136.7350   69.6540  224.0780 C   0  0  0  0  0  0  0  0  0  0  0  0
  137.5010   68.9060  224.9750 C   0  0  0  0  0  0  0  0  0  0  0  0
  138.6970   69.4310  225.4780 C   0  0  0  0  0  0  0  0  0  0  0  0
  139.4940   68.7060  226.3770 C   0  0  0  0  0  0  0  0  0  0  0  0
  140.6910   69.2550  226.8510 C   0  0  0  0  0  0  0  0  0  0  0  0
  141.4600   68.5540  227.7210 F   0  0  0  0  0  0  0  0  0  0  0  0
  141.0990   70.5230  226.4240 C   0  0  0  0  0  0  0  0  0  0  0  0
  140.3120   71.2520  225.5270 C   0  0  0  0  0  0  0  0  0  0  0  0
  139.1060   70.7170  225.0610 C   0  0  0  0  0  0  0  0  0  0  0  0
  138.3300   71.4290  224.2020 N   0  0  0  0  0  0  0  0  0  0  0  0
  137.3770   73.6150  223.0910 H   0  0  0  0  0  0  0  0  0  0  0  0
  135.9032   72.9876  220.5195 H   0  0  0  0  0  0  0  0  0  0  0  0
  136.4666   74.6208  221.0652 H   0  0  0  0  0  0  0  0  0  0  0  0
  138.6215   70.7409  220.0028 H   0  0  0  0  0  0  0  0  0  0  0  0
  140.0190   71.5002  219.2295 H   0  0  0  0  0  0  0  0  0  0  0  0
  141.2704   70.2390  220.7925 H   0  0  0  0  0  0  0  0  0  0  0  0
  139.2060   70.2640  222.6920 H   0  0  0  0  0  0  0  0  0  0  0  0
  140.7813   71.5642  223.2220 H   0  0  0  0  0  0  0  0  0  0  0  0
  141.8774   72.1842  221.9724 H   0  0  0  0  0  0  0  0  0  0  0  0
  139.2253   73.2305  222.7902 H   0  0  0  0  0  0  0  0  0  0  0  0
  140.0261   76.7512  220.6606 H   0  0  0  0  0  0  0  0  0  0  0  0
  137.6364   77.4729  221.6816 H   0  0  0  0  0  0  0  0  0  0  0  0
  137.8606   75.9771  220.6960 H   0  0  0  0  0  0  0  0  0  0  0  0
  138.4860   75.2810  223.1050 H   0  0  0  0  0  0  0  0  0  0  0  0
  137.9936   78.2715  223.1747 H   0  0  0  0  0  0  0  0  0  0  0  0
  138.5913   80.3567  224.4067 H   0  0  0  0  0  0  0  0  0  0  0  0
  140.9336   81.2136  224.3582 H   0  0  0  0  0  0  0  0  0  0  0  0
  142.1112   77.8808  221.8661 H   0  0  0  0  0  0  0  0  0  0  0  0
  135.8031   69.2393  223.6663 H   0  0  0  0  0  0  0  0  0  0  0  0
  137.1648   67.9058  225.2857 H   0  0  0  0  0  0  0  0  0  0  0  0
  139.1780   67.7061  226.7092 H   0  0  0  0  0  0  0  0  0  0  0  0
  142.0429   70.9485  226.7954 H   0  0  0  0  0  0  0  0  0  0  0  0
  140.6408   72.2454  225.1879 H   0  0  0  0  0  0  0  0  0  0  0  0
  1  2  2  0
  2  3  1  0
  3  4  1  0
  4  5  1  0
  5  6  2  0
  5  7  1  0
  7  8  1  0
  8  9  1  0
  9 10  1  0
  9 11  1  0
 11 12  1  0
 12 13  1  0
 13 14  2  0
 13 15  1  0
 15 16  1  0
 16 17  1  0
 17 18  1  0
 16 19  1  0
 19 20  2  0
 20 21  1  0
 21 22  2  0
 22 23  1  0
 23 24  1  0
 23 25  2  0
  2 26  1  0
 26 27  2  0
 27 28  1  0
 28 29  2  0
 29 30  1  0
 30 31  2  0
 31 32  1  0
 31 33  1  0
 33 34  2  0
 34 35  1  0
 35 36  2  0
 12  7  1  0
 25 19  1  0
 36 26  1  0
 35 29  1  0
  3 37  1  0
  4 38  1  0
  4 39  1  0
  8 40  1  0
  8 41  1  0
  9 42  1  6
 10 43  1  0
 11 44  1  0
 11 45  1  0
 12 46  1  1
 16 47  1  6
 17 48  1  0
 17 49  1  0
 18 50  1  0
 20 51  1  0
 21 52  1  0
 22 53  1  0
 25 54  1  0
 27 55  1  0
 28 56  1  0
 30 57  1  0
 33 58  1  0
 34 59  1  0
M  CHG  1  15  -1
M  END
>  <UniqueID>  (12) 
153

>  <SMILES>  (12) 
O=C(NCC(=O)N1C[C@H](O)C[C@H]1C(=O)[N-][C@@H](CO)c1cccc(Cl)c1)c1ccc2cc(F)ccc2n1

>  <Energy>  (12) 
60.99469250768789

>  <Genealogy>  (12) 
O=C(NCC(=O)N1C[C@H](O)C[C@H]1C(=O)[N-][C@@H](CO)c1cccc(Cl)c1)c1ccc2cc(F)ccc2n1 (protonated)
O=C(NCC(=O)N1C[C@H](O)C[C@H]1C(=O)[N-][C@@H](CO)c1cccc(Cl)c1)c1ccc2cc(F)ccc2n1 (3D coordinates assigned)
O=C(NCC(=O)N1C[C@H](O)C[C@H]1C(=O)[N-][C@@H](CO)c1cccc(Cl)c1)c1ccc2cc(F)ccc2n1 (nonaromatic ring conformer: 60.99469250768789 kcal/mol)

>  <smiles>  (12) 
O=C(NCC(=O)N1C[C@H](O)C[C@H]1C(=O)N[C@@H](CO)c1cccc(Cl)c1)c1ccc2cc(F)ccc2n1

>  <score_type>  (12) 
oracle

>  <origin>  (12) 
autodockgpu

>  <m_score__min__energy>  (12) 
-8.4800000000000004

>  <m_primary>  (12) 
energy

>  <meeko>  (12) 
{"free_energy": -6.57, "intermolecular_energy": -9.85, "internal_energy": -5.39, "cluster_size": 3, "cluster_id": 5, "rank_in_cluster": 2}

>  <energy>  (12) 
-6.57

>  <cluster_rmsd>  (12) 
0.16

>  <rmsd>  (12) 
269.21

>  <cluster>  (12) 
5

$$$$
VCSRFCBMABBACK-DHMKUKBTNA-M
     RDKit          3D

 59 62  0  0  0  0  0  0  0  0999 V2000
  135.3110   71.4520  222.3620 O   0  0  0  0  0  0  0  0  0  0  0  0
  136.4350   71.8190  222.8030 C   0  0  0  0  0  0  0  0  0  0  0  0
  136.9870   73.0730  222.3920 N   0  0  0  0  0  0  0  0  0  0  0  0
  136.7890   73.5760  221.0360 C   0  0  0  0  0  0  0  0  0  0  0  0
  138.0130   73.3730  220.1890 C   0  0  0  0  0  0  0  0  0  0  0  0
  138.0080   73.7630  218.9910 O   0  0  0  0  0  0  0  0  0  0  0  0
  139.1560   72.6670  220.6970 N   0  0  0  0  0  0  0  0  0  0  0  0
  139.6020   71.4130  220.1230 C   0  0  0  0  0  0  0  0  0  0  0  0
  140.5350   70.7950  221.1610 C   0  0  2  0  0  0  0  0  0  0  0  0
  139.8500   69.8010  221.8780 O   0  0  0  0  0  0  0  0  0  0  0  0
  140.9410   71.9420  222.0980 C   0  0  0  0  0  0  0  0  0  0  0  0
  139.9290   73.0710  221.8630 C   0  0  1  0  0  0  0  0  0  0  0  0
  140.6320   74.3760  221.6020 C   0  0  0  0  0  0  0  0  0  0  0  0
  141.5640   74.4290  220.7530 O   0  0  0  0  0  0  0  0  0  0  0  0
  140.2610   75.5460  222.3380 N   0  0  0  0  0  0  0  0  0  0  0  0
  139.5760   76.6860  221.7330 C   0  0  1  0  0  0  0  0  0  0  0  0
  138.0580   76.4650  221.7930 C   0  0  0  0  0  0  0  0  0  0  0  0
  137.7130   75.6950  222.9130 O   0  0  0  0  0  0  0  0  0  0  0  0
  139.9620   77.9670  222.4410 C   0  0  0  0  0  0  0  0  0  0  0  0
  138.9930   78.7080  223.1390 C   0  0  0  0  0  0  0  0  0  0  0  0
  139.3500   79.8840  223.8070 C   0  0  0  0  0  0  0  0  0  0  0  0
  140.6740   80.3280  223.7880 C   0  0  0  0  0  0  0  0  0  0  0  0
  141.6490   79.5930  223.1060 C   0  0  0  0  0  0  0  0  0  0  0  0
  143.3160   80.1450  223.0910 Cl  0  0  0  0  0  0  0  0  0  0  0  0
  141.2980   78.4150  222.4400 C   0  0  0  0  0  0  0  0  0  0  0  0
  137.1930   70.9480  223.7160 C   0  0  0  0  0  0  0  0  0  0  0  0
  136.6950   69.6970  224.1130 C   0  0  0  0  0  0  0  0  0  0  0  0
  137.4510   68.8930  224.9700 C   0  0  0  0  0  0  0  0  0  0  0  0
  138.7070   69.3300  225.4080 C   0  0  0  0  0  0  0  0  0  0  0  0
  139.4960   68.5470  226.2650 C   0  0  0  0  0  0  0  0  0  0  0  0
  140.7530   69.0070  226.6730 C   0  0  0  0  0  0  0  0  0  0  0  0
  141.5140   68.2510  227.5030 F   0  0  0  0  0  0  0  0  0  0  0  0
  141.2290   70.2430  226.2240 C   0  0  0  0  0  0  0  0  0  0  0  0
  140.4500   71.0290  225.3680 C   0  0  0  0  0  0  0  0  0  0  0  0
  139.1850   70.5840  224.9680 C   0  0  0  0  0  0  0  0  0  0  0  0
  138.4180   71.3520  224.1500 N   0  0  0  0  0  0  0  0  0  0  0  0
  137.5840   73.5970  223.0680 H   0  0  0  0  0  0  0  0  0  0  0  0
  135.9440   73.0422  220.5766 H   0  0  0  0  0  0  0  0  0  0  0  0
  136.5852   74.6554  221.0947 H   0  0  0  0  0  0  0  0  0  0  0  0
  138.7444   70.7504  219.9348 H   0  0  0  0  0  0  0  0  0  0  0  0
  140.1093   71.5644  219.1588 H   0  0  0  0  0  0  0  0  0  0  0  0
  141.4153   70.3270  220.6962 H   0  0  0  0  0  0  0  0  0  0  0  0
  139.2020   70.2710  222.4660 H   0  0  0  0  0  0  0  0  0  0  0  0
  140.9032   71.6090  223.1457 H   0  0  0  0  0  0  0  0  0  0  0  0
  141.9685   72.2784  221.8952 H   0  0  0  0  0  0  0  0  0  0  0  0
  139.2895   73.2280  222.7442 H   0  0  0  0  0  0  0  0  0  0  0  0
  139.8792   76.7751  220.6794 H   0  0  0  0  0  0  0  0  0  0  0  0
  137.5533   77.4404  221.8560 H   0  0  0  0  0  0  0  0  0  0  0  0
  137.7424   75.9299  220.8852 H   0  0  0  0  0  0  0  0  0  0  0  0
  138.5280   75.1900  223.1720 H   0  0  0  0  0  0  0  0  0  0  0  0
  137.9492   78.3616  223.1601 H   0  0  0  0  0  0  0  0  0  0  0  0
  138.5858   80.4607  224.3488 H   0  0  0  0  0  0  0  0  0  0  0  0
  140.9501   81.2562  224.3097 H   0  0  0  0  0  0  0  0  0  0  0  0
  142.0691   77.8346  221.9122 H   0  0  0  0  0  0  0  0  0  0  0  0
  135.7152   69.3516  223.7515 H   0  0  0  0  0  0  0  0  0  0  0  0
  137.0603   67.9190  225.2998 H   0  0  0  0  0  0  0  0  0  0  0  0
  139.1264   67.5721  226.6158 H   0  0  0  0  0  0  0  0  0  0  0  0
  142.2193   70.5984  226.5450 H   0  0  0  0  0  0  0  0  0  0  0  0
  140.8317   71.9964  225.0096 H   0  0  0  0  0  0  0  0  0  0  0  0
  1  2  2  0
  2  3  1  0
  3  4  1  0
  4  5  1  0
  5  6  2  0
  5  7  1  0
  7  8  1  0
  8  9  1  0
  9 10  1  0
  9 11  1  0
 11 12  1  0
 12 13  1  0
 13 14  2  0
 13 15  1  0
 15 16  1  0
 16 17  1  0
 17 18  1  0
 16 19  1  0
 19 20  2  0
 20 21  1  0
 21 22  2  0
 22 23  1  0
 23 24  1  0
 23 25  2  0
  2 26  1  0
 26 27  2  0
 27 28  1  0
 28 29  2  0
 29 30  1  0
 30 31  2  0
 31 32  1  0
 31 33  1  0
 33 34  2  0
 34 35  1  0
 35 36  2  0
 12  7  1  0
 25 19  1  0
 36 26  1  0
 35 29  1  0
  3 37  1  0
  4 38  1  0
  4 39  1  0
  8 40  1  0
  8 41  1  0
  9 42  1  6
 10 43  1  0
 11 44  1  0
 11 45  1  0
 12 46  1  1
 16 47  1  6
 17 48  1  0
 17 49  1  0
 18 50  1  0
 20 51  1  0
 21 52  1  0
 22 53  1  0
 25 54  1  0
 27 55  1  0
 28 56  1  0
 30 57  1  0
 33 58  1  0
 34 59  1  0
M  CHG  1  15  -1
M  END
>  <UniqueID>  (13) 
153

>  <SMILES>  (13) 
O=C(NCC(=O)N1C[C@H](O)C[C@H]1C(=O)[N-][C@@H](CO)c1cccc(Cl)c1)c1ccc2cc(F)ccc2n1

>  <Energy>  (13) 
60.99469250768789

>  <Genealogy>  (13) 
O=C(NCC(=O)N1C[C@H](O)C[C@H]1C(=O)[N-][C@@H](CO)c1cccc(Cl)c1)c1ccc2cc(F)ccc2n1 (protonated)
O=C(NCC(=O)N1C[C@H](O)C[C@H]1C(=O)[N-][C@@H](CO)c1cccc(Cl)c1)c1ccc2cc(F)ccc2n1 (3D coordinates assigned)
O=C(NCC(=O)N1C[C@H](O)C[C@H]1C(=O)[N-][C@@H](CO)c1cccc(Cl)c1)c1ccc2cc(F)ccc2n1 (nonaromatic ring conformer: 60.99469250768789 kcal/mol)

>  <smiles>  (13) 
O=C(NCC(=O)N1C[C@H](O)C[C@H]1C(=O)N[C@@H](CO)c1cccc(Cl)c1)c1ccc2cc(F)ccc2n1

>  <score_type>  (13) 
oracle

>  <origin>  (13) 
autodockgpu

>  <m_score__min__energy>  (13) 
-8.4800000000000004

>  <m_primary>  (13) 
energy

>  <meeko>  (13) 
{"free_energy": -6.61, "intermolecular_energy": -9.89, "internal_energy": -5.35, "cluster_size": 3, "cluster_id": 5, "rank_in_cluster": 1}

>  <energy>  (13) 
-6.33

>  <cluster_rmsd>  (13) 
0.43

>  <rmsd>  (13) 
269.24

>  <cluster>  (13) 
5

$$$$
VCSRFCBMABBACK-DHMKUKBTNA-M
     RDKit          3D

 59 62  0  0  0  0  0  0  0  0999 V2000
  144.5880   73.6530  218.2870 O   0  0  0  0  0  0  0  0  0  0  0  0
  144.0250   74.5110  219.0200 C   0  0  0  0  0  0  0  0  0  0  0  0
  143.7930   74.2260  220.4020 N   0  0  0  0  0  0  0  0  0  0  0  0
  143.4460   72.8800  220.8460 C   0  0  0  0  0  0  0  0  0  0  0  0
  141.9690   72.6260  220.7370 C   0  0  0  0  0  0  0  0  0  0  0  0
  141.5000   71.5250  221.1290 O   0  0  0  0  0  0  0  0  0  0  0  0
  141.0980   73.5840  220.1150 N   0  0  0  0  0  0  0  0  0  0  0  0
  140.4610   73.3290  218.8380 C   0  0  0  0  0  0  0  0  0  0  0  0
  139.9850   74.6900  218.3380 C   0  0  2  0  0  0  0  0  0  0  0  0
  140.8850   75.1800  217.3770 O   0  0  0  0  0  0  0  0  0  0  0  0
  139.9700   75.6090  219.5680 C   0  0  0  0  0  0  0  0  0  0  0  0
  140.8250   74.9160  220.6360 C   0  0  1  0  0  0  0  0  0  0  0  0
  140.0820   74.8270  221.9430 C   0  0  0  0  0  0  0  0  0  0  0  0
  139.6370   73.7150  222.3380 O   0  0  0  0  0  0  0  0  0  0  0  0
  139.8590   76.0090  222.7180 N   0  0  0  0  0  0  0  0  0  0  0  0
  139.0610   77.1370  222.2420 C   0  0  1  0  0  0  0  0  0  0  0  0
  137.6090   76.9760  222.7120 C   0  0  0  0  0  0  0  0  0  0  0  0
  137.3770   75.6700  223.1650 O   0  0  0  0  0  0  0  0  0  0  0  0
  139.6470   78.4420  222.7380 C   0  0  0  0  0  0  0  0  0  0  0  0
  138.8100   79.4280  223.2870 C   0  0  0  0  0  0  0  0  0  0  0  0
  139.3490   80.6280  223.7610 C   0  0  0  0  0  0  0  0  0  0  0  0
  140.7260   80.8530  223.6960 C   0  0  0  0  0  0  0  0  0  0  0  0
  141.5700   79.8740  223.1630 C   0  0  0  0  0  0  0  0  0  0  0  0
  143.3030   80.1530  223.0900 Cl  0  0  0  0  0  0  0  0  0  0  0  0
  141.0370   78.6720  222.6900 C   0  0  0  0  0  0  0  0  0  0  0  0
  143.5820   75.7950  218.4520 C   0  0  0  0  0  0  0  0  0  0  0  0
  143.7560   76.0890  217.0900 C   0  0  0  0  0  0  0  0  0  0  0  0
  143.3080   77.3130  216.5860 C   0  0  0  0  0  0  0  0  0  0  0  0
  142.6700   78.2250  217.4350 C   0  0  0  0  0  0  0  0  0  0  0  0
  142.2030   79.4620  216.9620 C   0  0  0  0  0  0  0  0  0  0  0  0
  141.5570   80.3450  217.8340 C   0  0  0  0  0  0  0  0  0  0  0  0
  141.1070   81.5400  217.3770 F   0  0  0  0  0  0  0  0  0  0  0  0
  141.3690   79.9960  219.1760 C   0  0  0  0  0  0  0  0  0  0  0  0
  141.8300   78.7660  219.6550 C   0  0  0  0  0  0  0  0  0  0  0  0
  142.4910   77.8840  218.7940 C   0  0  0  0  0  0  0  0  0  0  0  0
  142.9550   76.6940  219.2590 N   0  0  0  0  0  0  0  0  0  0  0  0
  143.8220   75.0160  221.0830 H   0  0  0  0  0  0  0  0  0  0  0  0
  143.9811   72.1491  220.2220 H   0  0  0  0  0  0  0  0  0  0  0  0
  143.7355   72.7805  221.9025 H   0  0  0  0  0  0  0  0  0  0  0  0
  141.1803   72.8902  218.1309 H   0  0  0  0  0  0  0  0  0  0  0  0
  139.6285   72.6164  218.9334 H   0  0  0  0  0  0  0  0  0  0  0  0
  138.9915   74.6315  217.8694 H   0  0  0  0  0  0  0  0  0  0  0  0
  141.4700   75.8330  217.8430 H   0  0  0  0  0  0  0  0  0  0  0  0
  140.3984   76.5901  219.3152 H   0  0  0  0  0  0  0  0  0  0  0  0
  138.9441   75.7789  219.9266 H   0  0  0  0  0  0  0  0  0  0  0  0
  141.7507   75.4757  220.8358 H   0  0  0  0  0  0  0  0  0  0  0  0
  139.0760   77.1540  221.1422 H   0  0  0  0  0  0  0  0  0  0  0  0
  137.4145   77.6826  223.5323 H   0  0  0  0  0  0  0  0  0  0  0  0
  136.9381   77.1809  221.8647 H   0  0  0  0  0  0  0  0  0  0  0  0
  138.2510   75.1990  223.1340 H   0  0  0  0  0  0  0  0  0  0  0  0
  137.7252   79.2550  223.3442 H   0  0  0  0  0  0  0  0  0  0  0  0
  138.6869   81.3967  224.1861 H   0  0  0  0  0  0  0  0  0  0  0  0
  141.1464   81.8005  224.0642 H   0  0  0  0  0  0  0  0  0  0  0  0
  141.7053   77.9015  222.2782 H   0  0  0  0  0  0  0  0  0  0  0  0
  144.2418   75.3606  216.4241 H   0  0  0  0  0  0  0  0  0  0  0  0
  143.4564   77.5593  215.5243 H   0  0  0  0  0  0  0  0  0  0  0  0
  142.3450   79.7366  215.9063 H   0  0  0  0  0  0  0  0  0  0  0  0
  140.8566   80.6919  219.8566 H   0  0  0  0  0  0  0  0  0  0  0  0
  141.6729   78.4921  220.7087 H   0  0  0  0  0  0  0  0  0  0  0  0
  1  2  2  0
  2  3  1  0
  3  4  1  0
  4  5  1  0
  5  6  2  0
  5  7  1  0
  7  8  1  0
  8  9  1  0
  9 10  1  0
  9 11  1  0
 11 12  1  0
 12 13  1  0
 13 14  2  0
 13 15  1  0
 15 16  1  0
 16 17  1  0
 17 18  1  0
 16 19  1  0
 19 20  2  0
 20 21  1  0
 21 22  2  0
 22 23  1  0
 23 24  1  0
 23 25  2  0
  2 26  1  0
 26 27  2  0
 27 28  1  0
 28 29  2  0
 29 30  1  0
 30 31  2  0
 31 32  1  0
 31 33  1  0
 33 34  2  0
 34 35  1  0
 35 36  2  0
 12  7  1  0
 25 19  1  0
 36 26  1  0
 35 29  1  0
  3 37  1  0
  4 38  1  0
  4 39  1  0
  8 40  1  0
  8 41  1  0
  9 42  1  6
 10 43  1  0
 11 44  1  0
 11 45  1  0
 12 46  1  1
 16 47  1  6
 17 48  1  0
 17 49  1  0
 18 50  1  0
 20 51  1  0
 21 52  1  0
 22 53  1  0
 25 54  1  0
 27 55  1  0
 28 56  1  0
 30 57  1  0
 33 58  1  0
 34 59  1  0
M  CHG  1  15  -1
M  END
>  <UniqueID>  (14) 
153

>  <SMILES>  (14) 
O=C(NCC(=O)N1C[C@H](O)C[C@H]1C(=O)[N-][C@@H](CO)c1cccc(Cl)c1)c1ccc2cc(F)ccc2n1

>  <Energy>  (14) 
60.99469250768789

>  <Genealogy>  (14) 
O=C(NCC(=O)N1C[C@H](O)C[C@H]1C(=O)[N-][C@@H](CO)c1cccc(Cl)c1)c1ccc2cc(F)ccc2n1 (protonated)
O=C(NCC(=O)N1C[C@H](O)C[C@H]1C(=O)[N-][C@@H](CO)c1cccc(Cl)c1)c1ccc2cc(F)ccc2n1 (3D coordinates assigned)
O=C(NCC(=O)N1C[C@H](O)C[C@H]1C(=O)[N-][C@@H](CO)c1cccc(Cl)c1)c1ccc2cc(F)ccc2n1 (nonaromatic ring conformer: 60.99469250768789 kcal/mol)

>  <smiles>  (14) 
O=C(NCC(=O)N1C[C@H](O)C[C@H]1C(=O)N[C@@H](CO)c1cccc(Cl)c1)c1ccc2cc(F)ccc2n1

>  <score_type>  (14) 
oracle

>  <origin>  (14) 
autodockgpu

>  <m_score__min__energy>  (14) 
-8.4800000000000004

>  <m_primary>  (14) 
energy

>  <meeko>  (14) 
{"free_energy": -5.76, "intermolecular_energy": -9.04, "internal_energy": -5.75, "cluster_size": 1, "cluster_id": 8, "rank_in_cluster": 1}

>  <energy>  (14) 
-6.34

>  <cluster_rmsd>  (14) 
0.0

>  <rmsd>  (14) 
268.46

>  <cluster>  (14) 
6

$$$$
VCSRFCBMABBACK-DHMKUKBTNA-M
     RDKit          3D

 59 62  0  0  0  0  0  0  0  0999 V2000
  140.8180   72.9310  222.3420 O   0  0  0  0  0  0  0  0  0  0  0  0
  141.1320   73.4570  221.2390 C   0  0  0  0  0  0  0  0  0  0  0  0
  141.6640   72.6450  220.1880 N   0  0  0  0  0  0  0  0  0  0  0  0
  142.5450   71.5190  220.4780 C   0  0  0  0  0  0  0  0  0  0  0  0
  142.5240   70.5030  219.3710 C   0  0  0  0  0  0  0  0  0  0  0  0
  141.4380   70.2450  218.7880 O   0  0  0  0  0  0  0  0  0  0  0  0
  143.7060   69.7630  219.0230 N   0  0  0  0  0  0  0  0  0  0  0  0
  143.8560   68.3590  219.3490 C   0  0  0  0  0  0  0  0  0  0  0  0
  145.3460   68.0610  219.2050 C   0  0  2  0  0  0  0  0  0  0  0  0
  145.9470   68.0430  220.4740 O   0  0  0  0  0  0  0  0  0  0  0  0
  145.9240   69.2050  218.3600 C   0  0  0  0  0  0  0  0  0  0  0  0
  144.8890   70.3360  218.3970 C   0  0  1  0  0  0  0  0  0  0  0  0
  144.5680   70.8150  217.0060 C   0  0  0  0  0  0  0  0  0  0  0  0
  143.8630   70.1000  216.2430 O   0  0  0  0  0  0  0  0  0  0  0  0
  145.0880   72.0650  216.5440 N   0  0  0  0  0  0  0  0  0  0  0  0
  144.3140   73.3050  216.5530 C   0  0  1  0  0  0  0  0  0  0  0  0
  142.8590   73.0060  216.1650 C   0  0  0  0  0  0  0  0  0  0  0  0
  142.1740   72.4130  217.2340 O   0  0  0  0  0  0  0  0  0  0  0  0
  144.3850   73.9590  217.9170 C   0  0  0  0  0  0  0  0  0  0  0  0
  143.6370   75.1190  218.1820 C   0  0  0  0  0  0  0  0  0  0  0  0
  143.6870   75.7180  219.4450 C   0  0  0  0  0  0  0  0  0  0  0  0
  144.4790   75.1640  220.4530 C   0  0  0  0  0  0  0  0  0  0  0  0
  145.2190   74.0040  220.2040 C   0  0  0  0  0  0  0  0  0  0  0  0
  146.2070   73.3010  221.4740 Cl  0  0  0  0  0  0  0  0  0  0  0  0
  145.1700   73.3990  218.9440 C   0  0  0  0  0  0  0  0  0  0  0  0
  140.9800   74.9070  221.0390 C   0  0  0  0  0  0  0  0  0  0  0  0
  140.5220   75.4320  219.8200 C   0  0  0  0  0  0  0  0  0  0  0  0
  140.3760   76.8140  219.6740 C   0  0  0  0  0  0  0  0  0  0  0  0
  140.6650   77.6620  220.7490 C   0  0  0  0  0  0  0  0  0  0  0  0
  140.5250   79.0550  220.6400 C   0  0  0  0  0  0  0  0  0  0  0  0
  140.8100   79.8740  221.7380 C   0  0  0  0  0  0  0  0  0  0  0  0
  140.6760   81.2200  221.6320 F   0  0  0  0  0  0  0  0  0  0  0  0
  141.2270   79.3080  222.9480 C   0  0  0  0  0  0  0  0  0  0  0  0
  141.3670   77.9210  223.0650 C   0  0  0  0  0  0  0  0  0  0  0  0
  141.1000   77.0970  221.9680 C   0  0  0  0  0  0  0  0  0  0  0  0
  141.2510   75.7500  222.0730 N   0  0  0  0  0  0  0  0  0  0  0  0
  141.4530   72.9110  219.2020 H   0  0  0  0  0  0  0  0  0  0  0  0
  143.5725   71.8918  220.6014 H   0  0  0  0  0  0  0  0  0  0  0  0
  142.1912   71.0327  221.3991 H   0  0  0  0  0  0  0  0  0  0  0  0
  143.5238   68.1666  220.3798 H   0  0  0  0  0  0  0  0  0  0  0  0
  143.2479   67.7211  218.6907 H   0  0  0  0  0  0  0  0  0  0  0  0
  145.5269   67.0838  218.7335 H   0  0  0  0  0  0  0  0  0  0  0  0
  146.4920   67.2140  220.5190 H   0  0  0  0  0  0  0  0  0  0  0  0
  146.8782   69.5483  218.7863 H   0  0  0  0  0  0  0  0  0  0  0  0
  146.1213   68.8785  217.3283 H   0  0  0  0  0  0  0  0  0  0  0  0
  145.2652   71.2078  218.9524 H   0  0  0  0  0  0  0  0  0  0  0  0
  144.7391   74.0046  215.8183 H   0  0  0  0  0  0  0  0  0  0  0  0
  142.3575   73.9461  215.8916 H   0  0  0  0  0  0  0  0  0  0  0  0
  142.8556   72.3104  215.3129 H   0  0  0  0  0  0  0  0  0  0  0  0
  142.4360   71.4550  217.2440 H   0  0  0  0  0  0  0  0  0  0  0  0
  143.0093   75.5579  217.3925 H   0  0  0  0  0  0  0  0  0  0  0  0
  143.1012   76.6274  219.6447 H   0  0  0  0  0  0  0  0  0  0  0  0
  144.5207   75.6405  221.4436 H   0  0  0  0  0  0  0  0  0  0  0  0
  145.7469   72.4819  218.7541 H   0  0  0  0  0  0  0  0  0  0  0  0
  140.2794   74.7590  218.9844 H   0  0  0  0  0  0  0  0  0  0  0  0
  140.0348   77.2343  218.7164 H   0  0  0  0  0  0  0  0  0  0  0  0
  140.1914   79.5020  219.6919 H   0  0  0  0  0  0  0  0  0  0  0  0
  141.4454   79.9557  223.8098 H   0  0  0  0  0  0  0  0  0  0  0  0
  141.6871   77.4790  224.0201 H   0  0  0  0  0  0  0  0  0  0  0  0
  1  2  2  0
  2  3  1  0
  3  4  1  0
  4  5  1  0
  5  6  2  0
  5  7  1  0
  7  8  1  0
  8  9  1  0
  9 10  1  0
  9 11  1  0
 11 12  1  0
 12 13  1  0
 13 14  2  0
 13 15  1  0
 15 16  1  0
 16 17  1  0
 17 18  1  0
 16 19  1  0
 19 20  2  0
 20 21  1  0
 21 22  2  0
 22 23  1  0
 23 24  1  0
 23 25  2  0
  2 26  1  0
 26 27  2  0
 27 28  1  0
 28 29  2  0
 29 30  1  0
 30 31  2  0
 31 32  1  0
 31 33  1  0
 33 34  2  0
 34 35  1  0
 35 36  2  0
 12  7  1  0
 25 19  1  0
 36 26  1  0
 35 29  1  0
  3 37  1  0
  4 38  1  0
  4 39  1  0
  8 40  1  0
  8 41  1  0
  9 42  1  6
 10 43  1  0
 11 44  1  0
 11 45  1  0
 12 46  1  1
 16 47  1  6
 17 48  1  0
 17 49  1  0
 18 50  1  0
 20 51  1  0
 21 52  1  0
 22 53  1  0
 25 54  1  0
 27 55  1  0
 28 56  1  0
 30 57  1  0
 33 58  1  0
 34 59  1  0
M  CHG  1  15  -1
M  END
>  <UniqueID>  (15) 
153

>  <SMILES>  (15) 
O=C(NCC(=O)N1C[C@H](O)C[C@H]1C(=O)[N-][C@@H](CO)c1cccc(Cl)c1)c1ccc2cc(F)ccc2n1

>  <Energy>  (15) 
60.99469250768789

>  <Genealogy>  (15) 
O=C(NCC(=O)N1C[C@H](O)C[C@H]1C(=O)[N-][C@@H](CO)c1cccc(Cl)c1)c1ccc2cc(F)ccc2n1 (protonated)
O=C(NCC(=O)N1C[C@H](O)C[C@H]1C(=O)[N-][C@@H](CO)c1cccc(Cl)c1)c1ccc2cc(F)ccc2n1 (3D coordinates assigned)
O=C(NCC(=O)N1C[C@H](O)C[C@H]1C(=O)[N-][C@@H](CO)c1cccc(Cl)c1)c1ccc2cc(F)ccc2n1 (nonaromatic ring conformer: 60.99469250768789 kcal/mol)

>  <smiles>  (15) 
O=C(NCC(=O)N1C[C@H](O)C[C@H]1C(=O)N[C@@H](CO)c1cccc(Cl)c1)c1ccc2cc(F)ccc2n1

>  <score_type>  (15) 
oracle

>  <origin>  (15) 
autodockgpu

>  <m_score__min__energy>  (15) 
-8.4800000000000004

>  <m_primary>  (15) 
energy

>  <meeko>  (15) 
{"free_energy": -5.7, "intermolecular_energy": -8.98, "internal_energy": -5.62, "cluster_size": 1, "cluster_id": 9, "rank_in_cluster": 1}

>  <energy>  (15) 
-5.76

>  <cluster_rmsd>  (15) 
0.0

>  <rmsd>  (15) 
269.71

>  <cluster>  (15) 
7

$$$$
VCSRFCBMABBACK-DHMKUKBTNA-M
     RDKit          3D

 59 62  0  0  0  0  0  0  0  0999 V2000
  139.7060   75.7720  220.1440 O   0  0  0  0  0  0  0  0  0  0  0  0
  140.4140   75.0810  220.9270 C   0  0  0  0  0  0  0  0  0  0  0  0
  141.7810   75.4360  221.1530 N   0  0  0  0  0  0  0  0  0  0  0  0
  142.6050   75.9850  220.0820 C   0  0  0  0  0  0  0  0  0  0  0  0
  143.0990   74.9070  219.1590 C   0  0  0  0  0  0  0  0  0  0  0  0
  143.3850   75.1950  217.9660 O   0  0  0  0  0  0  0  0  0  0  0  0
  143.1700   73.5380  219.5900 N   0  0  0  0  0  0  0  0  0  0  0  0
  142.2540   72.5290  219.0980 C   0  0  0  0  0  0  0  0  0  0  0  0
  142.3720   71.3580  220.0700 C   0  0  2  0  0  0  0  0  0  0  0  0
  141.2910   71.3780  220.9650 O   0  0  0  0  0  0  0  0  0  0  0  0
  143.6920   71.5700  220.8250 C   0  0  0  0  0  0  0  0  0  0  0  0
  144.0870   73.0350  220.6040 C   0  0  1  0  0  0  0  0  0  0  0  0
  145.5100   73.1400  220.1230 C   0  0  0  0  0  0  0  0  0  0  0  0
  146.2270   74.1110  220.4900 O   0  0  0  0  0  0  0  0  0  0  0  0
  146.0350   72.1540  219.2290 N   0  0  0  0  0  0  0  0  0  0  0  0
  145.3820   71.7850  217.9750 C   0  0  1  0  0  0  0  0  0  0  0  0
  145.8240   72.7450  216.8620 C   0  0  0  0  0  0  0  0  0  0  0  0
  146.6800   73.7320  217.3710 O   0  0  0  0  0  0  0  0  0  0  0  0
  145.7110   70.3520  217.6130 C   0  0  0  0  0  0  0  0  0  0  0  0
  146.2960   70.0550  216.3700 C   0  0  0  0  0  0  0  0  0  0  0  0
  146.6150   68.7350  216.0380 C   0  0  0  0  0  0  0  0  0  0  0  0
  146.3590   67.7020  216.9420 C   0  0  0  0  0  0  0  0  0  0  0  0
  145.7880   67.9870  218.1870 C   0  0  0  0  0  0  0  0  0  0  0  0
  145.4750   66.6900  219.3280 Cl  0  0  0  0  0  0  0  0  0  0  0  0
  145.4690   69.3060  218.5250 C   0  0  0  0  0  0  0  0  0  0  0  0
  139.8460   73.8940  221.5860 C   0  0  0  0  0  0  0  0  0  0  0  0
  138.7090   73.2480  221.0740 C   0  0  0  0  0  0  0  0  0  0  0  0
  138.2090   72.1150  221.7210 C   0  0  0  0  0  0  0  0  0  0  0  0
  138.8560   71.6190  222.8580 C   0  0  0  0  0  0  0  0  0  0  0  0
  138.3840   70.4800  223.5310 C   0  0  0  0  0  0  0  0  0  0  0  0
  139.0630   70.0030  224.6570 C   0  0  0  0  0  0  0  0  0  0  0  0
  138.6060   68.9030  225.3070 F   0  0  0  0  0  0  0  0  0  0  0  0
  140.2150   70.6530  225.1120 C   0  0  0  0  0  0  0  0  0  0  0  0
  140.6920   71.7870  224.4470 C   0  0  0  0  0  0  0  0  0  0  0  0
  140.0110   72.2810  223.3300 C   0  0  0  0  0  0  0  0  0  0  0  0
  140.4620   73.3920  222.6910 N   0  0  0  0  0  0  0  0  0  0  0  0
  142.1940   75.2420  222.0910 H   0  0  0  0  0  0  0  0  0  0  0  0
  142.0065   76.7042  219.5035 H   0  0  0  0  0  0  0  0  0  0  0  0
  143.4778   76.4772  220.5359 H   0  0  0  0  0  0  0  0  0  0  0  0
  141.2248   72.9171  219.0876 H   0  0  0  0  0  0  0  0  0  0  0  0
  142.4949   72.2284  218.0677 H   0  0  0  0  0  0  0  0  0  0  0  0
  142.3591   70.3885  219.5506 H   0  0  0  0  0  0  0  0  0  0  0  0
  141.4380   72.1510  221.5710 H   0  0  0  0  0  0  0  0  0  0  0  0
  143.5527   71.3713  221.8979 H   0  0  0  0  0  0  0  0  0  0  0  0
  144.4737   70.8871  220.4608 H   0  0  0  0  0  0  0  0  0  0  0  0
  144.0250   73.6138  221.5373 H   0  0  0  0  0  0  0  0  0  0  0  0
  144.2915   71.8633  218.0964 H   0  0  0  0  0  0  0  0  0  0  0  0
  146.3519   72.1759  216.0826 H   0  0  0  0  0  0  0  0  0  0  0  0
  144.9327   73.2325  216.4403 H   0  0  0  0  0  0  0  0  0  0  0  0
  146.3500   73.9540  218.2800 H   0  0  0  0  0  0  0  0  0  0  0  0
  146.5038   70.8649  215.6552 H   0  0  0  0  0  0  0  0  0  0  0  0
  147.0690   68.5095  215.0618 H   0  0  0  0  0  0  0  0  0  0  0  0
  146.6063   66.6639  216.6752 H   0  0  0  0  0  0  0  0  0  0  0  0
  145.0270   69.5277  219.5076 H   0  0  0  0  0  0  0  0  0  0  0  0
  138.2150   73.6316  220.1691 H   0  0  0  0  0  0  0  0  0  0  0  0
  137.3082   71.6138  221.3370 H   0  0  0  0  0  0  0  0  0  0  0  0
  137.4812   69.9636  223.1728 H   0  0  0  0  0  0  0  0  0  0  0  0
  140.7473   70.2710  225.9956 H   0  0  0  0  0  0  0  0  0  0  0  0
  141.6031   72.2905  224.8027 H   0  0  0  0  0  0  0  0  0  0  0  0
  1  2  2  0
  2  3  1  0
  3  4  1  0
  4  5  1  0
  5  6  2  0
  5  7  1  0
  7  8  1  0
  8  9  1  0
  9 10  1  0
  9 11  1  0
 11 12  1  0
 12 13  1  0
 13 14  2  0
 13 15  1  0
 15 16  1  0
 16 17  1  0
 17 18  1  0
 16 19  1  0
 19 20  2  0
 20 21  1  0
 21 22  2  0
 22 23  1  0
 23 24  1  0
 23 25  2  0
  2 26  1  0
 26 27  2  0
 27 28  1  0
 28 29  2  0
 29 30  1  0
 30 31  2  0
 31 32  1  0
 31 33  1  0
 33 34  2  0
 34 35  1  0
 35 36  2  0
 12  7  1  0
 25 19  1  0
 36 26  1  0
 35 29  1  0
  3 37  1  0
  4 38  1  0
  4 39  1  0
  8 40  1  0
  8 41  1  0
  9 42  1  6
 10 43  1  0
 11 44  1  0
 11 45  1  0
 12 46  1  1
 16 47  1  1
 17 48  1  0
 17 49  1  0
 18 50  1  0
 20 51  1  0
 21 52  1  0
 22 53  1  0
 25 54  1  0
 27 55  1  0
 28 56  1  0
 30 57  1  0
 33 58  1  0
 34 59  1  0
M  CHG  1  15  -1
M  END
>  <UniqueID>  (16) 
153

>  <SMILES>  (16) 
O=C(NCC(=O)N1C[C@H](O)C[C@H]1C(=O)[N-][C@@H](CO)c1cccc(Cl)c1)c1ccc2cc(F)ccc2n1

>  <Energy>  (16) 
60.99469250768789

>  <Genealogy>  (16) 
O=C(NCC(=O)N1C[C@H](O)C[C@H]1C(=O)[N-][C@@H](CO)c1cccc(Cl)c1)c1ccc2cc(F)ccc2n1 (protonated)
O=C(NCC(=O)N1C[C@H](O)C[C@H]1C(=O)[N-][C@@H](CO)c1cccc(Cl)c1)c1ccc2cc(F)ccc2n1 (3D coordinates assigned)
O=C(NCC(=O)N1C[C@H](O)C[C@H]1C(=O)[N-][C@@H](CO)c1cccc(Cl)c1)c1ccc2cc(F)ccc2n1 (nonaromatic ring conformer: 60.99469250768789 kcal/mol)

>  <smiles>  (16) 
O=C(NCC(=O)N1C[C@H](O)C[C@H]1C(=O)N[C@@H](CO)c1cccc(Cl)c1)c1ccc2cc(F)ccc2n1

>  <score_type>  (16) 
oracle

>  <origin>  (16) 
autodockgpu

>  <m_score__min__energy>  (16) 
-8.4800000000000004

>  <m_primary>  (16) 
energy

>  <meeko>  (16) 
{"free_energy": -6.95, "intermolecular_energy": -10.23, "internal_energy": -5.35, "cluster_size": 1, "cluster_id": 4, "rank_in_cluster": 1}

>  <energy>  (16) 
-4.28

>  <cluster_rmsd>  (16) 
1.79

>  <rmsd>  (16) 
269.1

>  <cluster>  (16) 
7

$$$$
VCSRFCBMABBACK-DHMKUKBTNA-M
     RDKit          3D

 59 62  0  0  0  0  0  0  0  0999 V2000
  138.7700   71.0670  221.5900 O   0  0  0  0  0  0  0  0  0  0  0  0
  139.3710   71.4760  222.6210 C   0  0  0  0  0  0  0  0  0  0  0  0
  139.9530   72.7820  222.6350 N   0  0  0  0  0  0  0  0  0  0  0  0
  140.5650   73.3490  221.4380 C   0  0  0  0  0  0  0  0  0  0  0  0
  141.6950   72.4940  220.9380 C   0  0  0  0  0  0  0  0  0  0  0  0
  141.5350   71.2480  220.8450 O   0  0  0  0  0  0  0  0  0  0  0  0
  142.9810   73.0640  220.6460 N   0  0  0  0  0  0  0  0  0  0  0  0
  144.1500   72.2410  220.4060 C   0  0  0  0  0  0  0  0  0  0  0  0
  145.3470   73.1760  220.5510 C   0  0  2  0  0  0  0  0  0  0  0  0
  145.9340   72.9970  221.8150 O   0  0  0  0  0  0  0  0  0  0  0  0
  144.7870   74.6000  220.4220 C   0  0  0  0  0  0  0  0  0  0  0  0
  143.2730   74.4910  220.6380 C   0  0  1  0  0  0  0  0  0  0  0  0
  142.5220   75.1740  219.5250 C   0  0  0  0  0  0  0  0  0  0  0  0
  142.6620   74.7770  218.3370 O   0  0  0  0  0  0  0  0  0  0  0  0
  141.6770   76.2900  219.8180 N   0  0  0  0  0  0  0  0  0  0  0  0
  142.1840   77.6450  220.0250 C   0  0  1  0  0  0  0  0  0  0  0  0
  141.9100   78.4950  218.7770 C   0  0  0  0  0  0  0  0  0  0  0  0
  141.7370   77.6780  217.6510 O   0  0  0  0  0  0  0  0  0  0  0  0
  141.5460   78.2640  221.2500 C   0  0  0  0  0  0  0  0  0  0  0  0
  140.3500   77.7360  221.7660 C   0  0  0  0  0  0  0  0  0  0  0  0
  139.7660   78.2950  222.9070 C   0  0  0  0  0  0  0  0  0  0  0  0
  140.3700   79.3810  223.5440 C   0  0  0  0  0  0  0  0  0  0  0  0
  141.5660   79.9080  223.0470 C   0  0  0  0  0  0  0  0  0  0  0  0
  142.3310   81.2670  223.8540 Cl  0  0  0  0  0  0  0  0  0  0  0  0
  142.1560   79.3510  221.9090 C   0  0  0  0  0  0  0  0  0  0  0  0
  139.5000   70.6030  223.7980 C   0  0  0  0  0  0  0  0  0  0  0  0
  139.0610   69.2690  223.7700 C   0  0  0  0  0  0  0  0  0  0  0  0
  139.2140   68.4680  224.9050 C   0  0  0  0  0  0  0  0  0  0  0  0
  139.8250   68.9910  226.0510 C   0  0  0  0  0  0  0  0  0  0  0  0
  140.0000   68.2140  227.2060 C   0  0  0  0  0  0  0  0  0  0  0  0
  140.6250   68.7640  228.3310 C   0  0  0  0  0  0  0  0  0  0  0  0
  140.7930   68.0120  229.4470 F   0  0  0  0  0  0  0  0  0  0  0  0
  141.0840   70.0850  228.3040 C   0  0  0  0  0  0  0  0  0  0  0  0
  140.9150   70.8660  227.1560 C   0  0  0  0  0  0  0  0  0  0  0  0
  140.2760   70.3300  226.0330 C   0  0  0  0  0  0  0  0  0  0  0  0
  140.0950   71.0900  224.9210 N   0  0  0  0  0  0  0  0  0  0  0  0
  139.9800   73.3020  223.5390 H   0  0  0  0  0  0  0  0  0  0  0  0
  139.8016   73.4287  220.6500 H   0  0  0  0  0  0  0  0  0  0  0  0
  140.9694   74.3394  221.6939 H   0  0  0  0  0  0  0  0  0  0  0  0
  144.2058   71.4284  221.1453 H   0  0  0  0  0  0  0  0  0  0  0  0
  144.1193   71.7703  219.4123 H   0  0  0  0  0  0  0  0  0  0  0  0
  146.1179   72.9787  219.7915 H   0  0  0  0  0  0  0  0  0  0  0  0
  145.9260   72.0210  221.9960 H   0  0  0  0  0  0  0  0  0  0  0  0
  145.2339   75.2550  221.1844 H   0  0  0  0  0  0  0  0  0  0  0  0
  145.0193   75.0322  219.4375 H   0  0  0  0  0  0  0  0  0  0  0  0
  142.9640   74.9785  221.5744 H   0  0  0  0  0  0  0  0  0  0  0  0
  143.2705   77.6040  220.1919 H   0  0  0  0  0  0  0  0  0  0  0  0
  140.9974   79.0880  218.9369 H   0  0  0  0  0  0  0  0  0  0  0  0
  142.7701   79.1587  218.6045 H   0  0  0  0  0  0  0  0  0  0  0  0
  141.8380   76.7400  217.9600 H   0  0  0  0  0  0  0  0  0  0  0  0
  139.8711   76.8789  221.2699 H   0  0  0  0  0  0  0  0  0  0  0  0
  138.8285   77.8782  223.3037 H   0  0  0  0  0  0  0  0  0  0  0  0
  139.9045   79.8223  224.4376 H   0  0  0  0  0  0  0  0  0  0  0  0
  143.1012   79.7628  221.5255 H   0  0  0  0  0  0  0  0  0  0  0  0
  138.5996   68.8573  222.8603 H   0  0  0  0  0  0  0  0  0  0  0  0
  138.8549   67.4283  224.8979 H   0  0  0  0  0  0  0  0  0  0  0  0
  139.6461   67.1727  227.2273 H   0  0  0  0  0  0  0  0  0  0  0  0
  141.5796   70.5112  229.1887 H   0  0  0  0  0  0  0  0  0  0  0  0
  141.2846   71.9018  227.1363 H   0  0  0  0  0  0  0  0  0  0  0  0
  1  2  2  0
  2  3  1  0
  3  4  1  0
  4  5  1  0
  5  6  2  0
  5  7  1  0
  7  8  1  0
  8  9  1  0
  9 10  1  0
  9 11  1  0
 11 12  1  0
 12 13  1  0
 13 14  2  0
 13 15  1  0
 15 16  1  0
 16 17  1  0
 17 18  1  0
 16 19  1  0
 19 20  2  0
 20 21  1  0
 21 22  2  0
 22 23  1  0
 23 24  1  0
 23 25  2  0
  2 26  1  0
 26 27  2  0
 27 28  1  0
 28 29  2  0
 29 30  1  0
 30 31  2  0
 31 32  1  0
 31 33  1  0
 33 34  2  0
 34 35  1  0
 35 36  2  0
 12  7  1  0
 25 19  1  0
 36 26  1  0
 35 29  1  0
  3 37  1  0
  4 38  1  0
  4 39  1  0
  8 40  1  0
  8 41  1  0
  9 42  1  6
 10 43  1  0
 11 44  1  0
 11 45  1  0
 12 46  1  1
 16 47  1  1
 17 48  1  0
 17 49  1  0
 18 50  1  0
 20 51  1  0
 21 52  1  0
 22 53  1  0
 25 54  1  0
 27 55  1  0
 28 56  1  0
 30 57  1  0
 33 58  1  0
 34 59  1  0
M  CHG  1  15  -1
M  END
>  <UniqueID>  (17) 
153

>  <SMILES>  (17) 
O=C(NCC(=O)N1C[C@H](O)C[C@H]1C(=O)[N-][C@@H](CO)c1cccc(Cl)c1)c1ccc2cc(F)ccc2n1

>  <Energy>  (17) 
60.99469250768789

>  <Genealogy>  (17) 
O=C(NCC(=O)N1C[C@H](O)C[C@H]1C(=O)[N-][C@@H](CO)c1cccc(Cl)c1)c1ccc2cc(F)ccc2n1 (protonated)
O=C(NCC(=O)N1C[C@H](O)C[C@H]1C(=O)[N-][C@@H](CO)c1cccc(Cl)c1)c1ccc2cc(F)ccc2n1 (3D coordinates assigned)
O=C(NCC(=O)N1C[C@H](O)C[C@H]1C(=O)[N-][C@@H](CO)c1cccc(Cl)c1)c1ccc2cc(F)ccc2n1 (nonaromatic ring conformer: 60.99469250768789 kcal/mol)

>  <smiles>  (17) 
O=C(NCC(=O)N1C[C@H](O)C[C@H]1C(=O)N[C@@H](CO)c1cccc(Cl)c1)c1ccc2cc(F)ccc2n1

>  <score_type>  (17) 
oracle

>  <origin>  (17) 
autodockgpu

>  <m_score__min__energy>  (17) 
-8.4800000000000004

>  <m_primary>  (17) 
energy

>  <meeko>  (17) 
{"free_energy": -8.48, "intermolecular_energy": -11.76, "internal_energy": -3.57, "cluster_size": 4, "cluster_id": 1, "rank_in_cluster": 1}

>  <energy>  (17) 
-5.76

>  <cluster_rmsd>  (17) 
0.0

>  <rmsd>  (17) 
268.98

>  <cluster>  (17) 
8

$$$$
VCSRFCBMABBACK-DHMKUKBTNA-M
     RDKit          3D

 59 62  0  0  0  0  0  0  0  0999 V2000
  139.5350   72.7950  222.4050 O   0  0  0  0  0  0  0  0  0  0  0  0
  139.7910   71.5750  222.5970 C   0  0  0  0  0  0  0  0  0  0  0  0
  139.7800   70.6620  221.4960 N   0  0  0  0  0  0  0  0  0  0  0  0
  138.8250   70.8100  220.4030 C   0  0  0  0  0  0  0  0  0  0  0  0
  137.4230   70.5050  220.8510 C   0  0  0  0  0  0  0  0  0  0  0  0
  136.8190   69.5130  220.3620 O   0  0  0  0  0  0  0  0  0  0  0  0
  136.7330   71.3720  221.7650 N   0  0  0  0  0  0  0  0  0  0  0  0
  136.1000   72.6010  221.3280 C   0  0  0  0  0  0  0  0  0  0  0  0
  135.8600   73.4130  222.5970 C   0  0  2  0  0  0  0  0  0  0  0  0
  136.8520   74.3990  222.7200 O   0  0  0  0  0  0  0  0  0  0  0  0
  135.9560   72.4150  223.7600 C   0  0  0  0  0  0  0  0  0  0  0  0
  136.6600   71.1700  223.2050 C   0  0  1  0  0  0  0  0  0  0  0  0
  135.8760   69.9240  223.5220 C   0  0  0  0  0  0  0  0  0  0  0  0
  136.4190   68.9900  224.1730 O   0  0  0  0  0  0  0  0  0  0  0  0
  134.5290   69.7930  223.0590 N   0  0  0  0  0  0  0  0  0  0  0  0
  133.3980   69.5480  223.9510 C   0  0  1  0  0  0  0  0  0  0  0  0
  133.3050   68.0480  224.2650 C   0  0  0  0  0  0  0  0  0  0  0  0
  134.2890   67.3350  223.5670 O   0  0  0  0  0  0  0  0  0  0  0  0
  133.5450   70.3580  225.2210 C   0  0  0  0  0  0  0  0  0  0  0  0
  134.1810   69.8000  226.3440 C   0  0  0  0  0  0  0  0  0  0  0  0
  134.3330   70.5500  227.5140 C   0  0  0  0  0  0  0  0  0  0  0  0
  133.8560   71.8610  227.5740 C   0  0  0  0  0  0  0  0  0  0  0  0
  133.2330   72.4310  226.4600 C   0  0  0  0  0  0  0  0  0  0  0  0
  132.6430   74.0830  226.5310 Cl  0  0  0  0  0  0  0  0  0  0  0  0
  133.0810   71.6870  225.2860 C   0  0  0  0  0  0  0  0  0  0  0  0
  140.0730   71.0810  223.9550 C   0  0  0  0  0  0  0  0  0  0  0  0
  140.7120   71.8910  224.9080 C   0  0  0  0  0  0  0  0  0  0  0  0
  140.9490   71.3920  226.1910 C   0  0  0  0  0  0  0  0  0  0  0  0
  140.5290   70.0990  226.5240 C   0  0  0  0  0  0  0  0  0  0  0  0
  140.7460   69.5660  227.8050 C   0  0  0  0  0  0  0  0  0  0  0  0
  140.3010   68.2750  228.1090 C   0  0  0  0  0  0  0  0  0  0  0  0
  140.5120   67.7610  229.3460 F   0  0  0  0  0  0  0  0  0  0  0  0
  139.6340   67.5150  227.1430 C   0  0  0  0  0  0  0  0  0  0  0  0
  139.4120   68.0390  225.8650 C   0  0  0  0  0  0  0  0  0  0  0  0
  139.8680   69.3230  225.5470 C   0  0  0  0  0  0  0  0  0  0  0  0
  139.6690   69.8290  224.3020 N   0  0  0  0  0  0  0  0  0  0  0  0
  140.4370   69.8520  221.5170 H   0  0  0  0  0  0  0  0  0  0  0  0
  138.8644   71.8447  220.0316 H   0  0  0  0  0  0  0  0  0  0  0  0
  139.0961   70.0983  219.6093 H   0  0  0  0  0  0  0  0  0  0  0  0
  136.7605   73.1496  220.6404 H   0  0  0  0  0  0  0  0  0  0  0  0
  135.1626   72.4057  220.7866 H   0  0  0  0  0  0  0  0  0  0  0  0
  134.8834   73.9190  222.5831 H   0  0  0  0  0  0  0  0  0  0  0  0
  137.7200   73.9210  222.7870 H   0  0  0  0  0  0  0  0  0  0  0  0
  136.5414   72.8472  224.5849 H   0  0  0  0  0  0  0  0  0  0  0  0
  134.9602   72.1669  224.1560 H   0  0  0  0  0  0  0  0  0  0  0  0
  137.6565   71.0383  223.6519 H   0  0  0  0  0  0  0  0  0  0  0  0
  132.4683   69.8624  223.4542 H   0  0  0  0  0  0  0  0  0  0  0  0
  133.4462   67.8955  225.3452 H   0  0  0  0  0  0  0  0  0  0  0  0
  132.3152   67.6819  223.9547 H   0  0  0  0  0  0  0  0  0  0  0  0
  134.8340   68.0050  223.0780 H   0  0  0  0  0  0  0  0  0  0  0  0
  134.5608   68.7685  226.3018 H   0  0  0  0  0  0  0  0  0  0  0  0
  134.8296   70.1063  228.3895 H   0  0  0  0  0  0  0  0  0  0  0  0
  133.9706   72.4457  228.4987 H   0  0  0  0  0  0  0  0  0  0  0  0
  132.5969   72.1413  224.4089 H   0  0  0  0  0  0  0  0  0  0  0  0
  141.0241   72.9126  224.6455 H   0  0  0  0  0  0  0  0  0  0  0  0
  141.4645   72.0137  226.9378 H   0  0  0  0  0  0  0  0  0  0  0  0
  141.2655   70.1632  228.5688 H   0  0  0  0  0  0  0  0  0  0  0  0
  139.2828   66.5020  227.3888 H   0  0  0  0  0  0  0  0  0  0  0  0
  138.8792   67.4418  225.1104 H   0  0  0  0  0  0  0  0  0  0  0  0
  1  2  2  0
  2  3  1  0
  3  4  1  0
  4  5  1  0
  5  6  2  0
  5  7  1  0
  7  8  1  0
  8  9  1  0
  9 10  1  0
  9 11  1  0
 11 12  1  0
 12 13  1  0
 13 14  2  0
 13 15  1  0
 15 16  1  0
 16 17  1  0
 17 18  1  0
 16 19  1  0
 19 20  2  0
 20 21  1  0
 21 22  2  0
 22 23  1  0
 23 24  1  0
 23 25  2  0
  2 26  1  0
 26 27  2  0
 27 28  1  0
 28 29  2  0
 29 30  1  0
 30 31  2  0
 31 32  1  0
 31 33  1  0
 33 34  2  0
 34 35  1  0
 35 36  2  0
 12  7  1  0
 25 19  1  0
 36 26  1  0
 35 29  1  0
  3 37  1  0
  4 38  1  0
  4 39  1  0
  8 40  1  0
  8 41  1  0
  9 42  1  6
 10 43  1  0
 11 44  1  0
 11 45  1  0
 12 46  1  1
 16 47  1  6
 17 48  1  0
 17 49  1  0
 18 50  1  0
 20 51  1  0
 21 52  1  0
 22 53  1  0
 25 54  1  0
 27 55  1  0
 28 56  1  0
 30 57  1  0
 33 58  1  0
 34 59  1  0
M  CHG  1  15  -1
M  END
>  <UniqueID>  (18) 
153

>  <SMILES>  (18) 
O=C(NCC(=O)N1C[C@H](O)C[C@H]1C(=O)[N-][C@@H](CO)c1cccc(Cl)c1)c1ccc2cc(F)ccc2n1

>  <Energy>  (18) 
60.99469250768789

>  <Genealogy>  (18) 
O=C(NCC(=O)N1C[C@H](O)C[C@H]1C(=O)[N-][C@@H](CO)c1cccc(Cl)c1)c1ccc2cc(F)ccc2n1 (protonated)
O=C(NCC(=O)N1C[C@H](O)C[C@H]1C(=O)[N-][C@@H](CO)c1cccc(Cl)c1)c1ccc2cc(F)ccc2n1 (3D coordinates assigned)
O=C(NCC(=O)N1C[C@H](O)C[C@H]1C(=O)[N-][C@@H](CO)c1cccc(Cl)c1)c1ccc2cc(F)ccc2n1 (nonaromatic ring conformer: 60.99469250768789 kcal/mol)

>  <smiles>  (18) 
O=C(NCC(=O)N1C[C@H](O)C[C@H]1C(=O)N[C@@H](CO)c1cccc(Cl)c1)c1ccc2cc(F)ccc2n1

>  <score_type>  (18) 
oracle

>  <origin>  (18) 
autodockgpu

>  <m_score__min__energy>  (18) 
-8.4800000000000004

>  <m_primary>  (18) 
energy

>  <meeko>  (18) 
{"free_energy": -6.34, "intermolecular_energy": -9.62, "internal_energy": -5.42, "cluster_size": 1, "cluster_id": 6, "rank_in_cluster": 1}

>  <energy>  (18) 
-5.7

>  <cluster_rmsd>  (18) 
0.0

>  <rmsd>  (18) 
268.42

>  <cluster>  (18) 
9

$$$$
VCSRFCBMABBACK-DHMKUKBTNA-M
     RDKit          3D

 59 62  0  0  0  0  0  0  0  0999 V2000
  134.9670   75.7500  221.7320 O   0  0  0  0  0  0  0  0  0  0  0  0
  135.8420   74.9520  222.1650 C   0  0  0  0  0  0  0  0  0  0  0  0
  135.4440   73.7660  222.8590 N   0  0  0  0  0  0  0  0  0  0  0  0
  134.2800   73.7630  223.7390 C   0  0  0  0  0  0  0  0  0  0  0  0
  134.4990   72.8850  224.9390 C   0  0  0  0  0  0  0  0  0  0  0  0
  134.6770   73.4130  226.0690 O   0  0  0  0  0  0  0  0  0  0  0  0
  134.5920   71.4580  224.8050 N   0  0  0  0  0  0  0  0  0  0  0  0
  133.4330   70.5970  224.9330 C   0  0  0  0  0  0  0  0  0  0  0  0
  133.9880   69.1900  225.1440 C   0  0  2  0  0  0  0  0  0  0  0  0
  133.9270   68.8600  226.5080 O   0  0  0  0  0  0  0  0  0  0  0  0
  135.4490   69.2390  224.6740 C   0  0  0  0  0  0  0  0  0  0  0  0
  135.8350   70.7220  224.6130 C   0  0  1  0  0  0  0  0  0  0  0  0
  136.4460   71.0630  223.2800 C   0  0  0  0  0  0  0  0  0  0  0  0
  135.8140   70.8140  222.2170 O   0  0  0  0  0  0  0  0  0  0  0  0
  137.7540   71.6400  223.2220 N   0  0  0  0  0  0  0  0  0  0  0  0
  138.9780   70.8430  223.1880 C   0  0  1  0  0  0  0  0  0  0  0  0
  140.1350   71.6990  222.6550 C   0  0  0  0  0  0  0  0  0  0  0  0
  139.9640   73.0430  223.0150 O   0  0  0  0  0  0  0  0  0  0  0  0
  139.2950   70.3060  224.5680 C   0  0  0  0  0  0  0  0  0  0  0  0
  138.9730   68.9790  224.9000 C   0  0  0  0  0  0  0  0  0  0  0  0
  139.2790   68.4750  226.1680 C   0  0  0  0  0  0  0  0  0  0  0  0
  139.9100   69.2870  227.1130 C   0  0  0  0  0  0  0  0  0  0  0  0
  140.2460   70.6060  226.7900 C   0  0  0  0  0  0  0  0  0  0  0  0
  141.0490   71.6240  227.9740 Cl  0  0  0  0  0  0  0  0  0  0  0  0
  139.9450   71.1140  225.5230 C   0  0  0  0  0  0  0  0  0  0  0  0
  137.2720   75.2500  221.9820 C   0  0  0  0  0  0  0  0  0  0  0  0
  137.8940   76.2990  222.6780 C   0  0  0  0  0  0  0  0  0  0  0  0
  139.2570   76.5400  222.4880 C   0  0  0  0  0  0  0  0  0  0  0  0
  139.9960   75.7220  221.6250 C   0  0  0  0  0  0  0  0  0  0  0  0
  141.3680   75.9330  221.4140 C   0  0  0  0  0  0  0  0  0  0  0  0
  142.0810   75.0880  220.5560 C   0  0  0  0  0  0  0  0  0  0  0  0
  143.4060   75.2930  220.3510 F   0  0  0  0  0  0  0  0  0  0  0  0
  141.4310   74.0300  219.9110 C   0  0  0  0  0  0  0  0  0  0  0  0
  140.0650   73.8130  220.1170 C   0  0  0  0  0  0  0  0  0  0  0  0
  139.3410   74.6620  220.9620 C   0  0  0  0  0  0  0  0  0  0  0  0
  138.0100   74.4640  221.1510 N   0  0  0  0  0  0  0  0  0  0  0  0
  136.0390   72.9150  222.7660 H   0  0  0  0  0  0  0  0  0  0  0  0
  134.0862   74.7911  224.0789 H   0  0  0  0  0  0  0  0  0  0  0  0
  133.4219   73.3688  223.1749 H   0  0  0  0  0  0  0  0  0  0  0  0
  132.8215   70.9018  225.7951 H   0  0  0  0  0  0  0  0  0  0  0  0
  132.7861   70.6505  224.0449 H   0  0  0  0  0  0  0  0  0  0  0  0
  133.4142   68.4332  224.5890 H   0  0  0  0  0  0  0  0  0  0  0  0
  134.0250   69.7110  227.0110 H   0  0  0  0  0  0  0  0  0  0  0  0
  136.0959   68.7065  225.3867 H   0  0  0  0  0  0  0  0  0  0  0  0
  135.5688   68.7552  223.6934 H   0  0  0  0  0  0  0  0  0  0  0  0
  136.5840   70.9743  225.3781 H   0  0  0  0  0  0  0  0  0  0  0  0
  138.8342   69.9849  222.5149 H   0  0  0  0  0  0  0  0  0  0  0  0
  141.0814   71.3298  223.0769 H   0  0  0  0  0  0  0  0  0  0  0  0
  140.1522   71.6264  221.5575 H   0  0  0  0  0  0  0  0  0  0  0  0
  139.0340   73.2870  222.7670 H   0  0  0  0  0  0  0  0  0  0  0  0
  138.4781   68.3339  224.1591 H   0  0  0  0  0  0  0  0  0  0  0  0
  139.0220   67.4360  226.4219 H   0  0  0  0  0  0  0  0  0  0  0  0
  140.1429   68.8892  228.1118 H   0  0  0  0  0  0  0  0  0  0  0  0
  140.2167   72.1494  225.2699 H   0  0  0  0  0  0  0  0  0  0  0  0
  137.3118   76.9270  223.3684 H   0  0  0  0  0  0  0  0  0  0  0  0
  139.7485   77.3708  223.0154 H   0  0  0  0  0  0  0  0  0  0  0  0
  141.8821   76.7618  221.9227 H   0  0  0  0  0  0  0  0  0  0  0  0
  141.9963   73.3668  219.2397 H   0  0  0  0  0  0  0  0  0  0  0  0
  139.5594   72.9750  219.6149 H   0  0  0  0  0  0  0  0  0  0  0  0
  1  2  2  0
  2  3  1  0
  3  4  1  0
  4  5  1  0
  5  6  2  0
  5  7  1  0
  7  8  1  0
  8  9  1  0
  9 10  1  0
  9 11  1  0
 11 12  1  0
 12 13  1  0
 13 14  2  0
 13 15  1  0
 15 16  1  0
 16 17  1  0
 17 18  1  0
 16 19  1  0
 19 20  2  0
 20 21  1  0
 21 22  2  0
 22 23  1  0
 23 24  1  0
 23 25  2  0
  2 26  1  0
 26 27  2  0
 27 28  1  0
 28 29  2  0
 29 30  1  0
 30 31  2  0
 31 32  1  0
 31 33  1  0
 33 34  2  0
 34 35  1  0
 35 36  2  0
 12  7  1  0
 25 19  1  0
 36 26  1  0
 35 29  1  0
  3 37  1  0
  4 38  1  0
  4 39  1  0
  8 40  1  0
  8 41  1  0
  9 42  1  6
 10 43  1  0
 11 44  1  0
 11 45  1  0
 12 46  1  1
 16 47  1  6
 17 48  1  0
 17 49  1  0
 18 50  1  0
 20 51  1  0
 21 52  1  0
 22 53  1  0
 25 54  1  0
 27 55  1  0
 28 56  1  0
 30 57  1  0
 33 58  1  0
 34 59  1  0
M  CHG  1  15  -1
M  END
>  <UniqueID>  (19) 
153

>  <SMILES>  (19) 
O=C(NCC(=O)N1C[C@H](O)C[C@H]1C(=O)[N-][C@@H](CO)c1cccc(Cl)c1)c1ccc2cc(F)ccc2n1

>  <Energy>  (19) 
60.99469250768789

>  <Genealogy>  (19) 
O=C(NCC(=O)N1C[C@H](O)C[C@H]1C(=O)[N-][C@@H](CO)c1cccc(Cl)c1)c1ccc2cc(F)ccc2n1 (protonated)
O=C(NCC(=O)N1C[C@H](O)C[C@H]1C(=O)[N-][C@@H](CO)c1cccc(Cl)c1)c1ccc2cc(F)ccc2n1 (3D coordinates assigned)
O=C(NCC(=O)N1C[C@H](O)C[C@H]1C(=O)[N-][C@@H](CO)c1cccc(Cl)c1)c1ccc2cc(F)ccc2n1 (nonaromatic ring conformer: 60.99469250768789 kcal/mol)

>  <smiles>  (19) 
O=C(NCC(=O)N1C[C@H](O)C[C@H]1C(=O)N[C@@H](CO)c1cccc(Cl)c1)c1ccc2cc(F)ccc2n1

>  <score_type>  (19) 
oracle

>  <origin>  (19) 
autodockgpu

>  <m_score__min__energy>  (19) 
-8.4800000000000004

>  <m_primary>  (19) 
energy

>  <meeko>  (19) 
{"free_energy": -6.41, "intermolecular_energy": -9.7, "internal_energy": -5.28, "cluster_size": 4, "cluster_id": 2, "rank_in_cluster": 4}

>  <energy>  (19) 
-5.67

>  <cluster_rmsd>  (19) 
0.0

>  <rmsd>  (19) 
269.5

>  <cluster>  (19) 
10

$$$$
VCSRFCBMABBACK-DHMKUKBTNA-M
     RDKit          3D

 59 62  0  0  0  0  0  0  0  0999 V2000
  139.2830   74.8740  222.3410 O   0  0  0  0  0  0  0  0  0  0  0  0
  140.4260   75.2070  221.9230 C   0  0  0  0  0  0  0  0  0  0  0  0
  140.8090   76.5850  221.9150 N   0  0  0  0  0  0  0  0  0  0  0  0
  139.8400   77.6350  221.6190 C   0  0  0  0  0  0  0  0  0  0  0  0
  139.6760   77.8330  220.1390 C   0  0  0  0  0  0  0  0  0  0  0  0
  138.5210   77.9890  219.6590 O   0  0  0  0  0  0  0  0  0  0  0  0
  140.8050   77.7630  219.2530 N   0  0  0  0  0  0  0  0  0  0  0  0
  141.0170   76.6380  218.3650 C   0  0  0  0  0  0  0  0  0  0  0  0
  142.4760   76.7310  217.9250 C   0  0  2  0  0  0  0  0  0  0  0  0
  143.2500   75.8230  218.6650 O   0  0  0  0  0  0  0  0  0  0  0  0
  142.9140   78.1720  218.2250 C   0  0  0  0  0  0  0  0  0  0  0  0
  141.8810   78.7440  219.2030 C   0  0  1  0  0  0  0  0  0  0  0  0
  141.3600   80.0710  218.7180 C   0  0  0  0  0  0  0  0  0  0  0  0
  140.3950   80.1080  217.9060 O   0  0  0  0  0  0  0  0  0  0  0  0
  141.9800   81.2830  219.1560 N   0  0  0  0  0  0  0  0  0  0  0  0
  141.4890   82.0690  220.2860 C   0  0  1  0  0  0  0  0  0  0  0  0
  140.1290   82.6850  219.9330 C   0  0  0  0  0  0  0  0  0  0  0  0
  140.0090   82.8590  218.5470 O   0  0  0  0  0  0  0  0  0  0  0  0
  141.3840   81.2010  221.5230 C   0  0  0  0  0  0  0  0  0  0  0  0
  142.5150   80.5230  222.0080 C   0  0  0  0  0  0  0  0  0  0  0  0
  142.4260   79.7340  223.1590 C   0  0  0  0  0  0  0  0  0  0  0  0
  141.2100   79.6180  223.8370 C   0  0  0  0  0  0  0  0  0  0  0  0
  140.0800   80.2970  223.3710 C   0  0  0  0  0  0  0  0  0  0  0  0
  138.5550   80.1590  224.2290 Cl  0  0  0  0  0  0  0  0  0  0  0  0
  140.1650   81.0900  222.2220 C   0  0  0  0  0  0  0  0  0  0  0  0
  141.3580   74.1850  221.4190 C   0  0  0  0  0  0  0  0  0  0  0  0
  140.9200   72.8850  221.1150 C   0  0  0  0  0  0  0  0  0  0  0  0
  141.8320   71.9470  220.6240 C   0  0  0  0  0  0  0  0  0  0  0  0
  143.1670   72.3150  220.4170 C   0  0  0  0  0  0  0  0  0  0  0  0
  144.1090   71.4000  219.9210 C   0  0  0  0  0  0  0  0  0  0  0  0
  145.4330   71.8040  219.7130 C   0  0  0  0  0  0  0  0  0  0  0  0
  146.3430   70.9190  219.2350 F   0  0  0  0  0  0  0  0  0  0  0  0
  145.8190   73.1190  219.9920 C   0  0  0  0  0  0  0  0  0  0  0  0
  144.8860   74.0370  220.4850 C   0  0  0  0  0  0  0  0  0  0  0  0
  143.5640   73.6380  220.7110 C   0  0  0  0  0  0  0  0  0  0  0  0
  142.6590   74.5220  221.2060 N   0  0  0  0  0  0  0  0  0  0  0  0
  141.8130   76.8220  222.0720 H   0  0  0  0  0  0  0  0  0  0  0  0
  138.8679   77.3564  222.0520 H   0  0  0  0  0  0  0  0  0  0  0  0
  140.2078   78.5760  222.0539 H   0  0  0  0  0  0  0  0  0  0  0  0
  140.8354   75.6912  218.8947 H   0  0  0  0  0  0  0  0  0  0  0  0
  140.3306   76.6628  217.5058 H   0  0  0  0  0  0  0  0  0  0  0  0
  142.6016   76.4878  216.8596 H   0  0  0  0  0  0  0  0  0  0  0  0
  142.9500   75.8980  219.6090 H   0  0  0  0  0  0  0  0  0  0  0  0
  143.9146   78.1781  218.6820 H   0  0  0  0  0  0  0  0  0  0  0  0
  142.9669   78.7723  217.3048 H   0  0  0  0  0  0  0  0  0  0  0  0
  142.3214   78.9211  220.1953 H   0  0  0  0  0  0  0  0  0  0  0  0
  142.1990   82.8815  220.4998 H   0  0  0  0  0  0  0  0  0  0  0  0
  139.3282   82.0175  220.2839 H   0  0  0  0  0  0  0  0  0  0  0  0
  140.0481   83.6674  220.4213 H   0  0  0  0  0  0  0  0  0  0  0  0
  140.6460   82.2250  218.1250 H   0  0  0  0  0  0  0  0  0  0  0  0
  143.4755   80.6133  221.4795 H   0  0  0  0  0  0  0  0  0  0  0  0
  143.3150   79.2037  223.5313 H   0  0  0  0  0  0  0  0  0  0  0  0
  141.1415   78.9916  224.7387 H   0  0  0  0  0  0  0  0  0  0  0  0
  139.2765   81.6295  221.8622 H   0  0  0  0  0  0  0  0  0  0  0  0
  139.8659   72.6074  221.2626 H   0  0  0  0  0  0  0  0  0  0  0  0
  141.5018   70.9218  220.4006 H   0  0  0  0  0  0  0  0  0  0  0  0
  143.8070   70.3665  219.6960 H   0  0  0  0  0  0  0  0  0  0  0  0
  146.8598   73.4323  219.8232 H   0  0  0  0  0  0  0  0  0  0  0  0
  145.1915   75.0726  220.6951 H   0  0  0  0  0  0  0  0  0  0  0  0
  1  2  2  0
  2  3  1  0
  3  4  1  0
  4  5  1  0
  5  6  2  0
  5  7  1  0
  7  8  1  0
  8  9  1  0
  9 10  1  0
  9 11  1  0
 11 12  1  0
 12 13  1  0
 13 14  2  0
 13 15  1  0
 15 16  1  0
 16 17  1  0
 17 18  1  0
 16 19  1  0
 19 20  2  0
 20 21  1  0
 21 22  2  0
 22 23  1  0
 23 24  1  0
 23 25  2  0
  2 26  1  0
 26 27  2  0
 27 28  1  0
 28 29  2  0
 29 30  1  0
 30 31  2  0
 31 32  1  0
 31 33  1  0
 33 34  2  0
 34 35  1  0
 35 36  2  0
 12  7  1  0
 25 19  1  0
 36 26  1  0
 35 29  1  0
  3 37  1  0
  4 38  1  0
  4 39  1  0
  8 40  1  0
  8 41  1  0
  9 42  1  6
 10 43  1  0
 11 44  1  0
 11 45  1  0
 12 46  1  1
 16 47  1  1
 17 48  1  0
 17 49  1  0
 18 50  1  0
 20 51  1  0
 21 52  1  0
 22 53  1  0
 25 54  1  0
 27 55  1  0
 28 56  1  0
 30 57  1  0
 33 58  1  0
 34 59  1  0
M  CHG  1  15  -1
M  END
>  <UniqueID>  (20) 
153

>  <SMILES>  (20) 
O=C(NCC(=O)N1C[C@H](O)C[C@H]1C(=O)[N-][C@@H](CO)c1cccc(Cl)c1)c1ccc2cc(F)ccc2n1

>  <Energy>  (20) 
60.99469250768789

>  <Genealogy>  (20) 
O=C(NCC(=O)N1C[C@H](O)C[C@H]1C(=O)[N-][C@@H](CO)c1cccc(Cl)c1)c1ccc2cc(F)ccc2n1 (protonated)
O=C(NCC(=O)N1C[C@H](O)C[C@H]1C(=O)[N-][C@@H](CO)c1cccc(Cl)c1)c1ccc2cc(F)ccc2n1 (3D coordinates assigned)
O=C(NCC(=O)N1C[C@H](O)C[C@H]1C(=O)[N-][C@@H](CO)c1cccc(Cl)c1)c1ccc2cc(F)ccc2n1 (nonaromatic ring conformer: 60.99469250768789 kcal/mol)

>  <smiles>  (20) 
O=C(NCC(=O)N1C[C@H](O)C[C@H]1C(=O)N[C@@H](CO)c1cccc(Cl)c1)c1ccc2cc(F)ccc2n1

>  <score_type>  (20) 
oracle

>  <origin>  (20) 
autodockgpu

>  <m_score__min__energy>  (20) 
-8.4800000000000004

>  <m_primary>  (20) 
energy

>  <meeko>  (20) 
{"free_energy": -5.67, "intermolecular_energy": -8.95, "internal_energy": -5.71, "cluster_size": 1, "cluster_id": 10, "rank_in_cluster": 1}

>  <energy>  (20) 
-4.56

>  <cluster_rmsd>  (20) 
0.0

>  <rmsd>  (20) 
269.01

>  <cluster>  (20) 
11

$$$$
VCSRFCBMABBACK-HJZRBLFINA-O
     RDKit          3D

 61 64  0  0  0  0  0  0  0  0999 V2000
  138.3070   72.3040  219.7940 H   0  0  0  0  0  0  0  0  0  0  0  0
  138.0840   73.2870  219.8880 O   0  0  0  0  0  0  0  0  0  0  0  0
  137.8400   73.9160  221.1130 C   0  0  0  0  0  0  0  0  0  0  0  0
  138.5490   74.9570  221.4970 N   0  0  0  0  0  0  0  0  0  0  0  0
  138.0780   75.9200  222.4870 C   0  0  0  0  0  0  0  0  0  0  0  0
  137.0251   76.1764  222.2984 H   0  0  0  0  0  0  0  0  0  0  0  0
  138.1392   75.5093  223.5056 H   0  0  0  0  0  0  0  0  0  0  0  0
  138.9580   77.1550  222.3330 C   0  0  2  0  0  0  0  0  0  0  0  0
  139.1778   77.6351  223.2979 H   0  0  0  0  0  0  0  0  0  0  0  0
  138.3060   78.0990  221.5260 O   0  0  0  0  0  0  0  0  0  0  0  0
  137.7820   77.5820  220.8550 H   0  0  0  0  0  0  0  0  0  0  0  0
  140.2260   76.6610  221.6430 C   0  0  0  0  0  0  0  0  0  0  0  0
  140.5801   77.4058  220.9151 H   0  0  0  0  0  0  0  0  0  0  0  0
  141.0402   76.4978  222.3645 H   0  0  0  0  0  0  0  0  0  0  0  0
  139.8390   75.3620  220.9300 C   0  0  1  0  0  0  0  0  0  0  0  0
  139.7547   75.4933  219.8411 H   0  0  0  0  0  0  0  0  0  0  0  0
  140.9010   74.3180  221.1580 C   0  0  0  0  0  0  0  0  0  0  0  0
  142.0660   74.6750  221.4860 O   0  0  0  0  0  0  0  0  0  0  0  0
  140.6040   72.9330  220.9400 N   0  0  0  0  0  0  0  0  0  0  0  0
  139.6180   72.6630  220.7230 H   0  0  0  0  0  0  0  0  0  0  0  0
  141.6470   71.8990  220.9580 C   0  0  2  0  0  0  0  0  0  0  0  0
  141.8438   71.6192  222.0035 H   0  0  0  0  0  0  0  0  0  0  0  0
  142.9310   72.4320  220.3570 C   0  0  0  0  0  0  0  0  0  0  0  0
  142.9860   72.7460  218.9890 C   0  0  0  0  0  0  0  0  0  0  0  0
  142.0982   72.5989  218.3564 H   0  0  0  0  0  0  0  0  0  0  0  0
  144.1660   73.2450  218.4290 C   0  0  0  0  0  0  0  0  0  0  0  0
  144.2044   73.4871  217.3567 H   0  0  0  0  0  0  0  0  0  0  0  0
  145.2960   73.4370  219.2270 C   0  0  0  0  0  0  0  0  0  0  0  0
  146.2255   73.8189  218.7797 H   0  0  0  0  0  0  0  0  0  0  0  0
  145.2480   73.1450  220.5920 C   0  0  0  0  0  0  0  0  0  0  0  0
  146.6690   73.3960  221.5940 Cl  0  0  0  0  0  0  0  0  0  0  0  0
  144.0700   72.6470  221.1580 C   0  0  0  0  0  0  0  0  0  0  0  0
  144.0325   72.4220  222.2341 H   0  0  0  0  0  0  0  0  0  0  0  0
  141.1740   70.6440  220.2010 C   0  0  0  0  0  0  0  0  0  0  0  0
  141.9463   70.3482  219.4758 H   0  0  0  0  0  0  0  0  0  0  0  0
  141.0025   69.8376  220.9292 H   0  0  0  0  0  0  0  0  0  0  0  0
  139.9740   70.8950  219.5180 O   0  0  0  0  0  0  0  0  0  0  0  0
  139.3920   71.4130  220.1400 H   0  0  0  0  0  0  0  0  0  0  0  0
  136.7220   73.3420  221.9500 C   0  0  0  0  0  0  0  0  0  0  0  0
  136.0587   72.7466  221.3054 H   0  0  0  0  0  0  0  0  0  0  0  0
  136.1662   74.1718  222.4109 H   0  0  0  0  0  0  0  0  0  0  0  0
  137.2510   72.4880  223.0110 N   0  0  0  0  0  0  0  0  0  0  0  0
  136.9280   72.6470  223.9920 H   0  0  0  0  0  0  0  0  0  0  0  0
  138.0980   71.3650  222.7230 C   0  0  0  0  0  0  0  0  0  0  0  0
  138.3660   71.0740  221.5260 O   0  0  0  0  0  0  0  0  0  0  0  0
  138.6790   70.5640  223.8200 C   0  0  0  0  0  0  0  0  0  0  0  0
  139.2920   71.1920  224.8610 N   0  0  0  0  0  0  0  0  0  0  0  0
  139.8720   70.5070  225.8830 C   0  0  0  0  0  0  0  0  0  0  0  0
  140.4880   71.1970  226.9350 C   0  0  0  0  0  0  0  0  0  0  0  0
  140.5099   72.2968  226.9326 H   0  0  0  0  0  0  0  0  0  0  0  0
  141.0750   70.4890  227.9880 C   0  0  0  0  0  0  0  0  0  0  0  0
  141.5545   71.0341  228.8144 H   0  0  0  0  0  0  0  0  0  0  0  0
  141.0550   69.0910  227.9950 C   0  0  0  0  0  0  0  0  0  0  0  0
  141.6190   68.4110  229.0260 F   0  0  0  0  0  0  0  0  0  0  0  0
  140.4480   68.3930  226.9440 C   0  0  0  0  0  0  0  0  0  0  0  0
  140.4377   67.2931  226.9481 H   0  0  0  0  0  0  0  0  0  0  0  0
  139.8520   69.0970  225.8840 C   0  0  0  0  0  0  0  0  0  0  0  0
  139.2280   68.4280  224.8240 C   0  0  0  0  0  0  0  0  0  0  0  0
  139.2018   67.3285  224.8051 H   0  0  0  0  0  0  0  0  0  0  0  0
  138.6390   69.1600  223.7910 C   0  0  0  0  0  0  0  0  0  0  0  0
  138.1454   68.6391  222.9573 H   0  0  0  0  0  0  0  0  0  0  0  0
  1  2  1  0
  2  3  1  0
  3  4  2  0
  4  5  1  0
  5  6  1  0
  5  7  1  0
  5  8  1  0
  8  9  1  1
  8 10  1  0
 10 11  1  0
  8 12  1  0
 12 13  1  0
 12 14  1  0
 12 15  1  0
 15 16  1  6
 15 17  1  0
 17 18  2  0
 17 19  1  0
 19 20  1  0
 19 21  1  0
 21 22  1  1
 21 23  1  0
 23 24  2  0
 24 25  1  0
 24 26  1  0
 26 27  1  0
 26 28  2  0
 28 29  1  0
 28 30  1  0
 30 31  1  0
 30 32  2  0
 32 33  1  0
 21 34  1  0
 34 35  1  0
 34 36  1  0
 34 37  1  0
 37 38  1  0
  3 39  1  0
 39 40  1  0
 39 41  1  0
 39 42  1  0
 42 43  1  0
 42 44  1  0
 44 45  2  0
 44 46  1  0
 46 47  2  0
 47 48  1  0
 48 49  2  0
 49 50  1  0
 49 51  1  0
 51 52  1  0
 51 53  2  0
 53 54  1  0
 53 55  1  0
 55 56  1  0
 55 57  2  0
 57 58  1  0
 58 59  1  0
 58 60  2  0
 60 61  1  0
 15  4  1  0
 32 23  1  0
 60 46  1  0
 57 48  1  0
M  CHG  1   4   1
M  END
>  <UniqueID>  (21) 
154

>  <SMILES>  (21) 
O=C(NC/C(O)=[N+]1/C[C@H](O)C[C@H]1C(=O)N[C@@H](CO)c1cccc(Cl)c1)c1ccc2cc(F)ccc2n1

>  <Energy>  (21) 
62.28985114480852

>  <Genealogy>  (21) 
O=C(NCC(=O)[NH+]1C[C@H](O)C[C@H]1C(=O)N[C@@H](CO)c1cccc(Cl)c1)c1ccc2cc(F)ccc2n1 (protonated)
O=C(NCC(O)=[N+]1C[C@H](O)C[C@H]1C(=O)N[C@@H](CO)c1cccc(Cl)c1)c1ccc2cc(F)ccc2n1 (tautomer)
O=C(NC/C(O)=[N+]1/C[C@H](O)C[C@H]1C(=O)N[C@@H](CO)c1cccc(Cl)c1)c1ccc2cc(F)ccc2n1 (cis-trans isomerization)
O=C(NC/C(O)=[N+]1/C[C@H](O)C[C@H]1C(=O)N[C@@H](CO)c1cccc(Cl)c1)c1ccc2cc(F)ccc2n1 (3D coordinates assigned)
O=C(NC/C(O)=[N+]1/C[C@H](O)C[C@H]1C(=O)N[C@@H](CO)c1cccc(Cl)c1)c1ccc2cc(F)ccc2n1 (nonaromatic ring conformer: 62.28985114480852 kcal/mol)

>  <smiles>  (21) 
O=C(NCC(=O)N1C[C@H](O)C[C@H]1C(=O)N[C@@H](CO)c1cccc(Cl)c1)c1ccc2cc(F)ccc2n1

>  <score_type>  (21) 
oracle

>  <origin>  (21) 
autodockgpu

>  <m_score__min__energy>  (21) 
-8.8300000000000001

>  <m_primary>  (21) 
energy

>  <meeko>  (21) 
{"free_energy": -6.09, "intermolecular_energy": -9.37, "internal_energy": -6.08, "cluster_size": 1, "cluster_id": 6, "rank_in_cluster": 1}

>  <energy>  (21) 
-8.83

>  <cluster_rmsd>  (21) 
0.0

>  <rmsd>  (21) 
270.91

>  <cluster>  (21) 
1

$$$$
VCSRFCBMABBACK-HJZRBLFINA-O
     RDKit          3D

 61 64  0  0  0  0  0  0  0  0999 V2000
  139.4890   80.1560  215.9120 H   0  0  0  0  0  0  0  0  0  0  0  0
  140.0980   80.8600  215.5140 O   0  0  0  0  0  0  0  0  0  0  0  0
  141.4770   80.6940  215.3510 C   0  0  0  0  0  0  0  0  0  0  0  0
  142.3250   81.6240  215.7370 N   0  0  0  0  0  0  0  0  0  0  0  0
  142.8040   82.6820  214.8530 C   0  0  0  0  0  0  0  0  0  0  0  0
  143.0564   82.2683  213.8655 H   0  0  0  0  0  0  0  0  0  0  0  0
  142.0355   83.4539  214.6999 H   0  0  0  0  0  0  0  0  0  0  0  0
  144.0480   83.2620  215.5160 C   0  0  2  0  0  0  0  0  0  0  0  0
  144.1297   84.3499  215.3751 H   0  0  0  0  0  0  0  0  0  0  0  0
  145.1930   82.6740  214.9610 O   0  0  0  0  0  0  0  0  0  0  0  0
  145.0800   81.6890  215.0570 H   0  0  0  0  0  0  0  0  0  0  0  0
  143.9270   82.8880  216.9910 C   0  0  0  0  0  0  0  0  0  0  0  0
  144.9130   82.6224  217.4000 H   0  0  0  0  0  0  0  0  0  0  0  0
  143.5409   83.7268  217.5888 H   0  0  0  0  0  0  0  0  0  0  0  0
  142.9860   81.6810  217.0450 C   0  0  1  0  0  0  0  0  0  0  0  0
  143.5231   80.7420  217.2445 H   0  0  0  0  0  0  0  0  0  0  0  0
  141.9940   81.8560  218.1640 C   0  0  0  0  0  0  0  0  0  0  0  0
  142.1880   82.7480  219.0350 O   0  0  0  0  0  0  0  0  0  0  0  0
  140.8720   80.9720  218.2740 N   0  0  0  0  0  0  0  0  0  0  0  0
  140.7070   80.2800  217.5070 H   0  0  0  0  0  0  0  0  0  0  0  0
  139.9880   80.9740  219.4460 C   0  0  2  0  0  0  0  0  0  0  0  0
  139.8009   82.0171  219.7407 H   0  0  0  0  0  0  0  0  0  0  0  0
  140.6480   80.2610  220.6080 C   0  0  0  0  0  0  0  0  0  0  0  0
  141.5580   80.9500  221.4270 C   0  0  0  0  0  0  0  0  0  0  0  0
  141.7928   82.0043  221.2190 H   0  0  0  0  0  0  0  0  0  0  0  0
  142.1660   80.3010  222.5050 C   0  0  0  0  0  0  0  0  0  0  0  0
  142.8787   80.8455  223.1419 H   0  0  0  0  0  0  0  0  0  0  0  0
  141.8710   78.9620  222.7760 C   0  0  0  0  0  0  0  0  0  0  0  0
  142.3604   78.4513  223.6184 H   0  0  0  0  0  0  0  0  0  0  0  0
  140.9550   78.2710  221.9780 C   0  0  0  0  0  0  0  0  0  0  0  0
  140.5800   76.5910  222.3280 Cl  0  0  0  0  0  0  0  0  0  0  0  0
  140.3420   78.9170  220.9000 C   0  0  0  0  0  0  0  0  0  0  0  0
  139.6170   78.3731  220.2766 H   0  0  0  0  0  0  0  0  0  0  0  0
  138.6370   80.3170  219.1030 C   0  0  0  0  0  0  0  0  0  0  0  0
  138.5275   79.3915  219.6874 H   0  0  0  0  0  0  0  0  0  0  0  0
  137.8296   81.0227  219.3482 H   0  0  0  0  0  0  0  0  0  0  0  0
  138.5650   80.0090  217.7360 O   0  0  0  0  0  0  0  0  0  0  0  0
  138.9700   80.7760  217.2460 H   0  0  0  0  0  0  0  0  0  0  0  0
  141.9260   79.3970  214.7230 C   0  0  0  0  0  0  0  0  0  0  0  0
  142.6382   79.6162  213.9139 H   0  0  0  0  0  0  0  0  0  0  0  0
  141.0431   78.8743  214.3264 H   0  0  0  0  0  0  0  0  0  0  0  0
  142.5740   78.5360  215.7110 N   0  0  0  0  0  0  0  0  0  0  0  0
  143.5950   78.3390  215.6130 H   0  0  0  0  0  0  0  0  0  0  0  0
  141.8750   78.0640  216.8720 C   0  0  0  0  0  0  0  0  0  0  0  0
  140.6850   78.4270  217.0780 O   0  0  0  0  0  0  0  0  0  0  0  0
  142.5310   77.1350  217.8150 C   0  0  0  0  0  0  0  0  0  0  0  0
  143.1480   76.0180  217.3410 N   0  0  0  0  0  0  0  0  0  0  0  0
  143.7420   75.1120  218.1630 C   0  0  0  0  0  0  0  0  0  0  0  0
  144.3680   73.9790  217.6280 C   0  0  0  0  0  0  0  0  0  0  0  0
  144.3739   73.8168  216.5400 H   0  0  0  0  0  0  0  0  0  0  0  0
  144.9860   73.0530  218.4760 C   0  0  0  0  0  0  0  0  0  0  0  0
  145.4811   72.1667  218.0524 H   0  0  0  0  0  0  0  0  0  0  0  0
  144.9760   73.2510  219.8600 C   0  0  0  0  0  0  0  0  0  0  0  0
  145.5850   72.3530  220.6770 F   0  0  0  0  0  0  0  0  0  0  0  0
  144.3450   74.3760  220.4040 C   0  0  0  0  0  0  0  0  0  0  0  0
  144.3330   74.5264  221.4936 H   0  0  0  0  0  0  0  0  0  0  0  0
  143.7270   75.3130  219.5590 C   0  0  0  0  0  0  0  0  0  0  0  0
  143.0970   76.4540  220.0710 C   0  0  0  0  0  0  0  0  0  0  0  0
  143.0726   76.6297  221.1566 H   0  0  0  0  0  0  0  0  0  0  0  0
  142.5000   77.3680  219.2010 C   0  0  0  0  0  0  0  0  0  0  0  0
  142.0070   78.2674  219.5986 H   0  0  0  0  0  0  0  0  0  0  0  0
  1  2  1  0
  2  3  1  0
  3  4  2  0
  4  5  1  0
  5  6  1  0
  5  7  1  0
  5  8  1  0
  8  9  1  1
  8 10  1  0
 10 11  1  0
  8 12  1  0
 12 13  1  0
 12 14  1  0
 12 15  1  0
 15 16  1  1
 15 17  1  0
 17 18  2  0
 17 19  1  0
 19 20  1  0
 19 21  1  0
 21 22  1  1
 21 23  1  0
 23 24  2  0
 24 25  1  0
 24 26  1  0
 26 27  1  0
 26 28  2  0
 28 29  1  0
 28 30  1  0
 30 31  1  0
 30 32  2  0
 32 33  1  0
 21 34  1  0
 34 35  1  0
 34 36  1  0
 34 37  1  0
 37 38  1  0
  3 39  1  0
 39 40  1  0
 39 41  1  0
 39 42  1  0
 42 43  1  0
 42 44  1  0
 44 45  2  0
 44 46  1  0
 46 47  2  0
 47 48  1  0
 48 49  2  0
 49 50  1  0
 49 51  1  0
 51 52  1  0
 51 53  2  0
 53 54  1  0
 53 55  1  0
 55 56  1  0
 55 57  2  0
 57 58  1  0
 58 59  1  0
 58 60  2  0
 60 61  1  0
 15  4  1  0
 32 23  1  0
 60 46  1  0
 57 48  1  0
M  CHG  1   4   1
M  END
>  <UniqueID>  (22) 
154

>  <SMILES>  (22) 
O=C(NC/C(O)=[N+]1/C[C@H](O)C[C@H]1C(=O)N[C@@H](CO)c1cccc(Cl)c1)c1ccc2cc(F)ccc2n1

>  <Energy>  (22) 
62.28985114480852

>  <Genealogy>  (22) 
O=C(NCC(=O)[NH+]1C[C@H](O)C[C@H]1C(=O)N[C@@H](CO)c1cccc(Cl)c1)c1ccc2cc(F)ccc2n1 (protonated)
O=C(NCC(O)=[N+]1C[C@H](O)C[C@H]1C(=O)N[C@@H](CO)c1cccc(Cl)c1)c1ccc2cc(F)ccc2n1 (tautomer)
O=C(NC/C(O)=[N+]1/C[C@H](O)C[C@H]1C(=O)N[C@@H](CO)c1cccc(Cl)c1)c1ccc2cc(F)ccc2n1 (cis-trans isomerization)
O=C(NC/C(O)=[N+]1/C[C@H](O)C[C@H]1C(=O)N[C@@H](CO)c1cccc(Cl)c1)c1ccc2cc(F)ccc2n1 (3D coordinates assigned)
O=C(NC/C(O)=[N+]1/C[C@H](O)C[C@H]1C(=O)N[C@@H](CO)c1cccc(Cl)c1)c1ccc2cc(F)ccc2n1 (nonaromatic ring conformer: 62.28985114480852 kcal/mol)

>  <smiles>  (22) 
O=C(NCC(=O)N1C[C@H](O)C[C@H]1C(=O)N[C@@H](CO)c1cccc(Cl)c1)c1ccc2cc(F)ccc2n1

>  <score_type>  (22) 
oracle

>  <origin>  (22) 
autodockgpu

>  <m_score__min__energy>  (22) 
-8.8300000000000001

>  <m_primary>  (22) 
energy

>  <meeko>  (22) 
{"free_energy": -5.74, "intermolecular_energy": -9.02, "internal_energy": -6.42, "cluster_size": 5, "cluster_id": 7, "rank_in_cluster": 3}

>  <energy>  (22) 
-8.47

>  <cluster_rmsd>  (22) 
0.0

>  <rmsd>  (22) 
270.38

>  <cluster>  (22) 
2

$$$$
VCSRFCBMABBACK-HJZRBLFINA-O
     RDKit          3D

 61 64  0  0  0  0  0  0  0  0999 V2000
  139.5590   79.9910  216.1470 H   0  0  0  0  0  0  0  0  0  0  0  0
  140.0940   80.6900  215.6470 O   0  0  0  0  0  0  0  0  0  0  0  0
  141.4640   80.5820  215.3870 C   0  0  0  0  0  0  0  0  0  0  0  0
  142.2970   81.5470  215.7130 N   0  0  0  0  0  0  0  0  0  0  0  0
  142.7350   82.5730  214.7720 C   0  0  0  0  0  0  0  0  0  0  0  0
  142.9791   82.1194  213.8001 H   0  0  0  0  0  0  0  0  0  0  0  0
  141.9460   83.3195  214.5978 H   0  0  0  0  0  0  0  0  0  0  0  0
  143.9770   83.2110  215.3840 C   0  0  2  0  0  0  0  0  0  0  0  0
  144.0304   84.2928  215.1919 H   0  0  0  0  0  0  0  0  0  0  0  0
  145.1260   82.6240  214.8340 O   0  0  0  0  0  0  0  0  0  0  0  0
  145.0160   81.6400  214.9380 H   0  0  0  0  0  0  0  0  0  0  0  0
  143.8920   82.9040  216.8760 C   0  0  0  0  0  0  0  0  0  0  0  0
  144.8913   82.6803  217.2777 H   0  0  0  0  0  0  0  0  0  0  0  0
  143.4973   83.7608  217.4417 H   0  0  0  0  0  0  0  0  0  0  0  0
  142.9810   81.6800  217.0040 C   0  0  1  0  0  0  0  0  0  0  0  0
  143.5440   80.7639  217.2362 H   0  0  0  0  0  0  0  0  0  0  0  0
  142.0050   81.8850  218.1330 C   0  0  0  0  0  0  0  0  0  0  0  0
  142.2020   82.8130  218.9650 O   0  0  0  0  0  0  0  0  0  0  0  0
  140.8980   80.9900  218.2960 N   0  0  0  0  0  0  0  0  0  0  0  0
  140.7300   80.2670  217.5600 H   0  0  0  0  0  0  0  0  0  0  0  0
  140.0340   81.0260  219.4830 C   0  0  2  0  0  0  0  0  0  0  0  0
  139.8681   82.0766  219.7634 H   0  0  0  0  0  0  0  0  0  0  0  0
  140.7030   80.3210  220.6450 C   0  0  0  0  0  0  0  0  0  0  0  0
  141.6200   81.0160  221.4510 C   0  0  0  0  0  0  0  0  0  0  0  0
  141.8539   82.0685  221.2331 H   0  0  0  0  0  0  0  0  0  0  0  0
  142.2360   80.3740  222.5290 C   0  0  0  0  0  0  0  0  0  0  0  0
  142.9551   80.9225  223.1552 H   0  0  0  0  0  0  0  0  0  0  0  0
  141.9420   79.0390  222.8140 C   0  0  0  0  0  0  0  0  0  0  0  0
  142.4377   78.5351  223.6568 H   0  0  0  0  0  0  0  0  0  0  0  0
  141.0180   78.3420  222.0290 C   0  0  0  0  0  0  0  0  0  0  0  0
  140.6440   76.6660  222.3960 Cl  0  0  0  0  0  0  0  0  0  0  0  0
  140.3970   78.9800  220.9510 C   0  0  0  0  0  0  0  0  0  0  0  0
  139.6657   78.4322  220.3385 H   0  0  0  0  0  0  0  0  0  0  0  0
  138.6680   80.3850  219.1740 C   0  0  0  0  0  0  0  0  0  0  0  0
  138.5406   79.4890  219.7992 H   0  0  0  0  0  0  0  0  0  0  0  0
  137.8776   81.1189  219.3902 H   0  0  0  0  0  0  0  0  0  0  0  0
  138.5830   80.0180  217.8210 O   0  0  0  0  0  0  0  0  0  0  0  0
  138.7490   80.8430  217.2880 H   0  0  0  0  0  0  0  0  0  0  0  0
  141.9220   79.3030  214.7280 C   0  0  0  0  0  0  0  0  0  0  0  0
  142.6423   79.5456  213.9328 H   0  0  0  0  0  0  0  0  0  0  0  0
  141.0441   78.7902  214.3081 H   0  0  0  0  0  0  0  0  0  0  0  0
  142.5610   78.4160  215.6980 N   0  0  0  0  0  0  0  0  0  0  0  0
  143.5620   78.1510  215.5540 H   0  0  0  0  0  0  0  0  0  0  0  0
  141.8920   78.0090  216.9020 C   0  0  0  0  0  0  0  0  0  0  0  0
  140.7400   78.4520  217.1580 O   0  0  0  0  0  0  0  0  0  0  0  0
  142.5330   77.0530  217.8280 C   0  0  0  0  0  0  0  0  0  0  0  0
  143.1980   75.9740  217.3300 N   0  0  0  0  0  0  0  0  0  0  0  0
  143.7810   75.0450  218.1340 C   0  0  0  0  0  0  0  0  0  0  0  0
  144.4580   73.9540  217.5750 C   0  0  0  0  0  0  0  0  0  0  0  0
  144.5141   73.8432  216.4820 H   0  0  0  0  0  0  0  0  0  0  0  0
  145.0630   73.0050  218.4060 C   0  0  0  0  0  0  0  0  0  0  0  0
  145.5976   72.1513  217.9639 H   0  0  0  0  0  0  0  0  0  0  0  0
  144.9910   73.1370  219.7960 C   0  0  0  0  0  0  0  0  0  0  0  0
  145.5900   72.2170  220.5950 F   0  0  0  0  0  0  0  0  0  0  0  0
  144.3100   74.2210  220.3630 C   0  0  0  0  0  0  0  0  0  0  0  0
  144.2502   74.3211  221.4568 H   0  0  0  0  0  0  0  0  0  0  0  0
  143.7030   75.1810  219.5360 C   0  0  0  0  0  0  0  0  0  0  0  0
  143.0230   76.2820  220.0720 C   0  0  0  0  0  0  0  0  0  0  0  0
  142.9499   76.4068  221.1625 H   0  0  0  0  0  0  0  0  0  0  0  0
  142.4380   77.2210  219.2200 C   0  0  0  0  0  0  0  0  0  0  0  0
  141.9051   78.0885  219.6366 H   0  0  0  0  0  0  0  0  0  0  0  0
  1  2  1  0
  2  3  1  0
  3  4  2  0
  4  5  1  0
  5  6  1  0
  5  7  1  0
  5  8  1  0
  8  9  1  1
  8 10  1  0
 10 11  1  0
  8 12  1  0
 12 13  1  0
 12 14  1  0
 12 15  1  0
 15 16  1  1
 15 17  1  0
 17 18  2  0
 17 19  1  0
 19 20  1  0
 19 21  1  0
 21 22  1  1
 21 23  1  0
 23 24  2  0
 24 25  1  0
 24 26  1  0
 26 27  1  0
 26 28  2  0
 28 29  1  0
 28 30  1  0
 30 31  1  0
 30 32  2  0
 32 33  1  0
 21 34  1  0
 34 35  1  0
 34 36  1  0
 34 37  1  0
 37 38  1  0
  3 39  1  0
 39 40  1  0
 39 41  1  0
 39 42  1  0
 42 43  1  0
 42 44  1  0
 44 45  2  0
 44 46  1  0
 46 47  2  0
 47 48  1  0
 48 49  2  0
 49 50  1  0
 49 51  1  0
 51 52  1  0
 51 53  2  0
 53 54  1  0
 53 55  1  0
 55 56  1  0
 55 57  2  0
 57 58  1  0
 58 59  1  0
 58 60  2  0
 60 61  1  0
 15  4  1  0
 32 23  1  0
 60 46  1  0
 57 48  1  0
M  CHG  1   4   1
M  END
>  <UniqueID>  (23) 
154

>  <SMILES>  (23) 
O=C(NC/C(O)=[N+]1/C[C@H](O)C[C@H]1C(=O)N[C@@H](CO)c1cccc(Cl)c1)c1ccc2cc(F)ccc2n1

>  <Energy>  (23) 
62.28985114480852

>  <Genealogy>  (23) 
O=C(NCC(=O)[NH+]1C[C@H](O)C[C@H]1C(=O)N[C@@H](CO)c1cccc(Cl)c1)c1ccc2cc(F)ccc2n1 (protonated)
O=C(NCC(O)=[N+]1C[C@H](O)C[C@H]1C(=O)N[C@@H](CO)c1cccc(Cl)c1)c1ccc2cc(F)ccc2n1 (tautomer)
O=C(NC/C(O)=[N+]1/C[C@H](O)C[C@H]1C(=O)N[C@@H](CO)c1cccc(Cl)c1)c1ccc2cc(F)ccc2n1 (cis-trans isomerization)
O=C(NC/C(O)=[N+]1/C[C@H](O)C[C@H]1C(=O)N[C@@H](CO)c1cccc(Cl)c1)c1ccc2cc(F)ccc2n1 (3D coordinates assigned)
O=C(NC/C(O)=[N+]1/C[C@H](O)C[C@H]1C(=O)N[C@@H](CO)c1cccc(Cl)c1)c1ccc2cc(F)ccc2n1 (nonaromatic ring conformer: 62.28985114480852 kcal/mol)

>  <smiles>  (23) 
O=C(NCC(=O)N1C[C@H](O)C[C@H]1C(=O)N[C@@H](CO)c1cccc(Cl)c1)c1ccc2cc(F)ccc2n1

>  <score_type>  (23) 
oracle

>  <origin>  (23) 
autodockgpu

>  <m_score__min__energy>  (23) 
-8.8300000000000001

>  <m_primary>  (23) 
energy

>  <meeko>  (23) 
{"free_energy": -5.68, "intermolecular_energy": -8.97, "internal_energy": -6.6, "cluster_size": 5, "cluster_id": 7, "rank_in_cluster": 4}

>  <energy>  (23) 
-8.43

>  <cluster_rmsd>  (23) 
0.75

>  <rmsd>  (23) 
270.58

>  <cluster>  (23) 
2

$$$$
VCSRFCBMABBACK-HJZRBLFINA-O
     RDKit          3D

 61 64  0  0  0  0  0  0  0  0999 V2000
  139.6240   79.4870  216.0990 H   0  0  0  0  0  0  0  0  0  0  0  0
  140.1270   80.3280  215.8440 O   0  0  0  0  0  0  0  0  0  0  0  0
  141.5020   80.3650  215.5910 C   0  0  0  0  0  0  0  0  0  0  0  0
  142.2360   81.3900  215.9710 N   0  0  0  0  0  0  0  0  0  0  0  0
  142.6350   82.4630  215.0660 C   0  0  0  0  0  0  0  0  0  0  0  0
  142.9635   82.0463  214.1024 H   0  0  0  0  0  0  0  0  0  0  0  0
  141.7973   83.1458  214.8609 H   0  0  0  0  0  0  0  0  0  0  0  0
  143.7890   83.1900  215.7480 C   0  0  2  0  0  0  0  0  0  0  0  0
  143.7634   84.2754  215.5711 H   0  0  0  0  0  0  0  0  0  0  0  0
  145.0070   82.7060  215.2520 O   0  0  0  0  0  0  0  0  0  0  0  0
  144.9360   81.7130  215.2460 H   0  0  0  0  0  0  0  0  0  0  0  0
  143.6550   82.8520  217.2310 C   0  0  0  0  0  0  0  0  0  0  0  0
  144.6479   82.7026  217.6802 H   0  0  0  0  0  0  0  0  0  0  0  0
  143.1646   83.6648  217.7867 H   0  0  0  0  0  0  0  0  0  0  0  0
  142.8410   81.5570  217.2970 C   0  0  1  0  0  0  0  0  0  0  0  0
  143.4642   80.6856  217.5467 H   0  0  0  0  0  0  0  0  0  0  0  0
  141.7960   81.6640  218.3770 C   0  0  0  0  0  0  0  0  0  0  0  0
  141.8260   82.6390  219.1770 O   0  0  0  0  0  0  0  0  0  0  0  0
  140.8170   80.6300  218.5330 N   0  0  0  0  0  0  0  0  0  0  0  0
  140.7840   79.8640  217.8220 H   0  0  0  0  0  0  0  0  0  0  0  0
  139.9040   80.5870  219.6830 C   0  0  2  0  0  0  0  0  0  0  0  0
  139.6627   81.6192  219.9770 H   0  0  0  0  0  0  0  0  0  0  0  0
  140.5660   79.8990  220.8590 C   0  0  0  0  0  0  0  0  0  0  0  0
  140.3810   78.5200  221.0580 C   0  0  0  0  0  0  0  0  0  0  0  0
  139.7515   77.9453  220.3627 H   0  0  0  0  0  0  0  0  0  0  0  0
  140.9940   77.8770  222.1360 C   0  0  0  0  0  0  0  0  0  0  0  0
  140.8446   76.7978  222.2876 H   0  0  0  0  0  0  0  0  0  0  0  0
  141.7960   78.6000  223.0220 C   0  0  0  0  0  0  0  0  0  0  0  0
  142.2668   78.0919  223.8766 H   0  0  0  0  0  0  0  0  0  0  0  0
  142.0010   79.9680  222.8240 C   0  0  0  0  0  0  0  0  0  0  0  0
  143.0180   80.8720  223.9350 Cl  0  0  0  0  0  0  0  0  0  0  0  0
  141.3920   80.6160  221.7450 C   0  0  0  0  0  0  0  0  0  0  0  0
  141.5593   81.6918  221.5877 H   0  0  0  0  0  0  0  0  0  0  0  0
  138.5940   79.8720  219.3030 C   0  0  0  0  0  0  0  0  0  0  0  0
  138.5033   78.9483  219.8934 H   0  0  0  0  0  0  0  0  0  0  0  0
  137.7511   80.5466  219.5138 H   0  0  0  0  0  0  0  0  0  0  0  0
  138.5790   79.5480  217.9370 O   0  0  0  0  0  0  0  0  0  0  0  0
  139.5140   79.3070  217.6890 H   0  0  0  0  0  0  0  0  0  0  0  0
  142.0850   79.1710  214.8750 C   0  0  0  0  0  0  0  0  0  0  0  0
  142.8162   79.5190  214.1305 H   0  0  0  0  0  0  0  0  0  0  0  0
  141.2682   78.6223  214.3833 H   0  0  0  0  0  0  0  0  0  0  0  0
  142.7510   78.2730  215.8170 N   0  0  0  0  0  0  0  0  0  0  0  0
  143.7720   78.0860  215.6980 H   0  0  0  0  0  0  0  0  0  0  0  0
  142.0690   77.7480  216.9670 C   0  0  0  0  0  0  0  0  0  0  0  0
  140.8810   78.0940  217.2030 O   0  0  0  0  0  0  0  0  0  0  0  0
  142.7430   76.7830  217.8600 C   0  0  0  0  0  0  0  0  0  0  0  0
  143.4380   75.7410  217.3260 N   0  0  0  0  0  0  0  0  0  0  0  0
  144.0520   74.8050  218.0980 C   0  0  0  0  0  0  0  0  0  0  0  0
  144.7590   73.7520  217.5030 C   0  0  0  0  0  0  0  0  0  0  0  0
  144.8124   73.6763  216.4069 H   0  0  0  0  0  0  0  0  0  0  0  0
  145.3970   72.7970  218.3010 C   0  0  0  0  0  0  0  0  0  0  0  0
  145.9552   71.9743  217.8303 H   0  0  0  0  0  0  0  0  0  0  0  0
  145.3280   72.8840  219.6950 C   0  0  0  0  0  0  0  0  0  0  0  0
  145.9580   71.9580  220.4630 F   0  0  0  0  0  0  0  0  0  0  0  0
  144.6170   73.9280  220.2990 C   0  0  0  0  0  0  0  0  0  0  0  0
  144.5585   73.9914  221.3956 H   0  0  0  0  0  0  0  0  0  0  0  0
  143.9780   74.8950  219.5040 C   0  0  0  0  0  0  0  0  0  0  0  0
  143.2680   75.9570  220.0770 C   0  0  0  0  0  0  0  0  0  0  0  0
  143.1964   76.0452  221.1711 H   0  0  0  0  0  0  0  0  0  0  0  0
  142.6510   76.9040  219.2570 C   0  0  0  0  0  0  0  0  0  0  0  0
  142.0949   77.7418  219.7030 H   0  0  0  0  0  0  0  0  0  0  0  0
  1  2  1  0
  2  3  1  0
  3  4  2  0
  4  5  1  0
  5  6  1  0
  5  7  1  0
  5  8  1  0
  8  9  1  1
  8 10  1  0
 10 11  1  0
  8 12  1  0
 12 13  1  0
 12 14  1  0
 12 15  1  0
 15 16  1  1
 15 17  1  0
 17 18  2  0
 17 19  1  0
 19 20  1  0
 19 21  1  0
 21 22  1  1
 21 23  1  0
 23 24  2  0
 24 25  1  0
 24 26  1  0
 26 27  1  0
 26 28  2  0
 28 29  1  0
 28 30  1  0
 30 31  1  0
 30 32  2  0
 32 33  1  0
 21 34  1  0
 34 35  1  0
 34 36  1  0
 34 37  1  0
 37 38  1  0
  3 39  1  0
 39 40  1  0
 39 41  1  0
 39 42  1  0
 42 43  1  0
 42 44  1  0
 44 45  2  0
 44 46  1  0
 46 47  2  0
 47 48  1  0
 48 49  2  0
 49 50  1  0
 49 51  1  0
 51 52  1  0
 51 53  2  0
 53 54  1  0
 53 55  1  0
 55 56  1  0
 55 57  2  0
 57 58  1  0
 58 59  1  0
 58 60  2  0
 60 61  1  0
 15  4  1  0
 32 23  1  0
 60 46  1  0
 57 48  1  0
M  CHG  1   4   1
M  END
>  <UniqueID>  (24) 
154

>  <SMILES>  (24) 
O=C(NC/C(O)=[N+]1/C[C@H](O)C[C@H]1C(=O)N[C@@H](CO)c1cccc(Cl)c1)c1ccc2cc(F)ccc2n1

>  <Energy>  (24) 
62.28985114480852

>  <Genealogy>  (24) 
O=C(NCC(=O)[NH+]1C[C@H](O)C[C@H]1C(=O)N[C@@H](CO)c1cccc(Cl)c1)c1ccc2cc(F)ccc2n1 (protonated)
O=C(NCC(O)=[N+]1C[C@H](O)C[C@H]1C(=O)N[C@@H](CO)c1cccc(Cl)c1)c1ccc2cc(F)ccc2n1 (tautomer)
O=C(NC/C(O)=[N+]1/C[C@H](O)C[C@H]1C(=O)N[C@@H](CO)c1cccc(Cl)c1)c1ccc2cc(F)ccc2n1 (cis-trans isomerization)
O=C(NC/C(O)=[N+]1/C[C@H](O)C[C@H]1C(=O)N[C@@H](CO)c1cccc(Cl)c1)c1ccc2cc(F)ccc2n1 (3D coordinates assigned)
O=C(NC/C(O)=[N+]1/C[C@H](O)C[C@H]1C(=O)N[C@@H](CO)c1cccc(Cl)c1)c1ccc2cc(F)ccc2n1 (nonaromatic ring conformer: 62.28985114480852 kcal/mol)

>  <smiles>  (24) 
O=C(NCC(=O)N1C[C@H](O)C[C@H]1C(=O)N[C@@H](CO)c1cccc(Cl)c1)c1ccc2cc(F)ccc2n1

>  <score_type>  (24) 
oracle

>  <origin>  (24) 
autodockgpu

>  <m_score__min__energy>  (24) 
-8.8300000000000001

>  <m_primary>  (24) 
energy

>  <meeko>  (24) 
{"free_energy": -5.93, "intermolecular_energy": -9.21, "internal_energy": -6.84, "cluster_size": 5, "cluster_id": 7, "rank_in_cluster": 1}

>  <energy>  (24) 
-8.39

>  <cluster_rmsd>  (24) 
0.31

>  <rmsd>  (24) 
270.46

>  <cluster>  (24) 
2

$$$$
VCSRFCBMABBACK-HJZRBLFINA-O
     RDKit          3D

 61 64  0  0  0  0  0  0  0  0999 V2000
  140.4030   75.2450  218.7170 H   0  0  0  0  0  0  0  0  0  0  0  0
  141.2520   74.6960  218.6810 O   0  0  0  0  0  0  0  0  0  0  0  0
  142.4860   75.1390  219.1680 C   0  0  0  0  0  0  0  0  0  0  0  0
  143.3030   74.3200  219.7960 N   0  0  0  0  0  0  0  0  0  0  0  0
  144.6720   74.6800  220.1520 C   0  0  0  0  0  0  0  0  0  0  0  0
  145.1601   75.1988  219.3138 H   0  0  0  0  0  0  0  0  0  0  0  0
  144.6959   75.3590  221.0171 H   0  0  0  0  0  0  0  0  0  0  0  0
  145.3920   73.3690  220.4540 C   0  0  2  0  0  0  0  0  0  0  0  0
  146.1112   73.4668  221.2805 H   0  0  0  0  0  0  0  0  0  0  0  0
  146.1020   72.9510  219.3200 O   0  0  0  0  0  0  0  0  0  0  0  0
  146.3270   73.7750  218.8080 H   0  0  0  0  0  0  0  0  0  0  0  0
  144.2860   72.3700  220.7800 C   0  0  0  0  0  0  0  0  0  0  0  0
  144.5290   71.3814  220.3634 H   0  0  0  0  0  0  0  0  0  0  0  0
  144.1632   72.2452  221.8660 H   0  0  0  0  0  0  0  0  0  0  0  0
  143.0140   72.9220  220.1320 C   0  0  1  0  0  0  0  0  0  0  0  0
  142.7303   72.3615  219.2291 H   0  0  0  0  0  0  0  0  0  0  0  0
  141.8590   72.8070  221.0920 C   0  0  0  0  0  0  0  0  0  0  0  0
  141.8770   71.9140  221.9830 O   0  0  0  0  0  0  0  0  0  0  0  0
  140.7200   73.6660  220.9520 N   0  0  0  0  0  0  0  0  0  0  0  0
  140.7590   74.4320  220.2420 H   0  0  0  0  0  0  0  0  0  0  0  0
  139.4920   73.4680  221.7330 C   0  0  2  0  0  0  0  0  0  0  0  0
  139.5904   74.0131  222.6834 H   0  0  0  0  0  0  0  0  0  0  0  0
  139.2940   71.9990  222.0440 C   0  0  0  0  0  0  0  0  0  0  0  0
  139.0430   71.0910  221.0010 C   0  0  0  0  0  0  0  0  0  0  0  0
  138.9856   71.4504  219.9630 H   0  0  0  0  0  0  0  0  0  0  0  0
  138.8660   69.7320  221.2790 C   0  0  0  0  0  0  0  0  0  0  0  0
  138.6680   69.0257  220.4593 H   0  0  0  0  0  0  0  0  0  0  0  0
  138.9400   69.2690  222.5950 C   0  0  0  0  0  0  0  0  0  0  0  0
  138.7878   68.2011  222.8106 H   0  0  0  0  0  0  0  0  0  0  0  0
  139.2070   70.1600  223.6380 C   0  0  0  0  0  0  0  0  0  0  0  0
  139.3070   69.5720  225.2900 Cl  0  0  0  0  0  0  0  0  0  0  0  0
  139.3860   71.5200  223.3650 C   0  0  0  0  0  0  0  0  0  0  0  0
  139.5998   72.2193  224.1867 H   0  0  0  0  0  0  0  0  0  0  0  0
  138.2760   74.0310  220.9760 C   0  0  0  0  0  0  0  0  0  0  0  0
  137.4923   73.2605  220.9292 H   0  0  0  0  0  0  0  0  0  0  0  0
  137.9091   74.9195  221.5107 H   0  0  0  0  0  0  0  0  0  0  0  0
  138.6300   74.4070  219.6700 O   0  0  0  0  0  0  0  0  0  0  0  0
  139.3980   75.0380  219.7510 H   0  0  0  0  0  0  0  0  0  0  0  0
  142.8210   76.5910  218.9230 C   0  0  0  0  0  0  0  0  0  0  0  0
  142.4036   76.8982  217.9527 H   0  0  0  0  0  0  0  0  0  0  0  0
  143.9151   76.7044  218.9236 H   0  0  0  0  0  0  0  0  0  0  0  0
  142.2630   77.4390  219.9740 N   0  0  0  0  0  0  0  0  0  0  0  0
  142.8500   78.2130  220.3600 H   0  0  0  0  0  0  0  0  0  0  0  0
  140.8950   77.3170  220.3930 C   0  0  0  0  0  0  0  0  0  0  0  0
  140.1360   76.4890  219.8210 O   0  0  0  0  0  0  0  0  0  0  0  0
  140.3780   78.1360  221.5090 C   0  0  0  0  0  0  0  0  0  0  0  0
  139.0360   78.3180  221.6470 N   0  0  0  0  0  0  0  0  0  0  0  0
  138.5050   79.0860  222.6360 C   0  0  0  0  0  0  0  0  0  0  0  0
  137.1170   79.2410  222.7390 C   0  0  0  0  0  0  0  0  0  0  0  0
  136.4533   78.7462  222.0146 H   0  0  0  0  0  0  0  0  0  0  0  0
  136.5740   80.0250  223.7630 C   0  0  0  0  0  0  0  0  0  0  0  0
  135.4832   80.1421  223.8435 H   0  0  0  0  0  0  0  0  0  0  0  0
  137.4120   80.6600  224.6840 C   0  0  0  0  0  0  0  0  0  0  0  0
  136.8770   81.4110  225.6810 F   0  0  0  0  0  0  0  0  0  0  0  0
  138.8010   80.5170  224.5840 C   0  0  0  0  0  0  0  0  0  0  0  0
  139.4591   81.0222  225.3062 H   0  0  0  0  0  0  0  0  0  0  0  0
  139.3550   79.7280  223.5610 C   0  0  0  0  0  0  0  0  0  0  0  0
  140.7390   79.5560  223.4390 C   0  0  0  0  0  0  0  0  0  0  0  0
  141.4199   80.0487  224.1487 H   0  0  0  0  0  0  0  0  0  0  0  0
  141.2540   78.7580  222.4150 C   0  0  0  0  0  0  0  0  0  0  0  0
  142.3406   78.6170  222.3180 H   0  0  0  0  0  0  0  0  0  0  0  0
  1  2  1  0
  2  3  1  0
  3  4  2  0
  4  5  1  0
  5  6  1  0
  5  7  1  0
  5  8  1  0
  8  9  1  1
  8 10  1  0
 10 11  1  0
  8 12  1  0
 12 13  1  0
 12 14  1  0
 12 15  1  0
 15 16  1  6
 15 17  1  0
 17 18  2  0
 17 19  1  0
 19 20  1  0
 19 21  1  0
 21 22  1  1
 21 23  1  0
 23 24  2  0
 24 25  1  0
 24 26  1  0
 26 27  1  0
 26 28  2  0
 28 29  1  0
 28 30  1  0
 30 31  1  0
 30 32  2  0
 32 33  1  0
 21 34  1  0
 34 35  1  0
 34 36  1  0
 34 37  1  0
 37 38  1  0
  3 39  1  0
 39 40  1  0
 39 41  1  0
 39 42  1  0
 42 43  1  0
 42 44  1  0
 44 45  2  0
 44 46  1  0
 46 47  2  0
 47 48  1  0
 48 49  2  0
 49 50  1  0
 49 51  1  0
 51 52  1  0
 51 53  2  0
 53 54  1  0
 53 55  1  0
 55 56  1  0
 55 57  2  0
 57 58  1  0
 58 59  1  0
 58 60  2  0
 60 61  1  0
 15  4  1  0
 32 23  1  0
 60 46  1  0
 57 48  1  0
M  CHG  1   4   1
M  END
>  <UniqueID>  (25) 
154

>  <SMILES>  (25) 
O=C(NC/C(O)=[N+]1/C[C@H](O)C[C@H]1C(=O)N[C@@H](CO)c1cccc(Cl)c1)c1ccc2cc(F)ccc2n1

>  <Energy>  (25) 
62.28985114480852

>  <Genealogy>  (25) 
O=C(NCC(=O)[NH+]1C[C@H](O)C[C@H]1C(=O)N[C@@H](CO)c1cccc(Cl)c1)c1ccc2cc(F)ccc2n1 (protonated)
O=C(NCC(O)=[N+]1C[C@H](O)C[C@H]1C(=O)N[C@@H](CO)c1cccc(Cl)c1)c1ccc2cc(F)ccc2n1 (tautomer)
O=C(NC/C(O)=[N+]1/C[C@H](O)C[C@H]1C(=O)N[C@@H](CO)c1cccc(Cl)c1)c1ccc2cc(F)ccc2n1 (cis-trans isomerization)
O=C(NC/C(O)=[N+]1/C[C@H](O)C[C@H]1C(=O)N[C@@H](CO)c1cccc(Cl)c1)c1ccc2cc(F)ccc2n1 (3D coordinates assigned)
O=C(NC/C(O)=[N+]1/C[C@H](O)C[C@H]1C(=O)N[C@@H](CO)c1cccc(Cl)c1)c1ccc2cc(F)ccc2n1 (nonaromatic ring conformer: 62.28985114480852 kcal/mol)

>  <smiles>  (25) 
O=C(NCC(=O)N1C[C@H](O)C[C@H]1C(=O)N[C@@H](CO)c1cccc(Cl)c1)c1ccc2cc(F)ccc2n1

>  <score_type>  (25) 
oracle

>  <origin>  (25) 
autodockgpu

>  <m_score__min__energy>  (25) 
-8.8300000000000001

>  <m_primary>  (25) 
energy

>  <meeko>  (25) 
{"free_energy": -5.78, "intermolecular_energy": -9.06, "internal_energy": -5.73, "cluster_size": 2, "cluster_id": 4, "rank_in_cluster": 2}

>  <energy>  (25) 
-8.02

>  <cluster_rmsd>  (25) 
0.0

>  <rmsd>  (25) 
270.99

>  <cluster>  (25) 
3

$$$$
VCSRFCBMABBACK-HJZRBLFINA-O
     RDKit          3D

 61 64  0  0  0  0  0  0  0  0999 V2000
  140.5620   74.9070  218.5170 H   0  0  0  0  0  0  0  0  0  0  0  0
  141.4400   74.4040  218.4810 O   0  0  0  0  0  0  0  0  0  0  0  0
  142.6460   74.9080  218.9820 C   0  0  0  0  0  0  0  0  0  0  0  0
  143.4270   74.1710  219.7430 N   0  0  0  0  0  0  0  0  0  0  0  0
  144.6180   74.6950  220.4050 C   0  0  0  0  0  0  0  0  0  0  0  0
  145.1876   75.3346  219.7147 H   0  0  0  0  0  0  0  0  0  0  0  0
  144.3535   75.3086  221.2788 H   0  0  0  0  0  0  0  0  0  0  0  0
  145.4490   73.4820  220.8090 C   0  0  2  0  0  0  0  0  0  0  0  0
  145.9523   73.6225  221.7770 H   0  0  0  0  0  0  0  0  0  0  0  0
  146.4390   73.2490  219.8430 O   0  0  0  0  0  0  0  0  0  0  0  0
  146.6620   74.1350  219.4480 H   0  0  0  0  0  0  0  0  0  0  0  0
  144.4660   72.3160  220.8450 C   0  0  0  0  0  0  0  0  0  0  0  0
  144.9410   71.4037  220.4551 H   0  0  0  0  0  0  0  0  0  0  0  0
  144.1361   72.0991  221.8717 H   0  0  0  0  0  0  0  0  0  0  0  0
  143.2910   72.7260  219.9540 C   0  0  1  0  0  0  0  0  0  0  0  0
  143.2942   72.1954  218.9904 H   0  0  0  0  0  0  0  0  0  0  0  0
  141.9900   72.3820  220.6320 C   0  0  0  0  0  0  0  0  0  0  0  0
  141.7210   71.1760  220.8880 O   0  0  0  0  0  0  0  0  0  0  0  0
  141.0380   73.4130  220.9240 N   0  0  0  0  0  0  0  0  0  0  0  0
  141.3130   74.4070  220.7520 H   0  0  0  0  0  0  0  0  0  0  0  0
  139.6830   73.1110  221.4030 C   0  0  2  0  0  0  0  0  0  0  0  0
  139.2616   74.0197  221.8577 H   0  0  0  0  0  0  0  0  0  0  0  0
  139.7250   72.0250  222.4580 C   0  0  0  0  0  0  0  0  0  0  0  0
  139.1730   70.7620  222.1850 C   0  0  0  0  0  0  0  0  0  0  0  0
  138.7071   70.5669  221.2078 H   0  0  0  0  0  0  0  0  0  0  0  0
  139.2140   69.7530  223.1510 C   0  0  0  0  0  0  0  0  0  0  0  0
  138.7789   68.7667  222.9323 H   0  0  0  0  0  0  0  0  0  0  0  0
  139.8060   69.9930  224.3940 C   0  0  0  0  0  0  0  0  0  0  0  0
  139.8264   69.1992  225.1552 H   0  0  0  0  0  0  0  0  0  0  0  0
  140.3720   71.2400  224.6710 C   0  0  0  0  0  0  0  0  0  0  0  0
  141.1220   71.5360  226.2310 Cl  0  0  0  0  0  0  0  0  0  0  0  0
  140.3360   72.2530  223.7060 C   0  0  0  0  0  0  0  0  0  0  0  0
  140.7873   73.2323  223.9235 H   0  0  0  0  0  0  0  0  0  0  0  0
  138.7790   72.6920  220.2290 C   0  0  0  0  0  0  0  0  0  0  0  0
  138.9814   71.6408  219.9759 H   0  0  0  0  0  0  0  0  0  0  0  0
  137.7290   72.8191  220.5311 H   0  0  0  0  0  0  0  0  0  0  0  0
  139.0210   73.4910  219.1010 O   0  0  0  0  0  0  0  0  0  0  0  0
  139.5040   74.3020  219.4220 H   0  0  0  0  0  0  0  0  0  0  0  0
  142.9940   76.3240  218.5900 C   0  0  0  0  0  0  0  0  0  0  0  0
  142.5262   76.5551  217.6216 H   0  0  0  0  0  0  0  0  0  0  0  0
  144.0882   76.4104  218.5178 H   0  0  0  0  0  0  0  0  0  0  0  0
  142.5150   77.2740  219.5920 N   0  0  0  0  0  0  0  0  0  0  0  0
  143.0850   78.1280  219.7890 H   0  0  0  0  0  0  0  0  0  0  0  0
  141.2290   77.1290  220.2130 C   0  0  0  0  0  0  0  0  0  0  0  0
  140.4680   76.1860  219.8660 O   0  0  0  0  0  0  0  0  0  0  0  0
  140.8010   78.0610  221.2770 C   0  0  0  0  0  0  0  0  0  0  0  0
  139.4770   78.1920  221.5670 N   0  0  0  0  0  0  0  0  0  0  0  0
  139.0230   79.0560  222.5140 C   0  0  0  0  0  0  0  0  0  0  0  0
  137.6520   79.1530  222.7810 C   0  0  0  0  0  0  0  0  0  0  0  0
  136.9379   78.5330  222.2192 H   0  0  0  0  0  0  0  0  0  0  0  0
  137.1890   80.0370  223.7610 C   0  0  0  0  0  0  0  0  0  0  0  0
  136.1114   80.1079  223.9700 H   0  0  0  0  0  0  0  0  0  0  0  0
  138.0910   80.8310  224.4760 C   0  0  0  0  0  0  0  0  0  0  0  0
  137.6360   81.6790  225.4330 F   0  0  0  0  0  0  0  0  0  0  0  0
  139.4630   80.7460  224.2110 C   0  0  0  0  0  0  0  0  0  0  0  0
  140.1707   81.3756  224.7703 H   0  0  0  0  0  0  0  0  0  0  0  0
  139.9370   79.8570  223.2310 C   0  0  0  0  0  0  0  0  0  0  0  0
  141.3030   79.7410  222.9490 C   0  0  0  0  0  0  0  0  0  0  0  0
  142.0323   80.3571  223.4954 H   0  0  0  0  0  0  0  0  0  0  0  0
  141.7390   78.8420  221.9730 C   0  0  0  0  0  0  0  0  0  0  0  0
  142.8119   78.7459  221.7502 H   0  0  0  0  0  0  0  0  0  0  0  0
  1  2  1  0
  2  3  1  0
  3  4  2  0
  4  5  1  0
  5  6  1  0
  5  7  1  0
  5  8  1  0
  8  9  1  1
  8 10  1  0
 10 11  1  0
  8 12  1  0
 12 13  1  0
 12 14  1  0
 12 15  1  0
 15 16  1  6
 15 17  1  0
 17 18  2  0
 17 19  1  0
 19 20  1  0
 19 21  1  0
 21 22  1  1
 21 23  1  0
 23 24  2  0
 24 25  1  0
 24 26  1  0
 26 27  1  0
 26 28  2  0
 28 29  1  0
 28 30  1  0
 30 31  1  0
 30 32  2  0
 32 33  1  0
 21 34  1  0
 34 35  1  0
 34 36  1  0
 34 37  1  0
 37 38  1  0
  3 39  1  0
 39 40  1  0
 39 41  1  0
 39 42  1  0
 42 43  1  0
 42 44  1  0
 44 45  2  0
 44 46  1  0
 46 47  2  0
 47 48  1  0
 48 49  2  0
 49 50  1  0
 49 51  1  0
 51 52  1  0
 51 53  2  0
 53 54  1  0
 53 55  1  0
 55 56  1  0
 55 57  2  0
 57 58  1  0
 58 59  1  0
 58 60  2  0
 60 61  1  0
 15  4  1  0
 32 23  1  0
 60 46  1  0
 57 48  1  0
M  CHG  1   4   1
M  END
>  <UniqueID>  (26) 
154

>  <SMILES>  (26) 
O=C(NC/C(O)=[N+]1/C[C@H](O)C[C@H]1C(=O)N[C@@H](CO)c1cccc(Cl)c1)c1ccc2cc(F)ccc2n1

>  <Energy>  (26) 
62.28985114480852

>  <Genealogy>  (26) 
O=C(NCC(=O)[NH+]1C[C@H](O)C[C@H]1C(=O)N[C@@H](CO)c1cccc(Cl)c1)c1ccc2cc(F)ccc2n1 (protonated)
O=C(NCC(O)=[N+]1C[C@H](O)C[C@H]1C(=O)N[C@@H](CO)c1cccc(Cl)c1)c1ccc2cc(F)ccc2n1 (tautomer)
O=C(NC/C(O)=[N+]1/C[C@H](O)C[C@H]1C(=O)N[C@@H](CO)c1cccc(Cl)c1)c1ccc2cc(F)ccc2n1 (cis-trans isomerization)
O=C(NC/C(O)=[N+]1/C[C@H](O)C[C@H]1C(=O)N[C@@H](CO)c1cccc(Cl)c1)c1ccc2cc(F)ccc2n1 (3D coordinates assigned)
O=C(NC/C(O)=[N+]1/C[C@H](O)C[C@H]1C(=O)N[C@@H](CO)c1cccc(Cl)c1)c1ccc2cc(F)ccc2n1 (nonaromatic ring conformer: 62.28985114480852 kcal/mol)

>  <smiles>  (26) 
O=C(NCC(=O)N1C[C@H](O)C[C@H]1C(=O)N[C@@H](CO)c1cccc(Cl)c1)c1ccc2cc(F)ccc2n1

>  <score_type>  (26) 
oracle

>  <origin>  (26) 
autodockgpu

>  <m_score__min__energy>  (26) 
-8.8300000000000001

>  <m_primary>  (26) 
energy

>  <meeko>  (26) 
{"free_energy": -6.66, "intermolecular_energy": -9.94, "internal_energy": -5.27, "cluster_size": 2, "cluster_id": 4, "rank_in_cluster": 1}

>  <energy>  (26) 
-6.66

>  <cluster_rmsd>  (26) 
0.0

>  <rmsd>  (26) 
270.37

>  <cluster>  (26) 
4

$$$$
VCSRFCBMABBACK-HJZRBLFINA-O
     RDKit          3D

 61 64  0  0  0  0  0  0  0  0999 V2000
  138.1880   74.1560  222.7280 H   0  0  0  0  0  0  0  0  0  0  0  0
  137.3810   73.7220  222.2970 O   0  0  0  0  0  0  0  0  0  0  0  0
  136.0600   74.0190  222.6450 C   0  0  0  0  0  0  0  0  0  0  0  0
  135.2510   73.0860  223.1020 N   0  0  0  0  0  0  0  0  0  0  0  0
  133.8710   72.9370  222.6500 C   0  0  0  0  0  0  0  0  0  0  0  0
  133.3830   73.9207  222.5853 H   0  0  0  0  0  0  0  0  0  0  0  0
  133.8246   72.4801  221.6505 H   0  0  0  0  0  0  0  0  0  0  0  0
  133.1720   72.0680  223.6900 C   0  0  2  0  0  0  0  0  0  0  0  0
  132.4407   71.3809  223.2394 H   0  0  0  0  0  0  0  0  0  0  0  0
  132.4850   72.8850  224.5990 O   0  0  0  0  0  0  0  0  0  0  0  0
  131.9930   73.5590  224.0560 H   0  0  0  0  0  0  0  0  0  0  0  0
  134.2940   71.3170  224.4030 C   0  0  0  0  0  0  0  0  0  0  0  0
  134.0749   71.2331  225.4777 H   0  0  0  0  0  0  0  0  0  0  0  0
  134.4063   70.2950  224.0121 H   0  0  0  0  0  0  0  0  0  0  0  0
  135.5630   72.1440  224.1820 C   0  0  1  0  0  0  0  0  0  0  0  0
  135.8685   72.6871  225.0885 H   0  0  0  0  0  0  0  0  0  0  0  0
  136.7080   71.2370  223.8160 C   0  0  0  0  0  0  0  0  0  0  0  0
  136.5380   69.9860  223.8260 O   0  0  0  0  0  0  0  0  0  0  0  0
  137.9970   71.7890  223.5250 N   0  0  0  0  0  0  0  0  0  0  0  0
  138.0920   72.8290  223.4710 H   0  0  0  0  0  0  0  0  0  0  0  0
  139.1880   70.9460  223.3550 C   0  0  2  0  0  0  0  0  0  0  0  0
  138.9448   70.1339  222.6540 H   0  0  0  0  0  0  0  0  0  0  0  0
  139.5920   70.3290  224.6780 C   0  0  0  0  0  0  0  0  0  0  0  0
  139.4970   68.9390  224.8610 C   0  0  0  0  0  0  0  0  0  0  0  0
  139.1240   68.3028  224.0448 H   0  0  0  0  0  0  0  0  0  0  0  0
  139.8750   68.3620  226.0770 C   0  0  0  0  0  0  0  0  0  0  0  0
  139.7965   67.2736  226.2157 H   0  0  0  0  0  0  0  0  0  0  0  0
  140.3520   69.1640  227.1160 C   0  0  0  0  0  0  0  0  0  0  0  0
  140.6379   68.7072  228.0750 H   0  0  0  0  0  0  0  0  0  0  0  0
  140.4670   70.5460  226.9400 C   0  0  0  0  0  0  0  0  0  0  0  0
  141.0760   71.5490  228.2470 Cl  0  0  0  0  0  0  0  0  0  0  0  0
  140.0930   71.1270  225.7250 C   0  0  0  0  0  0  0  0  0  0  0  0
  140.1905   72.2138  225.5857 H   0  0  0  0  0  0  0  0  0  0  0  0
  140.3480   71.7660  222.7610 C   0  0  0  0  0  0  0  0  0  0  0  0
  141.2083   71.7212  223.4450 H   0  0  0  0  0  0  0  0  0  0  0  0
  140.6140   71.3413  221.7818 H   0  0  0  0  0  0  0  0  0  0  0  0
  139.9720   73.1070  222.5820 O   0  0  0  0  0  0  0  0  0  0  0  0
  139.3090   73.3170  223.2960 H   0  0  0  0  0  0  0  0  0  0  0  0
  135.6280   75.4550  222.4760 C   0  0  0  0  0  0  0  0  0  0  0  0
  134.8654   75.6933  223.2320 H   0  0  0  0  0  0  0  0  0  0  0  0
  135.2171   75.5823  221.4636 H   0  0  0  0  0  0  0  0  0  0  0  0
  136.7630   76.3620  222.6380 N   0  0  0  0  0  0  0  0  0  0  0  0
  137.7290   75.9910  222.4910 H   0  0  0  0  0  0  0  0  0  0  0  0
  136.5770   77.7680  222.8660 C   0  0  0  0  0  0  0  0  0  0  0  0
  135.4130   78.2500  222.8890 O   0  0  0  0  0  0  0  0  0  0  0  0
  137.7400   78.6480  223.1010 C   0  0  0  0  0  0  0  0  0  0  0  0
  139.0010   78.1510  222.9670 N   0  0  0  0  0  0  0  0  0  0  0  0
  140.1080   78.9050  223.2000 C   0  0  0  0  0  0  0  0  0  0  0  0
  141.3840   78.3510  223.0450 C   0  0  0  0  0  0  0  0  0  0  0  0
  141.4931   77.2996  222.7405 H   0  0  0  0  0  0  0  0  0  0  0  0
  142.5210   79.1330  223.2770 C   0  0  0  0  0  0  0  0  0  0  0  0
  143.5222   78.6956  223.1496 H   0  0  0  0  0  0  0  0  0  0  0  0
  142.3890   80.4680  223.6700 C   0  0  0  0  0  0  0  0  0  0  0  0
  143.4970   81.2230  223.8840 F   0  0  0  0  0  0  0  0  0  0  0  0
  141.1170   81.0290  223.8350 C   0  0  0  0  0  0  0  0  0  0  0  0
  141.0150   82.0782  224.1492 H   0  0  0  0  0  0  0  0  0  0  0  0
  139.9700   80.2510  223.5990 C   0  0  0  0  0  0  0  0  0  0  0  0
  138.6840   80.7850  223.7450 C   0  0  0  0  0  0  0  0  0  0  0  0
  138.5544   81.8321  224.0561 H   0  0  0  0  0  0  0  0  0  0  0  0
  137.5660   79.9860  223.4950 C   0  0  0  0  0  0  0  0  0  0  0  0
  136.5538   80.4020  223.6060 H   0  0  0  0  0  0  0  0  0  0  0  0
  1  2  1  0
  2  3  1  0
  3  4  2  0
  4  5  1  0
  5  6  1  0
  5  7  1  0
  5  8  1  0
  8  9  1  6
  8 10  1  0
 10 11  1  0
  8 12  1  0
 12 13  1  0
 12 14  1  0
 12 15  1  0
 15 16  1  1
 15 17  1  0
 17 18  2  0
 17 19  1  0
 19 20  1  0
 19 21  1  0
 21 22  1  6
 21 23  1  0
 23 24  2  0
 24 25  1  0
 24 26  1  0
 26 27  1  0
 26 28  2  0
 28 29  1  0
 28 30  1  0
 30 31  1  0
 30 32  2  0
 32 33  1  0
 21 34  1  0
 34 35  1  0
 34 36  1  0
 34 37  1  0
 37 38  1  0
  3 39  1  0
 39 40  1  0
 39 41  1  0
 39 42  1  0
 42 43  1  0
 42 44  1  0
 44 45  2  0
 44 46  1  0
 46 47  2  0
 47 48  1  0
 48 49  2  0
 49 50  1  0
 49 51  1  0
 51 52  1  0
 51 53  2  0
 53 54  1  0
 53 55  1  0
 55 56  1  0
 55 57  2  0
 57 58  1  0
 58 59  1  0
 58 60  2  0
 60 61  1  0
 15  4  1  0
 32 23  1  0
 60 46  1  0
 57 48  1  0
M  CHG  1   4   1
M  END
>  <UniqueID>  (27) 
154

>  <SMILES>  (27) 
O=C(NC/C(O)=[N+]1/C[C@H](O)C[C@H]1C(=O)N[C@@H](CO)c1cccc(Cl)c1)c1ccc2cc(F)ccc2n1

>  <Energy>  (27) 
62.28985114480852

>  <Genealogy>  (27) 
O=C(NCC(=O)[NH+]1C[C@H](O)C[C@H]1C(=O)N[C@@H](CO)c1cccc(Cl)c1)c1ccc2cc(F)ccc2n1 (protonated)
O=C(NCC(O)=[N+]1C[C@H](O)C[C@H]1C(=O)N[C@@H](CO)c1cccc(Cl)c1)c1ccc2cc(F)ccc2n1 (tautomer)
O=C(NC/C(O)=[N+]1/C[C@H](O)C[C@H]1C(=O)N[C@@H](CO)c1cccc(Cl)c1)c1ccc2cc(F)ccc2n1 (cis-trans isomerization)
O=C(NC/C(O)=[N+]1/C[C@H](O)C[C@H]1C(=O)N[C@@H](CO)c1cccc(Cl)c1)c1ccc2cc(F)ccc2n1 (3D coordinates assigned)
O=C(NC/C(O)=[N+]1/C[C@H](O)C[C@H]1C(=O)N[C@@H](CO)c1cccc(Cl)c1)c1ccc2cc(F)ccc2n1 (nonaromatic ring conformer: 62.28985114480852 kcal/mol)

>  <smiles>  (27) 
O=C(NCC(=O)N1C[C@H](O)C[C@H]1C(=O)N[C@@H](CO)c1cccc(Cl)c1)c1ccc2cc(F)ccc2n1

>  <score_type>  (27) 
oracle

>  <origin>  (27) 
autodockgpu

>  <m_score__min__energy>  (27) 
-8.8300000000000001

>  <m_primary>  (27) 
energy

>  <meeko>  (27) 
{"free_energy": -8.43, "intermolecular_energy": -11.71, "internal_energy": -4.09, "cluster_size": 3, "cluster_id": 2, "rank_in_cluster": 2}

>  <energy>  (27) 
-5.78

>  <cluster_rmsd>  (27) 
0.85

>  <rmsd>  (27) 
270.14

>  <cluster>  (27) 
4

$$$$
VCSRFCBMABBACK-HJZRBLFINA-O
     RDKit          3D

 61 64  0  0  0  0  0  0  0  0999 V2000
  143.7240   74.3550  221.5570 H   0  0  0  0  0  0  0  0  0  0  0  0
  143.3660   73.7000  220.8740 O   0  0  0  0  0  0  0  0  0  0  0  0
  142.3570   74.0070  219.9560 C   0  0  0  0  0  0  0  0  0  0  0  0
  142.5820   74.8150  218.9420 N   0  0  0  0  0  0  0  0  0  0  0  0
  142.6640   74.3550  217.5590 C   0  0  0  0  0  0  0  0  0  0  0  0
  143.2579   73.4310  217.4993 H   0  0  0  0  0  0  0  0  0  0  0  0
  141.6669   74.1321  217.1515 H   0  0  0  0  0  0  0  0  0  0  0  0
  143.3460   75.4730  216.7770 C   0  0  2  0  0  0  0  0  0  0  0  0
  142.9337   75.5877  215.7637 H   0  0  0  0  0  0  0  0  0  0  0  0
  144.7130   75.1910  216.6500 O   0  0  0  0  0  0  0  0  0  0  0  0
  145.1660   75.6440  217.4120 H   0  0  0  0  0  0  0  0  0  0  0  0
  143.1440   76.7310  217.6180 C   0  0  0  0  0  0  0  0  0  0  0  0
  144.0448   77.3615  217.5851 H   0  0  0  0  0  0  0  0  0  0  0  0
  142.3074   77.3377  217.2411 H   0  0  0  0  0  0  0  0  0  0  0  0
  142.8860   76.2460  219.0470 C   0  0  1  0  0  0  0  0  0  0  0  0
  143.7535   76.4060  219.7041 H   0  0  0  0  0  0  0  0  0  0  0  0
  141.7400   77.0160  219.6480 C   0  0  0  0  0  0  0  0  0  0  0  0
  141.3890   78.1140  219.1340 O   0  0  0  0  0  0  0  0  0  0  0  0
  141.0960   76.5360  220.8350 N   0  0  0  0  0  0  0  0  0  0  0  0
  141.3710   75.5970  221.2050 H   0  0  0  0  0  0  0  0  0  0  0  0
  140.1100   77.3400  221.5690 C   0  0  2  0  0  0  0  0  0  0  0  0
  139.3726   77.7294  220.8516 H   0  0  0  0  0  0  0  0  0  0  0  0
  140.7850   78.5150  222.2460 C   0  0  0  0  0  0  0  0  0  0  0  0
  141.5000   78.3190  223.4400 C   0  0  0  0  0  0  0  0  0  0  0  0
  141.5632   77.3139  223.8825 H   0  0  0  0  0  0  0  0  0  0  0  0
  142.1310   79.3970  224.0670 C   0  0  0  0  0  0  0  0  0  0  0  0
  142.6868   79.2382  225.0029 H   0  0  0  0  0  0  0  0  0  0  0  0
  142.0580   80.6750  223.5090 C   0  0  0  0  0  0  0  0  0  0  0  0
  142.5474   81.5224  224.0114 H   0  0  0  0  0  0  0  0  0  0  0  0
  141.3640   80.8790  222.3130 C   0  0  0  0  0  0  0  0  0  0  0  0
  141.2810   82.4870  221.6110 Cl  0  0  0  0  0  0  0  0  0  0  0  0
  140.7330   79.8040  221.6810 C   0  0  0  0  0  0  0  0  0  0  0  0
  140.1925   79.9656  220.7367 H   0  0  0  0  0  0  0  0  0  0  0  0
  139.3690   76.4720  222.6020 C   0  0  0  0  0  0  0  0  0  0  0  0
  139.6993   76.7535  223.6128 H   0  0  0  0  0  0  0  0  0  0  0  0
  138.2874   76.6394  222.4919 H   0  0  0  0  0  0  0  0  0  0  0  0
  139.6370   75.1090  222.3930 O   0  0  0  0  0  0  0  0  0  0  0  0
  138.8400   74.6060  222.7210 H   0  0  0  0  0  0  0  0  0  0  0  0
  141.0160   73.3540  220.1910 C   0  0  0  0  0  0  0  0  0  0  0  0
  140.7849   72.6912  219.3441 H   0  0  0  0  0  0  0  0  0  0  0  0
  140.2530   74.1411  220.2823 H   0  0  0  0  0  0  0  0  0  0  0  0
  141.0270   72.5690  221.4240 N   0  0  0  0  0  0  0  0  0  0  0  0
  141.9470   72.3090  221.8460 H   0  0  0  0  0  0  0  0  0  0  0  0
  139.8170   72.2600  222.1310 C   0  0  0  0  0  0  0  0  0  0  0  0
  138.7140   72.7040  221.7110 O   0  0  0  0  0  0  0  0  0  0  0  0
  139.8500   71.4010  223.3330 C   0  0  0  0  0  0  0  0  0  0  0  0
  140.3670   71.8870  224.4950 N   0  0  0  0  0  0  0  0  0  0  0  0
  140.4520   71.1340  225.6240 C   0  0  0  0  0  0  0  0  0  0  0  0
  140.9890   71.6790  226.7970 C   0  0  0  0  0  0  0  0  0  0  0  0
  141.3505   72.7179  226.8050 H   0  0  0  0  0  0  0  0  0  0  0  0
  141.0660   70.9030  227.9590 C   0  0  0  0  0  0  0  0  0  0  0  0
  141.4832   71.3360  228.8801 H   0  0  0  0  0  0  0  0  0  0  0  0
  140.6150   69.5800  227.9540 C   0  0  0  0  0  0  0  0  0  0  0  0
  140.6850   68.8370  229.0880 F   0  0  0  0  0  0  0  0  0  0  0  0
  140.0840   69.0240  226.7840 C   0  0  0  0  0  0  0  0  0  0  0  0
  139.7340   67.9812  226.7804 H   0  0  0  0  0  0  0  0  0  0  0  0
  139.9980   69.7980  225.6140 C   0  0  0  0  0  0  0  0  0  0  0  0
  139.4630   69.2750  224.4300 C   0  0  0  0  0  0  0  0  0  0  0  0
  139.1040   68.2357  224.3997 H   0  0  0  0  0  0  0  0  0  0  0  0
  139.3860   70.0750  223.2880 C   0  0  0  0  0  0  0  0  0  0  0  0
  138.9639   69.6690  222.3569 H   0  0  0  0  0  0  0  0  0  0  0  0
  1  2  1  0
  2  3  1  0
  3  4  2  0
  4  5  1  0
  5  6  1  0
  5  7  1  0
  5  8  1  0
  8  9  1  6
  8 10  1  0
 10 11  1  0
  8 12  1  0
 12 13  1  0
 12 14  1  0
 12 15  1  0
 15 16  1  1
 15 17  1  0
 17 18  2  0
 17 19  1  0
 19 20  1  0
 19 21  1  0
 21 22  1  6
 21 23  1  0
 23 24  2  0
 24 25  1  0
 24 26  1  0
 26 27  1  0
 26 28  2  0
 28 29  1  0
 28 30  1  0
 30 31  1  0
 30 32  2  0
 32 33  1  0
 21 34  1  0
 34 35  1  0
 34 36  1  0
 34 37  1  0
 37 38  1  0
  3 39  1  0
 39 40  1  0
 39 41  1  0
 39 42  1  0
 42 43  1  0
 42 44  1  0
 44 45  2  0
 44 46  1  0
 46 47  2  0
 47 48  1  0
 48 49  2  0
 49 50  1  0
 49 51  1  0
 51 52  1  0
 51 53  2  0
 53 54  1  0
 53 55  1  0
 55 56  1  0
 55 57  2  0
 57 58  1  0
 58 59  1  0
 58 60  2  0
 60 61  1  0
 15  4  1  0
 32 23  1  0
 60 46  1  0
 57 48  1  0
M  CHG  1   4   1
M  END
>  <UniqueID>  (28) 
154

>  <SMILES>  (28) 
O=C(NC/C(O)=[N+]1/C[C@H](O)C[C@H]1C(=O)N[C@@H](CO)c1cccc(Cl)c1)c1ccc2cc(F)ccc2n1

>  <Energy>  (28) 
62.28985114480852

>  <Genealogy>  (28) 
O=C(NCC(=O)[NH+]1C[C@H](O)C[C@H]1C(=O)N[C@@H](CO)c1cccc(Cl)c1)c1ccc2cc(F)ccc2n1 (protonated)
O=C(NCC(O)=[N+]1C[C@H](O)C[C@H]1C(=O)N[C@@H](CO)c1cccc(Cl)c1)c1ccc2cc(F)ccc2n1 (tautomer)
O=C(NC/C(O)=[N+]1/C[C@H](O)C[C@H]1C(=O)N[C@@H](CO)c1cccc(Cl)c1)c1ccc2cc(F)ccc2n1 (cis-trans isomerization)
O=C(NC/C(O)=[N+]1/C[C@H](O)C[C@H]1C(=O)N[C@@H](CO)c1cccc(Cl)c1)c1ccc2cc(F)ccc2n1 (3D coordinates assigned)
O=C(NC/C(O)=[N+]1/C[C@H](O)C[C@H]1C(=O)N[C@@H](CO)c1cccc(Cl)c1)c1ccc2cc(F)ccc2n1 (nonaromatic ring conformer: 62.28985114480852 kcal/mol)

>  <smiles>  (28) 
O=C(NCC(=O)N1C[C@H](O)C[C@H]1C(=O)N[C@@H](CO)c1cccc(Cl)c1)c1ccc2cc(F)ccc2n1

>  <score_type>  (28) 
oracle

>  <origin>  (28) 
autodockgpu

>  <m_score__min__energy>  (28) 
-8.8300000000000001

>  <m_primary>  (28) 
energy

>  <meeko>  (28) 
{"free_energy": -8.83, "intermolecular_energy": -12.12, "internal_energy": -3.63, "cluster_size": 1, "cluster_id": 1, "rank_in_cluster": 1}

>  <energy>  (28) 
-6.25

>  <cluster_rmsd>  (28) 
0.0

>  <rmsd>  (28) 
270.17

>  <cluster>  (28) 
5

$$$$
VCSRFCBMABBACK-HJZRBLFINA-O
     RDKit          3D

 61 64  0  0  0  0  0  0  0  0999 V2000
  141.2790   72.7700  218.2300 H   0  0  0  0  0  0  0  0  0  0  0  0
  141.8660   72.1420  218.7640 O   0  0  0  0  0  0  0  0  0  0  0  0
  142.4040   72.4550  220.0170 C   0  0  0  0  0  0  0  0  0  0  0  0
  143.6080   72.9750  220.1290 N   0  0  0  0  0  0  0  0  0  0  0  0
  144.8240   72.1680  220.1700 C   0  0  0  0  0  0  0  0  0  0  0  0
  144.6809   71.2962  220.8254 H   0  0  0  0  0  0  0  0  0  0  0  0
  145.0869   71.7891  219.1713 H   0  0  0  0  0  0  0  0  0  0  0  0
  145.9180   73.0730  220.7260 C   0  0  2  0  0  0  0  0  0  0  0  0
  146.8937   72.8892  220.2525 H   0  0  0  0  0  0  0  0  0  0  0  0
  146.0620   72.8450  222.1020 O   0  0  0  0  0  0  0  0  0  0  0  0
  145.7340   71.9200  222.2710 H   0  0  0  0  0  0  0  0  0  0  0  0
  145.4260   74.4960  220.4790 C   0  0  0  0  0  0  0  0  0  0  0  0
  145.6865   75.1435  221.3292 H   0  0  0  0  0  0  0  0  0  0  0  0
  145.8899   74.9328  219.5824 H   0  0  0  0  0  0  0  0  0  0  0  0
  143.9050   74.3970  220.3320 C   0  0  1  0  0  0  0  0  0  0  0  0
  143.3757   74.7761  221.2186 H   0  0  0  0  0  0  0  0  0  0  0  0
  143.4480   75.2340  219.1660 C   0  0  0  0  0  0  0  0  0  0  0  0
  144.0620   75.1580  218.0660 O   0  0  0  0  0  0  0  0  0  0  0  0
  142.3640   76.1570  219.3270 N   0  0  0  0  0  0  0  0  0  0  0  0
  141.8400   76.1570  220.2320 H   0  0  0  0  0  0  0  0  0  0  0  0
  142.0070   77.1310  218.2860 C   0  0  2  0  0  0  0  0  0  0  0  0
  142.9247   77.4360  217.7618 H   0  0  0  0  0  0  0  0  0  0  0  0
  141.3810   78.3630  218.9070 C   0  0  0  0  0  0  0  0  0  0  0  0
  142.1930   79.4480  219.2790 C   0  0  0  0  0  0  0  0  0  0  0  0
  143.2808   79.3980  219.1238 H   0  0  0  0  0  0  0  0  0  0  0  0
  141.6210   80.5910  219.8460 C   0  0  0  0  0  0  0  0  0  0  0  0
  142.2607   81.4372  220.1371 H   0  0  0  0  0  0  0  0  0  0  0  0
  140.2400   80.6620  220.0440 C   0  0  0  0  0  0  0  0  0  0  0  0
  139.7959   81.5586  220.5010 H   0  0  0  0  0  0  0  0  0  0  0  0
  139.4220   79.5950  219.6620 C   0  0  0  0  0  0  0  0  0  0  0  0
  137.6850   79.6920  219.9050 Cl  0  0  0  0  0  0  0  0  0  0  0  0
  139.9880   78.4500  219.0930 C   0  0  0  0  0  0  0  0  0  0  0  0
  139.3419   77.6132  218.7892 H   0  0  0  0  0  0  0  0  0  0  0  0
  141.0520   76.4950  217.2600 C   0  0  0  0  0  0  0  0  0  0  0  0
  140.0231   76.8179  217.4771 H   0  0  0  0  0  0  0  0  0  0  0  0
  141.3517   76.8193  216.2525 H   0  0  0  0  0  0  0  0  0  0  0  0
  141.1160   75.0940  217.3180 O   0  0  0  0  0  0  0  0  0  0  0  0
  141.8360   74.8660  217.9680 H   0  0  0  0  0  0  0  0  0  0  0  0
  141.5270   72.1730  221.2120 C   0  0  0  0  0  0  0  0  0  0  0  0
  142.1155   71.6395  221.9730 H   0  0  0  0  0  0  0  0  0  0  0  0
  140.6747   71.5588  220.8859 H   0  0  0  0  0  0  0  0  0  0  0  0
  141.0150   73.4160  221.7870 N   0  0  0  0  0  0  0  0  0  0  0  0
  141.0910   73.5610  222.8190 H   0  0  0  0  0  0  0  0  0  0  0  0
  140.5310   74.4850  220.9600 C   0  0  0  0  0  0  0  0  0  0  0  0
  140.5810   74.3780  219.7050 O   0  0  0  0  0  0  0  0  0  0  0  0
  139.9500   75.6990  221.5700 C   0  0  0  0  0  0  0  0  0  0  0  0
  140.7710   76.6890  222.0160 N   0  0  0  0  0  0  0  0  0  0  0  0
  140.2940   77.8140  222.6130 C   0  0  0  0  0  0  0  0  0  0  0  0
  141.1780   78.8070  223.0530 C   0  0  0  0  0  0  0  0  0  0  0  0
  142.2622   78.6750  222.9221 H   0  0  0  0  0  0  0  0  0  0  0  0
  140.6830   79.9670  223.6590 C   0  0  0  0  0  0  0  0  0  0  0  0
  141.3798   80.7467  224.0006 H   0  0  0  0  0  0  0  0  0  0  0  0
  139.3070   80.1390  223.8320 C   0  0  0  0  0  0  0  0  0  0  0  0
  138.8330   81.2720  224.4120 F   0  0  0  0  0  0  0  0  0  0  0  0
  138.4160   79.1480  223.4030 C   0  0  0  0  0  0  0  0  0  0  0  0
  137.3336   79.2818  223.5464 H   0  0  0  0  0  0  0  0  0  0  0  0
  138.9050   77.9820  222.7890 C   0  0  0  0  0  0  0  0  0  0  0  0
  138.0400   76.9770  222.3380 C   0  0  0  0  0  0  0  0  0  0  0  0
  136.9530   77.0875  222.4655 H   0  0  0  0  0  0  0  0  0  0  0  0
  138.5600   75.8340  221.7260 C   0  0  0  0  0  0  0  0  0  0  0  0
  137.8845   75.0432  221.3678 H   0  0  0  0  0  0  0  0  0  0  0  0
  1  2  1  0
  2  3  1  0
  3  4  2  0
  4  5  1  0
  5  6  1  0
  5  7  1  0
  5  8  1  0
  8  9  1  6
  8 10  1  0
 10 11  1  0
  8 12  1  0
 12 13  1  0
 12 14  1  0
 12 15  1  0
 15 16  1  1
 15 17  1  0
 17 18  2  0
 17 19  1  0
 19 20  1  0
 19 21  1  0
 21 22  1  6
 21 23  1  0
 23 24  2  0
 24 25  1  0
 24 26  1  0
 26 27  1  0
 26 28  2  0
 28 29  1  0
 28 30  1  0
 30 31  1  0
 30 32  2  0
 32 33  1  0
 21 34  1  0
 34 35  1  0
 34 36  1  0
 34 37  1  0
 37 38  1  0
  3 39  1  0
 39 40  1  0
 39 41  1  0
 39 42  1  0
 42 43  1  0
 42 44  1  0
 44 45  2  0
 44 46  1  0
 46 47  2  0
 47 48  1  0
 48 49  2  0
 49 50  1  0
 49 51  1  0
 51 52  1  0
 51 53  2  0
 53 54  1  0
 53 55  1  0
 55 56  1  0
 55 57  2  0
 57 58  1  0
 58 59  1  0
 58 60  2  0
 60 61  1  0
 15  4  1  0
 32 23  1  0
 60 46  1  0
 57 48  1  0
M  CHG  1   4   1
M  END
>  <UniqueID>  (29) 
154

>  <SMILES>  (29) 
O=C(NC/C(O)=[N+]1/C[C@H](O)C[C@H]1C(=O)N[C@@H](CO)c1cccc(Cl)c1)c1ccc2cc(F)ccc2n1

>  <Energy>  (29) 
62.28985114480852

>  <Genealogy>  (29) 
O=C(NCC(=O)[NH+]1C[C@H](O)C[C@H]1C(=O)N[C@@H](CO)c1cccc(Cl)c1)c1ccc2cc(F)ccc2n1 (protonated)
O=C(NCC(O)=[N+]1C[C@H](O)C[C@H]1C(=O)N[C@@H](CO)c1cccc(Cl)c1)c1ccc2cc(F)ccc2n1 (tautomer)
O=C(NC/C(O)=[N+]1/C[C@H](O)C[C@H]1C(=O)N[C@@H](CO)c1cccc(Cl)c1)c1ccc2cc(F)ccc2n1 (cis-trans isomerization)
O=C(NC/C(O)=[N+]1/C[C@H](O)C[C@H]1C(=O)N[C@@H](CO)c1cccc(Cl)c1)c1ccc2cc(F)ccc2n1 (3D coordinates assigned)
O=C(NC/C(O)=[N+]1/C[C@H](O)C[C@H]1C(=O)N[C@@H](CO)c1cccc(Cl)c1)c1ccc2cc(F)ccc2n1 (nonaromatic ring conformer: 62.28985114480852 kcal/mol)

>  <smiles>  (29) 
O=C(NCC(=O)N1C[C@H](O)C[C@H]1C(=O)N[C@@H](CO)c1cccc(Cl)c1)c1ccc2cc(F)ccc2n1

>  <score_type>  (29) 
oracle

>  <origin>  (29) 
autodockgpu

>  <m_score__min__energy>  (29) 
-8.8300000000000001

>  <m_primary>  (29) 
energy

>  <meeko>  (29) 
{"free_energy": -4.35, "intermolecular_energy": -7.63, "internal_energy": -6.56, "cluster_size": 1, "cluster_id": 10, "rank_in_cluster": 1}

>  <energy>  (29) 
-5.98

>  <cluster_rmsd>  (29) 
0.82

>  <rmsd>  (29) 
270.12

>  <cluster>  (29) 
5

$$$$
VCSRFCBMABBACK-HJZRBLFINA-O
     RDKit          3D

 61 64  0  0  0  0  0  0  0  0999 V2000
  139.0010   73.3610  219.9280 H   0  0  0  0  0  0  0  0  0  0  0  0
  138.1370   73.8710  220.0670 O   0  0  0  0  0  0  0  0  0  0  0  0
  137.1800   73.5310  221.0290 C   0  0  0  0  0  0  0  0  0  0  0  0
  136.6080   74.4520  221.7750 N   0  0  0  0  0  0  0  0  0  0  0  0
  135.4580   74.1810  222.6330 C   0  0  0  0  0  0  0  0  0  0  0  0
  134.7248   73.5563  222.1018 H   0  0  0  0  0  0  0  0  0  0  0  0
  135.7553   73.6375  223.5419 H   0  0  0  0  0  0  0  0  0  0  0  0
  134.8500   75.5380  222.9710 C   0  0  2  0  0  0  0  0  0  0  0  0
  134.4660   75.5795  224.0010 H   0  0  0  0  0  0  0  0  0  0  0  0
  133.7790   75.8010  222.1050 O   0  0  0  0  0  0  0  0  0  0  0  0
  132.9960   76.0160  222.6820 H   0  0  0  0  0  0  0  0  0  0  0  0
  135.9700   76.5490  222.7420 C   0  0  0  0  0  0  0  0  0  0  0  0
  135.5679   77.4705  222.2957 H   0  0  0  0  0  0  0  0  0  0  0  0
  136.4583   76.8307  223.6866 H   0  0  0  0  0  0  0  0  0  0  0  0
  136.9540   75.8770  221.7800 C   0  0  1  0  0  0  0  0  0  0  0  0
  136.8900   76.2907  220.7628 H   0  0  0  0  0  0  0  0  0  0  0  0
  138.3660   76.1050  222.2520 C   0  0  0  0  0  0  0  0  0  0  0  0
  138.6040   77.0220  223.0860 O   0  0  0  0  0  0  0  0  0  0  0  0
  139.4400   75.3280  221.7070 N   0  0  0  0  0  0  0  0  0  0  0  0
  139.2050   74.5400  221.0610 H   0  0  0  0  0  0  0  0  0  0  0  0
  140.8480   75.6390  221.9850 C   0  0  2  0  0  0  0  0  0  0  0  0
  141.0830   75.3121  223.0087 H   0  0  0  0  0  0  0  0  0  0  0  0
  141.0880   77.1320  221.8940 C   0  0  0  0  0  0  0  0  0  0  0  0
  141.2700   77.8840  223.0670 C   0  0  0  0  0  0  0  0  0  0  0  0
  141.2330   77.3876  224.0479 H   0  0  0  0  0  0  0  0  0  0  0  0
  141.4980   79.2610  222.9910 C   0  0  0  0  0  0  0  0  0  0  0  0
  141.6361   79.8457  223.9125 H   0  0  0  0  0  0  0  0  0  0  0  0
  141.5510   79.8970  221.7480 C   0  0  0  0  0  0  0  0  0  0  0  0
  141.7212   80.9824  221.6932 H   0  0  0  0  0  0  0  0  0  0  0  0
  141.3880   79.1560  220.5740 C   0  0  0  0  0  0  0  0  0  0  0  0
  141.4630   79.9580  219.0130 Cl  0  0  0  0  0  0  0  0  0  0  0  0
  141.1610   77.7780  220.6450 C   0  0  0  0  0  0  0  0  0  0  0  0
  141.0388   77.1954  219.7200 H   0  0  0  0  0  0  0  0  0  0  0  0
  141.7690   74.8810  221.0100 C   0  0  0  0  0  0  0  0  0  0  0  0
  142.3663   75.6077  220.4398 H   0  0  0  0  0  0  0  0  0  0  0  0
  142.4256   74.2164  221.5907 H   0  0  0  0  0  0  0  0  0  0  0  0
  141.0170   74.1010  220.1160 O   0  0  0  0  0  0  0  0  0  0  0  0
  140.2600   73.7170  220.6380 H   0  0  0  0  0  0  0  0  0  0  0  0
  136.8420   72.0640  221.1480 C   0  0  0  0  0  0  0  0  0  0  0  0
  137.1754   71.5426  220.2386 H   0  0  0  0  0  0  0  0  0  0  0  0
  135.7536   71.9628  221.2715 H   0  0  0  0  0  0  0  0  0  0  0  0
  137.5010   71.4700  222.3090 N   0  0  0  0  0  0  0  0  0  0  0  0
  136.9890   70.7460  222.8620 H   0  0  0  0  0  0  0  0  0  0  0  0
  138.8700   71.7610  222.6280 C   0  0  0  0  0  0  0  0  0  0  0  0
  139.5430   72.5140  221.8740 O   0  0  0  0  0  0  0  0  0  0  0  0
  139.4880   71.2050  223.8500 C   0  0  0  0  0  0  0  0  0  0  0  0
  139.0260   70.0330  224.3670 N   0  0  0  0  0  0  0  0  0  0  0  0
  139.5350   69.4900  225.5050 C   0  0  0  0  0  0  0  0  0  0  0  0
  139.0290   68.2800  225.9960 C   0  0  0  0  0  0  0  0  0  0  0  0
  138.2125   67.7696  225.4642 H   0  0  0  0  0  0  0  0  0  0  0  0
  139.5610   67.7200  227.1620 C   0  0  0  0  0  0  0  0  0  0  0  0
  139.1642   66.7673  227.5427 H   0  0  0  0  0  0  0  0  0  0  0  0
  140.5960   68.3670  227.8460 C   0  0  0  0  0  0  0  0  0  0  0  0
  141.1140   67.8120  228.9720 F   0  0  0  0  0  0  0  0  0  0  0  0
  141.1020   69.5800  227.3660 C   0  0  0  0  0  0  0  0  0  0  0  0
  141.9123   70.0901  227.9075 H   0  0  0  0  0  0  0  0  0  0  0  0
  140.5760   70.1470  226.1930 C   0  0  0  0  0  0  0  0  0  0  0  0
  141.0680   71.3550  225.6810 C   0  0  0  0  0  0  0  0  0  0  0  0
  141.8789   71.8848  226.2022 H   0  0  0  0  0  0  0  0  0  0  0  0
  140.5270   71.8850  224.5080 C   0  0  0  0  0  0  0  0  0  0  0  0
  140.9126   72.8312  224.1005 H   0  0  0  0  0  0  0  0  0  0  0  0
  1  2  1  0
  2  3  1  0
  3  4  2  0
  4  5  1  0
  5  6  1  0
  5  7  1  0
  5  8  1  0
  8  9  1  1
  8 10  1  0
 10 11  1  0
  8 12  1  0
 12 13  1  0
 12 14  1  0
 12 15  1  0
 15 16  1  6
 15 17  1  0
 17 18  2  0
 17 19  1  0
 19 20  1  0
 19 21  1  0
 21 22  1  1
 21 23  1  0
 23 24  2  0
 24 25  1  0
 24 26  1  0
 26 27  1  0
 26 28  2  0
 28 29  1  0
 28 30  1  0
 30 31  1  0
 30 32  2  0
 32 33  1  0
 21 34  1  0
 34 35  1  0
 34 36  1  0
 34 37  1  0
 37 38  1  0
  3 39  1  0
 39 40  1  0
 39 41  1  0
 39 42  1  0
 42 43  1  0
 42 44  1  0
 44 45  2  0
 44 46  1  0
 46 47  2  0
 47 48  1  0
 48 49  2  0
 49 50  1  0
 49 51  1  0
 51 52  1  0
 51 53  2  0
 53 54  1  0
 53 55  1  0
 55 56  1  0
 55 57  2  0
 57 58  1  0
 58 59  1  0
 58 60  2  0
 60 61  1  0
 15  4  1  0
 32 23  1  0
 60 46  1  0
 57 48  1  0
M  CHG  1   4   1
M  END
>  <UniqueID>  (30) 
154

>  <SMILES>  (30) 
O=C(NC/C(O)=[N+]1/C[C@H](O)C[C@H]1C(=O)N[C@@H](CO)c1cccc(Cl)c1)c1ccc2cc(F)ccc2n1

>  <Energy>  (30) 
62.28985114480852

>  <Genealogy>  (30) 
O=C(NCC(=O)[NH+]1C[C@H](O)C[C@H]1C(=O)N[C@@H](CO)c1cccc(Cl)c1)c1ccc2cc(F)ccc2n1 (protonated)
O=C(NCC(O)=[N+]1C[C@H](O)C[C@H]1C(=O)N[C@@H](CO)c1cccc(Cl)c1)c1ccc2cc(F)ccc2n1 (tautomer)
O=C(NC/C(O)=[N+]1/C[C@H](O)C[C@H]1C(=O)N[C@@H](CO)c1cccc(Cl)c1)c1ccc2cc(F)ccc2n1 (cis-trans isomerization)
O=C(NC/C(O)=[N+]1/C[C@H](O)C[C@H]1C(=O)N[C@@H](CO)c1cccc(Cl)c1)c1ccc2cc(F)ccc2n1 (3D coordinates assigned)
O=C(NC/C(O)=[N+]1/C[C@H](O)C[C@H]1C(=O)N[C@@H](CO)c1cccc(Cl)c1)c1ccc2cc(F)ccc2n1 (nonaromatic ring conformer: 62.28985114480852 kcal/mol)

>  <smiles>  (30) 
O=C(NCC(=O)N1C[C@H](O)C[C@H]1C(=O)N[C@@H](CO)c1cccc(Cl)c1)c1ccc2cc(F)ccc2n1

>  <score_type>  (30) 
oracle

>  <origin>  (30) 
autodockgpu

>  <m_score__min__energy>  (30) 
-8.8300000000000001

>  <m_primary>  (30) 
energy

>  <meeko>  (30) 
{"free_energy": -5.98, "intermolecular_energy": -9.26, "internal_energy": -6.17, "cluster_size": 3, "cluster_id": 5, "rank_in_cluster": 2}

>  <energy>  (30) 
-5.95

>  <cluster_rmsd>  (30) 
0.81

>  <rmsd>  (30) 
270.1

>  <cluster>  (30) 
5

$$$$
VCSRFCBMABBACK-HJZRBLFINA-O
     RDKit          3D

 61 64  0  0  0  0  0  0  0  0999 V2000
  139.5710   79.5520  215.9590 H   0  0  0  0  0  0  0  0  0  0  0  0
  140.0920   80.4030  215.7920 O   0  0  0  0  0  0  0  0  0  0  0  0
  141.4830   80.4490  215.6510 C   0  0  0  0  0  0  0  0  0  0  0  0
  142.1790   81.4740  216.0950 N   0  0  0  0  0  0  0  0  0  0  0  0
  142.5340   82.6170  215.2600 C   0  0  0  0  0  0  0  0  0  0  0  0
  142.8750   82.2756  214.2715 H   0  0  0  0  0  0  0  0  0  0  0  0
  141.6704   83.2791  215.0992 H   0  0  0  0  0  0  0  0  0  0  0  0
  143.6620   83.3420  215.9870 C   0  0  2  0  0  0  0  0  0  0  0  0
  143.5946   84.4348  215.8811 H   0  0  0  0  0  0  0  0  0  0  0  0
  144.8960   82.9380  215.4590 O   0  0  0  0  0  0  0  0  0  0  0  0
  145.2420   82.2260  216.0630 H   0  0  0  0  0  0  0  0  0  0  0  0
  143.5460   82.9050  217.4440 C   0  0  0  0  0  0  0  0  0  0  0  0
  144.5455   82.7652  217.8817 H   0  0  0  0  0  0  0  0  0  0  0  0
  143.0267   83.6612  218.0510 H   0  0  0  0  0  0  0  0  0  0  0  0
  142.7820   81.5780  217.4280 C   0  0  1  0  0  0  0  0  0  0  0  0
  143.4384   80.7165  217.6204 H   0  0  0  0  0  0  0  0  0  0  0  0
  141.7380   81.5760  218.5140 C   0  0  0  0  0  0  0  0  0  0  0  0
  141.8130   82.4170  219.4510 O   0  0  0  0  0  0  0  0  0  0  0  0
  140.7060   80.5810  218.5150 N   0  0  0  0  0  0  0  0  0  0  0  0
  140.6380   79.9340  217.6970 H   0  0  0  0  0  0  0  0  0  0  0  0
  139.7850   80.4140  219.6470 C   0  0  2  0  0  0  0  0  0  0  0  0
  139.4331   81.4076  219.9616 H   0  0  0  0  0  0  0  0  0  0  0  0
  140.4980   79.7660  220.8170 C   0  0  0  0  0  0  0  0  0  0  0  0
  140.3900   78.3800  221.0220 C   0  0  0  0  0  0  0  0  0  0  0  0
  139.7843   77.7696  220.3360 H   0  0  0  0  0  0  0  0  0  0  0  0
  141.0500   77.7750  222.0950 C   0  0  0  0  0  0  0  0  0  0  0  0
  140.9613   76.6899  222.2518 H   0  0  0  0  0  0  0  0  0  0  0  0
  141.8220   78.5440  222.9690 C   0  0  0  0  0  0  0  0  0  0  0  0
  142.3293   78.0652  223.8195 H   0  0  0  0  0  0  0  0  0  0  0  0
  141.9510   79.9200  222.7650 C   0  0  0  0  0  0  0  0  0  0  0  0
  142.9300   80.8820  223.8610 Cl  0  0  0  0  0  0  0  0  0  0  0  0
  141.2940   80.5310  221.6920 C   0  0  0  0  0  0  0  0  0  0  0  0
  141.3994   81.6140  221.5306 H   0  0  0  0  0  0  0  0  0  0  0  0
  138.5630   79.5770  219.2270 C   0  0  0  0  0  0  0  0  0  0  0  0
  138.6397   78.5762  219.6769 H   0  0  0  0  0  0  0  0  0  0  0  0
  137.6516   80.0850  219.5753 H   0  0  0  0  0  0  0  0  0  0  0  0
  138.5010   79.4500  217.8300 O   0  0  0  0  0  0  0  0  0  0  0  0
  139.4220   79.2280  217.5200 H   0  0  0  0  0  0  0  0  0  0  0  0
  142.1270   79.2610  214.9760 C   0  0  0  0  0  0  0  0  0  0  0  0
  142.9367   79.6142  214.3205 H   0  0  0  0  0  0  0  0  0  0  0  0
  141.3616   78.7319  214.3893 H   0  0  0  0  0  0  0  0  0  0  0  0
  142.6800   78.3370  215.9650 N   0  0  0  0  0  0  0  0  0  0  0  0
  143.7160   78.2090  216.0090 H   0  0  0  0  0  0  0  0  0  0  0  0
  141.8500   77.7050  216.9510 C   0  0  0  0  0  0  0  0  0  0  0  0
  140.6200   77.9760  217.0020 O   0  0  0  0  0  0  0  0  0  0  0  0
  142.4220   76.7170  217.8890 C   0  0  0  0  0  0  0  0  0  0  0  0
  142.1040   75.4000  217.7590 N   0  0  0  0  0  0  0  0  0  0  0  0
  142.5760   74.4510  218.6110 C   0  0  0  0  0  0  0  0  0  0  0  0
  142.2240   73.1070  218.4350 C   0  0  0  0  0  0  0  0  0  0  0  0
  141.5579   72.8175  217.6088 H   0  0  0  0  0  0  0  0  0  0  0  0
  142.7180   72.1320  219.3080 C   0  0  0  0  0  0  0  0  0  0  0  0
  142.4426   71.0768  219.1642 H   0  0  0  0  0  0  0  0  0  0  0  0
  143.5610   72.4950  220.3630 C   0  0  0  0  0  0  0  0  0  0  0  0
  144.0440   71.5420  221.2010 F   0  0  0  0  0  0  0  0  0  0  0  0
  143.9120   73.8360  220.5520 C   0  0  0  0  0  0  0  0  0  0  0  0
  144.5706   74.1198  221.3861 H   0  0  0  0  0  0  0  0  0  0  0  0
  143.4230   74.8210  219.6760 C   0  0  0  0  0  0  0  0  0  0  0  0
  143.7640   76.1700  219.8310 C   0  0  0  0  0  0  0  0  0  0  0  0
  144.4233   76.4803  220.6550 H   0  0  0  0  0  0  0  0  0  0  0  0
  143.2660   77.1210  218.9380 C   0  0  0  0  0  0  0  0  0  0  0  0
  143.5330   78.1817  219.0549 H   0  0  0  0  0  0  0  0  0  0  0  0
  1  2  1  0
  2  3  1  0
  3  4  2  0
  4  5  1  0
  5  6  1  0
  5  7  1  0
  5  8  1  0
  8  9  1  1
  8 10  1  0
 10 11  1  0
  8 12  1  0
 12 13  1  0
 12 14  1  0
 12 15  1  0
 15 16  1  1
 15 17  1  0
 17 18  2  0
 17 19  1  0
 19 20  1  0
 19 21  1  0
 21 22  1  1
 21 23  1  0
 23 24  2  0
 24 25  1  0
 24 26  1  0
 26 27  1  0
 26 28  2  0
 28 29  1  0
 28 30  1  0
 30 31  1  0
 30 32  2  0
 32 33  1  0
 21 34  1  0
 34 35  1  0
 34 36  1  0
 34 37  1  0
 37 38  1  0
  3 39  1  0
 39 40  1  0
 39 41  1  0
 39 42  1  0
 42 43  1  0
 42 44  1  0
 44 45  2  0
 44 46  1  0
 46 47  2  0
 47 48  1  0
 48 49  2  0
 49 50  1  0
 49 51  1  0
 51 52  1  0
 51 53  2  0
 53 54  1  0
 53 55  1  0
 55 56  1  0
 55 57  2  0
 57 58  1  0
 58 59  1  0
 58 60  2  0
 60 61  1  0
 15  4  1  0
 32 23  1  0
 60 46  1  0
 57 48  1  0
M  CHG  1   4   1
M  END
>  <UniqueID>  (31) 
154

>  <SMILES>  (31) 
O=C(NC/C(O)=[N+]1/C[C@H](O)C[C@H]1C(=O)N[C@@H](CO)c1cccc(Cl)c1)c1ccc2cc(F)ccc2n1

>  <Energy>  (31) 
62.28985114480852

>  <Genealogy>  (31) 
O=C(NCC(=O)[NH+]1C[C@H](O)C[C@H]1C(=O)N[C@@H](CO)c1cccc(Cl)c1)c1ccc2cc(F)ccc2n1 (protonated)
O=C(NCC(O)=[N+]1C[C@H](O)C[C@H]1C(=O)N[C@@H](CO)c1cccc(Cl)c1)c1ccc2cc(F)ccc2n1 (tautomer)
O=C(NC/C(O)=[N+]1/C[C@H](O)C[C@H]1C(=O)N[C@@H](CO)c1cccc(Cl)c1)c1ccc2cc(F)ccc2n1 (cis-trans isomerization)
O=C(NC/C(O)=[N+]1/C[C@H](O)C[C@H]1C(=O)N[C@@H](CO)c1cccc(Cl)c1)c1ccc2cc(F)ccc2n1 (3D coordinates assigned)
O=C(NC/C(O)=[N+]1/C[C@H](O)C[C@H]1C(=O)N[C@@H](CO)c1cccc(Cl)c1)c1ccc2cc(F)ccc2n1 (nonaromatic ring conformer: 62.28985114480852 kcal/mol)

>  <smiles>  (31) 
O=C(NCC(=O)N1C[C@H](O)C[C@H]1C(=O)N[C@@H](CO)c1cccc(Cl)c1)c1ccc2cc(F)ccc2n1

>  <score_type>  (31) 
oracle

>  <origin>  (31) 
autodockgpu

>  <m_score__min__energy>  (31) 
-8.8300000000000001

>  <m_primary>  (31) 
energy

>  <meeko>  (31) 
{"free_energy": -5.37, "intermolecular_energy": -8.65, "internal_energy": -6.93, "cluster_size": 5, "cluster_id": 7, "rank_in_cluster": 5}

>  <energy>  (31) 
-6.09

>  <cluster_rmsd>  (31) 
0.0

>  <rmsd>  (31) 
270.02

>  <cluster>  (31) 
6

$$$$
VCSRFCBMABBACK-HJZRBLFINA-O
     RDKit          3D

 61 64  0  0  0  0  0  0  0  0999 V2000
  139.5440   79.5550  216.2210 H   0  0  0  0  0  0  0  0  0  0  0  0
  140.0470   80.3720  215.8970 O   0  0  0  0  0  0  0  0  0  0  0  0
  141.4250   80.3940  215.6580 C   0  0  0  0  0  0  0  0  0  0  0  0
  142.1710   81.3970  216.0710 N   0  0  0  0  0  0  0  0  0  0  0  0
  142.5730   82.4990  215.2040 C   0  0  0  0  0  0  0  0  0  0  0  0
  142.8902   82.1159  214.2229 H   0  0  0  0  0  0  0  0  0  0  0  0
  141.7403   83.1967  215.0310 H   0  0  0  0  0  0  0  0  0  0  0  0
  143.7390   83.1890  215.9040 C   0  0  2  0  0  0  0  0  0  0  0  0
  143.7221   84.2805  215.7686 H   0  0  0  0  0  0  0  0  0  0  0  0
  144.9490   82.7140  215.3800 O   0  0  0  0  0  0  0  0  0  0  0  0
  144.8530   81.7260  215.2990 H   0  0  0  0  0  0  0  0  0  0  0  0
  143.6130   82.7970  217.3740 C   0  0  0  0  0  0  0  0  0  0  0  0
  144.6078   82.6215  217.8095 H   0  0  0  0  0  0  0  0  0  0  0  0
  143.1349   83.5928  217.9639 H   0  0  0  0  0  0  0  0  0  0  0  0
  142.7870   81.5080  217.3970 C   0  0  1  0  0  0  0  0  0  0  0  0
  143.4034   80.6218  217.6084 H   0  0  0  0  0  0  0  0  0  0  0  0
  141.7520   81.5840  218.4880 C   0  0  0  0  0  0  0  0  0  0  0  0
  141.8100   82.5140  219.3390 O   0  0  0  0  0  0  0  0  0  0  0  0
  140.7470   80.5680  218.5970 N   0  0  0  0  0  0  0  0  0  0  0  0
  140.6900   79.8420  217.8460 H   0  0  0  0  0  0  0  0  0  0  0  0
  139.8390   80.4870  219.7490 C   0  0  2  0  0  0  0  0  0  0  0  0
  139.5541   81.5078  220.0435 H   0  0  0  0  0  0  0  0  0  0  0  0
  140.5330   79.8280  220.9230 C   0  0  0  0  0  0  0  0  0  0  0  0
  140.3970   78.4450  221.1290 C   0  0  0  0  0  0  0  0  0  0  0  0
  139.7836   77.8457  220.4401 H   0  0  0  0  0  0  0  0  0  0  0  0
  141.0390   77.8280  222.2070 C   0  0  0  0  0  0  0  0  0  0  0  0
  140.9273   76.7452  222.3651 H   0  0  0  0  0  0  0  0  0  0  0  0
  141.8220   78.5830  223.0840 C   0  0  0  0  0  0  0  0  0  0  0  0
  142.3165   78.0955  223.9371 H   0  0  0  0  0  0  0  0  0  0  0  0
  141.9780   79.9570  222.8790 C   0  0  0  0  0  0  0  0  0  0  0  0
  142.9690   80.9010  223.9790 Cl  0  0  0  0  0  0  0  0  0  0  0  0
  141.3390   80.5780  221.8010 C   0  0  0  0  0  0  0  0  0  0  0  0
  141.4667   81.6583  221.6381 H   0  0  0  0  0  0  0  0  0  0  0  0
  138.5600   79.7170  219.3720 C   0  0  0  0  0  0  0  0  0  0  0  0
  138.5452   78.7578  219.9102 H   0  0  0  0  0  0  0  0  0  0  0  0
  137.6877   80.3268  219.6499 H   0  0  0  0  0  0  0  0  0  0  0  0
  138.5130   79.4700  217.9910 O   0  0  0  0  0  0  0  0  0  0  0  0
  139.4440   79.2570  217.7050 H   0  0  0  0  0  0  0  0  0  0  0  0
  141.9950   79.2080  214.9180 C   0  0  0  0  0  0  0  0  0  0  0  0
  142.7119   79.5646  214.1637 H   0  0  0  0  0  0  0  0  0  0  0  0
  141.1692   78.6642  214.4360 H   0  0  0  0  0  0  0  0  0  0  0  0
  142.6790   78.3000  215.8370 N   0  0  0  0  0  0  0  0  0  0  0  0
  143.6990   78.1190  215.6990 H   0  0  0  0  0  0  0  0  0  0  0  0
  142.0170   77.7560  216.9890 C   0  0  0  0  0  0  0  0  0  0  0  0
  140.8310   78.0930  217.2480 O   0  0  0  0  0  0  0  0  0  0  0  0
  142.7080   76.7810  217.8580 C   0  0  0  0  0  0  0  0  0  0  0  0
  143.4420   75.7800  217.2990 N   0  0  0  0  0  0  0  0  0  0  0  0
  144.0750   74.8380  218.0470 C   0  0  0  0  0  0  0  0  0  0  0  0
  144.8220   73.8280  217.4270 C   0  0  0  0  0  0  0  0  0  0  0  0
  144.8928   73.7922  216.3299 H   0  0  0  0  0  0  0  0  0  0  0  0
  145.4780   72.8650  218.2010 C   0  0  0  0  0  0  0  0  0  0  0  0
  146.0671   72.0762  217.7103 H   0  0  0  0  0  0  0  0  0  0  0  0
  145.3880   72.9010  219.5950 C   0  0  0  0  0  0  0  0  0  0  0  0
  146.0360   71.9690  220.3400 F   0  0  0  0  0  0  0  0  0  0  0  0
  144.6370   73.9020  220.2240 C   0  0  0  0  0  0  0  0  0  0  0  0
  144.5622   73.9257  221.3212 H   0  0  0  0  0  0  0  0  0  0  0  0
  143.9790   74.8760  219.4540 C   0  0  0  0  0  0  0  0  0  0  0  0
  143.2290   75.8960  220.0530 C   0  0  0  0  0  0  0  0  0  0  0  0
  143.1405   75.9445  221.1484 H   0  0  0  0  0  0  0  0  0  0  0  0
  142.5940   76.8510  219.2570 C   0  0  0  0  0  0  0  0  0  0  0  0
  142.0064   77.6556  219.7232 H   0  0  0  0  0  0  0  0  0  0  0  0
  1  2  1  0
  2  3  1  0
  3  4  2  0
  4  5  1  0
  5  6  1  0
  5  7  1  0
  5  8  1  0
  8  9  1  1
  8 10  1  0
 10 11  1  0
  8 12  1  0
 12 13  1  0
 12 14  1  0
 12 15  1  0
 15 16  1  1
 15 17  1  0
 17 18  2  0
 17 19  1  0
 19 20  1  0
 19 21  1  0
 21 22  1  1
 21 23  1  0
 23 24  2  0
 24 25  1  0
 24 26  1  0
 26 27  1  0
 26 28  2  0
 28 29  1  0
 28 30  1  0
 30 31  1  0
 30 32  2  0
 32 33  1  0
 21 34  1  0
 34 35  1  0
 34 36  1  0
 34 37  1  0
 37 38  1  0
  3 39  1  0
 39 40  1  0
 39 41  1  0
 39 42  1  0
 42 43  1  0
 42 44  1  0
 44 45  2  0
 44 46  1  0
 46 47  2  0
 47 48  1  0
 48 49  2  0
 49 50  1  0
 49 51  1  0
 51 52  1  0
 51 53  2  0
 53 54  1  0
 53 55  1  0
 55 56  1  0
 55 57  2  0
 57 58  1  0
 58 59  1  0
 58 60  2  0
 60 61  1  0
 15  4  1  0
 32 23  1  0
 60 46  1  0
 57 48  1  0
M  CHG  1   4   1
M  END
>  <UniqueID>  (32) 
154

>  <SMILES>  (32) 
O=C(NC/C(O)=[N+]1/C[C@H](O)C[C@H]1C(=O)N[C@@H](CO)c1cccc(Cl)c1)c1ccc2cc(F)ccc2n1

>  <Energy>  (32) 
62.28985114480852

>  <Genealogy>  (32) 
O=C(NCC(=O)[NH+]1C[C@H](O)C[C@H]1C(=O)N[C@@H](CO)c1cccc(Cl)c1)c1ccc2cc(F)ccc2n1 (protonated)
O=C(NCC(O)=[N+]1C[C@H](O)C[C@H]1C(=O)N[C@@H](CO)c1cccc(Cl)c1)c1ccc2cc(F)ccc2n1 (tautomer)
O=C(NC/C(O)=[N+]1/C[C@H](O)C[C@H]1C(=O)N[C@@H](CO)c1cccc(Cl)c1)c1ccc2cc(F)ccc2n1 (cis-trans isomerization)
O=C(NC/C(O)=[N+]1/C[C@H](O)C[C@H]1C(=O)N[C@@H](CO)c1cccc(Cl)c1)c1ccc2cc(F)ccc2n1 (3D coordinates assigned)
O=C(NC/C(O)=[N+]1/C[C@H](O)C[C@H]1C(=O)N[C@@H](CO)c1cccc(Cl)c1)c1ccc2cc(F)ccc2n1 (nonaromatic ring conformer: 62.28985114480852 kcal/mol)

>  <smiles>  (32) 
O=C(NCC(=O)N1C[C@H](O)C[C@H]1C(=O)N[C@@H](CO)c1cccc(Cl)c1)c1ccc2cc(F)ccc2n1

>  <score_type>  (32) 
oracle

>  <origin>  (32) 
autodockgpu

>  <m_score__min__energy>  (32) 
-8.8300000000000001

>  <m_primary>  (32) 
energy

>  <meeko>  (32) 
{"free_energy": -5.93, "intermolecular_energy": -9.21, "internal_energy": -6.84, "cluster_size": 5, "cluster_id": 7, "rank_in_cluster": 2}

>  <energy>  (32) 
-5.93

>  <cluster_rmsd>  (32) 
0.0

>  <rmsd>  (32) 
269.53

>  <cluster>  (32) 
7

$$$$
VCSRFCBMABBACK-HJZRBLFINA-O
     RDKit          3D

 61 64  0  0  0  0  0  0  0  0999 V2000
  138.5310   73.2930  220.6670 H   0  0  0  0  0  0  0  0  0  0  0  0
  138.0390   72.7940  219.9370 O   0  0  0  0  0  0  0  0  0  0  0  0
  136.7210   72.3410  220.0560 C   0  0  0  0  0  0  0  0  0  0  0  0
  136.4460   71.0540  220.1040 N   0  0  0  0  0  0  0  0  0  0  0  0
  135.8780   70.3190  218.9790 C   0  0  0  0  0  0  0  0  0  0  0  0
  135.0728   70.9033  218.5097 H   0  0  0  0  0  0  0  0  0  0  0  0
  136.6356   70.1224  218.2061 H   0  0  0  0  0  0  0  0  0  0  0  0
  135.3220   69.0200  219.5540 C   0  0  2  0  0  0  0  0  0  0  0  0
  135.4597   68.1670  218.8732 H   0  0  0  0  0  0  0  0  0  0  0  0
  133.9470   69.1600  219.7870 O   0  0  0  0  0  0  0  0  0  0  0  0
  133.4980   68.4390  219.2680 H   0  0  0  0  0  0  0  0  0  0  0  0
  136.0610   68.8190  220.8740 C   0  0  0  0  0  0  0  0  0  0  0  0
  135.3791   68.4128  221.6356 H   0  0  0  0  0  0  0  0  0  0  0  0
  136.8916   68.1060  220.7658 H   0  0  0  0  0  0  0  0  0  0  0  0
  136.5620   70.2030  221.2930 C   0  0  1  0  0  0  0  0  0  0  0  0
  135.9767   70.6232  222.1241 H   0  0  0  0  0  0  0  0  0  0  0  0
  137.9870   70.1080  221.7730 C   0  0  0  0  0  0  0  0  0  0  0  0
  138.5370   68.9770  221.8680 O   0  0  0  0  0  0  0  0  0  0  0  0
  138.6870   71.2890  222.1820 N   0  0  0  0  0  0  0  0  0  0  0  0
  138.2250   72.2160  222.0390 H   0  0  0  0  0  0  0  0  0  0  0  0
  140.0010   71.2310  222.8370 C   0  0  2  0  0  0  0  0  0  0  0  0
  140.6265   70.5007  222.3028 H   0  0  0  0  0  0  0  0  0  0  0  0
  139.8550   70.7750  224.2740 C   0  0  0  0  0  0  0  0  0  0  0  0
  139.1230   69.6120  224.5680 C   0  0  0  0  0  0  0  0  0  0  0  0
  138.6540   69.0390  223.7545 H   0  0  0  0  0  0  0  0  0  0  0  0
  138.9890   69.1810  225.8910 C   0  0  0  0  0  0  0  0  0  0  0  0
  138.4121   68.2719  226.1161 H   0  0  0  0  0  0  0  0  0  0  0  0
  139.5860   69.9020  226.9280 C   0  0  0  0  0  0  0  0  0  0  0  0
  139.4699   69.5650  227.9686 H   0  0  0  0  0  0  0  0  0  0  0  0
  140.3300   71.0500  226.6460 C   0  0  0  0  0  0  0  0  0  0  0  0
  141.0850   71.9490  227.9520 Cl  0  0  0  0  0  0  0  0  0  0  0  0
  140.4680   71.4850  225.3240 C   0  0  0  0  0  0  0  0  0  0  0  0
  141.0585   72.3865  225.1034 H   0  0  0  0  0  0  0  0  0  0  0  0
  140.6960   72.6040  222.7720 C   0  0  0  0  0  0  0  0  0  0  0  0
  140.9106   72.9482  223.7945 H   0  0  0  0  0  0  0  0  0  0  0  0
  141.6291   72.4996  222.1989 H   0  0  0  0  0  0  0  0  0  0  0  0
  139.8780   73.5480  222.1310 O   0  0  0  0  0  0  0  0  0  0  0  0
  139.3880   74.0370  222.8480 H   0  0  0  0  0  0  0  0  0  0  0  0
  135.6520   73.4030  220.1370 C   0  0  0  0  0  0  0  0  0  0  0  0
  134.8664   73.0709  220.8317 H   0  0  0  0  0  0  0  0  0  0  0  0
  135.2349   73.5590  219.1312 H   0  0  0  0  0  0  0  0  0  0  0  0
  136.2080   74.6680  220.6130 N   0  0  0  0  0  0  0  0  0  0  0  0
  135.9060   75.5560  220.1510 H   0  0  0  0  0  0  0  0  0  0  0  0
  137.0540   74.7300  221.7710 C   0  0  0  0  0  0  0  0  0  0  0  0
  137.2970   73.6810  222.4270 O   0  0  0  0  0  0  0  0  0  0  0  0
  137.6630   76.0110  222.1850 C   0  0  0  0  0  0  0  0  0  0  0  0
  139.0180   76.1180  222.2650 N   0  0  0  0  0  0  0  0  0  0  0  0
  139.6340   77.2610  222.6680 C   0  0  0  0  0  0  0  0  0  0  0  0
  141.0320   77.3260  222.7310 C   0  0  0  0  0  0  0  0  0  0  0  0
  141.6352   76.4470  222.4598 H   0  0  0  0  0  0  0  0  0  0  0  0
  141.6620   78.5060  223.1380 C   0  0  0  0  0  0  0  0  0  0  0  0
  142.7601   78.5542  223.1814 H   0  0  0  0  0  0  0  0  0  0  0  0
  140.9010   79.6250  223.4900 C   0  0  0  0  0  0  0  0  0  0  0  0
  141.5200   80.7710  223.8760 F   0  0  0  0  0  0  0  0  0  0  0  0
  139.5030   79.5680  223.4390 C   0  0  0  0  0  0  0  0  0  0  0  0
  138.9058   80.4473  223.7221 H   0  0  0  0  0  0  0  0  0  0  0  0
  138.8630   78.3870  223.0260 C   0  0  0  0  0  0  0  0  0  0  0  0
  137.4670   78.3010  222.9530 C   0  0  0  0  0  0  0  0  0  0  0  0
  136.8466   79.1668  223.2276 H   0  0  0  0  0  0  0  0  0  0  0  0
  136.8640   77.1140  222.5310 C   0  0  0  0  0  0  0  0  0  0  0  0
  135.7680   77.0428  222.4697 H   0  0  0  0  0  0  0  0  0  0  0  0
  1  2  1  0
  2  3  1  0
  3  4  2  0
  4  5  1  0
  5  6  1  0
  5  7  1  0
  5  8  1  0
  8  9  1  6
  8 10  1  0
 10 11  1  0
  8 12  1  0
 12 13  1  0
 12 14  1  0
 12 15  1  0
 15 16  1  1
 15 17  1  0
 17 18  2  0
 17 19  1  0
 19 20  1  0
 19 21  1  0
 21 22  1  6
 21 23  1  0
 23 24  2  0
 24 25  1  0
 24 26  1  0
 26 27  1  0
 26 28  2  0
 28 29  1  0
 28 30  1  0
 30 31  1  0
 30 32  2  0
 32 33  1  0
 21 34  1  0
 34 35  1  0
 34 36  1  0
 34 37  1  0
 37 38  1  0
  3 39  1  0
 39 40  1  0
 39 41  1  0
 39 42  1  0
 42 43  1  0
 42 44  1  0
 44 45  2  0
 44 46  1  0
 46 47  2  0
 47 48  1  0
 48 49  2  0
 49 50  1  0
 49 51  1  0
 51 52  1  0
 51 53  2  0
 53 54  1  0
 53 55  1  0
 55 56  1  0
 55 57  2  0
 57 58  1  0
 58 59  1  0
 58 60  2  0
 60 61  1  0
 15  4  1  0
 32 23  1  0
 60 46  1  0
 57 48  1  0
M  CHG  1   4   1
M  END
>  <UniqueID>  (33) 
154

>  <SMILES>  (33) 
O=C(NC/C(O)=[N+]1/C[C@H](O)C[C@H]1C(=O)N[C@@H](CO)c1cccc(Cl)c1)c1ccc2cc(F)ccc2n1

>  <Energy>  (33) 
62.28985114480852

>  <Genealogy>  (33) 
O=C(NCC(=O)[NH+]1C[C@H](O)C[C@H]1C(=O)N[C@@H](CO)c1cccc(Cl)c1)c1ccc2cc(F)ccc2n1 (protonated)
O=C(NCC(O)=[N+]1C[C@H](O)C[C@H]1C(=O)N[C@@H](CO)c1cccc(Cl)c1)c1ccc2cc(F)ccc2n1 (tautomer)
O=C(NC/C(O)=[N+]1/C[C@H](O)C[C@H]1C(=O)N[C@@H](CO)c1cccc(Cl)c1)c1ccc2cc(F)ccc2n1 (cis-trans isomerization)
O=C(NC/C(O)=[N+]1/C[C@H](O)C[C@H]1C(=O)N[C@@H](CO)c1cccc(Cl)c1)c1ccc2cc(F)ccc2n1 (3D coordinates assigned)
O=C(NC/C(O)=[N+]1/C[C@H](O)C[C@H]1C(=O)N[C@@H](CO)c1cccc(Cl)c1)c1ccc2cc(F)ccc2n1 (nonaromatic ring conformer: 62.28985114480852 kcal/mol)

>  <smiles>  (33) 
O=C(NCC(=O)N1C[C@H](O)C[C@H]1C(=O)N[C@@H](CO)c1cccc(Cl)c1)c1ccc2cc(F)ccc2n1

>  <score_type>  (33) 
oracle

>  <origin>  (33) 
autodockgpu

>  <m_score__min__energy>  (33) 
-8.8300000000000001

>  <m_primary>  (33) 
energy

>  <meeko>  (33) 
{"free_energy": -5.63, "intermolecular_energy": -8.91, "internal_energy": -6.38, "cluster_size": 1, "cluster_id": 8, "rank_in_cluster": 1}

>  <energy>  (33) 
-5.93

>  <cluster_rmsd>  (33) 
0.11

>  <rmsd>  (33) 
269.54

>  <cluster>  (33) 
7

$$$$
VCSRFCBMABBACK-HJZRBLFINA-O
     RDKit          3D

 61 64  0  0  0  0  0  0  0  0999 V2000
  138.2070   74.1630  222.7560 H   0  0  0  0  0  0  0  0  0  0  0  0
  137.4670   73.6050  222.3500 O   0  0  0  0  0  0  0  0  0  0  0  0
  136.1210   73.7150  222.7130 C   0  0  0  0  0  0  0  0  0  0  0  0
  135.3430   72.6540  222.7730 N   0  0  0  0  0  0  0  0  0  0  0  0
  134.1430   72.4990  221.9570 C   0  0  0  0  0  0  0  0  0  0  0  0
  133.5702   73.4379  221.9392 H   0  0  0  0  0  0  0  0  0  0  0  0
  134.3960   72.2485  220.9162 H   0  0  0  0  0  0  0  0  0  0  0  0
  133.3230   71.3920  222.6110 C   0  0  2  0  0  0  0  0  0  0  0  0
  132.8123   70.7565  221.8726 H   0  0  0  0  0  0  0  0  0  0  0  0
  132.3410   71.9600  223.4350 O   0  0  0  0  0  0  0  0  0  0  0  0
  131.7120   72.4430  222.8340 H   0  0  0  0  0  0  0  0  0  0  0  0
  134.3190   70.5970  223.4500 C   0  0  0  0  0  0  0  0  0  0  0  0
  133.8569   70.2852  224.3983 H   0  0  0  0  0  0  0  0  0  0  0  0
  134.6452   69.6839  222.9306 H   0  0  0  0  0  0  0  0  0  0  0  0
  135.4940   71.5410  223.7160 C   0  0  1  0  0  0  0  0  0  0  0  0
  135.5019   71.9142  224.7507 H   0  0  0  0  0  0  0  0  0  0  0  0
  136.7950   70.8090  223.5110 C   0  0  0  0  0  0  0  0  0  0  0  0
  136.7830   69.5640  223.3100 O   0  0  0  0  0  0  0  0  0  0  0  0
  138.0390   71.5140  223.6100 N   0  0  0  0  0  0  0  0  0  0  0  0
  138.0140   72.5530  223.7220 H   0  0  0  0  0  0  0  0  0  0  0  0
  139.3320   70.8180  223.6120 C   0  0  2  0  0  0  0  0  0  0  0  0
  139.2547   69.9336  222.9624 H   0  0  0  0  0  0  0  0  0  0  0  0
  139.6800   70.3540  225.0120 C   0  0  0  0  0  0  0  0  0  0  0  0
  139.3890   69.0370  225.4050 C   0  0  0  0  0  0  0  0  0  0  0  0
  138.9039   68.3483  224.6977 H   0  0  0  0  0  0  0  0  0  0  0  0
  139.7140   68.5990  226.6920 C   0  0  0  0  0  0  0  0  0  0  0  0
  139.4829   67.5671  226.9950 H   0  0  0  0  0  0  0  0  0  0  0  0
  140.3320   69.4690  227.5950 C   0  0  0  0  0  0  0  0  0  0  0  0
  140.5754   69.1243  228.6108 H   0  0  0  0  0  0  0  0  0  0  0  0
  140.6410   70.7760  227.2090 C   0  0  0  0  0  0  0  0  0  0  0  0
  141.4250   71.8630  228.3440 Cl  0  0  0  0  0  0  0  0  0  0  0  0
  140.3200   71.2180  225.9220 C   0  0  0  0  0  0  0  0  0  0  0  0
  140.5685   72.2457  225.6185 H   0  0  0  0  0  0  0  0  0  0  0  0
  140.4370   71.7340  223.0540 C   0  0  0  0  0  0  0  0  0  0  0  0
  141.2830   71.7476  223.7569 H   0  0  0  0  0  0  0  0  0  0  0  0
  140.7570   71.3444  222.0763 H   0  0  0  0  0  0  0  0  0  0  0  0
  139.9610   73.0430  222.8820 O   0  0  0  0  0  0  0  0  0  0  0  0
  138.9780   72.9750  222.7320 H   0  0  0  0  0  0  0  0  0  0  0  0
  135.6250   75.1030  223.0380 C   0  0  0  0  0  0  0  0  0  0  0  0
  135.0760   75.0755  223.9908 H   0  0  0  0  0  0  0  0  0  0  0  0
  134.9656   75.4404  222.2247 H   0  0  0  0  0  0  0  0  0  0  0  0
  136.7410   76.0410  223.1550 N   0  0  0  0  0  0  0  0  0  0  0  0
  137.6960   75.6640  223.3490 H   0  0  0  0  0  0  0  0  0  0  0  0
  136.5790   77.4410  222.8840 C   0  0  0  0  0  0  0  0  0  0  0  0
  135.4620   77.8800  222.4960 O   0  0  0  0  0  0  0  0  0  0  0  0
  137.7050   78.3770  223.0820 C   0  0  0  0  0  0  0  0  0  0  0  0
  138.9840   77.9340  222.9360 N   0  0  0  0  0  0  0  0  0  0  0  0
  140.0600   78.7410  223.1360 C   0  0  0  0  0  0  0  0  0  0  0  0
  141.3570   78.2420  222.9700 C   0  0  0  0  0  0  0  0  0  0  0  0
  141.5085   77.1908  222.6834 H   0  0  0  0  0  0  0  0  0  0  0  0
  142.4610   79.0780  223.1680 C   0  0  0  0  0  0  0  0  0  0  0  0
  143.4787   78.6829  223.0327 H   0  0  0  0  0  0  0  0  0  0  0  0
  142.2760   80.4130  223.5370 C   0  0  0  0  0  0  0  0  0  0  0  0
  143.3520   81.2210  223.7190 F   0  0  0  0  0  0  0  0  0  0  0  0
  140.9830   80.9200  223.7130 C   0  0  0  0  0  0  0  0  0  0  0  0
  140.8395   81.9695  224.0094 H   0  0  0  0  0  0  0  0  0  0  0  0
  139.8680   80.0880  223.5110 C   0  0  0  0  0  0  0  0  0  0  0  0
  138.5620   80.5670  223.6690 C   0  0  0  0  0  0  0  0  0  0  0  0
  138.3905   81.6131  223.9627 H   0  0  0  0  0  0  0  0  0  0  0  0
  137.4770   79.7140  223.4530 C   0  0  0  0  0  0  0  0  0  0  0  0
  136.4489   80.0866  223.5726 H   0  0  0  0  0  0  0  0  0  0  0  0
  1  2  1  0
  2  3  1  0
  3  4  2  0
  4  5  1  0
  5  6  1  0
  5  7  1  0
  5  8  1  0
  8  9  1  6
  8 10  1  0
 10 11  1  0
  8 12  1  0
 12 13  1  0
 12 14  1  0
 12 15  1  0
 15 16  1  1
 15 17  1  0
 17 18  2  0
 17 19  1  0
 19 20  1  0
 19 21  1  0
 21 22  1  6
 21 23  1  0
 23 24  2  0
 24 25  1  0
 24 26  1  0
 26 27  1  0
 26 28  2  0
 28 29  1  0
 28 30  1  0
 30 31  1  0
 30 32  2  0
 32 33  1  0
 21 34  1  0
 34 35  1  0
 34 36  1  0
 34 37  1  0
 37 38  1  0
  3 39  1  0
 39 40  1  0
 39 41  1  0
 39 42  1  0
 42 43  1  0
 42 44  1  0
 44 45  2  0
 44 46  1  0
 46 47  2  0
 47 48  1  0
 48 49  2  0
 49 50  1  0
 49 51  1  0
 51 52  1  0
 51 53  2  0
 53 54  1  0
 53 55  1  0
 55 56  1  0
 55 57  2  0
 57 58  1  0
 58 59  1  0
 58 60  2  0
 60 61  1  0
 15  4  1  0
 32 23  1  0
 60 46  1  0
 57 48  1  0
M  CHG  1   4   1
M  END
>  <UniqueID>  (34) 
154

>  <SMILES>  (34) 
O=C(NC/C(O)=[N+]1/C[C@H](O)C[C@H]1C(=O)N[C@@H](CO)c1cccc(Cl)c1)c1ccc2cc(F)ccc2n1

>  <Energy>  (34) 
62.28985114480852

>  <Genealogy>  (34) 
O=C(NCC(=O)[NH+]1C[C@H](O)C[C@H]1C(=O)N[C@@H](CO)c1cccc(Cl)c1)c1ccc2cc(F)ccc2n1 (protonated)
O=C(NCC(O)=[N+]1C[C@H](O)C[C@H]1C(=O)N[C@@H](CO)c1cccc(Cl)c1)c1ccc2cc(F)ccc2n1 (tautomer)
O=C(NC/C(O)=[N+]1/C[C@H](O)C[C@H]1C(=O)N[C@@H](CO)c1cccc(Cl)c1)c1ccc2cc(F)ccc2n1 (cis-trans isomerization)
O=C(NC/C(O)=[N+]1/C[C@H](O)C[C@H]1C(=O)N[C@@H](CO)c1cccc(Cl)c1)c1ccc2cc(F)ccc2n1 (3D coordinates assigned)
O=C(NC/C(O)=[N+]1/C[C@H](O)C[C@H]1C(=O)N[C@@H](CO)c1cccc(Cl)c1)c1ccc2cc(F)ccc2n1 (nonaromatic ring conformer: 62.28985114480852 kcal/mol)

>  <smiles>  (34) 
O=C(NCC(=O)N1C[C@H](O)C[C@H]1C(=O)N[C@@H](CO)c1cccc(Cl)c1)c1ccc2cc(F)ccc2n1

>  <score_type>  (34) 
oracle

>  <origin>  (34) 
autodockgpu

>  <m_score__min__energy>  (34) 
-8.8300000000000001

>  <m_primary>  (34) 
energy

>  <meeko>  (34) 
{"free_energy": -8.39, "intermolecular_energy": -11.67, "internal_energy": -4.36, "cluster_size": 3, "cluster_id": 2, "rank_in_cluster": 3}

>  <energy>  (34) 
-5.74

>  <cluster_rmsd>  (34) 
0.95

>  <rmsd>  (34) 
269.39

>  <cluster>  (34) 
7

$$$$
VCSRFCBMABBACK-HJZRBLFINA-O
     RDKit          3D

 61 64  0  0  0  0  0  0  0  0999 V2000
  139.0930   75.0630  219.1450 H   0  0  0  0  0  0  0  0  0  0  0  0
  139.4640   75.9590  219.4350 O   0  0  0  0  0  0  0  0  0  0  0  0
  140.4570   76.1120  220.4080 C   0  0  0  0  0  0  0  0  0  0  0  0
  140.4760   77.1630  221.2010 N   0  0  0  0  0  0  0  0  0  0  0  0
  141.3040   78.3370  220.9460 C   0  0  0  0  0  0  0  0  0  0  0  0
  142.3122   78.0309  220.6301 H   0  0  0  0  0  0  0  0  0  0  0  0
  140.8816   78.9577  220.1421 H   0  0  0  0  0  0  0  0  0  0  0  0
  141.3730   79.1050  222.2620 C   0  0  2  0  0  0  0  0  0  0  0  0
  141.3691   80.1948  222.1123 H   0  0  0  0  0  0  0  0  0  0  0  0
  142.5550   78.7730  222.9380 O   0  0  0  0  0  0  0  0  0  0  0  0
  143.1520   78.3410  222.2680 H   0  0  0  0  0  0  0  0  0  0  0  0
  140.1610   78.6370  223.0620 C   0  0  0  0  0  0  0  0  0  0  0  0
  140.4201   78.5401  224.1266 H   0  0  0  0  0  0  0  0  0  0  0  0
  139.3307   79.3552  222.9922 H   0  0  0  0  0  0  0  0  0  0  0  0
  139.7730   77.2740  222.4830 C   0  0  1  0  0  0  0  0  0  0  0  0
  140.0539   76.4438  223.1477 H   0  0  0  0  0  0  0  0  0  0  0  0
  138.2790   77.2000  222.3070 C   0  0  0  0  0  0  0  0  0  0  0  0
  137.5440   78.0780  222.8390 O   0  0  0  0  0  0  0  0  0  0  0  0
  137.6930   76.1020  221.5950 N   0  0  0  0  0  0  0  0  0  0  0  0
  138.3280   75.4220  221.1190 H   0  0  0  0  0  0  0  0  0  0  0  0
  136.2420   75.8790  221.5620 C   0  0  2  0  0  0  0  0  0  0  0  0
  135.7369   76.8546  221.6178 H   0  0  0  0  0  0  0  0  0  0  0  0
  135.8070   75.0480  222.7510 C   0  0  0  0  0  0  0  0  0  0  0  0
  135.9380   73.6490  222.7130 C   0  0  0  0  0  0  0  0  0  0  0  0
  136.3505   73.1611  221.8175 H   0  0  0  0  0  0  0  0  0  0  0  0
  135.5460   72.8760  223.8090 C   0  0  0  0  0  0  0  0  0  0  0  0
  135.6487   71.7814  223.7727 H   0  0  0  0  0  0  0  0  0  0  0  0
  135.0240   73.4890  224.9510 C   0  0  0  0  0  0  0  0  0  0  0  0
  134.7070   72.8756  225.8073 H   0  0  0  0  0  0  0  0  0  0  0  0
  134.9040   74.8800  225.0070 C   0  0  0  0  0  0  0  0  0  0  0  0
  134.2550   75.6480  226.4470 Cl  0  0  0  0  0  0  0  0  0  0  0  0
  135.2970   75.6590  223.9130 C   0  0  0  0  0  0  0  0  0  0  0  0
  135.2071   76.7543  223.9608 H   0  0  0  0  0  0  0  0  0  0  0  0
  135.8330   75.1950  220.2440 C   0  0  0  0  0  0  0  0  0  0  0  0
  135.3498   74.2334  220.4719 H   0  0  0  0  0  0  0  0  0  0  0  0
  135.1377   75.8559  219.7057 H   0  0  0  0  0  0  0  0  0  0  0  0
  136.9540   74.9650  219.4310 O   0  0  0  0  0  0  0  0  0  0  0  0
  137.7200   74.7850  220.0430 H   0  0  0  0  0  0  0  0  0  0  0  0
  141.4830   75.0080  220.4980 C   0  0  0  0  0  0  0  0  0  0  0  0
  142.4680   75.4483  220.7123 H   0  0  0  0  0  0  0  0  0  0  0  0
  141.5039   74.4684  219.5397 H   0  0  0  0  0  0  0  0  0  0  0  0
  141.1400   74.0630  221.5590 N   0  0  0  0  0  0  0  0  0  0  0  0
  141.7940   73.9560  222.3670 H   0  0  0  0  0  0  0  0  0  0  0  0
  139.8770   73.3810  221.5810 C   0  0  0  0  0  0  0  0  0  0  0  0
  139.0180   73.6240  220.6910 O   0  0  0  0  0  0  0  0  0  0  0  0
  139.5870   72.3750  222.6240 C   0  0  0  0  0  0  0  0  0  0  0  0
  140.4260   72.2480  223.6890 N   0  0  0  0  0  0  0  0  0  0  0  0
  140.2270   71.3200  224.6630 C   0  0  0  0  0  0  0  0  0  0  0  0
  141.1140   71.2290  225.7430 C   0  0  0  0  0  0  0  0  0  0  0  0
  141.9793   71.9056  225.8016 H   0  0  0  0  0  0  0  0  0  0  0  0
  140.9010   70.2790  226.7470 C   0  0  0  0  0  0  0  0  0  0  0  0
  141.5977   70.2130  227.5957 H   0  0  0  0  0  0  0  0  0  0  0  0
  139.8060   69.4130  226.6760 C   0  0  0  0  0  0  0  0  0  0  0  0
  139.6010   68.4990  227.6600 F   0  0  0  0  0  0  0  0  0  0  0  0
  138.9180   69.4910  225.5980 C   0  0  0  0  0  0  0  0  0  0  0  0
  138.0600   68.8049  225.5415 H   0  0  0  0  0  0  0  0  0  0  0  0
  139.1220   70.4460  224.5870 C   0  0  0  0  0  0  0  0  0  0  0  0
  138.2460   70.5570  223.5000 C   0  0  0  0  0  0  0  0  0  0  0  0
  137.3790   69.8847  223.4203 H   0  0  0  0  0  0  0  0  0  0  0  0
  138.4750   71.5230  222.5170 C   0  0  0  0  0  0  0  0  0  0  0  0
  137.7878   71.6161  221.6631 H   0  0  0  0  0  0  0  0  0  0  0  0
  1  2  1  0
  2  3  1  0
  3  4  2  0
  4  5  1  0
  5  6  1  0
  5  7  1  0
  5  8  1  0
  8  9  1  6
  8 10  1  0
 10 11  1  0
  8 12  1  0
 12 13  1  0
 12 14  1  0
 12 15  1  0
 15 16  1  1
 15 17  1  0
 17 18  2  0
 17 19  1  0
 19 20  1  0
 19 21  1  0
 21 22  1  1
 21 23  1  0
 23 24  2  0
 24 25  1  0
 24 26  1  0
 26 27  1  0
 26 28  2  0
 28 29  1  0
 28 30  1  0
 30 31  1  0
 30 32  2  0
 32 33  1  0
 21 34  1  0
 34 35  1  0
 34 36  1  0
 34 37  1  0
 37 38  1  0
  3 39  1  0
 39 40  1  0
 39 41  1  0
 39 42  1  0
 42 43  1  0
 42 44  1  0
 44 45  2  0
 44 46  1  0
 46 47  2  0
 47 48  1  0
 48 49  2  0
 49 50  1  0
 49 51  1  0
 51 52  1  0
 51 53  2  0
 53 54  1  0
 53 55  1  0
 55 56  1  0
 55 57  2  0
 57 58  1  0
 58 59  1  0
 58 60  2  0
 60 61  1  0
 15  4  1  0
 32 23  1  0
 60 46  1  0
 57 48  1  0
M  CHG  1   4   1
M  END
>  <UniqueID>  (35) 
154

>  <SMILES>  (35) 
O=C(NC/C(O)=[N+]1/C[C@H](O)C[C@H]1C(=O)N[C@@H](CO)c1cccc(Cl)c1)c1ccc2cc(F)ccc2n1

>  <Energy>  (35) 
62.28985114480852

>  <Genealogy>  (35) 
O=C(NCC(=O)[NH+]1C[C@H](O)C[C@H]1C(=O)N[C@@H](CO)c1cccc(Cl)c1)c1ccc2cc(F)ccc2n1 (protonated)
O=C(NCC(O)=[N+]1C[C@H](O)C[C@H]1C(=O)N[C@@H](CO)c1cccc(Cl)c1)c1ccc2cc(F)ccc2n1 (tautomer)
O=C(NC/C(O)=[N+]1/C[C@H](O)C[C@H]1C(=O)N[C@@H](CO)c1cccc(Cl)c1)c1ccc2cc(F)ccc2n1 (cis-trans isomerization)
O=C(NC/C(O)=[N+]1/C[C@H](O)C[C@H]1C(=O)N[C@@H](CO)c1cccc(Cl)c1)c1ccc2cc(F)ccc2n1 (3D coordinates assigned)
O=C(NC/C(O)=[N+]1/C[C@H](O)C[C@H]1C(=O)N[C@@H](CO)c1cccc(Cl)c1)c1ccc2cc(F)ccc2n1 (nonaromatic ring conformer: 62.28985114480852 kcal/mol)

>  <smiles>  (35) 
O=C(NCC(=O)N1C[C@H](O)C[C@H]1C(=O)N[C@@H](CO)c1cccc(Cl)c1)c1ccc2cc(F)ccc2n1

>  <score_type>  (35) 
oracle

>  <origin>  (35) 
autodockgpu

>  <m_score__min__energy>  (35) 
-8.8300000000000001

>  <m_primary>  (35) 
energy

>  <meeko>  (35) 
{"free_energy": -5.61, "intermolecular_energy": -8.9, "internal_energy": -7.14, "cluster_size": 1, "cluster_id": 9, "rank_in_cluster": 1}

>  <energy>  (35) 
-5.68

>  <cluster_rmsd>  (35) 
0.93

>  <rmsd>  (35) 
269.38

>  <cluster>  (35) 
7

$$$$
VCSRFCBMABBACK-HJZRBLFINA-O
     RDKit          3D

 61 64  0  0  0  0  0  0  0  0999 V2000
  139.3160   78.5760  218.2970 H   0  0  0  0  0  0  0  0  0  0  0  0
  139.4410   79.2290  219.0610 O   0  0  0  0  0  0  0  0  0  0  0  0
  140.6770   79.5070  219.6530 C   0  0  0  0  0  0  0  0  0  0  0  0
  140.7900   79.6490  220.9570 N   0  0  0  0  0  0  0  0  0  0  0  0
  140.6430   80.9340  221.6330 C   0  0  0  0  0  0  0  0  0  0  0  0
  141.1751   81.7202  221.0773 H   0  0  0  0  0  0  0  0  0  0  0  0
  139.5868   81.2344  221.6971 H   0  0  0  0  0  0  0  0  0  0  0  0
  141.2560   80.7590  223.0190 C   0  0  2  0  0  0  0  0  0  0  0  0
  140.7043   81.3108  223.7943 H   0  0  0  0  0  0  0  0  0  0  0  0
  142.5730   81.2370  223.0130 O   0  0  0  0  0  0  0  0  0  0  0  0
  142.6280   81.9050  222.2770 H   0  0  0  0  0  0  0  0  0  0  0  0
  141.2430   79.2550  223.2760 C   0  0  0  0  0  0  0  0  0  0  0  0
  142.1589   78.9493  223.8030 H   0  0  0  0  0  0  0  0  0  0  0  0
  140.3907   78.9612  223.9063 H   0  0  0  0  0  0  0  0  0  0  0  0
  141.1760   78.5920  221.8970 C   0  0  1  0  0  0  0  0  0  0  0  0
  142.1379   78.1483  221.6006 H   0  0  0  0  0  0  0  0  0  0  0  0
  140.1710   77.4700  221.9180 C   0  0  0  0  0  0  0  0  0  0  0  0
  139.7490   77.0320  223.0240 O   0  0  0  0  0  0  0  0  0  0  0  0
  139.7470   76.8630  220.6910 N   0  0  0  0  0  0  0  0  0  0  0  0
  140.0700   77.2840  219.7900 H   0  0  0  0  0  0  0  0  0  0  0  0
  138.9250   75.6460  220.6650 C   0  0  2  0  0  0  0  0  0  0  0  0
  138.2868   75.6361  221.5608 H   0  0  0  0  0  0  0  0  0  0  0  0
  139.8040   74.4130  220.6920 C   0  0  0  0  0  0  0  0  0  0  0  0
  140.1870   73.8540  221.9230 C   0  0  0  0  0  0  0  0  0  0  0  0
  139.8523   74.3165  222.8633 H   0  0  0  0  0  0  0  0  0  0  0  0
  140.9920   72.7120  221.9560 C   0  0  0  0  0  0  0  0  0  0  0  0
  141.2910   72.2797  222.9223 H   0  0  0  0  0  0  0  0  0  0  0  0
  141.4180   72.1180  220.7660 C   0  0  0  0  0  0  0  0  0  0  0  0
  142.0599   71.2253  220.7969 H   0  0  0  0  0  0  0  0  0  0  0  0
  141.0300   72.6560  219.5360 C   0  0  0  0  0  0  0  0  0  0  0  0
  141.5620   71.9010  218.0420 Cl  0  0  0  0  0  0  0  0  0  0  0  0
  140.2230   73.7970  219.4970 C   0  0  0  0  0  0  0  0  0  0  0  0
  139.9138   74.2157  218.5279 H   0  0  0  0  0  0  0  0  0  0  0  0
  138.0160   75.6370  219.4220 C   0  0  0  0  0  0  0  0  0  0  0  0
  138.0847   74.6544  218.9322 H   0  0  0  0  0  0  0  0  0  0  0  0
  136.9819   75.8350  219.7403 H   0  0  0  0  0  0  0  0  0  0  0  0
  138.4050   76.6330  218.5120 O   0  0  0  0  0  0  0  0  0  0  0  0
  138.8200   77.3650  219.0460 H   0  0  0  0  0  0  0  0  0  0  0  0
  141.8570   79.6210  218.7180 C   0  0  0  0  0  0  0  0  0  0  0  0
  142.4819   80.4713  219.0287 H   0  0  0  0  0  0  0  0  0  0  0  0
  141.4817   79.7736  217.6953 H   0  0  0  0  0  0  0  0  0  0  0  0
  142.6620   78.4010  218.7430 N   0  0  0  0  0  0  0  0  0  0  0  0
  143.6650   78.4660  219.0300 H   0  0  0  0  0  0  0  0  0  0  0  0
  142.0790   77.1100  218.5100 C   0  0  0  0  0  0  0  0  0  0  0  0
  140.8370   77.0080  218.3170 O   0  0  0  0  0  0  0  0  0  0  0  0
  142.9290   75.9020  218.4660 C   0  0  0  0  0  0  0  0  0  0  0  0
  143.4040   75.3700  219.6260 N   0  0  0  0  0  0  0  0  0  0  0  0
  144.2150   74.2780  219.6450 C   0  0  0  0  0  0  0  0  0  0  0  0
  144.6770   73.7640  220.8630 C   0  0  0  0  0  0  0  0  0  0  0  0
  144.3898   74.2482  221.8080 H   0  0  0  0  0  0  0  0  0  0  0  0
  145.5030   72.6360  220.8790 C   0  0  0  0  0  0  0  0  0  0  0  0
  145.8601   72.2324  221.8379 H   0  0  0  0  0  0  0  0  0  0  0  0
  145.8770   72.0190  219.6820 C   0  0  0  0  0  0  0  0  0  0  0  0
  146.6720   70.9180  219.7060 F   0  0  0  0  0  0  0  0  0  0  0  0
  145.4260   72.5300  218.4590 C   0  0  0  0  0  0  0  0  0  0  0  0
  145.7249   72.0464  217.5173 H   0  0  0  0  0  0  0  0  0  0  0  0
  144.5920   73.6600  218.4340 C   0  0  0  0  0  0  0  0  0  0  0  0
  144.1160   74.1900  217.2280 C   0  0  0  0  0  0  0  0  0  0  0  0
  144.3987   73.7247  216.2722 H   0  0  0  0  0  0  0  0  0  0  0  0
  143.2820   75.3100  217.2410 C   0  0  0  0  0  0  0  0  0  0  0  0
  142.9029   75.7272  216.2964 H   0  0  0  0  0  0  0  0  0  0  0  0
  1  2  1  0
  2  3  1  0
  3  4  2  0
  4  5  1  0
  5  6  1  0
  5  7  1  0
  5  8  1  0
  8  9  1  1
  8 10  1  0
 10 11  1  0
  8 12  1  0
 12 13  1  0
 12 14  1  0
 12 15  1  0
 15 16  1  6
 15 17  1  0
 17 18  2  0
 17 19  1  0
 19 20  1  0
 19 21  1  0
 21 22  1  1
 21 23  1  0
 23 24  2  0
 24 25  1  0
 24 26  1  0
 26 27  1  0
 26 28  2  0
 28 29  1  0
 28 30  1  0
 30 31  1  0
 30 32  2  0
 32 33  1  0
 21 34  1  0
 34 35  1  0
 34 36  1  0
 34 37  1  0
 37 38  1  0
  3 39  1  0
 39 40  1  0
 39 41  1  0
 39 42  1  0
 42 43  1  0
 42 44  1  0
 44 45  2  0
 44 46  1  0
 46 47  2  0
 47 48  1  0
 48 49  2  0
 49 50  1  0
 49 51  1  0
 51 52  1  0
 51 53  2  0
 53 54  1  0
 53 55  1  0
 55 56  1  0
 55 57  2  0
 57 58  1  0
 58 59  1  0
 58 60  2  0
 60 61  1  0
 15  4  1  0
 32 23  1  0
 60 46  1  0
 57 48  1  0
M  CHG  1   4   1
M  END
>  <UniqueID>  (36) 
154

>  <SMILES>  (36) 
O=C(NC/C(O)=[N+]1/C[C@H](O)C[C@H]1C(=O)N[C@@H](CO)c1cccc(Cl)c1)c1ccc2cc(F)ccc2n1

>  <Energy>  (36) 
62.28985114480852

>  <Genealogy>  (36) 
O=C(NCC(=O)[NH+]1C[C@H](O)C[C@H]1C(=O)N[C@@H](CO)c1cccc(Cl)c1)c1ccc2cc(F)ccc2n1 (protonated)
O=C(NCC(O)=[N+]1C[C@H](O)C[C@H]1C(=O)N[C@@H](CO)c1cccc(Cl)c1)c1ccc2cc(F)ccc2n1 (tautomer)
O=C(NC/C(O)=[N+]1/C[C@H](O)C[C@H]1C(=O)N[C@@H](CO)c1cccc(Cl)c1)c1ccc2cc(F)ccc2n1 (cis-trans isomerization)
O=C(NC/C(O)=[N+]1/C[C@H](O)C[C@H]1C(=O)N[C@@H](CO)c1cccc(Cl)c1)c1ccc2cc(F)ccc2n1 (3D coordinates assigned)
O=C(NC/C(O)=[N+]1/C[C@H](O)C[C@H]1C(=O)N[C@@H](CO)c1cccc(Cl)c1)c1ccc2cc(F)ccc2n1 (nonaromatic ring conformer: 62.28985114480852 kcal/mol)

>  <smiles>  (36) 
O=C(NCC(=O)N1C[C@H](O)C[C@H]1C(=O)N[C@@H](CO)c1cccc(Cl)c1)c1ccc2cc(F)ccc2n1

>  <score_type>  (36) 
oracle

>  <origin>  (36) 
autodockgpu

>  <m_score__min__energy>  (36) 
-8.8300000000000001

>  <m_primary>  (36) 
energy

>  <meeko>  (36) 
{"free_energy": -3.92, "intermolecular_energy": -7.2, "internal_energy": -7.75, "cluster_size": 1, "cluster_id": 11, "rank_in_cluster": 1}

>  <energy>  (36) 
-5.37

>  <cluster_rmsd>  (36) 
0.86

>  <rmsd>  (36) 
269.45

>  <cluster>  (36) 
7

$$$$
VCSRFCBMABBACK-HJZRBLFINA-O
     RDKit          3D

 61 64  0  0  0  0  0  0  0  0999 V2000
  138.8590   73.3600  219.9400 H   0  0  0  0  0  0  0  0  0  0  0  0
  138.0190   73.8950  220.1220 O   0  0  0  0  0  0  0  0  0  0  0  0
  137.0830   73.5640  221.1070 C   0  0  0  0  0  0  0  0  0  0  0  0
  136.5380   74.4900  221.8660 N   0  0  0  0  0  0  0  0  0  0  0  0
  135.4130   74.2270  222.7590 C   0  0  0  0  0  0  0  0  0  0  0  0
  134.6614   73.6040  222.2520 H   0  0  0  0  0  0  0  0  0  0  0  0
  135.7353   73.6851  223.6604 H   0  0  0  0  0  0  0  0  0  0  0  0
  134.8210   75.5880  223.1110 C   0  0  2  0  0  0  0  0  0  0  0  0
  134.4682   75.6344  224.1519 H   0  0  0  0  0  0  0  0  0  0  0  0
  133.7260   75.8530  222.2770 O   0  0  0  0  0  0  0  0  0  0  0  0
  133.8120   75.2420  221.4950 H   0  0  0  0  0  0  0  0  0  0  0  0
  135.9380   76.5930  222.8450 C   0  0  0  0  0  0  0  0  0  0  0  0
  135.5267   77.5147  222.4075 H   0  0  0  0  0  0  0  0  0  0  0  0
  136.4554   76.8755  223.7737 H   0  0  0  0  0  0  0  0  0  0  0  0
  136.8900   75.9140  221.8570 C   0  0  1  0  0  0  0  0  0  0  0  0
  136.7975   76.3255  220.8411 H   0  0  0  0  0  0  0  0  0  0  0  0
  138.3170   76.1370  222.2860 C   0  0  0  0  0  0  0  0  0  0  0  0
  138.5890   77.0800  223.0790 O   0  0  0  0  0  0  0  0  0  0  0  0
  139.3650   75.3240  221.7430 N   0  0  0  0  0  0  0  0  0  0  0  0
  139.1040   74.5170  221.1320 H   0  0  0  0  0  0  0  0  0  0  0  0
  140.7840   75.6230  221.9750 C   0  0  2  0  0  0  0  0  0  0  0  0
  141.0178   75.4114  223.0288 H   0  0  0  0  0  0  0  0  0  0  0  0
  141.0670   77.0870  221.7080 C   0  0  0  0  0  0  0  0  0  0  0  0
  140.9310   77.6000  220.4070 C   0  0  0  0  0  0  0  0  0  0  0  0
  140.6254   76.9360  219.5850 H   0  0  0  0  0  0  0  0  0  0  0  0
  141.1830   78.9520  220.1540 C   0  0  0  0  0  0  0  0  0  0  0  0
  141.0762   79.3482  219.1334 H   0  0  0  0  0  0  0  0  0  0  0  0
  141.5700   79.8010  221.1940 C   0  0  0  0  0  0  0  0  0  0  0  0
  141.7790   80.8613  220.9886 H   0  0  0  0  0  0  0  0  0  0  0  0
  141.6920   79.3050  222.4950 C   0  0  0  0  0  0  0  0  0  0  0  0
  142.1700   80.3780  223.8010 Cl  0  0  0  0  0  0  0  0  0  0  0  0
  141.4390   77.9550  222.7540 C   0  0  0  0  0  0  0  0  0  0  0  0
  141.5307   77.5681  223.7796 H   0  0  0  0  0  0  0  0  0  0  0  0
  141.6740   74.7290  221.0920 C   0  0  0  0  0  0  0  0  0  0  0  0
  142.3785   75.3620  220.5326 H   0  0  0  0  0  0  0  0  0  0  0  0
  142.2201   74.0269  221.7392 H   0  0  0  0  0  0  0  0  0  0  0  0
  140.8970   73.9920  220.1840 O   0  0  0  0  0  0  0  0  0  0  0  0
  140.1220   73.6300  220.6970 H   0  0  0  0  0  0  0  0  0  0  0  0
  136.7350   72.1000  221.2350 C   0  0  0  0  0  0  0  0  0  0  0  0
  137.0374   71.5762  220.3162 H   0  0  0  0  0  0  0  0  0  0  0  0
  135.6497   72.0087  221.3895 H   0  0  0  0  0  0  0  0  0  0  0  0
  137.4220   71.4990  222.3770 N   0  0  0  0  0  0  0  0  0  0  0  0
  136.9130   70.7910  222.9530 H   0  0  0  0  0  0  0  0  0  0  0  0
  138.8070   71.7610  222.6460 C   0  0  0  0  0  0  0  0  0  0  0  0
  139.4700   72.4940  221.8630 O   0  0  0  0  0  0  0  0  0  0  0  0
  139.4550   71.2000  223.8500 C   0  0  0  0  0  0  0  0  0  0  0  0
  139.0150   70.0190  224.3640 N   0  0  0  0  0  0  0  0  0  0  0  0
  139.5520   69.4700  225.4860 C   0  0  0  0  0  0  0  0  0  0  0  0
  139.0680   68.2510  225.9770 C   0  0  0  0  0  0  0  0  0  0  0  0
  138.2453   67.7375  225.4579 H   0  0  0  0  0  0  0  0  0  0  0  0
  139.6290   67.6860  227.1260 C   0  0  0  0  0  0  0  0  0  0  0  0
  139.2492   66.7260  227.5056 H   0  0  0  0  0  0  0  0  0  0  0  0
  140.6710   68.3360  227.7950 C   0  0  0  0  0  0  0  0  0  0  0  0
  141.2170   67.7760  228.9050 F   0  0  0  0  0  0  0  0  0  0  0  0
  141.1560   69.5590  227.3170 C   0  0  0  0  0  0  0  0  0  0  0  0
  141.9720   70.0718  227.8473 H   0  0  0  0  0  0  0  0  0  0  0  0
  140.6010   70.1320  226.1600 C   0  0  0  0  0  0  0  0  0  0  0  0
  141.0700   71.3480  225.6500 C   0  0  0  0  0  0  0  0  0  0  0  0
  141.8863   71.8805  226.1601 H   0  0  0  0  0  0  0  0  0  0  0  0
  140.5010   71.8850  224.4930 C   0  0  0  0  0  0  0  0  0  0  0  0
  140.8693   72.8387  224.0870 H   0  0  0  0  0  0  0  0  0  0  0  0
  1  2  1  0
  2  3  1  0
  3  4  2  0
  4  5  1  0
  5  6  1  0
  5  7  1  0
  5  8  1  0
  8  9  1  1
  8 10  1  0
 10 11  1  0
  8 12  1  0
 12 13  1  0
 12 14  1  0
 12 15  1  0
 15 16  1  6
 15 17  1  0
 17 18  2  0
 17 19  1  0
 19 20  1  0
 19 21  1  0
 21 22  1  1
 21 23  1  0
 23 24  2  0
 24 25  1  0
 24 26  1  0
 26 27  1  0
 26 28  2  0
 28 29  1  0
 28 30  1  0
 30 31  1  0
 30 32  2  0
 32 33  1  0
 21 34  1  0
 34 35  1  0
 34 36  1  0
 34 37  1  0
 37 38  1  0
  3 39  1  0
 39 40  1  0
 39 41  1  0
 39 42  1  0
 42 43  1  0
 42 44  1  0
 44 45  2  0
 44 46  1  0
 46 47  2  0
 47 48  1  0
 48 49  2  0
 49 50  1  0
 49 51  1  0
 51 52  1  0
 51 53  2  0
 53 54  1  0
 53 55  1  0
 55 56  1  0
 55 57  2  0
 57 58  1  0
 58 59  1  0
 58 60  2  0
 60 61  1  0
 15  4  1  0
 32 23  1  0
 60 46  1  0
 57 48  1  0
M  CHG  1   4   1
M  END
>  <UniqueID>  (37) 
154

>  <SMILES>  (37) 
O=C(NC/C(O)=[N+]1/C[C@H](O)C[C@H]1C(=O)N[C@@H](CO)c1cccc(Cl)c1)c1ccc2cc(F)ccc2n1

>  <Energy>  (37) 
62.28985114480852

>  <Genealogy>  (37) 
O=C(NCC(=O)[NH+]1C[C@H](O)C[C@H]1C(=O)N[C@@H](CO)c1cccc(Cl)c1)c1ccc2cc(F)ccc2n1 (protonated)
O=C(NCC(O)=[N+]1C[C@H](O)C[C@H]1C(=O)N[C@@H](CO)c1cccc(Cl)c1)c1ccc2cc(F)ccc2n1 (tautomer)
O=C(NC/C(O)=[N+]1/C[C@H](O)C[C@H]1C(=O)N[C@@H](CO)c1cccc(Cl)c1)c1ccc2cc(F)ccc2n1 (cis-trans isomerization)
O=C(NC/C(O)=[N+]1/C[C@H](O)C[C@H]1C(=O)N[C@@H](CO)c1cccc(Cl)c1)c1ccc2cc(F)ccc2n1 (3D coordinates assigned)
O=C(NC/C(O)=[N+]1/C[C@H](O)C[C@H]1C(=O)N[C@@H](CO)c1cccc(Cl)c1)c1ccc2cc(F)ccc2n1 (nonaromatic ring conformer: 62.28985114480852 kcal/mol)

>  <smiles>  (37) 
O=C(NCC(=O)N1C[C@H](O)C[C@H]1C(=O)N[C@@H](CO)c1cccc(Cl)c1)c1ccc2cc(F)ccc2n1

>  <score_type>  (37) 
oracle

>  <origin>  (37) 
autodockgpu

>  <m_score__min__energy>  (37) 
-8.8300000000000001

>  <m_primary>  (37) 
energy

>  <meeko>  (37) 
{"free_energy": -6.25, "intermolecular_energy": -9.54, "internal_energy": -6.26, "cluster_size": 3, "cluster_id": 5, "rank_in_cluster": 1}

>  <energy>  (37) 
-5.63

>  <cluster_rmsd>  (37) 
0.0

>  <rmsd>  (37) 
269.17

>  <cluster>  (37) 
8

$$$$
VCSRFCBMABBACK-HJZRBLFINA-O
     RDKit          3D

 61 64  0  0  0  0  0  0  0  0999 V2000
  139.2480   73.4280  219.8680 H   0  0  0  0  0  0  0  0  0  0  0  0
  138.4090   73.9930  219.9170 O   0  0  0  0  0  0  0  0  0  0  0  0
  137.3070   73.6820  220.7190 C   0  0  0  0  0  0  0  0  0  0  0  0
  136.7480   74.5910  221.4890 N   0  0  0  0  0  0  0  0  0  0  0  0
  135.5750   74.3220  222.3160 C   0  0  0  0  0  0  0  0  0  0  0  0
  134.8343   73.7392  221.7488 H   0  0  0  0  0  0  0  0  0  0  0  0
  135.8402   73.7367  223.2088 H   0  0  0  0  0  0  0  0  0  0  0  0
  134.9990   75.6830  222.6950 C   0  0  2  0  0  0  0  0  0  0  0  0
  134.5973   75.6984  223.7189 H   0  0  0  0  0  0  0  0  0  0  0  0
  133.9520   76.0080  221.8210 O   0  0  0  0  0  0  0  0  0  0  0  0
  133.6530   76.9260  222.0680 H   0  0  0  0  0  0  0  0  0  0  0  0
  136.1520   76.6680  222.5230 C   0  0  0  0  0  0  0  0  0  0  0  0
  135.7848   77.6167  222.1046 H   0  0  0  0  0  0  0  0  0  0  0  0
  136.6308   76.8996  223.4859 H   0  0  0  0  0  0  0  0  0  0  0  0
  137.1340   76.0040  221.5540 C   0  0  1  0  0  0  0  0  0  0  0  0
  137.1005   76.4567  220.5520 H   0  0  0  0  0  0  0  0  0  0  0  0
  138.5430   76.1740  222.0580 C   0  0  0  0  0  0  0  0  0  0  0  0
  138.7490   76.8090  223.1290 O   0  0  0  0  0  0  0  0  0  0  0  0
  139.6450   75.6730  221.2910 N   0  0  0  0  0  0  0  0  0  0  0  0
  139.4400   75.1040  220.4390 H   0  0  0  0  0  0  0  0  0  0  0  0
  141.0400   75.9800  221.6360 C   0  0  2  0  0  0  0  0  0  0  0  0
  141.1912   75.7677  222.7047 H   0  0  0  0  0  0  0  0  0  0  0  0
  141.3340   77.4460  221.3950 C   0  0  0  0  0  0  0  0  0  0  0  0
  141.4310   77.9330  220.0800 C   0  0  0  0  0  0  0  0  0  0  0  0
  141.2980   77.2477  219.2299 H   0  0  0  0  0  0  0  0  0  0  0  0
  141.6960   79.2860  219.8500 C   0  0  0  0  0  0  0  0  0  0  0  0
  141.7740   79.6620  218.8192 H   0  0  0  0  0  0  0  0  0  0  0  0
  141.8620   80.1620  220.9250 C   0  0  0  0  0  0  0  0  0  0  0  0
  142.0807   81.2238  220.7388 H   0  0  0  0  0  0  0  0  0  0  0  0
  141.7510   79.6930  222.2360 C   0  0  0  0  0  0  0  0  0  0  0  0
  141.9520   80.8000  223.5850 Cl  0  0  0  0  0  0  0  0  0  0  0  0
  141.4840   78.3400  222.4720 C   0  0  0  0  0  0  0  0  0  0  0  0
  141.3908   77.9729  223.5047 H   0  0  0  0  0  0  0  0  0  0  0  0
  142.0020   75.0930  220.8250 C   0  0  0  0  0  0  0  0  0  0  0  0
  142.5129   75.7105  220.0716 H   0  0  0  0  0  0  0  0  0  0  0  0
  142.7333   74.6453  221.5141 H   0  0  0  0  0  0  0  0  0  0  0  0
  141.3040   74.0600  220.1770 O   0  0  0  0  0  0  0  0  0  0  0  0
  140.4610   73.9180  220.6890 H   0  0  0  0  0  0  0  0  0  0  0  0
  136.8000   72.2620  220.6400 C   0  0  0  0  0  0  0  0  0  0  0  0
  137.1781   71.7954  219.7184 H   0  0  0  0  0  0  0  0  0  0  0  0
  135.7002   72.2813  220.6379 H   0  0  0  0  0  0  0  0  0  0  0  0
  137.2510   71.4820  221.7910 N   0  0  0  0  0  0  0  0  0  0  0  0
  136.5990   70.7800  222.2090 H   0  0  0  0  0  0  0  0  0  0  0  0
  138.6000   71.5660  222.2760 C   0  0  0  0  0  0  0  0  0  0  0  0
  139.4360   72.2960  221.6780 O   0  0  0  0  0  0  0  0  0  0  0  0
  139.0070   70.8250  223.4870 C   0  0  0  0  0  0  0  0  0  0  0  0
  139.6090   71.4880  224.5130 N   0  0  0  0  0  0  0  0  0  0  0  0
  140.0330   70.8530  225.6390 C   0  0  0  0  0  0  0  0  0  0  0  0
  140.6430   71.5780  226.6700 C   0  0  0  0  0  0  0  0  0  0  0  0
  140.7866   72.6638  226.5677 H   0  0  0  0  0  0  0  0  0  0  0  0
  141.0700   70.9230  227.8300 C   0  0  0  0  0  0  0  0  0  0  0  0
  141.5453   71.4963  228.6396 H   0  0  0  0  0  0  0  0  0  0  0  0
  140.8950   69.5430  227.9640 C   0  0  0  0  0  0  0  0  0  0  0  0
  141.3030   68.9150  229.0970 F   0  0  0  0  0  0  0  0  0  0  0  0
  140.2930   68.8080  226.9350 C   0  0  0  0  0  0  0  0  0  0  0  0
  140.1615   67.7209  227.0395 H   0  0  0  0  0  0  0  0  0  0  0  0
  139.8570   69.4600  225.7690 C   0  0  0  0  0  0  0  0  0  0  0  0
  139.2410   68.7560  224.7260 C   0  0  0  0  0  0  0  0  0  0  0  0
  139.0940   67.6689  224.8068 H   0  0  0  0  0  0  0  0  0  0  0  0
  138.8140   69.4360  223.5840 C   0  0  0  0  0  0  0  0  0  0  0  0
  138.3286   68.8872  222.7635 H   0  0  0  0  0  0  0  0  0  0  0  0
  1  2  1  0
  2  3  1  0
  3  4  2  0
  4  5  1  0
  5  6  1  0
  5  7  1  0
  5  8  1  0
  8  9  1  1
  8 10  1  0
 10 11  1  0
  8 12  1  0
 12 13  1  0
 12 14  1  0
 12 15  1  0
 15 16  1  6
 15 17  1  0
 17 18  2  0
 17 19  1  0
 19 20  1  0
 19 21  1  0
 21 22  1  1
 21 23  1  0
 23 24  2  0
 24 25  1  0
 24 26  1  0
 26 27  1  0
 26 28  2  0
 28 29  1  0
 28 30  1  0
 30 31  1  0
 30 32  2  0
 32 33  1  0
 21 34  1  0
 34 35  1  0
 34 36  1  0
 34 37  1  0
 37 38  1  0
  3 39  1  0
 39 40  1  0
 39 41  1  0
 39 42  1  0
 42 43  1  0
 42 44  1  0
 44 45  2  0
 44 46  1  0
 46 47  2  0
 47 48  1  0
 48 49  2  0
 49 50  1  0
 49 51  1  0
 51 52  1  0
 51 53  2  0
 53 54  1  0
 53 55  1  0
 55 56  1  0
 55 57  2  0
 57 58  1  0
 58 59  1  0
 58 60  2  0
 60 61  1  0
 15  4  1  0
 32 23  1  0
 60 46  1  0
 57 48  1  0
M  CHG  1   4   1
M  END
>  <UniqueID>  (38) 
154

>  <SMILES>  (38) 
O=C(NC/C(O)=[N+]1/C[C@H](O)C[C@H]1C(=O)N[C@@H](CO)c1cccc(Cl)c1)c1ccc2cc(F)ccc2n1

>  <Energy>  (38) 
62.28985114480852

>  <Genealogy>  (38) 
O=C(NCC(=O)[NH+]1C[C@H](O)C[C@H]1C(=O)N[C@@H](CO)c1cccc(Cl)c1)c1ccc2cc(F)ccc2n1 (protonated)
O=C(NCC(O)=[N+]1C[C@H](O)C[C@H]1C(=O)N[C@@H](CO)c1cccc(Cl)c1)c1ccc2cc(F)ccc2n1 (tautomer)
O=C(NC/C(O)=[N+]1/C[C@H](O)C[C@H]1C(=O)N[C@@H](CO)c1cccc(Cl)c1)c1ccc2cc(F)ccc2n1 (cis-trans isomerization)
O=C(NC/C(O)=[N+]1/C[C@H](O)C[C@H]1C(=O)N[C@@H](CO)c1cccc(Cl)c1)c1ccc2cc(F)ccc2n1 (3D coordinates assigned)
O=C(NC/C(O)=[N+]1/C[C@H](O)C[C@H]1C(=O)N[C@@H](CO)c1cccc(Cl)c1)c1ccc2cc(F)ccc2n1 (nonaromatic ring conformer: 62.28985114480852 kcal/mol)

>  <smiles>  (38) 
O=C(NCC(=O)N1C[C@H](O)C[C@H]1C(=O)N[C@@H](CO)c1cccc(Cl)c1)c1ccc2cc(F)ccc2n1

>  <score_type>  (38) 
oracle

>  <origin>  (38) 
autodockgpu

>  <m_score__min__energy>  (38) 
-8.8300000000000001

>  <m_primary>  (38) 
energy

>  <meeko>  (38) 
{"free_energy": -5.95, "intermolecular_energy": -9.24, "internal_energy": -5.47, "cluster_size": 3, "cluster_id": 5, "rank_in_cluster": 3}

>  <energy>  (38) 
-5.61

>  <cluster_rmsd>  (38) 
0.0

>  <rmsd>  (38) 
270.11

>  <cluster>  (38) 
9

$$$$
VCSRFCBMABBACK-HJZRBLFINA-O
     RDKit          3D

 61 64  0  0  0  0  0  0  0  0999 V2000
  138.7390   74.4960  222.8640 H   0  0  0  0  0  0  0  0  0  0  0  0
  139.6340   74.9210  222.6570 O   0  0  0  0  0  0  0  0  0  0  0  0
  140.4110   74.5950  221.5410 C   0  0  0  0  0  0  0  0  0  0  0  0
  140.9890   75.5310  220.8170 N   0  0  0  0  0  0  0  0  0  0  0  0
  141.7960   75.2400  219.6370 C   0  0  0  0  0  0  0  0  0  0  0  0
  142.4640   74.3882  219.8327 H   0  0  0  0  0  0  0  0  0  0  0  0
  141.1651   74.9724  218.7766 H   0  0  0  0  0  0  0  0  0  0  0  0
  142.6120   76.4980  219.3570 C   0  0  2  0  0  0  0  0  0  0  0  0
  142.7344   76.6867  218.2802 H   0  0  0  0  0  0  0  0  0  0  0  0
  143.8910   76.3620  219.9130 O   0  0  0  0  0  0  0  0  0  0  0  0
  144.0650   77.1950  220.4290 H   0  0  0  0  0  0  0  0  0  0  0  0
  141.8560   77.6280  220.0500 C   0  0  0  0  0  0  0  0  0  0  0  0
  142.5626   78.3393  220.5025 H   0  0  0  0  0  0  0  0  0  0  0  0
  141.2351   78.1926  219.3389 H   0  0  0  0  0  0  0  0  0  0  0  0
  141.0030   76.9630  221.1340 C   0  0  1  0  0  0  0  0  0  0  0  0
  141.4085   77.1291  222.1430 H   0  0  0  0  0  0  0  0  0  0  0  0
  139.6150   77.5490  221.1250 C   0  0  0  0  0  0  0  0  0  0  0  0
  139.3200   78.4380  220.2790 O   0  0  0  0  0  0  0  0  0  0  0  0
  138.6590   77.1460  222.1130 N   0  0  0  0  0  0  0  0  0  0  0  0
  138.9140   76.3690  222.7640 H   0  0  0  0  0  0  0  0  0  0  0  0
  137.3650   77.8240  222.2690 C   0  0  2  0  0  0  0  0  0  0  0  0
  137.0307   78.1720  221.2805 H   0  0  0  0  0  0  0  0  0  0  0  0
  137.5050   79.0280  223.1760 C   0  0  0  0  0  0  0  0  0  0  0  0
  138.7710   79.5980  223.3930 C   0  0  0  0  0  0  0  0  0  0  0  0
  139.6578   79.1647  222.9075 H   0  0  0  0  0  0  0  0  0  0  0  0
  138.9070   80.7140  224.2240 C   0  0  0  0  0  0  0  0  0  0  0  0
  139.9008   81.1546  224.3923 H   0  0  0  0  0  0  0  0  0  0  0  0
  137.7850   81.2710  224.8410 C   0  0  0  0  0  0  0  0  0  0  0  0
  137.8983   82.1427  225.5023 H   0  0  0  0  0  0  0  0  0  0  0  0
  136.5180   80.7230  224.6200 C   0  0  0  0  0  0  0  0  0  0  0  0
  135.1090   81.4320  225.3910 Cl  0  0  0  0  0  0  0  0  0  0  0  0
  136.3760   79.6080  223.7880 C   0  0  0  0  0  0  0  0  0  0  0  0
  135.3777   79.1815  223.6104 H   0  0  0  0  0  0  0  0  0  0  0  0
  136.3100   76.8480  222.8220 C   0  0  0  0  0  0  0  0  0  0  0  0
  135.9300   77.2330  223.7798 H   0  0  0  0  0  0  0  0  0  0  0  0
  135.4924   76.7626  222.0911 H   0  0  0  0  0  0  0  0  0  0  0  0
  136.8650   75.5740  223.0260 O   0  0  0  0  0  0  0  0  0  0  0  0
  137.7620   75.7140  223.4360 H   0  0  0  0  0  0  0  0  0  0  0  0
  140.5520   73.1250  221.2290 C   0  0  0  0  0  0  0  0  0  0  0  0
  141.5296   72.9493  220.7563 H   0  0  0  0  0  0  0  0  0  0  0  0
  139.7384   72.8302  220.5499 H   0  0  0  0  0  0  0  0  0  0  0  0
  140.4580   72.3220  222.4470 N   0  0  0  0  0  0  0  0  0  0  0  0
  140.8150   72.7250  223.3430 H   0  0  0  0  0  0  0  0  0  0  0  0
  139.7780   71.0580  222.4660 C   0  0  0  0  0  0  0  0  0  0  0  0
  139.2090   70.6370  221.4220 O   0  0  0  0  0  0  0  0  0  0  0  0
  139.7640   70.2330  223.6910 C   0  0  0  0  0  0  0  0  0  0  0  0
  140.3510   70.7030  224.8270 N   0  0  0  0  0  0  0  0  0  0  0  0
  140.3950   69.9770  225.9750 C   0  0  0  0  0  0  0  0  0  0  0  0
  141.0060   70.5030  227.1200 C   0  0  0  0  0  0  0  0  0  0  0  0
  141.4583   71.5052  227.0898 H   0  0  0  0  0  0  0  0  0  0  0  0
  141.0420   69.7560  228.3020 C   0  0  0  0  0  0  0  0  0  0  0  0
  141.5193   70.1746  229.2004 H   0  0  0  0  0  0  0  0  0  0  0  0
  140.4740   68.4800  228.3460 C   0  0  0  0  0  0  0  0  0  0  0  0
  140.5050   67.7640  229.5000 F   0  0  0  0  0  0  0  0  0  0  0  0
  139.8680   67.9410  227.2050 C   0  0  0  0  0  0  0  0  0  0  0  0
  139.4265   66.9341  227.2400 H   0  0  0  0  0  0  0  0  0  0  0  0
  139.8240   68.6870  226.0150 C   0  0  0  0  0  0  0  0  0  0  0  0
  139.2160   68.1820  224.8590 C   0  0  0  0  0  0  0  0  0  0  0  0
  138.7651   67.1787  224.8671 H   0  0  0  0  0  0  0  0  0  0  0  0
  139.1830   68.9540  223.6960 C   0  0  0  0  0  0  0  0  0  0  0  0
  138.7037   68.5620  222.7868 H   0  0  0  0  0  0  0  0  0  0  0  0
  1  2  1  0
  2  3  1  0
  3  4  2  0
  4  5  1  0
  5  6  1  0
  5  7  1  0
  5  8  1  0
  8  9  1  6
  8 10  1  0
 10 11  1  0
  8 12  1  0
 12 13  1  0
 12 14  1  0
 12 15  1  0
 15 16  1  1
 15 17  1  0
 17 18  2  0
 17 19  1  0
 19 20  1  0
 19 21  1  0
 21 22  1  6
 21 23  1  0
 23 24  2  0
 24 25  1  0
 24 26  1  0
 26 27  1  0
 26 28  2  0
 28 29  1  0
 28 30  1  0
 30 31  1  0
 30 32  2  0
 32 33  1  0
 21 34  1  0
 34 35  1  0
 34 36  1  0
 34 37  1  0
 37 38  1  0
  3 39  1  0
 39 40  1  0
 39 41  1  0
 39 42  1  0
 42 43  1  0
 42 44  1  0
 44 45  2  0
 44 46  1  0
 46 47  2  0
 47 48  1  0
 48 49  2  0
 49 50  1  0
 49 51  1  0
 51 52  1  0
 51 53  2  0
 53 54  1  0
 53 55  1  0
 55 56  1  0
 55 57  2  0
 57 58  1  0
 58 59  1  0
 58 60  2  0
 60 61  1  0
 15  4  1  0
 32 23  1  0
 60 46  1  0
 57 48  1  0
M  CHG  1   4   1
M  END
>  <UniqueID>  (39) 
154

>  <SMILES>  (39) 
O=C(NC/C(O)=[N+]1/C[C@H](O)C[C@H]1C(=O)N[C@@H](CO)c1cccc(Cl)c1)c1ccc2cc(F)ccc2n1

>  <Energy>  (39) 
62.28985114480852

>  <Genealogy>  (39) 
O=C(NCC(=O)[NH+]1C[C@H](O)C[C@H]1C(=O)N[C@@H](CO)c1cccc(Cl)c1)c1ccc2cc(F)ccc2n1 (protonated)
O=C(NCC(O)=[N+]1C[C@H](O)C[C@H]1C(=O)N[C@@H](CO)c1cccc(Cl)c1)c1ccc2cc(F)ccc2n1 (tautomer)
O=C(NC/C(O)=[N+]1/C[C@H](O)C[C@H]1C(=O)N[C@@H](CO)c1cccc(Cl)c1)c1ccc2cc(F)ccc2n1 (cis-trans isomerization)
O=C(NC/C(O)=[N+]1/C[C@H](O)C[C@H]1C(=O)N[C@@H](CO)c1cccc(Cl)c1)c1ccc2cc(F)ccc2n1 (3D coordinates assigned)
O=C(NC/C(O)=[N+]1/C[C@H](O)C[C@H]1C(=O)N[C@@H](CO)c1cccc(Cl)c1)c1ccc2cc(F)ccc2n1 (nonaromatic ring conformer: 62.28985114480852 kcal/mol)

>  <smiles>  (39) 
O=C(NCC(=O)N1C[C@H](O)C[C@H]1C(=O)N[C@@H](CO)c1cccc(Cl)c1)c1ccc2cc(F)ccc2n1

>  <score_type>  (39) 
oracle

>  <origin>  (39) 
autodockgpu

>  <m_score__min__energy>  (39) 
-8.8300000000000001

>  <m_primary>  (39) 
energy

>  <meeko>  (39) 
{"free_energy": -8.02, "intermolecular_energy": -11.3, "internal_energy": -4.18, "cluster_size": 1, "cluster_id": 3, "rank_in_cluster": 1}

>  <energy>  (39) 
-4.35

>  <cluster_rmsd>  (39) 
0.0

>  <rmsd>  (39) 
270.16

>  <cluster>  (39) 
10

$$$$
VCSRFCBMABBACK-HJZRBLFINA-O
     RDKit          3D

 61 64  0  0  0  0  0  0  0  0999 V2000
  138.2870   74.1430  222.7300 H   0  0  0  0  0  0  0  0  0  0  0  0
  137.5430   73.6580  222.2440 O   0  0  0  0  0  0  0  0  0  0  0  0
  136.1940   73.7410  222.6050 C   0  0  0  0  0  0  0  0  0  0  0  0
  135.4060   72.6880  222.5370 N   0  0  0  0  0  0  0  0  0  0  0  0
  134.2730   72.6010  221.6210 C   0  0  0  0  0  0  0  0  0  0  0  0
  133.7115   73.5469  221.6182 H   0  0  0  0  0  0  0  0  0  0  0  0
  134.6054   72.4130  220.5894 H   0  0  0  0  0  0  0  0  0  0  0  0
  133.3940   71.4660  222.1370 C   0  0  2  0  0  0  0  0  0  0  0  0
  132.9378   70.8856  221.3215 H   0  0  0  0  0  0  0  0  0  0  0  0
  132.3560   71.9940  222.9170 O   0  0  0  0  0  0  0  0  0  0  0  0
  131.5880   71.3670  222.8260 H   0  0  0  0  0  0  0  0  0  0  0  0
  134.3140   70.6070  223.0000 C   0  0  0  0  0  0  0  0  0  0  0  0
  133.7756   70.2429  223.8874 H   0  0  0  0  0  0  0  0  0  0  0  0
  134.6727   69.7239  222.4510 H   0  0  0  0  0  0  0  0  0  0  0  0
  135.4730   71.5170  223.4170 C   0  0  1  0  0  0  0  0  0  0  0  0
  135.4028   71.8247  224.4708 H   0  0  0  0  0  0  0  0  0  0  0  0
  136.7790   70.7820  223.2680 C   0  0  0  0  0  0  0  0  0  0  0  0
  136.7750   69.5310  223.1060 O   0  0  0  0  0  0  0  0  0  0  0  0
  138.0190   71.4920  223.3770 N   0  0  0  0  0  0  0  0  0  0  0  0
  137.9900   72.5350  223.4550 H   0  0  0  0  0  0  0  0  0  0  0  0
  139.3130   70.8000  223.4340 C   0  0  2  0  0  0  0  0  0  0  0  0
  139.2735   69.9289  222.7635 H   0  0  0  0  0  0  0  0  0  0  0  0
  139.5880   70.3090  224.8400 C   0  0  0  0  0  0  0  0  0  0  0  0
  139.3240   68.9700  225.1780 C   0  0  0  0  0  0  0  0  0  0  0  0
  138.9141   68.2841  224.4220 H   0  0  0  0  0  0  0  0  0  0  0  0
  139.5810   68.5080  226.4720 C   0  0  0  0  0  0  0  0  0  0  0  0
  139.3698   67.4602  226.7319 H   0  0  0  0  0  0  0  0  0  0  0  0
  140.1050   69.3720  227.4360 C   0  0  0  0  0  0  0  0  0  0  0  0
  140.2954   69.0063  228.4558 H   0  0  0  0  0  0  0  0  0  0  0  0
  140.3880   70.7010  227.1070 C   0  0  0  0  0  0  0  0  0  0  0  0
  141.0540   71.7820  228.3190 Cl  0  0  0  0  0  0  0  0  0  0  0  0
  140.1340   71.1680  225.8130 C   0  0  0  0  0  0  0  0  0  0  0  0
  140.3622   72.2125  225.5541 H   0  0  0  0  0  0  0  0  0  0  0  0
  140.4430   71.7300  222.9540 C   0  0  0  0  0  0  0  0  0  0  0  0
  141.2264   71.7731  223.7250 H   0  0  0  0  0  0  0  0  0  0  0  0
  140.8519   71.3313  222.0139 H   0  0  0  0  0  0  0  0  0  0  0  0
  139.9570   73.0260  222.7190 O   0  0  0  0  0  0  0  0  0  0  0  0
  139.2840   73.2150  223.4300 H   0  0  0  0  0  0  0  0  0  0  0  0
  135.7090   75.0890  223.0810 C   0  0  0  0  0  0  0  0  0  0  0  0
  135.2556   74.9777  224.0770 H   0  0  0  0  0  0  0  0  0  0  0  0
  134.9682   75.4703  222.3627 H   0  0  0  0  0  0  0  0  0  0  0  0
  136.8150   76.0410  223.1620 N   0  0  0  0  0  0  0  0  0  0  0  0
  137.7840   75.6770  223.3030 H   0  0  0  0  0  0  0  0  0  0  0  0
  136.6190   77.4440  222.9260 C   0  0  0  0  0  0  0  0  0  0  0  0
  135.4780   77.8710  222.6010 O   0  0  0  0  0  0  0  0  0  0  0  0
  137.7390   78.3940  223.0880 C   0  0  0  0  0  0  0  0  0  0  0  0
  139.0210   77.9390  223.0410 N   0  0  0  0  0  0  0  0  0  0  0  0
  140.0900   78.7620  223.2140 C   0  0  0  0  0  0  0  0  0  0  0  0
  141.3920   78.2490  223.1530 C   0  0  0  0  0  0  0  0  0  0  0  0
  141.5516   77.1759  222.9711 H   0  0  0  0  0  0  0  0  0  0  0  0
  142.4890   79.0990  223.3230 C   0  0  0  0  0  0  0  0  0  0  0  0
  143.5100   78.6931  223.2709 H   0  0  0  0  0  0  0  0  0  0  0  0
  142.2930   80.4630  223.5590 C   0  0  0  0  0  0  0  0  0  0  0  0
  143.3640   81.2840  223.7140 F   0  0  0  0  0  0  0  0  0  0  0  0
  140.9960   80.9840  223.6300 C   0  0  0  0  0  0  0  0  0  0  0  0
  140.8437   82.0562  223.8227 H   0  0  0  0  0  0  0  0  0  0  0  0
  139.8880   80.1370  223.4550 C   0  0  0  0  0  0  0  0  0  0  0  0
  138.5780   80.6280  223.5090 C   0  0  0  0  0  0  0  0  0  0  0  0
  138.3978   81.6968  223.6969 H   0  0  0  0  0  0  0  0  0  0  0  0
  137.5000   79.7590  223.3240 C   0  0  0  0  0  0  0  0  0  0  0  0
  136.4692   80.1410  223.3628 H   0  0  0  0  0  0  0  0  0  0  0  0
  1  2  1  0
  2  3  1  0
  3  4  2  0
  4  5  1  0
  5  6  1  0
  5  7  1  0
  5  8  1  0
  8  9  1  6
  8 10  1  0
 10 11  1  0
  8 12  1  0
 12 13  1  0
 12 14  1  0
 12 15  1  0
 15 16  1  1
 15 17  1  0
 17 18  2  0
 17 19  1  0
 19 20  1  0
 19 21  1  0
 21 22  1  6
 21 23  1  0
 23 24  2  0
 24 25  1  0
 24 26  1  0
 26 27  1  0
 26 28  2  0
 28 29  1  0
 28 30  1  0
 30 31  1  0
 30 32  2  0
 32 33  1  0
 21 34  1  0
 34 35  1  0
 34 36  1  0
 34 37  1  0
 37 38  1  0
  3 39  1  0
 39 40  1  0
 39 41  1  0
 39 42  1  0
 42 43  1  0
 42 44  1  0
 44 45  2  0
 44 46  1  0
 46 47  2  0
 47 48  1  0
 48 49  2  0
 49 50  1  0
 49 51  1  0
 51 52  1  0
 51 53  2  0
 53 54  1  0
 53 55  1  0
 55 56  1  0
 55 57  2  0
 57 58  1  0
 58 59  1  0
 58 60  2  0
 60 61  1  0
 15  4  1  0
 32 23  1  0
 60 46  1  0
 57 48  1  0
M  CHG  1   4   1
M  END
>  <UniqueID>  (40) 
154

>  <SMILES>  (40) 
O=C(NC/C(O)=[N+]1/C[C@H](O)C[C@H]1C(=O)N[C@@H](CO)c1cccc(Cl)c1)c1ccc2cc(F)ccc2n1

>  <Energy>  (40) 
62.28985114480852

>  <Genealogy>  (40) 
O=C(NCC(=O)[NH+]1C[C@H](O)C[C@H]1C(=O)N[C@@H](CO)c1cccc(Cl)c1)c1ccc2cc(F)ccc2n1 (protonated)
O=C(NCC(O)=[N+]1C[C@H](O)C[C@H]1C(=O)N[C@@H](CO)c1cccc(Cl)c1)c1ccc2cc(F)ccc2n1 (tautomer)
O=C(NC/C(O)=[N+]1/C[C@H](O)C[C@H]1C(=O)N[C@@H](CO)c1cccc(Cl)c1)c1ccc2cc(F)ccc2n1 (cis-trans isomerization)
O=C(NC/C(O)=[N+]1/C[C@H](O)C[C@H]1C(=O)N[C@@H](CO)c1cccc(Cl)c1)c1ccc2cc(F)ccc2n1 (3D coordinates assigned)
O=C(NC/C(O)=[N+]1/C[C@H](O)C[C@H]1C(=O)N[C@@H](CO)c1cccc(Cl)c1)c1ccc2cc(F)ccc2n1 (nonaromatic ring conformer: 62.28985114480852 kcal/mol)

>  <smiles>  (40) 
O=C(NCC(=O)N1C[C@H](O)C[C@H]1C(=O)N[C@@H](CO)c1cccc(Cl)c1)c1ccc2cc(F)ccc2n1

>  <score_type>  (40) 
oracle

>  <origin>  (40) 
autodockgpu

>  <m_score__min__energy>  (40) 
-8.8300000000000001

>  <m_primary>  (40) 
energy

>  <meeko>  (40) 
{"free_energy": -8.47, "intermolecular_energy": -11.76, "internal_energy": -4.35, "cluster_size": 3, "cluster_id": 2, "rank_in_cluster": 1}

>  <energy>  (40) 
-3.92

>  <cluster_rmsd>  (40) 
0.0

>  <rmsd>  (40) 
269.88

>  <cluster>  (40) 
11

$$$$
VCSRFCBMABBACK-DHMKUKBTNA-M
     RDKit          3D

 59 62  0  0  0  0  0  0  0  0999 V2000
  135.5440   76.9480  222.6100 O   0  0  0  0  0  0  0  0  0  0  0  0
  136.7790   76.7220  222.4820 C   0  0  0  0  0  0  0  0  0  0  0  0
  137.2290   75.4170  222.1080 N   0  0  0  0  0  0  0  0  0  0  0  0
  136.5450   74.2180  222.5820 C   0  0  0  0  0  0  0  0  0  0  0  0
  136.8780   73.0220  221.7350 C   0  0  0  0  0  0  0  0  0  0  0  0
  135.9810   72.5000  221.0210 O   0  0  0  0  0  0  0  0  0  0  0  0
  138.1780   72.4150  221.7910 N   0  0  0  0  0  0  0  0  0  0  0  0
  138.4070   71.0480  221.3680 C   0  0  0  0  0  0  0  0  0  0  0  0
  139.7600   70.6570  221.9570 C   0  0  2  0  0  0  0  0  0  0  0  0
  139.5650   69.8800  223.1110 O   0  0  0  0  0  0  0  0  0  0  0  0
  140.4600   71.9750  222.3160 C   0  0  0  0  0  0  0  0  0  0  0  0
  139.3680   73.0520  222.3390 C   0  0  1  0  0  0  0  0  0  0  0  0
  139.7640   74.2370  221.4980 C   0  0  0  0  0  0  0  0  0  0  0  0
  140.4160   75.1850  222.0160 O   0  0  0  0  0  0  0  0  0  0  0  0
  139.3750   74.2960  220.1230 N   0  0  0  0  0  0  0  0  0  0  0  0
  140.1370   75.0190  219.1070 C   0  0  1  0  0  0  0  0  0  0  0  0
  139.6200   76.4600  219.0040 C   0  0  0  0  0  0  0  0  0  0  0  0
  138.6830   76.7230  220.0130 O   0  0  0  0  0  0  0  0  0  0  0  0
  141.6130   74.9990  219.4440 C   0  0  0  0  0  0  0  0  0  0  0  0
  142.3490   76.1970  219.4640 C   0  0  0  0  0  0  0  0  0  0  0  0
  143.7080   76.1850  219.7910 C   0  0  0  0  0  0  0  0  0  0  0  0
  144.3440   74.9810  220.1010 C   0  0  0  0  0  0  0  0  0  0  0  0
  143.6210   73.7850  220.0960 C   0  0  0  0  0  0  0  0  0  0  0  0
  144.4180   72.2730  220.4970 Cl  0  0  0  0  0  0  0  0  0  0  0  0
  142.2600   73.7920  219.7740 C   0  0  0  0  0  0  0  0  0  0  0  0
  137.7590   77.7890  222.7430 C   0  0  0  0  0  0  0  0  0  0  0  0
  137.3510   79.0760  223.1260 C   0  0  0  0  0  0  0  0  0  0  0  0
  138.3130   80.0580  223.3790 C   0  0  0  0  0  0  0  0  0  0  0  0
  139.6730   79.7460  223.2710 C   0  0  0  0  0  0  0  0  0  0  0  0
  140.6660   80.7060  223.5220 C   0  0  0  0  0  0  0  0  0  0  0  0
  142.0170   80.3570  223.4180 C   0  0  0  0  0  0  0  0  0  0  0  0
  142.9760   81.2850  223.6600 F   0  0  0  0  0  0  0  0  0  0  0  0
  142.3820   79.0520  223.0710 C   0  0  0  0  0  0  0  0  0  0  0  0
  141.3980   78.0890  222.8210 C   0  0  0  0  0  0  0  0  0  0  0  0
  140.0450   78.4330  222.9070 C   0  0  0  0  0  0  0  0  0  0  0  0
  139.0870   77.5050  222.6480 N   0  0  0  0  0  0  0  0  0  0  0  0
  138.0950   75.3380  221.5320 H   0  0  0  0  0  0  0  0  0  0  0  0
  136.8520   74.0180  223.6192 H   0  0  0  0  0  0  0  0  0  0  0  0
  135.4607   74.3927  222.5210 H   0  0  0  0  0  0  0  0  0  0  0  0
  137.6153   70.3889  221.7539 H   0  0  0  0  0  0  0  0  0  0  0  0
  138.3978   70.9542  220.2720 H   0  0  0  0  0  0  0  0  0  0  0  0
  140.3602   70.0645  221.2508 H   0  0  0  0  0  0  0  0  0  0  0  0
  138.5830   69.7780  223.2220 H   0  0  0  0  0  0  0  0  0  0  0  0
  140.9372   71.8957  223.3039 H   0  0  0  0  0  0  0  0  0  0  0  0
  141.2471   72.2202  221.5877 H   0  0  0  0  0  0  0  0  0  0  0  0
  139.1985   73.4303  223.3579 H   0  0  0  0  0  0  0  0  0  0  0  0
  140.0037   74.5253  218.1331 H   0  0  0  0  0  0  0  0  0  0  0  0
  140.4660   77.1555  219.1066 H   0  0  0  0  0  0  0  0  0  0  0  0
  139.1338   76.5925  218.0262 H   0  0  0  0  0  0  0  0  0  0  0  0
  139.0320   76.3020  220.8430 H   0  0  0  0  0  0  0  0  0  0  0  0
  141.8529   77.1483  219.2211 H   0  0  0  0  0  0  0  0  0  0  0  0
  144.2777   77.1259  219.8042 H   0  0  0  0  0  0  0  0  0  0  0  0
  145.4155   74.9740  220.3495 H   0  0  0  0  0  0  0  0  0  0  0  0
  141.6918   72.8501  219.7785 H   0  0  0  0  0  0  0  0  0  0  0  0
  136.2810   79.3105  223.2265 H   0  0  0  0  0  0  0  0  0  0  0  0
  138.0017   81.0742  223.6625 H   0  0  0  0  0  0  0  0  0  0  0  0
  140.3823   81.7317  223.8002 H   0  0  0  0  0  0  0  0  0  0  0  0
  143.4456   78.7820  222.9944 H   0  0  0  0  0  0  0  0  0  0  0  0
  141.6885   77.0615  222.5568 H   0  0  0  0  0  0  0  0  0  0  0  0
  1  2  2  0
  2  3  1  0
  3  4  1  0
  4  5  1  0
  5  6  2  0
  5  7  1  0
  7  8  1  0
  8  9  1  0
  9 10  1  0
  9 11  1  0
 11 12  1  0
 12 13  1  0
 13 14  2  0
 13 15  1  0
 15 16  1  0
 16 17  1  0
 17 18  1  0
 16 19  1  0
 19 20  2  0
 20 21  1  0
 21 22  2  0
 22 23  1  0
 23 24  1  0
 23 25  2  0
  2 26  1  0
 26 27  2  0
 27 28  1  0
 28 29  2  0
 29 30  1  0
 30 31  2  0
 31 32  1  0
 31 33  1  0
 33 34  2  0
 34 35  1  0
 35 36  2  0
 12  7  1  0
 25 19  1  0
 36 26  1  0
 35 29  1  0
  3 37  1  0
  4 38  1  0
  4 39  1  0
  8 40  1  0
  8 41  1  0
  9 42  1  6
 10 43  1  0
 11 44  1  0
 11 45  1  0
 12 46  1  1
 16 47  1  6
 17 48  1  0
 17 49  1  0
 18 50  1  0
 20 51  1  0
 21 52  1  0
 22 53  1  0
 25 54  1  0
 27 55  1  0
 28 56  1  0
 30 57  1  0
 33 58  1  0
 34 59  1  0
M  CHG  1  15  -1
M  END
>  <UniqueID>  (41) 
155

>  <SMILES>  (41) 
O=C(NCC(=O)N1C[C@H](O)C[C@H]1C(=O)[N-][C@@H](CO)c1cccc(Cl)c1)c1ccc2cc(F)ccc2n1

>  <Energy>  (41) 
62.38473807919034

>  <Genealogy>  (41) 
O=C(NCC(=O)N1C[C@H](O)C[C@H]1C(=O)[N-][C@@H](CO)c1cccc(Cl)c1)c1ccc2cc(F)ccc2n1 (protonated)
O=C(NCC(=O)N1C[C@H](O)C[C@H]1C(=O)[N-][C@@H](CO)c1cccc(Cl)c1)c1ccc2cc(F)ccc2n1 (3D coordinates assigned)
O=C(NCC(=O)N1C[C@H](O)C[C@H]1C(=O)[N-][C@@H](CO)c1cccc(Cl)c1)c1ccc2cc(F)ccc2n1 (nonaromatic ring conformer: 62.38473807919034 kcal/mol)

>  <smiles>  (41) 
O=C(NCC(=O)N1C[C@H](O)C[C@H]1C(=O)N[C@@H](CO)c1cccc(Cl)c1)c1ccc2cc(F)ccc2n1

>  <score_type>  (41) 
oracle

>  <origin>  (41) 
autodockgpu

>  <m_score__min__energy>  (41) 
-8.4800000000000004

>  <m_primary>  (41) 
energy

>  <meeko>  (41) 
{"free_energy": -4.56, "intermolecular_energy": -7.84, "internal_energy": -6.94, "cluster_size": 1, "cluster_id": 11, "rank_in_cluster": 1}

>  <energy>  (41) 
-8.48

>  <cluster_rmsd>  (41) 
0.0

>  <rmsd>  (41) 
270.12

>  <cluster>  (41) 
1

$$$$
VCSRFCBMABBACK-DHMKUKBTNA-M
     RDKit          3D

 59 62  0  0  0  0  0  0  0  0999 V2000
  136.1060   76.8500  221.9800 O   0  0  0  0  0  0  0  0  0  0  0  0
  137.1190   76.2160  222.3860 C   0  0  0  0  0  0  0  0  0  0  0  0
  136.9660   74.9060  222.9390 N   0  0  0  0  0  0  0  0  0  0  0  0
  135.7980   74.5580  223.7420 C   0  0  0  0  0  0  0  0  0  0  0  0
  134.9470   73.5240  223.0600 C   0  0  0  0  0  0  0  0  0  0  0  0
  134.0480   72.9320  223.7140 O   0  0  0  0  0  0  0  0  0  0  0  0
  135.1980   73.1420  221.6980 N   0  0  0  0  0  0  0  0  0  0  0  0
  134.4790   73.7360  220.5880 C   0  0  0  0  0  0  0  0  0  0  0  0
  134.7120   72.8040  219.4020 C   0  0  2  0  0  0  0  0  0  0  0  0
  133.5840   71.9860  219.2180 O   0  0  0  0  0  0  0  0  0  0  0  0
  135.9330   71.9490  219.7720 C   0  0  0  0  0  0  0  0  0  0  0  0
  136.1140   72.0860  221.2890 C   0  0  1  0  0  0  0  0  0  0  0  0
  137.5320   72.4610  221.6280 C   0  0  0  0  0  0  0  0  0  0  0  0
  138.2100   73.1500  220.8190 O   0  0  0  0  0  0  0  0  0  0  0  0
  138.1150   72.0080  222.8540 N   0  0  0  0  0  0  0  0  0  0  0  0
  139.4430   71.4020  222.9310 C   0  0  1  0  0  0  0  0  0  0  0  0
  140.5120   72.4720  222.6720 C   0  0  0  0  0  0  0  0  0  0  0  0
  139.9440   73.7530  222.6820 O   0  0  0  0  0  0  0  0  0  0  0  0
  139.6460   70.7530  224.2840 C   0  0  0  0  0  0  0  0  0  0  0  0
  139.3170   69.4000  224.4730 C   0  0  0  0  0  0  0  0  0  0  0  0
  139.5190   68.7910  225.7160 C   0  0  0  0  0  0  0  0  0  0  0  0
  140.0530   69.5250  226.7770 C   0  0  0  0  0  0  0  0  0  0  0  0
  140.3950   70.8690  226.5980 C   0  0  0  0  0  0  0  0  0  0  0  0
  141.0760   71.7890  227.9300 Cl  0  0  0  0  0  0  0  0  0  0  0  0
  140.1980   71.4810  225.3560 C   0  0  0  0  0  0  0  0  0  0  0  0
  138.4540   76.8320  222.3200 C   0  0  0  0  0  0  0  0  0  0  0  0
  139.4400   76.3440  221.4470 C   0  0  0  0  0  0  0  0  0  0  0  0
  140.6910   76.9660  221.4030 C   0  0  0  0  0  0  0  0  0  0  0  0
  140.9440   78.0810  222.2090 C   0  0  0  0  0  0  0  0  0  0  0  0
  142.1870   78.7330  222.1870 C   0  0  0  0  0  0  0  0  0  0  0  0
  142.4030   79.8540  222.9960 C   0  0  0  0  0  0  0  0  0  0  0  0
  143.6050   80.4830  222.9740 F   0  0  0  0  0  0  0  0  0  0  0  0
  141.3810   80.3320  223.8230 C   0  0  0  0  0  0  0  0  0  0  0  0
  140.1390   79.6890  223.8500 C   0  0  0  0  0  0  0  0  0  0  0  0
  139.9200   78.5580  223.0560 C   0  0  0  0  0  0  0  0  0  0  0  0
  138.7200   77.9210  223.0920 N   0  0  0  0  0  0  0  0  0  0  0  0
  137.7360   74.2170  222.8000 H   0  0  0  0  0  0  0  0  0  0  0  0
  136.1359   74.1603  224.7103 H   0  0  0  0  0  0  0  0  0  0  0  0
  135.1923   75.4657  223.8805 H   0  0  0  0  0  0  0  0  0  0  0  0
  133.4055   73.8036  220.8181 H   0  0  0  0  0  0  0  0  0  0  0  0
  134.8278   74.7577  220.3773 H   0  0  0  0  0  0  0  0  0  0  0  0
  134.8807   73.3600  218.4680 H   0  0  0  0  0  0  0  0  0  0  0  0
  133.4440   71.5000  220.0720 H   0  0  0  0  0  0  0  0  0  0  0  0
  135.7563   70.8970  219.5034 H   0  0  0  0  0  0  0  0  0  0  0  0
  136.8314   72.2818  219.2316 H   0  0  0  0  0  0  0  0  0  0  0  0
  135.9050   71.1381  221.8065 H   0  0  0  0  0  0  0  0  0  0  0  0
  139.5320   70.6203  222.1622 H   0  0  0  0  0  0  0  0  0  0  0  0
  141.2806   72.4118  223.4566 H   0  0  0  0  0  0  0  0  0  0  0  0
  140.9602   72.2918  221.6837 H   0  0  0  0  0  0  0  0  0  0  0  0
  138.9640   73.6290  222.7900 H   0  0  0  0  0  0  0  0  0  0  0  0
  138.8986   68.8169  223.6394 H   0  0  0  0  0  0  0  0  0  0  0  0
  139.2567   67.7322  225.8578 H   0  0  0  0  0  0  0  0  0  0  0  0
  140.2049   69.0453  227.7551 H   0  0  0  0  0  0  0  0  0  0  0  0
  140.4755   72.5361  225.2156 H   0  0  0  0  0  0  0  0  0  0  0  0
  139.2292   75.4781  220.8022 H   0  0  0  0  0  0  0  0  0  0  0  0
  141.4753   76.5793  220.7356 H   0  0  0  0  0  0  0  0  0  0  0  0
  142.9910   78.3627  221.5339 H   0  0  0  0  0  0  0  0  0  0  0  0
  141.5546   81.2162  224.4540 H   0  0  0  0  0  0  0  0  0  0  0  0
  139.3348   80.0724  224.4952 H   0  0  0  0  0  0  0  0  0  0  0  0
  1  2  2  0
  2  3  1  0
  3  4  1  0
  4  5  1  0
  5  6  2  0
  5  7  1  0
  7  8  1  0
  8  9  1  0
  9 10  1  0
  9 11  1  0
 11 12  1  0
 12 13  1  0
 13 14  2  0
 13 15  1  0
 15 16  1  0
 16 17  1  0
 17 18  1  0
 16 19  1  0
 19 20  2  0
 20 21  1  0
 21 22  2  0
 22 23  1  0
 23 24  1  0
 23 25  2  0
  2 26  1  0
 26 27  2  0
 27 28  1  0
 28 29  2  0
 29 30  1  0
 30 31  2  0
 31 32  1  0
 31 33  1  0
 33 34  2  0
 34 35  1  0
 35 36  2  0
 12  7  1  0
 25 19  1  0
 36 26  1  0
 35 29  1  0
  3 37  1  0
  4 38  1  0
  4 39  1  0
  8 40  1  0
  8 41  1  0
  9 42  1  6
 10 43  1  0
 11 44  1  0
 11 45  1  0
 12 46  1  1
 16 47  1  6
 17 48  1  0
 17 49  1  0
 18 50  1  0
 20 51  1  0
 21 52  1  0
 22 53  1  0
 25 54  1  0
 27 55  1  0
 28 56  1  0
 30 57  1  0
 33 58  1  0
 34 59  1  0
M  CHG  1  15  -1
M  END
>  <UniqueID>  (42) 
155

>  <SMILES>  (42) 
O=C(NCC(=O)N1C[C@H](O)C[C@H]1C(=O)[N-][C@@H](CO)c1cccc(Cl)c1)c1ccc2cc(F)ccc2n1

>  <Energy>  (42) 
62.38473807919034

>  <Genealogy>  (42) 
O=C(NCC(=O)N1C[C@H](O)C[C@H]1C(=O)[N-][C@@H](CO)c1cccc(Cl)c1)c1ccc2cc(F)ccc2n1 (protonated)
O=C(NCC(=O)N1C[C@H](O)C[C@H]1C(=O)[N-][C@@H](CO)c1cccc(Cl)c1)c1ccc2cc(F)ccc2n1 (3D coordinates assigned)
O=C(NCC(=O)N1C[C@H](O)C[C@H]1C(=O)[N-][C@@H](CO)c1cccc(Cl)c1)c1ccc2cc(F)ccc2n1 (nonaromatic ring conformer: 62.38473807919034 kcal/mol)

>  <smiles>  (42) 
O=C(NCC(=O)N1C[C@H](O)C[C@H]1C(=O)N[C@@H](CO)c1cccc(Cl)c1)c1ccc2cc(F)ccc2n1

>  <score_type>  (42) 
oracle

>  <origin>  (42) 
autodockgpu

>  <m_score__min__energy>  (42) 
-8.4800000000000004

>  <m_primary>  (42) 
energy

>  <meeko>  (42) 
{"free_energy": -6.93, "intermolecular_energy": -10.21, "internal_energy": -5.36, "cluster_size": 4, "cluster_id": 2, "rank_in_cluster": 3}

>  <energy>  (42) 
-7.96

>  <cluster_rmsd>  (42) 
1.95

>  <rmsd>  (42) 
269.83

>  <cluster>  (42) 
1

$$$$
VCSRFCBMABBACK-DHMKUKBTNA-M
     RDKit          3D

 59 62  0  0  0  0  0  0  0  0999 V2000
  136.5510   70.1580  222.0420 O   0  0  0  0  0  0  0  0  0  0  0  0
  137.4540   70.8300  222.6120 C   0  0  0  0  0  0  0  0  0  0  0  0
  137.8020   72.1240  222.1120 N   0  0  0  0  0  0  0  0  0  0  0  0
  137.7900   72.4070  220.6800 C   0  0  0  0  0  0  0  0  0  0  0  0
  139.0370   71.9050  220.0090 C   0  0  0  0  0  0  0  0  0  0  0  0
  139.1390   70.6810  219.7290 O   0  0  0  0  0  0  0  0  0  0  0  0
  140.1470   72.7820  219.7570 N   0  0  0  0  0  0  0  0  0  0  0  0
  140.2980   73.4890  218.5010 C   0  0  0  0  0  0  0  0  0  0  0  0
  141.7510   73.9550  218.4640 C   0  0  2  0  0  0  0  0  0  0  0  0
  142.5010   73.0930  217.6480 O   0  0  0  0  0  0  0  0  0  0  0  0
  142.2520   73.8850  219.9140 C   0  0  0  0  0  0  0  0  0  0  0  0
  141.2600   72.9940  220.6720 C   0  0  1  0  0  0  0  0  0  0  0  0
  140.7840   73.6710  221.9300 C   0  0  0  0  0  0  0  0  0  0  0  0
  140.2640   72.9880  222.8530 O   0  0  0  0  0  0  0  0  0  0  0  0
  140.8970   75.0920  222.0610 N   0  0  0  0  0  0  0  0  0  0  0  0
  140.1140   76.0330  221.2630 C   0  0  1  0  0  0  0  0  0  0  0  0
  138.7090   76.1720  221.8630 C   0  0  0  0  0  0  0  0  0  0  0  0
  138.2440   74.9340  222.3280 O   0  0  0  0  0  0  0  0  0  0  0  0
  140.8100   77.3760  221.2010 C   0  0  0  0  0  0  0  0  0  0  0  0
  141.1070   77.9610  219.9580 C   0  0  0  0  0  0  0  0  0  0  0  0
  141.7340   79.2090  219.8960 C   0  0  0  0  0  0  0  0  0  0  0  0
  142.0680   79.8840  221.0720 C   0  0  0  0  0  0  0  0  0  0  0  0
  141.7680   79.3180  222.3150 C   0  0  0  0  0  0  0  0  0  0  0  0
  142.1780   80.1730  223.7930 Cl  0  0  0  0  0  0  0  0  0  0  0  0
  141.1370   78.0720  222.3810 C   0  0  0  0  0  0  0  0  0  0  0  0
  138.1700   70.2760  223.7730 C   0  0  0  0  0  0  0  0  0  0  0  0
  138.1430   68.9020  224.0590 C   0  0  0  0  0  0  0  0  0  0  0  0
  138.8480   68.4120  225.1620 C   0  0  0  0  0  0  0  0  0  0  0  0
  139.5920   69.2900  225.9580 C   0  0  0  0  0  0  0  0  0  0  0  0
  140.3160   68.8330  227.0710 C   0  0  0  0  0  0  0  0  0  0  0  0
  141.0610   69.7350  227.8380 C   0  0  0  0  0  0  0  0  0  0  0  0
  141.7590   69.2930  228.9140 F   0  0  0  0  0  0  0  0  0  0  0  0
  141.0930   71.0910  227.4960 C   0  0  0  0  0  0  0  0  0  0  0  0
  140.3750   71.5540  226.3880 C   0  0  0  0  0  0  0  0  0  0  0  0
  139.6150   70.6620  225.6250 C   0  0  0  0  0  0  0  0  0  0  0  0
  138.9040   71.1110  224.5570 N   0  0  0  0  0  0  0  0  0  0  0  0
  138.1190   72.8490  222.7910 H   0  0  0  0  0  0  0  0  0  0  0  0
  136.9171   71.9154  220.2258 H   0  0  0  0  0  0  0  0  0  0  0  0
  137.7401   73.4974  220.5441 H   0  0  0  0  0  0  0  0  0  0  0  0
  140.0884   72.8179  217.6551 H   0  0  0  0  0  0  0  0  0  0  0  0
  139.5977   74.3337  218.4228 H   0  0  0  0  0  0  0  0  0  0  0  0
  141.8475   74.9719  218.0558 H   0  0  0  0  0  0  0  0  0  0  0  0
  141.9960   72.2400  217.5960 H   0  0  0  0  0  0  0  0  0  0  0  0
  143.2601   73.4461  219.9475 H   0  0  0  0  0  0  0  0  0  0  0  0
  142.3126   74.8869  220.3639 H   0  0  0  0  0  0  0  0  0  0  0  0
  141.7247   72.0456  220.9796 H   0  0  0  0  0  0  0  0  0  0  0  0
  140.0226   75.6504  220.2357 H   0  0  0  0  0  0  0  0  0  0  0  0
  138.7432   76.8830  222.7017 H   0  0  0  0  0  0  0  0  0  0  0  0
  138.0253   76.5358  221.0819 H   0  0  0  0  0  0  0  0  0  0  0  0
  138.9710   74.5470  222.8830 H   0  0  0  0  0  0  0  0  0  0  0  0
  140.8446   77.4340  219.0288 H   0  0  0  0  0  0  0  0  0  0  0  0
  141.9646   79.6599  218.9195 H   0  0  0  0  0  0  0  0  0  0  0  0
  142.5679   80.8625  221.0205 H   0  0  0  0  0  0  0  0  0  0  0  0
  140.8946   77.6329  223.3600 H   0  0  0  0  0  0  0  0  0  0  0  0
  137.5703   68.2149  223.4188 H   0  0  0  0  0  0  0  0  0  0  0  0
  138.8181   67.3393  225.4036 H   0  0  0  0  0  0  0  0  0  0  0  0
  140.2973   67.7665  227.3396 H   0  0  0  0  0  0  0  0  0  0  0  0
  141.6842   71.7952  228.0998 H   0  0  0  0  0  0  0  0  0  0  0  0
  140.4083   72.6196  226.1171 H   0  0  0  0  0  0  0  0  0  0  0  0
  1  2  2  0
  2  3  1  0
  3  4  1  0
  4  5  1  0
  5  6  2  0
  5  7  1  0
  7  8  1  0
  8  9  1  0
  9 10  1  0
  9 11  1  0
 11 12  1  0
 12 13  1  0
 13 14  2  0
 13 15  1  0
 15 16  1  0
 16 17  1  0
 17 18  1  0
 16 19  1  0
 19 20  2  0
 20 21  1  0
 21 22  2  0
 22 23  1  0
 23 24  1  0
 23 25  2  0
  2 26  1  0
 26 27  2  0
 27 28  1  0
 28 29  2  0
 29 30  1  0
 30 31  2  0
 31 32  1  0
 31 33  1  0
 33 34  2  0
 34 35  1  0
 35 36  2  0
 12  7  1  0
 25 19  1  0
 36 26  1  0
 35 29  1  0
  3 37  1  0
  4 38  1  0
  4 39  1  0
  8 40  1  0
  8 41  1  0
  9 42  1  6
 10 43  1  0
 11 44  1  0
 11 45  1  0
 12 46  1  1
 16 47  1  6
 17 48  1  0
 17 49  1  0
 18 50  1  0
 20 51  1  0
 21 52  1  0
 22 53  1  0
 25 54  1  0
 27 55  1  0
 28 56  1  0
 30 57  1  0
 33 58  1  0
 34 59  1  0
M  CHG  1  15  -1
M  END
>  <UniqueID>  (43) 
155

>  <SMILES>  (43) 
O=C(NCC(=O)N1C[C@H](O)C[C@H]1C(=O)[N-][C@@H](CO)c1cccc(Cl)c1)c1ccc2cc(F)ccc2n1

>  <Energy>  (43) 
62.38473807919034

>  <Genealogy>  (43) 
O=C(NCC(=O)N1C[C@H](O)C[C@H]1C(=O)[N-][C@@H](CO)c1cccc(Cl)c1)c1ccc2cc(F)ccc2n1 (protonated)
O=C(NCC(=O)N1C[C@H](O)C[C@H]1C(=O)[N-][C@@H](CO)c1cccc(Cl)c1)c1ccc2cc(F)ccc2n1 (3D coordinates assigned)
O=C(NCC(=O)N1C[C@H](O)C[C@H]1C(=O)[N-][C@@H](CO)c1cccc(Cl)c1)c1ccc2cc(F)ccc2n1 (nonaromatic ring conformer: 62.38473807919034 kcal/mol)

>  <smiles>  (43) 
O=C(NCC(=O)N1C[C@H](O)C[C@H]1C(=O)N[C@@H](CO)c1cccc(Cl)c1)c1ccc2cc(F)ccc2n1

>  <score_type>  (43) 
oracle

>  <origin>  (43) 
autodockgpu

>  <m_score__min__energy>  (43) 
-8.4800000000000004

>  <m_primary>  (43) 
energy

>  <meeko>  (43) 
{"free_energy": -6.96, "intermolecular_energy": -10.24, "internal_energy": -5.49, "cluster_size": 4, "cluster_id": 1, "rank_in_cluster": 4}

>  <energy>  (43) 
-7.21

>  <cluster_rmsd>  (43) 
1.98

>  <rmsd>  (43) 
269.24

>  <cluster>  (43) 
1

$$$$
VCSRFCBMABBACK-DHMKUKBTNA-M
     RDKit          3D

 59 62  0  0  0  0  0  0  0  0999 V2000
  136.8240   75.3250  220.3900 O   0  0  0  0  0  0  0  0  0  0  0  0
  137.4860   75.1500  221.4510 C   0  0  0  0  0  0  0  0  0  0  0  0
  137.1080   74.1150  222.3630 N   0  0  0  0  0  0  0  0  0  0  0  0
  135.7060   73.7780  222.5830 C   0  0  0  0  0  0  0  0  0  0  0  0
  135.4750   73.2580  223.9740 C   0  0  0  0  0  0  0  0  0  0  0  0
  135.5360   74.0520  224.9500 O   0  0  0  0  0  0  0  0  0  0  0  0
  135.2690   71.8570  224.2160 N   0  0  0  0  0  0  0  0  0  0  0  0
  133.9480   71.2990  224.4240 C   0  0  0  0  0  0  0  0  0  0  0  0
  134.1760   69.9240  225.0450 C   0  0  2  0  0  0  0  0  0  0  0  0
  133.9650   69.9930  226.4320 O   0  0  0  0  0  0  0  0  0  0  0  0
  135.6390   69.5650  224.7470 C   0  0  0  0  0  0  0  0  0  0  0  0
  136.3360   70.8750  224.3580 C   0  0  1  0  0  0  0  0  0  0  0  0
  137.0840   70.7200  223.0610 C   0  0  0  0  0  0  0  0  0  0  0  0
  136.6910   69.8820  222.2050 O   0  0  0  0  0  0  0  0  0  0  0  0
  138.2560   71.5030  222.8170 N   0  0  0  0  0  0  0  0  0  0  0  0
  139.6120   70.9920  223.0040 C   0  0  1  0  0  0  0  0  0  0  0  0
  140.6280   72.1010  222.6970 C   0  0  0  0  0  0  0  0  0  0  0  0
  140.0030   73.3560  222.6870 O   0  0  0  0  0  0  0  0  0  0  0  0
  139.7890   70.4750  224.4160 C   0  0  0  0  0  0  0  0  0  0  0  0
  139.4880   69.1360  224.7200 C   0  0  0  0  0  0  0  0  0  0  0  0
  139.6660   68.6500  226.0200 C   0  0  0  0  0  0  0  0  0  0  0  0
  140.1470   69.4930  227.0240 C   0  0  0  0  0  0  0  0  0  0  0  0
  140.4610   70.8240  226.7310 C   0  0  0  0  0  0  0  0  0  0  0  0
  141.0760   71.8800  227.9910 Cl  0  0  0  0  0  0  0  0  0  0  0  0
  140.2880   71.3130  225.4330 C   0  0  0  0  0  0  0  0  0  0  0  0
  138.6270   76.0240  221.7650 C   0  0  0  0  0  0  0  0  0  0  0  0
  139.9250   75.7170  221.3260 C   0  0  0  0  0  0  0  0  0  0  0  0
  140.9800   76.5800  221.6330 C   0  0  0  0  0  0  0  0  0  0  0  0
  140.7330   77.7540  222.3540 C   0  0  0  0  0  0  0  0  0  0  0  0
  141.7670   78.6470  222.6760 C   0  0  0  0  0  0  0  0  0  0  0  0
  141.4840   79.8180  223.3860 C   0  0  0  0  0  0  0  0  0  0  0  0
  142.4840   80.6800  223.6980 F   0  0  0  0  0  0  0  0  0  0  0  0
  140.1700   80.1060  223.7720 C   0  0  0  0  0  0  0  0  0  0  0  0
  139.1330   79.2230  223.4540 C   0  0  0  0  0  0  0  0  0  0  0  0
  139.4100   78.0420  222.7580 C   0  0  0  0  0  0  0  0  0  0  0  0
  138.4080   77.1730  222.4610 N   0  0  0  0  0  0  0  0  0  0  0  0
  137.8580   73.6410  222.9120 H   0  0  0  0  0  0  0  0  0  0  0  0
  135.0940   74.6796  222.4325 H   0  0  0  0  0  0  0  0  0  0  0  0
  135.4250   72.9896  221.8693 H   0  0  0  0  0  0  0  0  0  0  0  0
  133.3651   71.9361  225.1054 H   0  0  0  0  0  0  0  0  0  0  0  0
  133.3820   71.2317  223.4832 H   0  0  0  0  0  0  0  0  0  0  0  0
  133.4876   69.1688  224.6377 H   0  0  0  0  0  0  0  0  0  0  0  0
  133.7290   70.9350  226.6370 H   0  0  0  0  0  0  0  0  0  0  0  0
  136.1139   69.1320  225.6397 H   0  0  0  0  0  0  0  0  0  0  0  0
  135.7105   68.8205  223.9404 H   0  0  0  0  0  0  0  0  0  0  0  0
  137.0752   71.1783  225.1141 H   0  0  0  0  0  0  0  0  0  0  0  0
  139.7830   70.1548  222.3113 H   0  0  0  0  0  0  0  0  0  0  0  0
  141.4133   72.0947  223.4672 H   0  0  0  0  0  0  0  0  0  0  0  0
  141.0654   71.9155  221.7049 H   0  0  0  0  0  0  0  0  0  0  0  0
  139.1490   73.2530  223.1840 H   0  0  0  0  0  0  0  0  0  0  0  0
  139.1108   68.4672  223.9323 H   0  0  0  0  0  0  0  0  0  0  0  0
  139.4265   67.6017  226.2516 H   0  0  0  0  0  0  0  0  0  0  0  0
  140.2791   69.1097  228.0466 H   0  0  0  0  0  0  0  0  0  0  0  0
  140.5429   72.3583  225.2041 H   0  0  0  0  0  0  0  0  0  0  0  0
  140.1101   74.8023  220.7437 H   0  0  0  0  0  0  0  0  0  0  0  0
  142.0027   76.3373  221.3087 H   0  0  0  0  0  0  0  0  0  0  0  0
  142.8001   78.4256  222.3698 H   0  0  0  0  0  0  0  0  0  0  0  0
  139.9520   81.0301  224.3275 H   0  0  0  0  0  0  0  0  0  0  0  0
  138.1001   79.4573  223.7511 H   0  0  0  0  0  0  0  0  0  0  0  0
  1  2  2  0
  2  3  1  0
  3  4  1  0
  4  5  1  0
  5  6  2  0
  5  7  1  0
  7  8  1  0
  8  9  1  0
  9 10  1  0
  9 11  1  0
 11 12  1  0
 12 13  1  0
 13 14  2  0
 13 15  1  0
 15 16  1  0
 16 17  1  0
 17 18  1  0
 16 19  1  0
 19 20  2  0
 20 21  1  0
 21 22  2  0
 22 23  1  0
 23 24  1  0
 23 25  2  0
  2 26  1  0
 26 27  2  0
 27 28  1  0
 28 29  2  0
 29 30  1  0
 30 31  2  0
 31 32  1  0
 31 33  1  0
 33 34  2  0
 34 35  1  0
 35 36  2  0
 12  7  1  0
 25 19  1  0
 36 26  1  0
 35 29  1  0
  3 37  1  0
  4 38  1  0
  4 39  1  0
  8 40  1  0
  8 41  1  0
  9 42  1  6
 10 43  1  0
 11 44  1  0
 11 45  1  0
 12 46  1  1
 16 47  1  6
 17 48  1  0
 17 49  1  0
 18 50  1  0
 20 51  1  0
 21 52  1  0
 22 53  1  0
 25 54  1  0
 27 55  1  0
 28 56  1  0
 30 57  1  0
 33 58  1  0
 34 59  1  0
M  CHG  1  15  -1
M  END
>  <UniqueID>  (44) 
155

>  <SMILES>  (44) 
O=C(NCC(=O)N1C[C@H](O)C[C@H]1C(=O)[N-][C@@H](CO)c1cccc(Cl)c1)c1ccc2cc(F)ccc2n1

>  <Energy>  (44) 
62.38473807919034

>  <Genealogy>  (44) 
O=C(NCC(=O)N1C[C@H](O)C[C@H]1C(=O)[N-][C@@H](CO)c1cccc(Cl)c1)c1ccc2cc(F)ccc2n1 (protonated)
O=C(NCC(=O)N1C[C@H](O)C[C@H]1C(=O)[N-][C@@H](CO)c1cccc(Cl)c1)c1ccc2cc(F)ccc2n1 (3D coordinates assigned)
O=C(NCC(=O)N1C[C@H](O)C[C@H]1C(=O)[N-][C@@H](CO)c1cccc(Cl)c1)c1ccc2cc(F)ccc2n1 (nonaromatic ring conformer: 62.38473807919034 kcal/mol)

>  <smiles>  (44) 
O=C(NCC(=O)N1C[C@H](O)C[C@H]1C(=O)N[C@@H](CO)c1cccc(Cl)c1)c1ccc2cc(F)ccc2n1

>  <score_type>  (44) 
oracle

>  <origin>  (44) 
autodockgpu

>  <m_score__min__energy>  (44) 
-8.4800000000000004

>  <m_primary>  (44) 
energy

>  <meeko>  (44) 
{"free_energy": -8.19, "intermolecular_energy": -11.47, "internal_energy": -4.6, "cluster_size": 4, "cluster_id": 2, "rank_in_cluster": 2}

>  <energy>  (44) 
-6.96

>  <cluster_rmsd>  (44) 
2.0

>  <rmsd>  (44) 
269.15

>  <cluster>  (44) 
1

$$$$
VCSRFCBMABBACK-DHMKUKBTNA-M
     RDKit          3D

 59 62  0  0  0  0  0  0  0  0999 V2000
  138.5150   70.7320  221.3510 O   0  0  0  0  0  0  0  0  0  0  0  0
  139.4330   70.9890  222.1780 C   0  0  0  0  0  0  0  0  0  0  0  0
  140.3990   72.0000  221.8780 N   0  0  0  0  0  0  0  0  0  0  0  0
  140.8780   72.2060  220.5140 C   0  0  0  0  0  0  0  0  0  0  0  0
  142.0670   73.1230  220.4800 C   0  0  0  0  0  0  0  0  0  0  0  0
  143.1840   72.7040  220.8850 O   0  0  0  0  0  0  0  0  0  0  0  0
  141.9340   74.4930  220.0690 N   0  0  0  0  0  0  0  0  0  0  0  0
  142.2040   74.9180  218.7100 C   0  0  0  0  0  0  0  0  0  0  0  0
  142.3590   76.4350  218.7780 C   0  0  2  0  0  0  0  0  0  0  0  0
  143.7230   76.7710  218.7650 O   0  0  0  0  0  0  0  0  0  0  0  0
  141.7180   76.8650  220.1060 C   0  0  0  0  0  0  0  0  0  0  0  0
  141.6010   75.5960  220.9600 C   0  0  1  0  0  0  0  0  0  0  0  0
  140.2030   75.4370  221.4950 C   0  0  0  0  0  0  0  0  0  0  0  0
  139.9500   74.5280  222.3310 O   0  0  0  0  0  0  0  0  0  0  0  0
  139.1600   76.2990  221.0300 N   0  0  0  0  0  0  0  0  0  0  0  0
  138.6850   77.4570  221.7840 C   0  0  1  0  0  0  0  0  0  0  0  0
  137.9580   76.9850  223.0500 C   0  0  0  0  0  0  0  0  0  0  0  0
  137.5480   75.6510  222.9170 O   0  0  0  0  0  0  0  0  0  0  0  0
  139.8430   78.3670  222.1350 C   0  0  0  0  0  0  0  0  0  0  0  0
  140.7840   77.9710  223.1010 C   0  0  0  0  0  0  0  0  0  0  0  0
  141.8640   78.8010  223.4170 C   0  0  0  0  0  0  0  0  0  0  0  0
  142.0160   80.0300  222.7700 C   0  0  0  0  0  0  0  0  0  0  0  0
  141.0930   80.4300  221.7990 C   0  0  0  0  0  0  0  0  0  0  0  0
  141.2910   81.9690  220.9780 Cl  0  0  0  0  0  0  0  0  0  0  0  0
  140.0140   79.6020  221.4770 C   0  0  0  0  0  0  0  0  0  0  0  0
  139.5290   70.2340  223.4380 C   0  0  0  0  0  0  0  0  0  0  0  0
  139.0550   68.9170  223.5370 C   0  0  0  0  0  0  0  0  0  0  0  0
  139.1780   68.2280  224.7460 C   0  0  0  0  0  0  0  0  0  0  0  0
  139.7920   68.8460  225.8410 C   0  0  0  0  0  0  0  0  0  0  0  0
  139.9370   68.1830  227.0700 C   0  0  0  0  0  0  0  0  0  0  0  0
  140.5680   68.8250  228.1410 C   0  0  0  0  0  0  0  0  0  0  0  0
  140.7070   68.1840  229.3280 F   0  0  0  0  0  0  0  0  0  0  0  0
  141.0620   70.1260  227.9890 C   0  0  0  0  0  0  0  0  0  0  0  0
  140.9230   70.7930  226.7670 C   0  0  0  0  0  0  0  0  0  0  0  0
  140.2790   70.1640  225.6960 C   0  0  0  0  0  0  0  0  0  0  0  0
  140.1270   70.8150  224.5130 N   0  0  0  0  0  0  0  0  0  0  0  0
  140.7980   72.5540  222.6670 H   0  0  0  0  0  0  0  0  0  0  0  0
  141.1639   71.2342  220.0851 H   0  0  0  0  0  0  0  0  0  0  0  0
  140.0686   72.6691  219.9306 H   0  0  0  0  0  0  0  0  0  0  0  0
  143.1296   74.4536  218.3391 H   0  0  0  0  0  0  0  0  0  0  0  0
  141.3979   74.6214  218.0228 H   0  0  0  0  0  0  0  0  0  0  0  0
  141.8820   76.9358  217.9226 H   0  0  0  0  0  0  0  0  0  0  0  0
  143.8400   77.5090  219.4190 H   0  0  0  0  0  0  0  0  0  0  0  0
  142.3526   77.6073  220.6122 H   0  0  0  0  0  0  0  0  0  0  0  0
  140.7339   77.3285  219.9427 H   0  0  0  0  0  0  0  0  0  0  0  0
  142.2702   75.6343  221.8322 H   0  0  0  0  0  0  0  0  0  0  0  0
  137.9789   78.0290  221.1641 H   0  0  0  0  0  0  0  0  0  0  0  0
  138.6385   77.0697  223.9101 H   0  0  0  0  0  0  0  0  0  0  0  0
  137.0693   77.6148  223.2034 H   0  0  0  0  0  0  0  0  0  0  0  0
  138.3640   75.1210  222.7150 H   0  0  0  0  0  0  0  0  0  0  0  0
  140.6702   77.0031  223.6111 H   0  0  0  0  0  0  0  0  0  0  0  0
  142.5950   78.4859  224.1761 H   0  0  0  0  0  0  0  0  0  0  0  0
  142.8631   80.6838  223.0249 H   0  0  0  0  0  0  0  0  0  0  0  0
  139.2946   79.9156  220.7062 H   0  0  0  0  0  0  0  0  0  0  0  0
  138.5892   68.4299  222.6676 H   0  0  0  0  0  0  0  0  0  0  0  0
  138.7929   67.2016  224.8370 H   0  0  0  0  0  0  0  0  0  0  0  0
  139.5545   67.1588  227.1909 H   0  0  0  0  0  0  0  0  0  0  0  0
  141.5609   70.6253  228.8327 H   0  0  0  0  0  0  0  0  0  0  0  0
  141.3201   71.8119  226.6483 H   0  0  0  0  0  0  0  0  0  0  0  0
  1  2  2  0
  2  3  1  0
  3  4  1  0
  4  5  1  0
  5  6  2  0
  5  7  1  0
  7  8  1  0
  8  9  1  0
  9 10  1  0
  9 11  1  0
 11 12  1  0
 12 13  1  0
 13 14  2  0
 13 15  1  0
 15 16  1  0
 16 17  1  0
 17 18  1  0
 16 19  1  0
 19 20  2  0
 20 21  1  0
 21 22  2  0
 22 23  1  0
 23 24  1  0
 23 25  2  0
  2 26  1  0
 26 27  2  0
 27 28  1  0
 28 29  2  0
 29 30  1  0
 30 31  2  0
 31 32  1  0
 31 33  1  0
 33 34  2  0
 34 35  1  0
 35 36  2  0
 12  7  1  0
 25 19  1  0
 36 26  1  0
 35 29  1  0
  3 37  1  0
  4 38  1  0
  4 39  1  0
  8 40  1  0
  8 41  1  0
  9 42  1  6
 10 43  1  0
 11 44  1  0
 11 45  1  0
 12 46  1  1
 16 47  1  6
 17 48  1  0
 17 49  1  0
 18 50  1  0
 20 51  1  0
 21 52  1  0
 22 53  1  0
 25 54  1  0
 27 55  1  0
 28 56  1  0
 30 57  1  0
 33 58  1  0
 34 59  1  0
M  CHG  1  15  -1
M  END
>  <UniqueID>  (45) 
155

>  <SMILES>  (45) 
O=C(NCC(=O)N1C[C@H](O)C[C@H]1C(=O)[N-][C@@H](CO)c1cccc(Cl)c1)c1ccc2cc(F)ccc2n1

>  <Energy>  (45) 
62.38473807919034

>  <Genealogy>  (45) 
O=C(NCC(=O)N1C[C@H](O)C[C@H]1C(=O)[N-][C@@H](CO)c1cccc(Cl)c1)c1ccc2cc(F)ccc2n1 (protonated)
O=C(NCC(=O)N1C[C@H](O)C[C@H]1C(=O)[N-][C@@H](CO)c1cccc(Cl)c1)c1ccc2cc(F)ccc2n1 (3D coordinates assigned)
O=C(NCC(=O)N1C[C@H](O)C[C@H]1C(=O)[N-][C@@H](CO)c1cccc(Cl)c1)c1ccc2cc(F)ccc2n1 (nonaromatic ring conformer: 62.38473807919034 kcal/mol)

>  <smiles>  (45) 
O=C(NCC(=O)N1C[C@H](O)C[C@H]1C(=O)N[C@@H](CO)c1cccc(Cl)c1)c1ccc2cc(F)ccc2n1

>  <score_type>  (45) 
oracle

>  <origin>  (45) 
autodockgpu

>  <m_score__min__energy>  (45) 
-8.4800000000000004

>  <m_primary>  (45) 
energy

>  <meeko>  (45) 
{"free_energy": -7.96, "intermolecular_energy": -11.24, "internal_energy": -4.25, "cluster_size": 4, "cluster_id": 1, "rank_in_cluster": 2}

>  <energy>  (45) 
-8.26

>  <cluster_rmsd>  (45) 
0.0

>  <rmsd>  (45) 
269.32

>  <cluster>  (45) 
2

$$$$
VCSRFCBMABBACK-DHMKUKBTNA-M
     RDKit          3D

 59 62  0  0  0  0  0  0  0  0999 V2000
  140.9850   71.6470  221.0070 O   0  0  0  0  0  0  0  0  0  0  0  0
  140.5330   72.2570  222.0150 C   0  0  0  0  0  0  0  0  0  0  0  0
  140.4030   73.6810  221.9860 N   0  0  0  0  0  0  0  0  0  0  0  0
  141.3780   74.5130  221.2890 C   0  0  0  0  0  0  0  0  0  0  0  0
  140.7310   75.7210  220.6730 C   0  0  0  0  0  0  0  0  0  0  0  0
  140.2490   75.6420  219.5120 O   0  0  0  0  0  0  0  0  0  0  0  0
  140.7270   76.9870  221.3530 N   0  0  0  0  0  0  0  0  0  0  0  0
  141.3530   78.1650  220.7880 C   0  0  0  0  0  0  0  0  0  0  0  0
  141.5040   79.1470  221.9470 C   0  0  2  0  0  0  0  0  0  0  0  0
  142.8260   79.1200  222.4180 O   0  0  0  0  0  0  0  0  0  0  0  0
  140.5400   78.6600  223.0390 C   0  0  0  0  0  0  0  0  0  0  0  0
  140.1860   77.2090  222.6870 C   0  0  1  0  0  0  0  0  0  0  0  0
  138.6930   77.0070  222.6880 C   0  0  0  0  0  0  0  0  0  0  0  0
  137.9240   78.0060  222.6690 O   0  0  0  0  0  0  0  0  0  0  0  0
  138.1540   75.6830  222.7410 N   0  0  0  0  0  0  0  0  0  0  0  0
  136.8050   75.3510  222.2890 C   0  0  1  0  0  0  0  0  0  0  0  0
  136.7980   73.9430  221.6780 C   0  0  0  0  0  0  0  0  0  0  0  0
  137.7170   73.1140  222.3350 O   0  0  0  0  0  0  0  0  0  0  0  0
  135.8270   75.4430  223.4420 C   0  0  0  0  0  0  0  0  0  0  0  0
  135.3030   76.6900  223.8240 C   0  0  0  0  0  0  0  0  0  0  0  0
  134.3870   76.7780  224.8780 C   0  0  0  0  0  0  0  0  0  0  0  0
  133.9850   75.6250  225.5550 C   0  0  0  0  0  0  0  0  0  0  0  0
  134.4900   74.3780  225.1760 C   0  0  0  0  0  0  0  0  0  0  0  0
  133.9760   72.9270  226.0200 Cl  0  0  0  0  0  0  0  0  0  0  0  0
  135.4030   74.2840  224.1210 C   0  0  0  0  0  0  0  0  0  0  0  0
  140.1660   71.5110  223.2300 C   0  0  0  0  0  0  0  0  0  0  0  0
  139.3270   70.3860  223.1700 C   0  0  0  0  0  0  0  0  0  0  0  0
  139.0140   69.6970  224.3440 C   0  0  0  0  0  0  0  0  0  0  0  0
  139.5540   70.1170  225.5650 C   0  0  0  0  0  0  0  0  0  0  0  0
  139.2640   69.4450  226.7630 C   0  0  0  0  0  0  0  0  0  0  0  0
  139.8310   69.8830  227.9650 C   0  0  0  0  0  0  0  0  0  0  0  0
  139.5500   69.2340  229.1220 F   0  0  0  0  0  0  0  0  0  0  0  0
  140.6930   70.9850  227.9750 C   0  0  0  0  0  0  0  0  0  0  0  0
  140.9880   71.6590  226.7860 C   0  0  0  0  0  0  0  0  0  0  0  0
  140.4120   71.2380  225.5820 C   0  0  0  0  0  0  0  0  0  0  0  0
  140.6840   71.9000  224.4270 N   0  0  0  0  0  0  0  0  0  0  0  0
  139.6240   74.1180  222.5240 H   0  0  0  0  0  0  0  0  0  0  0  0
  142.1432   74.8442  222.0065 H   0  0  0  0  0  0  0  0  0  0  0  0
  141.8291   73.9148  220.4836 H   0  0  0  0  0  0  0  0  0  0  0  0
  142.3379   77.9123  220.3683 H   0  0  0  0  0  0  0  0  0  0  0  0
  140.7538   78.5909  219.9697 H   0  0  0  0  0  0  0  0  0  0  0  0
  141.2770   80.1798  221.6441 H   0  0  0  0  0  0  0  0  0  0  0  0
  143.3100   78.4490  221.8680 H   0  0  0  0  0  0  0  0  0  0  0  0
  141.0270   78.7047  224.0243 H   0  0  0  0  0  0  0  0  0  0  0  0
  139.6397   79.2903  223.0869 H   0  0  0  0  0  0  0  0  0  0  0  0
  140.6023   76.5034  223.4211 H   0  0  0  0  0  0  0  0  0  0  0  0
  136.4922   76.0716  221.5190 H   0  0  0  0  0  0  0  0  0  0  0  0
  135.7903   73.5126  221.7741 H   0  0  0  0  0  0  0  0  0  0  0  0
  137.0821   74.0159  220.6178 H   0  0  0  0  0  0  0  0  0  0  0  0
  138.1610   73.6720  223.0260 H   0  0  0  0  0  0  0  0  0  0  0  0
  135.6145   77.6010  223.2919 H   0  0  0  0  0  0  0  0  0  0  0  0
  133.9828   77.7574  225.1738 H   0  0  0  0  0  0  0  0  0  0  0  0
  133.2700   75.6981  226.3877 H   0  0  0  0  0  0  0  0  0  0  0  0
  135.7920   73.3001  223.8199 H   0  0  0  0  0  0  0  0  0  0  0  0
  138.9193   70.0500  222.2052 H   0  0  0  0  0  0  0  0  0  0  0  0
  138.3439   68.8254  224.3090 H   0  0  0  0  0  0  0  0  0  0  0  0
  138.5914   68.5746  226.7568 H   0  0  0  0  0  0  0  0  0  0  0  0
  141.1402   71.3224  228.9217 H   0  0  0  0  0  0  0  0  0  0  0  0
  141.6726   72.5199  226.7969 H   0  0  0  0  0  0  0  0  0  0  0  0
  1  2  2  0
  2  3  1  0
  3  4  1  0
  4  5  1  0
  5  6  2  0
  5  7  1  0
  7  8  1  0
  8  9  1  0
  9 10  1  0
  9 11  1  0
 11 12  1  0
 12 13  1  0
 13 14  2  0
 13 15  1  0
 15 16  1  0
 16 17  1  0
 17 18  1  0
 16 19  1  0
 19 20  2  0
 20 21  1  0
 21 22  2  0
 22 23  1  0
 23 24  1  0
 23 25  2  0
  2 26  1  0
 26 27  2  0
 27 28  1  0
 28 29  2  0
 29 30  1  0
 30 31  2  0
 31 32  1  0
 31 33  1  0
 33 34  2  0
 34 35  1  0
 35 36  2  0
 12  7  1  0
 25 19  1  0
 36 26  1  0
 35 29  1  0
  3 37  1  0
  4 38  1  0
  4 39  1  0
  8 40  1  0
  8 41  1  0
  9 42  1  6
 10 43  1  0
 11 44  1  0
 11 45  1  0
 12 46  1  1
 16 47  1  6
 17 48  1  0
 17 49  1  0
 18 50  1  0
 20 51  1  0
 21 52  1  0
 22 53  1  0
 25 54  1  0
 27 55  1  0
 28 56  1  0
 30 57  1  0
 33 58  1  0
 34 59  1  0
M  CHG  1  15  -1
M  END
>  <UniqueID>  (46) 
155

>  <SMILES>  (46) 
O=C(NCC(=O)N1C[C@H](O)C[C@H]1C(=O)[N-][C@@H](CO)c1cccc(Cl)c1)c1ccc2cc(F)ccc2n1

>  <Energy>  (46) 
62.38473807919034

>  <Genealogy>  (46) 
O=C(NCC(=O)N1C[C@H](O)C[C@H]1C(=O)[N-][C@@H](CO)c1cccc(Cl)c1)c1ccc2cc(F)ccc2n1 (protonated)
O=C(NCC(=O)N1C[C@H](O)C[C@H]1C(=O)[N-][C@@H](CO)c1cccc(Cl)c1)c1ccc2cc(F)ccc2n1 (3D coordinates assigned)
O=C(NCC(=O)N1C[C@H](O)C[C@H]1C(=O)[N-][C@@H](CO)c1cccc(Cl)c1)c1ccc2cc(F)ccc2n1 (nonaromatic ring conformer: 62.38473807919034 kcal/mol)

>  <smiles>  (46) 
O=C(NCC(=O)N1C[C@H](O)C[C@H]1C(=O)N[C@@H](CO)c1cccc(Cl)c1)c1ccc2cc(F)ccc2n1

>  <score_type>  (46) 
oracle

>  <origin>  (46) 
autodockgpu

>  <m_score__min__energy>  (46) 
-8.4800000000000004

>  <m_primary>  (46) 
energy

>  <meeko>  (46) 
{"free_energy": -7.58, "intermolecular_energy": -10.86, "internal_energy": -4.61, "cluster_size": 1, "cluster_id": 3, "rank_in_cluster": 1}

>  <energy>  (46) 
-8.19

>  <cluster_rmsd>  (46) 
0.23

>  <rmsd>  (46) 
269.37

>  <cluster>  (46) 
2

$$$$
VCSRFCBMABBACK-DHMKUKBTNA-M
     RDKit          3D

 59 62  0  0  0  0  0  0  0  0999 V2000
  135.1200   71.4190  222.3890 O   0  0  0  0  0  0  0  0  0  0  0  0
  136.2270   71.8230  222.8410 C   0  0  0  0  0  0  0  0  0  0  0  0
  136.7250   73.1080  222.4590 N   0  0  0  0  0  0  0  0  0  0  0  0
  136.5080   73.6330  221.1150 C   0  0  0  0  0  0  0  0  0  0  0  0
  137.7390   73.4960  220.2640 C   0  0  0  0  0  0  0  0  0  0  0  0
  137.6800   73.7830  219.0390 O   0  0  0  0  0  0  0  0  0  0  0  0
  138.9580   72.9640  220.8070 N   0  0  0  0  0  0  0  0  0  0  0  0
  139.5590   71.7470  220.2980 C   0  0  0  0  0  0  0  0  0  0  0  0
  140.5560   71.3040  221.3660 C   0  0  2  0  0  0  0  0  0  0  0  0
  139.9940   70.2710  222.1340 O   0  0  0  0  0  0  0  0  0  0  0  0
  140.8110   72.5390  222.2430 C   0  0  0  0  0  0  0  0  0  0  0  0
  139.6680   73.5200  221.9510 C   0  0  1  0  0  0  0  0  0  0  0  0
  140.2060   74.8870  221.6220 C   0  0  0  0  0  0  0  0  0  0  0  0
  140.9220   75.0500  220.5970 O   0  0  0  0  0  0  0  0  0  0  0  0
  139.9270   75.9900  222.4890 N   0  0  0  0  0  0  0  0  0  0  0  0
  139.1080   77.1330  222.0910 C   0  0  1  0  0  0  0  0  0  0  0  0
  137.6640   76.9220  222.5670 C   0  0  0  0  0  0  0  0  0  0  0  0
  137.4900   75.6210  223.0600 O   0  0  0  0  0  0  0  0  0  0  0  0
  139.6810   78.4140  222.6580 C   0  0  0  0  0  0  0  0  0  0  0  0
  138.8330   79.3640  223.2530 C   0  0  0  0  0  0  0  0  0  0  0  0
  139.3600   80.5410  223.7930 C   0  0  0  0  0  0  0  0  0  0  0  0
  140.7360   80.7790  223.7470 C   0  0  0  0  0  0  0  0  0  0  0  0
  141.5910   79.8370  223.1680 C   0  0  0  0  0  0  0  0  0  0  0  0
  143.3210   80.1310  223.1200 Cl  0  0  0  0  0  0  0  0  0  0  0  0
  141.0690   78.6560  222.6300 C   0  0  0  0  0  0  0  0  0  0  0  0
  137.0190   70.9660  223.7370 C   0  0  0  0  0  0  0  0  0  0  0  0
  136.5680   69.6910  224.1150 C   0  0  0  0  0  0  0  0  0  0  0  0
  137.3570   68.9010  224.9550 C   0  0  0  0  0  0  0  0  0  0  0  0
  138.5980   69.3760  225.3960 C   0  0  0  0  0  0  0  0  0  0  0  0
  139.4190   68.6080  226.2370 C   0  0  0  0  0  0  0  0  0  0  0  0
  140.6600   69.1060  226.6480 C   0  0  0  0  0  0  0  0  0  0  0  0
  141.4510   68.3640  227.4620 F   0  0  0  0  0  0  0  0  0  0  0  0
  141.0890   70.3660  226.2180 C   0  0  0  0  0  0  0  0  0  0  0  0
  140.2780   71.1370  225.3780 C   0  0  0  0  0  0  0  0  0  0  0  0
  139.0290   70.6530  224.9750 C   0  0  0  0  0  0  0  0  0  0  0  0
  138.2310   71.4060  224.1730 N   0  0  0  0  0  0  0  0  0  0  0  0
  137.2970   73.6420  223.1490 H   0  0  0  0  0  0  0  0  0  0  0  0
  135.6839   73.0777  220.6433 H   0  0  0  0  0  0  0  0  0  0  0  0
  136.2633   74.7022  221.1978 H   0  0  0  0  0  0  0  0  0  0  0  0
  138.7912   70.9743  220.1453 H   0  0  0  0  0  0  0  0  0  0  0  0
  140.0486   71.9101  219.3266 H   0  0  0  0  0  0  0  0  0  0  0  0
  141.4904   70.9262  220.9255 H   0  0  0  0  0  0  0  0  0  0  0  0
  139.1000   70.5880  222.4270 H   0  0  0  0  0  0  0  0  0  0  0  0
  140.8088   72.2577  223.3064 H   0  0  0  0  0  0  0  0  0  0  0  0
  141.7899   72.9897  222.0227 H   0  0  0  0  0  0  0  0  0  0  0  0
  139.0088   73.6412  222.8232 H   0  0  0  0  0  0  0  0  0  0  0  0
  139.1100   77.2169  220.9942 H   0  0  0  0  0  0  0  0  0  0  0  0
  137.4378   77.6440  223.3655 H   0  0  0  0  0  0  0  0  0  0  0  0
  136.9851   77.0709  221.7144 H   0  0  0  0  0  0  0  0  0  0  0  0
  138.3980   75.2340  223.1670 H   0  0  0  0  0  0  0  0  0  0  0  0
  137.7492   79.1805  223.2940 H   0  0  0  0  0  0  0  0  0  0  0  0
  138.6900   81.2811  224.2550 H   0  0  0  0  0  0  0  0  0  0  0  0
  141.1469   81.7089  224.1670 H   0  0  0  0  0  0  0  0  0  0  0  0
  141.7453   77.9125  222.1829 H   0  0  0  0  0  0  0  0  0  0  0  0
  135.5995   69.3165  223.7520 H   0  0  0  0  0  0  0  0  0  0  0  0
  137.0038   67.9078  225.2692 H   0  0  0  0  0  0  0  0  0  0  0  0
  139.0864   67.6147  226.5727 H   0  0  0  0  0  0  0  0  0  0  0  0
  142.0670   70.7520  226.5412 H   0  0  0  0  0  0  0  0  0  0  0  0
  140.6226   72.1236  225.0346 H   0  0  0  0  0  0  0  0  0  0  0  0
  1  2  2  0
  2  3  1  0
  3  4  1  0
  4  5  1  0
  5  6  2  0
  5  7  1  0
  7  8  1  0
  8  9  1  0
  9 10  1  0
  9 11  1  0
 11 12  1  0
 12 13  1  0
 13 14  2  0
 13 15  1  0
 15 16  1  0
 16 17  1  0
 17 18  1  0
 16 19  1  0
 19 20  2  0
 20 21  1  0
 21 22  2  0
 22 23  1  0
 23 24  1  0
 23 25  2  0
  2 26  1  0
 26 27  2  0
 27 28  1  0
 28 29  2  0
 29 30  1  0
 30 31  2  0
 31 32  1  0
 31 33  1  0
 33 34  2  0
 34 35  1  0
 35 36  2  0
 12  7  1  0
 25 19  1  0
 36 26  1  0
 35 29  1  0
  3 37  1  0
  4 38  1  0
  4 39  1  0
  8 40  1  0
  8 41  1  0
  9 42  1  6
 10 43  1  0
 11 44  1  0
 11 45  1  0
 12 46  1  1
 16 47  1  6
 17 48  1  0
 17 49  1  0
 18 50  1  0
 20 51  1  0
 21 52  1  0
 22 53  1  0
 25 54  1  0
 27 55  1  0
 28 56  1  0
 30 57  1  0
 33 58  1  0
 34 59  1  0
M  CHG  1  15  -1
M  END
>  <UniqueID>  (47) 
155

>  <SMILES>  (47) 
O=C(NCC(=O)N1C[C@H](O)C[C@H]1C(=O)[N-][C@@H](CO)c1cccc(Cl)c1)c1ccc2cc(F)ccc2n1

>  <Energy>  (47) 
62.38473807919034

>  <Genealogy>  (47) 
O=C(NCC(=O)N1C[C@H](O)C[C@H]1C(=O)[N-][C@@H](CO)c1cccc(Cl)c1)c1ccc2cc(F)ccc2n1 (protonated)
O=C(NCC(=O)N1C[C@H](O)C[C@H]1C(=O)[N-][C@@H](CO)c1cccc(Cl)c1)c1ccc2cc(F)ccc2n1 (3D coordinates assigned)
O=C(NCC(=O)N1C[C@H](O)C[C@H]1C(=O)[N-][C@@H](CO)c1cccc(Cl)c1)c1ccc2cc(F)ccc2n1 (nonaromatic ring conformer: 62.38473807919034 kcal/mol)

>  <smiles>  (47) 
O=C(NCC(=O)N1C[C@H](O)C[C@H]1C(=O)N[C@@H](CO)c1cccc(Cl)c1)c1ccc2cc(F)ccc2n1

>  <score_type>  (47) 
oracle

>  <origin>  (47) 
autodockgpu

>  <m_score__min__energy>  (47) 
-8.4800000000000004

>  <m_primary>  (47) 
energy

>  <meeko>  (47) 
{"free_energy": -6.33, "intermolecular_energy": -9.61, "internal_energy": -5.33, "cluster_size": 3, "cluster_id": 5, "rank_in_cluster": 3}

>  <energy>  (47) 
-6.93

>  <cluster_rmsd>  (47) 
1.83

>  <rmsd>  (47) 
268.84

>  <cluster>  (47) 
2

$$$$
VCSRFCBMABBACK-DHMKUKBTNA-M
     RDKit          3D

 59 62  0  0  0  0  0  0  0  0999 V2000
  136.6640   75.2500  220.4570 O   0  0  0  0  0  0  0  0  0  0  0  0
  137.3490   75.0330  221.4940 C   0  0  0  0  0  0  0  0  0  0  0  0
  137.0300   73.9240  222.3390 N   0  0  0  0  0  0  0  0  0  0  0  0
  135.6460   73.5140  222.5550 C   0  0  0  0  0  0  0  0  0  0  0  0
  135.4320   73.0120  223.9550 C   0  0  0  0  0  0  0  0  0  0  0  0
  135.4850   73.8220  224.9190 O   0  0  0  0  0  0  0  0  0  0  0  0
  135.2500   71.6120  224.2200 N   0  0  0  0  0  0  0  0  0  0  0  0
  133.9380   71.0340  224.4360 C   0  0  0  0  0  0  0  0  0  0  0  0
  134.1900   69.6740  225.0800 C   0  0  2  0  0  0  0  0  0  0  0  0
  133.9760   69.7610  226.4650 O   0  0  0  0  0  0  0  0  0  0  0  0
  135.6590   69.3360  224.7890 C   0  0  0  0  0  0  0  0  0  0  0  0
  136.3330   70.6510  224.3790 C   0  0  1  0  0  0  0  0  0  0  0  0
  137.0860   70.4880  223.0860 C   0  0  0  0  0  0  0  0  0  0  0  0
  136.7160   69.6200  222.2490 O   0  0  0  0  0  0  0  0  0  0  0  0
  138.2350   71.2990  222.8230 N   0  0  0  0  0  0  0  0  0  0  0  0
  139.6050   70.8260  223.0090 C   0  0  1  0  0  0  0  0  0  0  0  0
  140.5900   71.9510  222.6580 C   0  0  0  0  0  0  0  0  0  0  0  0
  139.9570   73.2000  222.7190 O   0  0  0  0  0  0  0  0  0  0  0  0
  139.8110   70.3540  224.4330 C   0  0  0  0  0  0  0  0  0  0  0  0
  139.5630   69.0130  224.7740 C   0  0  0  0  0  0  0  0  0  0  0  0
  139.7660   68.5690  226.0840 C   0  0  0  0  0  0  0  0  0  0  0  0
  140.2210   69.4560  227.0620 C   0  0  0  0  0  0  0  0  0  0  0  0
  140.4830   70.7890  226.7320 C   0  0  0  0  0  0  0  0  0  0  0  0
  141.0650   71.9010  227.9600 Cl  0  0  0  0  0  0  0  0  0  0  0  0
  140.2840   71.2370  225.4230 C   0  0  0  0  0  0  0  0  0  0  0  0
  138.4590   75.9310  221.8510 C   0  0  0  0  0  0  0  0  0  0  0  0
  139.7870   75.6200  221.5180 C   0  0  0  0  0  0  0  0  0  0  0  0
  140.8110   76.5060  221.8620 C   0  0  0  0  0  0  0  0  0  0  0  0
  140.5050   77.7060  222.5140 C   0  0  0  0  0  0  0  0  0  0  0  0
  141.5070   78.6220  222.8700 C   0  0  0  0  0  0  0  0  0  0  0  0
  141.1650   79.8190  223.5100 C   0  0  0  0  0  0  0  0  0  0  0  0
  142.1350   80.7020  223.8550 F   0  0  0  0  0  0  0  0  0  0  0  0
  139.8260   80.1090  223.7890 C   0  0  0  0  0  0  0  0  0  0  0  0
  138.8200   79.2020  223.4360 C   0  0  0  0  0  0  0  0  0  0  0  0
  139.1550   77.9960  222.8110 C   0  0  0  0  0  0  0  0  0  0  0  0
  138.1830   77.1060  222.4820 N   0  0  0  0  0  0  0  0  0  0  0  0
  137.8080   73.4460  222.8450 H   0  0  0  0  0  0  0  0  0  0  0  0
  134.9863   74.3766  222.3799 H   0  0  0  0  0  0  0  0  0  0  0  0
  135.4155   72.6963  221.8563 H   0  0  0  0  0  0  0  0  0  0  0  0
  133.3430   71.6719  225.1061 H   0  0  0  0  0  0  0  0  0  0  0  0
  133.3743   70.9411  223.4960 H   0  0  0  0  0  0  0  0  0  0  0  0
  133.5154   68.9003  224.6846 H   0  0  0  0  0  0  0  0  0  0  0  0
  133.9290   70.7290  226.6840 H   0  0  0  0  0  0  0  0  0  0  0  0
  136.1406   68.9262  225.6891 H   0  0  0  0  0  0  0  0  0  0  0  0
  135.7443   68.5797  223.9948 H   0  0  0  0  0  0  0  0  0  0  0  0
  137.0656   70.9794  225.1310 H   0  0  0  0  0  0  0  0  0  0  0  0
  139.7886   69.9730  222.3392 H   0  0  0  0  0  0  0  0  0  0  0  0
  141.4264   71.9347  223.3723 H   0  0  0  0  0  0  0  0  0  0  0  0
  140.9595   71.7912  221.6343 H   0  0  0  0  0  0  0  0  0  0  0  0
  139.0880   73.0560  223.1790 H   0  0  0  0  0  0  0  0  0  0  0  0
  139.2075   68.3097  224.0065 H   0  0  0  0  0  0  0  0  0  0  0  0
  139.5670   67.5191  226.3449 H   0  0  0  0  0  0  0  0  0  0  0  0
  140.3734   69.1053  228.0934 H   0  0  0  0  0  0  0  0  0  0  0  0
  140.4979   72.2846  225.1648 H   0  0  0  0  0  0  0  0  0  0  0  0
  140.0199   74.6840  220.9892 H   0  0  0  0  0  0  0  0  0  0  0  0
  141.8559   76.2609  221.6208 H   0  0  0  0  0  0  0  0  0  0  0  0
  142.5607   78.3994  222.6461 H   0  0  0  0  0  0  0  0  0  0  0  0
  139.5622   81.0533  224.2877 H   0  0  0  0  0  0  0  0  0  0  0  0
  137.7669   79.4373  223.6498 H   0  0  0  0  0  0  0  0  0  0  0  0
  1  2  2  0
  2  3  1  0
  3  4  1  0
  4  5  1  0
  5  6  2  0
  5  7  1  0
  7  8  1  0
  8  9  1  0
  9 10  1  0
  9 11  1  0
 11 12  1  0
 12 13  1  0
 13 14  2  0
 13 15  1  0
 15 16  1  0
 16 17  1  0
 17 18  1  0
 16 19  1  0
 19 20  2  0
 20 21  1  0
 21 22  2  0
 22 23  1  0
 23 24  1  0
 23 25  2  0
  2 26  1  0
 26 27  2  0
 27 28  1  0
 28 29  2  0
 29 30  1  0
 30 31  2  0
 31 32  1  0
 31 33  1  0
 33 34  2  0
 34 35  1  0
 35 36  2  0
 12  7  1  0
 25 19  1  0
 36 26  1  0
 35 29  1  0
  3 37  1  0
  4 38  1  0
  4 39  1  0
  8 40  1  0
  8 41  1  0
  9 42  1  6
 10 43  1  0
 11 44  1  0
 11 45  1  0
 12 46  1  1
 16 47  1  6
 17 48  1  0
 17 49  1  0
 18 50  1  0
 20 51  1  0
 21 52  1  0
 22 53  1  0
 25 54  1  0
 27 55  1  0
 28 56  1  0
 30 57  1  0
 33 58  1  0
 34 59  1  0
M  CHG  1  15  -1
M  END
>  <UniqueID>  (48) 
155

>  <SMILES>  (48) 
O=C(NCC(=O)N1C[C@H](O)C[C@H]1C(=O)[N-][C@@H](CO)c1cccc(Cl)c1)c1ccc2cc(F)ccc2n1

>  <Energy>  (48) 
62.38473807919034

>  <Genealogy>  (48) 
O=C(NCC(=O)N1C[C@H](O)C[C@H]1C(=O)[N-][C@@H](CO)c1cccc(Cl)c1)c1ccc2cc(F)ccc2n1 (protonated)
O=C(NCC(=O)N1C[C@H](O)C[C@H]1C(=O)[N-][C@@H](CO)c1cccc(Cl)c1)c1ccc2cc(F)ccc2n1 (3D coordinates assigned)
O=C(NCC(=O)N1C[C@H](O)C[C@H]1C(=O)[N-][C@@H](CO)c1cccc(Cl)c1)c1ccc2cc(F)ccc2n1 (nonaromatic ring conformer: 62.38473807919034 kcal/mol)

>  <smiles>  (48) 
O=C(NCC(=O)N1C[C@H](O)C[C@H]1C(=O)N[C@@H](CO)c1cccc(Cl)c1)c1ccc2cc(F)ccc2n1

>  <score_type>  (48) 
oracle

>  <origin>  (48) 
autodockgpu

>  <m_score__min__energy>  (48) 
-8.4800000000000004

>  <m_primary>  (48) 
energy

>  <meeko>  (48) 
{"free_energy": -8.26, "intermolecular_energy": -11.54, "internal_energy": -4.58, "cluster_size": 4, "cluster_id": 2, "rank_in_cluster": 1}

>  <energy>  (48) 
-6.41

>  <cluster_rmsd>  (48) 
1.65

>  <rmsd>  (48) 
268.66

>  <cluster>  (48) 
2

$$$$
VCSRFCBMABBACK-DHMKUKBTNA-M
     RDKit          3D

 59 62  0  0  0  0  0  0  0  0999 V2000
  137.8570   75.3390  222.3430 O   0  0  0  0  0  0  0  0  0  0  0  0
  138.8750   75.9000  221.8520 C   0  0  0  0  0  0  0  0  0  0  0  0
  139.6100   75.2550  220.8080 N   0  0  0  0  0  0  0  0  0  0  0  0
  139.7760   73.8060  220.7870 C   0  0  0  0  0  0  0  0  0  0  0  0
  141.0520   73.3860  221.4590 C   0  0  0  0  0  0  0  0  0  0  0  0
  141.0060   72.8620  222.6040 O   0  0  0  0  0  0  0  0  0  0  0  0
  142.3280   73.6490  220.8540 N   0  0  0  0  0  0  0  0  0  0  0  0
  143.2710   72.5890  220.5570 C   0  0  0  0  0  0  0  0  0  0  0  0
  144.6110   73.2840  220.3300 C   0  0  2  0  0  0  0  0  0  0  0  0
  145.4040   73.1650  221.4840 O   0  0  0  0  0  0  0  0  0  0  0  0
  144.2810   74.7590  220.0610 C   0  0  0  0  0  0  0  0  0  0  0  0
  142.8450   74.9770  220.5540 C   0  0  1  0  0  0  0  0  0  0  0  0
  142.0080   75.6380  219.4900 C   0  0  0  0  0  0  0  0  0  0  0  0
  141.4950   74.9430  218.5720 O   0  0  0  0  0  0  0  0  0  0  0  0
  141.8230   77.0570  219.5090 N   0  0  0  0  0  0  0  0  0  0  0  0
  141.3000   77.8090  218.3710 C   0  0  1  0  0  0  0  0  0  0  0  0
  139.7870   77.5780  218.2520 C   0  0  0  0  0  0  0  0  0  0  0  0
  139.1710   77.6760  219.5070 O   0  0  0  0  0  0  0  0  0  0  0  0
  141.6090   79.2830  218.5280 C   0  0  0  0  0  0  0  0  0  0  0  0
  142.5540   79.8990  217.6890 C   0  0  0  0  0  0  0  0  0  0  0  0
  142.8310   81.2640  217.8190 C   0  0  0  0  0  0  0  0  0  0  0  0
  142.1670   82.0240  218.7840 C   0  0  0  0  0  0  0  0  0  0  0  0
  141.2170   81.4250  219.6170 C   0  0  0  0  0  0  0  0  0  0  0  0
  140.3750   82.3850  220.8230 Cl  0  0  0  0  0  0  0  0  0  0  0  0
  140.9340   80.0620  219.4880 C   0  0  0  0  0  0  0  0  0  0  0  0
  139.3240   77.2040  222.3680 C   0  0  0  0  0  0  0  0  0  0  0  0
  138.4340   78.0800  223.0100 C   0  0  0  0  0  0  0  0  0  0  0  0
  138.9030   79.3030  223.4990 C   0  0  0  0  0  0  0  0  0  0  0  0
  140.2560   79.6340  223.3660 C   0  0  0  0  0  0  0  0  0  0  0  0
  140.7620   80.8510  223.8500 C   0  0  0  0  0  0  0  0  0  0  0  0
  142.1230   81.1460  223.7130 C   0  0  0  0  0  0  0  0  0  0  0  0
  142.6110   82.3220  224.1790 F   0  0  0  0  0  0  0  0  0  0  0  0
  142.9830   80.2280  223.1010 C   0  0  0  0  0  0  0  0  0  0  0  0
  142.4870   79.0130  222.6180 C   0  0  0  0  0  0  0  0  0  0  0  0
  141.1250   78.7170  222.7360 C   0  0  0  0  0  0  0  0  0  0  0  0
  140.6370   77.5440  222.2530 N   0  0  0  0  0  0  0  0  0  0  0  0
  140.0760   75.8510  220.0890 H   0  0  0  0  0  0  0  0  0  0  0  0
  138.9272   73.3418  221.3106 H   0  0  0  0  0  0  0  0  0  0  0  0
  139.8162   73.4794  219.7374 H   0  0  0  0  0  0  0  0  0  0  0  0
  143.3400   71.8884  221.4022 H   0  0  0  0  0  0  0  0  0  0  0  0
  142.9620   72.0034  219.6786 H   0  0  0  0  0  0  0  0  0  0  0  0
  145.1683   72.8402  219.4919 H   0  0  0  0  0  0  0  0  0  0  0  0
  145.5710   72.1950  221.6150 H   0  0  0  0  0  0  0  0  0  0  0  0
  144.9755   75.4109  220.6112 H   0  0  0  0  0  0  0  0  0  0  0  0
  144.3774   75.0013  218.9924 H   0  0  0  0  0  0  0  0  0  0  0  0
  142.8176   75.6361  221.4342 H   0  0  0  0  0  0  0  0  0  0  0  0
  141.7850   77.4560  217.4489 H   0  0  0  0  0  0  0  0  0  0  0  0
  139.3579   78.3350  217.5790 H   0  0  0  0  0  0  0  0  0  0  0  0
  139.6137   76.5686  217.8507 H   0  0  0  0  0  0  0  0  0  0  0  0
  139.8990   77.6680  220.1830 H   0  0  0  0  0  0  0  0  0  0  0  0
  143.0783   79.3045  216.9263 H   0  0  0  0  0  0  0  0  0  0  0  0
  143.5728   81.7392  217.1602 H   0  0  0  0  0  0  0  0  0  0  0  0
  142.3916   83.0957  218.8891 H   0  0  0  0  0  0  0  0  0  0  0  0
  140.1804   79.5955  220.1395 H   0  0  0  0  0  0  0  0  0  0  0  0
  137.3752   77.8060  223.1274 H   0  0  0  0  0  0  0  0  0  0  0  0
  138.2097   80.0036  223.9873 H   0  0  0  0  0  0  0  0  0  0  0  0
  140.0889   81.5722  224.3367 H   0  0  0  0  0  0  0  0  0  0  0  0
  144.0529   80.4626  222.9994 H   0  0  0  0  0  0  0  0  0  0  0  0
  143.1680   78.2900  222.1452 H   0  0  0  0  0  0  0  0  0  0  0  0
  1  2  2  0
  2  3  1  0
  3  4  1  0
  4  5  1  0
  5  6  2  0
  5  7  1  0
  7  8  1  0
  8  9  1  0
  9 10  1  0
  9 11  1  0
 11 12  1  0
 12 13  1  0
 13 14  2  0
 13 15  1  0
 15 16  1  0
 16 17  1  0
 17 18  1  0
 16 19  1  0
 19 20  2  0
 20 21  1  0
 21 22  2  0
 22 23  1  0
 23 24  1  0
 23 25  2  0
  2 26  1  0
 26 27  2  0
 27 28  1  0
 28 29  2  0
 29 30  1  0
 30 31  2  0
 31 32  1  0
 31 33  1  0
 33 34  2  0
 34 35  1  0
 35 36  2  0
 12  7  1  0
 25 19  1  0
 36 26  1  0
 35 29  1  0
  3 37  1  0
  4 38  1  0
  4 39  1  0
  8 40  1  0
  8 41  1  0
  9 42  1  6
 10 43  1  0
 11 44  1  0
 11 45  1  0
 12 46  1  1
 16 47  1  6
 17 48  1  0
 17 49  1  0
 18 50  1  0
 20 51  1  0
 21 52  1  0
 22 53  1  0
 25 54  1  0
 27 55  1  0
 28 56  1  0
 30 57  1  0
 33 58  1  0
 34 59  1  0
M  CHG  1  15  -1
M  END
>  <UniqueID>  (49) 
155

>  <SMILES>  (49) 
O=C(NCC(=O)N1C[C@H](O)C[C@H]1C(=O)[N-][C@@H](CO)c1cccc(Cl)c1)c1ccc2cc(F)ccc2n1

>  <Energy>  (49) 
62.38473807919034

>  <Genealogy>  (49) 
O=C(NCC(=O)N1C[C@H](O)C[C@H]1C(=O)[N-][C@@H](CO)c1cccc(Cl)c1)c1ccc2cc(F)ccc2n1 (protonated)
O=C(NCC(=O)N1C[C@H](O)C[C@H]1C(=O)[N-][C@@H](CO)c1cccc(Cl)c1)c1ccc2cc(F)ccc2n1 (3D coordinates assigned)
O=C(NCC(=O)N1C[C@H](O)C[C@H]1C(=O)[N-][C@@H](CO)c1cccc(Cl)c1)c1ccc2cc(F)ccc2n1 (nonaromatic ring conformer: 62.38473807919034 kcal/mol)

>  <smiles>  (49) 
O=C(NCC(=O)N1C[C@H](O)C[C@H]1C(=O)N[C@@H](CO)c1cccc(Cl)c1)c1ccc2cc(F)ccc2n1

>  <score_type>  (49) 
oracle

>  <origin>  (49) 
autodockgpu

>  <m_score__min__energy>  (49) 
-8.4800000000000004

>  <m_primary>  (49) 
energy

>  <meeko>  (49) 
{"free_energy": -5.76, "intermolecular_energy": -9.04, "internal_energy": -6.71, "cluster_size": 2, "cluster_id": 7, "rank_in_cluster": 1}

>  <energy>  (49) 
-7.58

>  <cluster_rmsd>  (49) 
0.0

>  <rmsd>  (49) 
269.77

>  <cluster>  (49) 
3

$$$$
VCSRFCBMABBACK-DHMKUKBTNA-M
     RDKit          3D

 59 62  0  0  0  0  0  0  0  0999 V2000
  136.5150   70.1350  222.1600 O   0  0  0  0  0  0  0  0  0  0  0  0
  137.4310   70.8080  222.7060 C   0  0  0  0  0  0  0  0  0  0  0  0
  137.7840   72.0910  222.1810 N   0  0  0  0  0  0  0  0  0  0  0  0
  137.7560   72.3520  220.7460 C   0  0  0  0  0  0  0  0  0  0  0  0
  138.9870   71.8240  220.0650 C   0  0  0  0  0  0  0  0  0  0  0  0
  139.0920   70.5880  219.8460 O   0  0  0  0  0  0  0  0  0  0  0  0
  140.0810   72.6960  219.7350 N   0  0  0  0  0  0  0  0  0  0  0  0
  140.1660   73.3720  218.4560 C   0  0  0  0  0  0  0  0  0  0  0  0
  141.6140   73.8380  218.3330 C   0  0  2  0  0  0  0  0  0  0  0  0
  142.3230   72.9560  217.5010 O   0  0  0  0  0  0  0  0  0  0  0  0
  142.1890   73.8030  219.7570 C   0  0  0  0  0  0  0  0  0  0  0  0
  141.2390   72.9310  220.5860 C   0  0  1  0  0  0  0  0  0  0  0  0
  140.8270   73.6390  221.8500 C   0  0  0  0  0  0  0  0  0  0  0  0
  140.2730   72.9920  222.7810 O   0  0  0  0  0  0  0  0  0  0  0  0
  141.0380   75.0480  221.9780 N   0  0  0  0  0  0  0  0  0  0  0  0
  140.2190   76.0450  221.2920 C   0  0  1  0  0  0  0  0  0  0  0  0
  138.7840   75.5200  221.1450 C   0  0  0  0  0  0  0  0  0  0  0  0
  138.3520   74.9210  222.3370 O   0  0  0  0  0  0  0  0  0  0  0  0
  140.2390   77.3550  222.0510 C   0  0  0  0  0  0  0  0  0  0  0  0
  139.0590   77.8540  222.6280 C   0  0  0  0  0  0  0  0  0  0  0  0
  139.0760   79.0550  223.3440 C   0  0  0  0  0  0  0  0  0  0  0  0
  140.2690   79.7660  223.4920 C   0  0  0  0  0  0  0  0  0  0  0  0
  141.4520   79.2740  222.9310 C   0  0  0  0  0  0  0  0  0  0  0  0
  142.9530   80.1630  223.1270 Cl  0  0  0  0  0  0  0  0  0  0  0  0
  141.4400   78.0720  222.2180 C   0  0  0  0  0  0  0  0  0  0  0  0
  138.1580   70.2650  223.8660 C   0  0  0  0  0  0  0  0  0  0  0  0
  138.1340   68.8940  224.1650 C   0  0  0  0  0  0  0  0  0  0  0  0
  138.8490   68.4150  225.2660 C   0  0  0  0  0  0  0  0  0  0  0  0
  139.6010   69.3010  226.0480 C   0  0  0  0  0  0  0  0  0  0  0  0
  140.3360   68.8550  227.1580 C   0  0  0  0  0  0  0  0  0  0  0  0
  141.0870   69.7640  227.9100 C   0  0  0  0  0  0  0  0  0  0  0  0
  141.7950   69.3320  228.9830 F   0  0  0  0  0  0  0  0  0  0  0  0
  141.1150   71.1170  227.5540 C   0  0  0  0  0  0  0  0  0  0  0  0
  140.3880   71.5690  226.4480 C   0  0  0  0  0  0  0  0  0  0  0  0
  139.6210   70.6700  225.7010 C   0  0  0  0  0  0  0  0  0  0  0  0
  138.8990   71.1080  224.6360 N   0  0  0  0  0  0  0  0  0  0  0  0
  138.1170   72.8230  222.8450 H   0  0  0  0  0  0  0  0  0  0  0  0
  136.8706   71.8648  220.3115 H   0  0  0  0  0  0  0  0  0  0  0  0
  137.7185   73.4409  220.5944 H   0  0  0  0  0  0  0  0  0  0  0  0
  139.9146   72.6801  217.6386 H   0  0  0  0  0  0  0  0  0  0  0  0
  139.4609   74.2140  218.3932 H   0  0  0  0  0  0  0  0  0  0  0  0
  141.6874   74.8447  217.8957 H   0  0  0  0  0  0  0  0  0  0  0  0
  141.8580   72.0800  217.5530 H   0  0  0  0  0  0  0  0  0  0  0  0
  143.1980   73.3651  219.7492 H   0  0  0  0  0  0  0  0  0  0  0  0
  142.2712   74.8156  220.1789 H   0  0  0  0  0  0  0  0  0  0  0  0
  141.7203   71.9906  220.8925 H   0  0  0  0  0  0  0  0  0  0  0  0
  140.6329   76.2273  220.2893 H   0  0  0  0  0  0  0  0  0  0  0  0
  138.1159   76.3586  220.8992 H   0  0  0  0  0  0  0  0  0  0  0  0
  138.7625   74.7679  220.3426 H   0  0  0  0  0  0  0  0  0  0  0  0
  139.1580   74.8070  222.9070 H   0  0  0  0  0  0  0  0  0  0  0  0
  138.1171   77.2970  222.5159 H   0  0  0  0  0  0  0  0  0  0  0  0
  138.1480   79.4405  223.7915 H   0  0  0  0  0  0  0  0  0  0  0  0
  140.2782   80.7138  224.0503 H   0  0  0  0  0  0  0  0  0  0  0  0
  142.3736   77.6837  221.7848 H   0  0  0  0  0  0  0  0  0  0  0  0
  137.5559   68.2006  223.5365 H   0  0  0  0  0  0  0  0  0  0  0  0
  138.8213   67.3446  225.5180 H   0  0  0  0  0  0  0  0  0  0  0  0
  140.3211   67.7908  227.4361 H   0  0  0  0  0  0  0  0  0  0  0  0
  141.7108   71.8274  228.1460 H   0  0  0  0  0  0  0  0  0  0  0  0
  140.4197   72.6317  226.1659 H   0  0  0  0  0  0  0  0  0  0  0  0
  1  2  2  0
  2  3  1  0
  3  4  1  0
  4  5  1  0
  5  6  2  0
  5  7  1  0
  7  8  1  0
  8  9  1  0
  9 10  1  0
  9 11  1  0
 11 12  1  0
 12 13  1  0
 13 14  2  0
 13 15  1  0
 15 16  1  0
 16 17  1  0
 17 18  1  0
 16 19  1  0
 19 20  2  0
 20 21  1  0
 21 22  2  0
 22 23  1  0
 23 24  1  0
 23 25  2  0
  2 26  1  0
 26 27  2  0
 27 28  1  0
 28 29  2  0
 29 30  1  0
 30 31  2  0
 31 32  1  0
 31 33  1  0
 33 34  2  0
 34 35  1  0
 35 36  2  0
 12  7  1  0
 25 19  1  0
 36 26  1  0
 35 29  1  0
  3 37  1  0
  4 38  1  0
  4 39  1  0
  8 40  1  0
  8 41  1  0
  9 42  1  6
 10 43  1  0
 11 44  1  0
 11 45  1  0
 12 46  1  1
 16 47  1  6
 17 48  1  0
 17 49  1  0
 18 50  1  0
 20 51  1  0
 21 52  1  0
 22 53  1  0
 25 54  1  0
 27 55  1  0
 28 56  1  0
 30 57  1  0
 33 58  1  0
 34 59  1  0
M  CHG  1  15  -1
M  END
>  <UniqueID>  (50) 
155

>  <SMILES>  (50) 
O=C(NCC(=O)N1C[C@H](O)C[C@H]1C(=O)[N-][C@@H](CO)c1cccc(Cl)c1)c1ccc2cc(F)ccc2n1

>  <Energy>  (50) 
62.38473807919034

>  <Genealogy>  (50) 
O=C(NCC(=O)N1C[C@H](O)C[C@H]1C(=O)[N-][C@@H](CO)c1cccc(Cl)c1)c1ccc2cc(F)ccc2n1 (protonated)
O=C(NCC(=O)N1C[C@H](O)C[C@H]1C(=O)[N-][C@@H](CO)c1cccc(Cl)c1)c1ccc2cc(F)ccc2n1 (3D coordinates assigned)
O=C(NCC(=O)N1C[C@H](O)C[C@H]1C(=O)[N-][C@@H](CO)c1cccc(Cl)c1)c1ccc2cc(F)ccc2n1 (nonaromatic ring conformer: 62.38473807919034 kcal/mol)

>  <smiles>  (50) 
O=C(NCC(=O)N1C[C@H](O)C[C@H]1C(=O)N[C@@H](CO)c1cccc(Cl)c1)c1ccc2cc(F)ccc2n1

>  <score_type>  (50) 
oracle

>  <origin>  (50) 
autodockgpu

>  <m_score__min__energy>  (50) 
-8.4800000000000004

>  <m_primary>  (50) 
energy

>  <meeko>  (50) 
{"free_energy": -7.21, "intermolecular_energy": -10.49, "internal_energy": -5.39, "cluster_size": 4, "cluster_id": 1, "rank_in_cluster": 3}

>  <energy>  (50) 
-6.95

>  <cluster_rmsd>  (50) 
0.0

>  <rmsd>  (50) 
268.56

>  <cluster>  (50) 
4

$$$$
VCSRFCBMABBACK-DHMKUKBTNA-M
     RDKit          3D

 59 62  0  0  0  0  0  0  0  0999 V2000
  140.1750   74.7160  222.0070 O   0  0  0  0  0  0  0  0  0  0  0  0
  139.4670   75.7170  221.7110 C   0  0  0  0  0  0  0  0  0  0  0  0
  138.3590   75.5670  220.8180 N   0  0  0  0  0  0  0  0  0  0  0  0
  138.4180   74.6410  219.6920 C   0  0  0  0  0  0  0  0  0  0  0  0
  139.3580   75.1280  218.6260 C   0  0  0  0  0  0  0  0  0  0  0  0
  138.9760   75.1470  217.4260 O   0  0  0  0  0  0  0  0  0  0  0  0
  140.7110   75.4920  218.9430 N   0  0  0  0  0  0  0  0  0  0  0  0
  141.7550   74.5010  219.1120 C   0  0  0  0  0  0  0  0  0  0  0  0
  142.8930   75.2210  219.8290 C   0  0  2  0  0  0  0  0  0  0  0  0
  142.8700   74.8950  221.1950 O   0  0  0  0  0  0  0  0  0  0  0  0
  142.6300   76.7210  219.6370 C   0  0  0  0  0  0  0  0  0  0  0  0
  141.1630   76.8520  219.2060 C   0  0  1  0  0  0  0  0  0  0  0  0
  141.0420   77.6950  217.9650 C   0  0  0  0  0  0  0  0  0  0  0  0
  142.0720   77.9820  217.2970 O   0  0  0  0  0  0  0  0  0  0  0  0
  139.7620   78.1940  217.5650 N   0  0  0  0  0  0  0  0  0  0  0  0
  139.0210   79.1970  218.3270 C   0  0  1  0  0  0  0  0  0  0  0  0
  138.2790   78.5190  219.4870 C   0  0  0  0  0  0  0  0  0  0  0  0
  137.6030   77.3750  219.0400 O   0  0  0  0  0  0  0  0  0  0  0  0
  139.9620   80.2670  218.8410 C   0  0  0  0  0  0  0  0  0  0  0  0
  139.8890   80.6870  220.1800 C   0  0  0  0  0  0  0  0  0  0  0  0
  140.7660   81.6630  220.6630 C   0  0  0  0  0  0  0  0  0  0  0  0
  141.7230   82.2250  219.8160 C   0  0  0  0  0  0  0  0  0  0  0  0
  141.8130   81.8080  218.4850 C   0  0  0  0  0  0  0  0  0  0  0  0
  143.0250   82.5070  217.4240 Cl  0  0  0  0  0  0  0  0  0  0  0  0
  140.9410   80.8290  217.9980 C   0  0  0  0  0  0  0  0  0  0  0  0
  139.7930   77.0440  222.2580 C   0  0  0  0  0  0  0  0  0  0  0  0
  138.8050   77.8580  222.8350 C   0  0  0  0  0  0  0  0  0  0  0  0
  139.1570   79.1050  223.3580 C   0  0  0  0  0  0  0  0  0  0  0  0
  140.4930   79.5240  223.3230 C   0  0  0  0  0  0  0  0  0  0  0  0
  140.8840   80.7680  223.8430 C   0  0  0  0  0  0  0  0  0  0  0  0
  142.2290   81.1500  223.8040 C   0  0  0  0  0  0  0  0  0  0  0  0
  142.6050   82.3530  224.3050 F   0  0  0  0  0  0  0  0  0  0  0  0
  143.1880   80.2920  223.2550 C   0  0  0  0  0  0  0  0  0  0  0  0
  142.8070   79.0500  222.7370 C   0  0  0  0  0  0  0  0  0  0  0  0
  141.4620   78.6670  222.7570 C   0  0  0  0  0  0  0  0  0  0  0  0
  141.0860   77.4680  222.2390 N   0  0  0  0  0  0  0  0  0  0  0  0
  137.5250   76.1780  220.9580 H   0  0  0  0  0  0  0  0  0  0  0  0
  138.7640   73.6612  220.0530 H   0  0  0  0  0  0  0  0  0  0  0  0
  137.4113   74.5648  219.2553 H   0  0  0  0  0  0  0  0  0  0  0  0
  141.3905   73.6592  219.7191 H   0  0  0  0  0  0  0  0  0  0  0  0
  142.0808   74.0849  218.1473 H   0  0  0  0  0  0  0  0  0  0  0  0
  143.8772   74.9330  219.4310 H   0  0  0  0  0  0  0  0  0  0  0  0
  142.2240   75.5160  221.6240 H   0  0  0  0  0  0  0  0  0  0  0  0
  142.7990   77.2607  220.5805 H   0  0  0  0  0  0  0  0  0  0  0  0
  143.3068   77.1513  218.8841 H   0  0  0  0  0  0  0  0  0  0  0  0
  140.5574   77.3433  219.9818 H   0  0  0  0  0  0  0  0  0  0  0  0
  138.2826   79.6799  217.6701 H   0  0  0  0  0  0  0  0  0  0  0  0
  139.0054   78.2302  220.2609 H   0  0  0  0  0  0  0  0  0  0  0  0
  137.5442   79.2263  219.8991 H   0  0  0  0  0  0  0  0  0  0  0  0
  138.1440   76.9960  218.2980 H   0  0  0  0  0  0  0  0  0  0  0  0
  139.1380   80.2456  220.8517 H   0  0  0  0  0  0  0  0  0  0  0  0
  140.7018   81.9885  221.7118 H   0  0  0  0  0  0  0  0  0  0  0  0
  142.4074   82.9974  220.1968 H   0  0  0  0  0  0  0  0  0  0  0  0
  141.0198   80.4964  216.9525 H   0  0  0  0  0  0  0  0  0  0  0  0
  137.7603   77.5161  222.8751 H   0  0  0  0  0  0  0  0  0  0  0  0
  138.3864   79.7563  223.7963 H   0  0  0  0  0  0  0  0  0  0  0  0
  140.1330   81.4420  224.2809 H   0  0  0  0  0  0  0  0  0  0  0  0
  144.2451   80.5952  223.2307 H   0  0  0  0  0  0  0  0  0  0  0  0
  143.5651   78.3745  222.3139 H   0  0  0  0  0  0  0  0  0  0  0  0
  1  2  2  0
  2  3  1  0
  3  4  1  0
  4  5  1  0
  5  6  2  0
  5  7  1  0
  7  8  1  0
  8  9  1  0
  9 10  1  0
  9 11  1  0
 11 12  1  0
 12 13  1  0
 13 14  2  0
 13 15  1  0
 15 16  1  0
 16 17  1  0
 17 18  1  0
 16 19  1  0
 19 20  2  0
 20 21  1  0
 21 22  2  0
 22 23  1  0
 23 24  1  0
 23 25  2  0
  2 26  1  0
 26 27  2  0
 27 28  1  0
 28 29  2  0
 29 30  1  0
 30 31  2  0
 31 32  1  0
 31 33  1  0
 33 34  2  0
 34 35  1  0
 35 36  2  0
 12  7  1  0
 25 19  1  0
 36 26  1  0
 35 29  1  0
  3 37  1  0
  4 38  1  0
  4 39  1  0
  8 40  1  0
  8 41  1  0
  9 42  1  6
 10 43  1  0
 11 44  1  0
 11 45  1  0
 12 46  1  1
 16 47  1  6
 17 48  1  0
 17 49  1  0
 18 50  1  0
 20 51  1  0
 21 52  1  0
 22 53  1  0
 25 54  1  0
 27 55  1  0
 28 56  1  0
 30 57  1  0
 33 58  1  0
 34 59  1  0
M  CHG  1  15  -1
M  END
>  <UniqueID>  (51) 
155

>  <SMILES>  (51) 
O=C(NCC(=O)N1C[C@H](O)C[C@H]1C(=O)[N-][C@@H](CO)c1cccc(Cl)c1)c1ccc2cc(F)ccc2n1

>  <Energy>  (51) 
62.38473807919034

>  <Genealogy>  (51) 
O=C(NCC(=O)N1C[C@H](O)C[C@H]1C(=O)[N-][C@@H](CO)c1cccc(Cl)c1)c1ccc2cc(F)ccc2n1 (protonated)
O=C(NCC(=O)N1C[C@H](O)C[C@H]1C(=O)[N-][C@@H](CO)c1cccc(Cl)c1)c1ccc2cc(F)ccc2n1 (3D coordinates assigned)
O=C(NCC(=O)N1C[C@H](O)C[C@H]1C(=O)[N-][C@@H](CO)c1cccc(Cl)c1)c1ccc2cc(F)ccc2n1 (nonaromatic ring conformer: 62.38473807919034 kcal/mol)

>  <smiles>  (51) 
O=C(NCC(=O)N1C[C@H](O)C[C@H]1C(=O)N[C@@H](CO)c1cccc(Cl)c1)c1ccc2cc(F)ccc2n1

>  <score_type>  (51) 
oracle

>  <origin>  (51) 
autodockgpu

>  <m_score__min__energy>  (51) 
-8.4800000000000004

>  <m_primary>  (51) 
energy

>  <meeko>  (51) 
{"free_energy": -4.28, "intermolecular_energy": -7.56, "internal_energy": -7.27, "cluster_size": 2, "cluster_id": 7, "rank_in_cluster": 2}

>  <energy>  (51) 
-6.61

>  <cluster_rmsd>  (51) 
0.0

>  <rmsd>  (51) 
269.2

>  <cluster>  (51) 
5

$$$$
VCSRFCBMABBACK-DHMKUKBTNA-M
     RDKit          3D

 59 62  0  0  0  0  0  0  0  0999 V2000
  135.3300   71.3020  222.2420 O   0  0  0  0  0  0  0  0  0  0  0  0
  136.3920   71.7540  222.7510 C   0  0  0  0  0  0  0  0  0  0  0  0
  136.8650   73.0510  222.3780 N   0  0  0  0  0  0  0  0  0  0  0  0
  136.7090   73.5490  221.0150 C   0  0  0  0  0  0  0  0  0  0  0  0
  137.9750   73.3890  220.2210 C   0  0  0  0  0  0  0  0  0  0  0  0
  138.0320   73.8460  219.0490 O   0  0  0  0  0  0  0  0  0  0  0  0
  139.0900   72.6520  220.7470 N   0  0  0  0  0  0  0  0  0  0  0  0
  139.4990   71.3770  220.1910 C   0  0  0  0  0  0  0  0  0  0  0  0
  140.4020   70.7410  221.2440 C   0  0  2  0  0  0  0  0  0  0  0  0
  139.6780   69.7780  221.9660 O   0  0  0  0  0  0  0  0  0  0  0  0
  140.8380   71.8840  222.1710 C   0  0  0  0  0  0  0  0  0  0  0  0
  139.8660   73.0430  221.9160 C   0  0  1  0  0  0  0  0  0  0  0  0
  140.6140   74.3210  221.6460 C   0  0  0  0  0  0  0  0  0  0  0  0
  141.5710   74.3270  220.8250 O   0  0  0  0  0  0  0  0  0  0  0  0
  140.2560   75.5180  222.3440 N   0  0  0  0  0  0  0  0  0  0  0  0
  139.6440   76.6720  221.6890 C   0  0  1  0  0  0  0  0  0  0  0  0
  138.1220   76.4870  221.6350 C   0  0  0  0  0  0  0  0  0  0  0  0
  137.6800   75.7050  222.7110 O   0  0  0  0  0  0  0  0  0  0  0  0
  140.0070   77.9460  222.4230 C   0  0  0  0  0  0  0  0  0  0  0  0
  139.0280   78.6450  223.1500 C   0  0  0  0  0  0  0  0  0  0  0  0
  139.3630   79.8130  223.8420 C   0  0  0  0  0  0  0  0  0  0  0  0
  140.6750   80.2910  223.8180 C   0  0  0  0  0  0  0  0  0  0  0  0
  141.6600   79.5980  223.1080 C   0  0  0  0  0  0  0  0  0  0  0  0
  143.3120   80.1930  223.0870 Cl  0  0  0  0  0  0  0  0  0  0  0  0
  141.3320   78.4280  222.4170 C   0  0  0  0  0  0  0  0  0  0  0  0
  137.1620   70.9390  223.7050 C   0  0  0  0  0  0  0  0  0  0  0  0
  136.7350   69.6540  224.0780 C   0  0  0  0  0  0  0  0  0  0  0  0
  137.5010   68.9060  224.9750 C   0  0  0  0  0  0  0  0  0  0  0  0
  138.6970   69.4310  225.4780 C   0  0  0  0  0  0  0  0  0  0  0  0
  139.4940   68.7060  226.3770 C   0  0  0  0  0  0  0  0  0  0  0  0
  140.6910   69.2550  226.8510 C   0  0  0  0  0  0  0  0  0  0  0  0
  141.4600   68.5540  227.7210 F   0  0  0  0  0  0  0  0  0  0  0  0
  141.0990   70.5230  226.4240 C   0  0  0  0  0  0  0  0  0  0  0  0
  140.3120   71.2520  225.5270 C   0  0  0  0  0  0  0  0  0  0  0  0
  139.1060   70.7170  225.0610 C   0  0  0  0  0  0  0  0  0  0  0  0
  138.3300   71.4290  224.2020 N   0  0  0  0  0  0  0  0  0  0  0  0
  137.3770   73.6150  223.0910 H   0  0  0  0  0  0  0  0  0  0  0  0
  135.9032   72.9876  220.5195 H   0  0  0  0  0  0  0  0  0  0  0  0
  136.4666   74.6208  221.0652 H   0  0  0  0  0  0  0  0  0  0  0  0
  138.6215   70.7409  220.0028 H   0  0  0  0  0  0  0  0  0  0  0  0
  140.0190   71.5002  219.2295 H   0  0  0  0  0  0  0  0  0  0  0  0
  141.2704   70.2390  220.7925 H   0  0  0  0  0  0  0  0  0  0  0  0
  139.2060   70.2640  222.6920 H   0  0  0  0  0  0  0  0  0  0  0  0
  140.7813   71.5642  223.2220 H   0  0  0  0  0  0  0  0  0  0  0  0
  141.8774   72.1842  221.9724 H   0  0  0  0  0  0  0  0  0  0  0  0
  139.2253   73.2305  222.7902 H   0  0  0  0  0  0  0  0  0  0  0  0
  140.0261   76.7512  220.6606 H   0  0  0  0  0  0  0  0  0  0  0  0
  137.6364   77.4729  221.6816 H   0  0  0  0  0  0  0  0  0  0  0  0
  137.8606   75.9771  220.6960 H   0  0  0  0  0  0  0  0  0  0  0  0
  138.4860   75.2810  223.1050 H   0  0  0  0  0  0  0  0  0  0  0  0
  137.9936   78.2715  223.1747 H   0  0  0  0  0  0  0  0  0  0  0  0
  138.5913   80.3567  224.4067 H   0  0  0  0  0  0  0  0  0  0  0  0
  140.9336   81.2136  224.3582 H   0  0  0  0  0  0  0  0  0  0  0  0
  142.1112   77.8808  221.8661 H   0  0  0  0  0  0  0  0  0  0  0  0
  135.8031   69.2393  223.6663 H   0  0  0  0  0  0  0  0  0  0  0  0
  137.1648   67.9058  225.2857 H   0  0  0  0  0  0  0  0  0  0  0  0
  139.1780   67.7061  226.7092 H   0  0  0  0  0  0  0  0  0  0  0  0
  142.0429   70.9485  226.7954 H   0  0  0  0  0  0  0  0  0  0  0  0
  140.6408   72.2454  225.1879 H   0  0  0  0  0  0  0  0  0  0  0  0
  1  2  2  0
  2  3  1  0
  3  4  1  0
  4  5  1  0
  5  6  2  0
  5  7  1  0
  7  8  1  0
  8  9  1  0
  9 10  1  0
  9 11  1  0
 11 12  1  0
 12 13  1  0
 13 14  2  0
 13 15  1  0
 15 16  1  0
 16 17  1  0
 17 18  1  0
 16 19  1  0
 19 20  2  0
 20 21  1  0
 21 22  2  0
 22 23  1  0
 23 24  1  0
 23 25  2  0
  2 26  1  0
 26 27  2  0
 27 28  1  0
 28 29  2  0
 29 30  1  0
 30 31  2  0
 31 32  1  0
 31 33  1  0
 33 34  2  0
 34 35  1  0
 35 36  2  0
 12  7  1  0
 25 19  1  0
 36 26  1  0
 35 29  1  0
  3 37  1  0
  4 38  1  0
  4 39  1  0
  8 40  1  0
  8 41  1  0
  9 42  1  6
 10 43  1  0
 11 44  1  0
 11 45  1  0
 12 46  1  1
 16 47  1  6
 17 48  1  0
 17 49  1  0
 18 50  1  0
 20 51  1  0
 21 52  1  0
 22 53  1  0
 25 54  1  0
 27 55  1  0
 28 56  1  0
 30 57  1  0
 33 58  1  0
 34 59  1  0
M  CHG  1  15  -1
M  END
>  <UniqueID>  (52) 
155

>  <SMILES>  (52) 
O=C(NCC(=O)N1C[C@H](O)C[C@H]1C(=O)[N-][C@@H](CO)c1cccc(Cl)c1)c1ccc2cc(F)ccc2n1

>  <Energy>  (52) 
62.38473807919034

>  <Genealogy>  (52) 
O=C(NCC(=O)N1C[C@H](O)C[C@H]1C(=O)[N-][C@@H](CO)c1cccc(Cl)c1)c1ccc2cc(F)ccc2n1 (protonated)
O=C(NCC(=O)N1C[C@H](O)C[C@H]1C(=O)[N-][C@@H](CO)c1cccc(Cl)c1)c1ccc2cc(F)ccc2n1 (3D coordinates assigned)
O=C(NCC(=O)N1C[C@H](O)C[C@H]1C(=O)[N-][C@@H](CO)c1cccc(Cl)c1)c1ccc2cc(F)ccc2n1 (nonaromatic ring conformer: 62.38473807919034 kcal/mol)

>  <smiles>  (52) 
O=C(NCC(=O)N1C[C@H](O)C[C@H]1C(=O)N[C@@H](CO)c1cccc(Cl)c1)c1ccc2cc(F)ccc2n1

>  <score_type>  (52) 
oracle

>  <origin>  (52) 
autodockgpu

>  <m_score__min__energy>  (52) 
-8.4800000000000004

>  <m_primary>  (52) 
energy

>  <meeko>  (52) 
{"free_energy": -6.57, "intermolecular_energy": -9.85, "internal_energy": -5.39, "cluster_size": 3, "cluster_id": 5, "rank_in_cluster": 2}

>  <energy>  (52) 
-6.57

>  <cluster_rmsd>  (52) 
0.16

>  <rmsd>  (52) 
269.21

>  <cluster>  (52) 
5

$$$$
VCSRFCBMABBACK-DHMKUKBTNA-M
     RDKit          3D

 59 62  0  0  0  0  0  0  0  0999 V2000
  135.3110   71.4520  222.3620 O   0  0  0  0  0  0  0  0  0  0  0  0
  136.4350   71.8190  222.8030 C   0  0  0  0  0  0  0  0  0  0  0  0
  136.9870   73.0730  222.3920 N   0  0  0  0  0  0  0  0  0  0  0  0
  136.7890   73.5760  221.0360 C   0  0  0  0  0  0  0  0  0  0  0  0
  138.0130   73.3730  220.1890 C   0  0  0  0  0  0  0  0  0  0  0  0
  138.0080   73.7630  218.9910 O   0  0  0  0  0  0  0  0  0  0  0  0
  139.1560   72.6670  220.6970 N   0  0  0  0  0  0  0  0  0  0  0  0
  139.6020   71.4130  220.1230 C   0  0  0  0  0  0  0  0  0  0  0  0
  140.5350   70.7950  221.1610 C   0  0  2  0  0  0  0  0  0  0  0  0
  139.8500   69.8010  221.8780 O   0  0  0  0  0  0  0  0  0  0  0  0
  140.9410   71.9420  222.0980 C   0  0  0  0  0  0  0  0  0  0  0  0
  139.9290   73.0710  221.8630 C   0  0  1  0  0  0  0  0  0  0  0  0
  140.6320   74.3760  221.6020 C   0  0  0  0  0  0  0  0  0  0  0  0
  141.5640   74.4290  220.7530 O   0  0  0  0  0  0  0  0  0  0  0  0
  140.2610   75.5460  222.3380 N   0  0  0  0  0  0  0  0  0  0  0  0
  139.5760   76.6860  221.7330 C   0  0  1  0  0  0  0  0  0  0  0  0
  138.0580   76.4650  221.7930 C   0  0  0  0  0  0  0  0  0  0  0  0
  137.7130   75.6950  222.9130 O   0  0  0  0  0  0  0  0  0  0  0  0
  139.9620   77.9670  222.4410 C   0  0  0  0  0  0  0  0  0  0  0  0
  138.9930   78.7080  223.1390 C   0  0  0  0  0  0  0  0  0  0  0  0
  139.3500   79.8840  223.8070 C   0  0  0  0  0  0  0  0  0  0  0  0
  140.6740   80.3280  223.7880 C   0  0  0  0  0  0  0  0  0  0  0  0
  141.6490   79.5930  223.1060 C   0  0  0  0  0  0  0  0  0  0  0  0
  143.3160   80.1450  223.0910 Cl  0  0  0  0  0  0  0  0  0  0  0  0
  141.2980   78.4150  222.4400 C   0  0  0  0  0  0  0  0  0  0  0  0
  137.1930   70.9480  223.7160 C   0  0  0  0  0  0  0  0  0  0  0  0
  136.6950   69.6970  224.1130 C   0  0  0  0  0  0  0  0  0  0  0  0
  137.4510   68.8930  224.9700 C   0  0  0  0  0  0  0  0  0  0  0  0
  138.7070   69.3300  225.4080 C   0  0  0  0  0  0  0  0  0  0  0  0
  139.4960   68.5470  226.2650 C   0  0  0  0  0  0  0  0  0  0  0  0
  140.7530   69.0070  226.6730 C   0  0  0  0  0  0  0  0  0  0  0  0
  141.5140   68.2510  227.5030 F   0  0  0  0  0  0  0  0  0  0  0  0
  141.2290   70.2430  226.2240 C   0  0  0  0  0  0  0  0  0  0  0  0
  140.4500   71.0290  225.3680 C   0  0  0  0  0  0  0  0  0  0  0  0
  139.1850   70.5840  224.9680 C   0  0  0  0  0  0  0  0  0  0  0  0
  138.4180   71.3520  224.1500 N   0  0  0  0  0  0  0  0  0  0  0  0
  137.5840   73.5970  223.0680 H   0  0  0  0  0  0  0  0  0  0  0  0
  135.9440   73.0422  220.5766 H   0  0  0  0  0  0  0  0  0  0  0  0
  136.5852   74.6554  221.0947 H   0  0  0  0  0  0  0  0  0  0  0  0
  138.7444   70.7504  219.9348 H   0  0  0  0  0  0  0  0  0  0  0  0
  140.1093   71.5644  219.1588 H   0  0  0  0  0  0  0  0  0  0  0  0
  141.4153   70.3270  220.6962 H   0  0  0  0  0  0  0  0  0  0  0  0
  139.2020   70.2710  222.4660 H   0  0  0  0  0  0  0  0  0  0  0  0
  140.9032   71.6090  223.1457 H   0  0  0  0  0  0  0  0  0  0  0  0
  141.9685   72.2784  221.8952 H   0  0  0  0  0  0  0  0  0  0  0  0
  139.2895   73.2280  222.7442 H   0  0  0  0  0  0  0  0  0  0  0  0
  139.8792   76.7751  220.6794 H   0  0  0  0  0  0  0  0  0  0  0  0
  137.5533   77.4404  221.8560 H   0  0  0  0  0  0  0  0  0  0  0  0
  137.7424   75.9299  220.8852 H   0  0  0  0  0  0  0  0  0  0  0  0
  138.5280   75.1900  223.1720 H   0  0  0  0  0  0  0  0  0  0  0  0
  137.9492   78.3616  223.1601 H   0  0  0  0  0  0  0  0  0  0  0  0
  138.5858   80.4607  224.3488 H   0  0  0  0  0  0  0  0  0  0  0  0
  140.9501   81.2562  224.3097 H   0  0  0  0  0  0  0  0  0  0  0  0
  142.0691   77.8346  221.9122 H   0  0  0  0  0  0  0  0  0  0  0  0
  135.7152   69.3516  223.7515 H   0  0  0  0  0  0  0  0  0  0  0  0
  137.0603   67.9190  225.2998 H   0  0  0  0  0  0  0  0  0  0  0  0
  139.1264   67.5721  226.6158 H   0  0  0  0  0  0  0  0  0  0  0  0
  142.2193   70.5984  226.5450 H   0  0  0  0  0  0  0  0  0  0  0  0
  140.8317   71.9964  225.0096 H   0  0  0  0  0  0  0  0  0  0  0  0
  1  2  2  0
  2  3  1  0
  3  4  1  0
  4  5  1  0
  5  6  2  0
  5  7  1  0
  7  8  1  0
  8  9  1  0
  9 10  1  0
  9 11  1  0
 11 12  1  0
 12 13  1  0
 13 14  2  0
 13 15  1  0
 15 16  1  0
 16 17  1  0
 17 18  1  0
 16 19  1  0
 19 20  2  0
 20 21  1  0
 21 22  2  0
 22 23  1  0
 23 24  1  0
 23 25  2  0
  2 26  1  0
 26 27  2  0
 27 28  1  0
 28 29  2  0
 29 30  1  0
 30 31  2  0
 31 32  1  0
 31 33  1  0
 33 34  2  0
 34 35  1  0
 35 36  2  0
 12  7  1  0
 25 19  1  0
 36 26  1  0
 35 29  1  0
  3 37  1  0
  4 38  1  0
  4 39  1  0
  8 40  1  0
  8 41  1  0
  9 42  1  6
 10 43  1  0
 11 44  1  0
 11 45  1  0
 12 46  1  1
 16 47  1  6
 17 48  1  0
 17 49  1  0
 18 50  1  0
 20 51  1  0
 21 52  1  0
 22 53  1  0
 25 54  1  0
 27 55  1  0
 28 56  1  0
 30 57  1  0
 33 58  1  0
 34 59  1  0
M  CHG  1  15  -1
M  END
>  <UniqueID>  (53) 
155

>  <SMILES>  (53) 
O=C(NCC(=O)N1C[C@H](O)C[C@H]1C(=O)[N-][C@@H](CO)c1cccc(Cl)c1)c1ccc2cc(F)ccc2n1

>  <Energy>  (53) 
62.38473807919034

>  <Genealogy>  (53) 
O=C(NCC(=O)N1C[C@H](O)C[C@H]1C(=O)[N-][C@@H](CO)c1cccc(Cl)c1)c1ccc2cc(F)ccc2n1 (protonated)
O=C(NCC(=O)N1C[C@H](O)C[C@H]1C(=O)[N-][C@@H](CO)c1cccc(Cl)c1)c1ccc2cc(F)ccc2n1 (3D coordinates assigned)
O=C(NCC(=O)N1C[C@H](O)C[C@H]1C(=O)[N-][C@@H](CO)c1cccc(Cl)c1)c1ccc2cc(F)ccc2n1 (nonaromatic ring conformer: 62.38473807919034 kcal/mol)

>  <smiles>  (53) 
O=C(NCC(=O)N1C[C@H](O)C[C@H]1C(=O)N[C@@H](CO)c1cccc(Cl)c1)c1ccc2cc(F)ccc2n1

>  <score_type>  (53) 
oracle

>  <origin>  (53) 
autodockgpu

>  <m_score__min__energy>  (53) 
-8.4800000000000004

>  <m_primary>  (53) 
energy

>  <meeko>  (53) 
{"free_energy": -6.61, "intermolecular_energy": -9.89, "internal_energy": -5.35, "cluster_size": 3, "cluster_id": 5, "rank_in_cluster": 1}

>  <energy>  (53) 
-6.33

>  <cluster_rmsd>  (53) 
0.43

>  <rmsd>  (53) 
269.24

>  <cluster>  (53) 
5

$$$$
VCSRFCBMABBACK-DHMKUKBTNA-M
     RDKit          3D

 59 62  0  0  0  0  0  0  0  0999 V2000
  144.5880   73.6530  218.2870 O   0  0  0  0  0  0  0  0  0  0  0  0
  144.0250   74.5110  219.0200 C   0  0  0  0  0  0  0  0  0  0  0  0
  143.7930   74.2260  220.4020 N   0  0  0  0  0  0  0  0  0  0  0  0
  143.4460   72.8800  220.8460 C   0  0  0  0  0  0  0  0  0  0  0  0
  141.9690   72.6260  220.7370 C   0  0  0  0  0  0  0  0  0  0  0  0
  141.5000   71.5250  221.1290 O   0  0  0  0  0  0  0  0  0  0  0  0
  141.0980   73.5840  220.1150 N   0  0  0  0  0  0  0  0  0  0  0  0
  140.4610   73.3290  218.8380 C   0  0  0  0  0  0  0  0  0  0  0  0
  139.9850   74.6900  218.3380 C   0  0  2  0  0  0  0  0  0  0  0  0
  140.8850   75.1800  217.3770 O   0  0  0  0  0  0  0  0  0  0  0  0
  139.9700   75.6090  219.5680 C   0  0  0  0  0  0  0  0  0  0  0  0
  140.8250   74.9160  220.6360 C   0  0  1  0  0  0  0  0  0  0  0  0
  140.0820   74.8270  221.9430 C   0  0  0  0  0  0  0  0  0  0  0  0
  139.6370   73.7150  222.3380 O   0  0  0  0  0  0  0  0  0  0  0  0
  139.8590   76.0090  222.7180 N   0  0  0  0  0  0  0  0  0  0  0  0
  139.0610   77.1370  222.2420 C   0  0  1  0  0  0  0  0  0  0  0  0
  137.6090   76.9760  222.7120 C   0  0  0  0  0  0  0  0  0  0  0  0
  137.3770   75.6700  223.1650 O   0  0  0  0  0  0  0  0  0  0  0  0
  139.6470   78.4420  222.7380 C   0  0  0  0  0  0  0  0  0  0  0  0
  138.8100   79.4280  223.2870 C   0  0  0  0  0  0  0  0  0  0  0  0
  139.3490   80.6280  223.7610 C   0  0  0  0  0  0  0  0  0  0  0  0
  140.7260   80.8530  223.6960 C   0  0  0  0  0  0  0  0  0  0  0  0
  141.5700   79.8740  223.1630 C   0  0  0  0  0  0  0  0  0  0  0  0
  143.3030   80.1530  223.0900 Cl  0  0  0  0  0  0  0  0  0  0  0  0
  141.0370   78.6720  222.6900 C   0  0  0  0  0  0  0  0  0  0  0  0
  143.5820   75.7950  218.4520 C   0  0  0  0  0  0  0  0  0  0  0  0
  143.7560   76.0890  217.0900 C   0  0  0  0  0  0  0  0  0  0  0  0
  143.3080   77.3130  216.5860 C   0  0  0  0  0  0  0  0  0  0  0  0
  142.6700   78.2250  217.4350 C   0  0  0  0  0  0  0  0  0  0  0  0
  142.2030   79.4620  216.9620 C   0  0  0  0  0  0  0  0  0  0  0  0
  141.5570   80.3450  217.8340 C   0  0  0  0  0  0  0  0  0  0  0  0
  141.1070   81.5400  217.3770 F   0  0  0  0  0  0  0  0  0  0  0  0
  141.3690   79.9960  219.1760 C   0  0  0  0  0  0  0  0  0  0  0  0
  141.8300   78.7660  219.6550 C   0  0  0  0  0  0  0  0  0  0  0  0
  142.4910   77.8840  218.7940 C   0  0  0  0  0  0  0  0  0  0  0  0
  142.9550   76.6940  219.2590 N   0  0  0  0  0  0  0  0  0  0  0  0
  143.8220   75.0160  221.0830 H   0  0  0  0  0  0  0  0  0  0  0  0
  143.9811   72.1491  220.2220 H   0  0  0  0  0  0  0  0  0  0  0  0
  143.7355   72.7805  221.9025 H   0  0  0  0  0  0  0  0  0  0  0  0
  141.1803   72.8902  218.1309 H   0  0  0  0  0  0  0  0  0  0  0  0
  139.6285   72.6164  218.9334 H   0  0  0  0  0  0  0  0  0  0  0  0
  138.9915   74.6315  217.8694 H   0  0  0  0  0  0  0  0  0  0  0  0
  141.4700   75.8330  217.8430 H   0  0  0  0  0  0  0  0  0  0  0  0
  140.3984   76.5901  219.3152 H   0  0  0  0  0  0  0  0  0  0  0  0
  138.9441   75.7789  219.9266 H   0  0  0  0  0  0  0  0  0  0  0  0
  141.7507   75.4757  220.8358 H   0  0  0  0  0  0  0  0  0  0  0  0
  139.0760   77.1540  221.1422 H   0  0  0  0  0  0  0  0  0  0  0  0
  137.4145   77.6826  223.5323 H   0  0  0  0  0  0  0  0  0  0  0  0
  136.9381   77.1809  221.8647 H   0  0  0  0  0  0  0  0  0  0  0  0
  138.2510   75.1990  223.1340 H   0  0  0  0  0  0  0  0  0  0  0  0
  137.7252   79.2550  223.3442 H   0  0  0  0  0  0  0  0  0  0  0  0
  138.6869   81.3967  224.1861 H   0  0  0  0  0  0  0  0  0  0  0  0
  141.1464   81.8005  224.0642 H   0  0  0  0  0  0  0  0  0  0  0  0
  141.7053   77.9015  222.2782 H   0  0  0  0  0  0  0  0  0  0  0  0
  144.2418   75.3606  216.4241 H   0  0  0  0  0  0  0  0  0  0  0  0
  143.4564   77.5593  215.5243 H   0  0  0  0  0  0  0  0  0  0  0  0
  142.3450   79.7366  215.9063 H   0  0  0  0  0  0  0  0  0  0  0  0
  140.8566   80.6919  219.8566 H   0  0  0  0  0  0  0  0  0  0  0  0
  141.6729   78.4921  220.7087 H   0  0  0  0  0  0  0  0  0  0  0  0
  1  2  2  0
  2  3  1  0
  3  4  1  0
  4  5  1  0
  5  6  2  0
  5  7  1  0
  7  8  1  0
  8  9  1  0
  9 10  1  0
  9 11  1  0
 11 12  1  0
 12 13  1  0
 13 14  2  0
 13 15  1  0
 15 16  1  0
 16 17  1  0
 17 18  1  0
 16 19  1  0
 19 20  2  0
 20 21  1  0
 21 22  2  0
 22 23  1  0
 23 24  1  0
 23 25  2  0
  2 26  1  0
 26 27  2  0
 27 28  1  0
 28 29  2  0
 29 30  1  0
 30 31  2  0
 31 32  1  0
 31 33  1  0
 33 34  2  0
 34 35  1  0
 35 36  2  0
 12  7  1  0
 25 19  1  0
 36 26  1  0
 35 29  1  0
  3 37  1  0
  4 38  1  0
  4 39  1  0
  8 40  1  0
  8 41  1  0
  9 42  1  6
 10 43  1  0
 11 44  1  0
 11 45  1  0
 12 46  1  1
 16 47  1  6
 17 48  1  0
 17 49  1  0
 18 50  1  0
 20 51  1  0
 21 52  1  0
 22 53  1  0
 25 54  1  0
 27 55  1  0
 28 56  1  0
 30 57  1  0
 33 58  1  0
 34 59  1  0
M  CHG  1  15  -1
M  END
>  <UniqueID>  (54) 
155

>  <SMILES>  (54) 
O=C(NCC(=O)N1C[C@H](O)C[C@H]1C(=O)[N-][C@@H](CO)c1cccc(Cl)c1)c1ccc2cc(F)ccc2n1

>  <Energy>  (54) 
62.38473807919034

>  <Genealogy>  (54) 
O=C(NCC(=O)N1C[C@H](O)C[C@H]1C(=O)[N-][C@@H](CO)c1cccc(Cl)c1)c1ccc2cc(F)ccc2n1 (protonated)
O=C(NCC(=O)N1C[C@H](O)C[C@H]1C(=O)[N-][C@@H](CO)c1cccc(Cl)c1)c1ccc2cc(F)ccc2n1 (3D coordinates assigned)
O=C(NCC(=O)N1C[C@H](O)C[C@H]1C(=O)[N-][C@@H](CO)c1cccc(Cl)c1)c1ccc2cc(F)ccc2n1 (nonaromatic ring conformer: 62.38473807919034 kcal/mol)

>  <smiles>  (54) 
O=C(NCC(=O)N1C[C@H](O)C[C@H]1C(=O)N[C@@H](CO)c1cccc(Cl)c1)c1ccc2cc(F)ccc2n1

>  <score_type>  (54) 
oracle

>  <origin>  (54) 
autodockgpu

>  <m_score__min__energy>  (54) 
-8.4800000000000004

>  <m_primary>  (54) 
energy

>  <meeko>  (54) 
{"free_energy": -5.76, "intermolecular_energy": -9.04, "internal_energy": -5.75, "cluster_size": 1, "cluster_id": 8, "rank_in_cluster": 1}

>  <energy>  (54) 
-6.34

>  <cluster_rmsd>  (54) 
0.0

>  <rmsd>  (54) 
268.46

>  <cluster>  (54) 
6

$$$$
VCSRFCBMABBACK-DHMKUKBTNA-M
     RDKit          3D

 59 62  0  0  0  0  0  0  0  0999 V2000
  140.8180   72.9310  222.3420 O   0  0  0  0  0  0  0  0  0  0  0  0
  141.1320   73.4570  221.2390 C   0  0  0  0  0  0  0  0  0  0  0  0
  141.6640   72.6450  220.1880 N   0  0  0  0  0  0  0  0  0  0  0  0
  142.5450   71.5190  220.4780 C   0  0  0  0  0  0  0  0  0  0  0  0
  142.5240   70.5030  219.3710 C   0  0  0  0  0  0  0  0  0  0  0  0
  141.4380   70.2450  218.7880 O   0  0  0  0  0  0  0  0  0  0  0  0
  143.7060   69.7630  219.0230 N   0  0  0  0  0  0  0  0  0  0  0  0
  143.8560   68.3590  219.3490 C   0  0  0  0  0  0  0  0  0  0  0  0
  145.3460   68.0610  219.2050 C   0  0  2  0  0  0  0  0  0  0  0  0
  145.9470   68.0430  220.4740 O   0  0  0  0  0  0  0  0  0  0  0  0
  145.9240   69.2050  218.3600 C   0  0  0  0  0  0  0  0  0  0  0  0
  144.8890   70.3360  218.3970 C   0  0  1  0  0  0  0  0  0  0  0  0
  144.5680   70.8150  217.0060 C   0  0  0  0  0  0  0  0  0  0  0  0
  143.8630   70.1000  216.2430 O   0  0  0  0  0  0  0  0  0  0  0  0
  145.0880   72.0650  216.5440 N   0  0  0  0  0  0  0  0  0  0  0  0
  144.3140   73.3050  216.5530 C   0  0  1  0  0  0  0  0  0  0  0  0
  142.8590   73.0060  216.1650 C   0  0  0  0  0  0  0  0  0  0  0  0
  142.1740   72.4130  217.2340 O   0  0  0  0  0  0  0  0  0  0  0  0
  144.3850   73.9590  217.9170 C   0  0  0  0  0  0  0  0  0  0  0  0
  143.6370   75.1190  218.1820 C   0  0  0  0  0  0  0  0  0  0  0  0
  143.6870   75.7180  219.4450 C   0  0  0  0  0  0  0  0  0  0  0  0
  144.4790   75.1640  220.4530 C   0  0  0  0  0  0  0  0  0  0  0  0
  145.2190   74.0040  220.2040 C   0  0  0  0  0  0  0  0  0  0  0  0
  146.2070   73.3010  221.4740 Cl  0  0  0  0  0  0  0  0  0  0  0  0
  145.1700   73.3990  218.9440 C   0  0  0  0  0  0  0  0  0  0  0  0
  140.9800   74.9070  221.0390 C   0  0  0  0  0  0  0  0  0  0  0  0
  140.5220   75.4320  219.8200 C   0  0  0  0  0  0  0  0  0  0  0  0
  140.3760   76.8140  219.6740 C   0  0  0  0  0  0  0  0  0  0  0  0
  140.6650   77.6620  220.7490 C   0  0  0  0  0  0  0  0  0  0  0  0
  140.5250   79.0550  220.6400 C   0  0  0  0  0  0  0  0  0  0  0  0
  140.8100   79.8740  221.7380 C   0  0  0  0  0  0  0  0  0  0  0  0
  140.6760   81.2200  221.6320 F   0  0  0  0  0  0  0  0  0  0  0  0
  141.2270   79.3080  222.9480 C   0  0  0  0  0  0  0  0  0  0  0  0
  141.3670   77.9210  223.0650 C   0  0  0  0  0  0  0  0  0  0  0  0
  141.1000   77.0970  221.9680 C   0  0  0  0  0  0  0  0  0  0  0  0
  141.2510   75.7500  222.0730 N   0  0  0  0  0  0  0  0  0  0  0  0
  141.4530   72.9110  219.2020 H   0  0  0  0  0  0  0  0  0  0  0  0
  143.5725   71.8918  220.6014 H   0  0  0  0  0  0  0  0  0  0  0  0
  142.1912   71.0327  221.3991 H   0  0  0  0  0  0  0  0  0  0  0  0
  143.5238   68.1666  220.3798 H   0  0  0  0  0  0  0  0  0  0  0  0
  143.2479   67.7211  218.6907 H   0  0  0  0  0  0  0  0  0  0  0  0
  145.5269   67.0838  218.7335 H   0  0  0  0  0  0  0  0  0  0  0  0
  146.4920   67.2140  220.5190 H   0  0  0  0  0  0  0  0  0  0  0  0
  146.8782   69.5483  218.7863 H   0  0  0  0  0  0  0  0  0  0  0  0
  146.1213   68.8785  217.3283 H   0  0  0  0  0  0  0  0  0  0  0  0
  145.2652   71.2078  218.9524 H   0  0  0  0  0  0  0  0  0  0  0  0
  144.7391   74.0046  215.8183 H   0  0  0  0  0  0  0  0  0  0  0  0
  142.3575   73.9461  215.8916 H   0  0  0  0  0  0  0  0  0  0  0  0
  142.8556   72.3104  215.3129 H   0  0  0  0  0  0  0  0  0  0  0  0
  142.4360   71.4550  217.2440 H   0  0  0  0  0  0  0  0  0  0  0  0
  143.0093   75.5579  217.3925 H   0  0  0  0  0  0  0  0  0  0  0  0
  143.1012   76.6274  219.6447 H   0  0  0  0  0  0  0  0  0  0  0  0
  144.5207   75.6405  221.4436 H   0  0  0  0  0  0  0  0  0  0  0  0
  145.7469   72.4819  218.7541 H   0  0  0  0  0  0  0  0  0  0  0  0
  140.2794   74.7590  218.9844 H   0  0  0  0  0  0  0  0  0  0  0  0
  140.0348   77.2343  218.7164 H   0  0  0  0  0  0  0  0  0  0  0  0
  140.1914   79.5020  219.6919 H   0  0  0  0  0  0  0  0  0  0  0  0
  141.4454   79.9557  223.8098 H   0  0  0  0  0  0  0  0  0  0  0  0
  141.6871   77.4790  224.0201 H   0  0  0  0  0  0  0  0  0  0  0  0
  1  2  2  0
  2  3  1  0
  3  4  1  0
  4  5  1  0
  5  6  2  0
  5  7  1  0
  7  8  1  0
  8  9  1  0
  9 10  1  0
  9 11  1  0
 11 12  1  0
 12 13  1  0
 13 14  2  0
 13 15  1  0
 15 16  1  0
 16 17  1  0
 17 18  1  0
 16 19  1  0
 19 20  2  0
 20 21  1  0
 21 22  2  0
 22 23  1  0
 23 24  1  0
 23 25  2  0
  2 26  1  0
 26 27  2  0
 27 28  1  0
 28 29  2  0
 29 30  1  0
 30 31  2  0
 31 32  1  0
 31 33  1  0
 33 34  2  0
 34 35  1  0
 35 36  2  0
 12  7  1  0
 25 19  1  0
 36 26  1  0
 35 29  1  0
  3 37  1  0
  4 38  1  0
  4 39  1  0
  8 40  1  0
  8 41  1  0
  9 42  1  6
 10 43  1  0
 11 44  1  0
 11 45  1  0
 12 46  1  1
 16 47  1  6
 17 48  1  0
 17 49  1  0
 18 50  1  0
 20 51  1  0
 21 52  1  0
 22 53  1  0
 25 54  1  0
 27 55  1  0
 28 56  1  0
 30 57  1  0
 33 58  1  0
 34 59  1  0
M  CHG  1  15  -1
M  END
>  <UniqueID>  (55) 
155

>  <SMILES>  (55) 
O=C(NCC(=O)N1C[C@H](O)C[C@H]1C(=O)[N-][C@@H](CO)c1cccc(Cl)c1)c1ccc2cc(F)ccc2n1

>  <Energy>  (55) 
62.38473807919034

>  <Genealogy>  (55) 
O=C(NCC(=O)N1C[C@H](O)C[C@H]1C(=O)[N-][C@@H](CO)c1cccc(Cl)c1)c1ccc2cc(F)ccc2n1 (protonated)
O=C(NCC(=O)N1C[C@H](O)C[C@H]1C(=O)[N-][C@@H](CO)c1cccc(Cl)c1)c1ccc2cc(F)ccc2n1 (3D coordinates assigned)
O=C(NCC(=O)N1C[C@H](O)C[C@H]1C(=O)[N-][C@@H](CO)c1cccc(Cl)c1)c1ccc2cc(F)ccc2n1 (nonaromatic ring conformer: 62.38473807919034 kcal/mol)

>  <smiles>  (55) 
O=C(NCC(=O)N1C[C@H](O)C[C@H]1C(=O)N[C@@H](CO)c1cccc(Cl)c1)c1ccc2cc(F)ccc2n1

>  <score_type>  (55) 
oracle

>  <origin>  (55) 
autodockgpu

>  <m_score__min__energy>  (55) 
-8.4800000000000004

>  <m_primary>  (55) 
energy

>  <meeko>  (55) 
{"free_energy": -5.7, "intermolecular_energy": -8.98, "internal_energy": -5.62, "cluster_size": 1, "cluster_id": 9, "rank_in_cluster": 1}

>  <energy>  (55) 
-5.76

>  <cluster_rmsd>  (55) 
0.0

>  <rmsd>  (55) 
269.71

>  <cluster>  (55) 
7

$$$$
VCSRFCBMABBACK-DHMKUKBTNA-M
     RDKit          3D

 59 62  0  0  0  0  0  0  0  0999 V2000
  139.7060   75.7720  220.1440 O   0  0  0  0  0  0  0  0  0  0  0  0
  140.4140   75.0810  220.9270 C   0  0  0  0  0  0  0  0  0  0  0  0
  141.7810   75.4360  221.1530 N   0  0  0  0  0  0  0  0  0  0  0  0
  142.6050   75.9850  220.0820 C   0  0  0  0  0  0  0  0  0  0  0  0
  143.0990   74.9070  219.1590 C   0  0  0  0  0  0  0  0  0  0  0  0
  143.3850   75.1950  217.9660 O   0  0  0  0  0  0  0  0  0  0  0  0
  143.1700   73.5380  219.5900 N   0  0  0  0  0  0  0  0  0  0  0  0
  142.2540   72.5290  219.0980 C   0  0  0  0  0  0  0  0  0  0  0  0
  142.3720   71.3580  220.0700 C   0  0  2  0  0  0  0  0  0  0  0  0
  141.2910   71.3780  220.9650 O   0  0  0  0  0  0  0  0  0  0  0  0
  143.6920   71.5700  220.8250 C   0  0  0  0  0  0  0  0  0  0  0  0
  144.0870   73.0350  220.6040 C   0  0  1  0  0  0  0  0  0  0  0  0
  145.5100   73.1400  220.1230 C   0  0  0  0  0  0  0  0  0  0  0  0
  146.2270   74.1110  220.4900 O   0  0  0  0  0  0  0  0  0  0  0  0
  146.0350   72.1540  219.2290 N   0  0  0  0  0  0  0  0  0  0  0  0
  145.3820   71.7850  217.9750 C   0  0  1  0  0  0  0  0  0  0  0  0
  145.8240   72.7450  216.8620 C   0  0  0  0  0  0  0  0  0  0  0  0
  146.6800   73.7320  217.3710 O   0  0  0  0  0  0  0  0  0  0  0  0
  145.7110   70.3520  217.6130 C   0  0  0  0  0  0  0  0  0  0  0  0
  146.2960   70.0550  216.3700 C   0  0  0  0  0  0  0  0  0  0  0  0
  146.6150   68.7350  216.0380 C   0  0  0  0  0  0  0  0  0  0  0  0
  146.3590   67.7020  216.9420 C   0  0  0  0  0  0  0  0  0  0  0  0
  145.7880   67.9870  218.1870 C   0  0  0  0  0  0  0  0  0  0  0  0
  145.4750   66.6900  219.3280 Cl  0  0  0  0  0  0  0  0  0  0  0  0
  145.4690   69.3060  218.5250 C   0  0  0  0  0  0  0  0  0  0  0  0
  139.8460   73.8940  221.5860 C   0  0  0  0  0  0  0  0  0  0  0  0
  138.7090   73.2480  221.0740 C   0  0  0  0  0  0  0  0  0  0  0  0
  138.2090   72.1150  221.7210 C   0  0  0  0  0  0  0  0  0  0  0  0
  138.8560   71.6190  222.8580 C   0  0  0  0  0  0  0  0  0  0  0  0
  138.3840   70.4800  223.5310 C   0  0  0  0  0  0  0  0  0  0  0  0
  139.0630   70.0030  224.6570 C   0  0  0  0  0  0  0  0  0  0  0  0
  138.6060   68.9030  225.3070 F   0  0  0  0  0  0  0  0  0  0  0  0
  140.2150   70.6530  225.1120 C   0  0  0  0  0  0  0  0  0  0  0  0
  140.6920   71.7870  224.4470 C   0  0  0  0  0  0  0  0  0  0  0  0
  140.0110   72.2810  223.3300 C   0  0  0  0  0  0  0  0  0  0  0  0
  140.4620   73.3920  222.6910 N   0  0  0  0  0  0  0  0  0  0  0  0
  142.1940   75.2420  222.0910 H   0  0  0  0  0  0  0  0  0  0  0  0
  142.0065   76.7042  219.5035 H   0  0  0  0  0  0  0  0  0  0  0  0
  143.4778   76.4772  220.5359 H   0  0  0  0  0  0  0  0  0  0  0  0
  141.2248   72.9171  219.0876 H   0  0  0  0  0  0  0  0  0  0  0  0
  142.4949   72.2284  218.0677 H   0  0  0  0  0  0  0  0  0  0  0  0
  142.3591   70.3885  219.5506 H   0  0  0  0  0  0  0  0  0  0  0  0
  141.4380   72.1510  221.5710 H   0  0  0  0  0  0  0  0  0  0  0  0
  143.5527   71.3713  221.8979 H   0  0  0  0  0  0  0  0  0  0  0  0
  144.4737   70.8871  220.4608 H   0  0  0  0  0  0  0  0  0  0  0  0
  144.0250   73.6138  221.5373 H   0  0  0  0  0  0  0  0  0  0  0  0
  144.2915   71.8633  218.0964 H   0  0  0  0  0  0  0  0  0  0  0  0
  146.3519   72.1759  216.0826 H   0  0  0  0  0  0  0  0  0  0  0  0
  144.9327   73.2325  216.4403 H   0  0  0  0  0  0  0  0  0  0  0  0
  146.3500   73.9540  218.2800 H   0  0  0  0  0  0  0  0  0  0  0  0
  146.5038   70.8649  215.6552 H   0  0  0  0  0  0  0  0  0  0  0  0
  147.0690   68.5095  215.0618 H   0  0  0  0  0  0  0  0  0  0  0  0
  146.6063   66.6639  216.6752 H   0  0  0  0  0  0  0  0  0  0  0  0
  145.0270   69.5277  219.5076 H   0  0  0  0  0  0  0  0  0  0  0  0
  138.2150   73.6316  220.1691 H   0  0  0  0  0  0  0  0  0  0  0  0
  137.3082   71.6138  221.3370 H   0  0  0  0  0  0  0  0  0  0  0  0
  137.4812   69.9636  223.1728 H   0  0  0  0  0  0  0  0  0  0  0  0
  140.7473   70.2710  225.9956 H   0  0  0  0  0  0  0  0  0  0  0  0
  141.6031   72.2905  224.8027 H   0  0  0  0  0  0  0  0  0  0  0  0
  1  2  2  0
  2  3  1  0
  3  4  1  0
  4  5  1  0
  5  6  2  0
  5  7  1  0
  7  8  1  0
  8  9  1  0
  9 10  1  0
  9 11  1  0
 11 12  1  0
 12 13  1  0
 13 14  2  0
 13 15  1  0
 15 16  1  0
 16 17  1  0
 17 18  1  0
 16 19  1  0
 19 20  2  0
 20 21  1  0
 21 22  2  0
 22 23  1  0
 23 24  1  0
 23 25  2  0
  2 26  1  0
 26 27  2  0
 27 28  1  0
 28 29  2  0
 29 30  1  0
 30 31  2  0
 31 32  1  0
 31 33  1  0
 33 34  2  0
 34 35  1  0
 35 36  2  0
 12  7  1  0
 25 19  1  0
 36 26  1  0
 35 29  1  0
  3 37  1  0
  4 38  1  0
  4 39  1  0
  8 40  1  0
  8 41  1  0
  9 42  1  6
 10 43  1  0
 11 44  1  0
 11 45  1  0
 12 46  1  1
 16 47  1  1
 17 48  1  0
 17 49  1  0
 18 50  1  0
 20 51  1  0
 21 52  1  0
 22 53  1  0
 25 54  1  0
 27 55  1  0
 28 56  1  0
 30 57  1  0
 33 58  1  0
 34 59  1  0
M  CHG  1  15  -1
M  END
>  <UniqueID>  (56) 
155

>  <SMILES>  (56) 
O=C(NCC(=O)N1C[C@H](O)C[C@H]1C(=O)[N-][C@@H](CO)c1cccc(Cl)c1)c1ccc2cc(F)ccc2n1

>  <Energy>  (56) 
62.38473807919034

>  <Genealogy>  (56) 
O=C(NCC(=O)N1C[C@H](O)C[C@H]1C(=O)[N-][C@@H](CO)c1cccc(Cl)c1)c1ccc2cc(F)ccc2n1 (protonated)
O=C(NCC(=O)N1C[C@H](O)C[C@H]1C(=O)[N-][C@@H](CO)c1cccc(Cl)c1)c1ccc2cc(F)ccc2n1 (3D coordinates assigned)
O=C(NCC(=O)N1C[C@H](O)C[C@H]1C(=O)[N-][C@@H](CO)c1cccc(Cl)c1)c1ccc2cc(F)ccc2n1 (nonaromatic ring conformer: 62.38473807919034 kcal/mol)

>  <smiles>  (56) 
O=C(NCC(=O)N1C[C@H](O)C[C@H]1C(=O)N[C@@H](CO)c1cccc(Cl)c1)c1ccc2cc(F)ccc2n1

>  <score_type>  (56) 
oracle

>  <origin>  (56) 
autodockgpu

>  <m_score__min__energy>  (56) 
-8.4800000000000004

>  <m_primary>  (56) 
energy

>  <meeko>  (56) 
{"free_energy": -6.95, "intermolecular_energy": -10.23, "internal_energy": -5.35, "cluster_size": 1, "cluster_id": 4, "rank_in_cluster": 1}

>  <energy>  (56) 
-4.28

>  <cluster_rmsd>  (56) 
1.79

>  <rmsd>  (56) 
269.1

>  <cluster>  (56) 
7

$$$$
VCSRFCBMABBACK-DHMKUKBTNA-M
     RDKit          3D

 59 62  0  0  0  0  0  0  0  0999 V2000
  138.7700   71.0670  221.5900 O   0  0  0  0  0  0  0  0  0  0  0  0
  139.3710   71.4760  222.6210 C   0  0  0  0  0  0  0  0  0  0  0  0
  139.9530   72.7820  222.6350 N   0  0  0  0  0  0  0  0  0  0  0  0
  140.5650   73.3490  221.4380 C   0  0  0  0  0  0  0  0  0  0  0  0
  141.6950   72.4940  220.9380 C   0  0  0  0  0  0  0  0  0  0  0  0
  141.5350   71.2480  220.8450 O   0  0  0  0  0  0  0  0  0  0  0  0
  142.9810   73.0640  220.6460 N   0  0  0  0  0  0  0  0  0  0  0  0
  144.1500   72.2410  220.4060 C   0  0  0  0  0  0  0  0  0  0  0  0
  145.3470   73.1760  220.5510 C   0  0  2  0  0  0  0  0  0  0  0  0
  145.9340   72.9970  221.8150 O   0  0  0  0  0  0  0  0  0  0  0  0
  144.7870   74.6000  220.4220 C   0  0  0  0  0  0  0  0  0  0  0  0
  143.2730   74.4910  220.6380 C   0  0  1  0  0  0  0  0  0  0  0  0
  142.5220   75.1740  219.5250 C   0  0  0  0  0  0  0  0  0  0  0  0
  142.6620   74.7770  218.3370 O   0  0  0  0  0  0  0  0  0  0  0  0
  141.6770   76.2900  219.8180 N   0  0  0  0  0  0  0  0  0  0  0  0
  142.1840   77.6450  220.0250 C   0  0  1  0  0  0  0  0  0  0  0  0
  141.9100   78.4950  218.7770 C   0  0  0  0  0  0  0  0  0  0  0  0
  141.7370   77.6780  217.6510 O   0  0  0  0  0  0  0  0  0  0  0  0
  141.5460   78.2640  221.2500 C   0  0  0  0  0  0  0  0  0  0  0  0
  140.3500   77.7360  221.7660 C   0  0  0  0  0  0  0  0  0  0  0  0
  139.7660   78.2950  222.9070 C   0  0  0  0  0  0  0  0  0  0  0  0
  140.3700   79.3810  223.5440 C   0  0  0  0  0  0  0  0  0  0  0  0
  141.5660   79.9080  223.0470 C   0  0  0  0  0  0  0  0  0  0  0  0
  142.3310   81.2670  223.8540 Cl  0  0  0  0  0  0  0  0  0  0  0  0
  142.1560   79.3510  221.9090 C   0  0  0  0  0  0  0  0  0  0  0  0
  139.5000   70.6030  223.7980 C   0  0  0  0  0  0  0  0  0  0  0  0
  139.0610   69.2690  223.7700 C   0  0  0  0  0  0  0  0  0  0  0  0
  139.2140   68.4680  224.9050 C   0  0  0  0  0  0  0  0  0  0  0  0
  139.8250   68.9910  226.0510 C   0  0  0  0  0  0  0  0  0  0  0  0
  140.0000   68.2140  227.2060 C   0  0  0  0  0  0  0  0  0  0  0  0
  140.6250   68.7640  228.3310 C   0  0  0  0  0  0  0  0  0  0  0  0
  140.7930   68.0120  229.4470 F   0  0  0  0  0  0  0  0  0  0  0  0
  141.0840   70.0850  228.3040 C   0  0  0  0  0  0  0  0  0  0  0  0
  140.9150   70.8660  227.1560 C   0  0  0  0  0  0  0  0  0  0  0  0
  140.2760   70.3300  226.0330 C   0  0  0  0  0  0  0  0  0  0  0  0
  140.0950   71.0900  224.9210 N   0  0  0  0  0  0  0  0  0  0  0  0
  139.9800   73.3020  223.5390 H   0  0  0  0  0  0  0  0  0  0  0  0
  139.8016   73.4287  220.6500 H   0  0  0  0  0  0  0  0  0  0  0  0
  140.9694   74.3394  221.6939 H   0  0  0  0  0  0  0  0  0  0  0  0
  144.2058   71.4284  221.1453 H   0  0  0  0  0  0  0  0  0  0  0  0
  144.1193   71.7703  219.4123 H   0  0  0  0  0  0  0  0  0  0  0  0
  146.1179   72.9787  219.7915 H   0  0  0  0  0  0  0  0  0  0  0  0
  145.9260   72.0210  221.9960 H   0  0  0  0  0  0  0  0  0  0  0  0
  145.2339   75.2550  221.1844 H   0  0  0  0  0  0  0  0  0  0  0  0
  145.0193   75.0322  219.4375 H   0  0  0  0  0  0  0  0  0  0  0  0
  142.9640   74.9785  221.5744 H   0  0  0  0  0  0  0  0  0  0  0  0
  143.2705   77.6040  220.1919 H   0  0  0  0  0  0  0  0  0  0  0  0
  140.9974   79.0880  218.9369 H   0  0  0  0  0  0  0  0  0  0  0  0
  142.7701   79.1587  218.6045 H   0  0  0  0  0  0  0  0  0  0  0  0
  141.8380   76.7400  217.9600 H   0  0  0  0  0  0  0  0  0  0  0  0
  139.8711   76.8789  221.2699 H   0  0  0  0  0  0  0  0  0  0  0  0
  138.8285   77.8782  223.3037 H   0  0  0  0  0  0  0  0  0  0  0  0
  139.9045   79.8223  224.4376 H   0  0  0  0  0  0  0  0  0  0  0  0
  143.1012   79.7628  221.5255 H   0  0  0  0  0  0  0  0  0  0  0  0
  138.5996   68.8573  222.8603 H   0  0  0  0  0  0  0  0  0  0  0  0
  138.8549   67.4283  224.8979 H   0  0  0  0  0  0  0  0  0  0  0  0
  139.6461   67.1727  227.2273 H   0  0  0  0  0  0  0  0  0  0  0  0
  141.5796   70.5112  229.1887 H   0  0  0  0  0  0  0  0  0  0  0  0
  141.2846   71.9018  227.1363 H   0  0  0  0  0  0  0  0  0  0  0  0
  1  2  2  0
  2  3  1  0
  3  4  1  0
  4  5  1  0
  5  6  2  0
  5  7  1  0
  7  8  1  0
  8  9  1  0
  9 10  1  0
  9 11  1  0
 11 12  1  0
 12 13  1  0
 13 14  2  0
 13 15  1  0
 15 16  1  0
 16 17  1  0
 17 18  1  0
 16 19  1  0
 19 20  2  0
 20 21  1  0
 21 22  2  0
 22 23  1  0
 23 24  1  0
 23 25  2  0
  2 26  1  0
 26 27  2  0
 27 28  1  0
 28 29  2  0
 29 30  1  0
 30 31  2  0
 31 32  1  0
 31 33  1  0
 33 34  2  0
 34 35  1  0
 35 36  2  0
 12  7  1  0
 25 19  1  0
 36 26  1  0
 35 29  1  0
  3 37  1  0
  4 38  1  0
  4 39  1  0
  8 40  1  0
  8 41  1  0
  9 42  1  6
 10 43  1  0
 11 44  1  0
 11 45  1  0
 12 46  1  1
 16 47  1  1
 17 48  1  0
 17 49  1  0
 18 50  1  0
 20 51  1  0
 21 52  1  0
 22 53  1  0
 25 54  1  0
 27 55  1  0
 28 56  1  0
 30 57  1  0
 33 58  1  0
 34 59  1  0
M  CHG  1  15  -1
M  END
>  <UniqueID>  (57) 
155

>  <SMILES>  (57) 
O=C(NCC(=O)N1C[C@H](O)C[C@H]1C(=O)[N-][C@@H](CO)c1cccc(Cl)c1)c1ccc2cc(F)ccc2n1

>  <Energy>  (57) 
62.38473807919034

>  <Genealogy>  (57) 
O=C(NCC(=O)N1C[C@H](O)C[C@H]1C(=O)[N-][C@@H](CO)c1cccc(Cl)c1)c1ccc2cc(F)ccc2n1 (protonated)
O=C(NCC(=O)N1C[C@H](O)C[C@H]1C(=O)[N-][C@@H](CO)c1cccc(Cl)c1)c1ccc2cc(F)ccc2n1 (3D coordinates assigned)
O=C(NCC(=O)N1C[C@H](O)C[C@H]1C(=O)[N-][C@@H](CO)c1cccc(Cl)c1)c1ccc2cc(F)ccc2n1 (nonaromatic ring conformer: 62.38473807919034 kcal/mol)

>  <smiles>  (57) 
O=C(NCC(=O)N1C[C@H](O)C[C@H]1C(=O)N[C@@H](CO)c1cccc(Cl)c1)c1ccc2cc(F)ccc2n1

>  <score_type>  (57) 
oracle

>  <origin>  (57) 
autodockgpu

>  <m_score__min__energy>  (57) 
-8.4800000000000004

>  <m_primary>  (57) 
energy

>  <meeko>  (57) 
{"free_energy": -8.48, "intermolecular_energy": -11.76, "internal_energy": -3.57, "cluster_size": 4, "cluster_id": 1, "rank_in_cluster": 1}

>  <energy>  (57) 
-5.76

>  <cluster_rmsd>  (57) 
0.0

>  <rmsd>  (57) 
268.98

>  <cluster>  (57) 
8

$$$$
VCSRFCBMABBACK-DHMKUKBTNA-M
     RDKit          3D

 59 62  0  0  0  0  0  0  0  0999 V2000
  139.5350   72.7950  222.4050 O   0  0  0  0  0  0  0  0  0  0  0  0
  139.7910   71.5750  222.5970 C   0  0  0  0  0  0  0  0  0  0  0  0
  139.7800   70.6620  221.4960 N   0  0  0  0  0  0  0  0  0  0  0  0
  138.8250   70.8100  220.4030 C   0  0  0  0  0  0  0  0  0  0  0  0
  137.4230   70.5050  220.8510 C   0  0  0  0  0  0  0  0  0  0  0  0
  136.8190   69.5130  220.3620 O   0  0  0  0  0  0  0  0  0  0  0  0
  136.7330   71.3720  221.7650 N   0  0  0  0  0  0  0  0  0  0  0  0
  136.1000   72.6010  221.3280 C   0  0  0  0  0  0  0  0  0  0  0  0
  135.8600   73.4130  222.5970 C   0  0  2  0  0  0  0  0  0  0  0  0
  136.8520   74.3990  222.7200 O   0  0  0  0  0  0  0  0  0  0  0  0
  135.9560   72.4150  223.7600 C   0  0  0  0  0  0  0  0  0  0  0  0
  136.6600   71.1700  223.2050 C   0  0  1  0  0  0  0  0  0  0  0  0
  135.8760   69.9240  223.5220 C   0  0  0  0  0  0  0  0  0  0  0  0
  136.4190   68.9900  224.1730 O   0  0  0  0  0  0  0  0  0  0  0  0
  134.5290   69.7930  223.0590 N   0  0  0  0  0  0  0  0  0  0  0  0
  133.3980   69.5480  223.9510 C   0  0  1  0  0  0  0  0  0  0  0  0
  133.3050   68.0480  224.2650 C   0  0  0  0  0  0  0  0  0  0  0  0
  134.2890   67.3350  223.5670 O   0  0  0  0  0  0  0  0  0  0  0  0
  133.5450   70.3580  225.2210 C   0  0  0  0  0  0  0  0  0  0  0  0
  134.1810   69.8000  226.3440 C   0  0  0  0  0  0  0  0  0  0  0  0
  134.3330   70.5500  227.5140 C   0  0  0  0  0  0  0  0  0  0  0  0
  133.8560   71.8610  227.5740 C   0  0  0  0  0  0  0  0  0  0  0  0
  133.2330   72.4310  226.4600 C   0  0  0  0  0  0  0  0  0  0  0  0
  132.6430   74.0830  226.5310 Cl  0  0  0  0  0  0  0  0  0  0  0  0
  133.0810   71.6870  225.2860 C   0  0  0  0  0  0  0  0  0  0  0  0
  140.0730   71.0810  223.9550 C   0  0  0  0  0  0  0  0  0  0  0  0
  140.7120   71.8910  224.9080 C   0  0  0  0  0  0  0  0  0  0  0  0
  140.9490   71.3920  226.1910 C   0  0  0  0  0  0  0  0  0  0  0  0
  140.5290   70.0990  226.5240 C   0  0  0  0  0  0  0  0  0  0  0  0
  140.7460   69.5660  227.8050 C   0  0  0  0  0  0  0  0  0  0  0  0
  140.3010   68.2750  228.1090 C   0  0  0  0  0  0  0  0  0  0  0  0
  140.5120   67.7610  229.3460 F   0  0  0  0  0  0  0  0  0  0  0  0
  139.6340   67.5150  227.1430 C   0  0  0  0  0  0  0  0  0  0  0  0
  139.4120   68.0390  225.8650 C   0  0  0  0  0  0  0  0  0  0  0  0
  139.8680   69.3230  225.5470 C   0  0  0  0  0  0  0  0  0  0  0  0
  139.6690   69.8290  224.3020 N   0  0  0  0  0  0  0  0  0  0  0  0
  140.4370   69.8520  221.5170 H   0  0  0  0  0  0  0  0  0  0  0  0
  138.8644   71.8447  220.0316 H   0  0  0  0  0  0  0  0  0  0  0  0
  139.0961   70.0983  219.6093 H   0  0  0  0  0  0  0  0  0  0  0  0
  136.7605   73.1496  220.6404 H   0  0  0  0  0  0  0  0  0  0  0  0
  135.1626   72.4057  220.7866 H   0  0  0  0  0  0  0  0  0  0  0  0
  134.8834   73.9190  222.5831 H   0  0  0  0  0  0  0  0  0  0  0  0
  137.7200   73.9210  222.7870 H   0  0  0  0  0  0  0  0  0  0  0  0
  136.5414   72.8472  224.5849 H   0  0  0  0  0  0  0  0  0  0  0  0
  134.9602   72.1669  224.1560 H   0  0  0  0  0  0  0  0  0  0  0  0
  137.6565   71.0383  223.6519 H   0  0  0  0  0  0  0  0  0  0  0  0
  132.4683   69.8624  223.4542 H   0  0  0  0  0  0  0  0  0  0  0  0
  133.4462   67.8955  225.3452 H   0  0  0  0  0  0  0  0  0  0  0  0
  132.3152   67.6819  223.9547 H   0  0  0  0  0  0  0  0  0  0  0  0
  134.8340   68.0050  223.0780 H   0  0  0  0  0  0  0  0  0  0  0  0
  134.5608   68.7685  226.3018 H   0  0  0  0  0  0  0  0  0  0  0  0
  134.8296   70.1063  228.3895 H   0  0  0  0  0  0  0  0  0  0  0  0
  133.9706   72.4457  228.4987 H   0  0  0  0  0  0  0  0  0  0  0  0
  132.5969   72.1413  224.4089 H   0  0  0  0  0  0  0  0  0  0  0  0
  141.0241   72.9126  224.6455 H   0  0  0  0  0  0  0  0  0  0  0  0
  141.4645   72.0137  226.9378 H   0  0  0  0  0  0  0  0  0  0  0  0
  141.2655   70.1632  228.5688 H   0  0  0  0  0  0  0  0  0  0  0  0
  139.2828   66.5020  227.3888 H   0  0  0  0  0  0  0  0  0  0  0  0
  138.8792   67.4418  225.1104 H   0  0  0  0  0  0  0  0  0  0  0  0
  1  2  2  0
  2  3  1  0
  3  4  1  0
  4  5  1  0
  5  6  2  0
  5  7  1  0
  7  8  1  0
  8  9  1  0
  9 10  1  0
  9 11  1  0
 11 12  1  0
 12 13  1  0
 13 14  2  0
 13 15  1  0
 15 16  1  0
 16 17  1  0
 17 18  1  0
 16 19  1  0
 19 20  2  0
 20 21  1  0
 21 22  2  0
 22 23  1  0
 23 24  1  0
 23 25  2  0
  2 26  1  0
 26 27  2  0
 27 28  1  0
 28 29  2  0
 29 30  1  0
 30 31  2  0
 31 32  1  0
 31 33  1  0
 33 34  2  0
 34 35  1  0
 35 36  2  0
 12  7  1  0
 25 19  1  0
 36 26  1  0
 35 29  1  0
  3 37  1  0
  4 38  1  0
  4 39  1  0
  8 40  1  0
  8 41  1  0
  9 42  1  6
 10 43  1  0
 11 44  1  0
 11 45  1  0
 12 46  1  1
 16 47  1  6
 17 48  1  0
 17 49  1  0
 18 50  1  0
 20 51  1  0
 21 52  1  0
 22 53  1  0
 25 54  1  0
 27 55  1  0
 28 56  1  0
 30 57  1  0
 33 58  1  0
 34 59  1  0
M  CHG  1  15  -1
M  END
>  <UniqueID>  (58) 
155

>  <SMILES>  (58) 
O=C(NCC(=O)N1C[C@H](O)C[C@H]1C(=O)[N-][C@@H](CO)c1cccc(Cl)c1)c1ccc2cc(F)ccc2n1

>  <Energy>  (58) 
62.38473807919034

>  <Genealogy>  (58) 
O=C(NCC(=O)N1C[C@H](O)C[C@H]1C(=O)[N-][C@@H](CO)c1cccc(Cl)c1)c1ccc2cc(F)ccc2n1 (protonated)
O=C(NCC(=O)N1C[C@H](O)C[C@H]1C(=O)[N-][C@@H](CO)c1cccc(Cl)c1)c1ccc2cc(F)ccc2n1 (3D coordinates assigned)
O=C(NCC(=O)N1C[C@H](O)C[C@H]1C(=O)[N-][C@@H](CO)c1cccc(Cl)c1)c1ccc2cc(F)ccc2n1 (nonaromatic ring conformer: 62.38473807919034 kcal/mol)

>  <smiles>  (58) 
O=C(NCC(=O)N1C[C@H](O)C[C@H]1C(=O)N[C@@H](CO)c1cccc(Cl)c1)c1ccc2cc(F)ccc2n1

>  <score_type>  (58) 
oracle

>  <origin>  (58) 
autodockgpu

>  <m_score__min__energy>  (58) 
-8.4800000000000004

>  <m_primary>  (58) 
energy

>  <meeko>  (58) 
{"free_energy": -6.34, "intermolecular_energy": -9.62, "internal_energy": -5.42, "cluster_size": 1, "cluster_id": 6, "rank_in_cluster": 1}

>  <energy>  (58) 
-5.7

>  <cluster_rmsd>  (58) 
0.0

>  <rmsd>  (58) 
268.42

>  <cluster>  (58) 
9

$$$$
VCSRFCBMABBACK-DHMKUKBTNA-M
     RDKit          3D

 59 62  0  0  0  0  0  0  0  0999 V2000
  134.9670   75.7500  221.7320 O   0  0  0  0  0  0  0  0  0  0  0  0
  135.8420   74.9520  222.1650 C   0  0  0  0  0  0  0  0  0  0  0  0
  135.4440   73.7660  222.8590 N   0  0  0  0  0  0  0  0  0  0  0  0
  134.2800   73.7630  223.7390 C   0  0  0  0  0  0  0  0  0  0  0  0
  134.4990   72.8850  224.9390 C   0  0  0  0  0  0  0  0  0  0  0  0
  134.6770   73.4130  226.0690 O   0  0  0  0  0  0  0  0  0  0  0  0
  134.5920   71.4580  224.8050 N   0  0  0  0  0  0  0  0  0  0  0  0
  133.4330   70.5970  224.9330 C   0  0  0  0  0  0  0  0  0  0  0  0
  133.9880   69.1900  225.1440 C   0  0  2  0  0  0  0  0  0  0  0  0
  133.9270   68.8600  226.5080 O   0  0  0  0  0  0  0  0  0  0  0  0
  135.4490   69.2390  224.6740 C   0  0  0  0  0  0  0  0  0  0  0  0
  135.8350   70.7220  224.6130 C   0  0  1  0  0  0  0  0  0  0  0  0
  136.4460   71.0630  223.2800 C   0  0  0  0  0  0  0  0  0  0  0  0
  135.8140   70.8140  222.2170 O   0  0  0  0  0  0  0  0  0  0  0  0
  137.7540   71.6400  223.2220 N   0  0  0  0  0  0  0  0  0  0  0  0
  138.9780   70.8430  223.1880 C   0  0  1  0  0  0  0  0  0  0  0  0
  140.1350   71.6990  222.6550 C   0  0  0  0  0  0  0  0  0  0  0  0
  139.9640   73.0430  223.0150 O   0  0  0  0  0  0  0  0  0  0  0  0
  139.2950   70.3060  224.5680 C   0  0  0  0  0  0  0  0  0  0  0  0
  138.9730   68.9790  224.9000 C   0  0  0  0  0  0  0  0  0  0  0  0
  139.2790   68.4750  226.1680 C   0  0  0  0  0  0  0  0  0  0  0  0
  139.9100   69.2870  227.1130 C   0  0  0  0  0  0  0  0  0  0  0  0
  140.2460   70.6060  226.7900 C   0  0  0  0  0  0  0  0  0  0  0  0
  141.0490   71.6240  227.9740 Cl  0  0  0  0  0  0  0  0  0  0  0  0
  139.9450   71.1140  225.5230 C   0  0  0  0  0  0  0  0  0  0  0  0
  137.2720   75.2500  221.9820 C   0  0  0  0  0  0  0  0  0  0  0  0
  137.8940   76.2990  222.6780 C   0  0  0  0  0  0  0  0  0  0  0  0
  139.2570   76.5400  222.4880 C   0  0  0  0  0  0  0  0  0  0  0  0
  139.9960   75.7220  221.6250 C   0  0  0  0  0  0  0  0  0  0  0  0
  141.3680   75.9330  221.4140 C   0  0  0  0  0  0  0  0  0  0  0  0
  142.0810   75.0880  220.5560 C   0  0  0  0  0  0  0  0  0  0  0  0
  143.4060   75.2930  220.3510 F   0  0  0  0  0  0  0  0  0  0  0  0
  141.4310   74.0300  219.9110 C   0  0  0  0  0  0  0  0  0  0  0  0
  140.0650   73.8130  220.1170 C   0  0  0  0  0  0  0  0  0  0  0  0
  139.3410   74.6620  220.9620 C   0  0  0  0  0  0  0  0  0  0  0  0
  138.0100   74.4640  221.1510 N   0  0  0  0  0  0  0  0  0  0  0  0
  136.0390   72.9150  222.7660 H   0  0  0  0  0  0  0  0  0  0  0  0
  134.0862   74.7911  224.0789 H   0  0  0  0  0  0  0  0  0  0  0  0
  133.4219   73.3688  223.1749 H   0  0  0  0  0  0  0  0  0  0  0  0
  132.8215   70.9018  225.7951 H   0  0  0  0  0  0  0  0  0  0  0  0
  132.7861   70.6505  224.0449 H   0  0  0  0  0  0  0  0  0  0  0  0
  133.4142   68.4332  224.5890 H   0  0  0  0  0  0  0  0  0  0  0  0
  134.0250   69.7110  227.0110 H   0  0  0  0  0  0  0  0  0  0  0  0
  136.0959   68.7065  225.3867 H   0  0  0  0  0  0  0  0  0  0  0  0
  135.5688   68.7552  223.6934 H   0  0  0  0  0  0  0  0  0  0  0  0
  136.5840   70.9743  225.3781 H   0  0  0  0  0  0  0  0  0  0  0  0
  138.8342   69.9849  222.5149 H   0  0  0  0  0  0  0  0  0  0  0  0
  141.0814   71.3298  223.0769 H   0  0  0  0  0  0  0  0  0  0  0  0
  140.1522   71.6264  221.5575 H   0  0  0  0  0  0  0  0  0  0  0  0
  139.0340   73.2870  222.7670 H   0  0  0  0  0  0  0  0  0  0  0  0
  138.4781   68.3339  224.1591 H   0  0  0  0  0  0  0  0  0  0  0  0
  139.0220   67.4360  226.4219 H   0  0  0  0  0  0  0  0  0  0  0  0
  140.1429   68.8892  228.1118 H   0  0  0  0  0  0  0  0  0  0  0  0
  140.2167   72.1494  225.2699 H   0  0  0  0  0  0  0  0  0  0  0  0
  137.3118   76.9270  223.3684 H   0  0  0  0  0  0  0  0  0  0  0  0
  139.7485   77.3708  223.0154 H   0  0  0  0  0  0  0  0  0  0  0  0
  141.8821   76.7618  221.9227 H   0  0  0  0  0  0  0  0  0  0  0  0
  141.9963   73.3668  219.2397 H   0  0  0  0  0  0  0  0  0  0  0  0
  139.5594   72.9750  219.6149 H   0  0  0  0  0  0  0  0  0  0  0  0
  1  2  2  0
  2  3  1  0
  3  4  1  0
  4  5  1  0
  5  6  2  0
  5  7  1  0
  7  8  1  0
  8  9  1  0
  9 10  1  0
  9 11  1  0
 11 12  1  0
 12 13  1  0
 13 14  2  0
 13 15  1  0
 15 16  1  0
 16 17  1  0
 17 18  1  0
 16 19  1  0
 19 20  2  0
 20 21  1  0
 21 22  2  0
 22 23  1  0
 23 24  1  0
 23 25  2  0
  2 26  1  0
 26 27  2  0
 27 28  1  0
 28 29  2  0
 29 30  1  0
 30 31  2  0
 31 32  1  0
 31 33  1  0
 33 34  2  0
 34 35  1  0
 35 36  2  0
 12  7  1  0
 25 19  1  0
 36 26  1  0
 35 29  1  0
  3 37  1  0
  4 38  1  0
  4 39  1  0
  8 40  1  0
  8 41  1  0
  9 42  1  6
 10 43  1  0
 11 44  1  0
 11 45  1  0
 12 46  1  1
 16 47  1  6
 17 48  1  0
 17 49  1  0
 18 50  1  0
 20 51  1  0
 21 52  1  0
 22 53  1  0
 25 54  1  0
 27 55  1  0
 28 56  1  0
 30 57  1  0
 33 58  1  0
 34 59  1  0
M  CHG  1  15  -1
M  END
>  <UniqueID>  (59) 
155

>  <SMILES>  (59) 
O=C(NCC(=O)N1C[C@H](O)C[C@H]1C(=O)[N-][C@@H](CO)c1cccc(Cl)c1)c1ccc2cc(F)ccc2n1

>  <Energy>  (59) 
62.38473807919034

>  <Genealogy>  (59) 
O=C(NCC(=O)N1C[C@H](O)C[C@H]1C(=O)[N-][C@@H](CO)c1cccc(Cl)c1)c1ccc2cc(F)ccc2n1 (protonated)
O=C(NCC(=O)N1C[C@H](O)C[C@H]1C(=O)[N-][C@@H](CO)c1cccc(Cl)c1)c1ccc2cc(F)ccc2n1 (3D coordinates assigned)
O=C(NCC(=O)N1C[C@H](O)C[C@H]1C(=O)[N-][C@@H](CO)c1cccc(Cl)c1)c1ccc2cc(F)ccc2n1 (nonaromatic ring conformer: 62.38473807919034 kcal/mol)

>  <smiles>  (59) 
O=C(NCC(=O)N1C[C@H](O)C[C@H]1C(=O)N[C@@H](CO)c1cccc(Cl)c1)c1ccc2cc(F)ccc2n1

>  <score_type>  (59) 
oracle

>  <origin>  (59) 
autodockgpu

>  <m_score__min__energy>  (59) 
-8.4800000000000004

>  <m_primary>  (59) 
energy

>  <meeko>  (59) 
{"free_energy": -6.41, "intermolecular_energy": -9.7, "internal_energy": -5.28, "cluster_size": 4, "cluster_id": 2, "rank_in_cluster": 4}

>  <energy>  (59) 
-5.67

>  <cluster_rmsd>  (59) 
0.0

>  <rmsd>  (59) 
269.5

>  <cluster>  (59) 
10

$$$$
VCSRFCBMABBACK-DHMKUKBTNA-M
     RDKit          3D

 59 62  0  0  0  0  0  0  0  0999 V2000
  139.2830   74.8740  222.3410 O   0  0  0  0  0  0  0  0  0  0  0  0
  140.4260   75.2070  221.9230 C   0  0  0  0  0  0  0  0  0  0  0  0
  140.8090   76.5850  221.9150 N   0  0  0  0  0  0  0  0  0  0  0  0
  139.8400   77.6350  221.6190 C   0  0  0  0  0  0  0  0  0  0  0  0
  139.6760   77.8330  220.1390 C   0  0  0  0  0  0  0  0  0  0  0  0
  138.5210   77.9890  219.6590 O   0  0  0  0  0  0  0  0  0  0  0  0
  140.8050   77.7630  219.2530 N   0  0  0  0  0  0  0  0  0  0  0  0
  141.0170   76.6380  218.3650 C   0  0  0  0  0  0  0  0  0  0  0  0
  142.4760   76.7310  217.9250 C   0  0  2  0  0  0  0  0  0  0  0  0
  143.2500   75.8230  218.6650 O   0  0  0  0  0  0  0  0  0  0  0  0
  142.9140   78.1720  218.2250 C   0  0  0  0  0  0  0  0  0  0  0  0
  141.8810   78.7440  219.2030 C   0  0  1  0  0  0  0  0  0  0  0  0
  141.3600   80.0710  218.7180 C   0  0  0  0  0  0  0  0  0  0  0  0
  140.3950   80.1080  217.9060 O   0  0  0  0  0  0  0  0  0  0  0  0
  141.9800   81.2830  219.1560 N   0  0  0  0  0  0  0  0  0  0  0  0
  141.4890   82.0690  220.2860 C   0  0  1  0  0  0  0  0  0  0  0  0
  140.1290   82.6850  219.9330 C   0  0  0  0  0  0  0  0  0  0  0  0
  140.0090   82.8590  218.5470 O   0  0  0  0  0  0  0  0  0  0  0  0
  141.3840   81.2010  221.5230 C   0  0  0  0  0  0  0  0  0  0  0  0
  142.5150   80.5230  222.0080 C   0  0  0  0  0  0  0  0  0  0  0  0
  142.4260   79.7340  223.1590 C   0  0  0  0  0  0  0  0  0  0  0  0
  141.2100   79.6180  223.8370 C   0  0  0  0  0  0  0  0  0  0  0  0
  140.0800   80.2970  223.3710 C   0  0  0  0  0  0  0  0  0  0  0  0
  138.5550   80.1590  224.2290 Cl  0  0  0  0  0  0  0  0  0  0  0  0
  140.1650   81.0900  222.2220 C   0  0  0  0  0  0  0  0  0  0  0  0
  141.3580   74.1850  221.4190 C   0  0  0  0  0  0  0  0  0  0  0  0
  140.9200   72.8850  221.1150 C   0  0  0  0  0  0  0  0  0  0  0  0
  141.8320   71.9470  220.6240 C   0  0  0  0  0  0  0  0  0  0  0  0
  143.1670   72.3150  220.4170 C   0  0  0  0  0  0  0  0  0  0  0  0
  144.1090   71.4000  219.9210 C   0  0  0  0  0  0  0  0  0  0  0  0
  145.4330   71.8040  219.7130 C   0  0  0  0  0  0  0  0  0  0  0  0
  146.3430   70.9190  219.2350 F   0  0  0  0  0  0  0  0  0  0  0  0
  145.8190   73.1190  219.9920 C   0  0  0  0  0  0  0  0  0  0  0  0
  144.8860   74.0370  220.4850 C   0  0  0  0  0  0  0  0  0  0  0  0
  143.5640   73.6380  220.7110 C   0  0  0  0  0  0  0  0  0  0  0  0
  142.6590   74.5220  221.2060 N   0  0  0  0  0  0  0  0  0  0  0  0
  141.8130   76.8220  222.0720 H   0  0  0  0  0  0  0  0  0  0  0  0
  138.8679   77.3564  222.0520 H   0  0  0  0  0  0  0  0  0  0  0  0
  140.2078   78.5760  222.0539 H   0  0  0  0  0  0  0  0  0  0  0  0
  140.8354   75.6912  218.8947 H   0  0  0  0  0  0  0  0  0  0  0  0
  140.3306   76.6628  217.5058 H   0  0  0  0  0  0  0  0  0  0  0  0
  142.6016   76.4878  216.8596 H   0  0  0  0  0  0  0  0  0  0  0  0
  142.9500   75.8980  219.6090 H   0  0  0  0  0  0  0  0  0  0  0  0
  143.9146   78.1781  218.6820 H   0  0  0  0  0  0  0  0  0  0  0  0
  142.9669   78.7723  217.3048 H   0  0  0  0  0  0  0  0  0  0  0  0
  142.3214   78.9211  220.1953 H   0  0  0  0  0  0  0  0  0  0  0  0
  142.1990   82.8815  220.4998 H   0  0  0  0  0  0  0  0  0  0  0  0
  139.3282   82.0175  220.2839 H   0  0  0  0  0  0  0  0  0  0  0  0
  140.0481   83.6674  220.4213 H   0  0  0  0  0  0  0  0  0  0  0  0
  140.6460   82.2250  218.1250 H   0  0  0  0  0  0  0  0  0  0  0  0
  143.4755   80.6133  221.4795 H   0  0  0  0  0  0  0  0  0  0  0  0
  143.3150   79.2037  223.5313 H   0  0  0  0  0  0  0  0  0  0  0  0
  141.1415   78.9916  224.7387 H   0  0  0  0  0  0  0  0  0  0  0  0
  139.2765   81.6295  221.8622 H   0  0  0  0  0  0  0  0  0  0  0  0
  139.8659   72.6074  221.2626 H   0  0  0  0  0  0  0  0  0  0  0  0
  141.5018   70.9218  220.4006 H   0  0  0  0  0  0  0  0  0  0  0  0
  143.8070   70.3665  219.6960 H   0  0  0  0  0  0  0  0  0  0  0  0
  146.8598   73.4323  219.8232 H   0  0  0  0  0  0  0  0  0  0  0  0
  145.1915   75.0726  220.6951 H   0  0  0  0  0  0  0  0  0  0  0  0
  1  2  2  0
  2  3  1  0
  3  4  1  0
  4  5  1  0
  5  6  2  0
  5  7  1  0
  7  8  1  0
  8  9  1  0
  9 10  1  0
  9 11  1  0
 11 12  1  0
 12 13  1  0
 13 14  2  0
 13 15  1  0
 15 16  1  0
 16 17  1  0
 17 18  1  0
 16 19  1  0
 19 20  2  0
 20 21  1  0
 21 22  2  0
 22 23  1  0
 23 24  1  0
 23 25  2  0
  2 26  1  0
 26 27  2  0
 27 28  1  0
 28 29  2  0
 29 30  1  0
 30 31  2  0
 31 32  1  0
 31 33  1  0
 33 34  2  0
 34 35  1  0
 35 36  2  0
 12  7  1  0
 25 19  1  0
 36 26  1  0
 35 29  1  0
  3 37  1  0
  4 38  1  0
  4 39  1  0
  8 40  1  0
  8 41  1  0
  9 42  1  6
 10 43  1  0
 11 44  1  0
 11 45  1  0
 12 46  1  1
 16 47  1  1
 17 48  1  0
 17 49  1  0
 18 50  1  0
 20 51  1  0
 21 52  1  0
 22 53  1  0
 25 54  1  0
 27 55  1  0
 28 56  1  0
 30 57  1  0
 33 58  1  0
 34 59  1  0
M  CHG  1  15  -1
M  END
>  <UniqueID>  (60) 
155

>  <SMILES>  (60) 
O=C(NCC(=O)N1C[C@H](O)C[C@H]1C(=O)[N-][C@@H](CO)c1cccc(Cl)c1)c1ccc2cc(F)ccc2n1

>  <Energy>  (60) 
62.38473807919034

>  <Genealogy>  (60) 
O=C(NCC(=O)N1C[C@H](O)C[C@H]1C(=O)[N-][C@@H](CO)c1cccc(Cl)c1)c1ccc2cc(F)ccc2n1 (protonated)
O=C(NCC(=O)N1C[C@H](O)C[C@H]1C(=O)[N-][C@@H](CO)c1cccc(Cl)c1)c1ccc2cc(F)ccc2n1 (3D coordinates assigned)
O=C(NCC(=O)N1C[C@H](O)C[C@H]1C(=O)[N-][C@@H](CO)c1cccc(Cl)c1)c1ccc2cc(F)ccc2n1 (nonaromatic ring conformer: 62.38473807919034 kcal/mol)

>  <smiles>  (60) 
O=C(NCC(=O)N1C[C@H](O)C[C@H]1C(=O)N[C@@H](CO)c1cccc(Cl)c1)c1ccc2cc(F)ccc2n1

>  <score_type>  (60) 
oracle

>  <origin>  (60) 
autodockgpu

>  <m_score__min__energy>  (60) 
-8.4800000000000004

>  <m_primary>  (60) 
energy

>  <meeko>  (60) 
{"free_energy": -5.67, "intermolecular_energy": -8.95, "internal_energy": -5.71, "cluster_size": 1, "cluster_id": 10, "rank_in_cluster": 1}

>  <energy>  (60) 
-4.56

>  <cluster_rmsd>  (60) 
0.0

>  <rmsd>  (60) 
269.01

>  <cluster>  (60) 
11

$$$$
ZXEKIRKRYMKUMV-QMUIBWSYNA-M
     RDKit          3D

 59 62  0  0  0  0  0  0  0  0999 V2000
  138.5350   75.6460  219.0390 H   0  0  0  0  0  0  0  0  0  0  0  0
  139.1760   76.0160  218.3420 O   0  0  0  0  0  0  0  0  0  0  0  0
  139.1260   77.3350  217.8780 C   0  0  0  0  0  0  0  0  0  0  0  0
  137.9620   77.9960  217.8360 C   0  0  0  0  0  0  0  0  0  0  0  0
  137.6782   78.5334  216.9191 H   0  0  0  0  0  0  0  0  0  0  0  0
  137.0810   78.0150  218.9640 N   0  0  0  0  0  0  0  0  0  0  0  0
  137.4050   77.4840  220.2570 C   0  0  0  0  0  0  0  0  0  0  0  0
  136.9620   76.3480  220.5700 O   0  0  0  0  0  0  0  0  0  0  0  0
  138.2780   78.2100  221.2070 C   0  0  0  0  0  0  0  0  0  0  0  0
  139.6180   78.2980  220.9650 N   0  0  0  0  0  0  0  0  0  0  0  0
  140.4620   78.9620  221.7980 C   0  0  0  0  0  0  0  0  0  0  0  0
  141.8320   79.0280  221.5070 C   0  0  0  0  0  0  0  0  0  0  0  0
  142.2264   78.5451  220.6008 H   0  0  0  0  0  0  0  0  0  0  0  0
  142.6970   79.7090  222.3710 C   0  0  0  0  0  0  0  0  0  0  0  0
  143.7711   79.7654  222.1403 H   0  0  0  0  0  0  0  0  0  0  0  0
  142.1980   80.3190  223.5290 C   0  0  0  0  0  0  0  0  0  0  0  0
  143.0450   80.9710  224.3650 F   0  0  0  0  0  0  0  0  0  0  0  0
  140.8280   80.2640  223.8280 C   0  0  0  0  0  0  0  0  0  0  0  0
  140.4394   80.7533  224.7333 H   0  0  0  0  0  0  0  0  0  0  0  0
  139.9550   79.5800  222.9640 C   0  0  0  0  0  0  0  0  0  0  0  0
  138.5870   79.4900  223.2370 C   0  0  0  0  0  0  0  0  0  0  0  0
  138.1756   79.9626  224.1411 H   0  0  0  0  0  0  0  0  0  0  0  0
  137.7410   78.8010  222.3640 C   0  0  0  0  0  0  0  0  0  0  0  0
  136.6653   78.7218  222.5800 H   0  0  0  0  0  0  0  0  0  0  0  0
  140.3560   77.9650  217.4550 N   0  0  0  0  0  0  0  0  0  0  0  0
  140.5050   79.3790  217.1360 C   0  0  0  0  0  0  0  0  0  0  0  0
  139.9158   79.6358  216.2434 H   0  0  0  0  0  0  0  0  0  0  0  0
  140.1456   80.0217  217.9532 H   0  0  0  0  0  0  0  0  0  0  0  0
  141.9990   79.5830  216.8680 C   0  0  2  0  0  0  0  0  0  0  0  0
  142.4832   80.0805  217.7213 H   0  0  0  0  0  0  0  0  0  0  0  0
  142.2370   80.4400  215.7790 O   0  0  0  0  0  0  0  0  0  0  0  0
  143.2160   80.4620  215.6130 H   0  0  0  0  0  0  0  0  0  0  0  0
  142.5840   78.1860  216.6410 C   0  0  0  0  0  0  0  0  0  0  0  0
  142.6699   77.9753  215.5648 H   0  0  0  0  0  0  0  0  0  0  0  0
  143.5936   78.0919  217.0674 H   0  0  0  0  0  0  0  0  0  0  0  0
  141.5980   77.2190  217.2980 C   0  0  1  0  0  0  0  0  0  0  0  0
  141.4554   76.3184  216.6828 H   0  0  0  0  0  0  0  0  0  0  0  0
  142.1080   76.7370  218.6330 C   0  0  0  0  0  0  0  0  0  0  0  0
  143.3520   76.6310  218.8110 O   0  0  0  0  0  0  0  0  0  0  0  0
  141.1990   76.4580  219.7110 N   0  0  0  0  0  0  0  0  0  0  0  0
  140.1880   76.6920  219.5960 H   0  0  0  0  0  0  0  0  0  0  0  0
  141.6350   75.7760  220.9270 C   0  0  2  0  0  0  0  0  0  0  0  0
  142.2740   76.4555  221.5100 H   0  0  0  0  0  0  0  0  0  0  0  0
  142.4380   74.5430  220.5620 C   0  0  0  0  0  0  0  0  0  0  0  0
  141.7960   73.4180  220.0080 C   0  0  0  0  0  0  0  0  0  0  0  0
  140.7086   73.4343  219.8425 H   0  0  0  0  0  0  0  0  0  0  0  0
  142.5360   72.2790  219.6670 C   0  0  0  0  0  0  0  0  0  0  0  0
  142.0282   71.4029  219.2373 H   0  0  0  0  0  0  0  0  0  0  0  0
  143.9210   72.2530  219.8720 C   0  0  0  0  0  0  0  0  0  0  0  0
  144.4994   71.3580  219.5992 H   0  0  0  0  0  0  0  0  0  0  0  0
  144.5720   73.3650  220.4240 C   0  0  0  0  0  0  0  0  0  0  0  0
  146.3100   73.3290  220.6890 Cl  0  0  0  0  0  0  0  0  0  0  0  0
  143.8360   74.5070  220.7640 C   0  0  0  0  0  0  0  0  0  0  0  0
  144.3494   75.3812  221.1909 H   0  0  0  0  0  0  0  0  0  0  0  0
  140.4230   75.3990  221.7980 C   0  0  0  0  0  0  0  0  0  0  0  0
  140.6117   74.4285  222.2801 H   0  0  0  0  0  0  0  0  0  0  0  0
  140.2763   76.1789  222.5597 H   0  0  0  0  0  0  0  0  0  0  0  0
  139.2620   75.3070  221.0130 O   0  0  0  0  0  0  0  0  0  0  0  0
  139.1600   76.1860  220.5560 H   0  0  0  0  0  0  0  0  0  0  0  0
  1  2  1  0
  2  3  1  0
  3  4  2  0
  4  5  1  0
  4  6  1  0
  6  7  1  0
  7  8  2  0
  7  9  1  0
  9 10  2  0
 10 11  1  0
 11 12  2  0
 12 13  1  0
 12 14  1  0
 14 15  1  0
 14 16  2  0
 16 17  1  0
 16 18  1  0
 18 19  1  0
 18 20  2  0
 20 21  1  0
 21 22  1  0
 21 23  2  0
 23 24  1  0
  3 25  1  0
 25 26  1  0
 26 27  1  0
 26 28  1  0
 26 29  1  0
 29 30  1  1
 29 31  1  0
 31 32  1  0
 29 33  1  0
 33 34  1  0
 33 35  1  0
 33 36  1  0
 36 37  1  6
 36 38  1  0
 38 39  2  0
 38 40  1  0
 40 41  1  0
 40 42  1  0
 42 43  1  1
 42 44  1  0
 44 45  2  0
 45 46  1  0
 45 47  1  0
 47 48  1  0
 47 49  2  0
 49 50  1  0
 49 51  1  0
 51 52  1  0
 51 53  2  0
 53 54  1  0
 42 55  1  0
 55 56  1  0
 55 57  1  0
 55 58  1  0
 58 59  1  0
 23  9  1  0
 36 25  1  0
 53 44  1  0
 20 11  1  0
M  CHG  1   6  -1
M  END
>  <UniqueID>  (61) 
156

>  <SMILES>  (61) 
O=C([N-]/C=C(\O)N1C[C@H](O)C[C@H]1C(=O)N[C@@H](CO)c1cccc(Cl)c1)c1ccc2cc(F)ccc2n1

>  <Energy>  (61) 
62.53213630697353

>  <Genealogy>  (61) 
O=C([N-]CC(=O)N1C[C@H](O)C[C@H]1C(=O)N[C@@H](CO)c1cccc(Cl)c1)c1ccc2cc(F)ccc2n1 (protonated)
O=C([N-]C=C(O)N1C[C@H](O)C[C@H]1C(=O)N[C@@H](CO)c1cccc(Cl)c1)c1ccc2cc(F)ccc2n1 (tautomer)
O=C([N-]/C=C(\O)N1C[C@H](O)C[C@H]1C(=O)N[C@@H](CO)c1cccc(Cl)c1)c1ccc2cc(F)ccc2n1 (cis-trans isomerization)
O=C([N-]/C=C(\O)N1C[C@H](O)C[C@H]1C(=O)N[C@@H](CO)c1cccc(Cl)c1)c1ccc2cc(F)ccc2n1 (3D coordinates assigned)
O=C([N-]/C=C(\O)N1C[C@H](O)C[C@H]1C(=O)N[C@@H](CO)c1cccc(Cl)c1)c1ccc2cc(F)ccc2n1 (nonaromatic ring conformer: 62.53213630697353 kcal/mol)

>  <smiles>  (61) 
O=C(NCC(=O)N1C[C@H](O)C[C@H]1C(=O)N[C@@H](CO)c1cccc(Cl)c1)c1ccc2cc(F)ccc2n1

>  <score_type>  (61) 
oracle

>  <origin>  (61) 
autodockgpu

>  <m_score__min__energy>  (61) 
-8.7599999999999998

>  <m_primary>  (61) 
energy

>  <meeko>  (61) 
{"free_energy": -4.16, "intermolecular_energy": -7.74, "internal_energy": -7.98, "cluster_size": 1, "cluster_id": 6, "rank_in_cluster": 1}

>  <energy>  (61) 
-8.76

>  <cluster_rmsd>  (61) 
0.0

>  <rmsd>  (61) 
269.65

>  <cluster>  (61) 
1

$$$$
ZXEKIRKRYMKUMV-QMUIBWSYNA-M
     RDKit          3D

 59 62  0  0  0  0  0  0  0  0999 V2000
  138.0870   74.4750  222.7230 H   0  0  0  0  0  0  0  0  0  0  0  0
  137.4040   74.5690  221.9770 O   0  0  0  0  0  0  0  0  0  0  0  0
  137.2080   73.5980  220.9890 C   0  0  0  0  0  0  0  0  0  0  0  0
  137.0880   72.3060  221.3220 C   0  0  0  0  0  0  0  0  0  0  0  0
  136.0950   71.8331  221.3040 H   0  0  0  0  0  0  0  0  0  0  0  0
  138.2300   71.5300  221.7010 N   0  0  0  0  0  0  0  0  0  0  0  0
  139.1480   71.8920  222.7430 C   0  0  0  0  0  0  0  0  0  0  0  0
  139.6600   73.0420  222.7220 O   0  0  0  0  0  0  0  0  0  0  0  0
  139.4700   70.9740  223.8580 C   0  0  0  0  0  0  0  0  0  0  0  0
  140.0180   71.4680  225.0070 N   0  0  0  0  0  0  0  0  0  0  0  0
  140.3230   70.6710  226.0650 C   0  0  0  0  0  0  0  0  0  0  0  0
  140.8820   71.2240  227.2250 C   0  0  0  0  0  0  0  0  0  0  0  0
  141.0715   72.3060  227.2830 H   0  0  0  0  0  0  0  0  0  0  0  0
  141.1990   70.3980  228.3100 C   0  0  0  0  0  0  0  0  0  0  0  0
  141.6341   70.8324  229.2221 H   0  0  0  0  0  0  0  0  0  0  0  0
  140.9630   69.0190  228.2360 C   0  0  0  0  0  0  0  0  0  0  0  0
  141.2790   68.2250  229.2890 F   0  0  0  0  0  0  0  0  0  0  0  0
  140.3980   68.4560  227.0810 C   0  0  0  0  0  0  0  0  0  0  0  0
  140.2051   67.3742  227.0313 H   0  0  0  0  0  0  0  0  0  0  0  0
  140.0800   69.2800  225.9890 C   0  0  0  0  0  0  0  0  0  0  0  0
  139.5320   68.7530  224.8160 C   0  0  0  0  0  0  0  0  0  0  0  0
  139.3396   67.6728  224.7377 H   0  0  0  0  0  0  0  0  0  0  0  0
  139.2280   69.5940  223.7430 C   0  0  0  0  0  0  0  0  0  0  0  0
  138.8031   69.1803  222.8165 H   0  0  0  0  0  0  0  0  0  0  0  0
  137.1320   74.0220  219.6100 N   0  0  0  0  0  0  0  0  0  0  0  0
  136.0180   74.7540  219.0210 C   0  0  0  0  0  0  0  0  0  0  0  0
  135.1099   74.1333  219.0160 H   0  0  0  0  0  0  0  0  0  0  0  0
  135.7809   75.6643  219.5912 H   0  0  0  0  0  0  0  0  0  0  0  0
  136.4530   75.0780  217.5880 C   0  0  2  0  0  0  0  0  0  0  0  0
  136.7418   76.1357  217.4990 H   0  0  0  0  0  0  0  0  0  0  0  0
  135.4090   74.9200  216.6600 O   0  0  0  0  0  0  0  0  0  0  0  0
  134.8210   75.7170  216.7200 H   0  0  0  0  0  0  0  0  0  0  0  0
  137.6380   74.1560  217.2860 C   0  0  0  0  0  0  0  0  0  0  0  0
  137.3037   73.2724  216.7226 H   0  0  0  0  0  0  0  0  0  0  0  0
  138.3997   74.6585  216.6718 H   0  0  0  0  0  0  0  0  0  0  0  0
  138.1920   73.7420  218.6500 C   0  0  1  0  0  0  0  0  0  0  0  0
  138.4761   72.6793  218.6569 H   0  0  0  0  0  0  0  0  0  0  0  0
  139.4430   74.5120  218.9920 C   0  0  0  0  0  0  0  0  0  0  0  0
  140.1260   75.0150  218.0580 O   0  0  0  0  0  0  0  0  0  0  0  0
  139.8240   74.7250  220.3600 N   0  0  0  0  0  0  0  0  0  0  0  0
  139.1720   74.4320  221.1210 H   0  0  0  0  0  0  0  0  0  0  0  0
  141.1370   75.2590  220.7170 C   0  0  2  0  0  0  0  0  0  0  0  0
  141.4404   75.9990  219.9618 H   0  0  0  0  0  0  0  0  0  0  0  0
  142.1570   74.1380  220.7400 C   0  0  0  0  0  0  0  0  0  0  0  0
  141.7330   72.7950  220.7590 C   0  0  0  0  0  0  0  0  0  0  0  0
  140.6584   72.5600  220.7605 H   0  0  0  0  0  0  0  0  0  0  0  0
  142.6740   71.7570  220.7760 C   0  0  0  0  0  0  0  0  0  0  0  0
  142.3366   70.7102  220.7933 H   0  0  0  0  0  0  0  0  0  0  0  0
  144.0420   72.0500  220.7710 C   0  0  0  0  0  0  0  0  0  0  0  0
  144.7778   71.2324  220.7812 H   0  0  0  0  0  0  0  0  0  0  0  0
  144.4780   73.3820  220.7530 C   0  0  0  0  0  0  0  0  0  0  0  0
  146.1980   73.7490  220.7550 Cl  0  0  0  0  0  0  0  0  0  0  0  0
  143.5400   74.4220  220.7330 C   0  0  0  0  0  0  0  0  0  0  0  0
  143.8831   75.4669  220.7117 H   0  0  0  0  0  0  0  0  0  0  0  0
  141.0770   75.9680  222.0830 C   0  0  0  0  0  0  0  0  0  0  0  0
  141.8352   75.5325  222.7504 H   0  0  0  0  0  0  0  0  0  0  0  0
  141.2721   77.0405  221.9357 H   0  0  0  0  0  0  0  0  0  0  0  0
  139.8070   75.8130  222.6630 O   0  0  0  0  0  0  0  0  0  0  0  0
  139.5450   74.8630  222.5190 H   0  0  0  0  0  0  0  0  0  0  0  0
  1  2  1  0
  2  3  1  0
  3  4  2  0
  4  5  1  0
  4  6  1  0
  6  7  1  0
  7  8  2  0
  7  9  1  0
  9 10  2  0
 10 11  1  0
 11 12  2  0
 12 13  1  0
 12 14  1  0
 14 15  1  0
 14 16  2  0
 16 17  1  0
 16 18  1  0
 18 19  1  0
 18 20  2  0
 20 21  1  0
 21 22  1  0
 21 23  2  0
 23 24  1  0
  3 25  1  0
 25 26  1  0
 26 27  1  0
 26 28  1  0
 26 29  1  0
 29 30  1  1
 29 31  1  0
 31 32  1  0
 29 33  1  0
 33 34  1  0
 33 35  1  0
 33 36  1  0
 36 37  1  6
 36 38  1  0
 38 39  2  0
 38 40  1  0
 40 41  1  0
 40 42  1  0
 42 43  1  6
 42 44  1  0
 44 45  2  0
 45 46  1  0
 45 47  1  0
 47 48  1  0
 47 49  2  0
 49 50  1  0
 49 51  1  0
 51 52  1  0
 51 53  2  0
 53 54  1  0
 42 55  1  0
 55 56  1  0
 55 57  1  0
 55 58  1  0
 58 59  1  0
 23  9  1  0
 36 25  1  0
 53 44  1  0
 20 11  1  0
M  CHG  1   6  -1
M  END
>  <UniqueID>  (62) 
156

>  <SMILES>  (62) 
O=C([N-]/C=C(\O)N1C[C@H](O)C[C@H]1C(=O)N[C@@H](CO)c1cccc(Cl)c1)c1ccc2cc(F)ccc2n1

>  <Energy>  (62) 
62.53213630697353

>  <Genealogy>  (62) 
O=C([N-]CC(=O)N1C[C@H](O)C[C@H]1C(=O)N[C@@H](CO)c1cccc(Cl)c1)c1ccc2cc(F)ccc2n1 (protonated)
O=C([N-]C=C(O)N1C[C@H](O)C[C@H]1C(=O)N[C@@H](CO)c1cccc(Cl)c1)c1ccc2cc(F)ccc2n1 (tautomer)
O=C([N-]/C=C(\O)N1C[C@H](O)C[C@H]1C(=O)N[C@@H](CO)c1cccc(Cl)c1)c1ccc2cc(F)ccc2n1 (cis-trans isomerization)
O=C([N-]/C=C(\O)N1C[C@H](O)C[C@H]1C(=O)N[C@@H](CO)c1cccc(Cl)c1)c1ccc2cc(F)ccc2n1 (3D coordinates assigned)
O=C([N-]/C=C(\O)N1C[C@H](O)C[C@H]1C(=O)N[C@@H](CO)c1cccc(Cl)c1)c1ccc2cc(F)ccc2n1 (nonaromatic ring conformer: 62.53213630697353 kcal/mol)

>  <smiles>  (62) 
O=C(NCC(=O)N1C[C@H](O)C[C@H]1C(=O)N[C@@H](CO)c1cccc(Cl)c1)c1ccc2cc(F)ccc2n1

>  <score_type>  (62) 
oracle

>  <origin>  (62) 
autodockgpu

>  <m_score__min__energy>  (62) 
-8.7599999999999998

>  <m_primary>  (62) 
energy

>  <meeko>  (62) 
{"free_energy": -5.99, "intermolecular_energy": -9.57, "internal_energy": -7.0, "cluster_size": 1, "cluster_id": 4, "rank_in_cluster": 1}

>  <energy>  (62) 
-8.55

>  <cluster_rmsd>  (62) 
0.62

>  <rmsd>  (62) 
269.62

>  <cluster>  (62) 
1

$$$$
ZXEKIRKRYMKUMV-QMUIBWSYNA-M
     RDKit          3D

 59 62  0  0  0  0  0  0  0  0999 V2000
  139.4220   73.9450  219.3330 H   0  0  0  0  0  0  0  0  0  0  0  0
  140.3180   73.4660  219.3630 O   0  0  0  0  0  0  0  0  0  0  0  0
  141.1420   73.4490  220.4940 C   0  0  0  0  0  0  0  0  0  0  0  0
  140.6110   73.3240  221.7170 C   0  0  0  0  0  0  0  0  0  0  0  0
  140.7145   72.3708  222.2562 H   0  0  0  0  0  0  0  0  0  0  0  0
  139.9110   74.4090  222.3350 N   0  0  0  0  0  0  0  0  0  0  0  0
  139.5580   75.6310  221.6700 C   0  0  0  0  0  0  0  0  0  0  0  0
  138.9340   75.5640  220.5790 O   0  0  0  0  0  0  0  0  0  0  0  0
  139.8650   76.9570  222.2510 C   0  0  0  0  0  0  0  0  0  0  0  0
  141.1470   77.4250  222.2340 N   0  0  0  0  0  0  0  0  0  0  0  0
  141.4800   78.6410  222.7430 C   0  0  0  0  0  0  0  0  0  0  0  0
  142.8110   79.0810  222.7000 C   0  0  0  0  0  0  0  0  0  0  0  0
  143.5873   78.4448  222.2497 H   0  0  0  0  0  0  0  0  0  0  0  0
  143.1500   80.3310  223.2310 C   0  0  0  0  0  0  0  0  0  0  0  0
  144.1932   80.6780  223.1952 H   0  0  0  0  0  0  0  0  0  0  0  0
  142.1630   81.1410  223.8080 C   0  0  0  0  0  0  0  0  0  0  0  0
  142.5020   82.3480  224.3260 F   0  0  0  0  0  0  0  0  0  0  0  0
  140.8280   80.7120  223.8510 C   0  0  0  0  0  0  0  0  0  0  0  0
  140.0554   81.3553  224.2973 H   0  0  0  0  0  0  0  0  0  0  0  0
  140.4820   79.4580  223.3220 C   0  0  0  0  0  0  0  0  0  0  0  0
  139.1650   78.9900  223.3610 C   0  0  0  0  0  0  0  0  0  0  0  0
  138.3756   79.6104  223.8103 H   0  0  0  0  0  0  0  0  0  0  0  0
  138.8490   77.7370  222.8310 C   0  0  0  0  0  0  0  0  0  0  0  0
  137.8149   77.3638  222.8670 H   0  0  0  0  0  0  0  0  0  0  0  0
  142.5700   73.5600  220.3090 N   0  0  0  0  0  0  0  0  0  0  0  0
  143.4650   72.4470  220.0180 C   0  0  0  0  0  0  0  0  0  0  0  0
  143.4991   71.7490  220.8675 H   0  0  0  0  0  0  0  0  0  0  0  0
  143.1288   71.8711  219.1431 H   0  0  0  0  0  0  0  0  0  0  0  0
  144.8420   73.0780  219.7880 C   0  0  2  0  0  0  0  0  0  0  0  0
  145.0855   73.1014  218.7155 H   0  0  0  0  0  0  0  0  0  0  0  0
  145.8800   72.3280  220.3680 O   0  0  0  0  0  0  0  0  0  0  0  0
  145.5440   71.9440  221.2190 H   0  0  0  0  0  0  0  0  0  0  0  0
  144.7610   74.4950  220.3650 C   0  0  0  0  0  0  0  0  0  0  0  0
  145.1897   74.5230  221.3776 H   0  0  0  0  0  0  0  0  0  0  0  0
  145.3273   75.2163  219.7575 H   0  0  0  0  0  0  0  0  0  0  0  0
  143.2710   74.8340  220.4060 C   0  0  1  0  0  0  0  0  0  0  0  0
  143.0117   75.3696  221.3311 H   0  0  0  0  0  0  0  0  0  0  0  0
  142.8840   75.7480  219.2700 C   0  0  0  0  0  0  0  0  0  0  0  0
  143.7860   76.1980  218.5120 O   0  0  0  0  0  0  0  0  0  0  0  0
  141.5050   76.0560  219.0110 N   0  0  0  0  0  0  0  0  0  0  0  0
  140.7630   75.5600  219.5530 H   0  0  0  0  0  0  0  0  0  0  0  0
  141.1160   77.1090  218.0760 C   0  0  2  0  0  0  0  0  0  0  0  0
  141.8695   77.1757  217.2774 H   0  0  0  0  0  0  0  0  0  0  0  0
  141.0530   78.4400  218.8000 C   0  0  0  0  0  0  0  0  0  0  0  0
  142.2160   79.2200  218.9490 C   0  0  0  0  0  0  0  0  0  0  0  0
  143.1725   78.8605  218.5416 H   0  0  0  0  0  0  0  0  0  0  0  0
  142.1600   80.4520  219.6140 C   0  0  0  0  0  0  0  0  0  0  0  0
  143.0723   81.0557  219.7292 H   0  0  0  0  0  0  0  0  0  0  0  0
  140.9450   80.9160  220.1320 C   0  0  0  0  0  0  0  0  0  0  0  0
  140.9040   81.8851  220.6508 H   0  0  0  0  0  0  0  0  0  0  0  0
  139.7800   80.1480  219.9910 C   0  0  0  0  0  0  0  0  0  0  0  0
  138.2560   80.7280  220.6500 Cl  0  0  0  0  0  0  0  0  0  0  0  0
  139.8320   78.9180  219.3240 C   0  0  0  0  0  0  0  0  0  0  0  0
  138.9159   78.3203  219.2075 H   0  0  0  0  0  0  0  0  0  0  0  0
  139.7600   76.7780  217.4260 C   0  0  0  0  0  0  0  0  0  0  0  0
  139.0319   77.5590  217.6901 H   0  0  0  0  0  0  0  0  0  0  0  0
  139.8903   76.7340  216.3346 H   0  0  0  0  0  0  0  0  0  0  0  0
  139.2880   75.5350  217.8770 O   0  0  0  0  0  0  0  0  0  0  0  0
  139.5740   75.4520  218.8270 H   0  0  0  0  0  0  0  0  0  0  0  0
  1  2  1  0
  2  3  1  0
  3  4  2  0
  4  5  1  0
  4  6  1  0
  6  7  1  0
  7  8  2  0
  7  9  1  0
  9 10  2  0
 10 11  1  0
 11 12  2  0
 12 13  1  0
 12 14  1  0
 14 15  1  0
 14 16  2  0
 16 17  1  0
 16 18  1  0
 18 19  1  0
 18 20  2  0
 20 21  1  0
 21 22  1  0
 21 23  2  0
 23 24  1  0
  3 25  1  0
 25 26  1  0
 26 27  1  0
 26 28  1  0
 26 29  1  0
 29 30  1  6
 29 31  1  0
 31 32  1  0
 29 33  1  0
 33 34  1  0
 33 35  1  0
 33 36  1  0
 36 37  1  1
 36 38  1  0
 38 39  2  0
 38 40  1  0
 40 41  1  0
 40 42  1  0
 42 43  1  6
 42 44  1  0
 44 45  2  0
 45 46  1  0
 45 47  1  0
 47 48  1  0
 47 49  2  0
 49 50  1  0
 49 51  1  0
 51 52  1  0
 51 53  2  0
 53 54  1  0
 42 55  1  0
 55 56  1  0
 55 57  1  0
 55 58  1  0
 58 59  1  0
 23  9  1  0
 36 25  1  0
 53 44  1  0
 20 11  1  0
M  CHG  1   6  -1
M  END
>  <UniqueID>  (63) 
156

>  <SMILES>  (63) 
O=C([N-]/C=C(\O)N1C[C@H](O)C[C@H]1C(=O)N[C@@H](CO)c1cccc(Cl)c1)c1ccc2cc(F)ccc2n1

>  <Energy>  (63) 
62.53213630697353

>  <Genealogy>  (63) 
O=C([N-]CC(=O)N1C[C@H](O)C[C@H]1C(=O)N[C@@H](CO)c1cccc(Cl)c1)c1ccc2cc(F)ccc2n1 (protonated)
O=C([N-]C=C(O)N1C[C@H](O)C[C@H]1C(=O)N[C@@H](CO)c1cccc(Cl)c1)c1ccc2cc(F)ccc2n1 (tautomer)
O=C([N-]/C=C(\O)N1C[C@H](O)C[C@H]1C(=O)N[C@@H](CO)c1cccc(Cl)c1)c1ccc2cc(F)ccc2n1 (cis-trans isomerization)
O=C([N-]/C=C(\O)N1C[C@H](O)C[C@H]1C(=O)N[C@@H](CO)c1cccc(Cl)c1)c1ccc2cc(F)ccc2n1 (3D coordinates assigned)
O=C([N-]/C=C(\O)N1C[C@H](O)C[C@H]1C(=O)N[C@@H](CO)c1cccc(Cl)c1)c1ccc2cc(F)ccc2n1 (nonaromatic ring conformer: 62.53213630697353 kcal/mol)

>  <smiles>  (63) 
O=C(NCC(=O)N1C[C@H](O)C[C@H]1C(=O)N[C@@H](CO)c1cccc(Cl)c1)c1ccc2cc(F)ccc2n1

>  <score_type>  (63) 
oracle

>  <origin>  (63) 
autodockgpu

>  <m_score__min__energy>  (63) 
-8.7599999999999998

>  <m_primary>  (63) 
energy

>  <meeko>  (63) 
{"free_energy": -5.5, "intermolecular_energy": -9.08, "internal_energy": -8.79, "cluster_size": 4, "cluster_id": 5, "rank_in_cluster": 1}

>  <energy>  (63) 
-8.25

>  <cluster_rmsd>  (63) 
1.18

>  <rmsd>  (63) 
269.67

>  <cluster>  (63) 
1

$$$$
ZXEKIRKRYMKUMV-QMUIBWSYNA-M
     RDKit          3D

 59 62  0  0  0  0  0  0  0  0999 V2000
  139.2200   73.7040  222.5530 H   0  0  0  0  0  0  0  0  0  0  0  0
  140.1990   73.8750  222.3410 O   0  0  0  0  0  0  0  0  0  0  0  0
  140.9000   73.1840  221.3470 C   0  0  0  0  0  0  0  0  0  0  0  0
  140.7380   71.8640  221.1940 C   0  0  0  0  0  0  0  0  0  0  0  0
  141.6202   71.2255  221.0387 H   0  0  0  0  0  0  0  0  0  0  0  0
  139.4360   71.2690  221.2290 N   0  0  0  0  0  0  0  0  0  0  0  0
  138.6640   71.0740  222.4230 C   0  0  0  0  0  0  0  0  0  0  0  0
  137.4090   71.1210  222.3430 O   0  0  0  0  0  0  0  0  0  0  0  0
  139.2980   70.7740  223.7260 C   0  0  0  0  0  0  0  0  0  0  0  0
  139.1590   69.5330  224.2790 N   0  0  0  0  0  0  0  0  0  0  0  0
  139.7290   69.2020  225.4670 C   0  0  0  0  0  0  0  0  0  0  0  0
  139.5600   67.9130  225.9940 C   0  0  0  0  0  0  0  0  0  0  0  0
  138.9683   67.1661  225.4444 H   0  0  0  0  0  0  0  0  0  0  0  0
  140.1460   67.5790  227.2210 C   0  0  0  0  0  0  0  0  0  0  0  0
  140.0188   66.5668  227.6324 H   0  0  0  0  0  0  0  0  0  0  0  0
  140.8940   68.5310  227.9260 C   0  0  0  0  0  0  0  0  0  0  0  0
  141.4520   68.2000  229.1170 F   0  0  0  0  0  0  0  0  0  0  0  0
  141.0730   69.8210  227.4050 C   0  0  0  0  0  0  0  0  0  0  0  0
  141.6698   70.5618  227.9573 H   0  0  0  0  0  0  0  0  0  0  0  0
  140.4870   70.1630  226.1750 C   0  0  0  0  0  0  0  0  0  0  0  0
  140.6300   71.4440  225.6320 C   0  0  0  0  0  0  0  0  0  0  0  0
  141.2139   72.2058  226.1693 H   0  0  0  0  0  0  0  0  0  0  0  0
  140.0330   71.7580  224.4090 C   0  0  0  0  0  0  0  0  0  0  0  0
  140.1373   72.7672  223.9839 H   0  0  0  0  0  0  0  0  0  0  0  0
  141.7930   73.9290  220.4880 N   0  0  0  0  0  0  0  0  0  0  0  0
  142.3680   73.4300  219.2450 C   0  0  0  0  0  0  0  0  0  0  0  0
  143.0520   72.5925  219.4468 H   0  0  0  0  0  0  0  0  0  0  0  0
  141.5942   73.0538  218.5596 H   0  0  0  0  0  0  0  0  0  0  0  0
  143.1330   74.6130  218.6440 C   0  0  2  0  0  0  0  0  0  0  0  0
  142.5739   75.0517  217.8044 H   0  0  0  0  0  0  0  0  0  0  0  0
  144.3640   74.2280  218.0850 O   0  0  0  0  0  0  0  0  0  0  0  0
  144.8500   75.0510  217.8160 H   0  0  0  0  0  0  0  0  0  0  0  0
  143.3070   75.6270  219.7790 C   0  0  0  0  0  0  0  0  0  0  0  0
  144.3045   75.5294  220.2323 H   0  0  0  0  0  0  0  0  0  0  0  0
  143.2192   76.6625  219.4185 H   0  0  0  0  0  0  0  0  0  0  0  0
  142.2200   75.2870  220.8000 C   0  0  1  0  0  0  0  0  0  0  0  0
  142.6029   75.3661  221.8282 H   0  0  0  0  0  0  0  0  0  0  0  0
  141.0610   76.2480  220.7090 C   0  0  0  0  0  0  0  0  0  0  0  0
  140.9890   77.0270  219.7190 O   0  0  0  0  0  0  0  0  0  0  0  0
  140.0200   76.2410  221.6980 N   0  0  0  0  0  0  0  0  0  0  0  0
  140.0170   75.4930  222.4270 H   0  0  0  0  0  0  0  0  0  0  0  0
  139.0170   77.3010  221.7660 C   0  0  2  0  0  0  0  0  0  0  0  0
  138.7342   77.5925  220.7437 H   0  0  0  0  0  0  0  0  0  0  0  0
  139.5960   78.5090  222.4770 C   0  0  0  0  0  0  0  0  0  0  0  0
  138.7490   79.4040  223.1580 C   0  0  0  0  0  0  0  0  0  0  0  0
  137.6634   79.2272  223.1709 H   0  0  0  0  0  0  0  0  0  0  0  0
  139.2810   80.5180  223.8190 C   0  0  0  0  0  0  0  0  0  0  0  0
  138.6132   81.2137  224.3481 H   0  0  0  0  0  0  0  0  0  0  0  0
  140.6620   80.7470  223.8070 C   0  0  0  0  0  0  0  0  0  0  0  0
  141.0774   81.6217  224.3289 H   0  0  0  0  0  0  0  0  0  0  0  0
  141.5170   79.8650  223.1320 C   0  0  0  0  0  0  0  0  0  0  0  0
  143.2520   80.1580  223.1110 Cl  0  0  0  0  0  0  0  0  0  0  0  0
  140.9880   78.7480  222.4730 C   0  0  0  0  0  0  0  0  0  0  0  0
  141.6606   78.0528  221.9493 H   0  0  0  0  0  0  0  0  0  0  0  0
  137.7510   76.8010  222.4860 C   0  0  0  0  0  0  0  0  0  0  0  0
  137.6580   77.3153  223.4539 H   0  0  0  0  0  0  0  0  0  0  0  0
  136.8751   77.0165  221.8564 H   0  0  0  0  0  0  0  0  0  0  0  0
  137.8240   75.4150  222.7040 O   0  0  0  0  0  0  0  0  0  0  0  0
  138.7070   75.2420  223.1300 H   0  0  0  0  0  0  0  0  0  0  0  0
  1  2  1  0
  2  3  1  0
  3  4  2  0
  4  5  1  0
  4  6  1  0
  6  7  1  0
  7  8  2  0
  7  9  1  0
  9 10  2  0
 10 11  1  0
 11 12  2  0
 12 13  1  0
 12 14  1  0
 14 15  1  0
 14 16  2  0
 16 17  1  0
 16 18  1  0
 18 19  1  0
 18 20  2  0
 20 21  1  0
 21 22  1  0
 21 23  2  0
 23 24  1  0
  3 25  1  0
 25 26  1  0
 26 27  1  0
 26 28  1  0
 26 29  1  0
 29 30  1  6
 29 31  1  0
 31 32  1  0
 29 33  1  0
 33 34  1  0
 33 35  1  0
 33 36  1  0
 36 37  1  1
 36 38  1  0
 38 39  2  0
 38 40  1  0
 40 41  1  0
 40 42  1  0
 42 43  1  6
 42 44  1  0
 44 45  2  0
 45 46  1  0
 45 47  1  0
 47 48  1  0
 47 49  2  0
 49 50  1  0
 49 51  1  0
 51 52  1  0
 51 53  2  0
 53 54  1  0
 42 55  1  0
 55 56  1  0
 55 57  1  0
 55 58  1  0
 58 59  1  0
 23  9  1  0
 36 25  1  0
 53 44  1  0
 20 11  1  0
M  CHG  1   6  -1
M  END
>  <UniqueID>  (64) 
156

>  <SMILES>  (64) 
O=C([N-]/C=C(\O)N1C[C@H](O)C[C@H]1C(=O)N[C@@H](CO)c1cccc(Cl)c1)c1ccc2cc(F)ccc2n1

>  <Energy>  (64) 
62.53213630697353

>  <Genealogy>  (64) 
O=C([N-]CC(=O)N1C[C@H](O)C[C@H]1C(=O)N[C@@H](CO)c1cccc(Cl)c1)c1ccc2cc(F)ccc2n1 (protonated)
O=C([N-]C=C(O)N1C[C@H](O)C[C@H]1C(=O)N[C@@H](CO)c1cccc(Cl)c1)c1ccc2cc(F)ccc2n1 (tautomer)
O=C([N-]/C=C(\O)N1C[C@H](O)C[C@H]1C(=O)N[C@@H](CO)c1cccc(Cl)c1)c1ccc2cc(F)ccc2n1 (cis-trans isomerization)
O=C([N-]/C=C(\O)N1C[C@H](O)C[C@H]1C(=O)N[C@@H](CO)c1cccc(Cl)c1)c1ccc2cc(F)ccc2n1 (3D coordinates assigned)
O=C([N-]/C=C(\O)N1C[C@H](O)C[C@H]1C(=O)N[C@@H](CO)c1cccc(Cl)c1)c1ccc2cc(F)ccc2n1 (nonaromatic ring conformer: 62.53213630697353 kcal/mol)

>  <smiles>  (64) 
O=C(NCC(=O)N1C[C@H](O)C[C@H]1C(=O)N[C@@H](CO)c1cccc(Cl)c1)c1ccc2cc(F)ccc2n1

>  <score_type>  (64) 
oracle

>  <origin>  (64) 
autodockgpu

>  <m_score__min__energy>  (64) 
-8.7599999999999998

>  <m_primary>  (64) 
energy

>  <meeko>  (64) 
{"free_energy": -8.55, "intermolecular_energy": -12.13, "internal_energy": -4.38, "cluster_size": 8, "cluster_id": 1, "rank_in_cluster": 2}

>  <energy>  (64) 
-8.13

>  <cluster_rmsd>  (64) 
1.42

>  <rmsd>  (64) 
269.54

>  <cluster>  (64) 
1

$$$$
ZXEKIRKRYMKUMV-QMUIBWSYNA-M
     RDKit          3D

 59 62  0  0  0  0  0  0  0  0999 V2000
  139.8430   73.9920  219.1820 H   0  0  0  0  0  0  0  0  0  0  0  0
  140.3030   74.8770  219.3770 O   0  0  0  0  0  0  0  0  0  0  0  0
  141.1250   75.0860  220.4890 C   0  0  0  0  0  0  0  0  0  0  0  0
  141.9230   74.1080  220.9370 C   0  0  0  0  0  0  0  0  0  0  0  0
  142.9654   74.3391  221.2018 H   0  0  0  0  0  0  0  0  0  0  0  0
  141.4420   72.7670  221.0770 N   0  0  0  0  0  0  0  0  0  0  0  0
  140.1250   72.4190  221.5290 C   0  0  0  0  0  0  0  0  0  0  0  0
  139.1400   72.7240  220.8050 O   0  0  0  0  0  0  0  0  0  0  0  0
  139.8980   71.6780  222.7890 C   0  0  0  0  0  0  0  0  0  0  0  0
  140.5490   72.0580  223.9270 N   0  0  0  0  0  0  0  0  0  0  0  0
  140.3680   71.4200  225.1130 C   0  0  0  0  0  0  0  0  0  0  0  0
  141.0570   71.8490  226.2560 C   0  0  0  0  0  0  0  0  0  0  0  0
  141.7429   72.7069  226.1960 H   0  0  0  0  0  0  0  0  0  0  0  0
  140.8710   71.1840  227.4740 C   0  0  0  0  0  0  0  0  0  0  0  0
  141.4079   71.5231  228.3722 H   0  0  0  0  0  0  0  0  0  0  0  0
  140.0020   70.0870  227.5510 C   0  0  0  0  0  0  0  0  0  0  0  0
  139.8330   69.4450  228.7330 F   0  0  0  0  0  0  0  0  0  0  0  0
  139.3030   69.6530  226.4140 C   0  0  0  0  0  0  0  0  0  0  0  0
  138.6139   68.7983  226.4815 H   0  0  0  0  0  0  0  0  0  0  0  0
  139.4880   70.3160  225.1890 C   0  0  0  0  0  0  0  0  0  0  0  0
  138.8220   69.9020  224.0310 C   0  0  0  0  0  0  0  0  0  0  0  0
  138.1357   69.0433  224.0702 H   0  0  0  0  0  0  0  0  0  0  0  0
  139.0260   70.5760  222.8250 C   0  0  0  0  0  0  0  0  0  0  0  0
  138.5089   70.2475  221.9114 H   0  0  0  0  0  0  0  0  0  0  0  0
  141.0980   76.3790  221.1340 N   0  0  0  0  0  0  0  0  0  0  0  0
  141.8260   77.5570  220.6780 C   0  0  0  0  0  0  0  0  0  0  0  0
  142.9108   77.3945  220.7611 H   0  0  0  0  0  0  0  0  0  0  0  0
  141.6157   77.7833  219.6223 H   0  0  0  0  0  0  0  0  0  0  0  0
  141.3830   78.6950  221.6020 C   0  0  2  0  0  0  0  0  0  0  0  0
  140.6749   79.3607  221.0867 H   0  0  0  0  0  0  0  0  0  0  0  0
  142.4500   79.5330  221.9720 O   0  0  0  0  0  0  0  0  0  0  0  0
  143.2880   79.0040  221.9210 H   0  0  0  0  0  0  0  0  0  0  0  0
  140.7280   78.0270  222.8150 C   0  0  0  0  0  0  0  0  0  0  0  0
  141.4428   77.9571  223.6482 H   0  0  0  0  0  0  0  0  0  0  0  0
  139.8647   78.6019  223.1814 H   0  0  0  0  0  0  0  0  0  0  0  0
  140.3210   76.6310  222.3410 C   0  0  1  0  0  0  0  0  0  0  0  0
  140.5189   75.8761  223.1162 H   0  0  0  0  0  0  0  0  0  0  0  0
  138.8430   76.5570  222.0530 C   0  0  0  0  0  0  0  0  0  0  0  0
  138.0840   77.4520  222.5160 O   0  0  0  0  0  0  0  0  0  0  0  0
  138.3070   75.5200  221.2160 N   0  0  0  0  0  0  0  0  0  0  0  0
  138.9640   74.8760  220.7210 H   0  0  0  0  0  0  0  0  0  0  0  0
  136.8690   75.2860  221.1070 C   0  0  2  0  0  0  0  0  0  0  0  0
  136.3506   76.2549  221.0574 H   0  0  0  0  0  0  0  0  0  0  0  0
  136.3800   74.5310  222.3280 C   0  0  0  0  0  0  0  0  0  0  0  0
  136.5350   73.1330  222.4050 C   0  0  0  0  0  0  0  0  0  0  0  0
  137.0100   72.5884  221.5757 H   0  0  0  0  0  0  0  0  0  0  0  0
  136.0870   72.4330  223.5330 C   0  0  0  0  0  0  0  0  0  0  0  0
  136.2083   71.3410  223.5860 H   0  0  0  0  0  0  0  0  0  0  0  0
  135.4850   73.1220  224.5930 C   0  0  0  0  0  0  0  0  0  0  0  0
  135.1382   72.5703  225.4792 H   0  0  0  0  0  0  0  0  0  0  0  0
  135.3230   74.5130  224.5280 C   0  0  0  0  0  0  0  0  0  0  0  0
  134.5590   75.3760  225.8570 Cl  0  0  0  0  0  0  0  0  0  0  0  0
  135.7720   75.2160  223.4030 C   0  0  0  0  0  0  0  0  0  0  0  0
  135.6504   76.3083  223.3564 H   0  0  0  0  0  0  0  0  0  0  0  0
  136.5450   74.5070  219.8190 C   0  0  0  0  0  0  0  0  0  0  0  0
  136.1111   73.5319  220.0853 H   0  0  0  0  0  0  0  0  0  0  0  0
  135.8293   75.0904  219.2212 H   0  0  0  0  0  0  0  0  0  0  0  0
  137.7090   74.3030  219.0610 O   0  0  0  0  0  0  0  0  0  0  0  0
  138.3860   73.9180  219.6810 H   0  0  0  0  0  0  0  0  0  0  0  0
  1  2  1  0
  2  3  1  0
  3  4  2  0
  4  5  1  0
  4  6  1  0
  6  7  1  0
  7  8  2  0
  7  9  1  0
  9 10  2  0
 10 11  1  0
 11 12  2  0
 12 13  1  0
 12 14  1  0
 14 15  1  0
 14 16  2  0
 16 17  1  0
 16 18  1  0
 18 19  1  0
 18 20  2  0
 20 21  1  0
 21 22  1  0
 21 23  2  0
 23 24  1  0
  3 25  1  0
 25 26  1  0
 26 27  1  0
 26 28  1  0
 26 29  1  0
 29 30  1  6
 29 31  1  0
 31 32  1  0
 29 33  1  0
 33 34  1  0
 33 35  1  0
 33 36  1  0
 36 37  1  1
 36 38  1  0
 38 39  2  0
 38 40  1  0
 40 41  1  0
 40 42  1  0
 42 43  1  6
 42 44  1  0
 44 45  2  0
 45 46  1  0
 45 47  1  0
 47 48  1  0
 47 49  2  0
 49 50  1  0
 49 51  1  0
 51 52  1  0
 51 53  2  0
 53 54  1  0
 42 55  1  0
 55 56  1  0
 55 57  1  0
 55 58  1  0
 58 59  1  0
 23  9  1  0
 36 25  1  0
 53 44  1  0
 20 11  1  0
M  CHG  1   6  -1
M  END
>  <UniqueID>  (65) 
156

>  <SMILES>  (65) 
O=C([N-]/C=C(\O)N1C[C@H](O)C[C@H]1C(=O)N[C@@H](CO)c1cccc(Cl)c1)c1ccc2cc(F)ccc2n1

>  <Energy>  (65) 
62.53213630697353

>  <Genealogy>  (65) 
O=C([N-]CC(=O)N1C[C@H](O)C[C@H]1C(=O)N[C@@H](CO)c1cccc(Cl)c1)c1ccc2cc(F)ccc2n1 (protonated)
O=C([N-]C=C(O)N1C[C@H](O)C[C@H]1C(=O)N[C@@H](CO)c1cccc(Cl)c1)c1ccc2cc(F)ccc2n1 (tautomer)
O=C([N-]/C=C(\O)N1C[C@H](O)C[C@H]1C(=O)N[C@@H](CO)c1cccc(Cl)c1)c1ccc2cc(F)ccc2n1 (cis-trans isomerization)
O=C([N-]/C=C(\O)N1C[C@H](O)C[C@H]1C(=O)N[C@@H](CO)c1cccc(Cl)c1)c1ccc2cc(F)ccc2n1 (3D coordinates assigned)
O=C([N-]/C=C(\O)N1C[C@H](O)C[C@H]1C(=O)N[C@@H](CO)c1cccc(Cl)c1)c1ccc2cc(F)ccc2n1 (nonaromatic ring conformer: 62.53213630697353 kcal/mol)

>  <smiles>  (65) 
O=C(NCC(=O)N1C[C@H](O)C[C@H]1C(=O)N[C@@H](CO)c1cccc(Cl)c1)c1ccc2cc(F)ccc2n1

>  <score_type>  (65) 
oracle

>  <origin>  (65) 
autodockgpu

>  <m_score__min__energy>  (65) 
-8.7599999999999998

>  <m_primary>  (65) 
energy

>  <meeko>  (65) 
{"free_energy": -5.66, "intermolecular_energy": -9.24, "internal_energy": -7.7, "cluster_size": 5, "cluster_id": 2, "rank_in_cluster": 5}

>  <energy>  (65) 
-8.12

>  <cluster_rmsd>  (65) 
1.42

>  <rmsd>  (65) 
269.56

>  <cluster>  (65) 
1

$$$$
ZXEKIRKRYMKUMV-QMUIBWSYNA-M
     RDKit          3D

 59 62  0  0  0  0  0  0  0  0999 V2000
  139.5750   73.8410  219.6260 H   0  0  0  0  0  0  0  0  0  0  0  0
  139.9790   74.7600  219.7810 O   0  0  0  0  0  0  0  0  0  0  0  0
  140.9090   75.0300  220.7900 C   0  0  0  0  0  0  0  0  0  0  0  0
  141.7440   74.0730  221.2160 C   0  0  0  0  0  0  0  0  0  0  0  0
  142.8111   74.3058  221.3467 H   0  0  0  0  0  0  0  0  0  0  0  0
  141.2720   72.7530  221.5040 N   0  0  0  0  0  0  0  0  0  0  0  0
  139.9820   72.4540  222.0570 C   0  0  0  0  0  0  0  0  0  0  0  0
  138.9590   72.8980  221.4720 O   0  0  0  0  0  0  0  0  0  0  0  0
  139.8200   71.6070  223.2590 C   0  0  0  0  0  0  0  0  0  0  0  0
  140.4830   71.9280  224.4090 N   0  0  0  0  0  0  0  0  0  0  0  0
  140.3610   71.1910  225.5450 C   0  0  0  0  0  0  0  0  0  0  0  0
  141.0590   71.5610  226.7030 C   0  0  0  0  0  0  0  0  0  0  0  0
  141.7040   72.4520  226.6962 H   0  0  0  0  0  0  0  0  0  0  0  0
  140.9340   70.7950  227.8680 C   0  0  0  0  0  0  0  0  0  0  0  0
  141.4794   71.0866  228.7777 H   0  0  0  0  0  0  0  0  0  0  0  0
  140.1160   69.6580  227.8780 C   0  0  0  0  0  0  0  0  0  0  0  0
  140.0060   68.9180  229.0090 F   0  0  0  0  0  0  0  0  0  0  0  0
  139.4090   69.2820  226.7250 C   0  0  0  0  0  0  0  0  0  0  0  0
  138.7612   68.3931  226.7398 H   0  0  0  0  0  0  0  0  0  0  0  0
  139.5320   70.0450  225.5530 C   0  0  0  0  0  0  0  0  0  0  0  0
  138.8550   69.6930  224.3810 C   0  0  0  0  0  0  0  0  0  0  0  0
  138.2073   68.8040  224.3676 H   0  0  0  0  0  0  0  0  0  0  0  0
  138.9990   70.4670  223.2280 C   0  0  0  0  0  0  0  0  0  0  0  0
  138.4740   70.1867  222.3029 H   0  0  0  0  0  0  0  0  0  0  0  0
  140.9510   76.3600  221.3530 N   0  0  0  0  0  0  0  0  0  0  0  0
  141.7340   77.4680  220.8220 C   0  0  0  0  0  0  0  0  0  0  0  0
  142.8097   77.2561  220.9113 H   0  0  0  0  0  0  0  0  0  0  0  0
  141.5284   77.6385  219.7549 H   0  0  0  0  0  0  0  0  0  0  0  0
  141.3550   78.6830  221.6750 C   0  0  2  0  0  0  0  0  0  0  0  0
  140.6782   79.3504  221.1214 H   0  0  0  0  0  0  0  0  0  0  0  0
  142.4650   79.4880  221.9880 O   0  0  0  0  0  0  0  0  0  0  0  0
  143.2830   79.0120  221.6890 H   0  0  0  0  0  0  0  0  0  0  0  0
  140.6750   78.1260  222.9290 C   0  0  0  0  0  0  0  0  0  0  0  0
  141.3904   78.0727  223.7629 H   0  0  0  0  0  0  0  0  0  0  0  0
  139.8436   78.7652  223.2609 H   0  0  0  0  0  0  0  0  0  0  0  0
  140.1960   76.7250  222.5450 C   0  0  1  0  0  0  0  0  0  0  0  0
  140.3615   76.0108  223.3651 H   0  0  0  0  0  0  0  0  0  0  0  0
  138.7140   76.7080  222.2670 C   0  0  0  0  0  0  0  0  0  0  0  0
  137.9980   77.6490  222.7070 O   0  0  0  0  0  0  0  0  0  0  0  0
  138.1270   75.6710  221.4640 N   0  0  0  0  0  0  0  0  0  0  0  0
  138.7520   74.9850  220.9860 H   0  0  0  0  0  0  0  0  0  0  0  0
  136.6800   75.4980  221.3700 C   0  0  2  0  0  0  0  0  0  0  0  0
  136.2027   76.4884  221.3346 H   0  0  0  0  0  0  0  0  0  0  0  0
  136.1730   74.7530  222.5900 C   0  0  0  0  0  0  0  0  0  0  0  0
  136.3230   73.3560  222.6800 C   0  0  0  0  0  0  0  0  0  0  0  0
  136.8070   72.8037  221.8611 H   0  0  0  0  0  0  0  0  0  0  0  0
  135.8590   72.6660  223.8070 C   0  0  0  0  0  0  0  0  0  0  0  0
  135.9765   71.5741  223.8694 H   0  0  0  0  0  0  0  0  0  0  0  0
  135.2460   73.3640  224.8540 C   0  0  0  0  0  0  0  0  0  0  0  0
  134.8865   72.8196  225.7397 H   0  0  0  0  0  0  0  0  0  0  0  0
  135.0890   74.7550  224.7770 C   0  0  0  0  0  0  0  0  0  0  0  0
  134.3120   75.6300  226.0900 Cl  0  0  0  0  0  0  0  0  0  0  0  0
  135.5550   75.4480  223.6530 C   0  0  0  0  0  0  0  0  0  0  0  0
  135.4390   76.5405  223.5976 H   0  0  0  0  0  0  0  0  0  0  0  0
  136.3090   74.7440  220.0800 C   0  0  0  0  0  0  0  0  0  0  0  0
  135.5834   73.9526  220.3192 H   0  0  0  0  0  0  0  0  0  0  0  0
  135.8713   75.4562  219.3650 H   0  0  0  0  0  0  0  0  0  0  0  0
  137.4510   74.1650  219.5030 O   0  0  0  0  0  0  0  0  0  0  0  0
  138.0550   73.9200  220.2560 H   0  0  0  0  0  0  0  0  0  0  0  0
  1  2  1  0
  2  3  1  0
  3  4  2  0
  4  5  1  0
  4  6  1  0
  6  7  1  0
  7  8  2  0
  7  9  1  0
  9 10  2  0
 10 11  1  0
 11 12  2  0
 12 13  1  0
 12 14  1  0
 14 15  1  0
 14 16  2  0
 16 17  1  0
 16 18  1  0
 18 19  1  0
 18 20  2  0
 20 21  1  0
 21 22  1  0
 21 23  2  0
 23 24  1  0
  3 25  1  0
 25 26  1  0
 26 27  1  0
 26 28  1  0
 26 29  1  0
 29 30  1  6
 29 31  1  0
 31 32  1  0
 29 33  1  0
 33 34  1  0
 33 35  1  0
 33 36  1  0
 36 37  1  1
 36 38  1  0
 38 39  2  0
 38 40  1  0
 40 41  1  0
 40 42  1  0
 42 43  1  6
 42 44  1  0
 44 45  2  0
 45 46  1  0
 45 47  1  0
 47 48  1  0
 47 49  2  0
 49 50  1  0
 49 51  1  0
 51 52  1  0
 51 53  2  0
 53 54  1  0
 42 55  1  0
 55 56  1  0
 55 57  1  0
 55 58  1  0
 58 59  1  0
 23  9  1  0
 36 25  1  0
 53 44  1  0
 20 11  1  0
M  CHG  1   6  -1
M  END
>  <UniqueID>  (66) 
156

>  <SMILES>  (66) 
O=C([N-]/C=C(\O)N1C[C@H](O)C[C@H]1C(=O)N[C@@H](CO)c1cccc(Cl)c1)c1ccc2cc(F)ccc2n1

>  <Energy>  (66) 
62.53213630697353

>  <Genealogy>  (66) 
O=C([N-]CC(=O)N1C[C@H](O)C[C@H]1C(=O)N[C@@H](CO)c1cccc(Cl)c1)c1ccc2cc(F)ccc2n1 (protonated)
O=C([N-]C=C(O)N1C[C@H](O)C[C@H]1C(=O)N[C@@H](CO)c1cccc(Cl)c1)c1ccc2cc(F)ccc2n1 (tautomer)
O=C([N-]/C=C(\O)N1C[C@H](O)C[C@H]1C(=O)N[C@@H](CO)c1cccc(Cl)c1)c1ccc2cc(F)ccc2n1 (cis-trans isomerization)
O=C([N-]/C=C(\O)N1C[C@H](O)C[C@H]1C(=O)N[C@@H](CO)c1cccc(Cl)c1)c1ccc2cc(F)ccc2n1 (3D coordinates assigned)
O=C([N-]/C=C(\O)N1C[C@H](O)C[C@H]1C(=O)N[C@@H](CO)c1cccc(Cl)c1)c1ccc2cc(F)ccc2n1 (nonaromatic ring conformer: 62.53213630697353 kcal/mol)

>  <smiles>  (66) 
O=C(NCC(=O)N1C[C@H](O)C[C@H]1C(=O)N[C@@H](CO)c1cccc(Cl)c1)c1ccc2cc(F)ccc2n1

>  <score_type>  (66) 
oracle

>  <origin>  (66) 
autodockgpu

>  <m_score__min__energy>  (66) 
-8.7599999999999998

>  <m_primary>  (66) 
energy

>  <meeko>  (66) 
{"free_energy": -6.02, "intermolecular_energy": -9.6, "internal_energy": -7.4, "cluster_size": 5, "cluster_id": 2, "rank_in_cluster": 3}

>  <energy>  (66) 
-8.09

>  <cluster_rmsd>  (66) 
1.4

>  <rmsd>  (66) 
269.58

>  <cluster>  (66) 
1

$$$$
ZXEKIRKRYMKUMV-QMUIBWSYNA-M
     RDKit          3D

 59 62  0  0  0  0  0  0  0  0999 V2000
  138.8990   74.0470  219.8410 H   0  0  0  0  0  0  0  0  0  0  0  0
  138.0720   74.5220  220.1920 O   0  0  0  0  0  0  0  0  0  0  0  0
  137.3100   74.0440  221.2640 C   0  0  0  0  0  0  0  0  0  0  0  0
  137.1290   72.7280  221.4350 C   0  0  0  0  0  0  0  0  0  0  0  0
  136.1102   72.3141  221.4083 H   0  0  0  0  0  0  0  0  0  0  0  0
  138.2400   71.8510  221.6520 N   0  0  0  0  0  0  0  0  0  0  0  0
  139.2440   72.0470  222.6580 C   0  0  0  0  0  0  0  0  0  0  0  0
  139.9490   73.0890  222.6100 O   0  0  0  0  0  0  0  0  0  0  0  0
  139.4410   71.0880  223.7680 C   0  0  0  0  0  0  0  0  0  0  0  0
  140.0030   71.5100  224.9380 N   0  0  0  0  0  0  0  0  0  0  0  0
  140.1960   70.6740  225.9920 C   0  0  0  0  0  0  0  0  0  0  0  0
  140.7750   71.1550  227.1750 C   0  0  0  0  0  0  0  0  0  0  0  0
  141.0708   72.2116  227.2537 H   0  0  0  0  0  0  0  0  0  0  0  0
  140.9760   70.2880  228.2560 C   0  0  0  0  0  0  0  0  0  0  0  0
  141.4259   70.6654  229.1862 H   0  0  0  0  0  0  0  0  0  0  0  0
  140.6050   68.9400  228.1550 C   0  0  0  0  0  0  0  0  0  0  0  0
  140.8100   68.1060  229.2050 F   0  0  0  0  0  0  0  0  0  0  0  0
  140.0200   68.4510  226.9770 C   0  0  0  0  0  0  0  0  0  0  0  0
  139.7209   67.3948  226.9060 H   0  0  0  0  0  0  0  0  0  0  0  0
  139.8180   69.3160  225.8890 C   0  0  0  0  0  0  0  0  0  0  0  0
  139.2520   68.8610  224.6940 C   0  0  0  0  0  0  0  0  0  0  0  0
  138.9533   67.8070  224.5950 H   0  0  0  0  0  0  0  0  0  0  0  0
  139.0650   69.7410  223.6260 C   0  0  0  0  0  0  0  0  0  0  0  0
  138.6275   69.3834  222.6822 H   0  0  0  0  0  0  0  0  0  0  0  0
  136.7330   75.0010  222.1810 N   0  0  0  0  0  0  0  0  0  0  0  0
  135.8270   74.6700  223.2730 C   0  0  0  0  0  0  0  0  0  0  0  0
  134.8770   74.2794  222.8794 H   0  0  0  0  0  0  0  0  0  0  0  0
  136.2455   73.8928  223.9293 H   0  0  0  0  0  0  0  0  0  0  0  0
  135.5950   75.9850  224.0250 C   0  0  2  0  0  0  0  0  0  0  0  0
  136.1660   76.0020  224.9651 H   0  0  0  0  0  0  0  0  0  0  0  0
  134.2560   76.1470  224.4230 O   0  0  0  0  0  0  0  0  0  0  0  0
  133.7040   76.2630  223.6060 H   0  0  0  0  0  0  0  0  0  0  0  0
  136.0550   77.1000  223.0810 C   0  0  0  0  0  0  0  0  0  0  0  0
  135.1944   77.5355  222.5521 H   0  0  0  0  0  0  0  0  0  0  0  0
  136.5444   77.9206  223.6261 H   0  0  0  0  0  0  0  0  0  0  0  0
  137.0070   76.4290  222.0910 C   0  0  1  0  0  0  0  0  0  0  0  0
  136.8493   76.8090  221.0708 H   0  0  0  0  0  0  0  0  0  0  0  0
  138.4480   76.7210  222.4290 C   0  0  0  0  0  0  0  0  0  0  0  0
  138.7220   77.7630  223.0860 O   0  0  0  0  0  0  0  0  0  0  0  0
  139.4900   75.8020  222.0660 N   0  0  0  0  0  0  0  0  0  0  0  0
  139.2320   74.8780  221.6560 H   0  0  0  0  0  0  0  0  0  0  0  0
  140.9020   76.1620  222.1710 C   0  0  2  0  0  0  0  0  0  0  0  0
  141.2444   75.9721  223.1990 H   0  0  0  0  0  0  0  0  0  0  0  0
  141.0800   77.6350  221.8620 C   0  0  0  0  0  0  0  0  0  0  0  0
  140.7880   78.1290  220.5760 C   0  0  0  0  0  0  0  0  0  0  0  0
  140.4327   77.4425  219.7934 H   0  0  0  0  0  0  0  0  0  0  0  0
  140.9480   79.4910  220.2890 C   0  0  0  0  0  0  0  0  0  0  0  0
  140.7202   79.8702  219.2818 H   0  0  0  0  0  0  0  0  0  0  0  0
  141.3970   80.3700  221.2810 C   0  0  0  0  0  0  0  0  0  0  0  0
  141.5173   81.4394  221.0530 H   0  0  0  0  0  0  0  0  0  0  0  0
  141.6940   79.8910  222.5650 C   0  0  0  0  0  0  0  0  0  0  0  0
  142.2660   80.9950  223.8090 Cl  0  0  0  0  0  0  0  0  0  0  0  0
  141.5320   78.5310  222.8560 C   0  0  0  0  0  0  0  0  0  0  0  0
  141.7583   78.1578  223.8657 H   0  0  0  0  0  0  0  0  0  0  0  0
  141.7510   75.2990  221.2190 C   0  0  0  0  0  0  0  0  0  0  0  0
  142.4328   75.9497  220.6517 H   0  0  0  0  0  0  0  0  0  0  0  0
  142.3258   74.5738  221.8138 H   0  0  0  0  0  0  0  0  0  0  0  0
  140.9270   74.5990  220.3220 O   0  0  0  0  0  0  0  0  0  0  0  0
  140.1570   74.2580  220.8540 H   0  0  0  0  0  0  0  0  0  0  0  0
  1  2  1  0
  2  3  1  0
  3  4  2  0
  4  5  1  0
  4  6  1  0
  6  7  1  0
  7  8  2  0
  7  9  1  0
  9 10  2  0
 10 11  1  0
 11 12  2  0
 12 13  1  0
 12 14  1  0
 14 15  1  0
 14 16  2  0
 16 17  1  0
 16 18  1  0
 18 19  1  0
 18 20  2  0
 20 21  1  0
 21 22  1  0
 21 23  2  0
 23 24  1  0
  3 25  1  0
 25 26  1  0
 26 27  1  0
 26 28  1  0
 26 29  1  0
 29 30  1  1
 29 31  1  0
 31 32  1  0
 29 33  1  0
 33 34  1  0
 33 35  1  0
 33 36  1  0
 36 37  1  6
 36 38  1  0
 38 39  2  0
 38 40  1  0
 40 41  1  0
 40 42  1  0
 42 43  1  1
 42 44  1  0
 44 45  2  0
 45 46  1  0
 45 47  1  0
 47 48  1  0
 47 49  2  0
 49 50  1  0
 49 51  1  0
 51 52  1  0
 51 53  2  0
 53 54  1  0
 42 55  1  0
 55 56  1  0
 55 57  1  0
 55 58  1  0
 58 59  1  0
 23  9  1  0
 36 25  1  0
 53 44  1  0
 20 11  1  0
M  CHG  1   6  -1
M  END
>  <UniqueID>  (67) 
156

>  <SMILES>  (67) 
O=C([N-]/C=C(\O)N1C[C@H](O)C[C@H]1C(=O)N[C@@H](CO)c1cccc(Cl)c1)c1ccc2cc(F)ccc2n1

>  <Energy>  (67) 
62.53213630697353

>  <Genealogy>  (67) 
O=C([N-]CC(=O)N1C[C@H](O)C[C@H]1C(=O)N[C@@H](CO)c1cccc(Cl)c1)c1ccc2cc(F)ccc2n1 (protonated)
O=C([N-]C=C(O)N1C[C@H](O)C[C@H]1C(=O)N[C@@H](CO)c1cccc(Cl)c1)c1ccc2cc(F)ccc2n1 (tautomer)
O=C([N-]/C=C(\O)N1C[C@H](O)C[C@H]1C(=O)N[C@@H](CO)c1cccc(Cl)c1)c1ccc2cc(F)ccc2n1 (cis-trans isomerization)
O=C([N-]/C=C(\O)N1C[C@H](O)C[C@H]1C(=O)N[C@@H](CO)c1cccc(Cl)c1)c1ccc2cc(F)ccc2n1 (3D coordinates assigned)
O=C([N-]/C=C(\O)N1C[C@H](O)C[C@H]1C(=O)N[C@@H](CO)c1cccc(Cl)c1)c1ccc2cc(F)ccc2n1 (nonaromatic ring conformer: 62.53213630697353 kcal/mol)

>  <smiles>  (67) 
O=C(NCC(=O)N1C[C@H](O)C[C@H]1C(=O)N[C@@H](CO)c1cccc(Cl)c1)c1ccc2cc(F)ccc2n1

>  <score_type>  (67) 
oracle

>  <origin>  (67) 
autodockgpu

>  <m_score__min__energy>  (67) 
-8.7599999999999998

>  <m_primary>  (67) 
energy

>  <meeko>  (67) 
{"free_energy": -6.78, "intermolecular_energy": -10.36, "internal_energy": -6.02, "cluster_size": 8, "cluster_id": 1, "rank_in_cluster": 8}

>  <energy>  (67) 
-7.55

>  <cluster_rmsd>  (67) 
1.42

>  <rmsd>  (67) 
269.54

>  <cluster>  (67) 
1

$$$$
ZXEKIRKRYMKUMV-QMUIBWSYNA-M
     RDKit          3D

 59 62  0  0  0  0  0  0  0  0999 V2000
  139.4850   73.6810  219.5540 H   0  0  0  0  0  0  0  0  0  0  0  0
  140.3600   73.1770  219.6640 O   0  0  0  0  0  0  0  0  0  0  0  0
  141.2430   73.3940  220.7270 C   0  0  0  0  0  0  0  0  0  0  0  0
  140.7840   73.4850  221.9820 C   0  0  0  0  0  0  0  0  0  0  0  0
  141.2520   72.8815  222.7737 H   0  0  0  0  0  0  0  0  0  0  0  0
  139.6950   74.3540  222.3110 N   0  0  0  0  0  0  0  0  0  0  0  0
  139.4060   75.5860  221.6330 C   0  0  0  0  0  0  0  0  0  0  0  0
  138.8250   75.5360  220.5170 O   0  0  0  0  0  0  0  0  0  0  0  0
  139.7280   76.9020  222.2250 C   0  0  0  0  0  0  0  0  0  0  0  0
  141.0100   77.3690  222.1850 N   0  0  0  0  0  0  0  0  0  0  0  0
  141.3580   78.5770  222.7040 C   0  0  0  0  0  0  0  0  0  0  0  0
  142.6880   79.0150  222.6370 C   0  0  0  0  0  0  0  0  0  0  0  0
  143.4527   78.3837  222.1609 H   0  0  0  0  0  0  0  0  0  0  0  0
  143.0410   80.2570  223.1770 C   0  0  0  0  0  0  0  0  0  0  0  0
  144.0834   80.6037  223.1201 H   0  0  0  0  0  0  0  0  0  0  0  0
  142.0700   81.0600  223.7900 C   0  0  0  0  0  0  0  0  0  0  0  0
  142.4230   82.2580  224.3180 F   0  0  0  0  0  0  0  0  0  0  0  0
  140.7350   80.6320  223.8580 C   0  0  0  0  0  0  0  0  0  0  0  0
  139.9739   81.2697  224.3314 H   0  0  0  0  0  0  0  0  0  0  0  0
  140.3750   79.3860  223.3190 C   0  0  0  0  0  0  0  0  0  0  0  0
  139.0580   78.9200  223.3820 C   0  0  0  0  0  0  0  0  0  0  0  0
  138.2803   79.5350  223.8585 H   0  0  0  0  0  0  0  0  0  0  0  0
  138.7280   77.6750  222.8410 C   0  0  0  0  0  0  0  0  0  0  0  0
  137.6945   77.3025  222.8965 H   0  0  0  0  0  0  0  0  0  0  0  0
  142.6550   73.5090  220.4410 N   0  0  0  0  0  0  0  0  0  0  0  0
  143.5390   72.3920  220.1320 C   0  0  0  0  0  0  0  0  0  0  0  0
  143.6382   71.7278  221.0032 H   0  0  0  0  0  0  0  0  0  0  0  0
  143.1496   71.7798  219.3052 H   0  0  0  0  0  0  0  0  0  0  0  0
  144.8900   73.0240  219.7840 C   0  0  2  0  0  0  0  0  0  0  0  0
  145.0587   73.0075  218.6971 H   0  0  0  0  0  0  0  0  0  0  0  0
  145.9730   72.3050  220.3200 O   0  0  0  0  0  0  0  0  0  0  0  0
  145.6410   71.7800  221.0930 H   0  0  0  0  0  0  0  0  0  0  0  0
  144.8350   74.4610  220.3100 C   0  0  0  0  0  0  0  0  0  0  0  0
  145.3315   74.5314  221.2890 H   0  0  0  0  0  0  0  0  0  0  0  0
  145.3516   75.1620  219.6379 H   0  0  0  0  0  0  0  0  0  0  0  0
  143.3470   74.7910  220.4400 C   0  0  1  0  0  0  0  0  0  0  0  0
  143.1459   75.3614  221.3588 H   0  0  0  0  0  0  0  0  0  0  0  0
  142.8740   75.6560  219.2990 C   0  0  0  0  0  0  0  0  0  0  0  0
  143.7290   76.1880  218.5400 O   0  0  0  0  0  0  0  0  0  0  0  0
  141.4720   75.8270  219.0380 N   0  0  0  0  0  0  0  0  0  0  0  0
  140.7810   75.2630  219.5810 H   0  0  0  0  0  0  0  0  0  0  0  0
  140.9830   76.8320  218.0960 C   0  0  2  0  0  0  0  0  0  0  0  0
  141.6483   76.8566  217.2203 H   0  0  0  0  0  0  0  0  0  0  0  0
  140.9910   78.1980  218.7550 C   0  0  0  0  0  0  0  0  0  0  0  0
  142.1860   78.9390  218.8330 C   0  0  0  0  0  0  0  0  0  0  0  0
  143.1160   78.5241  218.4171 H   0  0  0  0  0  0  0  0  0  0  0  0
  142.1950   80.2020  219.4380 C   0  0  0  0  0  0  0  0  0  0  0  0
  143.1321   80.7749  219.4985 H   0  0  0  0  0  0  0  0  0  0  0  0
  141.0140   80.7370  219.9660 C   0  0  0  0  0  0  0  0  0  0  0  0
  141.0245   81.7310  220.4370 H   0  0  0  0  0  0  0  0  0  0  0  0
  139.8180   80.0090  219.8960 C   0  0  0  0  0  0  0  0  0  0  0  0
  138.3370   80.6780  220.5670 Cl  0  0  0  0  0  0  0  0  0  0  0  0
  139.8050   78.7470  219.2890 C   0  0  0  0  0  0  0  0  0  0  0  0
  138.8645   78.1798  219.2279 H   0  0  0  0  0  0  0  0  0  0  0  0
  139.5680   76.4710  217.6090 C   0  0  0  0  0  0  0  0  0  0  0  0
  138.8449   77.1778  218.0421 H   0  0  0  0  0  0  0  0  0  0  0  0
  139.5444   76.5291  216.5108 H   0  0  0  0  0  0  0  0  0  0  0  0
  139.2300   75.1650  218.0020 O   0  0  0  0  0  0  0  0  0  0  0  0
  139.4940   75.0810  218.9580 H   0  0  0  0  0  0  0  0  0  0  0  0
  1  2  1  0
  2  3  1  0
  3  4  2  0
  4  5  1  0
  4  6  1  0
  6  7  1  0
  7  8  2  0
  7  9  1  0
  9 10  2  0
 10 11  1  0
 11 12  2  0
 12 13  1  0
 12 14  1  0
 14 15  1  0
 14 16  2  0
 16 17  1  0
 16 18  1  0
 18 19  1  0
 18 20  2  0
 20 21  1  0
 21 22  1  0
 21 23  2  0
 23 24  1  0
  3 25  1  0
 25 26  1  0
 26 27  1  0
 26 28  1  0
 26 29  1  0
 29 30  1  6
 29 31  1  0
 31 32  1  0
 29 33  1  0
 33 34  1  0
 33 35  1  0
 33 36  1  0
 36 37  1  1
 36 38  1  0
 38 39  2  0
 38 40  1  0
 40 41  1  0
 40 42  1  0
 42 43  1  6
 42 44  1  0
 44 45  2  0
 45 46  1  0
 45 47  1  0
 47 48  1  0
 47 49  2  0
 49 50  1  0
 49 51  1  0
 51 52  1  0
 51 53  2  0
 53 54  1  0
 42 55  1  0
 55 56  1  0
 55 57  1  0
 55 58  1  0
 58 59  1  0
 23  9  1  0
 36 25  1  0
 53 44  1  0
 20 11  1  0
M  CHG  1   6  -1
M  END
>  <UniqueID>  (68) 
156

>  <SMILES>  (68) 
O=C([N-]/C=C(\O)N1C[C@H](O)C[C@H]1C(=O)N[C@@H](CO)c1cccc(Cl)c1)c1ccc2cc(F)ccc2n1

>  <Energy>  (68) 
62.53213630697353

>  <Genealogy>  (68) 
O=C([N-]CC(=O)N1C[C@H](O)C[C@H]1C(=O)N[C@@H](CO)c1cccc(Cl)c1)c1ccc2cc(F)ccc2n1 (protonated)
O=C([N-]C=C(O)N1C[C@H](O)C[C@H]1C(=O)N[C@@H](CO)c1cccc(Cl)c1)c1ccc2cc(F)ccc2n1 (tautomer)
O=C([N-]/C=C(\O)N1C[C@H](O)C[C@H]1C(=O)N[C@@H](CO)c1cccc(Cl)c1)c1ccc2cc(F)ccc2n1 (cis-trans isomerization)
O=C([N-]/C=C(\O)N1C[C@H](O)C[C@H]1C(=O)N[C@@H](CO)c1cccc(Cl)c1)c1ccc2cc(F)ccc2n1 (3D coordinates assigned)
O=C([N-]/C=C(\O)N1C[C@H](O)C[C@H]1C(=O)N[C@@H](CO)c1cccc(Cl)c1)c1ccc2cc(F)ccc2n1 (nonaromatic ring conformer: 62.53213630697353 kcal/mol)

>  <smiles>  (68) 
O=C(NCC(=O)N1C[C@H](O)C[C@H]1C(=O)N[C@@H](CO)c1cccc(Cl)c1)c1ccc2cc(F)ccc2n1

>  <score_type>  (68) 
oracle

>  <origin>  (68) 
autodockgpu

>  <m_score__min__energy>  (68) 
-8.7599999999999998

>  <m_primary>  (68) 
energy

>  <meeko>  (68) 
{"free_energy": -5.4, "intermolecular_energy": -8.98, "internal_energy": -8.82, "cluster_size": 4, "cluster_id": 5, "rank_in_cluster": 4}

>  <energy>  (68) 
-6.78

>  <cluster_rmsd>  (68) 
1.9

>  <rmsd>  (68) 
269.34

>  <cluster>  (68) 
1

$$$$
ZXEKIRKRYMKUMV-QMUIBWSYNA-M
     RDKit          3D

 59 62  0  0  0  0  0  0  0  0999 V2000
  138.6300   74.3810  222.7690 H   0  0  0  0  0  0  0  0  0  0  0  0
  138.8470   75.3390  222.5100 O   0  0  0  0  0  0  0  0  0  0  0  0
  140.1000   75.7410  222.0350 C   0  0  0  0  0  0  0  0  0  0  0  0
  140.9720   74.8350  221.5730 C   0  0  0  0  0  0  0  0  0  0  0  0
  141.6319   75.0991  220.7334 H   0  0  0  0  0  0  0  0  0  0  0  0
  141.0600   73.5290  222.1530 N   0  0  0  0  0  0  0  0  0  0  0  0
  139.9480   72.6370  222.3150 C   0  0  0  0  0  0  0  0  0  0  0  0
  139.0100   72.6840  221.4760 O   0  0  0  0  0  0  0  0  0  0  0  0
  139.8960   71.6380  223.4060 C   0  0  0  0  0  0  0  0  0  0  0  0
  140.4820   71.9150  224.6070 N   0  0  0  0  0  0  0  0  0  0  0  0
  140.4530   71.0390  225.6460 C   0  0  0  0  0  0  0  0  0  0  0  0
  141.0670   71.3690  226.8630 C   0  0  0  0  0  0  0  0  0  0  0  0
  141.5696   72.3403  226.9811 H   0  0  0  0  0  0  0  0  0  0  0  0
  141.0390   70.4600  227.9270 C   0  0  0  0  0  0  0  0  0  0  0  0
  141.5170   70.7199  228.8830 H   0  0  0  0  0  0  0  0  0  0  0  0
  140.4040   69.2200  227.7780 C   0  0  0  0  0  0  0  0  0  0  0  0
  140.3870   68.3440  228.8120 F   0  0  0  0  0  0  0  0  0  0  0  0
  139.7820   68.8830  226.5660 C   0  0  0  0  0  0  0  0  0  0  0  0
  139.2760   67.9125  226.4563 H   0  0  0  0  0  0  0  0  0  0  0  0
  139.8080   69.7900  225.4930 C   0  0  0  0  0  0  0  0  0  0  0  0
  139.2140   69.4820  224.2660 C   0  0  0  0  0  0  0  0  0  0  0  0
  138.7107   68.5137  224.1276 H   0  0  0  0  0  0  0  0  0  0  0  0
  139.2580   70.4010  223.2150 C   0  0  0  0  0  0  0  0  0  0  0  0
  138.7971   70.1583  222.2462 H   0  0  0  0  0  0  0  0  0  0  0  0
  140.4250   77.1490  222.0480 N   0  0  0  0  0  0  0  0  0  0  0  0
  141.3370   77.8050  221.1210 C   0  0  0  0  0  0  0  0  0  0  0  0
  142.3629   77.4349  221.2644 H   0  0  0  0  0  0  0  0  0  0  0  0
  141.0677   77.6051  220.0734 H   0  0  0  0  0  0  0  0  0  0  0  0
  141.2550   79.2980  221.4540 C   0  0  2  0  0  0  0  0  0  0  0  0
  140.6570   79.8322  220.7010 H   0  0  0  0  0  0  0  0  0  0  0  0
  142.5120   79.9270  221.4160 O   0  0  0  0  0  0  0  0  0  0  0  0
  143.2050   79.2410  221.6010 H   0  0  0  0  0  0  0  0  0  0  0  0
  140.6060   79.3890  222.8380 C   0  0  0  0  0  0  0  0  0  0  0  0
  141.3744   79.5086  223.6159 H   0  0  0  0  0  0  0  0  0  0  0  0
  139.9327   80.2553  222.9171 H   0  0  0  0  0  0  0  0  0  0  0  0
  139.8570   78.0690  223.0250 C   0  0  1  0  0  0  0  0  0  0  0  0
  139.9692   77.6907  224.0518 H   0  0  0  0  0  0  0  0  0  0  0  0
  138.3750   78.2420  222.8020 C   0  0  0  0  0  0  0  0  0  0  0  0
  137.7570   79.1250  223.4570 O   0  0  0  0  0  0  0  0  0  0  0  0
  137.6830   77.4570  221.8180 N   0  0  0  0  0  0  0  0  0  0  0  0
  138.2340   76.8380  221.1830 H   0  0  0  0  0  0  0  0  0  0  0  0
  136.2240   77.4350  221.7400 C   0  0  2  0  0  0  0  0  0  0  0  0
  135.8559   78.4633  221.6093 H   0  0  0  0  0  0  0  0  0  0  0  0
  135.6520   76.8700  223.0260 C   0  0  0  0  0  0  0  0  0  0  0  0
  136.0360   75.5890  223.4690 C   0  0  0  0  0  0  0  0  0  0  0  0
  136.7510   74.9969  222.8789 H   0  0  0  0  0  0  0  0  0  0  0  0
  135.5110   75.0660  224.6580 C   0  0  0  0  0  0  0  0  0  0  0  0
  135.8128   74.0642  224.9974 H   0  0  0  0  0  0  0  0  0  0  0  0
  134.6030   75.8160  225.4150 C   0  0  0  0  0  0  0  0  0  0  0  0
  134.1954   75.4036  226.3498 H   0  0  0  0  0  0  0  0  0  0  0  0
  134.2120   77.0920  224.9840 C   0  0  0  0  0  0  0  0  0  0  0  0
  133.0650   78.0300  225.9320 Cl  0  0  0  0  0  0  0  0  0  0  0  0
  134.7370   77.6190  223.7970 C   0  0  0  0  0  0  0  0  0  0  0  0
  134.4344   78.6227  223.4637 H   0  0  0  0  0  0  0  0  0  0  0  0
  135.7610   76.6070  220.5280 C   0  0  0  0  0  0  0  0  0  0  0  0
  134.8151   76.1025  220.7744 H   0  0  0  0  0  0  0  0  0  0  0  0
  135.6194   77.2809  219.6702 H   0  0  0  0  0  0  0  0  0  0  0  0
  136.7260   75.6420  220.1930 O   0  0  0  0  0  0  0  0  0  0  0  0
  137.2670   75.4870  221.0140 H   0  0  0  0  0  0  0  0  0  0  0  0
  1  2  1  0
  2  3  1  0
  3  4  2  0
  4  5  1  0
  4  6  1  0
  6  7  1  0
  7  8  2  0
  7  9  1  0
  9 10  2  0
 10 11  1  0
 11 12  2  0
 12 13  1  0
 12 14  1  0
 14 15  1  0
 14 16  2  0
 16 17  1  0
 16 18  1  0
 18 19  1  0
 18 20  2  0
 20 21  1  0
 21 22  1  0
 21 23  2  0
 23 24  1  0
  3 25  1  0
 25 26  1  0
 26 27  1  0
 26 28  1  0
 26 29  1  0
 29 30  1  6
 29 31  1  0
 31 32  1  0
 29 33  1  0
 33 34  1  0
 33 35  1  0
 33 36  1  0
 36 37  1  1
 36 38  1  0
 38 39  2  0
 38 40  1  0
 40 41  1  0
 40 42  1  0
 42 43  1  6
 42 44  1  0
 44 45  2  0
 45 46  1  0
 45 47  1  0
 47 48  1  0
 47 49  2  0
 49 50  1  0
 49 51  1  0
 51 52  1  0
 51 53  2  0
 53 54  1  0
 42 55  1  0
 55 56  1  0
 55 57  1  0
 55 58  1  0
 58 59  1  0
 23  9  1  0
 36 25  1  0
 53 44  1  0
 20 11  1  0
M  CHG  1   6  -1
M  END
>  <UniqueID>  (69) 
156

>  <SMILES>  (69) 
O=C([N-]/C=C(\O)N1C[C@H](O)C[C@H]1C(=O)N[C@@H](CO)c1cccc(Cl)c1)c1ccc2cc(F)ccc2n1

>  <Energy>  (69) 
62.53213630697353

>  <Genealogy>  (69) 
O=C([N-]CC(=O)N1C[C@H](O)C[C@H]1C(=O)N[C@@H](CO)c1cccc(Cl)c1)c1ccc2cc(F)ccc2n1 (protonated)
O=C([N-]C=C(O)N1C[C@H](O)C[C@H]1C(=O)N[C@@H](CO)c1cccc(Cl)c1)c1ccc2cc(F)ccc2n1 (tautomer)
O=C([N-]/C=C(\O)N1C[C@H](O)C[C@H]1C(=O)N[C@@H](CO)c1cccc(Cl)c1)c1ccc2cc(F)ccc2n1 (cis-trans isomerization)
O=C([N-]/C=C(\O)N1C[C@H](O)C[C@H]1C(=O)N[C@@H](CO)c1cccc(Cl)c1)c1ccc2cc(F)ccc2n1 (3D coordinates assigned)
O=C([N-]/C=C(\O)N1C[C@H](O)C[C@H]1C(=O)N[C@@H](CO)c1cccc(Cl)c1)c1ccc2cc(F)ccc2n1 (nonaromatic ring conformer: 62.53213630697353 kcal/mol)

>  <smiles>  (69) 
O=C(NCC(=O)N1C[C@H](O)C[C@H]1C(=O)N[C@@H](CO)c1cccc(Cl)c1)c1ccc2cc(F)ccc2n1

>  <score_type>  (69) 
oracle

>  <origin>  (69) 
autodockgpu

>  <m_score__min__energy>  (69) 
-8.7599999999999998

>  <m_primary>  (69) 
energy

>  <meeko>  (69) 
{"free_energy": -7.01, "intermolecular_energy": -10.59, "internal_energy": -4.82, "cluster_size": 5, "cluster_id": 2, "rank_in_cluster": 1}

>  <energy>  (69) 
-7.01

>  <cluster_rmsd>  (69) 
0.0

>  <rmsd>  (69) 
269.47

>  <cluster>  (69) 
2

$$$$
ZXEKIRKRYMKUMV-QMUIBWSYNA-M
     RDKit          3D

 59 62  0  0  0  0  0  0  0  0999 V2000
  139.4930   73.7220  219.4500 H   0  0  0  0  0  0  0  0  0  0  0  0
  140.4020   73.2730  219.5150 O   0  0  0  0  0  0  0  0  0  0  0  0
  141.2360   73.3870  220.6330 C   0  0  0  0  0  0  0  0  0  0  0  0
  140.7210   73.3570  221.8690 C   0  0  0  0  0  0  0  0  0  0  0  0
  141.0442   72.5740  222.5707 H   0  0  0  0  0  0  0  0  0  0  0  0
  139.7570   74.3270  222.2920 N   0  0  0  0  0  0  0  0  0  0  0  0
  139.4790   75.5520  221.5990 C   0  0  0  0  0  0  0  0  0  0  0  0
  138.9080   75.4940  220.4780 O   0  0  0  0  0  0  0  0  0  0  0  0
  139.8000   76.8740  222.1810 C   0  0  0  0  0  0  0  0  0  0  0  0
  141.0760   77.3530  222.1150 N   0  0  0  0  0  0  0  0  0  0  0  0
  141.4220   78.5650  222.6240 C   0  0  0  0  0  0  0  0  0  0  0  0
  142.7470   79.0160  222.5300 C   0  0  0  0  0  0  0  0  0  0  0  0
  143.5085   78.3909  222.0408 H   0  0  0  0  0  0  0  0  0  0  0  0
  143.0980   80.2630  223.0600 C   0  0  0  0  0  0  0  0  0  0  0  0
  144.1357   80.6195  222.9822 H   0  0  0  0  0  0  0  0  0  0  0  0
  142.1320   81.0580  223.6890 C   0  0  0  0  0  0  0  0  0  0  0  0
  142.4830   82.2610  224.2060 F   0  0  0  0  0  0  0  0  0  0  0  0
  140.8020   80.6180  223.7840 C   0  0  0  0  0  0  0  0  0  0  0  0
  140.0442   81.2498  224.2703 H   0  0  0  0  0  0  0  0  0  0  0  0
  140.4440   79.3670  223.2550 C   0  0  0  0  0  0  0  0  0  0  0  0
  139.1330   78.8880  223.3450 C   0  0  0  0  0  0  0  0  0  0  0  0
  138.3590   79.4967  223.8353 H   0  0  0  0  0  0  0  0  0  0  0  0
  138.8040   77.6390  222.8140 C   0  0  0  0  0  0  0  0  0  0  0  0
  137.7753   77.2570  222.8901 H   0  0  0  0  0  0  0  0  0  0  0  0
  142.6590   73.5280  220.4220 N   0  0  0  0  0  0  0  0  0  0  0  0
  143.5800   72.4270  220.1690 C   0  0  0  0  0  0  0  0  0  0  0  0
  143.6450   71.7701  221.0489 H   0  0  0  0  0  0  0  0  0  0  0  0
  143.2480   71.8021  219.3268 H   0  0  0  0  0  0  0  0  0  0  0  0
  144.9350   73.0840  219.8900 C   0  0  2  0  0  0  0  0  0  0  0  0
  145.1624   73.0647  218.8139 H   0  0  0  0  0  0  0  0  0  0  0  0
  146.0020   72.3900  220.4880 O   0  0  0  0  0  0  0  0  0  0  0  0
  145.6430   71.8820  221.2610 H   0  0  0  0  0  0  0  0  0  0  0  0
  144.8230   74.5230  220.4030 C   0  0  0  0  0  0  0  0  0  0  0  0
  145.2647   74.6088  221.4068 H   0  0  0  0  0  0  0  0  0  0  0  0
  145.3608   75.2304  219.7547 H   0  0  0  0  0  0  0  0  0  0  0  0
  143.3250   74.8240  220.4510 C   0  0  1  0  0  0  0  0  0  0  0  0
  143.0640   75.3951  221.3542 H   0  0  0  0  0  0  0  0  0  0  0  0
  142.8970   75.6730  219.2800 C   0  0  0  0  0  0  0  0  0  0  0  0
  143.7800   76.1630  218.5240 O   0  0  0  0  0  0  0  0  0  0  0  0
  141.5050   75.8760  218.9870 N   0  0  0  0  0  0  0  0  0  0  0  0
  140.7890   75.3450  219.5310 H   0  0  0  0  0  0  0  0  0  0  0  0
  141.0620   76.8700  218.0130 C   0  0  2  0  0  0  0  0  0  0  0  0
  141.7668   76.8835  217.1686 H   0  0  0  0  0  0  0  0  0  0  0  0
  141.0430   78.2440  218.6550 C   0  0  0  0  0  0  0  0  0  0  0  0
  142.2100   79.0310  218.6760 C   0  0  0  0  0  0  0  0  0  0  0  0
  143.1380   78.6462  218.2279 H   0  0  0  0  0  0  0  0  0  0  0  0
  142.1950   80.3020  219.2650 C   0  0  0  0  0  0  0  0  0  0  0  0
  143.1109   80.9111  219.2804 H   0  0  0  0  0  0  0  0  0  0  0  0
  141.0160   80.7980  219.8340 C   0  0  0  0  0  0  0  0  0  0  0  0
  141.0067   81.7975  220.2932 H   0  0  0  0  0  0  0  0  0  0  0  0
  139.8470   80.0240  219.8200 C   0  0  0  0  0  0  0  0  0  0  0  0
  138.3680   80.6450  220.5430 Cl  0  0  0  0  0  0  0  0  0  0  0  0
  139.8590   78.7540  219.2300 C   0  0  0  0  0  0  0  0  0  0  0  0
  138.9398   78.1499  219.2145 H   0  0  0  0  0  0  0  0  0  0  0  0
  139.6700   76.5050  217.4660 C   0  0  0  0  0  0  0  0  0  0  0  0
  138.9374   77.2466  217.8172 H   0  0  0  0  0  0  0  0  0  0  0  0
  139.7098   76.5017  216.3667 H   0  0  0  0  0  0  0  0  0  0  0  0
  139.2850   75.2290  217.9100 O   0  0  0  0  0  0  0  0  0  0  0  0
  139.5220   75.1830  218.8760 H   0  0  0  0  0  0  0  0  0  0  0  0
  1  2  1  0
  2  3  1  0
  3  4  2  0
  4  5  1  0
  4  6  1  0
  6  7  1  0
  7  8  2  0
  7  9  1  0
  9 10  2  0
 10 11  1  0
 11 12  2  0
 12 13  1  0
 12 14  1  0
 14 15  1  0
 14 16  2  0
 16 17  1  0
 16 18  1  0
 18 19  1  0
 18 20  2  0
 20 21  1  0
 21 22  1  0
 21 23  2  0
 23 24  1  0
  3 25  1  0
 25 26  1  0
 26 27  1  0
 26 28  1  0
 26 29  1  0
 29 30  1  6
 29 31  1  0
 31 32  1  0
 29 33  1  0
 33 34  1  0
 33 35  1  0
 33 36  1  0
 36 37  1  1
 36 38  1  0
 38 39  2  0
 38 40  1  0
 40 41  1  0
 40 42  1  0
 42 43  1  6
 42 44  1  0
 44 45  2  0
 45 46  1  0
 45 47  1  0
 47 48  1  0
 47 49  2  0
 49 50  1  0
 49 51  1  0
 51 52  1  0
 51 53  2  0
 53 54  1  0
 42 55  1  0
 55 56  1  0
 55 57  1  0
 55 58  1  0
 58 59  1  0
 23  9  1  0
 36 25  1  0
 53 44  1  0
 20 11  1  0
M  CHG  1   6  -1
M  END
>  <UniqueID>  (70) 
156

>  <SMILES>  (70) 
O=C([N-]/C=C(\O)N1C[C@H](O)C[C@H]1C(=O)N[C@@H](CO)c1cccc(Cl)c1)c1ccc2cc(F)ccc2n1

>  <Energy>  (70) 
62.53213630697353

>  <Genealogy>  (70) 
O=C([N-]CC(=O)N1C[C@H](O)C[C@H]1C(=O)N[C@@H](CO)c1cccc(Cl)c1)c1ccc2cc(F)ccc2n1 (protonated)
O=C([N-]C=C(O)N1C[C@H](O)C[C@H]1C(=O)N[C@@H](CO)c1cccc(Cl)c1)c1ccc2cc(F)ccc2n1 (tautomer)
O=C([N-]/C=C(\O)N1C[C@H](O)C[C@H]1C(=O)N[C@@H](CO)c1cccc(Cl)c1)c1ccc2cc(F)ccc2n1 (cis-trans isomerization)
O=C([N-]/C=C(\O)N1C[C@H](O)C[C@H]1C(=O)N[C@@H](CO)c1cccc(Cl)c1)c1ccc2cc(F)ccc2n1 (3D coordinates assigned)
O=C([N-]/C=C(\O)N1C[C@H](O)C[C@H]1C(=O)N[C@@H](CO)c1cccc(Cl)c1)c1ccc2cc(F)ccc2n1 (nonaromatic ring conformer: 62.53213630697353 kcal/mol)

>  <smiles>  (70) 
O=C(NCC(=O)N1C[C@H](O)C[C@H]1C(=O)N[C@@H](CO)c1cccc(Cl)c1)c1ccc2cc(F)ccc2n1

>  <score_type>  (70) 
oracle

>  <origin>  (70) 
autodockgpu

>  <m_score__min__energy>  (70) 
-8.7599999999999998

>  <m_primary>  (70) 
energy

>  <meeko>  (70) 
{"free_energy": -5.44, "intermolecular_energy": -9.02, "internal_energy": -8.88, "cluster_size": 4, "cluster_id": 5, "rank_in_cluster": 2}

>  <energy>  (70) 
-6.05

>  <cluster_rmsd>  (70) 
1.52

>  <rmsd>  (70) 
269.02

>  <cluster>  (70) 
2

$$$$
ZXEKIRKRYMKUMV-QMUIBWSYNA-M
     RDKit          3D

 59 62  0  0  0  0  0  0  0  0999 V2000
  140.8290   71.1150  221.7540 H   0  0  0  0  0  0  0  0  0  0  0  0
  141.3400   71.1280  220.8760 O   0  0  0  0  0  0  0  0  0  0  0  0
  141.6590   72.3050  220.1910 C   0  0  0  0  0  0  0  0  0  0  0  0
  140.6940   73.0450  219.6280 C   0  0  0  0  0  0  0  0  0  0  0  0
  140.7399   73.2651  218.5512 H   0  0  0  0  0  0  0  0  0  0  0  0
  139.6040   73.5540  220.4050 N   0  0  0  0  0  0  0  0  0  0  0  0
  139.6000   73.6440  221.8370 C   0  0  0  0  0  0  0  0  0  0  0  0
  139.7190   74.7790  222.3690 O   0  0  0  0  0  0  0  0  0  0  0  0
  139.4130   72.4550  222.6980 C   0  0  0  0  0  0  0  0  0  0  0  0
  140.3680   72.1250  223.6160 N   0  0  0  0  0  0  0  0  0  0  0  0
  140.2410   71.0510  224.4390 C   0  0  0  0  0  0  0  0  0  0  0  0
  141.2480   70.7530  225.3680 C   0  0  0  0  0  0  0  0  0  0  0  0
  142.1417   71.3907  225.4353 H   0  0  0  0  0  0  0  0  0  0  0  0
  141.1140   69.6420  226.2100 C   0  0  0  0  0  0  0  0  0  0  0  0
  141.9011   69.4106  226.9428 H   0  0  0  0  0  0  0  0  0  0  0  0
  139.9800   68.8250  226.1210 C   0  0  0  0  0  0  0  0  0  0  0  0
  139.8620   67.7470  226.9350 F   0  0  0  0  0  0  0  0  0  0  0  0
  138.9640   69.1170  225.1970 C   0  0  0  0  0  0  0  0  0  0  0  0
  138.0706   68.4780  225.1375 H   0  0  0  0  0  0  0  0  0  0  0  0
  139.0940   70.2290  224.3490 C   0  0  0  0  0  0  0  0  0  0  0  0
  138.1100   70.5430  223.4060 C   0  0  0  0  0  0  0  0  0  0  0  0
  137.2112   69.9146  223.3208 H   0  0  0  0  0  0  0  0  0  0  0  0
  138.2660   71.6530  222.5720 C   0  0  0  0  0  0  0  0  0  0  0  0
  137.4978   71.8970  221.8234 H   0  0  0  0  0  0  0  0  0  0  0  0
  143.0450   72.7050  220.1120 N   0  0  0  0  0  0  0  0  0  0  0  0
  144.0920   71.9620  219.4220 C   0  0  0  0  0  0  0  0  0  0  0  0
  144.2651   70.9940  219.9149 H   0  0  0  0  0  0  0  0  0  0  0  0
  143.8191   71.7460  218.3785 H   0  0  0  0  0  0  0  0  0  0  0  0
  145.3440   72.8400  219.5120 C   0  0  2  0  0  0  0  0  0  0  0  0
  145.5421   73.3348  218.5498 H   0  0  0  0  0  0  0  0  0  0  0  0
  146.5070   72.0920  219.7700 O   0  0  0  0  0  0  0  0  0  0  0  0
  146.3300   71.5080  220.5530 H   0  0  0  0  0  0  0  0  0  0  0  0
  145.0640   73.8680  220.6110 C   0  0  0  0  0  0  0  0  0  0  0  0
  145.5191   73.5495  221.5604 H   0  0  0  0  0  0  0  0  0  0  0  0
  145.4889   74.8528  220.3667 H   0  0  0  0  0  0  0  0  0  0  0  0
  143.5410   73.9230  220.7400 C   0  0  1  0  0  0  0  0  0  0  0  0
  143.2342   73.9899  221.7942 H   0  0  0  0  0  0  0  0  0  0  0  0
  142.9760   75.1460  220.0600 C   0  0  0  0  0  0  0  0  0  0  0  0
  143.6510   75.7100  219.1560 O   0  0  0  0  0  0  0  0  0  0  0  0
  141.6640   75.6300  220.3890 N   0  0  0  0  0  0  0  0  0  0  0  0
  141.0610   75.0680  221.0300 H   0  0  0  0  0  0  0  0  0  0  0  0
  141.1860   76.9300  219.9240 C   0  0  2  0  0  0  0  0  0  0  0  0
  141.8487   77.2910  219.1237 H   0  0  0  0  0  0  0  0  0  0  0  0
  141.2150   77.9250  221.0680 C   0  0  0  0  0  0  0  0  0  0  0  0
  141.1550   77.4750  222.4010 C   0  0  0  0  0  0  0  0  0  0  0  0
  141.0842   76.3977  222.6120 H   0  0  0  0  0  0  0  0  0  0  0  0
  141.1850   78.3910  223.4590 C   0  0  0  0  0  0  0  0  0  0  0  0
  141.1362   78.0322  224.4977 H   0  0  0  0  0  0  0  0  0  0  0  0
  141.2770   79.7630  223.1970 C   0  0  0  0  0  0  0  0  0  0  0  0
  141.3031   80.4800  224.0308 H   0  0  0  0  0  0  0  0  0  0  0  0
  141.3360   80.2260  221.8750 C   0  0  0  0  0  0  0  0  0  0  0  0
  141.4440   81.9500  221.5460 Cl  0  0  0  0  0  0  0  0  0  0  0  0
  141.3090   79.3110  220.8140 C   0  0  0  0  0  0  0  0  0  0  0  0
  141.3614   79.6745  219.7771 H   0  0  0  0  0  0  0  0  0  0  0  0
  139.7650   76.8060  219.3450 C   0  0  0  0  0  0  0  0  0  0  0  0
  139.3558   77.8123  219.1719 H   0  0  0  0  0  0  0  0  0  0  0  0
  139.8146   76.2480  218.3983 H   0  0  0  0  0  0  0  0  0  0  0  0
  138.9280   76.1140  220.2360 O   0  0  0  0  0  0  0  0  0  0  0  0
  139.2950   75.1910  220.3080 H   0  0  0  0  0  0  0  0  0  0  0  0
  1  2  1  0
  2  3  1  0
  3  4  2  0
  4  5  1  0
  4  6  1  0
  6  7  1  0
  7  8  2  0
  7  9  1  0
  9 10  2  0
 10 11  1  0
 11 12  2  0
 12 13  1  0
 12 14  1  0
 14 15  1  0
 14 16  2  0
 16 17  1  0
 16 18  1  0
 18 19  1  0
 18 20  2  0
 20 21  1  0
 21 22  1  0
 21 23  2  0
 23 24  1  0
  3 25  1  0
 25 26  1  0
 26 27  1  0
 26 28  1  0
 26 29  1  0
 29 30  1  6
 29 31  1  0
 31 32  1  0
 29 33  1  0
 33 34  1  0
 33 35  1  0
 33 36  1  0
 36 37  1  1
 36 38  1  0
 38 39  2  0
 38 40  1  0
 40 41  1  0
 40 42  1  0
 42 43  1  6
 42 44  1  0
 44 45  2  0
 45 46  1  0
 45 47  1  0
 47 48  1  0
 47 49  2  0
 49 50  1  0
 49 51  1  0
 51 52  1  0
 51 53  2  0
 53 54  1  0
 42 55  1  0
 55 56  1  0
 55 57  1  0
 55 58  1  0
 58 59  1  0
 23  9  1  0
 36 25  1  0
 53 44  1  0
 20 11  1  0
M  CHG  1   6  -1
M  END
>  <UniqueID>  (71) 
156

>  <SMILES>  (71) 
O=C([N-]/C=C(\O)N1C[C@H](O)C[C@H]1C(=O)N[C@@H](CO)c1cccc(Cl)c1)c1ccc2cc(F)ccc2n1

>  <Energy>  (71) 
62.53213630697353

>  <Genealogy>  (71) 
O=C([N-]CC(=O)N1C[C@H](O)C[C@H]1C(=O)N[C@@H](CO)c1cccc(Cl)c1)c1ccc2cc(F)ccc2n1 (protonated)
O=C([N-]C=C(O)N1C[C@H](O)C[C@H]1C(=O)N[C@@H](CO)c1cccc(Cl)c1)c1ccc2cc(F)ccc2n1 (tautomer)
O=C([N-]/C=C(\O)N1C[C@H](O)C[C@H]1C(=O)N[C@@H](CO)c1cccc(Cl)c1)c1ccc2cc(F)ccc2n1 (cis-trans isomerization)
O=C([N-]/C=C(\O)N1C[C@H](O)C[C@H]1C(=O)N[C@@H](CO)c1cccc(Cl)c1)c1ccc2cc(F)ccc2n1 (3D coordinates assigned)
O=C([N-]/C=C(\O)N1C[C@H](O)C[C@H]1C(=O)N[C@@H](CO)c1cccc(Cl)c1)c1ccc2cc(F)ccc2n1 (nonaromatic ring conformer: 62.53213630697353 kcal/mol)

>  <smiles>  (71) 
O=C(NCC(=O)N1C[C@H](O)C[C@H]1C(=O)N[C@@H](CO)c1cccc(Cl)c1)c1ccc2cc(F)ccc2n1

>  <score_type>  (71) 
oracle

>  <origin>  (71) 
autodockgpu

>  <m_score__min__energy>  (71) 
-8.7599999999999998

>  <m_primary>  (71) 
energy

>  <meeko>  (71) 
{"free_energy": -6.97, "intermolecular_energy": -10.55, "internal_energy": -5.99, "cluster_size": 1, "cluster_id": 3, "rank_in_cluster": 1}

>  <energy>  (71) 
-6.02

>  <cluster_rmsd>  (71) 
1.39

>  <rmsd>  (71) 
269.05

>  <cluster>  (71) 
2

$$$$
ZXEKIRKRYMKUMV-QMUIBWSYNA-M
     RDKit          3D

 59 62  0  0  0  0  0  0  0  0999 V2000
  139.4900   73.6740  219.4570 H   0  0  0  0  0  0  0  0  0  0  0  0
  140.3880   73.2090  219.5530 O   0  0  0  0  0  0  0  0  0  0  0  0
  141.2300   73.3880  220.6560 C   0  0  0  0  0  0  0  0  0  0  0  0
  140.7270   73.4110  221.8970 C   0  0  0  0  0  0  0  0  0  0  0  0
  141.1195   72.7144  222.6525 H   0  0  0  0  0  0  0  0  0  0  0  0
  139.6870   74.3270  222.2570 N   0  0  0  0  0  0  0  0  0  0  0  0
  139.4220   75.5620  221.5760 C   0  0  0  0  0  0  0  0  0  0  0  0
  138.8650   75.5200  220.4470 O   0  0  0  0  0  0  0  0  0  0  0  0
  139.7390   76.8750  222.1800 C   0  0  0  0  0  0  0  0  0  0  0  0
  141.0150   77.3570  222.1230 N   0  0  0  0  0  0  0  0  0  0  0  0
  141.3580   78.5620  222.6510 C   0  0  0  0  0  0  0  0  0  0  0  0
  142.6820   79.0170  222.5670 C   0  0  0  0  0  0  0  0  0  0  0  0
  143.4457   78.4010  222.0696 H   0  0  0  0  0  0  0  0  0  0  0  0
  143.0300   80.2560  223.1170 C   0  0  0  0  0  0  0  0  0  0  0  0
  144.0672   80.6155  223.0471 H   0  0  0  0  0  0  0  0  0  0  0  0
  142.0610   81.0390  223.7560 C   0  0  0  0  0  0  0  0  0  0  0  0
  142.4090   82.2350  224.2930 F   0  0  0  0  0  0  0  0  0  0  0  0
  140.7320   80.5960  223.8420 C   0  0  0  0  0  0  0  0  0  0  0  0
  139.9723   81.2192  224.3365 H   0  0  0  0  0  0  0  0  0  0  0  0
  140.3770   79.3520  223.2930 C   0  0  0  0  0  0  0  0  0  0  0  0
  139.0670   78.8700  223.3730 C   0  0  0  0  0  0  0  0  0  0  0  0
  138.2911   79.4700  223.8709 H   0  0  0  0  0  0  0  0  0  0  0  0
  138.7410   77.6280  222.8220 C   0  0  0  0  0  0  0  0  0  0  0  0
  137.7128   77.2432  222.8901 H   0  0  0  0  0  0  0  0  0  0  0  0
  142.6490   73.5380  220.4250 N   0  0  0  0  0  0  0  0  0  0  0  0
  143.5680   72.4470  220.1260 C   0  0  0  0  0  0  0  0  0  0  0  0
  143.6493   71.7663  220.9862 H   0  0  0  0  0  0  0  0  0  0  0  0
  143.2228   71.8452  219.2724 H   0  0  0  0  0  0  0  0  0  0  0  0
  144.9170   73.1140  219.8420 C   0  0  2  0  0  0  0  0  0  0  0  0
  145.1264   73.1248  218.7622 H   0  0  0  0  0  0  0  0  0  0  0  0
  145.9950   72.4060  220.4030 O   0  0  0  0  0  0  0  0  0  0  0  0
  145.6420   71.8390  221.1370 H   0  0  0  0  0  0  0  0  0  0  0  0
  144.8110   74.5380  220.3970 C   0  0  0  0  0  0  0  0  0  0  0  0
  145.2691   74.5966  221.3954 H   0  0  0  0  0  0  0  0  0  0  0  0
  145.3369   75.2646  219.7602 H   0  0  0  0  0  0  0  0  0  0  0  0
  143.3130   74.8340  220.4780 C   0  0  1  0  0  0  0  0  0  0  0  0
  143.0659   75.3794  221.4008 H   0  0  0  0  0  0  0  0  0  0  0  0
  142.8640   75.7140  219.3390 C   0  0  0  0  0  0  0  0  0  0  0  0
  143.7350   76.3020  218.6400 O   0  0  0  0  0  0  0  0  0  0  0  0
  141.4710   75.8390  219.0100 N   0  0  0  0  0  0  0  0  0  0  0  0
  140.7780   75.2320  219.5010 H   0  0  0  0  0  0  0  0  0  0  0  0
  140.9910   76.8520  218.0730 C   0  0  2  0  0  0  0  0  0  0  0  0
  141.6662   76.8876  217.2054 H   0  0  0  0  0  0  0  0  0  0  0  0
  140.9880   78.2110  218.7460 C   0  0  0  0  0  0  0  0  0  0  0  0
  142.1770   78.9590  218.8350 C   0  0  0  0  0  0  0  0  0  0  0  0
  143.1108   78.5541  218.4178 H   0  0  0  0  0  0  0  0  0  0  0  0
  142.1770   80.2160  219.4520 C   0  0  0  0  0  0  0  0  0  0  0  0
  143.1102   80.7943  219.5206 H   0  0  0  0  0  0  0  0  0  0  0  0
  140.9900   80.7380  219.9820 C   0  0  0  0  0  0  0  0  0  0  0  0
  140.9921   81.7277  220.4621 H   0  0  0  0  0  0  0  0  0  0  0  0
  139.7990   80.0020  219.9020 C   0  0  0  0  0  0  0  0  0  0  0  0
  138.3120   80.6540  220.5750 Cl  0  0  0  0  0  0  0  0  0  0  0  0
  139.7960   78.7460  219.2820 C   0  0  0  0  0  0  0  0  0  0  0  0
  138.8597   78.1730  219.2122 H   0  0  0  0  0  0  0  0  0  0  0  0
  139.5820   76.4920  217.5660 C   0  0  0  0  0  0  0  0  0  0  0  0
  138.8502   77.1825  218.0105 H   0  0  0  0  0  0  0  0  0  0  0  0
  139.5666   76.5766  216.4694 H   0  0  0  0  0  0  0  0  0  0  0  0
  139.2510   75.1750  217.9240 O   0  0  0  0  0  0  0  0  0  0  0  0
  139.4620   75.0840  218.8930 H   0  0  0  0  0  0  0  0  0  0  0  0
  1  2  1  0
  2  3  1  0
  3  4  2  0
  4  5  1  0
  4  6  1  0
  6  7  1  0
  7  8  2  0
  7  9  1  0
  9 10  2  0
 10 11  1  0
 11 12  2  0
 12 13  1  0
 12 14  1  0
 14 15  1  0
 14 16  2  0
 16 17  1  0
 16 18  1  0
 18 19  1  0
 18 20  2  0
 20 21  1  0
 21 22  1  0
 21 23  2  0
 23 24  1  0
  3 25  1  0
 25 26  1  0
 26 27  1  0
 26 28  1  0
 26 29  1  0
 29 30  1  6
 29 31  1  0
 31 32  1  0
 29 33  1  0
 33 34  1  0
 33 35  1  0
 33 36  1  0
 36 37  1  1
 36 38  1  0
 38 39  2  0
 38 40  1  0
 40 41  1  0
 40 42  1  0
 42 43  1  6
 42 44  1  0
 44 45  2  0
 45 46  1  0
 45 47  1  0
 47 48  1  0
 47 49  2  0
 49 50  1  0
 49 51  1  0
 51 52  1  0
 51 53  2  0
 53 54  1  0
 42 55  1  0
 55 56  1  0
 55 57  1  0
 55 58  1  0
 58 59  1  0
 23  9  1  0
 36 25  1  0
 53 44  1  0
 20 11  1  0
M  CHG  1   6  -1
M  END
>  <UniqueID>  (72) 
156

>  <SMILES>  (72) 
O=C([N-]/C=C(\O)N1C[C@H](O)C[C@H]1C(=O)N[C@@H](CO)c1cccc(Cl)c1)c1ccc2cc(F)ccc2n1

>  <Energy>  (72) 
62.53213630697353

>  <Genealogy>  (72) 
O=C([N-]CC(=O)N1C[C@H](O)C[C@H]1C(=O)N[C@@H](CO)c1cccc(Cl)c1)c1ccc2cc(F)ccc2n1 (protonated)
O=C([N-]C=C(O)N1C[C@H](O)C[C@H]1C(=O)N[C@@H](CO)c1cccc(Cl)c1)c1ccc2cc(F)ccc2n1 (tautomer)
O=C([N-]/C=C(\O)N1C[C@H](O)C[C@H]1C(=O)N[C@@H](CO)c1cccc(Cl)c1)c1ccc2cc(F)ccc2n1 (cis-trans isomerization)
O=C([N-]/C=C(\O)N1C[C@H](O)C[C@H]1C(=O)N[C@@H](CO)c1cccc(Cl)c1)c1ccc2cc(F)ccc2n1 (3D coordinates assigned)
O=C([N-]/C=C(\O)N1C[C@H](O)C[C@H]1C(=O)N[C@@H](CO)c1cccc(Cl)c1)c1ccc2cc(F)ccc2n1 (nonaromatic ring conformer: 62.53213630697353 kcal/mol)

>  <smiles>  (72) 
O=C(NCC(=O)N1C[C@H](O)C[C@H]1C(=O)N[C@@H](CO)c1cccc(Cl)c1)c1ccc2cc(F)ccc2n1

>  <score_type>  (72) 
oracle

>  <origin>  (72) 
autodockgpu

>  <m_score__min__energy>  (72) 
-8.7599999999999998

>  <m_primary>  (72) 
energy

>  <meeko>  (72) 
{"free_energy": -5.44, "intermolecular_energy": -9.01, "internal_energy": -8.91, "cluster_size": 4, "cluster_id": 5, "rank_in_cluster": 3}

>  <energy>  (72) 
-5.8

>  <cluster_rmsd>  (72) 
1.05

>  <rmsd>  (72) 
269.07

>  <cluster>  (72) 
2

$$$$
ZXEKIRKRYMKUMV-QMUIBWSYNA-M
     RDKit          3D

 59 62  0  0  0  0  0  0  0  0999 V2000
  139.2320   74.3510  220.7660 H   0  0  0  0  0  0  0  0  0  0  0  0
  139.6260   74.1330  219.8550 O   0  0  0  0  0  0  0  0  0  0  0  0
  140.9410   73.6920  219.6730 C   0  0  0  0  0  0  0  0  0  0  0  0
  141.3040   72.4620  220.0630 C   0  0  0  0  0  0  0  0  0  0  0  0
  141.4437   71.6745  219.3078 H   0  0  0  0  0  0  0  0  0  0  0  0
  141.5130   72.1560  221.4460 N   0  0  0  0  0  0  0  0  0  0  0  0
  140.5930   72.4820  222.4980 C   0  0  0  0  0  0  0  0  0  0  0  0
  139.9700   73.5740  222.4350 O   0  0  0  0  0  0  0  0  0  0  0  0
  140.3250   71.5570  223.6210 C   0  0  0  0  0  0  0  0  0  0  0  0
  140.7970   71.8480  224.8680 N   0  0  0  0  0  0  0  0  0  0  0  0
  140.5700   71.0390  225.9360 C   0  0  0  0  0  0  0  0  0  0  0  0
  141.0730   71.3810  227.1990 C   0  0  0  0  0  0  0  0  0  0  0  0
  141.6501   72.3084  227.3293 H   0  0  0  0  0  0  0  0  0  0  0  0
  140.8400   70.5410  228.2940 C   0  0  0  0  0  0  0  0  0  0  0  0
  141.2309   70.8117  229.2859 H   0  0  0  0  0  0  0  0  0  0  0  0
  140.1100   69.3560  228.1300 C   0  0  0  0  0  0  0  0  0  0  0  0
  139.8950   68.5450  229.1950 F   0  0  0  0  0  0  0  0  0  0  0  0
  139.5970   69.0070  226.8710 C   0  0  0  0  0  0  0  0  0  0  0  0
  139.0159   68.0810  226.7486 H   0  0  0  0  0  0  0  0  0  0  0  0
  139.8290   69.8460  225.7670 C   0  0  0  0  0  0  0  0  0  0  0  0
  139.3480   69.5230  224.4950 C   0  0  0  0  0  0  0  0  0  0  0  0
  138.7726   68.5976  224.3449 H   0  0  0  0  0  0  0  0  0  0  0  0
  139.5960   70.3720  223.4140 C   0  0  0  0  0  0  0  0  0  0  0  0
  139.2248   70.1164  222.4106 H   0  0  0  0  0  0  0  0  0  0  0  0
  141.8900   74.5860  219.0520 N   0  0  0  0  0  0  0  0  0  0  0  0
  142.3140   74.5200  217.6590 C   0  0  0  0  0  0  0  0  0  0  0  0
  142.8707   73.5902  217.4703 H   0  0  0  0  0  0  0  0  0  0  0  0
  141.4559   74.5253  216.9707 H   0  0  0  0  0  0  0  0  0  0  0  0
  143.2190   75.7380  217.4480 C   0  0  2  0  0  0  0  0  0  0  0  0
  142.6899   76.5230  216.8878 H   0  0  0  0  0  0  0  0  0  0  0  0
  144.3450   75.4410  216.6600 O   0  0  0  0  0  0  0  0  0  0  0  0
  145.1560   75.6310  217.1980 H   0  0  0  0  0  0  0  0  0  0  0  0
  143.6070   76.2260  218.8470 C   0  0  0  0  0  0  0  0  0  0  0  0
  144.6003   75.8443  219.1255 H   0  0  0  0  0  0  0  0  0  0  0  0
  143.6601   77.3236  218.8962 H   0  0  0  0  0  0  0  0  0  0  0  0
  142.5370   75.6670  219.7860 C   0  0  1  0  0  0  0  0  0  0  0  0
  142.9822   75.3101  220.7264 H   0  0  0  0  0  0  0  0  0  0  0  0
  141.5360   76.7270  220.1720 C   0  0  0  0  0  0  0  0  0  0  0  0
  141.6280   77.8740  219.6530 O   0  0  0  0  0  0  0  0  0  0  0  0
  140.4550   76.4270  221.0700 N   0  0  0  0  0  0  0  0  0  0  0  0
  140.3070   75.4390  221.3730 H   0  0  0  0  0  0  0  0  0  0  0  0
  139.6150   77.4780  221.6390 C   0  0  2  0  0  0  0  0  0  0  0  0
  139.0043   77.9220  220.8391 H   0  0  0  0  0  0  0  0  0  0  0  0
  140.4890   78.5600  222.2450 C   0  0  0  0  0  0  0  0  0  0  0  0
  141.3330   78.2620  223.3320 C   0  0  0  0  0  0  0  0  0  0  0  0
  141.3564   77.2423  223.7439 H   0  0  0  0  0  0  0  0  0  0  0  0
  142.1430   79.2590  223.8910 C   0  0  0  0  0  0  0  0  0  0  0  0
  142.7983   79.0210  224.7419 H   0  0  0  0  0  0  0  0  0  0  0  0
  142.1200   80.5570  223.3690 C   0  0  0  0  0  0  0  0  0  0  0  0
  142.7596   81.3364  223.8088 H   0  0  0  0  0  0  0  0  0  0  0  0
  141.2840   80.8670  222.2870 C   0  0  0  0  0  0  0  0  0  0  0  0
  141.2500   82.5010  221.6370 Cl  0  0  0  0  0  0  0  0  0  0  0  0
  140.4740   79.8730  221.7240 C   0  0  0  0  0  0  0  0  0  0  0  0
  139.8226   80.1159  220.8715 H   0  0  0  0  0  0  0  0  0  0  0  0
  138.6620   76.8920  222.6970 C   0  0  0  0  0  0  0  0  0  0  0  0
  139.1217   76.9891  223.6916 H   0  0  0  0  0  0  0  0  0  0  0  0
  137.7108   77.4435  222.6632 H   0  0  0  0  0  0  0  0  0  0  0  0
  138.4100   75.5360  222.4350 O   0  0  0  0  0  0  0  0  0  0  0  0
  138.9420   75.0170  223.0980 H   0  0  0  0  0  0  0  0  0  0  0  0
  1  2  1  0
  2  3  1  0
  3  4  2  0
  4  5  1  0
  4  6  1  0
  6  7  1  0
  7  8  2  0
  7  9  1  0
  9 10  2  0
 10 11  1  0
 11 12  2  0
 12 13  1  0
 12 14  1  0
 14 15  1  0
 14 16  2  0
 16 17  1  0
 16 18  1  0
 18 19  1  0
 18 20  2  0
 20 21  1  0
 21 22  1  0
 21 23  2  0
 23 24  1  0
  3 25  1  0
 25 26  1  0
 26 27  1  0
 26 28  1  0
 26 29  1  0
 29 30  1  6
 29 31  1  0
 31 32  1  0
 29 33  1  0
 33 34  1  0
 33 35  1  0
 33 36  1  0
 36 37  1  1
 36 38  1  0
 38 39  2  0
 38 40  1  0
 40 41  1  0
 40 42  1  0
 42 43  1  6
 42 44  1  0
 44 45  2  0
 45 46  1  0
 45 47  1  0
 47 48  1  0
 47 49  2  0
 49 50  1  0
 49 51  1  0
 51 52  1  0
 51 53  2  0
 53 54  1  0
 42 55  1  0
 55 56  1  0
 55 57  1  0
 55 58  1  0
 58 59  1  0
 23  9  1  0
 36 25  1  0
 53 44  1  0
 20 11  1  0
M  CHG  1   6  -1
M  END
>  <UniqueID>  (73) 
156

>  <SMILES>  (73) 
O=C([N-]/C=C(\O)N1C[C@H](O)C[C@H]1C(=O)N[C@@H](CO)c1cccc(Cl)c1)c1ccc2cc(F)ccc2n1

>  <Energy>  (73) 
62.53213630697353

>  <Genealogy>  (73) 
O=C([N-]CC(=O)N1C[C@H](O)C[C@H]1C(=O)N[C@@H](CO)c1cccc(Cl)c1)c1ccc2cc(F)ccc2n1 (protonated)
O=C([N-]C=C(O)N1C[C@H](O)C[C@H]1C(=O)N[C@@H](CO)c1cccc(Cl)c1)c1ccc2cc(F)ccc2n1 (tautomer)
O=C([N-]/C=C(\O)N1C[C@H](O)C[C@H]1C(=O)N[C@@H](CO)c1cccc(Cl)c1)c1ccc2cc(F)ccc2n1 (cis-trans isomerization)
O=C([N-]/C=C(\O)N1C[C@H](O)C[C@H]1C(=O)N[C@@H](CO)c1cccc(Cl)c1)c1ccc2cc(F)ccc2n1 (3D coordinates assigned)
O=C([N-]/C=C(\O)N1C[C@H](O)C[C@H]1C(=O)N[C@@H](CO)c1cccc(Cl)c1)c1ccc2cc(F)ccc2n1 (nonaromatic ring conformer: 62.53213630697353 kcal/mol)

>  <smiles>  (73) 
O=C(NCC(=O)N1C[C@H](O)C[C@H]1C(=O)N[C@@H](CO)c1cccc(Cl)c1)c1ccc2cc(F)ccc2n1

>  <score_type>  (73) 
oracle

>  <origin>  (73) 
autodockgpu

>  <m_score__min__energy>  (73) 
-8.7599999999999998

>  <m_primary>  (73) 
energy

>  <meeko>  (73) 
{"free_energy": -8.09, "intermolecular_energy": -11.67, "internal_energy": -5.88, "cluster_size": 8, "cluster_id": 1, "rank_in_cluster": 6}

>  <energy>  (73) 
-5.66

>  <cluster_rmsd>  (73) 
1.62

>  <rmsd>  (73) 
268.87

>  <cluster>  (73) 
2

$$$$
ZXEKIRKRYMKUMV-QMUIBWSYNA-M
     RDKit          3D

 59 62  0  0  0  0  0  0  0  0999 V2000
  139.4500   74.1380  220.7750 H   0  0  0  0  0  0  0  0  0  0  0  0
  139.8640   74.0800  219.8490 O   0  0  0  0  0  0  0  0  0  0  0  0
  141.1920   73.7020  219.6240 C   0  0  0  0  0  0  0  0  0  0  0  0
  141.6300   72.4970  220.0110 C   0  0  0  0  0  0  0  0  0  0  0  0
  142.5248   72.0686  219.5358 H   0  0  0  0  0  0  0  0  0  0  0  0
  140.9530   71.7570  221.0330 N   0  0  0  0  0  0  0  0  0  0  0  0
  140.5110   72.3130  222.2800 C   0  0  0  0  0  0  0  0  0  0  0  0
  140.2980   73.5520  222.3460 O   0  0  0  0  0  0  0  0  0  0  0  0
  140.2560   71.4690  223.4690 C   0  0  0  0  0  0  0  0  0  0  0  0
  140.7180   71.8610  224.6910 N   0  0  0  0  0  0  0  0  0  0  0  0
  140.5020   71.1300  225.8160 C   0  0  0  0  0  0  0  0  0  0  0  0
  140.9940   71.5750  227.0510 C   0  0  0  0  0  0  0  0  0  0  0  0
  141.5528   72.5205  227.1129 H   0  0  0  0  0  0  0  0  0  0  0  0
  140.7730   70.8140  228.2060 C   0  0  0  0  0  0  0  0  0  0  0  0
  141.1555   71.1649  229.1758 H   0  0  0  0  0  0  0  0  0  0  0  0
  140.0660   69.6070  228.1290 C   0  0  0  0  0  0  0  0  0  0  0  0
  139.8620   68.8740  229.2510 F   0  0  0  0  0  0  0  0  0  0  0  0
  139.5640   69.1560  226.8980 C   0  0  0  0  0  0  0  0  0  0  0  0
  139.0000   68.2131  226.8435 H   0  0  0  0  0  0  0  0  0  0  0  0
  139.7850   69.9140  225.7360 C   0  0  0  0  0  0  0  0  0  0  0  0
  139.3140   69.4880  224.4900 C   0  0  0  0  0  0  0  0  0  0  0  0
  138.7563   68.5434  224.4078 H   0  0  0  0  0  0  0  0  0  0  0  0
  139.5500   70.2590  223.3500 C   0  0  0  0  0  0  0  0  0  0  0  0
  139.1868   69.9227  222.3677 H   0  0  0  0  0  0  0  0  0  0  0  0
  142.0720   74.6370  218.9610 N   0  0  0  0  0  0  0  0  0  0  0  0
  142.4550   74.5720  217.5560 C   0  0  0  0  0  0  0  0  0  0  0  0
  143.0547   73.6704  217.3623 H   0  0  0  0  0  0  0  0  0  0  0  0
  141.5769   74.5207  216.8955 H   0  0  0  0  0  0  0  0  0  0  0  0
  143.2860   75.8330  217.3000 C   0  0  2  0  0  0  0  0  0  0  0  0
  142.6984   76.5806  216.7470 H   0  0  0  0  0  0  0  0  0  0  0  0
  144.4010   75.5840  216.4800 O   0  0  0  0  0  0  0  0  0  0  0  0
  145.2190   75.7010  217.0290 H   0  0  0  0  0  0  0  0  0  0  0  0
  143.6910   76.3620  218.6790 C   0  0  0  0  0  0  0  0  0  0  0  0
  144.7117   76.0381  218.9304 H   0  0  0  0  0  0  0  0  0  0  0  0
  143.6865   77.4615  218.7119 H   0  0  0  0  0  0  0  0  0  0  0  0
  142.6830   75.7610  219.6590 C   0  0  1  0  0  0  0  0  0  0  0  0
  143.1759   75.4419  220.5892 H   0  0  0  0  0  0  0  0  0  0  0  0
  141.6390   76.7730  220.0620 C   0  0  0  0  0  0  0  0  0  0  0  0
  141.6670   77.9220  219.5420 O   0  0  0  0  0  0  0  0  0  0  0  0
  140.5900   76.4220  220.9780 N   0  0  0  0  0  0  0  0  0  0  0  0
  140.4940   75.4280  221.2840 H   0  0  0  0  0  0  0  0  0  0  0  0
  139.7100   77.4320  221.5630 C   0  0  2  0  0  0  0  0  0  0  0  0
  139.0812   77.8630  220.7700 H   0  0  0  0  0  0  0  0  0  0  0  0
  140.5420   78.5380  222.1830 C   0  0  0  0  0  0  0  0  0  0  0  0
  141.3830   78.2630  223.2780 C   0  0  0  0  0  0  0  0  0  0  0  0
  141.4346   77.2428  223.6860 H   0  0  0  0  0  0  0  0  0  0  0  0
  142.1540   79.2820  223.8500 C   0  0  0  0  0  0  0  0  0  0  0  0
  142.8066   79.0611  224.7075 H   0  0  0  0  0  0  0  0  0  0  0  0
  142.0960   80.5810  223.3330 C   0  0  0  0  0  0  0  0  0  0  0  0
  142.7057   81.3783  223.7831 H   0  0  0  0  0  0  0  0  0  0  0  0
  141.2630   80.8690  222.2430 C   0  0  0  0  0  0  0  0  0  0  0  0
  141.1850   82.5040  221.5980 Cl  0  0  0  0  0  0  0  0  0  0  0  0
  140.4920   79.8520  221.6670 C   0  0  0  0  0  0  0  0  0  0  0  0
  139.8435   80.0776  220.8076 H   0  0  0  0  0  0  0  0  0  0  0  0
  138.7820   76.7950  222.6130 C   0  0  0  0  0  0  0  0  0  0  0  0
  139.2309   76.9110  223.6105 H   0  0  0  0  0  0  0  0  0  0  0  0
  137.8047   77.2984  222.5755 H   0  0  0  0  0  0  0  0  0  0  0  0
  138.5990   75.4290  222.3450 O   0  0  0  0  0  0  0  0  0  0  0  0
  139.0690   74.9340  223.0700 H   0  0  0  0  0  0  0  0  0  0  0  0
  1  2  1  0
  2  3  1  0
  3  4  2  0
  4  5  1  0
  4  6  1  0
  6  7  1  0
  7  8  2  0
  7  9  1  0
  9 10  2  0
 10 11  1  0
 11 12  2  0
 12 13  1  0
 12 14  1  0
 14 15  1  0
 14 16  2  0
 16 17  1  0
 16 18  1  0
 18 19  1  0
 18 20  2  0
 20 21  1  0
 21 22  1  0
 21 23  2  0
 23 24  1  0
  3 25  1  0
 25 26  1  0
 26 27  1  0
 26 28  1  0
 26 29  1  0
 29 30  1  6
 29 31  1  0
 31 32  1  0
 29 33  1  0
 33 34  1  0
 33 35  1  0
 33 36  1  0
 36 37  1  1
 36 38  1  0
 38 39  2  0
 38 40  1  0
 40 41  1  0
 40 42  1  0
 42 43  1  6
 42 44  1  0
 44 45  2  0
 45 46  1  0
 45 47  1  0
 47 48  1  0
 47 49  2  0
 49 50  1  0
 49 51  1  0
 51 52  1  0
 51 53  2  0
 53 54  1  0
 42 55  1  0
 55 56  1  0
 55 57  1  0
 55 58  1  0
 58 59  1  0
 23  9  1  0
 36 25  1  0
 53 44  1  0
 20 11  1  0
M  CHG  1   6  -1
M  END
>  <UniqueID>  (74) 
156

>  <SMILES>  (74) 
O=C([N-]/C=C(\O)N1C[C@H](O)C[C@H]1C(=O)N[C@@H](CO)c1cccc(Cl)c1)c1ccc2cc(F)ccc2n1

>  <Energy>  (74) 
62.53213630697353

>  <Genealogy>  (74) 
O=C([N-]CC(=O)N1C[C@H](O)C[C@H]1C(=O)N[C@@H](CO)c1cccc(Cl)c1)c1ccc2cc(F)ccc2n1 (protonated)
O=C([N-]C=C(O)N1C[C@H](O)C[C@H]1C(=O)N[C@@H](CO)c1cccc(Cl)c1)c1ccc2cc(F)ccc2n1 (tautomer)
O=C([N-]/C=C(\O)N1C[C@H](O)C[C@H]1C(=O)N[C@@H](CO)c1cccc(Cl)c1)c1ccc2cc(F)ccc2n1 (cis-trans isomerization)
O=C([N-]/C=C(\O)N1C[C@H](O)C[C@H]1C(=O)N[C@@H](CO)c1cccc(Cl)c1)c1ccc2cc(F)ccc2n1 (3D coordinates assigned)
O=C([N-]/C=C(\O)N1C[C@H](O)C[C@H]1C(=O)N[C@@H](CO)c1cccc(Cl)c1)c1ccc2cc(F)ccc2n1 (nonaromatic ring conformer: 62.53213630697353 kcal/mol)

>  <smiles>  (74) 
O=C(NCC(=O)N1C[C@H](O)C[C@H]1C(=O)N[C@@H](CO)c1cccc(Cl)c1)c1ccc2cc(F)ccc2n1

>  <score_type>  (74) 
oracle

>  <origin>  (74) 
autodockgpu

>  <m_score__min__energy>  (74) 
-8.7599999999999998

>  <m_primary>  (74) 
energy

>  <meeko>  (74) 
{"free_energy": -8.13, "intermolecular_energy": -11.71, "internal_energy": -5.94, "cluster_size": 8, "cluster_id": 1, "rank_in_cluster": 4}

>  <energy>  (74) 
-6.97

>  <cluster_rmsd>  (74) 
0.0

>  <rmsd>  (74) 
269.19

>  <cluster>  (74) 
3

$$$$
ZXEKIRKRYMKUMV-QMUIBWSYNA-M
     RDKit          3D

 59 62  0  0  0  0  0  0  0  0999 V2000
  140.0870   73.2680  222.5400 H   0  0  0  0  0  0  0  0  0  0  0  0
  141.0800   73.1920  222.3410 O   0  0  0  0  0  0  0  0  0  0  0  0
  141.5920   72.5020  221.2370 C   0  0  0  0  0  0  0  0  0  0  0  0
  141.0870   71.3110  220.8890 C   0  0  0  0  0  0  0  0  0  0  0  0
  141.6718   70.6458  220.2367 H   0  0  0  0  0  0  0  0  0  0  0  0
  139.8000   70.8890  221.3510 N   0  0  0  0  0  0  0  0  0  0  0  0
  139.2460   71.2240  222.6310 C   0  0  0  0  0  0  0  0  0  0  0  0
  138.5340   72.2590  222.7270 O   0  0  0  0  0  0  0  0  0  0  0  0
  139.4490   70.3700  223.8220 C   0  0  0  0  0  0  0  0  0  0  0  0
  140.0610   70.8830  224.9290 N   0  0  0  0  0  0  0  0  0  0  0  0
  140.2610   70.1460  226.0530 C   0  0  0  0  0  0  0  0  0  0  0  0
  140.8930   70.7170  227.1670 C   0  0  0  0  0  0  0  0  0  0  0  0
  141.2248   71.7653  227.1348 H   0  0  0  0  0  0  0  0  0  0  0  0
  141.1010   69.9510  228.3200 C   0  0  0  0  0  0  0  0  0  0  0  0
  141.5916   70.4003  229.1961 H   0  0  0  0  0  0  0  0  0  0  0  0
  140.6860   68.6140  228.3610 C   0  0  0  0  0  0  0  0  0  0  0  0
  140.8980   67.8770  229.4800 F   0  0  0  0  0  0  0  0  0  0  0  0
  140.0480   68.0340  227.2540 C   0  0  0  0  0  0  0  0  0  0  0  0
  139.7145   66.9866  227.2948 H   0  0  0  0  0  0  0  0  0  0  0  0
  139.8370   68.7970  226.0930 C   0  0  0  0  0  0  0  0  0  0  0  0
  139.2200   68.2490  224.9650 C   0  0  0  0  0  0  0  0  0  0  0  0
  138.8862   67.2009  224.9770 H   0  0  0  0  0  0  0  0  0  0  0  0
  139.0260   69.0290  223.8220 C   0  0  0  0  0  0  0  0  0  0  0  0
  138.5469   68.5980  222.9306 H   0  0  0  0  0  0  0  0  0  0  0  0
  142.6660   73.1050  220.4820 N   0  0  0  0  0  0  0  0  0  0  0  0
  143.2950   72.5170  219.3070 C   0  0  0  0  0  0  0  0  0  0  0  0
  143.8306   71.5953  219.5784 H   0  0  0  0  0  0  0  0  0  0  0  0
  142.5541   72.2435  218.5414 H   0  0  0  0  0  0  0  0  0  0  0  0
  144.2770   73.5760  218.7950 C   0  0  2  0  0  0  0  0  0  0  0  0
  143.8775   74.0773  217.9011 H   0  0  0  0  0  0  0  0  0  0  0  0
  145.4960   73.0180  218.3710 O   0  0  0  0  0  0  0  0  0  0  0  0
  146.1630   73.7490  218.3070 H   0  0  0  0  0  0  0  0  0  0  0  0
  144.4670   74.5690  219.9450 C   0  0  0  0  0  0  0  0  0  0  0  0
  145.3870   74.3398  220.5027 H   0  0  0  0  0  0  0  0  0  0  0  0
  144.5623   75.6024  219.5802 H   0  0  0  0  0  0  0  0  0  0  0  0
  143.2410   74.3950  220.8420 C   0  0  1  0  0  0  0  0  0  0  0  0
  143.5188   74.4333  221.9056 H   0  0  0  0  0  0  0  0  0  0  0  0
  142.2420   75.5060  220.6290 C   0  0  0  0  0  0  0  0  0  0  0  0
  142.5980   76.5350  219.9910 O   0  0  0  0  0  0  0  0  0  0  0  0
  140.8880   75.3760  221.0890 N   0  0  0  0  0  0  0  0  0  0  0  0
  140.5700   74.4620  221.4820 H   0  0  0  0  0  0  0  0  0  0  0  0
  139.9700   76.5120  221.1060 C   0  0  2  0  0  0  0  0  0  0  0  0
  139.7036   76.7718  220.0709 H   0  0  0  0  0  0  0  0  0  0  0  0
  140.6440   77.7070  221.7520 C   0  0  0  0  0  0  0  0  0  0  0  0
  141.2030   77.5940  223.0390 C   0  0  0  0  0  0  0  0  0  0  0  0
  141.1463   76.6367  223.5779 H   0  0  0  0  0  0  0  0  0  0  0  0
  141.8310   78.6940  223.6370 C   0  0  0  0  0  0  0  0  0  0  0  0
  142.2639   78.5994  224.6438 H   0  0  0  0  0  0  0  0  0  0  0  0
  141.9080   79.9140  222.9540 C   0  0  0  0  0  0  0  0  0  0  0  0
  142.4040   80.7755  223.4249 H   0  0  0  0  0  0  0  0  0  0  0  0
  141.3550   80.0410  221.6720 C   0  0  0  0  0  0  0  0  0  0  0  0
  141.4450   81.5760  220.8190 Cl  0  0  0  0  0  0  0  0  0  0  0  0
  140.7290   78.9410  221.0710 C   0  0  0  0  0  0  0  0  0  0  0  0
  140.3011   79.0393  220.0624 H   0  0  0  0  0  0  0  0  0  0  0  0
  138.6750   76.1480  221.8550 C   0  0  0  0  0  0  0  0  0  0  0  0
  138.6943   76.6059  222.8550 H   0  0  0  0  0  0  0  0  0  0  0  0
  137.8148   76.5245  221.2820 H   0  0  0  0  0  0  0  0  0  0  0  0
  138.5580   74.7540  221.9870 O   0  0  0  0  0  0  0  0  0  0  0  0
  139.1890   74.4850  222.7090 H   0  0  0  0  0  0  0  0  0  0  0  0
  1  2  1  0
  2  3  1  0
  3  4  2  0
  4  5  1  0
  4  6  1  0
  6  7  1  0
  7  8  2  0
  7  9  1  0
  9 10  2  0
 10 11  1  0
 11 12  2  0
 12 13  1  0
 12 14  1  0
 14 15  1  0
 14 16  2  0
 16 17  1  0
 16 18  1  0
 18 19  1  0
 18 20  2  0
 20 21  1  0
 21 22  1  0
 21 23  2  0
 23 24  1  0
  3 25  1  0
 25 26  1  0
 26 27  1  0
 26 28  1  0
 26 29  1  0
 29 30  1  6
 29 31  1  0
 31 32  1  0
 29 33  1  0
 33 34  1  0
 33 35  1  0
 33 36  1  0
 36 37  1  1
 36 38  1  0
 38 39  2  0
 38 40  1  0
 40 41  1  0
 40 42  1  0
 42 43  1  6
 42 44  1  0
 44 45  2  0
 45 46  1  0
 45 47  1  0
 47 48  1  0
 47 49  2  0
 49 50  1  0
 49 51  1  0
 51 52  1  0
 51 53  2  0
 53 54  1  0
 42 55  1  0
 55 56  1  0
 55 57  1  0
 55 58  1  0
 58 59  1  0
 23  9  1  0
 36 25  1  0
 53 44  1  0
 20 11  1  0
M  CHG  1   6  -1
M  END
>  <UniqueID>  (75) 
156

>  <SMILES>  (75) 
O=C([N-]/C=C(\O)N1C[C@H](O)C[C@H]1C(=O)N[C@@H](CO)c1cccc(Cl)c1)c1ccc2cc(F)ccc2n1

>  <Energy>  (75) 
62.53213630697353

>  <Genealogy>  (75) 
O=C([N-]CC(=O)N1C[C@H](O)C[C@H]1C(=O)N[C@@H](CO)c1cccc(Cl)c1)c1ccc2cc(F)ccc2n1 (protonated)
O=C([N-]C=C(O)N1C[C@H](O)C[C@H]1C(=O)N[C@@H](CO)c1cccc(Cl)c1)c1ccc2cc(F)ccc2n1 (tautomer)
O=C([N-]/C=C(\O)N1C[C@H](O)C[C@H]1C(=O)N[C@@H](CO)c1cccc(Cl)c1)c1ccc2cc(F)ccc2n1 (cis-trans isomerization)
O=C([N-]/C=C(\O)N1C[C@H](O)C[C@H]1C(=O)N[C@@H](CO)c1cccc(Cl)c1)c1ccc2cc(F)ccc2n1 (3D coordinates assigned)
O=C([N-]/C=C(\O)N1C[C@H](O)C[C@H]1C(=O)N[C@@H](CO)c1cccc(Cl)c1)c1ccc2cc(F)ccc2n1 (nonaromatic ring conformer: 62.53213630697353 kcal/mol)

>  <smiles>  (75) 
O=C(NCC(=O)N1C[C@H](O)C[C@H]1C(=O)N[C@@H](CO)c1cccc(Cl)c1)c1ccc2cc(F)ccc2n1

>  <score_type>  (75) 
oracle

>  <origin>  (75) 
autodockgpu

>  <m_score__min__energy>  (75) 
-8.7599999999999998

>  <m_primary>  (75) 
energy

>  <meeko>  (75) 
{"free_energy": -8.25, "intermolecular_energy": -11.83, "internal_energy": -5.41, "cluster_size": 8, "cluster_id": 1, "rank_in_cluster": 3}

>  <energy>  (75) 
-5.99

>  <cluster_rmsd>  (75) 
0.0

>  <rmsd>  (75) 
268.28

>  <cluster>  (75) 
4

$$$$
ZXEKIRKRYMKUMV-QMUIBWSYNA-M
     RDKit          3D

 59 62  0  0  0  0  0  0  0  0999 V2000
  139.1190   73.6110  222.6980 H   0  0  0  0  0  0  0  0  0  0  0  0
  140.0930   73.7640  222.4560 O   0  0  0  0  0  0  0  0  0  0  0  0
  140.7370   73.1020  221.4050 C   0  0  0  0  0  0  0  0  0  0  0  0
  140.5200   71.7970  221.1920 C   0  0  0  0  0  0  0  0  0  0  0  0
  141.2976   71.1926  220.7020 H   0  0  0  0  0  0  0  0  0  0  0  0
  139.2940   71.1760  221.5910 N   0  0  0  0  0  0  0  0  0  0  0  0
  138.7090   71.2970  222.8960 C   0  0  0  0  0  0  0  0  0  0  0  0
  137.8180   72.1680  223.0780 O   0  0  0  0  0  0  0  0  0  0  0  0
  139.0880   70.4020  224.0120 C   0  0  0  0  0  0  0  0  0  0  0  0
  139.7240   70.9130  225.1060 N   0  0  0  0  0  0  0  0  0  0  0  0
  140.0840   70.1380  226.1630 C   0  0  0  0  0  0  0  0  0  0  0  0
  140.7330   70.7090  227.2660 C   0  0  0  0  0  0  0  0  0  0  0  0
  140.9491   71.7875  227.2802 H   0  0  0  0  0  0  0  0  0  0  0  0
  141.1060   69.9050  228.3500 C   0  0  0  0  0  0  0  0  0  0  0  0
  141.6111   70.3536  229.2181 H   0  0  0  0  0  0  0  0  0  0  0  0
  140.8370   68.5300  228.3310 C   0  0  0  0  0  0  0  0  0  0  0  0
  141.2080   67.7580  229.3820 F   0  0  0  0  0  0  0  0  0  0  0  0
  140.1830   67.9490  227.2340 C   0  0  0  0  0  0  0  0  0  0  0  0
  139.9649   66.8708  227.2281 H   0  0  0  0  0  0  0  0  0  0  0  0
  139.8080   68.7510  226.1430 C   0  0  0  0  0  0  0  0  0  0  0  0
  139.1690   68.2060  225.0250 C   0  0  0  0  0  0  0  0  0  0  0  0
  138.9484   67.1289  224.9904 H   0  0  0  0  0  0  0  0  0  0  0  0
  138.8100   69.0250  223.9520 C   0  0  0  0  0  0  0  0  0  0  0  0
  138.3144   68.5967  223.0683 H   0  0  0  0  0  0  0  0  0  0  0  0
  141.6300   73.8570  220.5570 N   0  0  0  0  0  0  0  0  0  0  0  0
  142.2210   73.3670  219.3180 C   0  0  0  0  0  0  0  0  0  0  0  0
  142.9118   72.5362  219.5240 H   0  0  0  0  0  0  0  0  0  0  0  0
  141.4570   72.9846  218.6250 H   0  0  0  0  0  0  0  0  0  0  0  0
  142.9790   74.5590  218.7260 C   0  0  2  0  0  0  0  0  0  0  0  0
  142.4233   74.9945  217.8825 H   0  0  0  0  0  0  0  0  0  0  0  0
  144.2190   74.1870  218.1770 O   0  0  0  0  0  0  0  0  0  0  0  0
  144.8210   74.9750  218.2170 H   0  0  0  0  0  0  0  0  0  0  0  0
  143.1330   75.5710  219.8650 C   0  0  0  0  0  0  0  0  0  0  0  0
  144.1270   75.4811  220.3274 H   0  0  0  0  0  0  0  0  0  0  0  0
  143.0389   76.6066  219.5062 H   0  0  0  0  0  0  0  0  0  0  0  0
  142.0400   75.2190  220.8750 C   0  0  1  0  0  0  0  0  0  0  0  0
  142.4126   75.3010  221.9067 H   0  0  0  0  0  0  0  0  0  0  0  0
  140.8720   76.1680  220.7760 C   0  0  0  0  0  0  0  0  0  0  0  0
  140.8150   76.9680  219.8010 O   0  0  0  0  0  0  0  0  0  0  0  0
  139.8070   76.1270  221.7380 N   0  0  0  0  0  0  0  0  0  0  0  0
  139.7950   75.3640  222.4500 H   0  0  0  0  0  0  0  0  0  0  0  0
  138.7900   77.1740  221.8040 C   0  0  2  0  0  0  0  0  0  0  0  0
  138.4946   77.4513  220.7813 H   0  0  0  0  0  0  0  0  0  0  0  0
  139.3580   78.3970  222.4970 C   0  0  0  0  0  0  0  0  0  0  0  0
  138.5040   79.2880  223.1740 C   0  0  0  0  0  0  0  0  0  0  0  0
  137.4210   79.0969  223.1968 H   0  0  0  0  0  0  0  0  0  0  0  0
  139.0260   80.4170  223.8190 C   0  0  0  0  0  0  0  0  0  0  0  0
  138.3523   81.1108  224.3432 H   0  0  0  0  0  0  0  0  0  0  0  0
  140.4040   80.6630  223.7970 C   0  0  0  0  0  0  0  0  0  0  0  0
  140.8117   81.5477  224.3079 H   0  0  0  0  0  0  0  0  0  0  0  0
  141.2660   79.7840  223.1250 C   0  0  0  0  0  0  0  0  0  0  0  0
  142.9960   80.0990  223.0910 Cl  0  0  0  0  0  0  0  0  0  0  0  0
  140.7470   78.6540  222.4820 C   0  0  0  0  0  0  0  0  0  0  0  0
  141.4252   77.9617  221.9617 H   0  0  0  0  0  0  0  0  0  0  0  0
  137.5370   76.6640  222.5390 C   0  0  0  0  0  0  0  0  0  0  0  0
  137.4764   77.1440  223.5269 H   0  0  0  0  0  0  0  0  0  0  0  0
  136.6479   76.9130  221.9411 H   0  0  0  0  0  0  0  0  0  0  0  0
  137.5970   75.2710  222.7050 O   0  0  0  0  0  0  0  0  0  0  0  0
  138.4820   75.0730  223.1150 H   0  0  0  0  0  0  0  0  0  0  0  0
  1  2  1  0
  2  3  1  0
  3  4  2  0
  4  5  1  0
  4  6  1  0
  6  7  1  0
  7  8  2  0
  7  9  1  0
  9 10  2  0
 10 11  1  0
 11 12  2  0
 12 13  1  0
 12 14  1  0
 14 15  1  0
 14 16  2  0
 16 17  1  0
 16 18  1  0
 18 19  1  0
 18 20  2  0
 20 21  1  0
 21 22  1  0
 21 23  2  0
 23 24  1  0
  3 25  1  0
 25 26  1  0
 26 27  1  0
 26 28  1  0
 26 29  1  0
 29 30  1  6
 29 31  1  0
 31 32  1  0
 29 33  1  0
 33 34  1  0
 33 35  1  0
 33 36  1  0
 36 37  1  1
 36 38  1  0
 38 39  2  0
 38 40  1  0
 40 41  1  0
 40 42  1  0
 42 43  1  6
 42 44  1  0
 44 45  2  0
 45 46  1  0
 45 47  1  0
 47 48  1  0
 47 49  2  0
 49 50  1  0
 49 51  1  0
 51 52  1  0
 51 53  2  0
 53 54  1  0
 42 55  1  0
 55 56  1  0
 55 57  1  0
 55 58  1  0
 58 59  1  0
 23  9  1  0
 36 25  1  0
 53 44  1  0
 20 11  1  0
M  CHG  1   6  -1
M  END
>  <UniqueID>  (76) 
156

>  <SMILES>  (76) 
O=C([N-]/C=C(\O)N1C[C@H](O)C[C@H]1C(=O)N[C@@H](CO)c1cccc(Cl)c1)c1ccc2cc(F)ccc2n1

>  <Energy>  (76) 
62.53213630697353

>  <Genealogy>  (76) 
O=C([N-]CC(=O)N1C[C@H](O)C[C@H]1C(=O)N[C@@H](CO)c1cccc(Cl)c1)c1ccc2cc(F)ccc2n1 (protonated)
O=C([N-]C=C(O)N1C[C@H](O)C[C@H]1C(=O)N[C@@H](CO)c1cccc(Cl)c1)c1ccc2cc(F)ccc2n1 (tautomer)
O=C([N-]/C=C(\O)N1C[C@H](O)C[C@H]1C(=O)N[C@@H](CO)c1cccc(Cl)c1)c1ccc2cc(F)ccc2n1 (cis-trans isomerization)
O=C([N-]/C=C(\O)N1C[C@H](O)C[C@H]1C(=O)N[C@@H](CO)c1cccc(Cl)c1)c1ccc2cc(F)ccc2n1 (3D coordinates assigned)
O=C([N-]/C=C(\O)N1C[C@H](O)C[C@H]1C(=O)N[C@@H](CO)c1cccc(Cl)c1)c1ccc2cc(F)ccc2n1 (nonaromatic ring conformer: 62.53213630697353 kcal/mol)

>  <smiles>  (76) 
O=C(NCC(=O)N1C[C@H](O)C[C@H]1C(=O)N[C@@H](CO)c1cccc(Cl)c1)c1ccc2cc(F)ccc2n1

>  <score_type>  (76) 
oracle

>  <origin>  (76) 
autodockgpu

>  <m_score__min__energy>  (76) 
-8.7599999999999998

>  <m_primary>  (76) 
energy

>  <meeko>  (76) 
{"free_energy": -8.76, "intermolecular_energy": -12.34, "internal_energy": -5.02, "cluster_size": 8, "cluster_id": 1, "rank_in_cluster": 1}

>  <energy>  (76) 
-5.5

>  <cluster_rmsd>  (76) 
0.0

>  <rmsd>  (76) 
269.14

>  <cluster>  (76) 
5

$$$$
ZXEKIRKRYMKUMV-QMUIBWSYNA-M
     RDKit          3D

 59 62  0  0  0  0  0  0  0  0999 V2000
  138.9510   74.6640  219.6870 H   0  0  0  0  0  0  0  0  0  0  0  0
  139.5630   75.4740  219.7300 O   0  0  0  0  0  0  0  0  0  0  0  0
  140.5960   75.6060  220.6650 C   0  0  0  0  0  0  0  0  0  0  0  0
  141.4000   74.5700  220.9380 C   0  0  0  0  0  0  0  0  0  0  0  0
  142.2997   74.4078  220.3262 H   0  0  0  0  0  0  0  0  0  0  0  0
  141.1080   73.6700  222.0130 N   0  0  0  0  0  0  0  0  0  0  0  0
  139.8440   73.0170  222.2040 C   0  0  0  0  0  0  0  0  0  0  0  0
  138.8690   73.3710  221.4910 O   0  0  0  0  0  0  0  0  0  0  0  0
  139.6700   71.9150  223.1760 C   0  0  0  0  0  0  0  0  0  0  0  0
  140.4040   71.9020  224.3270 N   0  0  0  0  0  0  0  0  0  0  0  0
  140.2740   70.9210  225.2580 C   0  0  0  0  0  0  0  0  0  0  0  0
  141.0480   70.9520  226.4260 C   0  0  0  0  0  0  0  0  0  0  0  0
  141.7596   71.7739  226.5937 H   0  0  0  0  0  0  0  0  0  0  0  0
  140.9140   69.9350  227.3790 C   0  0  0  0  0  0  0  0  0  0  0  0
  141.5178   69.9614  228.2981 H   0  0  0  0  0  0  0  0  0  0  0  0
  140.0130   68.8840  227.1650 C   0  0  0  0  0  0  0  0  0  0  0  0
  139.8960   67.9000  228.0900 F   0  0  0  0  0  0  0  0  0  0  0  0
  139.2300   68.8460  226.0010 C   0  0  0  0  0  0  0  0  0  0  0  0
  138.5169   68.0238  225.8415 H   0  0  0  0  0  0  0  0  0  0  0  0
  139.3610   69.8630  225.0400 C   0  0  0  0  0  0  0  0  0  0  0  0
  138.6100   69.8500  223.8610 C   0  0  0  0  0  0  0  0  0  0  0  0
  137.8973   69.0335  223.6731 H   0  0  0  0  0  0  0  0  0  0  0  0
  138.7630   70.8720  222.9210 C   0  0  0  0  0  0  0  0  0  0  0  0
  138.1786   70.8606  221.9892 H   0  0  0  0  0  0  0  0  0  0  0  0
  140.7780   76.8820  221.3170 N   0  0  0  0  0  0  0  0  0  0  0  0
  141.6120   77.9670  220.8150 C   0  0  0  0  0  0  0  0  0  0  0  0
  142.6711   77.6697  220.8158 H   0  0  0  0  0  0  0  0  0  0  0  0
  141.3546   78.2337  219.7793 H   0  0  0  0  0  0  0  0  0  0  0  0
  141.3840   79.1370  221.7760 C   0  0  2  0  0  0  0  0  0  0  0  0
  140.7290   79.8933  221.3188 H   0  0  0  0  0  0  0  0  0  0  0  0
  142.5720   79.8310  222.0700 O   0  0  0  0  0  0  0  0  0  0  0  0
  143.3280   79.3290  221.6690 H   0  0  0  0  0  0  0  0  0  0  0  0
  140.7410   78.5380  223.0300 C   0  0  0  0  0  0  0  0  0  0  0  0
  141.5001   78.3682  223.8078 H   0  0  0  0  0  0  0  0  0  0  0  0
  139.9849   79.2100  223.4621 H   0  0  0  0  0  0  0  0  0  0  0  0
  140.1300   77.2100  222.5800 C   0  0  1  0  0  0  0  0  0  0  0  0
  140.2894   76.4245  223.3334 H   0  0  0  0  0  0  0  0  0  0  0  0
  138.6360   77.3250  222.4030 C   0  0  0  0  0  0  0  0  0  0  0  0
  138.0570   78.3860  222.7630 O   0  0  0  0  0  0  0  0  0  0  0  0
  137.8860   76.2700  221.7790 N   0  0  0  0  0  0  0  0  0  0  0  0
  138.3980   75.4660  221.3540 H   0  0  0  0  0  0  0  0  0  0  0  0
  136.4250   76.2490  221.8030 C   0  0  2  0  0  0  0  0  0  0  0  0
  136.0516   77.2825  221.8512 H   0  0  0  0  0  0  0  0  0  0  0  0
  135.9440   75.4990  223.0290 C   0  0  0  0  0  0  0  0  0  0  0  0
  135.4800   76.2060  224.1550 C   0  0  0  0  0  0  0  0  0  0  0  0
  135.4700   77.3059  224.1449 H   0  0  0  0  0  0  0  0  0  0  0  0
  135.0310   75.5150  225.2880 C   0  0  0  0  0  0  0  0  0  0  0  0
  134.6725   76.0731  226.1655 H   0  0  0  0  0  0  0  0  0  0  0  0
  135.0380   74.1150  225.3050 C   0  0  0  0  0  0  0  0  0  0  0  0
  134.6822   73.5755  226.1952 H   0  0  0  0  0  0  0  0  0  0  0  0
  135.4970   73.3990  224.1910 C   0  0  0  0  0  0  0  0  0  0  0  0
  135.5130   71.6400  224.2160 Cl  0  0  0  0  0  0  0  0  0  0  0  0
  135.9440   74.0870  223.0560 C   0  0  0  0  0  0  0  0  0  0  0  0
  136.2975   73.5238  222.1797 H   0  0  0  0  0  0  0  0  0  0  0  0
  135.8750   75.6030  220.5180 C   0  0  0  0  0  0  0  0  0  0  0  0
  135.1565   74.8151  220.7880 H   0  0  0  0  0  0  0  0  0  0  0  0
  135.3795   76.3778  219.9145 H   0  0  0  0  0  0  0  0  0  0  0  0
  136.9180   75.0390  219.7650 O   0  0  0  0  0  0  0  0  0  0  0  0
  137.6100   74.7440  220.4170 H   0  0  0  0  0  0  0  0  0  0  0  0
  1  2  1  0
  2  3  1  0
  3  4  2  0
  4  5  1  0
  4  6  1  0
  6  7  1  0
  7  8  2  0
  7  9  1  0
  9 10  2  0
 10 11  1  0
 11 12  2  0
 12 13  1  0
 12 14  1  0
 14 15  1  0
 14 16  2  0
 16 17  1  0
 16 18  1  0
 18 19  1  0
 18 20  2  0
 20 21  1  0
 21 22  1  0
 21 23  2  0
 23 24  1  0
  3 25  1  0
 25 26  1  0
 26 27  1  0
 26 28  1  0
 26 29  1  0
 29 30  1  6
 29 31  1  0
 31 32  1  0
 29 33  1  0
 33 34  1  0
 33 35  1  0
 33 36  1  0
 36 37  1  1
 36 38  1  0
 38 39  2  0
 38 40  1  0
 40 41  1  0
 40 42  1  0
 42 43  1  1
 42 44  1  0
 44 45  2  0
 45 46  1  0
 45 47  1  0
 47 48  1  0
 47 49  2  0
 49 50  1  0
 49 51  1  0
 51 52  1  0
 51 53  2  0
 53 54  1  0
 42 55  1  0
 55 56  1  0
 55 57  1  0
 55 58  1  0
 58 59  1  0
 23  9  1  0
 36 25  1  0
 53 44  1  0
 20 11  1  0
M  CHG  1   6  -1
M  END
>  <UniqueID>  (77) 
156

>  <SMILES>  (77) 
O=C([N-]/C=C(\O)N1C[C@H](O)C[C@H]1C(=O)N[C@@H](CO)c1cccc(Cl)c1)c1ccc2cc(F)ccc2n1

>  <Energy>  (77) 
62.53213630697353

>  <Genealogy>  (77) 
O=C([N-]CC(=O)N1C[C@H](O)C[C@H]1C(=O)N[C@@H](CO)c1cccc(Cl)c1)c1ccc2cc(F)ccc2n1 (protonated)
O=C([N-]C=C(O)N1C[C@H](O)C[C@H]1C(=O)N[C@@H](CO)c1cccc(Cl)c1)c1ccc2cc(F)ccc2n1 (tautomer)
O=C([N-]/C=C(\O)N1C[C@H](O)C[C@H]1C(=O)N[C@@H](CO)c1cccc(Cl)c1)c1ccc2cc(F)ccc2n1 (cis-trans isomerization)
O=C([N-]/C=C(\O)N1C[C@H](O)C[C@H]1C(=O)N[C@@H](CO)c1cccc(Cl)c1)c1ccc2cc(F)ccc2n1 (3D coordinates assigned)
O=C([N-]/C=C(\O)N1C[C@H](O)C[C@H]1C(=O)N[C@@H](CO)c1cccc(Cl)c1)c1ccc2cc(F)ccc2n1 (nonaromatic ring conformer: 62.53213630697353 kcal/mol)

>  <smiles>  (77) 
O=C(NCC(=O)N1C[C@H](O)C[C@H]1C(=O)N[C@@H](CO)c1cccc(Cl)c1)c1ccc2cc(F)ccc2n1

>  <score_type>  (77) 
oracle

>  <origin>  (77) 
autodockgpu

>  <m_score__min__energy>  (77) 
-8.7599999999999998

>  <m_primary>  (77) 
energy

>  <meeko>  (77) 
{"free_energy": -6.05, "intermolecular_energy": -9.63, "internal_energy": -7.18, "cluster_size": 5, "cluster_id": 2, "rank_in_cluster": 2}

>  <energy>  (77) 
-5.44

>  <cluster_rmsd>  (77) 
0.2

>  <rmsd>  (77) 
269.09

>  <cluster>  (77) 
5

$$$$
ZXEKIRKRYMKUMV-QMUIBWSYNA-M
     RDKit          3D

 59 62  0  0  0  0  0  0  0  0999 V2000
  139.4520   74.0030  220.9170 H   0  0  0  0  0  0  0  0  0  0  0  0
  139.8820   74.1770  220.0130 O   0  0  0  0  0  0  0  0  0  0  0  0
  141.1770   73.7600  219.6860 C   0  0  0  0  0  0  0  0  0  0  0  0
  141.5880   72.5220  219.9900 C   0  0  0  0  0  0  0  0  0  0  0  0
  142.4137   72.0711  219.4200 H   0  0  0  0  0  0  0  0  0  0  0  0
  140.9710   71.7760  221.0440 N   0  0  0  0  0  0  0  0  0  0  0  0
  140.5250   72.3410  222.2860 C   0  0  0  0  0  0  0  0  0  0  0  0
  140.3240   73.5830  222.3440 O   0  0  0  0  0  0  0  0  0  0  0  0
  140.2520   71.5050  223.4750 C   0  0  0  0  0  0  0  0  0  0  0  0
  140.7330   71.8830  224.6960 N   0  0  0  0  0  0  0  0  0  0  0  0
  140.5020   71.1580  225.8220 C   0  0  0  0  0  0  0  0  0  0  0  0
  141.0140   71.5880  227.0540 C   0  0  0  0  0  0  0  0  0  0  0  0
  141.6014   72.5162  227.1123 H   0  0  0  0  0  0  0  0  0  0  0  0
  140.7770   70.8350  228.2100 C   0  0  0  0  0  0  0  0  0  0  0  0
  141.1750   71.1746  229.1776 H   0  0  0  0  0  0  0  0  0  0  0  0
  140.0340   69.6500  228.1370 C   0  0  0  0  0  0  0  0  0  0  0  0
  139.8150   68.9230  229.2600 F   0  0  0  0  0  0  0  0  0  0  0  0
  139.5110   69.2130  226.9100 C   0  0  0  0  0  0  0  0  0  0  0  0
  138.9187   68.2875  226.8597 H   0  0  0  0  0  0  0  0  0  0  0  0
  139.7480   69.9640  225.7460 C   0  0  0  0  0  0  0  0  0  0  0  0
  139.2570   69.5530  224.5030 C   0  0  0  0  0  0  0  0  0  0  0  0
  138.6702   68.6260  224.4241 H   0  0  0  0  0  0  0  0  0  0  0  0
  139.5100   70.3170  223.3610 C   0  0  0  0  0  0  0  0  0  0  0  0
  139.1316   69.9914  222.3808 H   0  0  0  0  0  0  0  0  0  0  0  0
  142.0520   74.6900  219.0090 N   0  0  0  0  0  0  0  0  0  0  0  0
  142.4120   74.6240  217.5980 C   0  0  0  0  0  0  0  0  0  0  0  0
  143.0032   73.7191  217.3939 H   0  0  0  0  0  0  0  0  0  0  0  0
  141.5232   74.5784  216.9515 H   0  0  0  0  0  0  0  0  0  0  0  0
  143.2460   75.8800  217.3300 C   0  0  2  0  0  0  0  0  0  0  0  0
  142.6537   76.6305  216.7861 H   0  0  0  0  0  0  0  0  0  0  0  0
  144.3470   75.6260  216.4930 O   0  0  0  0  0  0  0  0  0  0  0  0
  145.1650   75.6210  217.0540 H   0  0  0  0  0  0  0  0  0  0  0  0
  143.6750   76.4070  218.7030 C   0  0  0  0  0  0  0  0  0  0  0  0
  144.6978   76.0779  218.9388 H   0  0  0  0  0  0  0  0  0  0  0  0
  143.6768   77.5065  218.7360 H   0  0  0  0  0  0  0  0  0  0  0  0
  142.6790   75.8110  219.6980 C   0  0  1  0  0  0  0  0  0  0  0  0
  143.1842   75.4891  220.6206 H   0  0  0  0  0  0  0  0  0  0  0  0
  141.6470   76.8280  220.1180 C   0  0  0  0  0  0  0  0  0  0  0  0
  141.7230   78.0010  219.6610 O   0  0  0  0  0  0  0  0  0  0  0  0
  140.5560   76.4580  220.9770 N   0  0  0  0  0  0  0  0  0  0  0  0
  140.4240   75.4520  221.2260 H   0  0  0  0  0  0  0  0  0  0  0  0
  139.6820   77.4590  221.5830 C   0  0  2  0  0  0  0  0  0  0  0  0
  139.0433   77.8976  220.8022 H   0  0  0  0  0  0  0  0  0  0  0  0
  140.5190   78.5600  222.2050 C   0  0  0  0  0  0  0  0  0  0  0  0
  141.3490   78.2810  223.3080 C   0  0  0  0  0  0  0  0  0  0  0  0
  141.3879   77.2617  223.7198 H   0  0  0  0  0  0  0  0  0  0  0  0
  142.1250   79.2950  223.8830 C   0  0  0  0  0  0  0  0  0  0  0  0
  142.7692   79.0711  224.7461 H   0  0  0  0  0  0  0  0  0  0  0  0
  142.0820   80.5930  223.3610 C   0  0  0  0  0  0  0  0  0  0  0  0
  142.6953   81.3864  223.8131 H   0  0  0  0  0  0  0  0  0  0  0  0
  141.2600   80.8850  222.2640 C   0  0  0  0  0  0  0  0  0  0  0  0
  141.2010   82.5180  221.6140 Cl  0  0  0  0  0  0  0  0  0  0  0  0
  140.4840   79.8730  221.6850 C   0  0  0  0  0  0  0  0  0  0  0  0
  139.8436   80.1019  220.8204 H   0  0  0  0  0  0  0  0  0  0  0  0
  138.7670   76.8090  222.6360 C   0  0  0  0  0  0  0  0  0  0  0  0
  139.2478   76.8747  223.6232 H   0  0  0  0  0  0  0  0  0  0  0  0
  137.8039   77.3404  222.6466 H   0  0  0  0  0  0  0  0  0  0  0  0
  138.5370   75.4590  222.3230 O   0  0  0  0  0  0  0  0  0  0  0  0
  139.4010   75.0960  221.9880 H   0  0  0  0  0  0  0  0  0  0  0  0
  1  2  1  0
  2  3  1  0
  3  4  2  0
  4  5  1  0
  4  6  1  0
  6  7  1  0
  7  8  2  0
  7  9  1  0
  9 10  2  0
 10 11  1  0
 11 12  2  0
 12 13  1  0
 12 14  1  0
 14 15  1  0
 14 16  2  0
 16 17  1  0
 16 18  1  0
 18 19  1  0
 18 20  2  0
 20 21  1  0
 21 22  1  0
 21 23  2  0
 23 24  1  0
  3 25  1  0
 25 26  1  0
 26 27  1  0
 26 28  1  0
 26 29  1  0
 29 30  1  6
 29 31  1  0
 31 32  1  0
 29 33  1  0
 33 34  1  0
 33 35  1  0
 33 36  1  0
 36 37  1  1
 36 38  1  0
 38 39  2  0
 38 40  1  0
 40 41  1  0
 40 42  1  0
 42 43  1  6
 42 44  1  0
 44 45  2  0
 45 46  1  0
 45 47  1  0
 47 48  1  0
 47 49  2  0
 49 50  1  0
 49 51  1  0
 51 52  1  0
 51 53  2  0
 53 54  1  0
 42 55  1  0
 55 56  1  0
 55 57  1  0
 55 58  1  0
 58 59  1  0
 23  9  1  0
 36 25  1  0
 53 44  1  0
 20 11  1  0
M  CHG  1   6  -1
M  END
>  <UniqueID>  (78) 
156

>  <SMILES>  (78) 
O=C([N-]/C=C(\O)N1C[C@H](O)C[C@H]1C(=O)N[C@@H](CO)c1cccc(Cl)c1)c1ccc2cc(F)ccc2n1

>  <Energy>  (78) 
62.53213630697353

>  <Genealogy>  (78) 
O=C([N-]CC(=O)N1C[C@H](O)C[C@H]1C(=O)N[C@@H](CO)c1cccc(Cl)c1)c1ccc2cc(F)ccc2n1 (protonated)
O=C([N-]C=C(O)N1C[C@H](O)C[C@H]1C(=O)N[C@@H](CO)c1cccc(Cl)c1)c1ccc2cc(F)ccc2n1 (tautomer)
O=C([N-]/C=C(\O)N1C[C@H](O)C[C@H]1C(=O)N[C@@H](CO)c1cccc(Cl)c1)c1ccc2cc(F)ccc2n1 (cis-trans isomerization)
O=C([N-]/C=C(\O)N1C[C@H](O)C[C@H]1C(=O)N[C@@H](CO)c1cccc(Cl)c1)c1ccc2cc(F)ccc2n1 (3D coordinates assigned)
O=C([N-]/C=C(\O)N1C[C@H](O)C[C@H]1C(=O)N[C@@H](CO)c1cccc(Cl)c1)c1ccc2cc(F)ccc2n1 (nonaromatic ring conformer: 62.53213630697353 kcal/mol)

>  <smiles>  (78) 
O=C(NCC(=O)N1C[C@H](O)C[C@H]1C(=O)N[C@@H](CO)c1cccc(Cl)c1)c1ccc2cc(F)ccc2n1

>  <score_type>  (78) 
oracle

>  <origin>  (78) 
autodockgpu

>  <m_score__min__energy>  (78) 
-8.7599999999999998

>  <m_primary>  (78) 
energy

>  <meeko>  (78) 
{"free_energy": -7.55, "intermolecular_energy": -11.13, "internal_energy": -6.29, "cluster_size": 8, "cluster_id": 1, "rank_in_cluster": 7}

>  <energy>  (78) 
-5.44

>  <cluster_rmsd>  (78) 
0.22

>  <rmsd>  (78) 
269.09

>  <cluster>  (78) 
5

$$$$
ZXEKIRKRYMKUMV-QMUIBWSYNA-M
     RDKit          3D

 59 62  0  0  0  0  0  0  0  0999 V2000
  139.5060   74.0220  220.8450 H   0  0  0  0  0  0  0  0  0  0  0  0
  139.9300   74.0280  219.9220 O   0  0  0  0  0  0  0  0  0  0  0  0
  141.2640   73.6800  219.6870 C   0  0  0  0  0  0  0  0  0  0  0  0
  141.7370   72.4930  220.0880 C   0  0  0  0  0  0  0  0  0  0  0  0
  142.6502   72.0905  219.6253 H   0  0  0  0  0  0  0  0  0  0  0  0
  141.0740   71.7390  221.1090 N   0  0  0  0  0  0  0  0  0  0  0  0
  140.5690   72.2970  222.3320 C   0  0  0  0  0  0  0  0  0  0  0  0
  140.3330   73.5330  222.3780 O   0  0  0  0  0  0  0  0  0  0  0  0
  140.2770   71.4580  223.5150 C   0  0  0  0  0  0  0  0  0  0  0  0
  140.7240   71.8420  224.7460 N   0  0  0  0  0  0  0  0  0  0  0  0
  140.4730   71.1140  225.8670 C   0  0  0  0  0  0  0  0  0  0  0  0
  140.9510   71.5500  227.1110 C   0  0  0  0  0  0  0  0  0  0  0  0
  141.5263   72.4848  227.1831 H   0  0  0  0  0  0  0  0  0  0  0  0
  140.6950   70.7940  228.2610 C   0  0  0  0  0  0  0  0  0  0  0  0
  141.0663   71.1375  229.2378 H   0  0  0  0  0  0  0  0  0  0  0  0
  139.9670   69.6010  228.1700 C   0  0  0  0  0  0  0  0  0  0  0  0
  139.7290   68.8710  229.2880 F   0  0  0  0  0  0  0  0  0  0  0  0
  139.4800   69.1580  226.9310 C   0  0  0  0  0  0  0  0  0  0  0  0
  138.9007   68.2251  226.8663 H   0  0  0  0  0  0  0  0  0  0  0  0
  139.7360   69.9120  225.7730 C   0  0  0  0  0  0  0  0  0  0  0  0
  139.2800   69.4940  224.5190 C   0  0  0  0  0  0  0  0  0  0  0  0
  138.7063   68.5600  224.4266 H   0  0  0  0  0  0  0  0  0  0  0  0
  139.5520   70.2610  223.3830 C   0  0  0  0  0  0  0  0  0  0  0  0
  139.2017   69.9308  222.3939 H   0  0  0  0  0  0  0  0  0  0  0  0
  142.1130   74.6260  218.9990 N   0  0  0  0  0  0  0  0  0  0  0  0
  142.4680   74.5580  217.5870 C   0  0  0  0  0  0  0  0  0  0  0  0
  143.0796   73.6659  217.3869 H   0  0  0  0  0  0  0  0  0  0  0  0
  141.5774   74.4865  216.9453 H   0  0  0  0  0  0  0  0  0  0  0  0
  143.2710   75.8320  217.3050 C   0  0  2  0  0  0  0  0  0  0  0  0
  142.6595   76.5657  216.7593 H   0  0  0  0  0  0  0  0  0  0  0  0
  144.3720   75.5970  216.4630 O   0  0  0  0  0  0  0  0  0  0  0  0
  145.1950   75.6260  217.0180 H   0  0  0  0  0  0  0  0  0  0  0  0
  143.6940   76.3780  218.6720 C   0  0  0  0  0  0  0  0  0  0  0  0
  144.7254   76.0747  218.9047 H   0  0  0  0  0  0  0  0  0  0  0  0
  143.6697   77.4774  218.6975 H   0  0  0  0  0  0  0  0  0  0  0  0
  142.7180   75.7660  219.6760 C   0  0  1  0  0  0  0  0  0  0  0  0
  143.2367   75.4627  220.5974 H   0  0  0  0  0  0  0  0  0  0  0  0
  141.6640   76.7610  220.0950 C   0  0  0  0  0  0  0  0  0  0  0  0
  141.6890   77.9220  219.6010 O   0  0  0  0  0  0  0  0  0  0  0  0
  140.6100   76.3830  220.9950 N   0  0  0  0  0  0  0  0  0  0  0  0
  140.5190   75.3820  221.2770 H   0  0  0  0  0  0  0  0  0  0  0  0
  139.7200   77.3740  221.5950 C   0  0  2  0  0  0  0  0  0  0  0  0
  139.0724   77.7955  220.8121 H   0  0  0  0  0  0  0  0  0  0  0  0
  140.5390   78.4940  222.2070 C   0  0  0  0  0  0  0  0  0  0  0  0
  141.3910   78.2350  223.2970 C   0  0  0  0  0  0  0  0  0  0  0  0
  141.4604   77.2167  223.7073 H   0  0  0  0  0  0  0  0  0  0  0  0
  142.1510   79.2670  223.8620 C   0  0  0  0  0  0  0  0  0  0  0  0
  142.8130   79.0580  224.7153 H   0  0  0  0  0  0  0  0  0  0  0  0
  142.0690   80.5640  223.3420 C   0  0  0  0  0  0  0  0  0  0  0  0
  142.6692   81.3719  223.7859 H   0  0  0  0  0  0  0  0  0  0  0  0
  141.2240   80.8360  222.2570 C   0  0  0  0  0  0  0  0  0  0  0  0
  141.1170   82.4680  221.6090 Cl  0  0  0  0  0  0  0  0  0  0  0  0
  140.4650   79.8050  221.6880 C   0  0  0  0  0  0  0  0  0  0  0  0
  139.8077   80.0181  220.8321 H   0  0  0  0  0  0  0  0  0  0  0  0
  138.8190   76.7160  222.6560 C   0  0  0  0  0  0  0  0  0  0  0  0
  139.2859   76.8264  223.6459 H   0  0  0  0  0  0  0  0  0  0  0  0
  137.8359   77.2093  222.6425 H   0  0  0  0  0  0  0  0  0  0  0  0
  138.6450   75.3500  222.3770 O   0  0  0  0  0  0  0  0  0  0  0  0
  139.1150   74.8520  223.1000 H   0  0  0  0  0  0  0  0  0  0  0  0
  1  2  1  0
  2  3  1  0
  3  4  2  0
  4  5  1  0
  4  6  1  0
  6  7  1  0
  7  8  2  0
  7  9  1  0
  9 10  2  0
 10 11  1  0
 11 12  2  0
 12 13  1  0
 12 14  1  0
 14 15  1  0
 14 16  2  0
 16 17  1  0
 16 18  1  0
 18 19  1  0
 18 20  2  0
 20 21  1  0
 21 22  1  0
 21 23  2  0
 23 24  1  0
  3 25  1  0
 25 26  1  0
 26 27  1  0
 26 28  1  0
 26 29  1  0
 29 30  1  6
 29 31  1  0
 31 32  1  0
 29 33  1  0
 33 34  1  0
 33 35  1  0
 33 36  1  0
 36 37  1  1
 36 38  1  0
 38 39  2  0
 38 40  1  0
 40 41  1  0
 40 42  1  0
 42 43  1  6
 42 44  1  0
 44 45  2  0
 45 46  1  0
 45 47  1  0
 47 48  1  0
 47 49  2  0
 49 50  1  0
 49 51  1  0
 51 52  1  0
 51 53  2  0
 53 54  1  0
 42 55  1  0
 55 56  1  0
 55 57  1  0
 55 58  1  0
 58 59  1  0
 23  9  1  0
 36 25  1  0
 53 44  1  0
 20 11  1  0
M  CHG  1   6  -1
M  END
>  <UniqueID>  (79) 
156

>  <SMILES>  (79) 
O=C([N-]/C=C(\O)N1C[C@H](O)C[C@H]1C(=O)N[C@@H](CO)c1cccc(Cl)c1)c1ccc2cc(F)ccc2n1

>  <Energy>  (79) 
62.53213630697353

>  <Genealogy>  (79) 
O=C([N-]CC(=O)N1C[C@H](O)C[C@H]1C(=O)N[C@@H](CO)c1cccc(Cl)c1)c1ccc2cc(F)ccc2n1 (protonated)
O=C([N-]C=C(O)N1C[C@H](O)C[C@H]1C(=O)N[C@@H](CO)c1cccc(Cl)c1)c1ccc2cc(F)ccc2n1 (tautomer)
O=C([N-]/C=C(\O)N1C[C@H](O)C[C@H]1C(=O)N[C@@H](CO)c1cccc(Cl)c1)c1ccc2cc(F)ccc2n1 (cis-trans isomerization)
O=C([N-]/C=C(\O)N1C[C@H](O)C[C@H]1C(=O)N[C@@H](CO)c1cccc(Cl)c1)c1ccc2cc(F)ccc2n1 (3D coordinates assigned)
O=C([N-]/C=C(\O)N1C[C@H](O)C[C@H]1C(=O)N[C@@H](CO)c1cccc(Cl)c1)c1ccc2cc(F)ccc2n1 (nonaromatic ring conformer: 62.53213630697353 kcal/mol)

>  <smiles>  (79) 
O=C(NCC(=O)N1C[C@H](O)C[C@H]1C(=O)N[C@@H](CO)c1cccc(Cl)c1)c1ccc2cc(F)ccc2n1

>  <score_type>  (79) 
oracle

>  <origin>  (79) 
autodockgpu

>  <m_score__min__energy>  (79) 
-8.7599999999999998

>  <m_primary>  (79) 
energy

>  <meeko>  (79) 
{"free_energy": -8.12, "intermolecular_energy": -11.7, "internal_energy": -5.92, "cluster_size": 8, "cluster_id": 1, "rank_in_cluster": 5}

>  <energy>  (79) 
-5.4

>  <cluster_rmsd>  (79) 
0.23

>  <rmsd>  (79) 
269.1

>  <cluster>  (79) 
5

$$$$
ZXEKIRKRYMKUMV-QMUIBWSYNA-M
     RDKit          3D

 59 62  0  0  0  0  0  0  0  0999 V2000
  139.4520   74.4260  223.0940 H   0  0  0  0  0  0  0  0  0  0  0  0
  139.5390   75.4260  222.9350 O   0  0  0  0  0  0  0  0  0  0  0  0
  140.5120   75.9890  222.1020 C   0  0  0  0  0  0  0  0  0  0  0  0
  141.2430   75.2130  221.2920 C   0  0  0  0  0  0  0  0  0  0  0  0
  142.2758   75.5050  221.0511 H   0  0  0  0  0  0  0  0  0  0  0  0
  140.7040   74.0100  220.7340 N   0  0  0  0  0  0  0  0  0  0  0  0
  139.4260   73.4560  221.0810 C   0  0  0  0  0  0  0  0  0  0  0  0
  138.4150   73.8120  220.4190 O   0  0  0  0  0  0  0  0  0  0  0  0
  139.2720   72.4500  222.1550 C   0  0  0  0  0  0  0  0  0  0  0  0
  140.1790   72.4020  223.1740 N   0  0  0  0  0  0  0  0  0  0  0  0
  140.0780   71.5060  224.1920 C   0  0  0  0  0  0  0  0  0  0  0  0
  141.0330   71.4960  225.2190 C   0  0  0  0  0  0  0  0  0  0  0  0
  141.8641   72.2165  225.2054 H   0  0  0  0  0  0  0  0  0  0  0  0
  140.9270   70.5680  226.2610 C   0  0  0  0  0  0  0  0  0  0  0  0
  141.6737   70.5623  227.0687 H   0  0  0  0  0  0  0  0  0  0  0  0
  139.8720   69.6460  226.2780 C   0  0  0  0  0  0  0  0  0  0  0  0
  139.7810   68.7460  227.2880 F   0  0  0  0  0  0  0  0  0  0  0  0
  138.9080   69.6510  225.2580 C   0  0  0  0  0  0  0  0  0  0  0  0
  138.0762   68.9315  225.2805 H   0  0  0  0  0  0  0  0  0  0  0  0
  139.0100   70.5790  224.2080 C   0  0  0  0  0  0  0  0  0  0  0  0
  138.0780   70.6040  223.1660 C   0  0  0  0  0  0  0  0  0  0  0  0
  137.2421   69.8890  223.1603 H   0  0  0  0  0  0  0  0  0  0  0  0
  138.2060   71.5350  222.1320 C   0  0  0  0  0  0  0  0  0  0  0  0
  137.4785   71.5515  221.3071 H   0  0  0  0  0  0  0  0  0  0  0  0
  140.7020   77.4210  222.1320 N   0  0  0  0  0  0  0  0  0  0  0  0
  141.5720   78.1690  221.2330 C   0  0  0  0  0  0  0  0  0  0  0  0
  142.6243   77.8960  221.4010 H   0  0  0  0  0  0  0  0  0  0  0  0
  141.3496   77.9540  220.1774 H   0  0  0  0  0  0  0  0  0  0  0  0
  141.3410   79.6440  221.5730 C   0  0  2  0  0  0  0  0  0  0  0  0
  140.7152   80.1258  220.8074 H   0  0  0  0  0  0  0  0  0  0  0  0
  142.5340   80.3890  221.5730 O   0  0  0  0  0  0  0  0  0  0  0  0
  143.2930   79.7530  221.6380 H   0  0  0  0  0  0  0  0  0  0  0  0
  140.6500   79.6620  222.9400 C   0  0  0  0  0  0  0  0  0  0  0  0
  141.3829   79.8473  223.7390 H   0  0  0  0  0  0  0  0  0  0  0  0
  139.8959   80.4601  223.0060 H   0  0  0  0  0  0  0  0  0  0  0  0
  140.0250   78.2760  223.0990 C   0  0  1  0  0  0  0  0  0  0  0  0
  140.1464   77.9020  224.1263 H   0  0  0  0  0  0  0  0  0  0  0  0
  138.5400   78.3100  222.8370 C   0  0  0  0  0  0  0  0  0  0  0  0
  137.8530   79.2460  223.3300 O   0  0  0  0  0  0  0  0  0  0  0  0
  137.9190   77.3280  221.9920 N   0  0  0  0  0  0  0  0  0  0  0  0
  138.5210   76.6500  221.4740 H   0  0  0  0  0  0  0  0  0  0  0  0
  136.4660   77.1960  221.9070 C   0  0  2  0  0  0  0  0  0  0  0  0
  136.0018   78.1542  222.1834 H   0  0  0  0  0  0  0  0  0  0  0  0
  135.9920   76.1270  222.8720 C   0  0  0  0  0  0  0  0  0  0  0  0
  136.2660   74.7700  222.6160 C   0  0  0  0  0  0  0  0  0  0  0  0
  136.8234   74.4851  221.7115 H   0  0  0  0  0  0  0  0  0  0  0  0
  135.8320   73.7810  223.5080 C   0  0  0  0  0  0  0  0  0  0  0  0
  136.0480   72.7224  223.3013 H   0  0  0  0  0  0  0  0  0  0  0  0
  135.1240   74.1370  224.6620 C   0  0  0  0  0  0  0  0  0  0  0  0
  134.7867   73.3579  225.3614 H   0  0  0  0  0  0  0  0  0  0  0  0
  134.8440   75.4850  224.9280 C   0  0  0  0  0  0  0  0  0  0  0  0
  133.9480   75.9310  226.3740 Cl  0  0  0  0  0  0  0  0  0  0  0  0
  135.2790   76.4770  224.0400 C   0  0  0  0  0  0  0  0  0  0  0  0
  135.0642   77.5345  224.2534 H   0  0  0  0  0  0  0  0  0  0  0  0
  136.0390   76.8580  220.4670 C   0  0  0  0  0  0  0  0  0  0  0  0
  135.2729   76.0690  220.4925 H   0  0  0  0  0  0  0  0  0  0  0  0
  135.6343   77.7650  219.9942 H   0  0  0  0  0  0  0  0  0  0  0  0
  137.1400   76.4090  219.7190 O   0  0  0  0  0  0  0  0  0  0  0  0
  137.4920   75.6050  220.1900 H   0  0  0  0  0  0  0  0  0  0  0  0
  1  2  1  0
  2  3  1  0
  3  4  2  0
  4  5  1  0
  4  6  1  0
  6  7  1  0
  7  8  2  0
  7  9  1  0
  9 10  2  0
 10 11  1  0
 11 12  2  0
 12 13  1  0
 12 14  1  0
 14 15  1  0
 14 16  2  0
 16 17  1  0
 16 18  1  0
 18 19  1  0
 18 20  2  0
 20 21  1  0
 21 22  1  0
 21 23  2  0
 23 24  1  0
  3 25  1  0
 25 26  1  0
 26 27  1  0
 26 28  1  0
 26 29  1  0
 29 30  1  6
 29 31  1  0
 31 32  1  0
 29 33  1  0
 33 34  1  0
 33 35  1  0
 33 36  1  0
 36 37  1  1
 36 38  1  0
 38 39  2  0
 38 40  1  0
 40 41  1  0
 40 42  1  0
 42 43  1  1
 42 44  1  0
 44 45  2  0
 45 46  1  0
 45 47  1  0
 47 48  1  0
 47 49  2  0
 49 50  1  0
 49 51  1  0
 51 52  1  0
 51 53  2  0
 53 54  1  0
 42 55  1  0
 55 56  1  0
 55 57  1  0
 55 58  1  0
 58 59  1  0
 23  9  1  0
 36 25  1  0
 53 44  1  0
 20 11  1  0
M  CHG  1   6  -1
M  END
>  <UniqueID>  (80) 
156

>  <SMILES>  (80) 
O=C([N-]/C=C(\O)N1C[C@H](O)C[C@H]1C(=O)N[C@@H](CO)c1cccc(Cl)c1)c1ccc2cc(F)ccc2n1

>  <Energy>  (80) 
62.53213630697353

>  <Genealogy>  (80) 
O=C([N-]CC(=O)N1C[C@H](O)C[C@H]1C(=O)N[C@@H](CO)c1cccc(Cl)c1)c1ccc2cc(F)ccc2n1 (protonated)
O=C([N-]C=C(O)N1C[C@H](O)C[C@H]1C(=O)N[C@@H](CO)c1cccc(Cl)c1)c1ccc2cc(F)ccc2n1 (tautomer)
O=C([N-]/C=C(\O)N1C[C@H](O)C[C@H]1C(=O)N[C@@H](CO)c1cccc(Cl)c1)c1ccc2cc(F)ccc2n1 (cis-trans isomerization)
O=C([N-]/C=C(\O)N1C[C@H](O)C[C@H]1C(=O)N[C@@H](CO)c1cccc(Cl)c1)c1ccc2cc(F)ccc2n1 (3D coordinates assigned)
O=C([N-]/C=C(\O)N1C[C@H](O)C[C@H]1C(=O)N[C@@H](CO)c1cccc(Cl)c1)c1ccc2cc(F)ccc2n1 (nonaromatic ring conformer: 62.53213630697353 kcal/mol)

>  <smiles>  (80) 
O=C(NCC(=O)N1C[C@H](O)C[C@H]1C(=O)N[C@@H](CO)c1cccc(Cl)c1)c1ccc2cc(F)ccc2n1

>  <score_type>  (80) 
oracle

>  <origin>  (80) 
autodockgpu

>  <m_score__min__energy>  (80) 
-8.7599999999999998

>  <m_primary>  (80) 
energy

>  <meeko>  (80) 
{"free_energy": -5.8, "intermolecular_energy": -9.38, "internal_energy": -5.56, "cluster_size": 5, "cluster_id": 2, "rank_in_cluster": 4}

>  <energy>  (80) 
-4.16

>  <cluster_rmsd>  (80) 
0.0

>  <rmsd>  (80) 
268.43

>  <cluster>  (80) 
6

$$$$
