IEUOTYZOLCKWKV-RTROOMJONA-P
     RDKit          3D

 58 62  0  0  0  0  0  0  0  0999 V2000
  137.6821   77.7817  220.1079 H   0  0  0  0  0  0  0  0  0  0  0  0
  137.5650   76.8300  219.5690 C   0  0  0  0  0  0  0  0  0  0  0  0
  138.4450   76.3930  218.6420 N   0  0  0  0  0  0  0  0  0  0  0  0
  137.9410   75.2140  218.2410 C   0  0  0  0  0  0  0  0  0  0  0  0
  138.3836   74.5543  217.4801 H   0  0  0  0  0  0  0  0  0  0  0  0
  136.7820   74.9670  218.9370 C   0  0  0  0  0  0  0  0  0  0  0  0
  135.8730   73.7930  218.7490 C   0  0  0  0  0  0  0  0  0  0  0  0
  136.2681   73.1548  217.9449 H   0  0  0  0  0  0  0  0  0  0  0  0
  134.8699   74.1592  218.4852 H   0  0  0  0  0  0  0  0  0  0  0  0
  135.7770   72.9750  220.0400 C   0  0  0  0  0  0  0  0  0  0  0  0
  136.2981   72.0166  219.8986 H   0  0  0  0  0  0  0  0  0  0  0  0
  134.7148   72.8048  220.2698 H   0  0  0  0  0  0  0  0  0  0  0  0
  136.3900   73.6940  221.1630 N   0  0  0  0  0  0  0  0  0  0  0  0
  135.8160   74.4000  221.6790 H   0  0  0  0  0  0  0  0  0  0  0  0
  137.6220   73.4820  221.5390 C   0  0  0  0  0  0  0  0  0  0  0  0
  137.9150   72.4710  222.4000 N   0  0  0  0  0  0  0  0  0  0  0  0
  139.1910   72.2430  222.8030 C   0  0  0  0  0  0  0  0  0  0  0  0
  139.4830   71.1700  223.7220 N   0  0  0  0  0  0  0  0  0  0  0  0
  139.8650   71.5150  225.1060 C   0  0  0  0  0  0  0  0  0  0  0  0
  140.7450   72.1740  225.0692 H   0  0  0  0  0  0  0  0  0  0  0  0
  138.9938   72.0029  225.5674 H   0  0  0  0  0  0  0  0  0  0  0  0
  140.2030   70.3150  225.9610 C   0  0  0  0  0  0  0  0  0  0  0  0
  140.8590   70.5080  227.1860 C   0  0  0  0  0  0  0  0  0  0  0  0
  141.1522   71.5220  227.4955 H   0  0  0  0  0  0  0  0  0  0  0  0
  141.1420   69.4200  228.0150 C   0  0  0  0  0  0  0  0  0  0  0  0
  141.6669   69.5779  228.9687 H   0  0  0  0  0  0  0  0  0  0  0  0
  140.7590   68.1310  227.6340 C   0  0  0  0  0  0  0  0  0  0  0  0
  140.9809   67.2754  228.2887 H   0  0  0  0  0  0  0  0  0  0  0  0
  140.0950   67.9290  226.4230 C   0  0  0  0  0  0  0  0  0  0  0  0
  139.7841   66.9150  226.1312 H   0  0  0  0  0  0  0  0  0  0  0  0
  139.8220   69.0160  225.5750 C   0  0  0  0  0  0  0  0  0  0  0  0
  139.0780   68.8050  224.2920 C   0  0  0  0  0  0  0  0  0  0  0  0
  139.2421   67.7755  223.9411 H   0  0  0  0  0  0  0  0  0  0  0  0
  138.0050   68.9742  224.4655 H   0  0  0  0  0  0  0  0  0  0  0  0
  139.5740   69.7850  223.2320 C   0  0  0  0  0  0  0  0  0  0  0  0
  140.6223   69.5555  222.9901 H   0  0  0  0  0  0  0  0  0  0  0  0
  138.9451   69.6847  222.3351 H   0  0  0  0  0  0  0  0  0  0  0  0
  140.1830   73.0420  222.3330 N   0  0  0  0  0  0  0  0  0  0  0  0
  139.9170   74.0570  221.4700 C   0  0  0  0  0  0  0  0  0  0  0  0
  140.9980   74.8840  220.9840 N   0  0  0  0  0  0  0  0  0  0  0  0
  141.1450   76.2630  221.4660 C   0  0  0  0  0  0  0  0  0  0  0  0
  140.1608   76.6495  221.7694 H   0  0  0  0  0  0  0  0  0  0  0  0
  141.8316   76.2733  222.3253 H   0  0  0  0  0  0  0  0  0  0  0  0
  141.7190   77.1520  220.3520 C   0  0  0  0  0  0  0  0  0  0  0  0
  140.9448   77.2851  219.5820 H   0  0  0  0  0  0  0  0  0  0  0  0
  142.0154   78.1010  220.8226 H   0  0  0  0  0  0  0  0  0  0  0  0
  142.9320   76.5970  219.7030 N   0  0  0  0  0  0  0  0  0  0  0  0
  142.7990   76.6130  218.6640 H   0  0  0  0  0  0  0  0  0  0  0  0
  143.7480   77.2180  219.9170 H   0  0  0  0  0  0  0  0  0  0  0  0
  143.2830   75.2260  220.1090 C   0  0  0  0  0  0  0  0  0  0  0  0
  144.0150   74.8186  219.3960 H   0  0  0  0  0  0  0  0  0  0  0  0
  143.7041   75.2644  221.1245 H   0  0  0  0  0  0  0  0  0  0  0  0
  142.0520   74.3140  220.1340 C   0  0  0  0  0  0  0  0  0  0  0  0
  141.6670   74.1996  219.1099 H   0  0  0  0  0  0  0  0  0  0  0  0
  142.3456   73.3364  220.5440 H   0  0  0  0  0  0  0  0  0  0  0  0
  138.6290   74.2760  221.0750 N   0  0  0  0  0  0  0  0  0  0  0  0
  138.4040   75.0630  220.4280 H   0  0  0  0  0  0  0  0  0  0  0  0
  136.5290   75.9900  219.7720 N   0  0  0  0  0  0  0  0  0  0  0  0
  1  2  1  0
  2  3  2  0
  3  4  1  0
  4  5  1  0
  4  6  2  0
  6  7  1  0
  7  8  1  0
  7  9  1  0
  7 10  1  0
 10 11  1  0
 10 12  1  0
 10 13  1  0
 13 14  1  0
 13 15  2  0
 15 16  1  0
 16 17  2  0
 17 18  1  0
 18 19  1  0
 19 20  1  0
 19 21  1  0
 19 22  1  0
 22 23  2  0
 23 24  1  0
 23 25  1  0
 25 26  1  0
 25 27  2  0
 27 28  1  0
 27 29  1  0
 29 30  1  0
 29 31  2  0
 31 32  1  0
 32 33  1  0
 32 34  1  0
 32 35  1  0
 35 36  1  0
 35 37  1  0
 17 38  1  0
 38 39  2  0
 39 40  1  0
 40 41  1  0
 41 42  1  0
 41 43  1  0
 41 44  1  0
 44 45  1  0
 44 46  1  0
 44 47  1  0
 47 48  1  0
 47 49  1  0
 47 50  1  0
 50 51  1  0
 50 52  1  0
 50 53  1  0
 53 54  1  0
 53 55  1  0
 39 56  1  0
 56 57  1  0
  6 58  1  0
 58  2  1  0
 56 15  1  0
 35 18  1  0
 53 40  1  0
 31 22  1  0
M  CHG  3  13   1  47   1  58  -1
M  END
>  <UniqueID>  (1) 
534

>  <SMILES>  (1) 
c1ccc2c(c1)CCN(c1nc(N3CC[NH2+]CC3)[nH]/c(=[NH+]/CCc3cnc[n-]3)n1)C2

>  <Energy>  (1) 
93.28672045137301

>  <Genealogy>  (1) 
c1ccc2c(c1)CCN(c1nc([NH2+]CCc3cnc[n-]3)nc(N3CC[NH2+]CC3)n1)C2 (protonated)
c1ccc2c(c1)CCN(c1nc(N3CC[NH2+]CC3)[nH]c(=[NH+]CCc3cnc[n-]3)n1)C2 (tautomer)
c1ccc2c(c1)CCN(c1nc(N3CC[NH2+]CC3)[nH]/c(=[NH+]/CCc3cnc[n-]3)n1)C2 (cis-trans isomerization)
c1ccc2c(c1)CCN(c1nc(N3CC[NH2+]CC3)[nH]/c(=[NH+]/CCc3cnc[n-]3)n1)C2 (3D coordinates assigned)
c1ccc2c(c1)CCN(c1nc(N3CC[NH2+]CC3)[nH]/c(=[NH+]/CCc3cnc[n-]3)n1)C2 (nonaromatic ring conformer: 93.28672045137301 kcal/mol)

>  <smiles>  (1) 
c1ccc2c(c1)CCN(c1nc(NCCc3cnc[nH]3)nc(N3CCNCC3)n1)C2

>  <score_type>  (1) 
oracle

>  <origin>  (1) 
autodockgpu

>  <m_score__min__energy>  (1) 
-7.5700000000000003

>  <m_primary>  (1) 
energy

>  <meeko>  (1) 
{"free_energy": -5.85, "intermolecular_energy": -7.64, "internal_energy": -2.66, "cluster_size": 1, "cluster_id": 7, "rank_in_cluster": 1}

>  <energy>  (1) 
-7.57

>  <cluster_rmsd>  (1) 
0.0

>  <rmsd>  (1) 
272.46

>  <cluster>  (1) 
1

$$$$
IEUOTYZOLCKWKV-RTROOMJONA-P
     RDKit          3D

 58 62  0  0  0  0  0  0  0  0999 V2000
  147.2804   74.3858  216.7345 H   0  0  0  0  0  0  0  0  0  0  0  0
  146.4520   73.6890  216.9300 C   0  0  0  0  0  0  0  0  0  0  0  0
  145.5440   73.3410  215.9930 N   0  0  0  0  0  0  0  0  0  0  0  0
  144.7240   72.4880  216.6310 C   0  0  0  0  0  0  0  0  0  0  0  0
  143.8469   71.9918  216.1900 H   0  0  0  0  0  0  0  0  0  0  0  0
  145.1620   72.3380  217.9250 C   0  0  0  0  0  0  0  0  0  0  0  0
  144.4960   71.5260  218.9920 C   0  0  0  0  0  0  0  0  0  0  0  0
  145.1867   70.7408  219.3331 H   0  0  0  0  0  0  0  0  0  0  0  0
  143.5828   71.0746  218.5769 H   0  0  0  0  0  0  0  0  0  0  0  0
  144.1130   72.4120  220.1820 C   0  0  0  0  0  0  0  0  0  0  0  0
  144.4994   71.9593  221.1071 H   0  0  0  0  0  0  0  0  0  0  0  0
  143.0166   72.4919  220.2219 H   0  0  0  0  0  0  0  0  0  0  0  0
  144.6760   73.7590  220.0350 N   0  0  0  0  0  0  0  0  0  0  0  0
  145.6850   73.9090  220.2690 H   0  0  0  0  0  0  0  0  0  0  0  0
  143.9640   74.7720  219.6220 C   0  0  0  0  0  0  0  0  0  0  0  0
  143.1090   75.4040  220.4700 N   0  0  0  0  0  0  0  0  0  0  0  0
  142.3590   76.4550  220.0510 C   0  0  0  0  0  0  0  0  0  0  0  0
  141.4520   77.1100  220.9630 N   0  0  0  0  0  0  0  0  0  0  0  0
  141.6900   78.5280  221.2930 C   0  0  0  0  0  0  0  0  0  0  0  0
  142.7057   78.6227  221.7045 H   0  0  0  0  0  0  0  0  0  0  0  0
  141.5579   79.1003  220.3629 H   0  0  0  0  0  0  0  0  0  0  0  0
  140.7140   79.0910  222.2990 C   0  0  0  0  0  0  0  0  0  0  0  0
  140.9970   80.3180  222.9210 C   0  0  0  0  0  0  0  0  0  0  0  0
  141.9400   80.8388  222.6985 H   0  0  0  0  0  0  0  0  0  0  0  0
  140.0890   80.8810  223.8200 C   0  0  0  0  0  0  0  0  0  0  0  0
  140.3235   81.8367  224.3116 H   0  0  0  0  0  0  0  0  0  0  0  0
  138.8830   80.2320  224.0960 C   0  0  0  0  0  0  0  0  0  0  0  0
  138.1677   80.6786  224.8023 H   0  0  0  0  0  0  0  0  0  0  0  0
  138.5850   79.0170  223.4760 C   0  0  0  0  0  0  0  0  0  0  0  0
  137.6300   78.5136  223.6872 H   0  0  0  0  0  0  0  0  0  0  0  0
  139.5010   78.4350  222.5830 C   0  0  0  0  0  0  0  0  0  0  0  0
  139.1670   77.1500  221.8880 C   0  0  0  0  0  0  0  0  0  0  0  0
  138.4567   76.5776  222.5028 H   0  0  0  0  0  0  0  0  0  0  0  0
  138.7174   77.3756  220.9097 H   0  0  0  0  0  0  0  0  0  0  0  0
  140.4330   76.3240  221.6780 C   0  0  0  0  0  0  0  0  0  0  0  0
  140.8324   76.0194  222.6566 H   0  0  0  0  0  0  0  0  0  0  0  0
  140.1824   75.4377  221.0766 H   0  0  0  0  0  0  0  0  0  0  0  0
  142.4720   76.8760  218.7650 N   0  0  0  0  0  0  0  0  0  0  0  0
  143.3210   76.2630  217.8990 C   0  0  0  0  0  0  0  0  0  0  0  0
  143.4220   76.7400  216.5390 N   0  0  0  0  0  0  0  0  0  0  0  0
  144.1080   75.9320  215.5240 C   0  0  0  0  0  0  0  0  0  0  0  0
  144.8621   75.2973  216.0124 H   0  0  0  0  0  0  0  0  0  0  0  0
  143.3703   75.3027  215.0046 H   0  0  0  0  0  0  0  0  0  0  0  0
  144.7990   76.8480  214.5010 C   0  0  0  0  0  0  0  0  0  0  0  0
  145.6553   77.3322  214.9933 H   0  0  0  0  0  0  0  0  0  0  0  0
  145.1003   76.2111  213.6563 H   0  0  0  0  0  0  0  0  0  0  0  0
  143.9200   77.9060  213.9480 N   0  0  0  0  0  0  0  0  0  0  0  0
  144.4060   78.8310  214.0340 H   0  0  0  0  0  0  0  0  0  0  0  0
  143.7720   77.7310  212.9270 H   0  0  0  0  0  0  0  0  0  0  0  0
  142.5980   78.0140  214.5890 C   0  0  0  0  0  0  0  0  0  0  0  0
  142.1395   78.9720  214.3025 H   0  0  0  0  0  0  0  0  0  0  0  0
  141.9819   77.1673  214.2520 H   0  0  0  0  0  0  0  0  0  0  0  0
  142.7050   77.9510  216.1160 C   0  0  0  0  0  0  0  0  0  0  0  0
  143.2489   78.8366  216.4763 H   0  0  0  0  0  0  0  0  0  0  0  0
  141.6903   77.9264  216.5400 H   0  0  0  0  0  0  0  0  0  0  0  0
  144.0670   75.2060  218.3330 N   0  0  0  0  0  0  0  0  0  0  0  0
  144.7100   74.7110  217.6760 H   0  0  0  0  0  0  0  0  0  0  0  0
  146.2490   73.1030  218.1280 N   0  0  0  0  0  0  0  0  0  0  0  0
  1  2  1  0
  2  3  2  0
  3  4  1  0
  4  5  1  0
  4  6  2  0
  6  7  1  0
  7  8  1  0
  7  9  1  0
  7 10  1  0
 10 11  1  0
 10 12  1  0
 10 13  1  0
 13 14  1  0
 13 15  2  0
 15 16  1  0
 16 17  2  0
 17 18  1  0
 18 19  1  0
 19 20  1  0
 19 21  1  0
 19 22  1  0
 22 23  2  0
 23 24  1  0
 23 25  1  0
 25 26  1  0
 25 27  2  0
 27 28  1  0
 27 29  1  0
 29 30  1  0
 29 31  2  0
 31 32  1  0
 32 33  1  0
 32 34  1  0
 32 35  1  0
 35 36  1  0
 35 37  1  0
 17 38  1  0
 38 39  2  0
 39 40  1  0
 40 41  1  0
 41 42  1  0
 41 43  1  0
 41 44  1  0
 44 45  1  0
 44 46  1  0
 44 47  1  0
 47 48  1  0
 47 49  1  0
 47 50  1  0
 50 51  1  0
 50 52  1  0
 50 53  1  0
 53 54  1  0
 53 55  1  0
 39 56  1  0
 56 57  1  0
  6 58  1  0
 58  2  1  0
 56 15  1  0
 35 18  1  0
 53 40  1  0
 31 22  1  0
M  CHG  3  13   1  47   1  58  -1
M  END
>  <UniqueID>  (2) 
534

>  <SMILES>  (2) 
c1ccc2c(c1)CCN(c1nc(N3CC[NH2+]CC3)[nH]/c(=[NH+]/CCc3cnc[n-]3)n1)C2

>  <Energy>  (2) 
93.28672045137301

>  <Genealogy>  (2) 
c1ccc2c(c1)CCN(c1nc([NH2+]CCc3cnc[n-]3)nc(N3CC[NH2+]CC3)n1)C2 (protonated)
c1ccc2c(c1)CCN(c1nc(N3CC[NH2+]CC3)[nH]c(=[NH+]CCc3cnc[n-]3)n1)C2 (tautomer)
c1ccc2c(c1)CCN(c1nc(N3CC[NH2+]CC3)[nH]/c(=[NH+]/CCc3cnc[n-]3)n1)C2 (cis-trans isomerization)
c1ccc2c(c1)CCN(c1nc(N3CC[NH2+]CC3)[nH]/c(=[NH+]/CCc3cnc[n-]3)n1)C2 (3D coordinates assigned)
c1ccc2c(c1)CCN(c1nc(N3CC[NH2+]CC3)[nH]/c(=[NH+]/CCc3cnc[n-]3)n1)C2 (nonaromatic ring conformer: 93.28672045137301 kcal/mol)

>  <smiles>  (2) 
c1ccc2c(c1)CCN(c1nc(NCCc3cnc[nH]3)nc(N3CCNCC3)n1)C2

>  <score_type>  (2) 
oracle

>  <origin>  (2) 
autodockgpu

>  <m_score__min__energy>  (2) 
-7.5700000000000003

>  <m_primary>  (2) 
energy

>  <meeko>  (2) 
{"free_energy": -6.78, "intermolecular_energy": -8.57, "internal_energy": -2.64, "cluster_size": 4, "cluster_id": 3, "rank_in_cluster": 3}

>  <energy>  (2) 
-7.54

>  <cluster_rmsd>  (2) 
0.05

>  <rmsd>  (2) 
272.47

>  <cluster>  (2) 
1

$$$$
IEUOTYZOLCKWKV-RTROOMJONA-P
     RDKit          3D

 58 62  0  0  0  0  0  0  0  0999 V2000
  142.7655   75.0246  221.6841 H   0  0  0  0  0  0  0  0  0  0  0  0
  141.8080   74.8170  221.1840 C   0  0  0  0  0  0  0  0  0  0  0  0
  141.6450   74.8840  219.8450 N   0  0  0  0  0  0  0  0  0  0  0  0
  140.3540   74.5630  219.6550 C   0  0  0  0  0  0  0  0  0  0  0  0
  139.8422   74.5160  218.6824 H   0  0  0  0  0  0  0  0  0  0  0  0
  139.7780   74.3030  220.8760 C   0  0  0  0  0  0  0  0  0  0  0  0
  138.3390   73.9710  221.1190 C   0  0  0  0  0  0  0  0  0  0  0  0
  138.2707   72.9756  221.5823 H   0  0  0  0  0  0  0  0  0  0  0  0
  137.8052   73.9800  220.1572 H   0  0  0  0  0  0  0  0  0  0  0  0
  137.6980   75.0050  222.0500 C   0  0  0  0  0  0  0  0  0  0  0  0
  137.0991   74.4826  222.8105 H   0  0  0  0  0  0  0  0  0  0  0  0
  137.0606   75.6709  221.4498 H   0  0  0  0  0  0  0  0  0  0  0  0
  138.7240   75.8150  222.7190 N   0  0  0  0  0  0  0  0  0  0  0  0
  139.2530   75.3940  223.5170 H   0  0  0  0  0  0  0  0  0  0  0  0
  138.9980   77.0370  222.3510 C   0  0  0  0  0  0  0  0  0  0  0  0
  138.3940   78.0920  222.9600 N   0  0  0  0  0  0  0  0  0  0  0  0
  138.6670   79.3670  222.5820 C   0  0  0  0  0  0  0  0  0  0  0  0
  138.0110   80.4740  223.2350 N   0  0  0  0  0  0  0  0  0  0  0  0
  138.0280   80.5300  224.7100 C   0  0  0  0  0  0  0  0  0  0  0  0
  137.5838   79.6013  225.0976 H   0  0  0  0  0  0  0  0  0  0  0  0
  139.0779   80.6530  225.0142 H   0  0  0  0  0  0  0  0  0  0  0  0
  137.2630   81.7000  225.2840 C   0  0  0  0  0  0  0  0  0  0  0  0
  136.9480   81.7120  226.6520 C   0  0  0  0  0  0  0  0  0  0  0  0
  137.2279   80.8569  227.2848 H   0  0  0  0  0  0  0  0  0  0  0  0
  136.2820   82.8020  227.2140 C   0  0  0  0  0  0  0  0  0  0  0  0
  136.0290   82.7981  228.2845 H   0  0  0  0  0  0  0  0  0  0  0  0
  135.9360   83.8980  226.4200 C   0  0  0  0  0  0  0  0  0  0  0  0
  135.4132   84.7570  226.8658 H   0  0  0  0  0  0  0  0  0  0  0  0
  136.2540   83.9030  225.0600 C   0  0  0  0  0  0  0  0  0  0  0  0
  135.9904   84.7719  224.4390 H   0  0  0  0  0  0  0  0  0  0  0  0
  136.9090   82.8030  224.4820 C   0  0  0  0  0  0  0  0  0  0  0  0
  137.2830   82.8220  223.0310 C   0  0  0  0  0  0  0  0  0  0  0  0
  136.5948   83.4852  222.4864 H   0  0  0  0  0  0  0  0  0  0  0  0
  138.3149   83.1894  222.9295 H   0  0  0  0  0  0  0  0  0  0  0  0
  137.1940   81.4140  222.4490 C   0  0  0  0  0  0  0  0  0  0  0  0
  136.1454   81.0821  222.4652 H   0  0  0  0  0  0  0  0  0  0  0  0
  137.5719   81.4334  221.4161 H   0  0  0  0  0  0  0  0  0  0  0  0
  139.5580   79.5830  221.5820 N   0  0  0  0  0  0  0  0  0  0  0  0
  140.1780   78.5460  220.9590 C   0  0  0  0  0  0  0  0  0  0  0  0
  141.1270   78.8110  219.9020 N   0  0  0  0  0  0  0  0  0  0  0  0
  141.8870   80.0660  219.8910 C   0  0  0  0  0  0  0  0  0  0  0  0
  141.3108   80.8453  220.4113 H   0  0  0  0  0  0  0  0  0  0  0  0
  142.8490   79.9099  220.4011 H   0  0  0  0  0  0  0  0  0  0  0  0
  142.1500   80.5090  218.4430 C   0  0  0  0  0  0  0  0  0  0  0  0
  141.1974   80.8407  218.0043 H   0  0  0  0  0  0  0  0  0  0  0  0
  142.8988   81.3136  218.4872 H   0  0  0  0  0  0  0  0  0  0  0  0
  142.7150   79.4440  217.5800 N   0  0  0  0  0  0  0  0  0  0  0  0
  142.1480   79.3820  216.7010 H   0  0  0  0  0  0  0  0  0  0  0  0
  143.6880   79.7110  217.2980 H   0  0  0  0  0  0  0  0  0  0  0  0
  142.7700   78.1070  218.1960 C   0  0  0  0  0  0  0  0  0  0  0  0
  142.9460   77.3582  217.4097 H   0  0  0  0  0  0  0  0  0  0  0  0
  143.5864   78.1001  218.9332 H   0  0  0  0  0  0  0  0  0  0  0  0
  141.4640   77.7690  218.9220 C   0  0  0  0  0  0  0  0  0  0  0  0
  140.6514   77.6909  218.1848 H   0  0  0  0  0  0  0  0  0  0  0  0
  141.5926   76.8141  219.4527 H   0  0  0  0  0  0  0  0  0  0  0  0
  139.8920   77.2690  221.3470 N   0  0  0  0  0  0  0  0  0  0  0  0
  140.3450   76.4600  220.8660 H   0  0  0  0  0  0  0  0  0  0  0  0
  140.6880   74.4720  221.8510 N   0  0  0  0  0  0  0  0  0  0  0  0
  1  2  1  0
  2  3  2  0
  3  4  1  0
  4  5  1  0
  4  6  2  0
  6  7  1  0
  7  8  1  0
  7  9  1  0
  7 10  1  0
 10 11  1  0
 10 12  1  0
 10 13  1  0
 13 14  1  0
 13 15  2  0
 15 16  1  0
 16 17  2  0
 17 18  1  0
 18 19  1  0
 19 20  1  0
 19 21  1  0
 19 22  1  0
 22 23  2  0
 23 24  1  0
 23 25  1  0
 25 26  1  0
 25 27  2  0
 27 28  1  0
 27 29  1  0
 29 30  1  0
 29 31  2  0
 31 32  1  0
 32 33  1  0
 32 34  1  0
 32 35  1  0
 35 36  1  0
 35 37  1  0
 17 38  1  0
 38 39  2  0
 39 40  1  0
 40 41  1  0
 41 42  1  0
 41 43  1  0
 41 44  1  0
 44 45  1  0
 44 46  1  0
 44 47  1  0
 47 48  1  0
 47 49  1  0
 47 50  1  0
 50 51  1  0
 50 52  1  0
 50 53  1  0
 53 54  1  0
 53 55  1  0
 39 56  1  0
 56 57  1  0
  6 58  1  0
 58  2  1  0
 56 15  1  0
 35 18  1  0
 53 40  1  0
 31 22  1  0
M  CHG  3  13   1  47   1  58  -1
M  END
>  <UniqueID>  (3) 
534

>  <SMILES>  (3) 
c1ccc2c(c1)CCN(c1nc(N3CC[NH2+]CC3)[nH]/c(=[NH+]/CCc3cnc[n-]3)n1)C2

>  <Energy>  (3) 
93.28672045137301

>  <Genealogy>  (3) 
c1ccc2c(c1)CCN(c1nc([NH2+]CCc3cnc[n-]3)nc(N3CC[NH2+]CC3)n1)C2 (protonated)
c1ccc2c(c1)CCN(c1nc(N3CC[NH2+]CC3)[nH]c(=[NH+]CCc3cnc[n-]3)n1)C2 (tautomer)
c1ccc2c(c1)CCN(c1nc(N3CC[NH2+]CC3)[nH]/c(=[NH+]/CCc3cnc[n-]3)n1)C2 (cis-trans isomerization)
c1ccc2c(c1)CCN(c1nc(N3CC[NH2+]CC3)[nH]/c(=[NH+]/CCc3cnc[n-]3)n1)C2 (3D coordinates assigned)
c1ccc2c(c1)CCN(c1nc(N3CC[NH2+]CC3)[nH]/c(=[NH+]/CCc3cnc[n-]3)n1)C2 (nonaromatic ring conformer: 93.28672045137301 kcal/mol)

>  <smiles>  (3) 
c1ccc2c(c1)CCN(c1nc(NCCc3cnc[nH]3)nc(N3CCNCC3)n1)C2

>  <score_type>  (3) 
oracle

>  <origin>  (3) 
autodockgpu

>  <m_score__min__energy>  (3) 
-7.5700000000000003

>  <m_primary>  (3) 
energy

>  <meeko>  (3) 
{"free_energy": -6.12, "intermolecular_energy": -7.91, "internal_energy": -2.62, "cluster_size": 2, "cluster_id": 5, "rank_in_cluster": 2}

>  <energy>  (3) 
-7.11

>  <cluster_rmsd>  (3) 
1.03

>  <rmsd>  (3) 
272.52

>  <cluster>  (3) 
1

$$$$
IEUOTYZOLCKWKV-RTROOMJONA-P
     RDKit          3D

 58 62  0  0  0  0  0  0  0  0999 V2000
  145.3096   71.3524  216.6376 H   0  0  0  0  0  0  0  0  0  0  0  0
  145.5540   71.5430  217.6930 C   0  0  0  0  0  0  0  0  0  0  0  0
  145.9560   70.5750  218.5440 N   0  0  0  0  0  0  0  0  0  0  0  0
  146.1480   71.2190  219.7080 C   0  0  0  0  0  0  0  0  0  0  0  0
  146.4753   70.7553  220.6503 H   0  0  0  0  0  0  0  0  0  0  0  0
  145.8680   72.5520  219.5270 C   0  0  0  0  0  0  0  0  0  0  0  0
  145.8930   73.6100  220.5870 C   0  0  0  0  0  0  0  0  0  0  0  0
  146.7980   74.2232  220.4648 H   0  0  0  0  0  0  0  0  0  0  0  0
  145.8938   73.1242  221.5739 H   0  0  0  0  0  0  0  0  0  0  0  0
  144.6580   74.5080  220.4790 C   0  0  0  0  0  0  0  0  0  0  0  0
  144.8283   75.2617  219.6961 H   0  0  0  0  0  0  0  0  0  0  0  0
  144.4915   74.9944  221.4515 H   0  0  0  0  0  0  0  0  0  0  0  0
  143.4660   73.7220  220.1380 N   0  0  0  0  0  0  0  0  0  0  0  0
  143.5000   73.0990  219.2990 H   0  0  0  0  0  0  0  0  0  0  0  0
  142.3700   73.7730  220.8460 C   0  0  0  0  0  0  0  0  0  0  0  0
  141.9590   72.6900  221.5580 N   0  0  0  0  0  0  0  0  0  0  0  0
  140.8190   72.7290  222.2930 C   0  0  0  0  0  0  0  0  0  0  0  0
  140.3940   71.5680  223.0380 N   0  0  0  0  0  0  0  0  0  0  0  0
  140.7020   71.5070  224.4800 C   0  0  0  0  0  0  0  0  0  0  0  0
  141.7900   71.6072  224.6069 H   0  0  0  0  0  0  0  0  0  0  0  0
  140.1454   72.3244  224.9618 H   0  0  0  0  0  0  0  0  0  0  0  0
  140.2610   70.2230  225.1430 C   0  0  0  0  0  0  0  0  0  0  0  0
  140.7480   69.9060  226.4210 C   0  0  0  0  0  0  0  0  0  0  0  0
  141.4704   70.5746  226.9119 H   0  0  0  0  0  0  0  0  0  0  0  0
  140.3210   68.7470  227.0730 C   0  0  0  0  0  0  0  0  0  0  0  0
  140.7165   68.4994  228.0691 H   0  0  0  0  0  0  0  0  0  0  0  0
  139.3920   67.9020  226.4610 C   0  0  0  0  0  0  0  0  0  0  0  0
  139.0541   66.9913  226.9773 H   0  0  0  0  0  0  0  0  0  0  0  0
  138.8920   68.2120  225.1950 C   0  0  0  0  0  0  0  0  0  0  0  0
  138.1527   67.5500  224.7204 H   0  0  0  0  0  0  0  0  0  0  0  0
  139.3300   69.3670  224.5250 C   0  0  0  0  0  0  0  0  0  0  0  0
  138.7670   69.7210  223.1820 C   0  0  0  0  0  0  0  0  0  0  0  0
  138.4297   68.8046  222.6756 H   0  0  0  0  0  0  0  0  0  0  0  0
  137.9182   70.4076  223.3165 H   0  0  0  0  0  0  0  0  0  0  0  0
  139.8340   70.4050  222.3310 C   0  0  0  0  0  0  0  0  0  0  0  0
  140.6409   69.6883  222.1183 H   0  0  0  0  0  0  0  0  0  0  0  0
  139.3730   70.7485  221.3932 H   0  0  0  0  0  0  0  0  0  0  0  0
  140.0850   73.8710  222.3130 N   0  0  0  0  0  0  0  0  0  0  0  0
  140.4750   74.9680  221.6130 C   0  0  0  0  0  0  0  0  0  0  0  0
  139.6750   76.1700  221.6610 N   0  0  0  0  0  0  0  0  0  0  0  0
  138.2670   76.1020  222.0700 C   0  0  0  0  0  0  0  0  0  0  0  0
  137.8679   75.1039  221.8367 H   0  0  0  0  0  0  0  0  0  0  0  0
  138.1961   76.2891  223.1517 H   0  0  0  0  0  0  0  0  0  0  0  0
  137.4490   77.1650  221.3200 C   0  0  0  0  0  0  0  0  0  0  0  0
  137.3731   76.8625  220.2651 H   0  0  0  0  0  0  0  0  0  0  0  0
  136.4687   77.2210  221.8159 H   0  0  0  0  0  0  0  0  0  0  0  0
  138.0360   78.5260  221.3740 N   0  0  0  0  0  0  0  0  0  0  0  0
  138.0910   78.9120  220.4010 H   0  0  0  0  0  0  0  0  0  0  0  0
  137.3980   79.1540  221.9170 H   0  0  0  0  0  0  0  0  0  0  0  0
  139.3770   78.6020  221.9810 C   0  0  0  0  0  0  0  0  0  0  0  0
  139.8256   79.5760  221.7358 H   0  0  0  0  0  0  0  0  0  0  0  0
  139.2703   78.4827  223.0693 H   0  0  0  0  0  0  0  0  0  0  0  0
  140.2920   77.4880  221.4630 C   0  0  0  0  0  0  0  0  0  0  0  0
  140.4755   77.6424  220.3895 H   0  0  0  0  0  0  0  0  0  0  0  0
  141.2384   77.5212  222.0226 H   0  0  0  0  0  0  0  0  0  0  0  0
  141.6230   74.9140  220.8760 N   0  0  0  0  0  0  0  0  0  0  0  0
  141.9280   75.7410  220.3160 H   0  0  0  0  0  0  0  0  0  0  0  0
  145.4800   72.7660  218.2580 N   0  0  0  0  0  0  0  0  0  0  0  0
  1  2  1  0
  2  3  2  0
  3  4  1  0
  4  5  1  0
  4  6  2  0
  6  7  1  0
  7  8  1  0
  7  9  1  0
  7 10  1  0
 10 11  1  0
 10 12  1  0
 10 13  1  0
 13 14  1  0
 13 15  2  0
 15 16  1  0
 16 17  2  0
 17 18  1  0
 18 19  1  0
 19 20  1  0
 19 21  1  0
 19 22  1  0
 22 23  2  0
 23 24  1  0
 23 25  1  0
 25 26  1  0
 25 27  2  0
 27 28  1  0
 27 29  1  0
 29 30  1  0
 29 31  2  0
 31 32  1  0
 32 33  1  0
 32 34  1  0
 32 35  1  0
 35 36  1  0
 35 37  1  0
 17 38  1  0
 38 39  2  0
 39 40  1  0
 40 41  1  0
 41 42  1  0
 41 43  1  0
 41 44  1  0
 44 45  1  0
 44 46  1  0
 44 47  1  0
 47 48  1  0
 47 49  1  0
 47 50  1  0
 50 51  1  0
 50 52  1  0
 50 53  1  0
 53 54  1  0
 53 55  1  0
 39 56  1  0
 56 57  1  0
  6 58  1  0
 58  2  1  0
 56 15  1  0
 35 18  1  0
 53 40  1  0
 31 22  1  0
M  CHG  3  13   1  47   1  58  -1
M  END
>  <UniqueID>  (4) 
534

>  <SMILES>  (4) 
c1ccc2c(c1)CCN(c1nc(N3CC[NH2+]CC3)[nH]/c(=[NH+]/CCc3cnc[n-]3)n1)C2

>  <Energy>  (4) 
93.28672045137301

>  <Genealogy>  (4) 
c1ccc2c(c1)CCN(c1nc([NH2+]CCc3cnc[n-]3)nc(N3CC[NH2+]CC3)n1)C2 (protonated)
c1ccc2c(c1)CCN(c1nc(N3CC[NH2+]CC3)[nH]c(=[NH+]CCc3cnc[n-]3)n1)C2 (tautomer)
c1ccc2c(c1)CCN(c1nc(N3CC[NH2+]CC3)[nH]/c(=[NH+]/CCc3cnc[n-]3)n1)C2 (cis-trans isomerization)
c1ccc2c(c1)CCN(c1nc(N3CC[NH2+]CC3)[nH]/c(=[NH+]/CCc3cnc[n-]3)n1)C2 (3D coordinates assigned)
c1ccc2c(c1)CCN(c1nc(N3CC[NH2+]CC3)[nH]/c(=[NH+]/CCc3cnc[n-]3)n1)C2 (nonaromatic ring conformer: 93.28672045137301 kcal/mol)

>  <smiles>  (4) 
c1ccc2c(c1)CCN(c1nc(NCCc3cnc[nH]3)nc(N3CCNCC3)n1)C2

>  <score_type>  (4) 
oracle

>  <origin>  (4) 
autodockgpu

>  <m_score__min__energy>  (4) 
-7.5700000000000003

>  <m_primary>  (4) 
energy

>  <meeko>  (4) 
{"free_energy": -7.57, "intermolecular_energy": -9.36, "internal_energy": -1.1, "cluster_size": 6, "cluster_id": 1, "rank_in_cluster": 1}

>  <energy>  (4) 
-6.32

>  <cluster_rmsd>  (4) 
1.96

>  <rmsd>  (4) 
272.39

>  <cluster>  (4) 
1

$$$$
IEUOTYZOLCKWKV-RTROOMJONA-P
     RDKit          3D

 58 62  0  0  0  0  0  0  0  0999 V2000
  138.8688   81.9802  220.3611 H   0  0  0  0  0  0  0  0  0  0  0  0
  139.7780   81.9080  220.9760 C   0  0  0  0  0  0  0  0  0  0  0  0
  140.9620   82.4410  220.6070 N   0  0  0  0  0  0  0  0  0  0  0  0
  141.7900   82.1360  221.6220 C   0  0  0  0  0  0  0  0  0  0  0  0
  142.8560   82.4010  221.6811 H   0  0  0  0  0  0  0  0  0  0  0  0
  141.0840   81.4380  222.5740 C   0  0  0  0  0  0  0  0  0  0  0  0
  141.6440   80.8550  223.8330 C   0  0  0  0  0  0  0  0  0  0  0  0
  141.0937   81.2597  224.6952 H   0  0  0  0  0  0  0  0  0  0  0  0
  142.7093   81.1199  223.9042 H   0  0  0  0  0  0  0  0  0  0  0  0
  141.5130   79.3280  223.8230 C   0  0  0  0  0  0  0  0  0  0  0  0
  141.0832   78.9972  224.7800 H   0  0  0  0  0  0  0  0  0  0  0  0
  142.5119   78.8906  223.6787 H   0  0  0  0  0  0  0  0  0  0  0  0
  140.6440   78.8840  222.7270 N   0  0  0  0  0  0  0  0  0  0  0  0
  139.6070   78.9450  222.8540 H   0  0  0  0  0  0  0  0  0  0  0  0
  141.1180   78.4190  221.6030 C   0  0  0  0  0  0  0  0  0  0  0  0
  141.4680   77.1100  221.4930 N   0  0  0  0  0  0  0  0  0  0  0  0
  141.9680   76.6160  220.3310 C   0  0  0  0  0  0  0  0  0  0  0  0
  142.3410   75.2250  220.2330 N   0  0  0  0  0  0  0  0  0  0  0  0
  143.7690   74.8910  220.0660 C   0  0  0  0  0  0  0  0  0  0  0  0
  144.1425   75.4027  219.1667 H   0  0  0  0  0  0  0  0  0  0  0  0
  144.2850   75.2192  220.9803 H   0  0  0  0  0  0  0  0  0  0  0  0
  144.0330   73.4110  219.9170 C   0  0  0  0  0  0  0  0  0  0  0  0
  145.2880   72.9790  219.4590 C   0  0  0  0  0  0  0  0  0  0  0  0
  146.0522   73.7192  219.1796 H   0  0  0  0  0  0  0  0  0  0  0  0
  145.5720   71.6160  219.3560 C   0  0  0  0  0  0  0  0  0  0  0  0
  146.5537   71.2864  218.9851 H   0  0  0  0  0  0  0  0  0  0  0  0
  144.6120   70.6700  219.7230 C   0  0  0  0  0  0  0  0  0  0  0  0
  144.8386   69.5965  219.6435 H   0  0  0  0  0  0  0  0  0  0  0  0
  143.3640   71.0880  220.1910 C   0  0  0  0  0  0  0  0  0  0  0  0
  142.6130   70.3417  220.4895 H   0  0  0  0  0  0  0  0  0  0  0  0
  143.0640   72.4570  220.2820 C   0  0  0  0  0  0  0  0  0  0  0  0
  141.7390   72.9070  220.8180 C   0  0  0  0  0  0  0  0  0  0  0  0
  140.9892   72.1218  220.6413 H   0  0  0  0  0  0  0  0  0  0  0  0
  141.8329   73.0982  221.8972 H   0  0  0  0  0  0  0  0  0  0  0  0
  141.3000   74.1910  220.1190 C   0  0  0  0  0  0  0  0  0  0  0  0
  141.1162   73.9789  219.0554 H   0  0  0  0  0  0  0  0  0  0  0  0
  140.3808   74.5590  220.5981 H   0  0  0  0  0  0  0  0  0  0  0  0
  142.1170   77.4490  219.2690 N   0  0  0  0  0  0  0  0  0  0  0  0
  141.7720   78.7600  219.3530 C   0  0  0  0  0  0  0  0  0  0  0  0
  141.9370   79.6190  218.2030 N   0  0  0  0  0  0  0  0  0  0  0  0
  141.0480   79.4760  217.0430 C   0  0  0  0  0  0  0  0  0  0  0  0
  140.6786   78.4411  216.9927 H   0  0  0  0  0  0  0  0  0  0  0  0
  140.2013   80.1700  217.1497 H   0  0  0  0  0  0  0  0  0  0  0  0
  141.8110   79.8070  215.7510 C   0  0  0  0  0  0  0  0  0  0  0  0
  142.5331   78.9997  215.5591 H   0  0  0  0  0  0  0  0  0  0  0  0
  141.0600   79.9017  214.9529 H   0  0  0  0  0  0  0  0  0  0  0  0
  142.5500   81.0920  215.8000 N   0  0  0  0  0  0  0  0  0  0  0  0
  143.5390   80.9280  215.4940 H   0  0  0  0  0  0  0  0  0  0  0  0
  142.1240   81.7590  215.1150 H   0  0  0  0  0  0  0  0  0  0  0  0
  142.5730   81.7460  217.1200 C   0  0  0  0  0  0  0  0  0  0  0  0
  143.3477   82.5269  217.1181 H   0  0  0  0  0  0  0  0  0  0  0  0
  141.5793   82.1791  217.3069 H   0  0  0  0  0  0  0  0  0  0  0  0
  142.8780   80.7460  218.2390 C   0  0  0  0  0  0  0  0  0  0  0  0
  143.9021   80.3648  218.1126 H   0  0  0  0  0  0  0  0  0  0  0  0
  142.7767   81.2587  219.2069 H   0  0  0  0  0  0  0  0  0  0  0  0
  141.2730   79.2450  220.5280 N   0  0  0  0  0  0  0  0  0  0  0  0
  141.0210   80.2540  220.6160 H   0  0  0  0  0  0  0  0  0  0  0  0
  139.8130   81.2790  222.1680 N   0  0  0  0  0  0  0  0  0  0  0  0
  1  2  1  0
  2  3  2  0
  3  4  1  0
  4  5  1  0
  4  6  2  0
  6  7  1  0
  7  8  1  0
  7  9  1  0
  7 10  1  0
 10 11  1  0
 10 12  1  0
 10 13  1  0
 13 14  1  0
 13 15  2  0
 15 16  1  0
 16 17  2  0
 17 18  1  0
 18 19  1  0
 19 20  1  0
 19 21  1  0
 19 22  1  0
 22 23  2  0
 23 24  1  0
 23 25  1  0
 25 26  1  0
 25 27  2  0
 27 28  1  0
 27 29  1  0
 29 30  1  0
 29 31  2  0
 31 32  1  0
 32 33  1  0
 32 34  1  0
 32 35  1  0
 35 36  1  0
 35 37  1  0
 17 38  1  0
 38 39  2  0
 39 40  1  0
 40 41  1  0
 41 42  1  0
 41 43  1  0
 41 44  1  0
 44 45  1  0
 44 46  1  0
 44 47  1  0
 47 48  1  0
 47 49  1  0
 47 50  1  0
 50 51  1  0
 50 52  1  0
 50 53  1  0
 53 54  1  0
 53 55  1  0
 39 56  1  0
 56 57  1  0
  6 58  1  0
 58  2  1  0
 56 15  1  0
 35 18  1  0
 53 40  1  0
 31 22  1  0
M  CHG  3  13   1  47   1  58  -1
M  END
>  <UniqueID>  (5) 
534

>  <SMILES>  (5) 
c1ccc2c(c1)CCN(c1nc(N3CC[NH2+]CC3)[nH]/c(=[NH+]/CCc3cnc[n-]3)n1)C2

>  <Energy>  (5) 
93.28672045137301

>  <Genealogy>  (5) 
c1ccc2c(c1)CCN(c1nc([NH2+]CCc3cnc[n-]3)nc(N3CC[NH2+]CC3)n1)C2 (protonated)
c1ccc2c(c1)CCN(c1nc(N3CC[NH2+]CC3)[nH]c(=[NH+]CCc3cnc[n-]3)n1)C2 (tautomer)
c1ccc2c(c1)CCN(c1nc(N3CC[NH2+]CC3)[nH]/c(=[NH+]/CCc3cnc[n-]3)n1)C2 (cis-trans isomerization)
c1ccc2c(c1)CCN(c1nc(N3CC[NH2+]CC3)[nH]/c(=[NH+]/CCc3cnc[n-]3)n1)C2 (3D coordinates assigned)
c1ccc2c(c1)CCN(c1nc(N3CC[NH2+]CC3)[nH]/c(=[NH+]/CCc3cnc[n-]3)n1)C2 (nonaromatic ring conformer: 93.28672045137301 kcal/mol)

>  <smiles>  (5) 
c1ccc2c(c1)CCN(c1nc(NCCc3cnc[nH]3)nc(N3CCNCC3)n1)C2

>  <score_type>  (5) 
oracle

>  <origin>  (5) 
autodockgpu

>  <m_score__min__energy>  (5) 
-7.5700000000000003

>  <m_primary>  (5) 
energy

>  <meeko>  (5) 
{"free_energy": -6.39, "intermolecular_energy": -8.18, "internal_energy": -2.75, "cluster_size": 5, "cluster_id": 4, "rank_in_cluster": 4}

>  <energy>  (5) 
-6.31

>  <cluster_rmsd>  (5) 
1.96

>  <rmsd>  (5) 
272.4

>  <cluster>  (5) 
1

$$$$
IEUOTYZOLCKWKV-RTROOMJONA-P
     RDKit          3D

 58 62  0  0  0  0  0  0  0  0999 V2000
  145.2983   71.3205  216.6475 H   0  0  0  0  0  0  0  0  0  0  0  0
  145.5540   71.5180  217.6990 C   0  0  0  0  0  0  0  0  0  0  0  0
  145.9490   70.5530  218.5560 N   0  0  0  0  0  0  0  0  0  0  0  0
  146.1610   71.2060  219.7110 C   0  0  0  0  0  0  0  0  0  0  0  0
  146.4910   70.7471  220.6547 H   0  0  0  0  0  0  0  0  0  0  0  0
  145.8980   72.5410  219.5200 C   0  0  0  0  0  0  0  0  0  0  0  0
  145.9490   73.6090  220.5680 C   0  0  0  0  0  0  0  0  0  0  0  0
  146.8517   74.2196  220.4188 H   0  0  0  0  0  0  0  0  0  0  0  0
  145.9723   73.1334  221.5596 H   0  0  0  0  0  0  0  0  0  0  0  0
  144.7120   74.5080  220.4790 C   0  0  0  0  0  0  0  0  0  0  0  0
  144.8772   75.2720  219.7050 H   0  0  0  0  0  0  0  0  0  0  0  0
  144.5509   74.9815  221.4587 H   0  0  0  0  0  0  0  0  0  0  0  0
  143.5190   73.7260  220.1350 N   0  0  0  0  0  0  0  0  0  0  0  0
  143.5520   73.1050  219.2930 H   0  0  0  0  0  0  0  0  0  0  0  0
  142.4220   73.7770  220.8410 C   0  0  0  0  0  0  0  0  0  0  0  0
  142.0080   72.6930  221.5500 N   0  0  0  0  0  0  0  0  0  0  0  0
  140.8670   72.7330  222.2840 C   0  0  0  0  0  0  0  0  0  0  0  0
  140.4380   71.5710  223.0250 N   0  0  0  0  0  0  0  0  0  0  0  0
  140.7150   71.5210  224.4740 C   0  0  0  0  0  0  0  0  0  0  0  0
  141.7988   71.6343  224.6243 H   0  0  0  0  0  0  0  0  0  0  0  0
  140.1388   72.3344  224.9391 H   0  0  0  0  0  0  0  0  0  0  0  0
  140.2740   70.2350  225.1340 C   0  0  0  0  0  0  0  0  0  0  0  0
  140.7360   69.9300  226.4240 C   0  0  0  0  0  0  0  0  0  0  0  0
  141.4404   70.6087  226.9271 H   0  0  0  0  0  0  0  0  0  0  0  0
  140.3070   68.7710  227.0720 C   0  0  0  0  0  0  0  0  0  0  0  0
  140.6822   68.5340  228.0785 H   0  0  0  0  0  0  0  0  0  0  0  0
  139.4020   67.9110  226.4450 C   0  0  0  0  0  0  0  0  0  0  0  0
  139.0642   66.9986  226.9583 H   0  0  0  0  0  0  0  0  0  0  0  0
  138.9260   68.2100  225.1660 C   0  0  0  0  0  0  0  0  0  0  0  0
  138.2037   67.5381  224.6794 H   0  0  0  0  0  0  0  0  0  0  0  0
  139.3660   69.3650  224.4990 C   0  0  0  0  0  0  0  0  0  0  0  0
  138.8300   69.7060  223.1420 C   0  0  0  0  0  0  0  0  0  0  0  0
  138.5150   68.7833  222.6328 H   0  0  0  0  0  0  0  0  0  0  0  0
  137.9707   70.3836  223.2540 H   0  0  0  0  0  0  0  0  0  0  0  0
  139.9070   70.3980  222.3120 C   0  0  0  0  0  0  0  0  0  0  0  0
  140.7267   69.6897  222.1209 H   0  0  0  0  0  0  0  0  0  0  0  0
  139.4627   70.7317  221.3627 H   0  0  0  0  0  0  0  0  0  0  0  0
  140.1350   73.8760  222.3050 N   0  0  0  0  0  0  0  0  0  0  0  0
  140.5290   74.9740  221.6080 C   0  0  0  0  0  0  0  0  0  0  0  0
  139.7310   76.1770  221.6580 N   0  0  0  0  0  0  0  0  0  0  0  0
  138.3140   76.1080  222.0380 C   0  0  0  0  0  0  0  0  0  0  0  0
  137.9162   75.1150  221.7818 H   0  0  0  0  0  0  0  0  0  0  0  0
  138.2221   76.2791  223.1207 H   0  0  0  0  0  0  0  0  0  0  0  0
  137.5150   77.1850  221.2880 C   0  0  0  0  0  0  0  0  0  0  0  0
  137.4587   76.8981  220.2275 H   0  0  0  0  0  0  0  0  0  0  0  0
  136.5256   77.2376  221.7659 H   0  0  0  0  0  0  0  0  0  0  0  0
  138.1050   78.5430  221.3730 N   0  0  0  0  0  0  0  0  0  0  0  0
  138.1790   78.9420  220.4070 H   0  0  0  0  0  0  0  0  0  0  0  0
  137.4580   79.1640  221.9130 H   0  0  0  0  0  0  0  0  0  0  0  0
  139.4330   78.6050  222.0070 C   0  0  0  0  0  0  0  0  0  0  0  0
  139.8891   79.5812  221.7855 H   0  0  0  0  0  0  0  0  0  0  0  0
  139.3034   78.4687  223.0908 H   0  0  0  0  0  0  0  0  0  0  0  0
  140.3560   77.4970  221.4920 C   0  0  0  0  0  0  0  0  0  0  0  0
  140.5623   77.6666  220.4249 H   0  0  0  0  0  0  0  0  0  0  0  0
  141.2908   77.5196  222.0713 H   0  0  0  0  0  0  0  0  0  0  0  0
  141.6770   74.9200  220.8720 N   0  0  0  0  0  0  0  0  0  0  0  0
  141.9840   75.7470  220.3150 H   0  0  0  0  0  0  0  0  0  0  0  0
  145.5020   72.7470  218.2520 N   0  0  0  0  0  0  0  0  0  0  0  0
  1  2  1  0
  2  3  2  0
  3  4  1  0
  4  5  1  0
  4  6  2  0
  6  7  1  0
  7  8  1  0
  7  9  1  0
  7 10  1  0
 10 11  1  0
 10 12  1  0
 10 13  1  0
 13 14  1  0
 13 15  2  0
 15 16  1  0
 16 17  2  0
 17 18  1  0
 18 19  1  0
 19 20  1  0
 19 21  1  0
 19 22  1  0
 22 23  2  0
 23 24  1  0
 23 25  1  0
 25 26  1  0
 25 27  2  0
 27 28  1  0
 27 29  1  0
 29 30  1  0
 29 31  2  0
 31 32  1  0
 32 33  1  0
 32 34  1  0
 32 35  1  0
 35 36  1  0
 35 37  1  0
 17 38  1  0
 38 39  2  0
 39 40  1  0
 40 41  1  0
 41 42  1  0
 41 43  1  0
 41 44  1  0
 44 45  1  0
 44 46  1  0
 44 47  1  0
 47 48  1  0
 47 49  1  0
 47 50  1  0
 50 51  1  0
 50 52  1  0
 50 53  1  0
 53 54  1  0
 53 55  1  0
 39 56  1  0
 56 57  1  0
  6 58  1  0
 58  2  1  0
 56 15  1  0
 35 18  1  0
 53 40  1  0
 31 22  1  0
M  CHG  3  13   1  47   1  58  -1
M  END
>  <UniqueID>  (6) 
534

>  <SMILES>  (6) 
c1ccc2c(c1)CCN(c1nc(N3CC[NH2+]CC3)[nH]/c(=[NH+]/CCc3cnc[n-]3)n1)C2

>  <Energy>  (6) 
93.28672045137301

>  <Genealogy>  (6) 
c1ccc2c(c1)CCN(c1nc([NH2+]CCc3cnc[n-]3)nc(N3CC[NH2+]CC3)n1)C2 (protonated)
c1ccc2c(c1)CCN(c1nc(N3CC[NH2+]CC3)[nH]c(=[NH+]CCc3cnc[n-]3)n1)C2 (tautomer)
c1ccc2c(c1)CCN(c1nc(N3CC[NH2+]CC3)[nH]/c(=[NH+]/CCc3cnc[n-]3)n1)C2 (cis-trans isomerization)
c1ccc2c(c1)CCN(c1nc(N3CC[NH2+]CC3)[nH]/c(=[NH+]/CCc3cnc[n-]3)n1)C2 (3D coordinates assigned)
c1ccc2c(c1)CCN(c1nc(N3CC[NH2+]CC3)[nH]/c(=[NH+]/CCc3cnc[n-]3)n1)C2 (nonaromatic ring conformer: 93.28672045137301 kcal/mol)

>  <smiles>  (6) 
c1ccc2c(c1)CCN(c1nc(NCCc3cnc[nH]3)nc(N3CCNCC3)n1)C2

>  <score_type>  (6) 
oracle

>  <origin>  (6) 
autodockgpu

>  <m_score__min__energy>  (6) 
-7.5700000000000003

>  <m_primary>  (6) 
energy

>  <meeko>  (6) 
{"free_energy": -7.54, "intermolecular_energy": -9.33, "internal_energy": -1.12, "cluster_size": 6, "cluster_id": 1, "rank_in_cluster": 2}

>  <energy>  (6) 
-6.3

>  <cluster_rmsd>  (6) 
1.96

>  <rmsd>  (6) 
272.39

>  <cluster>  (6) 
1

$$$$
IEUOTYZOLCKWKV-RTROOMJONA-P
     RDKit          3D

 58 62  0  0  0  0  0  0  0  0999 V2000
  145.6638   70.2173  218.7953 H   0  0  0  0  0  0  0  0  0  0  0  0
  145.5590   71.3040  218.9300 C   0  0  0  0  0  0  0  0  0  0  0  0
  146.3250   72.0190  219.7810 N   0  0  0  0  0  0  0  0  0  0  0  0
  145.8820   73.2810  219.6410 C   0  0  0  0  0  0  0  0  0  0  0  0
  146.2642   74.1581  220.1837 H   0  0  0  0  0  0  0  0  0  0  0  0
  144.8730   73.2940  218.7080 C   0  0  0  0  0  0  0  0  0  0  0  0
  144.0630   74.4860  218.3020 C   0  0  0  0  0  0  0  0  0  0  0  0
  144.2164   74.6795  217.2301 H   0  0  0  0  0  0  0  0  0  0  0  0
  144.3868   75.3541  218.8949 H   0  0  0  0  0  0  0  0  0  0  0  0
  142.5740   74.2380  218.5610 C   0  0  0  0  0  0  0  0  0  0  0  0
  142.0967   73.9055  217.6274 H   0  0  0  0  0  0  0  0  0  0  0  0
  142.1181   75.1750  218.9135 H   0  0  0  0  0  0  0  0  0  0  0  0
  142.3850   73.2090  219.5900 N   0  0  0  0  0  0  0  0  0  0  0  0
  142.9200   72.3140  219.5070 H   0  0  0  0  0  0  0  0  0  0  0  0
  141.5760   73.3740  220.6010 C   0  0  0  0  0  0  0  0  0  0  0  0
  141.3240   72.3460  221.4550 N   0  0  0  0  0  0  0  0  0  0  0  0
  140.4810   72.5040  222.5080 C   0  0  0  0  0  0  0  0  0  0  0  0
  140.2190   71.4000  223.4000 N   0  0  0  0  0  0  0  0  0  0  0  0
  140.6940   71.4970  224.7950 C   0  0  0  0  0  0  0  0  0  0  0  0
  141.7808   71.6664  224.7805 H   0  0  0  0  0  0  0  0  0  0  0  0
  140.1453   72.3272  225.2638 H   0  0  0  0  0  0  0  0  0  0  0  0
  140.4150   70.2630  225.6200 C   0  0  0  0  0  0  0  0  0  0  0  0
  141.0640   70.0990  226.8540 C   0  0  0  0  0  0  0  0  0  0  0  0
  141.7936   70.8496  227.1919 H   0  0  0  0  0  0  0  0  0  0  0  0
  140.7890   68.9890  227.6550 C   0  0  0  0  0  0  0  0  0  0  0  0
  141.3106   68.8619  228.6151 H   0  0  0  0  0  0  0  0  0  0  0  0
  139.8520   68.0390  227.2390 C   0  0  0  0  0  0  0  0  0  0  0  0
  139.6347   67.1664  227.8725 H   0  0  0  0  0  0  0  0  0  0  0  0
  139.1920   68.1980  226.0190 C   0  0  0  0  0  0  0  0  0  0  0  0
  138.4468   67.4549  225.6987 H   0  0  0  0  0  0  0  0  0  0  0  0
  139.4750   69.3020  225.1990 C   0  0  0  0  0  0  0  0  0  0  0  0
  138.7410   69.4920  223.9060 C   0  0  0  0  0  0  0  0  0  0  0  0
  138.4081   68.5136  223.5293 H   0  0  0  0  0  0  0  0  0  0  0  0
  137.8706   70.1423  224.0779 H   0  0  0  0  0  0  0  0  0  0  0  0
  139.6570   70.1450  222.8750 C   0  0  0  0  0  0  0  0  0  0  0  0
  140.4785   69.4547  222.6331 H   0  0  0  0  0  0  0  0  0  0  0  0
  139.0700   70.3704  221.9724 H   0  0  0  0  0  0  0  0  0  0  0  0
  139.8860   73.7080  222.7030 N   0  0  0  0  0  0  0  0  0  0  0  0
  140.1240   74.7510  221.8660 C   0  0  0  0  0  0  0  0  0  0  0  0
  139.4800   76.0230  222.1060 N   0  0  0  0  0  0  0  0  0  0  0  0
  138.0940   76.0680  222.5860 C   0  0  0  0  0  0  0  0  0  0  0  0
  137.5652   75.1612  222.2573 H   0  0  0  0  0  0  0  0  0  0  0  0
  138.0943   76.1226  223.6846 H   0  0  0  0  0  0  0  0  0  0  0  0
  137.3810   77.3060  222.0200 C   0  0  0  0  0  0  0  0  0  0  0  0
  137.2215   77.1511  220.9427 H   0  0  0  0  0  0  0  0  0  0  0  0
  136.4382   77.4127  222.5765 H   0  0  0  0  0  0  0  0  0  0  0  0
  138.1330   78.5710  222.2030 N   0  0  0  0  0  0  0  0  0  0  0  0
  138.1910   79.0680  221.2830 H   0  0  0  0  0  0  0  0  0  0  0  0
  137.6020   79.1950  222.8550 H   0  0  0  0  0  0  0  0  0  0  0  0
  139.4980   78.4120  222.7340 C   0  0  0  0  0  0  0  0  0  0  0  0
  140.0518   79.3502  222.5821 H   0  0  0  0  0  0  0  0  0  0  0  0
  139.4249   78.1682  223.8041 H   0  0  0  0  0  0  0  0  0  0  0  0
  140.2460   77.2740  222.0330 C   0  0  0  0  0  0  0  0  0  0  0  0
  140.4008   77.5409  220.9772 H   0  0  0  0  0  0  0  0  0  0  0  0
  141.2127   77.1251  222.5363 H   0  0  0  0  0  0  0  0  0  0  0  0
  140.9720   74.5790  220.8100 N   0  0  0  0  0  0  0  0  0  0  0  0
  141.1520   75.3640  220.1460 H   0  0  0  0  0  0  0  0  0  0  0  0
  144.6530   72.0460  218.2600 N   0  0  0  0  0  0  0  0  0  0  0  0
  1  2  1  0
  2  3  2  0
  3  4  1  0
  4  5  1  0
  4  6  2  0
  6  7  1  0
  7  8  1  0
  7  9  1  0
  7 10  1  0
 10 11  1  0
 10 12  1  0
 10 13  1  0
 13 14  1  0
 13 15  2  0
 15 16  1  0
 16 17  2  0
 17 18  1  0
 18 19  1  0
 19 20  1  0
 19 21  1  0
 19 22  1  0
 22 23  2  0
 23 24  1  0
 23 25  1  0
 25 26  1  0
 25 27  2  0
 27 28  1  0
 27 29  1  0
 29 30  1  0
 29 31  2  0
 31 32  1  0
 32 33  1  0
 32 34  1  0
 32 35  1  0
 35 36  1  0
 35 37  1  0
 17 38  1  0
 38 39  2  0
 39 40  1  0
 40 41  1  0
 41 42  1  0
 41 43  1  0
 41 44  1  0
 44 45  1  0
 44 46  1  0
 44 47  1  0
 47 48  1  0
 47 49  1  0
 47 50  1  0
 50 51  1  0
 50 52  1  0
 50 53  1  0
 53 54  1  0
 53 55  1  0
 39 56  1  0
 56 57  1  0
  6 58  1  0
 58  2  1  0
 56 15  1  0
 35 18  1  0
 53 40  1  0
 31 22  1  0
M  CHG  3  13   1  47   1  58  -1
M  END
>  <UniqueID>  (7) 
534

>  <SMILES>  (7) 
c1ccc2c(c1)CCN(c1nc(N3CC[NH2+]CC3)[nH]/c(=[NH+]/CCc3cnc[n-]3)n1)C2

>  <Energy>  (7) 
93.28672045137301

>  <Genealogy>  (7) 
c1ccc2c(c1)CCN(c1nc([NH2+]CCc3cnc[n-]3)nc(N3CC[NH2+]CC3)n1)C2 (protonated)
c1ccc2c(c1)CCN(c1nc(N3CC[NH2+]CC3)[nH]c(=[NH+]CCc3cnc[n-]3)n1)C2 (tautomer)
c1ccc2c(c1)CCN(c1nc(N3CC[NH2+]CC3)[nH]/c(=[NH+]/CCc3cnc[n-]3)n1)C2 (cis-trans isomerization)
c1ccc2c(c1)CCN(c1nc(N3CC[NH2+]CC3)[nH]/c(=[NH+]/CCc3cnc[n-]3)n1)C2 (3D coordinates assigned)
c1ccc2c(c1)CCN(c1nc(N3CC[NH2+]CC3)[nH]/c(=[NH+]/CCc3cnc[n-]3)n1)C2 (nonaromatic ring conformer: 93.28672045137301 kcal/mol)

>  <smiles>  (7) 
c1ccc2c(c1)CCN(c1nc(NCCc3cnc[nH]3)nc(N3CCNCC3)n1)C2

>  <score_type>  (7) 
oracle

>  <origin>  (7) 
autodockgpu

>  <m_score__min__energy>  (7) 
-7.5700000000000003

>  <m_primary>  (7) 
energy

>  <meeko>  (7) 
{"free_energy": -7.11, "intermolecular_energy": -8.9, "internal_energy": -1.2, "cluster_size": 6, "cluster_id": 1, "rank_in_cluster": 3}

>  <energy>  (7) 
-7.48

>  <cluster_rmsd>  (7) 
0.0

>  <rmsd>  (7) 
272.33

>  <cluster>  (7) 
2

$$$$
IEUOTYZOLCKWKV-RTROOMJONA-P
     RDKit          3D

 58 62  0  0  0  0  0  0  0  0999 V2000
  138.8444   81.9785  220.4278 H   0  0  0  0  0  0  0  0  0  0  0  0
  139.7670   81.8890  221.0200 C   0  0  0  0  0  0  0  0  0  0  0  0
  140.9470   82.4160  220.6310 N   0  0  0  0  0  0  0  0  0  0  0  0
  141.7960   82.0880  221.6200 C   0  0  0  0  0  0  0  0  0  0  0  0
  142.8657   82.3417  221.6564 H   0  0  0  0  0  0  0  0  0  0  0  0
  141.1070   81.3830  222.5790 C   0  0  0  0  0  0  0  0  0  0  0  0
  141.6910   80.7760  223.8160 C   0  0  0  0  0  0  0  0  0  0  0  0
  141.2111   81.2224  224.6994 H   0  0  0  0  0  0  0  0  0  0  0  0
  142.7731   80.9729  223.8319 H   0  0  0  0  0  0  0  0  0  0  0  0
  141.4630   79.2610  223.8300 C   0  0  0  0  0  0  0  0  0  0  0  0
  140.9805   78.9782  224.7772 H   0  0  0  0  0  0  0  0  0  0  0  0
  142.4362   78.7582  223.7294 H   0  0  0  0  0  0  0  0  0  0  0  0
  140.6050   78.8500  222.7120 N   0  0  0  0  0  0  0  0  0  0  0  0
  139.5680   78.9340  222.8200 H   0  0  0  0  0  0  0  0  0  0  0  0
  141.0900   78.3860  221.5930 C   0  0  0  0  0  0  0  0  0  0  0  0
  141.4430   77.0770  221.4860 N   0  0  0  0  0  0  0  0  0  0  0  0
  141.9540   76.5840  220.3290 C   0  0  0  0  0  0  0  0  0  0  0  0
  142.3290   75.1930  220.2340 N   0  0  0  0  0  0  0  0  0  0  0  0
  143.7550   74.8620  220.0470 C   0  0  0  0  0  0  0  0  0  0  0  0
  144.1127   75.3686  219.1385 H   0  0  0  0  0  0  0  0  0  0  0  0
  144.2839   75.1978  220.9512 H   0  0  0  0  0  0  0  0  0  0  0  0
  144.0220   73.3820  219.9040 C   0  0  0  0  0  0  0  0  0  0  0  0
  145.2710   72.9510  219.4290 C   0  0  0  0  0  0  0  0  0  0  0  0
  146.0284   73.6917  219.1329 H   0  0  0  0  0  0  0  0  0  0  0  0
  145.5580   71.5870  219.3300 C   0  0  0  0  0  0  0  0  0  0  0  0
  146.5344   71.2573  218.9454 H   0  0  0  0  0  0  0  0  0  0  0  0
  144.6060   70.6420  219.7190 C   0  0  0  0  0  0  0  0  0  0  0  0
  144.8345   69.5687  219.6431 H   0  0  0  0  0  0  0  0  0  0  0  0
  143.3650   71.0580  220.2040 C   0  0  0  0  0  0  0  0  0  0  0  0
  142.6220   70.3110  220.5202 H   0  0  0  0  0  0  0  0  0  0  0  0
  143.0610   72.4270  220.2900 C   0  0  0  0  0  0  0  0  0  0  0  0
  141.7440   72.8770  220.8440 C   0  0  0  0  0  0  0  0  0  0  0  0
  140.9937   72.0886  220.6846 H   0  0  0  0  0  0  0  0  0  0  0  0
  141.8550   73.0758  221.9202 H   0  0  0  0  0  0  0  0  0  0  0  0
  141.2900   74.1550  220.1440 C   0  0  0  0  0  0  0  0  0  0  0  0
  141.0896   73.9352  219.0850 H   0  0  0  0  0  0  0  0  0  0  0  0
  140.3777   74.5234  220.6360 H   0  0  0  0  0  0  0  0  0  0  0  0
  142.1110   77.4160  219.2680 N   0  0  0  0  0  0  0  0  0  0  0  0
  141.7640   78.7280  219.3490 C   0  0  0  0  0  0  0  0  0  0  0  0
  141.9380   79.5860  218.2000 N   0  0  0  0  0  0  0  0  0  0  0  0
  141.0650   79.4360  217.0290 C   0  0  0  0  0  0  0  0  0  0  0  0
  140.7037   78.3985  216.9745 H   0  0  0  0  0  0  0  0  0  0  0  0
  140.2117   80.1236  217.1243 H   0  0  0  0  0  0  0  0  0  0  0  0
  141.8430   79.7720  215.7470 C   0  0  0  0  0  0  0  0  0  0  0  0
  142.5729   78.9694  215.5649 H   0  0  0  0  0  0  0  0  0  0  0  0
  141.1018   79.8617  214.9392 H   0  0  0  0  0  0  0  0  0  0  0  0
  142.5730   81.0620  215.8050 N   0  0  0  0  0  0  0  0  0  0  0  0
  143.5660   80.9040  215.5120 H   0  0  0  0  0  0  0  0  0  0  0  0
  142.1510   81.7250  215.1130 H   0  0  0  0  0  0  0  0  0  0  0  0
  142.5740   81.7170  217.1240 C   0  0  0  0  0  0  0  0  0  0  0  0
  143.3433   82.5032  217.1316 H   0  0  0  0  0  0  0  0  0  0  0  0
  141.5750   82.1435  217.2973 H   0  0  0  0  0  0  0  0  0  0  0  0
  142.8710   80.7200  218.2480 C   0  0  0  0  0  0  0  0  0  0  0  0
  143.8993   80.3459  218.1357 H   0  0  0  0  0  0  0  0  0  0  0  0
  142.7532   81.2327  219.2141 H   0  0  0  0  0  0  0  0  0  0  0  0
  141.2530   79.2110  220.5190 N   0  0  0  0  0  0  0  0  0  0  0  0
  140.9990   80.2200  220.6050 H   0  0  0  0  0  0  0  0  0  0  0  0
  139.8240   81.2420  222.2030 N   0  0  0  0  0  0  0  0  0  0  0  0
  1  2  1  0
  2  3  2  0
  3  4  1  0
  4  5  1  0
  4  6  2  0
  6  7  1  0
  7  8  1  0
  7  9  1  0
  7 10  1  0
 10 11  1  0
 10 12  1  0
 10 13  1  0
 13 14  1  0
 13 15  2  0
 15 16  1  0
 16 17  2  0
 17 18  1  0
 18 19  1  0
 19 20  1  0
 19 21  1  0
 19 22  1  0
 22 23  2  0
 23 24  1  0
 23 25  1  0
 25 26  1  0
 25 27  2  0
 27 28  1  0
 27 29  1  0
 29 30  1  0
 29 31  2  0
 31 32  1  0
 32 33  1  0
 32 34  1  0
 32 35  1  0
 35 36  1  0
 35 37  1  0
 17 38  1  0
 38 39  2  0
 39 40  1  0
 40 41  1  0
 41 42  1  0
 41 43  1  0
 41 44  1  0
 44 45  1  0
 44 46  1  0
 44 47  1  0
 47 48  1  0
 47 49  1  0
 47 50  1  0
 50 51  1  0
 50 52  1  0
 50 53  1  0
 53 54  1  0
 53 55  1  0
 39 56  1  0
 56 57  1  0
  6 58  1  0
 58  2  1  0
 56 15  1  0
 35 18  1  0
 53 40  1  0
 31 22  1  0
M  CHG  3  13   1  47   1  58  -1
M  END
>  <UniqueID>  (8) 
534

>  <SMILES>  (8) 
c1ccc2c(c1)CCN(c1nc(N3CC[NH2+]CC3)[nH]/c(=[NH+]/CCc3cnc[n-]3)n1)C2

>  <Energy>  (8) 
93.28672045137301

>  <Genealogy>  (8) 
c1ccc2c(c1)CCN(c1nc([NH2+]CCc3cnc[n-]3)nc(N3CC[NH2+]CC3)n1)C2 (protonated)
c1ccc2c(c1)CCN(c1nc(N3CC[NH2+]CC3)[nH]c(=[NH+]CCc3cnc[n-]3)n1)C2 (tautomer)
c1ccc2c(c1)CCN(c1nc(N3CC[NH2+]CC3)[nH]/c(=[NH+]/CCc3cnc[n-]3)n1)C2 (cis-trans isomerization)
c1ccc2c(c1)CCN(c1nc(N3CC[NH2+]CC3)[nH]/c(=[NH+]/CCc3cnc[n-]3)n1)C2 (3D coordinates assigned)
c1ccc2c(c1)CCN(c1nc(N3CC[NH2+]CC3)[nH]/c(=[NH+]/CCc3cnc[n-]3)n1)C2 (nonaromatic ring conformer: 93.28672045137301 kcal/mol)

>  <smiles>  (8) 
c1ccc2c(c1)CCN(c1nc(NCCc3cnc[nH]3)nc(N3CCNCC3)n1)C2

>  <score_type>  (8) 
oracle

>  <origin>  (8) 
autodockgpu

>  <m_score__min__energy>  (8) 
-7.5700000000000003

>  <m_primary>  (8) 
energy

>  <meeko>  (8) 
{"free_energy": -6.43, "intermolecular_energy": -8.22, "internal_energy": -2.75, "cluster_size": 5, "cluster_id": 4, "rank_in_cluster": 2}

>  <energy>  (8) 
-6.8

>  <cluster_rmsd>  (8) 
0.0

>  <rmsd>  (8) 
271.74

>  <cluster>  (8) 
3

$$$$
IEUOTYZOLCKWKV-RTROOMJONA-P
     RDKit          3D

 58 62  0  0  0  0  0  0  0  0999 V2000
  147.2403   74.4137  216.6595 H   0  0  0  0  0  0  0  0  0  0  0  0
  146.4320   73.7050  216.8930 C   0  0  0  0  0  0  0  0  0  0  0  0
  145.4980   73.3290  215.9940 N   0  0  0  0  0  0  0  0  0  0  0  0
  144.7180   72.4690  216.6710 C   0  0  0  0  0  0  0  0  0  0  0  0
  143.8355   71.9511  216.2674 H   0  0  0  0  0  0  0  0  0  0  0  0
  145.2040   72.3430  217.9500 C   0  0  0  0  0  0  0  0  0  0  0  0
  144.5920   71.5330  219.0500 C   0  0  0  0  0  0  0  0  0  0  0  0
  145.3352   70.8150  219.4269 H   0  0  0  0  0  0  0  0  0  0  0  0
  143.7157   70.9997  218.6529 H   0  0  0  0  0  0  0  0  0  0  0  0
  144.1400   72.4400  220.1990 C   0  0  0  0  0  0  0  0  0  0  0  0
  144.4877   72.0144  221.1519 H   0  0  0  0  0  0  0  0  0  0  0  0
  143.0420   72.5044  220.1848 H   0  0  0  0  0  0  0  0  0  0  0  0
  144.6910   73.7920  220.0470 N   0  0  0  0  0  0  0  0  0  0  0  0
  145.6980   73.9520  220.2840 H   0  0  0  0  0  0  0  0  0  0  0  0
  143.9720   74.7970  219.6270 C   0  0  0  0  0  0  0  0  0  0  0  0
  143.1120   75.4280  220.4710 N   0  0  0  0  0  0  0  0  0  0  0  0
  142.3540   76.4700  220.0440 C   0  0  0  0  0  0  0  0  0  0  0  0
  141.4420   77.1250  220.9510 N   0  0  0  0  0  0  0  0  0  0  0  0
  141.6840   78.5400  221.2910 C   0  0  0  0  0  0  0  0  0  0  0  0
  142.6962   78.6273  221.7127 H   0  0  0  0  0  0  0  0  0  0  0  0
  141.5637   79.1179  220.3628 H   0  0  0  0  0  0  0  0  0  0  0  0
  140.7010   79.1030  222.2910 C   0  0  0  0  0  0  0  0  0  0  0  0
  140.9840   80.3250  222.9210 C   0  0  0  0  0  0  0  0  0  0  0  0
  141.9312   80.8425  222.7091 H   0  0  0  0  0  0  0  0  0  0  0  0
  140.0710   80.8880  223.8150 C   0  0  0  0  0  0  0  0  0  0  0  0
  140.3056   81.8405  224.3128 H   0  0  0  0  0  0  0  0  0  0  0  0
  138.8600   80.2430  224.0780 C   0  0  0  0  0  0  0  0  0  0  0  0
  138.1411   80.6884  224.7815 H   0  0  0  0  0  0  0  0  0  0  0  0
  138.5620   79.0330  223.4480 C   0  0  0  0  0  0  0  0  0  0  0  0
  137.6027   78.5333  223.6479 H   0  0  0  0  0  0  0  0  0  0  0  0
  139.4820   78.4510  222.5600 C   0  0  0  0  0  0  0  0  0  0  0  0
  139.1480   77.1710  221.8560 C   0  0  0  0  0  0  0  0  0  0  0  0
  138.4297   76.5991  222.4618 H   0  0  0  0  0  0  0  0  0  0  0  0
  138.7080   77.4034  220.8750 H   0  0  0  0  0  0  0  0  0  0  0  0
  140.4120   76.3400  221.6530 C   0  0  0  0  0  0  0  0  0  0  0  0
  140.8010   76.0283  222.6336 H   0  0  0  0  0  0  0  0  0  0  0  0
  140.1625   75.4582  221.0446 H   0  0  0  0  0  0  0  0  0  0  0  0
  142.4630   76.8820  218.7550 N   0  0  0  0  0  0  0  0  0  0  0  0
  143.3170   76.2710  217.8940 C   0  0  0  0  0  0  0  0  0  0  0  0
  143.4150   76.7380  216.5300 N   0  0  0  0  0  0  0  0  0  0  0  0
  144.0890   75.9180  215.5160 C   0  0  0  0  0  0  0  0  0  0  0  0
  144.8404   75.2800  216.0042 H   0  0  0  0  0  0  0  0  0  0  0  0
  143.3434   75.2918  215.0043 H   0  0  0  0  0  0  0  0  0  0  0  0
  144.7820   76.8220  214.4840 C   0  0  0  0  0  0  0  0  0  0  0  0
  145.6453   77.3015  214.9685 H   0  0  0  0  0  0  0  0  0  0  0  0
  145.0732   76.1779  213.6412 H   0  0  0  0  0  0  0  0  0  0  0  0
  143.9080   77.8850  213.9300 N   0  0  0  0  0  0  0  0  0  0  0  0
  144.4020   78.8060  214.0070 H   0  0  0  0  0  0  0  0  0  0  0  0
  143.7540   77.7040  212.9100 H   0  0  0  0  0  0  0  0  0  0  0  0
  142.5900   78.0070  214.5770 C   0  0  0  0  0  0  0  0  0  0  0  0
  142.1374   78.9668  214.2873 H   0  0  0  0  0  0  0  0  0  0  0  0
  141.9653   77.1635  214.2480 H   0  0  0  0  0  0  0  0  0  0  0  0
  142.7050   77.9520  216.1030 C   0  0  0  0  0  0  0  0  0  0  0  0
  143.2577   78.8355  216.4550 H   0  0  0  0  0  0  0  0  0  0  0  0
  141.6924   77.9374  216.5324 H   0  0  0  0  0  0  0  0  0  0  0  0
  144.0710   75.2220  218.3350 N   0  0  0  0  0  0  0  0  0  0  0  0
  144.7190   74.7280  217.6810 H   0  0  0  0  0  0  0  0  0  0  0  0
  146.2820   73.1310  218.1040 N   0  0  0  0  0  0  0  0  0  0  0  0
  1  2  1  0
  2  3  2  0
  3  4  1  0
  4  5  1  0
  4  6  2  0
  6  7  1  0
  7  8  1  0
  7  9  1  0
  7 10  1  0
 10 11  1  0
 10 12  1  0
 10 13  1  0
 13 14  1  0
 13 15  2  0
 15 16  1  0
 16 17  2  0
 17 18  1  0
 18 19  1  0
 19 20  1  0
 19 21  1  0
 19 22  1  0
 22 23  2  0
 23 24  1  0
 23 25  1  0
 25 26  1  0
 25 27  2  0
 27 28  1  0
 27 29  1  0
 29 30  1  0
 29 31  2  0
 31 32  1  0
 32 33  1  0
 32 34  1  0
 32 35  1  0
 35 36  1  0
 35 37  1  0
 17 38  1  0
 38 39  2  0
 39 40  1  0
 40 41  1  0
 41 42  1  0
 41 43  1  0
 41 44  1  0
 44 45  1  0
 44 46  1  0
 44 47  1  0
 47 48  1  0
 47 49  1  0
 47 50  1  0
 50 51  1  0
 50 52  1  0
 50 53  1  0
 53 54  1  0
 53 55  1  0
 39 56  1  0
 56 57  1  0
  6 58  1  0
 58  2  1  0
 56 15  1  0
 35 18  1  0
 53 40  1  0
 31 22  1  0
M  CHG  3  13   1  47   1  58  -1
M  END
>  <UniqueID>  (9) 
534

>  <SMILES>  (9) 
c1ccc2c(c1)CCN(c1nc(N3CC[NH2+]CC3)[nH]/c(=[NH+]/CCc3cnc[n-]3)n1)C2

>  <Energy>  (9) 
93.28672045137301

>  <Genealogy>  (9) 
c1ccc2c(c1)CCN(c1nc([NH2+]CCc3cnc[n-]3)nc(N3CC[NH2+]CC3)n1)C2 (protonated)
c1ccc2c(c1)CCN(c1nc(N3CC[NH2+]CC3)[nH]c(=[NH+]CCc3cnc[n-]3)n1)C2 (tautomer)
c1ccc2c(c1)CCN(c1nc(N3CC[NH2+]CC3)[nH]/c(=[NH+]/CCc3cnc[n-]3)n1)C2 (cis-trans isomerization)
c1ccc2c(c1)CCN(c1nc(N3CC[NH2+]CC3)[nH]/c(=[NH+]/CCc3cnc[n-]3)n1)C2 (3D coordinates assigned)
c1ccc2c(c1)CCN(c1nc(N3CC[NH2+]CC3)[nH]/c(=[NH+]/CCc3cnc[n-]3)n1)C2 (nonaromatic ring conformer: 93.28672045137301 kcal/mol)

>  <smiles>  (9) 
c1ccc2c(c1)CCN(c1nc(NCCc3cnc[nH]3)nc(N3CCNCC3)n1)C2

>  <score_type>  (9) 
oracle

>  <origin>  (9) 
autodockgpu

>  <m_score__min__energy>  (9) 
-7.5700000000000003

>  <m_primary>  (9) 
energy

>  <meeko>  (9) 
{"free_energy": -6.8, "intermolecular_energy": -8.59, "internal_energy": -2.63, "cluster_size": 4, "cluster_id": 3, "rank_in_cluster": 2}

>  <energy>  (9) 
-6.8

>  <cluster_rmsd>  (9) 
0.04

>  <rmsd>  (9) 
271.74

>  <cluster>  (9) 
3

$$$$
IEUOTYZOLCKWKV-RTROOMJONA-P
     RDKit          3D

 58 62  0  0  0  0  0  0  0  0999 V2000
  147.2443   74.3571  216.6439 H   0  0  0  0  0  0  0  0  0  0  0  0
  146.4120   73.6760  216.8750 C   0  0  0  0  0  0  0  0  0  0  0  0
  145.4590   73.3450  215.9780 N   0  0  0  0  0  0  0  0  0  0  0  0
  144.6520   72.5070  216.6500 C   0  0  0  0  0  0  0  0  0  0  0  0
  143.7484   72.0269  216.2463 H   0  0  0  0  0  0  0  0  0  0  0  0
  145.1410   72.3480  217.9250 C   0  0  0  0  0  0  0  0  0  0  0  0
  144.5060   71.5480  219.0190 C   0  0  0  0  0  0  0  0  0  0  0  0
  145.2114   70.7753  219.3586 H   0  0  0  0  0  0  0  0  0  0  0  0
  143.5889   71.0803  218.6313 H   0  0  0  0  0  0  0  0  0  0  0  0
  144.1400   72.4510  220.2010 C   0  0  0  0  0  0  0  0  0  0  0  0
  144.5413   72.0126  221.1266 H   0  0  0  0  0  0  0  0  0  0  0  0
  143.0442   72.5299  220.2561 H   0  0  0  0  0  0  0  0  0  0  0  0
  144.6980   73.7970  220.0260 N   0  0  0  0  0  0  0  0  0  0  0  0
  145.7100   73.9510  220.2420 H   0  0  0  0  0  0  0  0  0  0  0  0
  143.9770   74.8030  219.6120 C   0  0  0  0  0  0  0  0  0  0  0  0
  143.1200   75.4320  220.4590 N   0  0  0  0  0  0  0  0  0  0  0  0
  142.3620   76.4770  220.0380 C   0  0  0  0  0  0  0  0  0  0  0  0
  141.4530   77.1290  220.9500 N   0  0  0  0  0  0  0  0  0  0  0  0
  141.7020   78.5410  221.3000 C   0  0  0  0  0  0  0  0  0  0  0  0
  142.7147   78.6205  221.7220 H   0  0  0  0  0  0  0  0  0  0  0  0
  141.5844   79.1262  220.3760 H   0  0  0  0  0  0  0  0  0  0  0  0
  140.7220   79.1010  222.3040 C   0  0  0  0  0  0  0  0  0  0  0  0
  141.0120   80.3170  222.9440 C   0  0  0  0  0  0  0  0  0  0  0  0
  141.9622   80.8308  222.7364 H   0  0  0  0  0  0  0  0  0  0  0  0
  140.1020   80.8780  223.8420 C   0  0  0  0  0  0  0  0  0  0  0  0
  140.3419   81.8252  224.3472 H   0  0  0  0  0  0  0  0  0  0  0  0
  138.8870   80.2380  224.1000 C   0  0  0  0  0  0  0  0  0  0  0  0
  138.1702   80.6824  224.8062 H   0  0  0  0  0  0  0  0  0  0  0  0
  138.5830   79.0340  223.4610 C   0  0  0  0  0  0  0  0  0  0  0  0
  137.6211   78.5377  223.6571 H   0  0  0  0  0  0  0  0  0  0  0  0
  139.5000   78.4540  222.5690 C   0  0  0  0  0  0  0  0  0  0  0  0
  139.1600   77.1810  221.8560 C   0  0  0  0  0  0  0  0  0  0  0  0
  138.4393   76.6081  222.4580 H   0  0  0  0  0  0  0  0  0  0  0  0
  138.7209   77.4228  220.8769 H   0  0  0  0  0  0  0  0  0  0  0  0
  140.4200   76.3450  221.6460 C   0  0  0  0  0  0  0  0  0  0  0  0
  140.8078   76.0240  222.6240 H   0  0  0  0  0  0  0  0  0  0  0  0
  140.1656   75.4693  221.0309 H   0  0  0  0  0  0  0  0  0  0  0  0
  142.4670   76.8920  218.7500 N   0  0  0  0  0  0  0  0  0  0  0  0
  143.3180   76.2820  217.8840 C   0  0  0  0  0  0  0  0  0  0  0  0
  143.4110   76.7530  216.5220 N   0  0  0  0  0  0  0  0  0  0  0  0
  144.0580   75.9240  215.4980 C   0  0  0  0  0  0  0  0  0  0  0  0
  144.8014   75.2690  215.9759 H   0  0  0  0  0  0  0  0  0  0  0  0
  143.2948   75.3150  214.9914 H   0  0  0  0  0  0  0  0  0  0  0  0
  144.7590   76.8190  214.4620 C   0  0  0  0  0  0  0  0  0  0  0  0
  145.6361   77.2798  214.9399 H   0  0  0  0  0  0  0  0  0  0  0  0
  145.0297   76.1727  213.6140 H   0  0  0  0  0  0  0  0  0  0  0  0
  143.9010   77.9000  213.9210 N   0  0  0  0  0  0  0  0  0  0  0  0
  144.4140   78.8110  213.9960 H   0  0  0  0  0  0  0  0  0  0  0  0
  143.7330   77.7270  212.9020 H   0  0  0  0  0  0  0  0  0  0  0  0
  142.5920   78.0460  214.5810 C   0  0  0  0  0  0  0  0  0  0  0  0
  142.1563   79.0160  214.2997 H   0  0  0  0  0  0  0  0  0  0  0  0
  141.9469   77.2170  214.2545 H   0  0  0  0  0  0  0  0  0  0  0  0
  142.7210   77.9820  216.1070 C   0  0  0  0  0  0  0  0  0  0  0  0
  143.2943   78.8531  216.4571 H   0  0  0  0  0  0  0  0  0  0  0  0
  141.7125   77.9852  216.5462 H   0  0  0  0  0  0  0  0  0  0  0  0
  144.0730   75.2320  218.3200 N   0  0  0  0  0  0  0  0  0  0  0  0
  144.7180   74.7390  217.6630 H   0  0  0  0  0  0  0  0  0  0  0  0
  146.2490   73.0940  218.0810 N   0  0  0  0  0  0  0  0  0  0  0  0
  1  2  1  0
  2  3  2  0
  3  4  1  0
  4  5  1  0
  4  6  2  0
  6  7  1  0
  7  8  1  0
  7  9  1  0
  7 10  1  0
 10 11  1  0
 10 12  1  0
 10 13  1  0
 13 14  1  0
 13 15  2  0
 15 16  1  0
 16 17  2  0
 17 18  1  0
 18 19  1  0
 19 20  1  0
 19 21  1  0
 19 22  1  0
 22 23  2  0
 23 24  1  0
 23 25  1  0
 25 26  1  0
 25 27  2  0
 27 28  1  0
 27 29  1  0
 29 30  1  0
 29 31  2  0
 31 32  1  0
 32 33  1  0
 32 34  1  0
 32 35  1  0
 35 36  1  0
 35 37  1  0
 17 38  1  0
 38 39  2  0
 39 40  1  0
 40 41  1  0
 41 42  1  0
 41 43  1  0
 41 44  1  0
 44 45  1  0
 44 46  1  0
 44 47  1  0
 47 48  1  0
 47 49  1  0
 47 50  1  0
 50 51  1  0
 50 52  1  0
 50 53  1  0
 53 54  1  0
 53 55  1  0
 39 56  1  0
 56 57  1  0
  6 58  1  0
 58  2  1  0
 56 15  1  0
 35 18  1  0
 53 40  1  0
 31 22  1  0
M  CHG  3  13   1  47   1  58  -1
M  END
>  <UniqueID>  (10) 
534

>  <SMILES>  (10) 
c1ccc2c(c1)CCN(c1nc(N3CC[NH2+]CC3)[nH]/c(=[NH+]/CCc3cnc[n-]3)n1)C2

>  <Energy>  (10) 
93.28672045137301

>  <Genealogy>  (10) 
c1ccc2c(c1)CCN(c1nc([NH2+]CCc3cnc[n-]3)nc(N3CC[NH2+]CC3)n1)C2 (protonated)
c1ccc2c(c1)CCN(c1nc(N3CC[NH2+]CC3)[nH]c(=[NH+]CCc3cnc[n-]3)n1)C2 (tautomer)
c1ccc2c(c1)CCN(c1nc(N3CC[NH2+]CC3)[nH]/c(=[NH+]/CCc3cnc[n-]3)n1)C2 (cis-trans isomerization)
c1ccc2c(c1)CCN(c1nc(N3CC[NH2+]CC3)[nH]/c(=[NH+]/CCc3cnc[n-]3)n1)C2 (3D coordinates assigned)
c1ccc2c(c1)CCN(c1nc(N3CC[NH2+]CC3)[nH]/c(=[NH+]/CCc3cnc[n-]3)n1)C2 (nonaromatic ring conformer: 93.28672045137301 kcal/mol)

>  <smiles>  (10) 
c1ccc2c(c1)CCN(c1nc(NCCc3cnc[nH]3)nc(N3CCNCC3)n1)C2

>  <score_type>  (10) 
oracle

>  <origin>  (10) 
autodockgpu

>  <m_score__min__energy>  (10) 
-7.5700000000000003

>  <m_primary>  (10) 
energy

>  <meeko>  (10) 
{"free_energy": -6.8, "intermolecular_energy": -8.59, "internal_energy": -2.62, "cluster_size": 4, "cluster_id": 3, "rank_in_cluster": 1}

>  <energy>  (10) 
-6.78

>  <cluster_rmsd>  (10) 
0.04

>  <rmsd>  (10) 
271.74

>  <cluster>  (10) 
3

$$$$
IEUOTYZOLCKWKV-RTROOMJONA-P
     RDKit          3D

 58 62  0  0  0  0  0  0  0  0999 V2000
  140.7050   77.0966  217.9510 H   0  0  0  0  0  0  0  0  0  0  0  0
  140.8510   77.3680  219.0070 C   0  0  0  0  0  0  0  0  0  0  0  0
  142.0650   77.6130  219.5450 N   0  0  0  0  0  0  0  0  0  0  0  0
  141.8010   77.9050  220.8310 C   0  0  0  0  0  0  0  0  0  0  0  0
  142.5493   78.1563  221.5971 H   0  0  0  0  0  0  0  0  0  0  0  0
  140.4430   77.8380  221.0310 C   0  0  0  0  0  0  0  0  0  0  0  0
  139.7330   78.0300  222.3350 C   0  0  0  0  0  0  0  0  0  0  0  0
  139.0673   78.9025  222.2598 H   0  0  0  0  0  0  0  0  0  0  0  0
  140.4798   78.1901  223.1266 H   0  0  0  0  0  0  0  0  0  0  0  0
  138.9020   76.7900  222.6810 C   0  0  0  0  0  0  0  0  0  0  0  0
  137.8561   77.0909  222.8408 H   0  0  0  0  0  0  0  0  0  0  0  0
  139.3152   76.3342  223.5929 H   0  0  0  0  0  0  0  0  0  0  0  0
  138.9570   75.8020  221.5980 N   0  0  0  0  0  0  0  0  0  0  0  0
  138.2930   75.9020  220.7950 H   0  0  0  0  0  0  0  0  0  0  0  0
  139.8030   74.8080  221.6010 C   0  0  0  0  0  0  0  0  0  0  0  0
  139.5720   73.7100  222.3680 N   0  0  0  0  0  0  0  0  0  0  0  0
  140.4480   72.6720  222.3830 C   0  0  0  0  0  0  0  0  0  0  0  0
  140.1900   71.5160  223.2080 N   0  0  0  0  0  0  0  0  0  0  0  0
  140.6860   71.5220  224.5990 C   0  0  0  0  0  0  0  0  0  0  0  0
  141.7737   71.6847  224.5792 H   0  0  0  0  0  0  0  0  0  0  0  0
  140.1512   72.3249  225.1276 H   0  0  0  0  0  0  0  0  0  0  0  0
  140.4090   70.2390  225.3480 C   0  0  0  0  0  0  0  0  0  0  0  0
  141.0740   69.9940  226.5600 C   0  0  0  0  0  0  0  0  0  0  0  0
  141.8136   70.7174  226.9338 H   0  0  0  0  0  0  0  0  0  0  0  0
  140.8020   68.8370  227.2940 C   0  0  0  0  0  0  0  0  0  0  0  0
  141.3357   68.6463  228.2368 H   0  0  0  0  0  0  0  0  0  0  0  0
  139.8530   67.9220  226.8320 C   0  0  0  0  0  0  0  0  0  0  0  0
  139.6382   67.0126  227.4124 H   0  0  0  0  0  0  0  0  0  0  0  0
  139.1770   68.1610  225.6340 C   0  0  0  0  0  0  0  0  0  0  0  0
  138.4221   67.4442  225.2785 H   0  0  0  0  0  0  0  0  0  0  0  0
  139.4570   69.3130  224.8810 C   0  0  0  0  0  0  0  0  0  0  0  0
  138.7060   69.5900  223.6140 C   0  0  0  0  0  0  0  0  0  0  0  0
  138.3601   68.6399  223.1808 H   0  0  0  0  0  0  0  0  0  0  0  0
  137.8433   70.2340  223.8399 H   0  0  0  0  0  0  0  0  0  0  0  0
  139.6120   70.3010  222.6130 C   0  0  0  0  0  0  0  0  0  0  0  0
  140.4250   69.6222  222.3160 H   0  0  0  0  0  0  0  0  0  0  0  0
  139.0141   70.5867  221.7350 H   0  0  0  0  0  0  0  0  0  0  0  0
  141.5670   72.7410  221.6180 N   0  0  0  0  0  0  0  0  0  0  0  0
  141.8190   73.8260  220.8410 C   0  0  0  0  0  0  0  0  0  0  0  0
  143.0160   73.8650  220.0330 N   0  0  0  0  0  0  0  0  0  0  0  0
  143.2390   74.9740  219.0970 C   0  0  0  0  0  0  0  0  0  0  0  0
  142.2685   75.3844  218.7812 H   0  0  0  0  0  0  0  0  0  0  0  0
  143.8301   75.7549  219.5978 H   0  0  0  0  0  0  0  0  0  0  0  0
  144.0060   74.4760  217.8630 C   0  0  0  0  0  0  0  0  0  0  0  0
  143.3327   73.8386  217.2711 H   0  0  0  0  0  0  0  0  0  0  0  0
  144.3368   75.3686  217.3119 H   0  0  0  0  0  0  0  0  0  0  0  0
  145.2250   73.6940  218.1860 N   0  0  0  0  0  0  0  0  0  0  0  0
  145.2040   72.7950  217.6490 H   0  0  0  0  0  0  0  0  0  0  0  0
  146.0680   74.2250  217.8630 H   0  0  0  0  0  0  0  0  0  0  0  0
  145.4030   73.3810  219.6150 C   0  0  0  0  0  0  0  0  0  0  0  0
  146.1648   72.5940  219.7162 H   0  0  0  0  0  0  0  0  0  0  0  0
  145.7170   74.2994  220.1326 H   0  0  0  0  0  0  0  0  0  0  0  0
  144.0970   72.8940  220.2510 C   0  0  0  0  0  0  0  0  0  0  0  0
  143.8134   71.9315  219.8002 H   0  0  0  0  0  0  0  0  0  0  0  0
  144.2539   72.7786  221.3336 H   0  0  0  0  0  0  0  0  0  0  0  0
  140.9320   74.8640  220.8360 N   0  0  0  0  0  0  0  0  0  0  0  0
  141.1190   75.7140  220.2600 H   0  0  0  0  0  0  0  0  0  0  0  0
  139.8340   77.4870  219.8850 N   0  0  0  0  0  0  0  0  0  0  0  0
  1  2  1  0
  2  3  2  0
  3  4  1  0
  4  5  1  0
  4  6  2  0
  6  7  1  0
  7  8  1  0
  7  9  1  0
  7 10  1  0
 10 11  1  0
 10 12  1  0
 10 13  1  0
 13 14  1  0
 13 15  2  0
 15 16  1  0
 16 17  2  0
 17 18  1  0
 18 19  1  0
 19 20  1  0
 19 21  1  0
 19 22  1  0
 22 23  2  0
 23 24  1  0
 23 25  1  0
 25 26  1  0
 25 27  2  0
 27 28  1  0
 27 29  1  0
 29 30  1  0
 29 31  2  0
 31 32  1  0
 32 33  1  0
 32 34  1  0
 32 35  1  0
 35 36  1  0
 35 37  1  0
 17 38  1  0
 38 39  2  0
 39 40  1  0
 40 41  1  0
 41 42  1  0
 41 43  1  0
 41 44  1  0
 44 45  1  0
 44 46  1  0
 44 47  1  0
 47 48  1  0
 47 49  1  0
 47 50  1  0
 50 51  1  0
 50 52  1  0
 50 53  1  0
 53 54  1  0
 53 55  1  0
 39 56  1  0
 56 57  1  0
  6 58  1  0
 58  2  1  0
 56 15  1  0
 35 18  1  0
 53 40  1  0
 31 22  1  0
M  CHG  3  13   1  47   1  58  -1
M  END
>  <UniqueID>  (11) 
534

>  <SMILES>  (11) 
c1ccc2c(c1)CCN(c1nc(N3CC[NH2+]CC3)[nH]/c(=[NH+]/CCc3cnc[n-]3)n1)C2

>  <Energy>  (11) 
93.28672045137301

>  <Genealogy>  (11) 
c1ccc2c(c1)CCN(c1nc([NH2+]CCc3cnc[n-]3)nc(N3CC[NH2+]CC3)n1)C2 (protonated)
c1ccc2c(c1)CCN(c1nc(N3CC[NH2+]CC3)[nH]c(=[NH+]CCc3cnc[n-]3)n1)C2 (tautomer)
c1ccc2c(c1)CCN(c1nc(N3CC[NH2+]CC3)[nH]/c(=[NH+]/CCc3cnc[n-]3)n1)C2 (cis-trans isomerization)
c1ccc2c(c1)CCN(c1nc(N3CC[NH2+]CC3)[nH]/c(=[NH+]/CCc3cnc[n-]3)n1)C2 (3D coordinates assigned)
c1ccc2c(c1)CCN(c1nc(N3CC[NH2+]CC3)[nH]/c(=[NH+]/CCc3cnc[n-]3)n1)C2 (nonaromatic ring conformer: 93.28672045137301 kcal/mol)

>  <smiles>  (11) 
c1ccc2c(c1)CCN(c1nc(NCCc3cnc[nH]3)nc(N3CCNCC3)n1)C2

>  <score_type>  (11) 
oracle

>  <origin>  (11) 
autodockgpu

>  <m_score__min__energy>  (11) 
-7.5700000000000003

>  <m_primary>  (11) 
energy

>  <meeko>  (11) 
{"free_energy": -6.31, "intermolecular_energy": -8.1, "internal_energy": -2.65, "cluster_size": 6, "cluster_id": 1, "rank_in_cluster": 5}

>  <energy>  (11) 
-6.76

>  <cluster_rmsd>  (11) 
0.06

>  <rmsd>  (11) 
271.74

>  <cluster>  (11) 
3

$$$$
IEUOTYZOLCKWKV-RTROOMJONA-P
     RDKit          3D

 58 62  0  0  0  0  0  0  0  0999 V2000
  147.1821   74.2730  220.8198 H   0  0  0  0  0  0  0  0  0  0  0  0
  146.3160   73.6890  220.4750 C   0  0  0  0  0  0  0  0  0  0  0  0
  146.3220   72.9610  219.3370 N   0  0  0  0  0  0  0  0  0  0  0  0
  145.0950   72.4140  219.2900 C   0  0  0  0  0  0  0  0  0  0  0  0
  144.7180   71.7536  218.4952 H   0  0  0  0  0  0  0  0  0  0  0  0
  144.3890   72.8160  220.3990 C   0  0  0  0  0  0  0  0  0  0  0  0
  142.9610   72.4860  220.7020 C   0  0  0  0  0  0  0  0  0  0  0  0
  142.8573   72.2822  221.7780 H   0  0  0  0  0  0  0  0  0  0  0  0
  142.6695   71.6008  220.1177 H   0  0  0  0  0  0  0  0  0  0  0  0
  142.0460   73.6540  220.3200 C   0  0  0  0  0  0  0  0  0  0  0  0
  141.0595   73.5052  220.7833 H   0  0  0  0  0  0  0  0  0  0  0  0
  141.9548   73.6854  219.2242 H   0  0  0  0  0  0  0  0  0  0  0  0
  142.6060   74.9300  220.7810 N   0  0  0  0  0  0  0  0  0  0  0  0
  143.4270   74.9120  221.4300 H   0  0  0  0  0  0  0  0  0  0  0  0
  142.1170   76.0820  220.4100 C   0  0  0  0  0  0  0  0  0  0  0  0
  141.4150   76.8470  221.2880 N   0  0  0  0  0  0  0  0  0  0  0  0
  140.8970   78.0440  220.9120 C   0  0  0  0  0  0  0  0  0  0  0  0
  140.1490   78.8410  221.8550 N   0  0  0  0  0  0  0  0  0  0  0  0
  138.7540   78.4570  222.1470 C   0  0  0  0  0  0  0  0  0  0  0  0
  138.1929   78.4420  221.2010 H   0  0  0  0  0  0  0  0  0  0  0  0
  138.7875   77.4700  222.6316 H   0  0  0  0  0  0  0  0  0  0  0  0
  138.0520   79.3940  223.1030 C   0  0  0  0  0  0  0  0  0  0  0  0
  136.6560   79.3230  223.2350 C   0  0  0  0  0  0  0  0  0  0  0  0
  136.0841   78.6139  222.6185 H   0  0  0  0  0  0  0  0  0  0  0  0
  135.9890   80.1470  224.1440 C   0  0  0  0  0  0  0  0  0  0  0  0
  134.8939   80.0935  224.2331 H   0  0  0  0  0  0  0  0  0  0  0  0
  136.7110   81.0390  224.9400 C   0  0  0  0  0  0  0  0  0  0  0  0
  136.1845   81.6860  225.6571 H   0  0  0  0  0  0  0  0  0  0  0  0
  138.1010   81.1100  224.8260 C   0  0  0  0  0  0  0  0  0  0  0  0
  138.6679   81.8050  225.4628 H   0  0  0  0  0  0  0  0  0  0  0  0
  138.7780   80.2980  223.9020 C   0  0  0  0  0  0  0  0  0  0  0  0
  140.2730   80.3460  223.8040 C   0  0  0  0  0  0  0  0  0  0  0  0
  140.6277   81.3347  224.1305 H   0  0  0  0  0  0  0  0  0  0  0  0
  140.7018   79.5639  224.4477 H   0  0  0  0  0  0  0  0  0  0  0  0
  140.7110   80.1030  222.3620 C   0  0  0  0  0  0  0  0  0  0  0  0
  140.3594   80.9338  221.7326 H   0  0  0  0  0  0  0  0  0  0  0  0
  141.8087   80.0398  222.3310 H   0  0  0  0  0  0  0  0  0  0  0  0
  141.0880   78.4760  219.6400 N   0  0  0  0  0  0  0  0  0  0  0  0
  141.7880   77.7320  218.7440 C   0  0  0  0  0  0  0  0  0  0  0  0
  141.9790   78.2240  217.3990 N   0  0  0  0  0  0  0  0  0  0  0  0
  141.9920   77.2890  216.2670 C   0  0  0  0  0  0  0  0  0  0  0  0
  142.3254   76.3002  216.6151 H   0  0  0  0  0  0  0  0  0  0  0  0
  140.9775   77.2148  215.8485 H   0  0  0  0  0  0  0  0  0  0  0  0
  142.9510   77.7950  215.1780 C   0  0  0  0  0  0  0  0  0  0  0  0
  143.9816   77.6876  215.5473 H   0  0  0  0  0  0  0  0  0  0  0  0
  142.7587   77.1915  214.2787 H   0  0  0  0  0  0  0  0  0  0  0  0
  142.7370   79.2120  214.7980 N   0  0  0  0  0  0  0  0  0  0  0  0
  143.6550   79.7170  214.8340 H   0  0  0  0  0  0  0  0  0  0  0  0
  142.4030   79.2550  213.8060 H   0  0  0  0  0  0  0  0  0  0  0  0
  141.7700   79.9420  215.6360 C   0  0  0  0  0  0  0  0  0  0  0  0
  141.8798   81.0208  215.4510 H   0  0  0  0  0  0  0  0  0  0  0  0
  140.7583   79.6000  215.3725 H   0  0  0  0  0  0  0  0  0  0  0  0
  141.9970   79.6670  217.1260 C   0  0  0  0  0  0  0  0  0  0  0  0
  142.9728   80.0782  217.4240 H   0  0  0  0  0  0  0  0  0  0  0  0
  141.1888   80.1443  217.6996 H   0  0  0  0  0  0  0  0  0  0  0  0
  142.3010   76.5290  219.1340 N   0  0  0  0  0  0  0  0  0  0  0  0
  142.8250   75.9350  218.4540 H   0  0  0  0  0  0  0  0  0  0  0  0
  145.1490   73.6330  221.1490 N   0  0  0  0  0  0  0  0  0  0  0  0
  1  2  1  0
  2  3  2  0
  3  4  1  0
  4  5  1  0
  4  6  2  0
  6  7  1  0
  7  8  1  0
  7  9  1  0
  7 10  1  0
 10 11  1  0
 10 12  1  0
 10 13  1  0
 13 14  1  0
 13 15  2  0
 15 16  1  0
 16 17  2  0
 17 18  1  0
 18 19  1  0
 19 20  1  0
 19 21  1  0
 19 22  1  0
 22 23  2  0
 23 24  1  0
 23 25  1  0
 25 26  1  0
 25 27  2  0
 27 28  1  0
 27 29  1  0
 29 30  1  0
 29 31  2  0
 31 32  1  0
 32 33  1  0
 32 34  1  0
 32 35  1  0
 35 36  1  0
 35 37  1  0
 17 38  1  0
 38 39  2  0
 39 40  1  0
 40 41  1  0
 41 42  1  0
 41 43  1  0
 41 44  1  0
 44 45  1  0
 44 46  1  0
 44 47  1  0
 47 48  1  0
 47 49  1  0
 47 50  1  0
 50 51  1  0
 50 52  1  0
 50 53  1  0
 53 54  1  0
 53 55  1  0
 39 56  1  0
 56 57  1  0
  6 58  1  0
 58  2  1  0
 56 15  1  0
 35 18  1  0
 53 40  1  0
 31 22  1  0
M  CHG  3  13   1  47   1  58  -1
M  END
>  <UniqueID>  (12) 
534

>  <SMILES>  (12) 
c1ccc2c(c1)CCN(c1nc(N3CC[NH2+]CC3)[nH]/c(=[NH+]/CCc3cnc[n-]3)n1)C2

>  <Energy>  (12) 
93.28672045137301

>  <Genealogy>  (12) 
c1ccc2c(c1)CCN(c1nc([NH2+]CCc3cnc[n-]3)nc(N3CC[NH2+]CC3)n1)C2 (protonated)
c1ccc2c(c1)CCN(c1nc(N3CC[NH2+]CC3)[nH]c(=[NH+]CCc3cnc[n-]3)n1)C2 (tautomer)
c1ccc2c(c1)CCN(c1nc(N3CC[NH2+]CC3)[nH]/c(=[NH+]/CCc3cnc[n-]3)n1)C2 (cis-trans isomerization)
c1ccc2c(c1)CCN(c1nc(N3CC[NH2+]CC3)[nH]/c(=[NH+]/CCc3cnc[n-]3)n1)C2 (3D coordinates assigned)
c1ccc2c(c1)CCN(c1nc(N3CC[NH2+]CC3)[nH]/c(=[NH+]/CCc3cnc[n-]3)n1)C2 (nonaromatic ring conformer: 93.28672045137301 kcal/mol)

>  <smiles>  (12) 
c1ccc2c(c1)CCN(c1nc(NCCc3cnc[nH]3)nc(N3CCNCC3)n1)C2

>  <score_type>  (12) 
oracle

>  <origin>  (12) 
autodockgpu

>  <m_score__min__energy>  (12) 
-7.5700000000000003

>  <m_primary>  (12) 
energy

>  <meeko>  (12) 
{"free_energy": -7.48, "intermolecular_energy": -9.27, "internal_energy": -1.23, "cluster_size": 1, "cluster_id": 2, "rank_in_cluster": 1}

>  <energy>  (12) 
-6.44

>  <cluster_rmsd>  (12) 
0.0

>  <rmsd>  (12) 
272.6

>  <cluster>  (12) 
4

$$$$
IEUOTYZOLCKWKV-RTROOMJONA-P
     RDKit          3D

 58 62  0  0  0  0  0  0  0  0999 V2000
  138.8259   81.9865  220.4986 H   0  0  0  0  0  0  0  0  0  0  0  0
  139.7610   81.8700  221.0660 C   0  0  0  0  0  0  0  0  0  0  0  0
  140.9400   82.3870  220.6600 N   0  0  0  0  0  0  0  0  0  0  0  0
  141.8070   82.0250  221.6210 C   0  0  0  0  0  0  0  0  0  0  0  0
  142.8812   82.2611  221.6368 H   0  0  0  0  0  0  0  0  0  0  0  0
  141.1300   81.3110  222.5810 C   0  0  0  0  0  0  0  0  0  0  0  0
  141.7330   80.6680  223.7910 C   0  0  0  0  0  0  0  0  0  0  0  0
  141.3257   81.1447  224.6948 H   0  0  0  0  0  0  0  0  0  0  0  0
  142.8250   80.7950  223.7537 H   0  0  0  0  0  0  0  0  0  0  0  0
  141.4100   79.1710  223.8220 C   0  0  0  0  0  0  0  0  0  0  0  0
  140.8752   78.9373  224.7544 H   0  0  0  0  0  0  0  0  0  0  0  0
  142.3529   78.6070  223.7679 H   0  0  0  0  0  0  0  0  0  0  0  0
  140.5710   78.7920  222.6790 N   0  0  0  0  0  0  0  0  0  0  0  0
  139.5330   78.8870  222.7670 H   0  0  0  0  0  0  0  0  0  0  0  0
  141.0750   78.3440  221.5610 C   0  0  0  0  0  0  0  0  0  0  0  0
  141.4500   77.0420  221.4480 N   0  0  0  0  0  0  0  0  0  0  0  0
  141.9800   76.5660  220.2930 C   0  0  0  0  0  0  0  0  0  0  0  0
  142.3800   75.1830  220.1930 N   0  0  0  0  0  0  0  0  0  0  0  0
  143.8180   74.8750  220.0630 C   0  0  0  0  0  0  0  0  0  0  0  0
  144.2072   75.4017  219.1792 H   0  0  0  0  0  0  0  0  0  0  0  0
  144.3020   75.2030  220.9947 H   0  0  0  0  0  0  0  0  0  0  0  0
  144.1130   73.4010  219.9080 C   0  0  0  0  0  0  0  0  0  0  0  0
  145.3880   72.9960  219.4820 C   0  0  0  0  0  0  0  0  0  0  0  0
  146.1463   73.7525  219.2316 H   0  0  0  0  0  0  0  0  0  0  0  0
  145.7000   71.6390  219.3740 C   0  0  0  0  0  0  0  0  0  0  0  0
  146.6974   71.3300  219.0281 H   0  0  0  0  0  0  0  0  0  0  0  0
  144.7460   70.6740  219.7050 C   0  0  0  0  0  0  0  0  0  0  0  0
  144.9938   69.6055  219.6221 H   0  0  0  0  0  0  0  0  0  0  0  0
  143.4780   71.0640  220.1410 C   0  0  0  0  0  0  0  0  0  0  0  0
  142.7328   70.3015  220.4117 H   0  0  0  0  0  0  0  0  0  0  0  0
  143.1510   72.4270  220.2350 C   0  0  0  0  0  0  0  0  0  0  0  0
  141.8030   72.8480  220.7370 C   0  0  0  0  0  0  0  0  0  0  0  0
  141.0729   72.0515  220.5308 H   0  0  0  0  0  0  0  0  0  0  0  0
  141.8627   73.0296  221.8203 H   0  0  0  0  0  0  0  0  0  0  0  0
  141.3610   74.1310  220.0390 C   0  0  0  0  0  0  0  0  0  0  0  0
  141.2112   73.9269  218.9685 H   0  0  0  0  0  0  0  0  0  0  0  0
  140.4221   74.4775  220.4956 H   0  0  0  0  0  0  0  0  0  0  0  0
  142.1330   77.4080  219.2400 N   0  0  0  0  0  0  0  0  0  0  0  0
  141.7620   78.7130  219.3260 C   0  0  0  0  0  0  0  0  0  0  0  0
  141.9320   79.5820  218.1840 N   0  0  0  0  0  0  0  0  0  0  0  0
  141.0460   79.4520  217.0210 C   0  0  0  0  0  0  0  0  0  0  0  0
  140.6751   78.4183  216.9593 H   0  0  0  0  0  0  0  0  0  0  0  0
  140.1998   80.1459  217.1324 H   0  0  0  0  0  0  0  0  0  0  0  0
  141.8140   79.7950  215.7340 C   0  0  0  0  0  0  0  0  0  0  0  0
  142.5353   78.9884  215.5361 H   0  0  0  0  0  0  0  0  0  0  0  0
  141.0655   79.8991  214.9347 H   0  0  0  0  0  0  0  0  0  0  0  0
  142.5550   81.0780  215.7980 N   0  0  0  0  0  0  0  0  0  0  0  0
  143.5440   80.9150  215.4940 H   0  0  0  0  0  0  0  0  0  0  0  0
  142.1320   81.7520  215.1180 H   0  0  0  0  0  0  0  0  0  0  0  0
  142.5750   81.7190  217.1240 C   0  0  0  0  0  0  0  0  0  0  0  0
  143.3510   82.4985  217.1320 H   0  0  0  0  0  0  0  0  0  0  0  0
  141.5814   82.1520  217.3120 H   0  0  0  0  0  0  0  0  0  0  0  0
  142.8750   80.7070  218.2350 C   0  0  0  0  0  0  0  0  0  0  0  0
  143.8989   80.3254  218.1084 H   0  0  0  0  0  0  0  0  0  0  0  0
  142.7715   81.2101  219.2077 H   0  0  0  0  0  0  0  0  0  0  0  0
  141.2330   79.1800  220.4940 N   0  0  0  0  0  0  0  0  0  0  0  0
  140.9610   80.1830  220.5850 H   0  0  0  0  0  0  0  0  0  0  0  0
  139.8370   81.1970  222.2330 N   0  0  0  0  0  0  0  0  0  0  0  0
  1  2  1  0
  2  3  2  0
  3  4  1  0
  4  5  1  0
  4  6  2  0
  6  7  1  0
  7  8  1  0
  7  9  1  0
  7 10  1  0
 10 11  1  0
 10 12  1  0
 10 13  1  0
 13 14  1  0
 13 15  2  0
 15 16  1  0
 16 17  2  0
 17 18  1  0
 18 19  1  0
 19 20  1  0
 19 21  1  0
 19 22  1  0
 22 23  2  0
 23 24  1  0
 23 25  1  0
 25 26  1  0
 25 27  2  0
 27 28  1  0
 27 29  1  0
 29 30  1  0
 29 31  2  0
 31 32  1  0
 32 33  1  0
 32 34  1  0
 32 35  1  0
 35 36  1  0
 35 37  1  0
 17 38  1  0
 38 39  2  0
 39 40  1  0
 40 41  1  0
 41 42  1  0
 41 43  1  0
 41 44  1  0
 44 45  1  0
 44 46  1  0
 44 47  1  0
 47 48  1  0
 47 49  1  0
 47 50  1  0
 50 51  1  0
 50 52  1  0
 50 53  1  0
 53 54  1  0
 53 55  1  0
 39 56  1  0
 56 57  1  0
  6 58  1  0
 58  2  1  0
 56 15  1  0
 35 18  1  0
 53 40  1  0
 31 22  1  0
M  CHG  3  13   1  47   1  58  -1
M  END
>  <UniqueID>  (13) 
534

>  <SMILES>  (13) 
c1ccc2c(c1)CCN(c1nc(N3CC[NH2+]CC3)[nH]/c(=[NH+]/CCc3cnc[n-]3)n1)C2

>  <Energy>  (13) 
93.28672045137301

>  <Genealogy>  (13) 
c1ccc2c(c1)CCN(c1nc([NH2+]CCc3cnc[n-]3)nc(N3CC[NH2+]CC3)n1)C2 (protonated)
c1ccc2c(c1)CCN(c1nc(N3CC[NH2+]CC3)[nH]c(=[NH+]CCc3cnc[n-]3)n1)C2 (tautomer)
c1ccc2c(c1)CCN(c1nc(N3CC[NH2+]CC3)[nH]/c(=[NH+]/CCc3cnc[n-]3)n1)C2 (cis-trans isomerization)
c1ccc2c(c1)CCN(c1nc(N3CC[NH2+]CC3)[nH]/c(=[NH+]/CCc3cnc[n-]3)n1)C2 (3D coordinates assigned)
c1ccc2c(c1)CCN(c1nc(N3CC[NH2+]CC3)[nH]/c(=[NH+]/CCc3cnc[n-]3)n1)C2 (nonaromatic ring conformer: 93.28672045137301 kcal/mol)

>  <smiles>  (13) 
c1ccc2c(c1)CCN(c1nc(NCCc3cnc[nH]3)nc(N3CCNCC3)n1)C2

>  <score_type>  (13) 
oracle

>  <origin>  (13) 
autodockgpu

>  <m_score__min__energy>  (13) 
-7.5700000000000003

>  <m_primary>  (13) 
energy

>  <meeko>  (13) 
{"free_energy": -6.44, "intermolecular_energy": -8.23, "internal_energy": -2.72, "cluster_size": 5, "cluster_id": 4, "rank_in_cluster": 1}

>  <energy>  (13) 
-6.43

>  <cluster_rmsd>  (13) 
0.08

>  <rmsd>  (13) 
272.6

>  <cluster>  (13) 
4

$$$$
IEUOTYZOLCKWKV-RTROOMJONA-P
     RDKit          3D

 58 62  0  0  0  0  0  0  0  0999 V2000
  138.8598   82.0326  220.4234 H   0  0  0  0  0  0  0  0  0  0  0  0
  139.7850   81.9450  221.0120 C   0  0  0  0  0  0  0  0  0  0  0  0
  140.9660   82.4650  220.6130 N   0  0  0  0  0  0  0  0  0  0  0  0
  141.8180   82.1420  221.6010 C   0  0  0  0  0  0  0  0  0  0  0  0
  142.8887   82.3923  221.6306 H   0  0  0  0  0  0  0  0  0  0  0  0
  141.1310   81.4470  222.5690 C   0  0  0  0  0  0  0  0  0  0  0  0
  141.7190   80.8480  223.8080 C   0  0  0  0  0  0  0  0  0  0  0  0
  141.2425   81.3006  224.6901 H   0  0  0  0  0  0  0  0  0  0  0  0
  142.8013   81.0443  223.8187 H   0  0  0  0  0  0  0  0  0  0  0  0
  141.4900   79.3330  223.8330 C   0  0  0  0  0  0  0  0  0  0  0  0
  141.0121   79.0567  224.7844 H   0  0  0  0  0  0  0  0  0  0  0  0
  142.4624   78.8290  223.7307 H   0  0  0  0  0  0  0  0  0  0  0  0
  140.6260   78.9150  222.7220 N   0  0  0  0  0  0  0  0  0  0  0  0
  139.5890   78.9970  222.8360 H   0  0  0  0  0  0  0  0  0  0  0  0
  141.1060   78.4490  221.6020 C   0  0  0  0  0  0  0  0  0  0  0  0
  141.4530   77.1380  221.4940 N   0  0  0  0  0  0  0  0  0  0  0  0
  141.9580   76.6430  220.3350 C   0  0  0  0  0  0  0  0  0  0  0  0
  142.3270   75.2510  220.2400 N   0  0  0  0  0  0  0  0  0  0  0  0
  143.7540   74.9120  220.0770 C   0  0  0  0  0  0  0  0  0  0  0  0
  144.1311   75.4211  219.1778 H   0  0  0  0  0  0  0  0  0  0  0  0
  144.2682   75.2397  220.9925 H   0  0  0  0  0  0  0  0  0  0  0  0
  144.0150   73.4310  219.9310 C   0  0  0  0  0  0  0  0  0  0  0  0
  145.2700   72.9950  219.4760 C   0  0  0  0  0  0  0  0  0  0  0  0
  146.0365   73.7328  219.1966 H   0  0  0  0  0  0  0  0  0  0  0  0
  145.5510   71.6310  219.3760 C   0  0  0  0  0  0  0  0  0  0  0  0
  146.5328   71.2979  219.0085 H   0  0  0  0  0  0  0  0  0  0  0  0
  144.5870   70.6890  219.7420 C   0  0  0  0  0  0  0  0  0  0  0  0
  144.8110   69.6148  219.6647 H   0  0  0  0  0  0  0  0  0  0  0  0
  143.3390   71.1100  220.2060 C   0  0  0  0  0  0  0  0  0  0  0  0
  142.5856   70.3658  220.5037 H   0  0  0  0  0  0  0  0  0  0  0  0
  143.0420   72.4800  220.2940 C   0  0  0  0  0  0  0  0  0  0  0  0
  141.7170   72.9340  220.8260 C   0  0  0  0  0  0  0  0  0  0  0  0
  140.9656   72.1507  220.6478 H   0  0  0  0  0  0  0  0  0  0  0  0
  141.8088   73.1258  221.9053 H   0  0  0  0  0  0  0  0  0  0  0  0
  141.2830   74.2190  220.1250 C   0  0  0  0  0  0  0  0  0  0  0  0
  141.1006   74.0064  219.0613 H   0  0  0  0  0  0  0  0  0  0  0  0
  140.3640   74.5900  220.6023 H   0  0  0  0  0  0  0  0  0  0  0  0
  142.1150   77.4740  219.2740 N   0  0  0  0  0  0  0  0  0  0  0  0
  141.7730   78.7870  219.3560 C   0  0  0  0  0  0  0  0  0  0  0  0
  141.9470   79.6440  218.2050 N   0  0  0  0  0  0  0  0  0  0  0  0
  141.0210   79.5510  217.0700 C   0  0  0  0  0  0  0  0  0  0  0  0
  140.6021   78.5349  217.0241 H   0  0  0  0  0  0  0  0  0  0  0  0
  140.2111   80.2831  217.2043 H   0  0  0  0  0  0  0  0  0  0  0  0
  141.7630   79.8550  215.7590 C   0  0  0  0  0  0  0  0  0  0  0  0
  142.4399   79.0156  215.5419 H   0  0  0  0  0  0  0  0  0  0  0  0
  140.9955   79.9915  214.9830 H   0  0  0  0  0  0  0  0  0  0  0  0
  142.5640   81.1030  215.7950 N   0  0  0  0  0  0  0  0  0  0  0  0
  143.5340   80.8940  215.4600 H   0  0  0  0  0  0  0  0  0  0  0  0
  142.1510   81.7940  215.1250 H   0  0  0  0  0  0  0  0  0  0  0  0
  142.6540   81.7460  217.1170 C   0  0  0  0  0  0  0  0  0  0  0  0
  143.4644   82.4896  217.0979 H   0  0  0  0  0  0  0  0  0  0  0  0
  141.6873   82.2241  217.3337 H   0  0  0  0  0  0  0  0  0  0  0  0
  142.9420   80.7250  218.2220 C   0  0  0  0  0  0  0  0  0  0  0  0
  143.9429   80.2965  218.0653 H   0  0  0  0  0  0  0  0  0  0  0  0
  142.8923   81.2350  219.1953 H   0  0  0  0  0  0  0  0  0  0  0  0
  141.2690   79.2730  220.5270 N   0  0  0  0  0  0  0  0  0  0  0  0
  141.0190   80.2830  220.6130 H   0  0  0  0  0  0  0  0  0  0  0  0
  139.8460   81.3080  222.2000 N   0  0  0  0  0  0  0  0  0  0  0  0
  1  2  1  0
  2  3  2  0
  3  4  1  0
  4  5  1  0
  4  6  2  0
  6  7  1  0
  7  8  1  0
  7  9  1  0
  7 10  1  0
 10 11  1  0
 10 12  1  0
 10 13  1  0
 13 14  1  0
 13 15  2  0
 15 16  1  0
 16 17  2  0
 17 18  1  0
 18 19  1  0
 19 20  1  0
 19 21  1  0
 19 22  1  0
 22 23  2  0
 23 24  1  0
 23 25  1  0
 25 26  1  0
 25 27  2  0
 27 28  1  0
 27 29  1  0
 29 30  1  0
 29 31  2  0
 31 32  1  0
 32 33  1  0
 32 34  1  0
 32 35  1  0
 35 36  1  0
 35 37  1  0
 17 38  1  0
 38 39  2  0
 39 40  1  0
 40 41  1  0
 41 42  1  0
 41 43  1  0
 41 44  1  0
 44 45  1  0
 44 46  1  0
 44 47  1  0
 47 48  1  0
 47 49  1  0
 47 50  1  0
 50 51  1  0
 50 52  1  0
 50 53  1  0
 53 54  1  0
 53 55  1  0
 39 56  1  0
 56 57  1  0
  6 58  1  0
 58  2  1  0
 56 15  1  0
 35 18  1  0
 53 40  1  0
 31 22  1  0
M  CHG  3  13   1  47   1  58  -1
M  END
>  <UniqueID>  (14) 
534

>  <SMILES>  (14) 
c1ccc2c(c1)CCN(c1nc(N3CC[NH2+]CC3)[nH]/c(=[NH+]/CCc3cnc[n-]3)n1)C2

>  <Energy>  (14) 
93.28672045137301

>  <Genealogy>  (14) 
c1ccc2c(c1)CCN(c1nc([NH2+]CCc3cnc[n-]3)nc(N3CC[NH2+]CC3)n1)C2 (protonated)
c1ccc2c(c1)CCN(c1nc(N3CC[NH2+]CC3)[nH]c(=[NH+]CCc3cnc[n-]3)n1)C2 (tautomer)
c1ccc2c(c1)CCN(c1nc(N3CC[NH2+]CC3)[nH]/c(=[NH+]/CCc3cnc[n-]3)n1)C2 (cis-trans isomerization)
c1ccc2c(c1)CCN(c1nc(N3CC[NH2+]CC3)[nH]/c(=[NH+]/CCc3cnc[n-]3)n1)C2 (3D coordinates assigned)
c1ccc2c(c1)CCN(c1nc(N3CC[NH2+]CC3)[nH]/c(=[NH+]/CCc3cnc[n-]3)n1)C2 (nonaromatic ring conformer: 93.28672045137301 kcal/mol)

>  <smiles>  (14) 
c1ccc2c(c1)CCN(c1nc(NCCc3cnc[nH]3)nc(N3CCNCC3)n1)C2

>  <score_type>  (14) 
oracle

>  <origin>  (14) 
autodockgpu

>  <m_score__min__energy>  (14) 
-7.5700000000000003

>  <m_primary>  (14) 
energy

>  <meeko>  (14) 
{"free_energy": -6.42, "intermolecular_energy": -8.21, "internal_energy": -2.75, "cluster_size": 5, "cluster_id": 4, "rank_in_cluster": 3}

>  <energy>  (14) 
-6.42

>  <cluster_rmsd>  (14) 
0.12

>  <rmsd>  (14) 
272.63

>  <cluster>  (14) 
4

$$$$
IEUOTYZOLCKWKV-RTROOMJONA-P
     RDKit          3D

 58 62  0  0  0  0  0  0  0  0999 V2000
  142.7533   74.9000  221.7161 H   0  0  0  0  0  0  0  0  0  0  0  0
  141.7950   74.7090  221.2110 C   0  0  0  0  0  0  0  0  0  0  0  0
  141.6370   74.7900  219.8720 N   0  0  0  0  0  0  0  0  0  0  0  0
  140.3430   74.4850  219.6740 C   0  0  0  0  0  0  0  0  0  0  0  0
  139.8344   74.4520  218.6992 H   0  0  0  0  0  0  0  0  0  0  0  0
  139.7600   74.2210  220.8910 C   0  0  0  0  0  0  0  0  0  0  0  0
  138.3160   73.9040  221.1260 C   0  0  0  0  0  0  0  0  0  0  0  0
  138.2367   72.9267  221.6246 H   0  0  0  0  0  0  0  0  0  0  0  0
  137.7956   73.8796  220.1572 H   0  0  0  0  0  0  0  0  0  0  0  0
  137.6670   74.9740  222.0090 C   0  0  0  0  0  0  0  0  0  0  0  0
  137.0212   74.4841  222.7526 H   0  0  0  0  0  0  0  0  0  0  0  0
  137.0758   75.6459  221.3695 H   0  0  0  0  0  0  0  0  0  0  0  0
  138.6860   75.7670  222.7060 N   0  0  0  0  0  0  0  0  0  0  0  0
  139.1880   75.3360  223.5170 H   0  0  0  0  0  0  0  0  0  0  0  0
  138.9880   76.9860  222.3500 C   0  0  0  0  0  0  0  0  0  0  0  0
  138.3710   78.0470  222.9350 N   0  0  0  0  0  0  0  0  0  0  0  0
  138.6720   79.3190  222.5690 C   0  0  0  0  0  0  0  0  0  0  0  0
  138.0030   80.4340  223.1960 N   0  0  0  0  0  0  0  0  0  0  0  0
  138.0310   80.5310  224.6690 C   0  0  0  0  0  0  0  0  0  0  0  0
  137.6054   79.6063  225.0860 H   0  0  0  0  0  0  0  0  0  0  0  0
  139.0811   80.6791  224.9613 H   0  0  0  0  0  0  0  0  0  0  0  0
  137.2510   81.7040  225.2160 C   0  0  0  0  0  0  0  0  0  0  0  0
  136.9460   81.7480  226.5860 C   0  0  0  0  0  0  0  0  0  0  0  0
  137.2444   80.9152  227.2398 H   0  0  0  0  0  0  0  0  0  0  0  0
  136.2660   82.8430  227.1230 C   0  0  0  0  0  0  0  0  0  0  0  0
  136.0213   82.8654  228.1952 H   0  0  0  0  0  0  0  0  0  0  0  0
  135.8960   83.9100  226.3010 C   0  0  0  0  0  0  0  0  0  0  0  0
  135.3626   84.7727  226.7267 H   0  0  0  0  0  0  0  0  0  0  0  0
  136.2030   83.8820  224.9390 C   0  0  0  0  0  0  0  0  0  0  0  0
  135.9199   84.7284  224.2960 H   0  0  0  0  0  0  0  0  0  0  0  0
  136.8720   82.7770  224.3870 C   0  0  0  0  0  0  0  0  0  0  0  0
  137.2350   82.7620  222.9330 C   0  0  0  0  0  0  0  0  0  0  0  0
  136.5319   83.3984  222.3756 H   0  0  0  0  0  0  0  0  0  0  0  0
  138.2598   83.1434  222.8132 H   0  0  0  0  0  0  0  0  0  0  0  0
  137.1650   81.3370  222.3910 C   0  0  0  0  0  0  0  0  0  0  0  0
  136.1223   80.9884  222.4248 H   0  0  0  0  0  0  0  0  0  0  0  0
  137.5344   81.3335  221.3549 H   0  0  0  0  0  0  0  0  0  0  0  0
  139.6040   79.5260  221.6040 N   0  0  0  0  0  0  0  0  0  0  0  0
  140.2360   78.4830  221.0060 C   0  0  0  0  0  0  0  0  0  0  0  0
  141.2290   78.7370  219.9870 N   0  0  0  0  0  0  0  0  0  0  0  0
  141.9810   79.9970  219.9880 C   0  0  0  0  0  0  0  0  0  0  0  0
  141.3782   80.7804  220.4707 H   0  0  0  0  0  0  0  0  0  0  0  0
  142.9213   79.8554  220.5409 H   0  0  0  0  0  0  0  0  0  0  0  0
  142.3030   80.4190  218.5460 C   0  0  0  0  0  0  0  0  0  0  0  0
  141.3678   80.7359  218.0614 H   0  0  0  0  0  0  0  0  0  0  0  0
  143.0432   81.2302  218.6096 H   0  0  0  0  0  0  0  0  0  0  0  0
  142.9130   79.3450  217.7250 N   0  0  0  0  0  0  0  0  0  0  0  0
  142.3840   79.2640  216.8240 H   0  0  0  0  0  0  0  0  0  0  0  0
  143.8940   79.6140  217.4820 H   0  0  0  0  0  0  0  0  0  0  0  0
  142.9480   78.0180  218.3650 C   0  0  0  0  0  0  0  0  0  0  0  0
  143.1624   77.2579  217.5993 H   0  0  0  0  0  0  0  0  0  0  0  0
  143.7310   78.0292  219.1376 H   0  0  0  0  0  0  0  0  0  0  0  0
  141.6150   77.6820  219.0390 C   0  0  0  0  0  0  0  0  0  0  0  0
  140.8355   77.5863  218.2688 H   0  0  0  0  0  0  0  0  0  0  0  0
  141.7269   76.7365  219.5900 H   0  0  0  0  0  0  0  0  0  0  0  0
  139.9230   77.2080  221.3810 N   0  0  0  0  0  0  0  0  0  0  0  0
  140.3850   76.3950  220.9190 H   0  0  0  0  0  0  0  0  0  0  0  0
  140.6680   74.3720  221.8710 N   0  0  0  0  0  0  0  0  0  0  0  0
  1  2  1  0
  2  3  2  0
  3  4  1  0
  4  5  1  0
  4  6  2  0
  6  7  1  0
  7  8  1  0
  7  9  1  0
  7 10  1  0
 10 11  1  0
 10 12  1  0
 10 13  1  0
 13 14  1  0
 13 15  2  0
 15 16  1  0
 16 17  2  0
 17 18  1  0
 18 19  1  0
 19 20  1  0
 19 21  1  0
 19 22  1  0
 22 23  2  0
 23 24  1  0
 23 25  1  0
 25 26  1  0
 25 27  2  0
 27 28  1  0
 27 29  1  0
 29 30  1  0
 29 31  2  0
 31 32  1  0
 32 33  1  0
 32 34  1  0
 32 35  1  0
 35 36  1  0
 35 37  1  0
 17 38  1  0
 38 39  2  0
 39 40  1  0
 40 41  1  0
 41 42  1  0
 41 43  1  0
 41 44  1  0
 44 45  1  0
 44 46  1  0
 44 47  1  0
 47 48  1  0
 47 49  1  0
 47 50  1  0
 50 51  1  0
 50 52  1  0
 50 53  1  0
 53 54  1  0
 53 55  1  0
 39 56  1  0
 56 57  1  0
  6 58  1  0
 58  2  1  0
 56 15  1  0
 35 18  1  0
 53 40  1  0
 31 22  1  0
M  CHG  3  13   1  47   1  58  -1
M  END
>  <UniqueID>  (15) 
534

>  <SMILES>  (15) 
c1ccc2c(c1)CCN(c1nc(N3CC[NH2+]CC3)[nH]/c(=[NH+]/CCc3cnc[n-]3)n1)C2

>  <Energy>  (15) 
93.28672045137301

>  <Genealogy>  (15) 
c1ccc2c(c1)CCN(c1nc([NH2+]CCc3cnc[n-]3)nc(N3CC[NH2+]CC3)n1)C2 (protonated)
c1ccc2c(c1)CCN(c1nc(N3CC[NH2+]CC3)[nH]c(=[NH+]CCc3cnc[n-]3)n1)C2 (tautomer)
c1ccc2c(c1)CCN(c1nc(N3CC[NH2+]CC3)[nH]/c(=[NH+]/CCc3cnc[n-]3)n1)C2 (cis-trans isomerization)
c1ccc2c(c1)CCN(c1nc(N3CC[NH2+]CC3)[nH]/c(=[NH+]/CCc3cnc[n-]3)n1)C2 (3D coordinates assigned)
c1ccc2c(c1)CCN(c1nc(N3CC[NH2+]CC3)[nH]/c(=[NH+]/CCc3cnc[n-]3)n1)C2 (nonaromatic ring conformer: 93.28672045137301 kcal/mol)

>  <smiles>  (15) 
c1ccc2c(c1)CCN(c1nc(NCCc3cnc[nH]3)nc(N3CCNCC3)n1)C2

>  <score_type>  (15) 
oracle

>  <origin>  (15) 
autodockgpu

>  <m_score__min__energy>  (15) 
-7.5700000000000003

>  <m_primary>  (15) 
energy

>  <meeko>  (15) 
{"free_energy": -6.14, "intermolecular_energy": -7.93, "internal_energy": -2.62, "cluster_size": 2, "cluster_id": 5, "rank_in_cluster": 1}

>  <energy>  (15) 
-6.39

>  <cluster_rmsd>  (15) 
0.1

>  <rmsd>  (15) 
272.62

>  <cluster>  (15) 
4

$$$$
IEUOTYZOLCKWKV-RTROOMJONA-P
     RDKit          3D

 58 62  0  0  0  0  0  0  0  0999 V2000
  140.7251   77.1261  217.9531 H   0  0  0  0  0  0  0  0  0  0  0  0
  140.8590   77.3880  219.0130 C   0  0  0  0  0  0  0  0  0  0  0  0
  142.0660   77.6290  219.5660 N   0  0  0  0  0  0  0  0  0  0  0  0
  141.7880   77.9090  220.8520 C   0  0  0  0  0  0  0  0  0  0  0  0
  142.5276   78.1537  221.6286 H   0  0  0  0  0  0  0  0  0  0  0  0
  140.4280   77.8390  221.0360 C   0  0  0  0  0  0  0  0  0  0  0  0
  139.7040   78.0180  222.3340 C   0  0  0  0  0  0  0  0  0  0  0  0
  139.0451   78.8959  222.2627 H   0  0  0  0  0  0  0  0  0  0  0  0
  140.4428   78.1620  223.1362 H   0  0  0  0  0  0  0  0  0  0  0  0
  138.8610   76.7800  222.6540 C   0  0  0  0  0  0  0  0  0  0  0  0
  137.8130   77.0842  222.7929 H   0  0  0  0  0  0  0  0  0  0  0  0
  139.2520   76.3168  223.5719 H   0  0  0  0  0  0  0  0  0  0  0  0
  138.9360   75.7980  221.5650 N   0  0  0  0  0  0  0  0  0  0  0  0
  138.2850   75.9010  220.7520 H   0  0  0  0  0  0  0  0  0  0  0  0
  139.7840   74.8060  221.5770 C   0  0  0  0  0  0  0  0  0  0  0  0
  139.5510   73.7090  222.3460 N   0  0  0  0  0  0  0  0  0  0  0  0
  140.4290   72.6740  222.3700 C   0  0  0  0  0  0  0  0  0  0  0  0
  140.1690   71.5200  223.1970 N   0  0  0  0  0  0  0  0  0  0  0  0
  140.6730   71.5230  224.5840 C   0  0  0  0  0  0  0  0  0  0  0  0
  141.7616   71.6786  224.5572 H   0  0  0  0  0  0  0  0  0  0  0  0
  140.1456   72.3292  225.1150 H   0  0  0  0  0  0  0  0  0  0  0  0
  140.3930   70.2430  225.3370 C   0  0  0  0  0  0  0  0  0  0  0  0
  141.0640   69.9930  226.5440 C   0  0  0  0  0  0  0  0  0  0  0  0
  141.8114   70.7110  226.9125 H   0  0  0  0  0  0  0  0  0  0  0  0
  140.7890   68.8390  227.2800 C   0  0  0  0  0  0  0  0  0  0  0  0
  141.3275   68.6453  228.2194 H   0  0  0  0  0  0  0  0  0  0  0  0
  139.8310   67.9300  226.8250 C   0  0  0  0  0  0  0  0  0  0  0  0
  139.6143   67.0223  227.4073 H   0  0  0  0  0  0  0  0  0  0  0  0
  139.1480   68.1730  225.6310 C   0  0  0  0  0  0  0  0  0  0  0  0
  138.3859   67.4612  225.2808 H   0  0  0  0  0  0  0  0  0  0  0  0
  139.4310   69.3230  224.8760 C   0  0  0  0  0  0  0  0  0  0  0  0
  138.6740   69.6040  223.6140 C   0  0  0  0  0  0  0  0  0  0  0  0
  138.3186   68.6560  223.1840 H   0  0  0  0  0  0  0  0  0  0  0  0
  137.8173   70.2543  223.8448 H   0  0  0  0  0  0  0  0  0  0  0  0
  139.5790   70.3080  222.6060 C   0  0  0  0  0  0  0  0  0  0  0  0
  140.3855   69.6234  222.3046 H   0  0  0  0  0  0  0  0  0  0  0  0
  138.9779   70.5968  221.7312 H   0  0  0  0  0  0  0  0  0  0  0  0
  141.5520   72.7430  221.6110 N   0  0  0  0  0  0  0  0  0  0  0  0
  141.8070   73.8260  220.8320 C   0  0  0  0  0  0  0  0  0  0  0  0
  143.0090   73.8650  220.0310 N   0  0  0  0  0  0  0  0  0  0  0  0
  143.2300   74.9670  219.0870 C   0  0  0  0  0  0  0  0  0  0  0  0
  142.2589   75.3679  218.7611 H   0  0  0  0  0  0  0  0  0  0  0  0
  143.8118   75.7573  219.5840 H   0  0  0  0  0  0  0  0  0  0  0  0
  144.0090   74.4610  217.8620 C   0  0  0  0  0  0  0  0  0  0  0  0
  143.3437   73.8132  217.2723 H   0  0  0  0  0  0  0  0  0  0  0  0
  144.3377   75.3503  217.3042 H   0  0  0  0  0  0  0  0  0  0  0  0
  145.2300   73.6910  218.2000 N   0  0  0  0  0  0  0  0  0  0  0  0
  145.2180   72.7860  217.6710 H   0  0  0  0  0  0  0  0  0  0  0  0
  146.0720   74.2230  217.8770 H   0  0  0  0  0  0  0  0  0  0  0  0
  145.4010   73.3910  219.6320 C   0  0  0  0  0  0  0  0  0  0  0  0
  146.1666   72.6091  219.7441 H   0  0  0  0  0  0  0  0  0  0  0  0
  145.7066   74.3156  220.1435 H   0  0  0  0  0  0  0  0  0  0  0  0
  144.0940   72.9020  220.2650 C   0  0  0  0  0  0  0  0  0  0  0  0
  143.8187   71.9337  219.8216 H   0  0  0  0  0  0  0  0  0  0  0  0
  144.2449   72.7973  221.3496 H   0  0  0  0  0  0  0  0  0  0  0  0
  140.9170   74.8610  220.8190 N   0  0  0  0  0  0  0  0  0  0  0  0
  141.1060   75.7100  220.2410 H   0  0  0  0  0  0  0  0  0  0  0  0
  139.8320   77.4980  219.8800 N   0  0  0  0  0  0  0  0  0  0  0  0
  1  2  1  0
  2  3  2  0
  3  4  1  0
  4  5  1  0
  4  6  2  0
  6  7  1  0
  7  8  1  0
  7  9  1  0
  7 10  1  0
 10 11  1  0
 10 12  1  0
 10 13  1  0
 13 14  1  0
 13 15  2  0
 15 16  1  0
 16 17  2  0
 17 18  1  0
 18 19  1  0
 19 20  1  0
 19 21  1  0
 19 22  1  0
 22 23  2  0
 23 24  1  0
 23 25  1  0
 25 26  1  0
 25 27  2  0
 27 28  1  0
 27 29  1  0
 29 30  1  0
 29 31  2  0
 31 32  1  0
 32 33  1  0
 32 34  1  0
 32 35  1  0
 35 36  1  0
 35 37  1  0
 17 38  1  0
 38 39  2  0
 39 40  1  0
 40 41  1  0
 41 42  1  0
 41 43  1  0
 41 44  1  0
 44 45  1  0
 44 46  1  0
 44 47  1  0
 47 48  1  0
 47 49  1  0
 47 50  1  0
 50 51  1  0
 50 52  1  0
 50 53  1  0
 53 54  1  0
 53 55  1  0
 39 56  1  0
 56 57  1  0
  6 58  1  0
 58  2  1  0
 56 15  1  0
 35 18  1  0
 53 40  1  0
 31 22  1  0
M  CHG  3  13   1  47   1  58  -1
M  END
>  <UniqueID>  (16) 
534

>  <SMILES>  (16) 
c1ccc2c(c1)CCN(c1nc(N3CC[NH2+]CC3)[nH]/c(=[NH+]/CCc3cnc[n-]3)n1)C2

>  <Energy>  (16) 
93.28672045137301

>  <Genealogy>  (16) 
c1ccc2c(c1)CCN(c1nc([NH2+]CCc3cnc[n-]3)nc(N3CC[NH2+]CC3)n1)C2 (protonated)
c1ccc2c(c1)CCN(c1nc(N3CC[NH2+]CC3)[nH]c(=[NH+]CCc3cnc[n-]3)n1)C2 (tautomer)
c1ccc2c(c1)CCN(c1nc(N3CC[NH2+]CC3)[nH]/c(=[NH+]/CCc3cnc[n-]3)n1)C2 (cis-trans isomerization)
c1ccc2c(c1)CCN(c1nc(N3CC[NH2+]CC3)[nH]/c(=[NH+]/CCc3cnc[n-]3)n1)C2 (3D coordinates assigned)
c1ccc2c(c1)CCN(c1nc(N3CC[NH2+]CC3)[nH]/c(=[NH+]/CCc3cnc[n-]3)n1)C2 (nonaromatic ring conformer: 93.28672045137301 kcal/mol)

>  <smiles>  (16) 
c1ccc2c(c1)CCN(c1nc(NCCc3cnc[nH]3)nc(N3CCNCC3)n1)C2

>  <score_type>  (16) 
oracle

>  <origin>  (16) 
autodockgpu

>  <m_score__min__energy>  (16) 
-7.5700000000000003

>  <m_primary>  (16) 
energy

>  <meeko>  (16) 
{"free_energy": -6.32, "intermolecular_energy": -8.11, "internal_energy": -2.64, "cluster_size": 6, "cluster_id": 1, "rank_in_cluster": 4}

>  <energy>  (16) 
-6.35

>  <cluster_rmsd>  (16) 
0.18

>  <rmsd>  (16) 
272.63

>  <cluster>  (16) 
4

$$$$
IEUOTYZOLCKWKV-RTROOMJONA-P
     RDKit          3D

 58 62  0  0  0  0  0  0  0  0999 V2000
  140.7878   81.2748  219.3829 H   0  0  0  0  0  0  0  0  0  0  0  0
  140.5980   82.2350  219.8850 C   0  0  0  0  0  0  0  0  0  0  0  0
  141.3600   82.7020  220.8970 N   0  0  0  0  0  0  0  0  0  0  0  0
  140.7990   83.8820  221.2140 C   0  0  0  0  0  0  0  0  0  0  0  0
  141.1429   84.5624  222.0070 H   0  0  0  0  0  0  0  0  0  0  0  0
  139.7250   84.0980  220.3840 C   0  0  0  0  0  0  0  0  0  0  0  0
  138.7860   85.2620  220.4440 C   0  0  0  0  0  0  0  0  0  0  0  0
  138.2205   85.3194  219.5022 H   0  0  0  0  0  0  0  0  0  0  0  0
  139.3703   86.1819  220.5934 H   0  0  0  0  0  0  0  0  0  0  0  0
  137.8060   85.1040  221.6110 C   0  0  0  0  0  0  0  0  0  0  0  0
  137.0113   85.8589  221.5185 H   0  0  0  0  0  0  0  0  0  0  0  0
  138.3571   85.2394  222.5533 H   0  0  0  0  0  0  0  0  0  0  0  0
  137.2010   83.7670  221.6100 N   0  0  0  0  0  0  0  0  0  0  0  0
  136.4950   83.5380  220.8720 H   0  0  0  0  0  0  0  0  0  0  0  0
  137.5120   82.8590  222.4940 C   0  0  0  0  0  0  0  0  0  0  0  0
  136.6980   82.6260  223.5580 N   0  0  0  0  0  0  0  0  0  0  0  0
  137.0140   81.6880  224.4870 C   0  0  0  0  0  0  0  0  0  0  0  0
  136.1430   81.4580  225.6140 N   0  0  0  0  0  0  0  0  0  0  0  0
  136.5920   81.8960  226.9500 C   0  0  0  0  0  0  0  0  0  0  0  0
  137.5561   81.4131  227.1676 H   0  0  0  0  0  0  0  0  0  0  0  0
  136.6684   82.9929  226.9190 H   0  0  0  0  0  0  0  0  0  0  0  0
  135.6260   81.5530  228.0600 C   0  0  0  0  0  0  0  0  0  0  0  0
  136.0520   81.6400  229.3940 C   0  0  0  0  0  0  0  0  0  0  0  0
  137.0915   81.9212  229.6183 H   0  0  0  0  0  0  0  0  0  0  0  0
  135.1650   81.3720  230.4390 C   0  0  0  0  0  0  0  0  0  0  0  0
  135.5102   81.4311  231.4817 H   0  0  0  0  0  0  0  0  0  0  0  0
  133.8400   81.0290  230.1610 C   0  0  0  0  0  0  0  0  0  0  0  0
  133.1418   80.8202  230.9850 H   0  0  0  0  0  0  0  0  0  0  0  0
  133.4010   80.9510  228.8380 C   0  0  0  0  0  0  0  0  0  0  0  0
  132.3539   80.6919  228.6226 H   0  0  0  0  0  0  0  0  0  0  0  0
  134.2910   81.2020  227.7810 C   0  0  0  0  0  0  0  0  0  0  0  0
  133.8130   81.1540  226.3620 C   0  0  0  0  0  0  0  0  0  0  0  0
  132.9480   80.4781  226.2923 H   0  0  0  0  0  0  0  0  0  0  0  0
  133.5234   82.1669  226.0454 H   0  0  0  0  0  0  0  0  0  0  0  0
  134.9260   80.6450  225.4500 C   0  0  0  0  0  0  0  0  0  0  0  0
  135.1527   79.5993  225.7052 H   0  0  0  0  0  0  0  0  0  0  0  0
  134.5893   80.7173  224.4053 H   0  0  0  0  0  0  0  0  0  0  0  0
  138.1610   80.9750  224.3430 N   0  0  0  0  0  0  0  0  0  0  0  0
  138.9890   81.1870  223.2860 C   0  0  0  0  0  0  0  0  0  0  0  0
  140.1990   80.4070  223.1590 N   0  0  0  0  0  0  0  0  0  0  0  0
  141.4370   80.8550  223.8070 C   0  0  0  0  0  0  0  0  0  0  0  0
  141.4178   81.9499  223.9114 H   0  0  0  0  0  0  0  0  0  0  0  0
  141.5148   80.3867  224.7993 H   0  0  0  0  0  0  0  0  0  0  0  0
  142.6520   80.4460  222.9600 C   0  0  0  0  0  0  0  0  0  0  0  0
  142.6616   81.0621  222.0488 H   0  0  0  0  0  0  0  0  0  0  0  0
  143.5431   80.6016  223.5859 H   0  0  0  0  0  0  0  0  0  0  0  0
  142.6540   79.0190  222.5580 N   0  0  0  0  0  0  0  0  0  0  0  0
  142.8150   78.9570  221.5240 H   0  0  0  0  0  0  0  0  0  0  0  0
  143.4580   78.5330  223.0220 H   0  0  0  0  0  0  0  0  0  0  0  0
  141.4240   78.2780  222.8850 C   0  0  0  0  0  0  0  0  0  0  0  0
  141.4165   77.3323  222.3233 H   0  0  0  0  0  0  0  0  0  0  0  0
  141.4122   78.0899  223.9687 H   0  0  0  0  0  0  0  0  0  0  0  0
  140.1710   79.0820  222.5230 C   0  0  0  0  0  0  0  0  0  0  0  0
  140.1258   79.2070  221.4311 H   0  0  0  0  0  0  0  0  0  0  0  0
  139.2861   78.5368  222.8830 H   0  0  0  0  0  0  0  0  0  0  0  0
  138.6610   82.1350  222.3610 N   0  0  0  0  0  0  0  0  0  0  0  0
  139.2950   82.3240  221.5540 H   0  0  0  0  0  0  0  0  0  0  0  0
  139.5820   83.0560  219.5470 N   0  0  0  0  0  0  0  0  0  0  0  0
  1  2  1  0
  2  3  2  0
  3  4  1  0
  4  5  1  0
  4  6  2  0
  6  7  1  0
  7  8  1  0
  7  9  1  0
  7 10  1  0
 10 11  1  0
 10 12  1  0
 10 13  1  0
 13 14  1  0
 13 15  2  0
 15 16  1  0
 16 17  2  0
 17 18  1  0
 18 19  1  0
 19 20  1  0
 19 21  1  0
 19 22  1  0
 22 23  2  0
 23 24  1  0
 23 25  1  0
 25 26  1  0
 25 27  2  0
 27 28  1  0
 27 29  1  0
 29 30  1  0
 29 31  2  0
 31 32  1  0
 32 33  1  0
 32 34  1  0
 32 35  1  0
 35 36  1  0
 35 37  1  0
 17 38  1  0
 38 39  2  0
 39 40  1  0
 40 41  1  0
 41 42  1  0
 41 43  1  0
 41 44  1  0
 44 45  1  0
 44 46  1  0
 44 47  1  0
 47 48  1  0
 47 49  1  0
 47 50  1  0
 50 51  1  0
 50 52  1  0
 50 53  1  0
 53 54  1  0
 53 55  1  0
 39 56  1  0
 56 57  1  0
  6 58  1  0
 58  2  1  0
 56 15  1  0
 35 18  1  0
 53 40  1  0
 31 22  1  0
M  CHG  3  13   1  47   1  58  -1
M  END
>  <UniqueID>  (17) 
534

>  <SMILES>  (17) 
c1ccc2c(c1)CCN(c1nc(N3CC[NH2+]CC3)[nH]/c(=[NH+]/CCc3cnc[n-]3)n1)C2

>  <Energy>  (17) 
93.28672045137301

>  <Genealogy>  (17) 
c1ccc2c(c1)CCN(c1nc([NH2+]CCc3cnc[n-]3)nc(N3CC[NH2+]CC3)n1)C2 (protonated)
c1ccc2c(c1)CCN(c1nc(N3CC[NH2+]CC3)[nH]c(=[NH+]CCc3cnc[n-]3)n1)C2 (tautomer)
c1ccc2c(c1)CCN(c1nc(N3CC[NH2+]CC3)[nH]/c(=[NH+]/CCc3cnc[n-]3)n1)C2 (cis-trans isomerization)
c1ccc2c(c1)CCN(c1nc(N3CC[NH2+]CC3)[nH]/c(=[NH+]/CCc3cnc[n-]3)n1)C2 (3D coordinates assigned)
c1ccc2c(c1)CCN(c1nc(N3CC[NH2+]CC3)[nH]/c(=[NH+]/CCc3cnc[n-]3)n1)C2 (nonaromatic ring conformer: 93.28672045137301 kcal/mol)

>  <smiles>  (17) 
c1ccc2c(c1)CCN(c1nc(NCCc3cnc[nH]3)nc(N3CCNCC3)n1)C2

>  <score_type>  (17) 
oracle

>  <origin>  (17) 
autodockgpu

>  <m_score__min__energy>  (17) 
-7.5700000000000003

>  <m_primary>  (17) 
energy

>  <meeko>  (17) 
{"free_energy": -5.88, "intermolecular_energy": -7.67, "internal_energy": -2.69, "cluster_size": 1, "cluster_id": 6, "rank_in_cluster": 1}

>  <energy>  (17) 
-6.14

>  <cluster_rmsd>  (17) 
0.0

>  <rmsd>  (17) 
273.07

>  <cluster>  (17) 
5

$$$$
IEUOTYZOLCKWKV-RTROOMJONA-P
     RDKit          3D

 58 62  0  0  0  0  0  0  0  0999 V2000
  147.3380   74.3939  216.7978 H   0  0  0  0  0  0  0  0  0  0  0  0
  146.4940   73.7090  216.9670 C   0  0  0  0  0  0  0  0  0  0  0  0
  145.5980   73.3900  216.0080 N   0  0  0  0  0  0  0  0  0  0  0  0
  144.7520   72.5420  216.6180 C   0  0  0  0  0  0  0  0  0  0  0  0
  143.8753   72.0675  216.1530 H   0  0  0  0  0  0  0  0  0  0  0  0
  145.1620   72.3650  217.9180 C   0  0  0  0  0  0  0  0  0  0  0  0
  144.4630   71.5490  218.9590 C   0  0  0  0  0  0  0  0  0  0  0  0
  145.1197   70.7245  219.2736 H   0  0  0  0  0  0  0  0  0  0  0  0
  143.5312   71.1503  218.5314 H   0  0  0  0  0  0  0  0  0  0  0  0
  144.1190   72.4120  220.1770 C   0  0  0  0  0  0  0  0  0  0  0  0
  144.5339   71.9413  221.0805 H   0  0  0  0  0  0  0  0  0  0  0  0
  143.0245   72.4918  220.2532 H   0  0  0  0  0  0  0  0  0  0  0  0
  144.6790   73.7620  220.0380 N   0  0  0  0  0  0  0  0  0  0  0  0
  145.6840   73.9150  220.2840 H   0  0  0  0  0  0  0  0  0  0  0  0
  143.9670   74.7730  219.6180 C   0  0  0  0  0  0  0  0  0  0  0  0
  143.1090   75.4070  220.4600 N   0  0  0  0  0  0  0  0  0  0  0  0
  142.3600   76.4560  220.0340 C   0  0  0  0  0  0  0  0  0  0  0  0
  141.4480   77.1140  220.9390 N   0  0  0  0  0  0  0  0  0  0  0  0
  141.6890   78.5320  221.2700 C   0  0  0  0  0  0  0  0  0  0  0  0
  142.7022   78.6234  221.6884 H   0  0  0  0  0  0  0  0  0  0  0  0
  141.5656   79.1045  220.3389 H   0  0  0  0  0  0  0  0  0  0  0  0
  140.7070   79.0990  222.2700 C   0  0  0  0  0  0  0  0  0  0  0  0
  140.9910   80.3240  222.8930 C   0  0  0  0  0  0  0  0  0  0  0  0
  141.9377   80.8408  222.6771 H   0  0  0  0  0  0  0  0  0  0  0  0
  140.0780   80.8910  223.7860 C   0  0  0  0  0  0  0  0  0  0  0  0
  140.3119   81.8467  224.2778 H   0  0  0  0  0  0  0  0  0  0  0  0
  138.8690   80.2460  224.0550 C   0  0  0  0  0  0  0  0  0  0  0  0
  138.1512   80.6942  224.7577 H   0  0  0  0  0  0  0  0  0  0  0  0
  138.5710   79.0320  223.4320 C   0  0  0  0  0  0  0  0  0  0  0  0
  137.6123   78.5326  223.6357 H   0  0  0  0  0  0  0  0  0  0  0  0
  139.4910   78.4460  222.5460 C   0  0  0  0  0  0  0  0  0  0  0  0
  139.1570   77.1620  221.8500 C   0  0  0  0  0  0  0  0  0  0  0  0
  138.4414   76.5922  222.4609 H   0  0  0  0  0  0  0  0  0  0  0  0
  138.7137   77.3883  220.8691 H   0  0  0  0  0  0  0  0  0  0  0  0
  140.4220   76.3320  221.6480 C   0  0  0  0  0  0  0  0  0  0  0  0
  140.8144   76.0266  222.6292 H   0  0  0  0  0  0  0  0  0  0  0  0
  140.1722   75.4464  221.0452 H   0  0  0  0  0  0  0  0  0  0  0  0
  142.4770   76.8710  218.7470 N   0  0  0  0  0  0  0  0  0  0  0  0
  143.3300   76.2560  217.8870 C   0  0  0  0  0  0  0  0  0  0  0  0
  143.4360   76.7270  216.5250 N   0  0  0  0  0  0  0  0  0  0  0  0
  144.1060   75.9040  215.5100 C   0  0  0  0  0  0  0  0  0  0  0  0
  144.8501   75.2575  215.9983 H   0  0  0  0  0  0  0  0  0  0  0  0
  143.3565   75.2862  214.9938 H   0  0  0  0  0  0  0  0  0  0  0  0
  144.8100   76.8050  214.4840 C   0  0  0  0  0  0  0  0  0  0  0  0
  145.6754   77.2758  214.9733 H   0  0  0  0  0  0  0  0  0  0  0  0
  145.0990   76.1611  213.6403 H   0  0  0  0  0  0  0  0  0  0  0  0
  143.9470   77.8770  213.9300 N   0  0  0  0  0  0  0  0  0  0  0  0
  144.4490   78.7930  214.0110 H   0  0  0  0  0  0  0  0  0  0  0  0
  143.7940   77.7010  212.9090 H   0  0  0  0  0  0  0  0  0  0  0  0
  142.6280   78.0080  214.5730 C   0  0  0  0  0  0  0  0  0  0  0  0
  142.1841   78.9722  214.2844 H   0  0  0  0  0  0  0  0  0  0  0  0
  141.9974   77.1706  214.2397 H   0  0  0  0  0  0  0  0  0  0  0  0
  142.7380   77.9480  216.1000 C   0  0  0  0  0  0  0  0  0  0  0  0
  143.2973   78.8257  216.4561 H   0  0  0  0  0  0  0  0  0  0  0  0
  141.7241   77.9413  216.5267 H   0  0  0  0  0  0  0  0  0  0  0  0
  144.0750   75.2010  218.3280 N   0  0  0  0  0  0  0  0  0  0  0  0
  144.7210   74.7040  217.6750 H   0  0  0  0  0  0  0  0  0  0  0  0
  146.2570   73.1090  218.1520 N   0  0  0  0  0  0  0  0  0  0  0  0
  1  2  1  0
  2  3  2  0
  3  4  1  0
  4  5  1  0
  4  6  2  0
  6  7  1  0
  7  8  1  0
  7  9  1  0
  7 10  1  0
 10 11  1  0
 10 12  1  0
 10 13  1  0
 13 14  1  0
 13 15  2  0
 15 16  1  0
 16 17  2  0
 17 18  1  0
 18 19  1  0
 19 20  1  0
 19 21  1  0
 19 22  1  0
 22 23  2  0
 23 24  1  0
 23 25  1  0
 25 26  1  0
 25 27  2  0
 27 28  1  0
 27 29  1  0
 29 30  1  0
 29 31  2  0
 31 32  1  0
 32 33  1  0
 32 34  1  0
 32 35  1  0
 35 36  1  0
 35 37  1  0
 17 38  1  0
 38 39  2  0
 39 40  1  0
 40 41  1  0
 41 42  1  0
 41 43  1  0
 41 44  1  0
 44 45  1  0
 44 46  1  0
 44 47  1  0
 47 48  1  0
 47 49  1  0
 47 50  1  0
 50 51  1  0
 50 52  1  0
 50 53  1  0
 53 54  1  0
 53 55  1  0
 39 56  1  0
 56 57  1  0
  6 58  1  0
 58  2  1  0
 56 15  1  0
 35 18  1  0
 53 40  1  0
 31 22  1  0
M  CHG  3  13   1  47   1  58  -1
M  END
>  <UniqueID>  (18) 
534

>  <SMILES>  (18) 
c1ccc2c(c1)CCN(c1nc(N3CC[NH2+]CC3)[nH]/c(=[NH+]/CCc3cnc[n-]3)n1)C2

>  <Energy>  (18) 
93.28672045137301

>  <Genealogy>  (18) 
c1ccc2c(c1)CCN(c1nc([NH2+]CCc3cnc[n-]3)nc(N3CC[NH2+]CC3)n1)C2 (protonated)
c1ccc2c(c1)CCN(c1nc(N3CC[NH2+]CC3)[nH]c(=[NH+]CCc3cnc[n-]3)n1)C2 (tautomer)
c1ccc2c(c1)CCN(c1nc(N3CC[NH2+]CC3)[nH]/c(=[NH+]/CCc3cnc[n-]3)n1)C2 (cis-trans isomerization)
c1ccc2c(c1)CCN(c1nc(N3CC[NH2+]CC3)[nH]/c(=[NH+]/CCc3cnc[n-]3)n1)C2 (3D coordinates assigned)
c1ccc2c(c1)CCN(c1nc(N3CC[NH2+]CC3)[nH]/c(=[NH+]/CCc3cnc[n-]3)n1)C2 (nonaromatic ring conformer: 93.28672045137301 kcal/mol)

>  <smiles>  (18) 
c1ccc2c(c1)CCN(c1nc(NCCc3cnc[nH]3)nc(N3CCNCC3)n1)C2

>  <score_type>  (18) 
oracle

>  <origin>  (18) 
autodockgpu

>  <m_score__min__energy>  (18) 
-7.5700000000000003

>  <m_primary>  (18) 
energy

>  <meeko>  (18) 
{"free_energy": -6.76, "intermolecular_energy": -8.55, "internal_energy": -2.63, "cluster_size": 4, "cluster_id": 3, "rank_in_cluster": 4}

>  <energy>  (18) 
-6.12

>  <cluster_rmsd>  (18) 
0.14

>  <rmsd>  (18) 
273.07

>  <cluster>  (18) 
5

$$$$
IEUOTYZOLCKWKV-RTROOMJONA-P
     RDKit          3D

 58 62  0  0  0  0  0  0  0  0999 V2000
  140.7291   77.1179  217.9404 H   0  0  0  0  0  0  0  0  0  0  0  0
  140.8690   77.3820  218.9990 C   0  0  0  0  0  0  0  0  0  0  0  0
  142.0800   77.6190  219.5460 N   0  0  0  0  0  0  0  0  0  0  0  0
  141.8090   77.9020  220.8320 C   0  0  0  0  0  0  0  0  0  0  0  0
  142.5535   78.1443  221.6047 H   0  0  0  0  0  0  0  0  0  0  0  0
  140.4500   77.8390  221.0230 C   0  0  0  0  0  0  0  0  0  0  0  0
  139.7320   78.0240  222.3240 C   0  0  0  0  0  0  0  0  0  0  0  0
  139.0717   78.9008  222.2514 H   0  0  0  0  0  0  0  0  0  0  0  0
  140.4747   78.1729  223.1216 H   0  0  0  0  0  0  0  0  0  0  0  0
  138.8920   76.7870  222.6550 C   0  0  0  0  0  0  0  0  0  0  0  0
  137.8454   77.0916  222.8026 H   0  0  0  0  0  0  0  0  0  0  0  0
  139.2914   76.3262  223.5705 H   0  0  0  0  0  0  0  0  0  0  0  0
  138.9570   75.8020  221.5680 N   0  0  0  0  0  0  0  0  0  0  0  0
  138.3040   75.9070  220.7580 H   0  0  0  0  0  0  0  0  0  0  0  0
  139.8000   74.8060  221.5780 C   0  0  0  0  0  0  0  0  0  0  0  0
  139.5600   73.7090  222.3450 N   0  0  0  0  0  0  0  0  0  0  0  0
  140.4320   72.6680  222.3680 C   0  0  0  0  0  0  0  0  0  0  0  0
  140.1650   71.5140  223.1920 N   0  0  0  0  0  0  0  0  0  0  0  0
  140.6750   71.5080  224.5770 C   0  0  0  0  0  0  0  0  0  0  0  0
  141.7649   71.6532  224.5463 H   0  0  0  0  0  0  0  0  0  0  0  0
  140.1586   72.3178  225.1132 H   0  0  0  0  0  0  0  0  0  0  0  0
  140.3850   70.2270  225.3260 C   0  0  0  0  0  0  0  0  0  0  0  0
  141.0590   69.9670  226.5290 C   0  0  0  0  0  0  0  0  0  0  0  0
  141.8150   70.6766  226.8963 H   0  0  0  0  0  0  0  0  0  0  0  0
  140.7760   68.8130  227.2630 C   0  0  0  0  0  0  0  0  0  0  0  0
  141.3157   68.6117  228.2001 H   0  0  0  0  0  0  0  0  0  0  0  0
  139.8080   67.9140  226.8080 C   0  0  0  0  0  0  0  0  0  0  0  0
  139.5855   67.0058  227.3874 H   0  0  0  0  0  0  0  0  0  0  0  0
  139.1230   68.1680  225.6180 C   0  0  0  0  0  0  0  0  0  0  0  0
  138.3527   67.4649  225.2683 H   0  0  0  0  0  0  0  0  0  0  0  0
  139.4140   69.3180  224.8660 C   0  0  0  0  0  0  0  0  0  0  0  0
  138.6540   69.6100  223.6070 C   0  0  0  0  0  0  0  0  0  0  0  0
  138.2893   68.6665  223.1748 H   0  0  0  0  0  0  0  0  0  0  0  0
  137.8034   70.2662  223.8432 H   0  0  0  0  0  0  0  0  0  0  0  0
  139.5610   70.3100  222.5990 C   0  0  0  0  0  0  0  0  0  0  0  0
  140.3599   69.6193  222.2913 H   0  0  0  0  0  0  0  0  0  0  0  0
  138.9586   70.6084  221.7283 H   0  0  0  0  0  0  0  0  0  0  0  0
  141.5570   72.7330  221.6110 N   0  0  0  0  0  0  0  0  0  0  0  0
  141.8180   73.8170  220.8340 C   0  0  0  0  0  0  0  0  0  0  0  0
  143.0220   73.8510  220.0350 N   0  0  0  0  0  0  0  0  0  0  0  0
  143.2400   74.9420  219.0770 C   0  0  0  0  0  0  0  0  0  0  0  0
  142.2678   75.3344  218.7442 H   0  0  0  0  0  0  0  0  0  0  0  0
  143.8173   75.7412  219.5648 H   0  0  0  0  0  0  0  0  0  0  0  0
  144.0230   74.4240  217.8610 C   0  0  0  0  0  0  0  0  0  0  0  0
  143.3618   73.7652  217.2789 H   0  0  0  0  0  0  0  0  0  0  0  0
  144.3484   75.3075  217.2922 H   0  0  0  0  0  0  0  0  0  0  0  0
  145.2480   73.6640  218.2110 N   0  0  0  0  0  0  0  0  0  0  0  0
  145.2410   72.7520  217.6940 H   0  0  0  0  0  0  0  0  0  0  0  0
  146.0870   74.1960  217.8830 H   0  0  0  0  0  0  0  0  0  0  0  0
  145.4170   73.3840  219.6470 C   0  0  0  0  0  0  0  0  0  0  0  0
  146.1862   72.6075  219.7714 H   0  0  0  0  0  0  0  0  0  0  0  0
  145.7168   74.3168  220.1470 H   0  0  0  0  0  0  0  0  0  0  0  0
  144.1110   72.8970  220.2830 C   0  0  0  0  0  0  0  0  0  0  0  0
  143.8414   71.9219  219.8512 H   0  0  0  0  0  0  0  0  0  0  0  0
  144.2601   72.8070  221.3691 H   0  0  0  0  0  0  0  0  0  0  0  0
  140.9350   74.8570  220.8220 N   0  0  0  0  0  0  0  0  0  0  0  0
  141.1290   75.7060  220.2470 H   0  0  0  0  0  0  0  0  0  0  0  0
  139.8460   77.4990  219.8710 N   0  0  0  0  0  0  0  0  0  0  0  0
  1  2  1  0
  2  3  2  0
  3  4  1  0
  4  5  1  0
  4  6  2  0
  6  7  1  0
  7  8  1  0
  7  9  1  0
  7 10  1  0
 10 11  1  0
 10 12  1  0
 10 13  1  0
 13 14  1  0
 13 15  2  0
 15 16  1  0
 16 17  2  0
 17 18  1  0
 18 19  1  0
 19 20  1  0
 19 21  1  0
 19 22  1  0
 22 23  2  0
 23 24  1  0
 23 25  1  0
 25 26  1  0
 25 27  2  0
 27 28  1  0
 27 29  1  0
 29 30  1  0
 29 31  2  0
 31 32  1  0
 32 33  1  0
 32 34  1  0
 32 35  1  0
 35 36  1  0
 35 37  1  0
 17 38  1  0
 38 39  2  0
 39 40  1  0
 40 41  1  0
 41 42  1  0
 41 43  1  0
 41 44  1  0
 44 45  1  0
 44 46  1  0
 44 47  1  0
 47 48  1  0
 47 49  1  0
 47 50  1  0
 50 51  1  0
 50 52  1  0
 50 53  1  0
 53 54  1  0
 53 55  1  0
 39 56  1  0
 56 57  1  0
  6 58  1  0
 58  2  1  0
 56 15  1  0
 35 18  1  0
 53 40  1  0
 31 22  1  0
M  CHG  3  13   1  47   1  58  -1
M  END
>  <UniqueID>  (19) 
534

>  <SMILES>  (19) 
c1ccc2c(c1)CCN(c1nc(N3CC[NH2+]CC3)[nH]/c(=[NH+]/CCc3cnc[n-]3)n1)C2

>  <Energy>  (19) 
93.28672045137301

>  <Genealogy>  (19) 
c1ccc2c(c1)CCN(c1nc([NH2+]CCc3cnc[n-]3)nc(N3CC[NH2+]CC3)n1)C2 (protonated)
c1ccc2c(c1)CCN(c1nc(N3CC[NH2+]CC3)[nH]c(=[NH+]CCc3cnc[n-]3)n1)C2 (tautomer)
c1ccc2c(c1)CCN(c1nc(N3CC[NH2+]CC3)[nH]/c(=[NH+]/CCc3cnc[n-]3)n1)C2 (cis-trans isomerization)
c1ccc2c(c1)CCN(c1nc(N3CC[NH2+]CC3)[nH]/c(=[NH+]/CCc3cnc[n-]3)n1)C2 (3D coordinates assigned)
c1ccc2c(c1)CCN(c1nc(N3CC[NH2+]CC3)[nH]/c(=[NH+]/CCc3cnc[n-]3)n1)C2 (nonaromatic ring conformer: 93.28672045137301 kcal/mol)

>  <smiles>  (19) 
c1ccc2c(c1)CCN(c1nc(NCCc3cnc[nH]3)nc(N3CCNCC3)n1)C2

>  <score_type>  (19) 
oracle

>  <origin>  (19) 
autodockgpu

>  <m_score__min__energy>  (19) 
-7.5700000000000003

>  <m_primary>  (19) 
energy

>  <meeko>  (19) 
{"free_energy": -6.3, "intermolecular_energy": -8.09, "internal_energy": -2.64, "cluster_size": 6, "cluster_id": 1, "rank_in_cluster": 6}

>  <energy>  (19) 
-5.88

>  <cluster_rmsd>  (19) 
0.0

>  <rmsd>  (19) 
275.06

>  <cluster>  (19) 
6

$$$$
IEUOTYZOLCKWKV-RTROOMJONA-P
     RDKit          3D

 58 62  0  0  0  0  0  0  0  0999 V2000
  138.8577   82.0706  220.3422 H   0  0  0  0  0  0  0  0  0  0  0  0
  139.7730   81.9830  220.9460 C   0  0  0  0  0  0  0  0  0  0  0  0
  140.9630   82.4900  220.5600 N   0  0  0  0  0  0  0  0  0  0  0  0
  141.7980   82.1720  221.5650 C   0  0  0  0  0  0  0  0  0  0  0  0
  142.8701   82.4145  221.6084 H   0  0  0  0  0  0  0  0  0  0  0  0
  141.0910   81.4940  222.5290 C   0  0  0  0  0  0  0  0  0  0  0  0
  141.6540   80.9040  223.7840 C   0  0  0  0  0  0  0  0  0  0  0  0
  141.1571   81.3604  224.6528 H   0  0  0  0  0  0  0  0  0  0  0  0
  142.7352   81.1038  223.8163 H   0  0  0  0  0  0  0  0  0  0  0  0
  141.4300   79.3890  223.8140 C   0  0  0  0  0  0  0  0  0  0  0  0
  140.9367   79.1167  224.7587 H   0  0  0  0  0  0  0  0  0  0  0  0
  142.4058   78.8881  223.7313 H   0  0  0  0  0  0  0  0  0  0  0  0
  140.5870   78.9610  222.6910 N   0  0  0  0  0  0  0  0  0  0  0  0
  139.5480   79.0430  222.7840 H   0  0  0  0  0  0  0  0  0  0  0  0
  141.0880   78.4850  221.5840 C   0  0  0  0  0  0  0  0  0  0  0  0
  141.4540   77.1780  221.4990 N   0  0  0  0  0  0  0  0  0  0  0  0
  141.9810   76.6730  220.3550 C   0  0  0  0  0  0  0  0  0  0  0  0
  142.3700   75.2850  220.2850 N   0  0  0  0  0  0  0  0  0  0  0  0
  143.7650   74.9640  219.9250 C   0  0  0  0  0  0  0  0  0  0  0  0
  143.9866   75.4238  218.9506 H   0  0  0  0  0  0  0  0  0  0  0  0
  144.4031   75.3574  220.7300 H   0  0  0  0  0  0  0  0  0  0  0  0
  144.0420   73.4820  219.8270 C   0  0  0  0  0  0  0  0  0  0  0  0
  145.2260   73.0430  219.2120 C   0  0  0  0  0  0  0  0  0  0  0  0
  145.9212   73.7768  218.7782 H   0  0  0  0  0  0  0  0  0  0  0  0
  145.5260   71.6800  219.1480 C   0  0  0  0  0  0  0  0  0  0  0  0
  146.4496   71.3435  218.6542 H   0  0  0  0  0  0  0  0  0  0  0  0
  144.6550   70.7440  219.7100 C   0  0  0  0  0  0  0  0  0  0  0  0
  144.8942   69.6714  219.6613 H   0  0  0  0  0  0  0  0  0  0  0  0
  143.4800   71.1700  220.3340 C   0  0  0  0  0  0  0  0  0  0  0  0
  142.8010   70.4318  220.7857 H   0  0  0  0  0  0  0  0  0  0  0  0
  143.1620   72.5370  220.3870 C   0  0  0  0  0  0  0  0  0  0  0  0
  141.9200   72.9980  221.0880 C   0  0  0  0  0  0  0  0  0  0  0  0
  141.1723   72.1914  221.0717 H   0  0  0  0  0  0  0  0  0  0  0  0
  142.1683   73.2569  222.1278 H   0  0  0  0  0  0  0  0  0  0  0  0
  141.3500   74.2290  220.3890 C   0  0  0  0  0  0  0  0  0  0  0  0
  141.0156   73.9488  219.3792 H   0  0  0  0  0  0  0  0  0  0  0  0
  140.5033   74.6109  220.9782 H   0  0  0  0  0  0  0  0  0  0  0  0
  142.1410   77.4920  219.2840 N   0  0  0  0  0  0  0  0  0  0  0  0
  141.7810   78.8010  219.3420 C   0  0  0  0  0  0  0  0  0  0  0  0
  141.9590   79.6440  218.1820 N   0  0  0  0  0  0  0  0  0  0  0  0
  141.0770   79.4920  217.0180 C   0  0  0  0  0  0  0  0  0  0  0  0
  140.7019   78.4587  216.9778 H   0  0  0  0  0  0  0  0  0  0  0  0
  140.2336   80.1920  217.1106 H   0  0  0  0  0  0  0  0  0  0  0  0
  141.8510   79.8030  215.7270 C   0  0  0  0  0  0  0  0  0  0  0  0
  142.5691   78.9889  215.5495 H   0  0  0  0  0  0  0  0  0  0  0  0
  141.1060   79.8930  214.9227 H   0  0  0  0  0  0  0  0  0  0  0  0
  142.5980   81.0840  215.7660 N   0  0  0  0  0  0  0  0  0  0  0  0
  143.5870   80.9090  215.4690 H   0  0  0  0  0  0  0  0  0  0  0  0
  142.1800   81.7450  215.0700 H   0  0  0  0  0  0  0  0  0  0  0  0
  142.6160   81.7540  217.0780 C   0  0  0  0  0  0  0  0  0  0  0  0
  143.3952   82.5304  217.0719 H   0  0  0  0  0  0  0  0  0  0  0  0
  141.6238   82.1954  217.2531 H   0  0  0  0  0  0  0  0  0  0  0  0
  142.9080   80.7650  218.2110 C   0  0  0  0  0  0  0  0  0  0  0  0
  143.9301   80.3754  218.0952 H   0  0  0  0  0  0  0  0  0  0  0  0
  142.8050   81.2896  219.1724 H   0  0  0  0  0  0  0  0  0  0  0  0
  141.2550   79.2960  220.4990 N   0  0  0  0  0  0  0  0  0  0  0  0
  140.9910   80.3040  220.5680 H   0  0  0  0  0  0  0  0  0  0  0  0
  139.8110   81.3590  222.1410 N   0  0  0  0  0  0  0  0  0  0  0  0
  1  2  1  0
  2  3  2  0
  3  4  1  0
  4  5  1  0
  4  6  2  0
  6  7  1  0
  7  8  1  0
  7  9  1  0
  7 10  1  0
 10 11  1  0
 10 12  1  0
 10 13  1  0
 13 14  1  0
 13 15  2  0
 15 16  1  0
 16 17  2  0
 17 18  1  0
 18 19  1  0
 19 20  1  0
 19 21  1  0
 19 22  1  0
 22 23  2  0
 23 24  1  0
 23 25  1  0
 25 26  1  0
 25 27  2  0
 27 28  1  0
 27 29  1  0
 29 30  1  0
 29 31  2  0
 31 32  1  0
 32 33  1  0
 32 34  1  0
 32 35  1  0
 35 36  1  0
 35 37  1  0
 17 38  1  0
 38 39  2  0
 39 40  1  0
 40 41  1  0
 41 42  1  0
 41 43  1  0
 41 44  1  0
 44 45  1  0
 44 46  1  0
 44 47  1  0
 47 48  1  0
 47 49  1  0
 47 50  1  0
 50 51  1  0
 50 52  1  0
 50 53  1  0
 53 54  1  0
 53 55  1  0
 39 56  1  0
 56 57  1  0
  6 58  1  0
 58  2  1  0
 56 15  1  0
 35 18  1  0
 53 40  1  0
 31 22  1  0
M  CHG  3  13   1  47   1  58  -1
M  END
>  <UniqueID>  (20) 
534

>  <SMILES>  (20) 
c1ccc2c(c1)CCN(c1nc(N3CC[NH2+]CC3)[nH]/c(=[NH+]/CCc3cnc[n-]3)n1)C2

>  <Energy>  (20) 
93.28672045137301

>  <Genealogy>  (20) 
c1ccc2c(c1)CCN(c1nc([NH2+]CCc3cnc[n-]3)nc(N3CC[NH2+]CC3)n1)C2 (protonated)
c1ccc2c(c1)CCN(c1nc(N3CC[NH2+]CC3)[nH]c(=[NH+]CCc3cnc[n-]3)n1)C2 (tautomer)
c1ccc2c(c1)CCN(c1nc(N3CC[NH2+]CC3)[nH]/c(=[NH+]/CCc3cnc[n-]3)n1)C2 (cis-trans isomerization)
c1ccc2c(c1)CCN(c1nc(N3CC[NH2+]CC3)[nH]/c(=[NH+]/CCc3cnc[n-]3)n1)C2 (3D coordinates assigned)
c1ccc2c(c1)CCN(c1nc(N3CC[NH2+]CC3)[nH]/c(=[NH+]/CCc3cnc[n-]3)n1)C2 (nonaromatic ring conformer: 93.28672045137301 kcal/mol)

>  <smiles>  (20) 
c1ccc2c(c1)CCN(c1nc(NCCc3cnc[nH]3)nc(N3CCNCC3)n1)C2

>  <score_type>  (20) 
oracle

>  <origin>  (20) 
autodockgpu

>  <m_score__min__energy>  (20) 
-7.5700000000000003

>  <m_primary>  (20) 
energy

>  <meeko>  (20) 
{"free_energy": -6.35, "intermolecular_energy": -8.14, "internal_energy": -2.74, "cluster_size": 5, "cluster_id": 4, "rank_in_cluster": 5}

>  <energy>  (20) 
-5.85

>  <cluster_rmsd>  (20) 
0.0

>  <rmsd>  (20) 
271.66

>  <cluster>  (20) 
7

$$$$
PEEFGLWBFXZENK-UFTUCYPHNA-O
     RDKit          3D

 58 62  0  0  0  0  0  0  0  0999 V2000
  140.0009   78.1129  223.9322 H   0  0  0  0  0  0  0  0  0  0  0  0
  140.8690   78.6140  223.4790 C   0  0  0  0  0  0  0  0  0  0  0  0
  141.6990   79.4660  224.1140 N   0  0  0  0  0  0  0  0  0  0  0  0
  142.5980   79.8200  223.1730 C   0  0  0  0  0  0  0  0  0  0  0  0
  143.4282   80.5179  223.3564 H   0  0  0  0  0  0  0  0  0  0  0  0
  142.3710   79.2280  221.9850 N   0  0  0  0  0  0  0  0  0  0  0  0
  142.9260   79.3370  221.1110 H   0  0  0  0  0  0  0  0  0  0  0  0
  141.2810   78.4710  222.1730 C   0  0  0  0  0  0  0  0  0  0  0  0
  140.6680   77.5790  221.1340 C   0  0  0  0  0  0  0  0  0  0  0  0
  141.3875   76.7898  220.8703 H   0  0  0  0  0  0  0  0  0  0  0  0
  140.4205   78.1916  220.2545 H   0  0  0  0  0  0  0  0  0  0  0  0
  139.3760   76.9260  221.6470 C   0  0  0  0  0  0  0  0  0  0  0  0
  138.5174   77.5379  221.3332 H   0  0  0  0  0  0  0  0  0  0  0  0
  139.4331   76.8638  222.7438 H   0  0  0  0  0  0  0  0  0  0  0  0
  139.2120   75.5670  221.1170 N   0  0  0  0  0  0  0  0  0  0  0  0
  138.4550   75.4020  220.4140 H   0  0  0  0  0  0  0  0  0  0  0  0
  139.9780   74.5560  221.4320 C   0  0  0  0  0  0  0  0  0  0  0  0
  139.5300   73.6530  222.3430 N   0  0  0  0  0  0  0  0  0  0  0  0
  140.2760   72.5730  222.6880 C   0  0  0  0  0  0  0  0  0  0  0  0
  139.7790   71.6110  223.6440 N   0  0  0  0  0  0  0  0  0  0  0  0
  140.3470   71.5500  224.9990 C   0  0  0  0  0  0  0  0  0  0  0  0
  141.4059   71.8445  224.9533 H   0  0  0  0  0  0  0  0  0  0  0  0
  139.7699   72.2334  225.6392 H   0  0  0  0  0  0  0  0  0  0  0  0
  140.2520   70.1650  225.5930 C   0  0  0  0  0  0  0  0  0  0  0  0
  140.9100   69.9010  226.8050 C   0  0  0  0  0  0  0  0  0  0  0  0
  141.4878   70.6966  227.2981 H   0  0  0  0  0  0  0  0  0  0  0  0
  140.8350   68.6340  227.3880 C   0  0  0  0  0  0  0  0  0  0  0  0
  141.3617   68.4331  228.3326 H   0  0  0  0  0  0  0  0  0  0  0  0
  140.0940   67.6220  226.7760 C   0  0  0  0  0  0  0  0  0  0  0  0
  140.0407   66.6243  227.2362 H   0  0  0  0  0  0  0  0  0  0  0  0
  139.4200   67.8760  225.5790 C   0  0  0  0  0  0  0  0  0  0  0  0
  138.8393   67.0749  225.0983 H   0  0  0  0  0  0  0  0  0  0  0  0
  139.4790   69.1480  224.9850 C   0  0  0  0  0  0  0  0  0  0  0  0
  138.8010   69.3680  223.6580 C   0  0  0  0  0  0  0  0  0  0  0  0
  139.4408   68.9636  222.8598 H   0  0  0  0  0  0  0  0  0  0  0  0
  137.8278   68.8558  223.6821 H   0  0  0  0  0  0  0  0  0  0  0  0
  138.5510   70.8500  223.3880 C   0  0  0  0  0  0  0  0  0  0  0  0
  138.2486   70.9851  222.3390 H   0  0  0  0  0  0  0  0  0  0  0  0
  137.7518   71.2124  224.0513 H   0  0  0  0  0  0  0  0  0  0  0  0
  141.4860   72.3950  222.1000 N   0  0  0  0  0  0  0  0  0  0  0  0
  141.9560   73.2810  221.1840 C   0  0  0  0  0  0  0  0  0  0  0  0
  143.2310   73.0520  220.5560 N   0  0  0  0  0  0  0  0  0  0  0  0
  143.3530   71.9930  219.5480 C   0  0  0  0  0  0  0  0  0  0  0  0
  142.6827   71.1611  219.8100 H   0  0  0  0  0  0  0  0  0  0  0  0
  143.0766   72.3969  218.5629 H   0  0  0  0  0  0  0  0  0  0  0  0
  144.7950   71.4860  219.4980 C   0  0  0  0  0  0  0  0  0  0  0  0
  145.0321   70.9742  220.4424 H   0  0  0  0  0  0  0  0  0  0  0  0
  144.8987   70.7888  218.6535 H   0  0  0  0  0  0  0  0  0  0  0  0
  145.7250   72.6050  219.3080 N   0  0  0  0  0  0  0  0  0  0  0  0
  146.6930   72.2120  219.3080 H   0  0  0  0  0  0  0  0  0  0  0  0
  145.6340   73.5460  220.4300 C   0  0  0  0  0  0  0  0  0  0  0  0
  145.8714   73.0180  221.3653 H   0  0  0  0  0  0  0  0  0  0  0  0
  146.3486   74.3659  220.2653 H   0  0  0  0  0  0  0  0  0  0  0  0
  144.2260   74.1300  220.5260 C   0  0  0  0  0  0  0  0  0  0  0  0
  144.1424   74.7273  221.4459 H   0  0  0  0  0  0  0  0  0  0  0  0
  144.0404   74.7653  219.6474 H   0  0  0  0  0  0  0  0  0  0  0  0
  141.2080   74.3730  220.8610 N   0  0  0  0  0  0  0  0  0  0  0  0
  141.6080   75.0730  220.2010 H   0  0  0  0  0  0  0  0  0  0  0  0
  1  2  1  0
  2  3  1  0
  3  4  2  0
  4  5  1  0
  4  6  1  0
  6  7  1  0
  6  8  1  0
  8  9  1  0
  9 10  1  0
  9 11  1  0
  9 12  1  0
 12 13  1  0
 12 14  1  0
 12 15  1  0
 15 16  1  0
 15 17  2  0
 17 18  1  0
 18 19  2  0
 19 20  1  0
 20 21  1  0
 21 22  1  0
 21 23  1  0
 21 24  1  0
 24 25  2  0
 25 26  1  0
 25 27  1  0
 27 28  1  0
 27 29  2  0
 29 30  1  0
 29 31  1  0
 31 32  1  0
 31 33  2  0
 33 34  1  0
 34 35  1  0
 34 36  1  0
 34 37  1  0
 37 38  1  0
 37 39  1  0
 19 40  1  0
 40 41  2  0
 41 42  1  0
 42 43  1  0
 43 44  1  0
 43 45  1  0
 43 46  1  0
 46 47  1  0
 46 48  1  0
 46 49  1  0
 49 50  1  0
 49 51  1  0
 51 52  1  0
 51 53  1  0
 51 54  1  0
 54 55  1  0
 54 56  1  0
 41 57  1  0
 57 58  1  0
  8  2  2  0
 57 17  1  0
 37 20  1  0
 54 42  1  0
 33 24  1  0
M  CHG  1  15   1
M  END
>  <UniqueID>  (21) 
535

>  <SMILES>  (21) 
c1ccc2c(c1)CCN(c1nc(N3CCNCC3)[nH]/c(=[NH+]\CCc3cnc[nH]3)n1)C2

>  <Energy>  (21) 
93.63209805943227

>  <Genealogy>  (21) 
c1ccc2c(c1)CCN(c1nc([NH2+]CCc3cnc[nH]3)nc(N3CCNCC3)n1)C2 (protonated)
c1ccc2c(c1)CCN(c1nc(N3CCNCC3)[nH]c(=[NH+]CCc3cnc[nH]3)n1)C2 (tautomer)
c1ccc2c(c1)CCN(c1nc(N3CCNCC3)[nH]/c(=[NH+]\CCc3cnc[nH]3)n1)C2 (cis-trans isomerization)
c1ccc2c(c1)CCN(c1nc(N3CCNCC3)[nH]/c(=[NH+]\CCc3cnc[nH]3)n1)C2 (3D coordinates assigned)
c1ccc2c(c1)CCN(c1nc(N3CCNCC3)[nH]/c(=[NH+]\CCc3cnc[nH]3)n1)C2 (nonaromatic ring conformer: 93.63209805943227 kcal/mol)

>  <smiles>  (21) 
c1ccc2c(c1)CCN(c1nc(NCCc3cnc[nH]3)nc(N3CCNCC3)n1)C2

>  <score_type>  (21) 
oracle

>  <origin>  (21) 
autodockgpu

>  <m_score__min__energy>  (21) 
-9.0700000000000003

>  <m_primary>  (21) 
energy

>  <meeko>  (21) 
{"free_energy": -8.69, "intermolecular_energy": -10.48, "internal_energy": -0.28, "cluster_size": 18, "cluster_id": 1, "rank_in_cluster": 7}

>  <energy>  (21) 
-9.07

>  <cluster_rmsd>  (21) 
0.0

>  <rmsd>  (21) 
270.16

>  <cluster>  (21) 
1

$$$$
PEEFGLWBFXZENK-UFTUCYPHNA-O
     RDKit          3D

 58 62  0  0  0  0  0  0  0  0999 V2000
  139.3309   79.4217  222.5231 H   0  0  0  0  0  0  0  0  0  0  0  0
  140.4140   79.4710  222.7090 C   0  0  0  0  0  0  0  0  0  0  0  0
  140.9920   79.9120  223.8440 N   0  0  0  0  0  0  0  0  0  0  0  0
  142.3150   79.7900  223.6130 C   0  0  0  0  0  0  0  0  0  0  0  0
  143.0880   80.0681  224.3445 H   0  0  0  0  0  0  0  0  0  0  0  0
  142.5900   79.2920  222.3930 N   0  0  0  0  0  0  0  0  0  0  0  0
  143.5290   79.1020  221.9870 H   0  0  0  0  0  0  0  0  0  0  0  0
  141.3940   79.0920  221.8190 C   0  0  0  0  0  0  0  0  0  0  0  0
  141.1860   78.4990  220.4570 C   0  0  0  0  0  0  0  0  0  0  0  0
  142.1251   78.0348  220.1215 H   0  0  0  0  0  0  0  0  0  0  0  0
  140.8819   79.3038  219.7716 H   0  0  0  0  0  0  0  0  0  0  0  0
  140.0800   77.4340  220.4730 C   0  0  0  0  0  0  0  0  0  0  0  0
  140.1626   76.8194  219.5644 H   0  0  0  0  0  0  0  0  0  0  0  0
  139.1078   77.9471  220.5121 H   0  0  0  0  0  0  0  0  0  0  0  0
  140.1880   76.5630  221.6490 N   0  0  0  0  0  0  0  0  0  0  0  0
  139.7770   76.9010  222.5510 H   0  0  0  0  0  0  0  0  0  0  0  0
  140.7230   75.3710  221.6360 C   0  0  0  0  0  0  0  0  0  0  0  0
  140.1160   74.3720  222.3290 N   0  0  0  0  0  0  0  0  0  0  0  0
  140.6160   73.1110  222.3280 C   0  0  0  0  0  0  0  0  0  0  0  0
  139.9500   72.0550  223.0550 N   0  0  0  0  0  0  0  0  0  0  0  0
  140.2970   71.7870  224.4590 C   0  0  0  0  0  0  0  0  0  0  0  0
  141.3574   72.0338  224.6157 H   0  0  0  0  0  0  0  0  0  0  0  0
  139.6455   72.4060  225.0933 H   0  0  0  0  0  0  0  0  0  0  0  0
  140.0730   70.3410  224.8330 C   0  0  0  0  0  0  0  0  0  0  0  0
  140.5260   69.8870  226.0820 C   0  0  0  0  0  0  0  0  0  0  0  0
  141.0408   70.5815  226.7622 H   0  0  0  0  0  0  0  0  0  0  0  0
  140.3270   68.5590  226.4660 C   0  0  0  0  0  0  0  0  0  0  0  0
  140.6931   68.2097  227.4427 H   0  0  0  0  0  0  0  0  0  0  0  0
  139.6650   67.6740  225.6140 C   0  0  0  0  0  0  0  0  0  0  0  0
  139.5139   66.6277  225.9180 H   0  0  0  0  0  0  0  0  0  0  0  0
  139.1940   68.1160  224.3750 C   0  0  0  0  0  0  0  0  0  0  0  0
  138.6761   67.4141  223.7048 H   0  0  0  0  0  0  0  0  0  0  0  0
  139.3780   69.4520  223.9800 C   0  0  0  0  0  0  0  0  0  0  0  0
  138.9230   69.8790  222.6090 C   0  0  0  0  0  0  0  0  0  0  0  0
  139.6693   69.5541  221.8690 H   0  0  0  0  0  0  0  0  0  0  0  0
  137.9447   69.4155  222.4139 H   0  0  0  0  0  0  0  0  0  0  0  0
  138.7580   71.3940  222.5120 C   0  0  0  0  0  0  0  0  0  0  0  0
  138.6282   71.6813  221.4581 H   0  0  0  0  0  0  0  0  0  0  0  0
  137.8742   71.7028  223.0895 H   0  0  0  0  0  0  0  0  0  0  0  0
  141.7390   72.8490  221.6120 N   0  0  0  0  0  0  0  0  0  0  0  0
  142.3630   73.8290  220.9080 C   0  0  0  0  0  0  0  0  0  0  0  0
  143.5370   73.5160  220.1340 N   0  0  0  0  0  0  0  0  0  0  0  0
  144.7390   73.0330  220.8230 C   0  0  0  0  0  0  0  0  0  0  0  0
  144.8102   73.5114  221.8110 H   0  0  0  0  0  0  0  0  0  0  0  0
  144.6742   71.9414  220.9424 H   0  0  0  0  0  0  0  0  0  0  0  0
  145.9830   73.3770  220.0020 C   0  0  0  0  0  0  0  0  0  0  0  0
  146.1158   74.4688  219.9858 H   0  0  0  0  0  0  0  0  0  0  0  0
  146.8583   72.8959  220.4629 H   0  0  0  0  0  0  0  0  0  0  0  0
  145.8410   72.8870  218.6260 N   0  0  0  0  0  0  0  0  0  0  0  0
  146.6990   73.1700  218.1020 H   0  0  0  0  0  0  0  0  0  0  0  0
  144.6950   73.5260  217.9680 C   0  0  0  0  0  0  0  0  0  0  0  0
  144.8422   74.6161  217.9630 H   0  0  0  0  0  0  0  0  0  0  0  0
  144.6208   73.1484  216.9375 H   0  0  0  0  0  0  0  0  0  0  0  0
  143.4000   73.1970  218.7090 C   0  0  0  0  0  0  0  0  0  0  0  0
  142.5766   73.7882  218.2818 H   0  0  0  0  0  0  0  0  0  0  0  0
  143.1870   72.1233  218.6003 H   0  0  0  0  0  0  0  0  0  0  0  0
  141.8640   75.0960  220.9330 N   0  0  0  0  0  0  0  0  0  0  0  0
  142.3870   75.8470  220.4340 H   0  0  0  0  0  0  0  0  0  0  0  0
  1  2  1  0
  2  3  1  0
  3  4  2  0
  4  5  1  0
  4  6  1  0
  6  7  1  0
  6  8  1  0
  8  9  1  0
  9 10  1  0
  9 11  1  0
  9 12  1  0
 12 13  1  0
 12 14  1  0
 12 15  1  0
 15 16  1  0
 15 17  2  0
 17 18  1  0
 18 19  2  0
 19 20  1  0
 20 21  1  0
 21 22  1  0
 21 23  1  0
 21 24  1  0
 24 25  2  0
 25 26  1  0
 25 27  1  0
 27 28  1  0
 27 29  2  0
 29 30  1  0
 29 31  1  0
 31 32  1  0
 31 33  2  0
 33 34  1  0
 34 35  1  0
 34 36  1  0
 34 37  1  0
 37 38  1  0
 37 39  1  0
 19 40  1  0
 40 41  2  0
 41 42  1  0
 42 43  1  0
 43 44  1  0
 43 45  1  0
 43 46  1  0
 46 47  1  0
 46 48  1  0
 46 49  1  0
 49 50  1  0
 49 51  1  0
 51 52  1  0
 51 53  1  0
 51 54  1  0
 54 55  1  0
 54 56  1  0
 41 57  1  0
 57 58  1  0
  8  2  2  0
 57 17  1  0
 37 20  1  0
 54 42  1  0
 33 24  1  0
M  CHG  1  15   1
M  END
>  <UniqueID>  (22) 
535

>  <SMILES>  (22) 
c1ccc2c(c1)CCN(c1nc(N3CCNCC3)[nH]/c(=[NH+]\CCc3cnc[nH]3)n1)C2

>  <Energy>  (22) 
93.63209805943227

>  <Genealogy>  (22) 
c1ccc2c(c1)CCN(c1nc([NH2+]CCc3cnc[nH]3)nc(N3CCNCC3)n1)C2 (protonated)
c1ccc2c(c1)CCN(c1nc(N3CCNCC3)[nH]c(=[NH+]CCc3cnc[nH]3)n1)C2 (tautomer)
c1ccc2c(c1)CCN(c1nc(N3CCNCC3)[nH]/c(=[NH+]\CCc3cnc[nH]3)n1)C2 (cis-trans isomerization)
c1ccc2c(c1)CCN(c1nc(N3CCNCC3)[nH]/c(=[NH+]\CCc3cnc[nH]3)n1)C2 (3D coordinates assigned)
c1ccc2c(c1)CCN(c1nc(N3CCNCC3)[nH]/c(=[NH+]\CCc3cnc[nH]3)n1)C2 (nonaromatic ring conformer: 93.63209805943227 kcal/mol)

>  <smiles>  (22) 
c1ccc2c(c1)CCN(c1nc(NCCc3cnc[nH]3)nc(N3CCNCC3)n1)C2

>  <score_type>  (22) 
oracle

>  <origin>  (22) 
autodockgpu

>  <m_score__min__energy>  (22) 
-9.0700000000000003

>  <m_primary>  (22) 
energy

>  <meeko>  (22) 
{"free_energy": -8.21, "intermolecular_energy": -10.0, "internal_energy": -0.31, "cluster_size": 18, "cluster_id": 1, "rank_in_cluster": 13}

>  <energy>  (22) 
-9.06

>  <cluster_rmsd>  (22) 
0.11

>  <rmsd>  (22) 
270.09

>  <cluster>  (22) 
1

$$$$
PEEFGLWBFXZENK-UFTUCYPHNA-O
     RDKit          3D

 58 62  0  0  0  0  0  0  0  0999 V2000
  139.8807   80.7829  223.6034 H   0  0  0  0  0  0  0  0  0  0  0  0
  140.8610   80.3660  223.3290 C   0  0  0  0  0  0  0  0  0  0  0  0
  142.0550   80.8750  223.6910 N   0  0  0  0  0  0  0  0  0  0  0  0
  142.9570   80.0420  223.1330 C   0  0  0  0  0  0  0  0  0  0  0  0
  144.0452   80.1691  223.2310 H   0  0  0  0  0  0  0  0  0  0  0  0
  142.3830   79.0380  222.4430 N   0  0  0  0  0  0  0  0  0  0  0  0
  142.8650   78.2700  221.9310 H   0  0  0  0  0  0  0  0  0  0  0  0
  141.0630   79.2410  222.5610 C   0  0  0  0  0  0  0  0  0  0  0  0
  140.0040   78.3430  221.9930 C   0  0  0  0  0  0  0  0  0  0  0  0
  140.0720   78.3591  220.8952 H   0  0  0  0  0  0  0  0  0  0  0  0
  139.0225   78.7094  222.3284 H   0  0  0  0  0  0  0  0  0  0  0  0
  140.1740   76.8980  222.4830 C   0  0  0  0  0  0  0  0  0  0  0  0
  139.2815   76.6079  223.0569 H   0  0  0  0  0  0  0  0  0  0  0  0
  141.0760   76.8505  223.1108 H   0  0  0  0  0  0  0  0  0  0  0  0
  140.3440   75.9650  221.3610 N   0  0  0  0  0  0  0  0  0  0  0  0
  140.0920   76.2990  220.4020 H   0  0  0  0  0  0  0  0  0  0  0  0
  140.8320   74.7580  221.4750 C   0  0  0  0  0  0  0  0  0  0  0  0
  140.2430   73.8920  222.3420 N   0  0  0  0  0  0  0  0  0  0  0  0
  140.6950   72.6210  222.4810 C   0  0  0  0  0  0  0  0  0  0  0  0
  140.0470   71.7060  223.3920 N   0  0  0  0  0  0  0  0  0  0  0  0
  140.4800   71.6260  224.7950 C   0  0  0  0  0  0  0  0  0  0  0  0
  141.5558   71.8493  224.8475 H   0  0  0  0  0  0  0  0  0  0  0  0
  139.8927   72.3546  225.3730 H   0  0  0  0  0  0  0  0  0  0  0  0
  140.2370   70.2580  225.3870 C   0  0  0  0  0  0  0  0  0  0  0  0
  140.7590   69.9670  226.6580 C   0  0  0  0  0  0  0  0  0  0  0  0
  141.3393   70.7295  227.1983 H   0  0  0  0  0  0  0  0  0  0  0  0
  140.5460   68.7160  227.2400 C   0  0  0  0  0  0  0  0  0  0  0  0
  140.9660   68.4942  228.2322 H   0  0  0  0  0  0  0  0  0  0  0  0
  139.8020   67.7460  226.5670 C   0  0  0  0  0  0  0  0  0  0  0  0
  139.6405   66.7599  227.0268 H   0  0  0  0  0  0  0  0  0  0  0  0
  139.2620   68.0270  225.3090 C   0  0  0  0  0  0  0  0  0  0  0  0
  138.6784   67.2587  224.7806 H   0  0  0  0  0  0  0  0  0  0  0  0
  139.4600   69.2850  224.7150 C   0  0  0  0  0  0  0  0  0  0  0  0
  138.9270   69.5310  223.3280 C   0  0  0  0  0  0  0  0  0  0  0  0
  139.6116   69.0754  222.5974 H   0  0  0  0  0  0  0  0  0  0  0  0
  137.9243   69.0835  223.2625 H   0  0  0  0  0  0  0  0  0  0  0  0
  138.8020   71.0230  223.0250 C   0  0  0  0  0  0  0  0  0  0  0  0
  138.6103   71.1636  221.9510 H   0  0  0  0  0  0  0  0  0  0  0  0
  137.9690   71.4451  223.6063 H   0  0  0  0  0  0  0  0  0  0  0  0
  141.7500   72.2120  221.7310 N   0  0  0  0  0  0  0  0  0  0  0  0
  142.3540   73.0570  220.8550 C   0  0  0  0  0  0  0  0  0  0  0  0
  143.4540   72.5880  220.0530 N   0  0  0  0  0  0  0  0  0  0  0  0
  144.5260   73.5220  219.6920 C   0  0  0  0  0  0  0  0  0  0  0  0
  144.1027   74.5283  219.5574 H   0  0  0  0  0  0  0  0  0  0  0  0
  145.2772   73.5383  220.4954 H   0  0  0  0  0  0  0  0  0  0  0  0
  145.1920   73.0740  218.3900 C   0  0  0  0  0  0  0  0  0  0  0  0
  144.4739   73.1734  217.5627 H   0  0  0  0  0  0  0  0  0  0  0  0
  146.0729   73.7060  218.2039 H   0  0  0  0  0  0  0  0  0  0  0  0
  145.6230   71.6740  218.4910 N   0  0  0  0  0  0  0  0  0  0  0  0
  146.0440   71.4090  217.5720 H   0  0  0  0  0  0  0  0  0  0  0  0
  144.4700   70.7950  218.7140 C   0  0  0  0  0  0  0  0  0  0  0  0
  143.7616   70.9085  217.8802 H   0  0  0  0  0  0  0  0  0  0  0  0
  144.8220   69.7545  218.7734 H   0  0  0  0  0  0  0  0  0  0  0  0
  143.7680   71.1550  220.0230 C   0  0  0  0  0  0  0  0  0  0  0  0
  142.8358   70.5771  220.1061 H   0  0  0  0  0  0  0  0  0  0  0  0
  144.4346   70.9163  220.8648 H   0  0  0  0  0  0  0  0  0  0  0  0
  141.9060   74.3380  220.7390 N   0  0  0  0  0  0  0  0  0  0  0  0
  142.4170   74.9890  220.1060 H   0  0  0  0  0  0  0  0  0  0  0  0
  1  2  1  0
  2  3  1  0
  3  4  2  0
  4  5  1  0
  4  6  1  0
  6  7  1  0
  6  8  1  0
  8  9  1  0
  9 10  1  0
  9 11  1  0
  9 12  1  0
 12 13  1  0
 12 14  1  0
 12 15  1  0
 15 16  1  0
 15 17  2  0
 17 18  1  0
 18 19  2  0
 19 20  1  0
 20 21  1  0
 21 22  1  0
 21 23  1  0
 21 24  1  0
 24 25  2  0
 25 26  1  0
 25 27  1  0
 27 28  1  0
 27 29  2  0
 29 30  1  0
 29 31  1  0
 31 32  1  0
 31 33  2  0
 33 34  1  0
 34 35  1  0
 34 36  1  0
 34 37  1  0
 37 38  1  0
 37 39  1  0
 19 40  1  0
 40 41  2  0
 41 42  1  0
 42 43  1  0
 43 44  1  0
 43 45  1  0
 43 46  1  0
 46 47  1  0
 46 48  1  0
 46 49  1  0
 49 50  1  0
 49 51  1  0
 51 52  1  0
 51 53  1  0
 51 54  1  0
 54 55  1  0
 54 56  1  0
 41 57  1  0
 57 58  1  0
  8  2  2  0
 57 17  1  0
 37 20  1  0
 54 42  1  0
 33 24  1  0
M  CHG  1  15   1
M  END
>  <UniqueID>  (23) 
535

>  <SMILES>  (23) 
c1ccc2c(c1)CCN(c1nc(N3CCNCC3)[nH]/c(=[NH+]\CCc3cnc[nH]3)n1)C2

>  <Energy>  (23) 
93.63209805943227

>  <Genealogy>  (23) 
c1ccc2c(c1)CCN(c1nc([NH2+]CCc3cnc[nH]3)nc(N3CCNCC3)n1)C2 (protonated)
c1ccc2c(c1)CCN(c1nc(N3CCNCC3)[nH]c(=[NH+]CCc3cnc[nH]3)n1)C2 (tautomer)
c1ccc2c(c1)CCN(c1nc(N3CCNCC3)[nH]/c(=[NH+]\CCc3cnc[nH]3)n1)C2 (cis-trans isomerization)
c1ccc2c(c1)CCN(c1nc(N3CCNCC3)[nH]/c(=[NH+]\CCc3cnc[nH]3)n1)C2 (3D coordinates assigned)
c1ccc2c(c1)CCN(c1nc(N3CCNCC3)[nH]/c(=[NH+]\CCc3cnc[nH]3)n1)C2 (nonaromatic ring conformer: 93.63209805943227 kcal/mol)

>  <smiles>  (23) 
c1ccc2c(c1)CCN(c1nc(NCCc3cnc[nH]3)nc(N3CCNCC3)n1)C2

>  <score_type>  (23) 
oracle

>  <origin>  (23) 
autodockgpu

>  <m_score__min__energy>  (23) 
-9.0700000000000003

>  <m_primary>  (23) 
energy

>  <meeko>  (23) 
{"free_energy": -8.63, "intermolecular_energy": -10.42, "internal_energy": -0.11, "cluster_size": 18, "cluster_id": 1, "rank_in_cluster": 8}

>  <energy>  (23) 
-9.01

>  <cluster_rmsd>  (23) 
0.33

>  <rmsd>  (23) 
270.1

>  <cluster>  (23) 
1

$$$$
PEEFGLWBFXZENK-UFTUCYPHNA-O
     RDKit          3D

 58 62  0  0  0  0  0  0  0  0999 V2000
  143.7204   74.0252  218.8058 H   0  0  0  0  0  0  0  0  0  0  0  0
  144.4660   73.7850  219.5780 C   0  0  0  0  0  0  0  0  0  0  0  0
  144.9690   74.6560  220.4750 N   0  0  0  0  0  0  0  0  0  0  0  0
  145.8320   73.9210  221.2050 C   0  0  0  0  0  0  0  0  0  0  0  0
  146.4259   74.3285  222.0364 H   0  0  0  0  0  0  0  0  0  0  0  0
  145.8900   72.6360  220.8090 N   0  0  0  0  0  0  0  0  0  0  0  0
  146.4750   71.8770  221.2160 H   0  0  0  0  0  0  0  0  0  0  0  0
  145.0330   72.5470  219.7810 C   0  0  0  0  0  0  0  0  0  0  0  0
  144.7180   71.2840  219.0350 C   0  0  0  0  0  0  0  0  0  0  0  0
  145.6028   70.6306  219.0478 H   0  0  0  0  0  0  0  0  0  0  0  0
  144.4444   71.5502  218.0034 H   0  0  0  0  0  0  0  0  0  0  0  0
  143.5370   70.5380  219.6710 C   0  0  0  0  0  0  0  0  0  0  0  0
  143.7290   70.4170  220.7473 H   0  0  0  0  0  0  0  0  0  0  0  0
  143.4413   69.5599  219.1770 H   0  0  0  0  0  0  0  0  0  0  0  0
  142.2770   71.2690  219.4910 N   0  0  0  0  0  0  0  0  0  0  0  0
  141.7910   71.1920  218.5670 H   0  0  0  0  0  0  0  0  0  0  0  0
  141.6960   71.9750  220.4250 C   0  0  0  0  0  0  0  0  0  0  0  0
  141.1750   71.3330  221.5040 N   0  0  0  0  0  0  0  0  0  0  0  0
  140.5840   72.0210  222.5130 C   0  0  0  0  0  0  0  0  0  0  0  0
  140.0510   71.3260  223.6620 N   0  0  0  0  0  0  0  0  0  0  0  0
  140.5540   71.6280  225.0100 C   0  0  0  0  0  0  0  0  0  0  0  0
  141.6109   71.9238  224.9363 H   0  0  0  0  0  0  0  0  0  0  0  0
  139.9407   72.4406  225.4266 H   0  0  0  0  0  0  0  0  0  0  0  0
  140.4440   70.4400  225.9360 C   0  0  0  0  0  0  0  0  0  0  0  0
  141.0460   70.5110  227.2030 C   0  0  0  0  0  0  0  0  0  0  0  0
  141.5908   71.4195  227.4993 H   0  0  0  0  0  0  0  0  0  0  0  0
  140.9570   69.4350  228.0890 C   0  0  0  0  0  0  0  0  0  0  0  0
  141.4398   69.4954  229.0755 H   0  0  0  0  0  0  0  0  0  0  0  0
  140.2570   68.2830  227.7260 C   0  0  0  0  0  0  0  0  0  0  0  0
  140.1922   67.4358  228.4246 H   0  0  0  0  0  0  0  0  0  0  0  0
  139.6390   68.2060  226.4760 C   0  0  0  0  0  0  0  0  0  0  0  0
  139.0907   67.2954  226.1927 H   0  0  0  0  0  0  0  0  0  0  0  0
  139.7130   69.2840  225.5780 C   0  0  0  0  0  0  0  0  0  0  0  0
  139.0980   69.1400  224.2100 C   0  0  0  0  0  0  0  0  0  0  0  0
  139.7801   68.5586  223.5723 H   0  0  0  0  0  0  0  0  0  0  0  0
  138.1302   68.6294  224.3221 H   0  0  0  0  0  0  0  0  0  0  0  0
  138.8460   70.4970  223.5560 C   0  0  0  0  0  0  0  0  0  0  0  0
  138.5944   70.3510  222.4952 H   0  0  0  0  0  0  0  0  0  0  0  0
  138.0112   70.9992  224.0669 H   0  0  0  0  0  0  0  0  0  0  0  0
  140.5230   73.3750  222.4390 N   0  0  0  0  0  0  0  0  0  0  0  0
  141.0390   74.0410  221.3740 C   0  0  0  0  0  0  0  0  0  0  0  0
  140.9850   75.4790  221.3350 N   0  0  0  0  0  0  0  0  0  0  0  0
  141.3750   76.1770  220.1050 C   0  0  0  0  0  0  0  0  0  0  0  0
  142.1813   75.6174  219.6082 H   0  0  0  0  0  0  0  0  0  0  0  0
  140.5040   76.2467  219.4368 H   0  0  0  0  0  0  0  0  0  0  0  0
  141.8670   77.5860  220.4390 C   0  0  0  0  0  0  0  0  0  0  0  0
  142.8070   77.5167  221.0061 H   0  0  0  0  0  0  0  0  0  0  0  0
  142.0306   78.1381  219.5018 H   0  0  0  0  0  0  0  0  0  0  0  0
  140.8680   78.3000  221.2440 N   0  0  0  0  0  0  0  0  0  0  0  0
  141.2620   79.2410  221.4680 H   0  0  0  0  0  0  0  0  0  0  0  0
  140.6420   77.6050  222.5160 C   0  0  0  0  0  0  0  0  0  0  0  0
  141.5918   77.5414  223.0673 H   0  0  0  0  0  0  0  0  0  0  0  0
  139.9001   78.1678  223.1015 H   0  0  0  0  0  0  0  0  0  0  0  0
  140.1090   76.1950  222.2690 C   0  0  0  0  0  0  0  0  0  0  0  0
  140.0708   75.6486  223.2229 H   0  0  0  0  0  0  0  0  0  0  0  0
  139.1006   76.2632  221.8349 H   0  0  0  0  0  0  0  0  0  0  0  0
  141.6120   73.3390  220.3560 N   0  0  0  0  0  0  0  0  0  0  0  0
  141.9500   73.8610  219.5200 H   0  0  0  0  0  0  0  0  0  0  0  0
  1  2  1  0
  2  3  1  0
  3  4  2  0
  4  5  1  0
  4  6  1  0
  6  7  1  0
  6  8  1  0
  8  9  1  0
  9 10  1  0
  9 11  1  0
  9 12  1  0
 12 13  1  0
 12 14  1  0
 12 15  1  0
 15 16  1  0
 15 17  2  0
 17 18  1  0
 18 19  2  0
 19 20  1  0
 20 21  1  0
 21 22  1  0
 21 23  1  0
 21 24  1  0
 24 25  2  0
 25 26  1  0
 25 27  1  0
 27 28  1  0
 27 29  2  0
 29 30  1  0
 29 31  1  0
 31 32  1  0
 31 33  2  0
 33 34  1  0
 34 35  1  0
 34 36  1  0
 34 37  1  0
 37 38  1  0
 37 39  1  0
 19 40  1  0
 40 41  2  0
 41 42  1  0
 42 43  1  0
 43 44  1  0
 43 45  1  0
 43 46  1  0
 46 47  1  0
 46 48  1  0
 46 49  1  0
 49 50  1  0
 49 51  1  0
 51 52  1  0
 51 53  1  0
 51 54  1  0
 54 55  1  0
 54 56  1  0
 41 57  1  0
 57 58  1  0
  8  2  2  0
 57 17  1  0
 37 20  1  0
 54 42  1  0
 33 24  1  0
M  CHG  1  15   1
M  END
>  <UniqueID>  (24) 
535

>  <SMILES>  (24) 
c1ccc2c(c1)CCN(c1nc(N3CCNCC3)[nH]/c(=[NH+]\CCc3cnc[nH]3)n1)C2

>  <Energy>  (24) 
93.63209805943227

>  <Genealogy>  (24) 
c1ccc2c(c1)CCN(c1nc([NH2+]CCc3cnc[nH]3)nc(N3CCNCC3)n1)C2 (protonated)
c1ccc2c(c1)CCN(c1nc(N3CCNCC3)[nH]c(=[NH+]CCc3cnc[nH]3)n1)C2 (tautomer)
c1ccc2c(c1)CCN(c1nc(N3CCNCC3)[nH]/c(=[NH+]\CCc3cnc[nH]3)n1)C2 (cis-trans isomerization)
c1ccc2c(c1)CCN(c1nc(N3CCNCC3)[nH]/c(=[NH+]\CCc3cnc[nH]3)n1)C2 (3D coordinates assigned)
c1ccc2c(c1)CCN(c1nc(N3CCNCC3)[nH]/c(=[NH+]\CCc3cnc[nH]3)n1)C2 (nonaromatic ring conformer: 93.63209805943227 kcal/mol)

>  <smiles>  (24) 
c1ccc2c(c1)CCN(c1nc(NCCc3cnc[nH]3)nc(N3CCNCC3)n1)C2

>  <score_type>  (24) 
oracle

>  <origin>  (24) 
autodockgpu

>  <m_score__min__energy>  (24) 
-9.0700000000000003

>  <m_primary>  (24) 
energy

>  <meeko>  (24) 
{"free_energy": -8.07, "intermolecular_energy": -9.86, "internal_energy": -0.62, "cluster_size": 18, "cluster_id": 1, "rank_in_cluster": 14}

>  <energy>  (24) 
-9.0

>  <cluster_rmsd>  (24) 
0.47

>  <rmsd>  (24) 
270.05

>  <cluster>  (24) 
1

$$$$
PEEFGLWBFXZENK-UFTUCYPHNA-O
     RDKit          3D

 58 62  0  0  0  0  0  0  0  0999 V2000
  139.9117   80.4637  223.8977 H   0  0  0  0  0  0  0  0  0  0  0  0
  140.9040   80.1800  223.5170 C   0  0  0  0  0  0  0  0  0  0  0  0
  142.0260   80.9170  223.6360 N   0  0  0  0  0  0  0  0  0  0  0  0
  142.9770   80.1770  223.0300 C   0  0  0  0  0  0  0  0  0  0  0  0
  144.0282   80.4894  222.9442 H   0  0  0  0  0  0  0  0  0  0  0  0
  142.5030   79.0150  222.5410 N   0  0  0  0  0  0  0  0  0  0  0  0
  143.0400   78.2780  222.0390 H   0  0  0  0  0  0  0  0  0  0  0  0
  141.1970   79.0150  222.8430 C   0  0  0  0  0  0  0  0  0  0  0  0
  140.2480   77.8940  222.5390 C   0  0  0  0  0  0  0  0  0  0  0  0
  139.2821   78.3176  222.2266 H   0  0  0  0  0  0  0  0  0  0  0  0
  140.1314   77.2835  223.4466 H   0  0  0  0  0  0  0  0  0  0  0  0
  140.7850   76.9940  221.4170 C   0  0  0  0  0  0  0  0  0  0  0  0
  141.8523   76.7975  221.5967 H   0  0  0  0  0  0  0  0  0  0  0  0
  140.6377   77.5132  220.4585 H   0  0  0  0  0  0  0  0  0  0  0  0
  140.0670   75.7140  221.3620 N   0  0  0  0  0  0  0  0  0  0  0  0
  139.0480   75.7320  221.1260 H   0  0  0  0  0  0  0  0  0  0  0  0
  140.6270   74.5480  221.5440 C   0  0  0  0  0  0  0  0  0  0  0  0
  140.0450   73.6670  222.4000 N   0  0  0  0  0  0  0  0  0  0  0  0
  140.5720   72.4340  222.6060 C   0  0  0  0  0  0  0  0  0  0  0  0
  139.9320   71.5020  223.5060 N   0  0  0  0  0  0  0  0  0  0  0  0
  140.2640   71.5070  224.9390 C   0  0  0  0  0  0  0  0  0  0  0  0
  141.3119   71.8192  225.0594 H   0  0  0  0  0  0  0  0  0  0  0  0
  139.5797   72.2052  225.4433 H   0  0  0  0  0  0  0  0  0  0  0  0
  140.0860   70.1450  225.5670 C   0  0  0  0  0  0  0  0  0  0  0  0
  140.5330   69.9430  226.8830 C   0  0  0  0  0  0  0  0  0  0  0  0
  141.0095   70.7689  227.4315 H   0  0  0  0  0  0  0  0  0  0  0  0
  140.3760   68.7000  227.4990 C   0  0  0  0  0  0  0  0  0  0  0  0
  140.7374   68.5478  228.5267 H   0  0  0  0  0  0  0  0  0  0  0  0
  139.7620   67.6500  226.8150 C   0  0  0  0  0  0  0  0  0  0  0  0
  139.6442   66.6708  227.3022 H   0  0  0  0  0  0  0  0  0  0  0  0
  139.2970   67.8420  225.5120 C   0  0  0  0  0  0  0  0  0  0  0  0
  138.8158   67.0110  224.9755 H   0  0  0  0  0  0  0  0  0  0  0  0
  139.4400   69.0900  224.8820 C   0  0  0  0  0  0  0  0  0  0  0  0
  138.9940   69.2430  223.4520 C   0  0  0  0  0  0  0  0  0  0  0  0
  139.7643   68.8183  222.7915 H   0  0  0  0  0  0  0  0  0  0  0  0
  138.0366   68.7143  223.3342 H   0  0  0  0  0  0  0  0  0  0  0  0
  138.7760   70.7080  223.0790 C   0  0  0  0  0  0  0  0  0  0  0  0
  138.6553   70.7941  221.9890 H   0  0  0  0  0  0  0  0  0  0  0  0
  137.8711   71.0817  223.5806 H   0  0  0  0  0  0  0  0  0  0  0  0
  141.6970   72.0790  221.9350 N   0  0  0  0  0  0  0  0  0  0  0  0
  142.2960   72.9390  221.0710 C   0  0  0  0  0  0  0  0  0  0  0  0
  143.4720   72.5250  220.3510 N   0  0  0  0  0  0  0  0  0  0  0  0
  143.3450   71.5170  219.2910 C   0  0  0  0  0  0  0  0  0  0  0  0
  142.5537   70.8020  219.5604 H   0  0  0  0  0  0  0  0  0  0  0  0
  143.0884   72.0163  218.3450 H   0  0  0  0  0  0  0  0  0  0  0  0
  144.6690   70.7690  219.1230 C   0  0  0  0  0  0  0  0  0  0  0  0
  144.8647   70.1719  220.0259 H   0  0  0  0  0  0  0  0  0  0  0  0
  144.5982   70.1128  218.2430 H   0  0  0  0  0  0  0  0  0  0  0  0
  145.7710   71.7160  218.9220 N   0  0  0  0  0  0  0  0  0  0  0  0
  146.6520   71.1600  218.8410 H   0  0  0  0  0  0  0  0  0  0  0  0
  145.9140   72.5940  220.0890 C   0  0  0  0  0  0  0  0  0  0  0  0
  146.1055   71.9808  220.9819 H   0  0  0  0  0  0  0  0  0  0  0  0
  146.7535   73.2831  219.9146 H   0  0  0  0  0  0  0  0  0  0  0  0
  144.6410   73.4110  220.3040 C   0  0  0  0  0  0  0  0  0  0  0  0
  144.7184   73.9612  221.2534 H   0  0  0  0  0  0  0  0  0  0  0  0
  144.5226   74.1174  219.4692 H   0  0  0  0  0  0  0  0  0  0  0  0
  141.7700   74.1820  220.8870 N   0  0  0  0  0  0  0  0  0  0  0  0
  142.2750   74.8490  220.2660 H   0  0  0  0  0  0  0  0  0  0  0  0
  1  2  1  0
  2  3  1  0
  3  4  2  0
  4  5  1  0
  4  6  1  0
  6  7  1  0
  6  8  1  0
  8  9  1  0
  9 10  1  0
  9 11  1  0
  9 12  1  0
 12 13  1  0
 12 14  1  0
 12 15  1  0
 15 16  1  0
 15 17  2  0
 17 18  1  0
 18 19  2  0
 19 20  1  0
 20 21  1  0
 21 22  1  0
 21 23  1  0
 21 24  1  0
 24 25  2  0
 25 26  1  0
 25 27  1  0
 27 28  1  0
 27 29  2  0
 29 30  1  0
 29 31  1  0
 31 32  1  0
 31 33  2  0
 33 34  1  0
 34 35  1  0
 34 36  1  0
 34 37  1  0
 37 38  1  0
 37 39  1  0
 19 40  1  0
 40 41  2  0
 41 42  1  0
 42 43  1  0
 43 44  1  0
 43 45  1  0
 43 46  1  0
 46 47  1  0
 46 48  1  0
 46 49  1  0
 49 50  1  0
 49 51  1  0
 51 52  1  0
 51 53  1  0
 51 54  1  0
 54 55  1  0
 54 56  1  0
 41 57  1  0
 57 58  1  0
  8  2  2  0
 57 17  1  0
 37 20  1  0
 54 42  1  0
 33 24  1  0
M  CHG  1  15   1
M  END
>  <UniqueID>  (25) 
535

>  <SMILES>  (25) 
c1ccc2c(c1)CCN(c1nc(N3CCNCC3)[nH]/c(=[NH+]\CCc3cnc[nH]3)n1)C2

>  <Energy>  (25) 
93.63209805943227

>  <Genealogy>  (25) 
c1ccc2c(c1)CCN(c1nc([NH2+]CCc3cnc[nH]3)nc(N3CCNCC3)n1)C2 (protonated)
c1ccc2c(c1)CCN(c1nc(N3CCNCC3)[nH]c(=[NH+]CCc3cnc[nH]3)n1)C2 (tautomer)
c1ccc2c(c1)CCN(c1nc(N3CCNCC3)[nH]/c(=[NH+]\CCc3cnc[nH]3)n1)C2 (cis-trans isomerization)
c1ccc2c(c1)CCN(c1nc(N3CCNCC3)[nH]/c(=[NH+]\CCc3cnc[nH]3)n1)C2 (3D coordinates assigned)
c1ccc2c(c1)CCN(c1nc(N3CCNCC3)[nH]/c(=[NH+]\CCc3cnc[nH]3)n1)C2 (nonaromatic ring conformer: 93.63209805943227 kcal/mol)

>  <smiles>  (25) 
c1ccc2c(c1)CCN(c1nc(NCCc3cnc[nH]3)nc(N3CCNCC3)n1)C2

>  <score_type>  (25) 
oracle

>  <origin>  (25) 
autodockgpu

>  <m_score__min__energy>  (25) 
-9.0700000000000003

>  <m_primary>  (25) 
energy

>  <meeko>  (25) 
{"free_energy": -8.95, "intermolecular_energy": -10.73, "internal_energy": -0.1, "cluster_size": 18, "cluster_id": 1, "rank_in_cluster": 5}

>  <energy>  (25) 
-8.95

>  <cluster_rmsd>  (25) 
0.44

>  <rmsd>  (25) 
270.14

>  <cluster>  (25) 
1

$$$$
PEEFGLWBFXZENK-UFTUCYPHNA-O
     RDKit          3D

 58 62  0  0  0  0  0  0  0  0999 V2000
  139.8004   68.9964  226.6703 H   0  0  0  0  0  0  0  0  0  0  0  0
  140.1740   69.9990  226.4150 C   0  0  0  0  0  0  0  0  0  0  0  0
  141.0120   70.7360  227.1710 N   0  0  0  0  0  0  0  0  0  0  0  0
  141.1870   71.8710  226.4640 C   0  0  0  0  0  0  0  0  0  0  0  0
  141.8224   72.7041  226.7990 H   0  0  0  0  0  0  0  0  0  0  0  0
  140.5020   71.8770  225.3050 N   0  0  0  0  0  0  0  0  0  0  0  0
  140.4800   72.6340  224.5910 H   0  0  0  0  0  0  0  0  0  0  0  0
  139.8600   70.7000  225.2730 C   0  0  0  0  0  0  0  0  0  0  0  0
  138.9970   70.2270  224.1400 C   0  0  0  0  0  0  0  0  0  0  0  0
  137.9634   70.5608  224.3140 H   0  0  0  0  0  0  0  0  0  0  0  0
  139.0513   69.1291  224.0988 H   0  0  0  0  0  0  0  0  0  0  0  0
  139.4820   70.7850  222.7950 C   0  0  0  0  0  0  0  0  0  0  0  0
  138.9207   70.2990  221.9833 H   0  0  0  0  0  0  0  0  0  0  0  0
  140.5589   70.5796  222.7048 H   0  0  0  0  0  0  0  0  0  0  0  0
  139.2820   72.2370  222.7100 N   0  0  0  0  0  0  0  0  0  0  0  0
  138.4200   72.6410  223.1460 H   0  0  0  0  0  0  0  0  0  0  0  0
  140.1320   73.0670  222.1660 C   0  0  0  0  0  0  0  0  0  0  0  0
  139.8630   74.3990  222.2010 N   0  0  0  0  0  0  0  0  0  0  0  0
  140.7240   75.3040  221.6720 C   0  0  0  0  0  0  0  0  0  0  0  0
  140.4320   76.7180  221.7330 N   0  0  0  0  0  0  0  0  0  0  0  0
  141.4540   77.7030  221.3480 C   0  0  0  0  0  0  0  0  0  0  0  0
  142.4476   77.2941  221.5834 H   0  0  0  0  0  0  0  0  0  0  0  0
  141.3485   77.8980  220.2706 H   0  0  0  0  0  0  0  0  0  0  0  0
  141.2810   79.0140  222.0780 C   0  0  0  0  0  0  0  0  0  0  0  0
  142.2800   79.9930  221.9570 C   0  0  0  0  0  0  0  0  0  0  0  0
  143.1709   79.7917  221.3440 H   0  0  0  0  0  0  0  0  0  0  0  0
  142.1500   81.2210  222.6100 C   0  0  0  0  0  0  0  0  0  0  0  0
  142.9422   81.9785  222.5172 H   0  0  0  0  0  0  0  0  0  0  0  0
  141.0170   81.4890  223.3800 C   0  0  0  0  0  0  0  0  0  0  0  0
  140.9190   82.4556  223.8958 H   0  0  0  0  0  0  0  0  0  0  0  0
  140.0080   80.5310  223.4960 C   0  0  0  0  0  0  0  0  0  0  0  0
  139.1188   80.7451  224.1072 H   0  0  0  0  0  0  0  0  0  0  0  0
  140.1210   79.2950  222.8370 C   0  0  0  0  0  0  0  0  0  0  0  0
  139.0500   78.2560  223.0410 C   0  0  0  0  0  0  0  0  0  0  0  0
  139.2160   77.7587  224.0080 H   0  0  0  0  0  0  0  0  0  0  0  0
  138.0738   78.7625  223.0192 H   0  0  0  0  0  0  0  0  0  0  0  0
  139.0630   77.2030  221.9350 C   0  0  0  0  0  0  0  0  0  0  0  0
  138.4154   76.3617  222.2230 H   0  0  0  0  0  0  0  0  0  0  0  0
  138.6925   77.6502  221.0008 H   0  0  0  0  0  0  0  0  0  0  0  0
  141.8770   74.8640  221.1080 N   0  0  0  0  0  0  0  0  0  0  0  0
  142.1720   73.5390  221.0630 C   0  0  0  0  0  0  0  0  0  0  0  0
  143.4150   73.1020  220.4830 N   0  0  0  0  0  0  0  0  0  0  0  0
  143.4010   72.0240  219.4880 C   0  0  0  0  0  0  0  0  0  0  0  0
  142.5981   71.3128  219.7321 H   0  0  0  0  0  0  0  0  0  0  0  0
  143.2265   72.4540  218.4907 H   0  0  0  0  0  0  0  0  0  0  0  0
  144.7450   71.2930  219.4930 C   0  0  0  0  0  0  0  0  0  0  0  0
  144.8654   70.7622  220.4489 H   0  0  0  0  0  0  0  0  0  0  0  0
  144.7651   70.5771  218.6581 H   0  0  0  0  0  0  0  0  0  0  0  0
  145.8470   72.2480  219.3280 N   0  0  0  0  0  0  0  0  0  0  0  0
  146.7390   71.7070  219.3650 H   0  0  0  0  0  0  0  0  0  0  0  0
  145.8690   73.2060  220.4390 C   0  0  0  0  0  0  0  0  0  0  0  0
  145.9876   72.6591  221.3860 H   0  0  0  0  0  0  0  0  0  0  0  0
  146.7101   73.8998  220.2934 H   0  0  0  0  0  0  0  0  0  0  0  0
  144.5690   74.0080  220.4810 C   0  0  0  0  0  0  0  0  0  0  0  0
  144.5503   74.6223  221.3933 H   0  0  0  0  0  0  0  0  0  0  0  0
  144.5168   74.6541  219.5923 H   0  0  0  0  0  0  0  0  0  0  0  0
  141.2900   72.6370  221.5780 N   0  0  0  0  0  0  0  0  0  0  0  0
  141.5050   71.6210  221.4840 H   0  0  0  0  0  0  0  0  0  0  0  0
  1  2  1  0
  2  3  1  0
  3  4  2  0
  4  5  1  0
  4  6  1  0
  6  7  1  0
  6  8  1  0
  8  9  1  0
  9 10  1  0
  9 11  1  0
  9 12  1  0
 12 13  1  0
 12 14  1  0
 12 15  1  0
 15 16  1  0
 15 17  2  0
 17 18  1  0
 18 19  2  0
 19 20  1  0
 20 21  1  0
 21 22  1  0
 21 23  1  0
 21 24  1  0
 24 25  2  0
 25 26  1  0
 25 27  1  0
 27 28  1  0
 27 29  2  0
 29 30  1  0
 29 31  1  0
 31 32  1  0
 31 33  2  0
 33 34  1  0
 34 35  1  0
 34 36  1  0
 34 37  1  0
 37 38  1  0
 37 39  1  0
 19 40  1  0
 40 41  2  0
 41 42  1  0
 42 43  1  0
 43 44  1  0
 43 45  1  0
 43 46  1  0
 46 47  1  0
 46 48  1  0
 46 49  1  0
 49 50  1  0
 49 51  1  0
 51 52  1  0
 51 53  1  0
 51 54  1  0
 54 55  1  0
 54 56  1  0
 41 57  1  0
 57 58  1  0
  8  2  2  0
 57 17  1  0
 37 20  1  0
 54 42  1  0
 33 24  1  0
M  CHG  1  15   1
M  END
>  <UniqueID>  (26) 
535

>  <SMILES>  (26) 
c1ccc2c(c1)CCN(c1nc(N3CCNCC3)[nH]/c(=[NH+]\CCc3cnc[nH]3)n1)C2

>  <Energy>  (26) 
93.63209805943227

>  <Genealogy>  (26) 
c1ccc2c(c1)CCN(c1nc([NH2+]CCc3cnc[nH]3)nc(N3CCNCC3)n1)C2 (protonated)
c1ccc2c(c1)CCN(c1nc(N3CCNCC3)[nH]c(=[NH+]CCc3cnc[nH]3)n1)C2 (tautomer)
c1ccc2c(c1)CCN(c1nc(N3CCNCC3)[nH]/c(=[NH+]\CCc3cnc[nH]3)n1)C2 (cis-trans isomerization)
c1ccc2c(c1)CCN(c1nc(N3CCNCC3)[nH]/c(=[NH+]\CCc3cnc[nH]3)n1)C2 (3D coordinates assigned)
c1ccc2c(c1)CCN(c1nc(N3CCNCC3)[nH]/c(=[NH+]\CCc3cnc[nH]3)n1)C2 (nonaromatic ring conformer: 93.63209805943227 kcal/mol)

>  <smiles>  (26) 
c1ccc2c(c1)CCN(c1nc(NCCc3cnc[nH]3)nc(N3CCNCC3)n1)C2

>  <score_type>  (26) 
oracle

>  <origin>  (26) 
autodockgpu

>  <m_score__min__energy>  (26) 
-9.0700000000000003

>  <m_primary>  (26) 
energy

>  <meeko>  (26) 
{"free_energy": -8.48, "intermolecular_energy": -10.27, "internal_energy": -0.27, "cluster_size": 18, "cluster_id": 1, "rank_in_cluster": 11}

>  <energy>  (26) 
-8.89

>  <cluster_rmsd>  (26) 
0.45

>  <rmsd>  (26) 
270.12

>  <cluster>  (26) 
1

$$$$
PEEFGLWBFXZENK-UFTUCYPHNA-O
     RDKit          3D

 58 62  0  0  0  0  0  0  0  0999 V2000
  139.3309   80.4096  223.5453 H   0  0  0  0  0  0  0  0  0  0  0  0
  140.2140   79.7750  223.3800 C   0  0  0  0  0  0  0  0  0  0  0  0
  141.4600   80.0390  223.8230 N   0  0  0  0  0  0  0  0  0  0  0  0
  142.1970   78.9970  223.3890 C   0  0  0  0  0  0  0  0  0  0  0  0
  143.2757   78.8937  223.5783 H   0  0  0  0  0  0  0  0  0  0  0  0
  141.4720   78.0960  222.6990 N   0  0  0  0  0  0  0  0  0  0  0  0
  141.8110   77.2110  222.2690 H   0  0  0  0  0  0  0  0  0  0  0  0
  140.2230   78.5850  222.6880 C   0  0  0  0  0  0  0  0  0  0  0  0
  139.0400   77.9000  222.0710 C   0  0  0  0  0  0  0  0  0  0  0  0
  139.0510   78.0755  220.9851 H   0  0  0  0  0  0  0  0  0  0  0  0
  138.1262   78.3123  222.5238 H   0  0  0  0  0  0  0  0  0  0  0  0
  139.0690   76.3870  222.3330 C   0  0  0  0  0  0  0  0  0  0  0  0
  138.0399   75.9996  222.3040 H   0  0  0  0  0  0  0  0  0  0  0  0
  139.5243   76.2167  223.3197 H   0  0  0  0  0  0  0  0  0  0  0  0
  139.8730   75.6810  221.3270 N   0  0  0  0  0  0  0  0  0  0  0  0
  139.9960   76.1320  220.3910 H   0  0  0  0  0  0  0  0  0  0  0  0
  140.4830   74.5450  221.5390 C   0  0  0  0  0  0  0  0  0  0  0  0
  139.9430   73.6660  222.4230 N   0  0  0  0  0  0  0  0  0  0  0  0
  140.5230   72.4630  222.6610 C   0  0  0  0  0  0  0  0  0  0  0  0
  139.9270   71.5300  223.5900 N   0  0  0  0  0  0  0  0  0  0  0  0
  140.3530   71.5110  224.9980 C   0  0  0  0  0  0  0  0  0  0  0  0
  141.4119   71.8038  225.0523 H   0  0  0  0  0  0  0  0  0  0  0  0
  139.7157   72.2140  225.5544 H   0  0  0  0  0  0  0  0  0  0  0  0
  140.1930   70.1450  225.6210 C   0  0  0  0  0  0  0  0  0  0  0  0
  140.7220   69.9180  226.9020 C   0  0  0  0  0  0  0  0  0  0  0  0
  141.2482   70.7284  227.4277 H   0  0  0  0  0  0  0  0  0  0  0  0
  140.5840   68.6700  227.5120 C   0  0  0  0  0  0  0  0  0  0  0  0
  141.0096   68.4986  228.5117 H   0  0  0  0  0  0  0  0  0  0  0  0
  139.9080   67.6390  226.8580 C   0  0  0  0  0  0  0  0  0  0  0  0
  139.8053   66.6557  227.3403 H   0  0  0  0  0  0  0  0  0  0  0  0
  139.3620   67.8560  225.5910 C   0  0  0  0  0  0  0  0  0  0  0  0
  138.8327   67.0399  225.0773 H   0  0  0  0  0  0  0  0  0  0  0  0
  139.4840   69.1090  224.9680 C   0  0  0  0  0  0  0  0  0  0  0  0
  138.9480   69.2880  223.5720 C   0  0  0  0  0  0  0  0  0  0  0  0
  139.6662   68.8597  222.8573 H   0  0  0  0  0  0  0  0  0  0  0  0
  137.9762   68.7764  223.5108 H   0  0  0  0  0  0  0  0  0  0  0  0
  138.7310   70.7610  223.2320 C   0  0  0  0  0  0  0  0  0  0  0  0
  138.5392   70.8634  222.1537 H   0  0  0  0  0  0  0  0  0  0  0  0
  137.8683   71.1431  223.7975 H   0  0  0  0  0  0  0  0  0  0  0  0
  141.6590   72.1370  221.9940 N   0  0  0  0  0  0  0  0  0  0  0  0
  142.2170   72.9960  221.1030 C   0  0  0  0  0  0  0  0  0  0  0  0
  143.4070   72.6120  220.3880 N   0  0  0  0  0  0  0  0  0  0  0  0
  143.3040   71.6340  219.2990 C   0  0  0  0  0  0  0  0  0  0  0  0
  142.5151   70.9052  219.5367 H   0  0  0  0  0  0  0  0  0  0  0  0
  143.0568   72.1579  218.3639 H   0  0  0  0  0  0  0  0  0  0  0  0
  144.6360   70.9020  219.1290 C   0  0  0  0  0  0  0  0  0  0  0  0
  144.8240   70.2809  220.0172 H   0  0  0  0  0  0  0  0  0  0  0  0
  144.5834   70.2706  218.2298 H   0  0  0  0  0  0  0  0  0  0  0  0
  145.7330   71.8640  218.9710 N   0  0  0  0  0  0  0  0  0  0  0  0
  146.6190   71.3170  218.8870 H   0  0  0  0  0  0  0  0  0  0  0  0
  145.8520   72.7100  220.1640 C   0  0  0  0  0  0  0  0  0  0  0  0
  146.0368   72.0738  221.0421 H   0  0  0  0  0  0  0  0  0  0  0  0
  146.6876   73.4110  220.0214 H   0  0  0  0  0  0  0  0  0  0  0  0
  144.5680   73.5090  220.3830 C   0  0  0  0  0  0  0  0  0  0  0  0
  144.6264   74.0329  221.3484 H   0  0  0  0  0  0  0  0  0  0  0  0
  144.4551   74.2373  219.5664 H   0  0  0  0  0  0  0  0  0  0  0  0
  141.6380   74.2100  220.8870 N   0  0  0  0  0  0  0  0  0  0  0  0
  142.1110   74.8800  220.2440 H   0  0  0  0  0  0  0  0  0  0  0  0
  1  2  1  0
  2  3  1  0
  3  4  2  0
  4  5  1  0
  4  6  1  0
  6  7  1  0
  6  8  1  0
  8  9  1  0
  9 10  1  0
  9 11  1  0
  9 12  1  0
 12 13  1  0
 12 14  1  0
 12 15  1  0
 15 16  1  0
 15 17  2  0
 17 18  1  0
 18 19  2  0
 19 20  1  0
 20 21  1  0
 21 22  1  0
 21 23  1  0
 21 24  1  0
 24 25  2  0
 25 26  1  0
 25 27  1  0
 27 28  1  0
 27 29  2  0
 29 30  1  0
 29 31  1  0
 31 32  1  0
 31 33  2  0
 33 34  1  0
 34 35  1  0
 34 36  1  0
 34 37  1  0
 37 38  1  0
 37 39  1  0
 19 40  1  0
 40 41  2  0
 41 42  1  0
 42 43  1  0
 43 44  1  0
 43 45  1  0
 43 46  1  0
 46 47  1  0
 46 48  1  0
 46 49  1  0
 49 50  1  0
 49 51  1  0
 51 52  1  0
 51 53  1  0
 51 54  1  0
 54 55  1  0
 54 56  1  0
 41 57  1  0
 57 58  1  0
  8  2  2  0
 57 17  1  0
 37 20  1  0
 54 42  1  0
 33 24  1  0
M  CHG  1  15   1
M  END
>  <UniqueID>  (27) 
535

>  <SMILES>  (27) 
c1ccc2c(c1)CCN(c1nc(N3CCNCC3)[nH]/c(=[NH+]\CCc3cnc[nH]3)n1)C2

>  <Energy>  (27) 
93.63209805943227

>  <Genealogy>  (27) 
c1ccc2c(c1)CCN(c1nc([NH2+]CCc3cnc[nH]3)nc(N3CCNCC3)n1)C2 (protonated)
c1ccc2c(c1)CCN(c1nc(N3CCNCC3)[nH]c(=[NH+]CCc3cnc[nH]3)n1)C2 (tautomer)
c1ccc2c(c1)CCN(c1nc(N3CCNCC3)[nH]/c(=[NH+]\CCc3cnc[nH]3)n1)C2 (cis-trans isomerization)
c1ccc2c(c1)CCN(c1nc(N3CCNCC3)[nH]/c(=[NH+]\CCc3cnc[nH]3)n1)C2 (3D coordinates assigned)
c1ccc2c(c1)CCN(c1nc(N3CCNCC3)[nH]/c(=[NH+]\CCc3cnc[nH]3)n1)C2 (nonaromatic ring conformer: 93.63209805943227 kcal/mol)

>  <smiles>  (27) 
c1ccc2c(c1)CCN(c1nc(NCCc3cnc[nH]3)nc(N3CCNCC3)n1)C2

>  <score_type>  (27) 
oracle

>  <origin>  (27) 
autodockgpu

>  <m_score__min__energy>  (27) 
-9.0700000000000003

>  <m_primary>  (27) 
energy

>  <meeko>  (27) 
{"free_energy": -8.6, "intermolecular_energy": -10.39, "internal_energy": -0.16, "cluster_size": 18, "cluster_id": 1, "rank_in_cluster": 9}

>  <energy>  (27) 
-8.69

>  <cluster_rmsd>  (27) 
0.49

>  <rmsd>  (27) 
270.05

>  <cluster>  (27) 
1

$$$$
PEEFGLWBFXZENK-UFTUCYPHNA-O
     RDKit          3D

 58 62  0  0  0  0  0  0  0  0999 V2000
  139.3241   79.1684  222.4626 H   0  0  0  0  0  0  0  0  0  0  0  0
  140.3990   79.2830  222.6660 C   0  0  0  0  0  0  0  0  0  0  0  0
  140.9310   79.7510  223.8120 N   0  0  0  0  0  0  0  0  0  0  0  0
  142.2630   79.7110  223.6030 C   0  0  0  0  0  0  0  0  0  0  0  0
  143.0060   80.0302  224.3487 H   0  0  0  0  0  0  0  0  0  0  0  0
  142.5860   79.2390  222.3850 N   0  0  0  0  0  0  0  0  0  0  0  0
  143.5420   79.1090  221.9930 H   0  0  0  0  0  0  0  0  0  0  0  0
  141.4140   78.9710  221.7900 C   0  0  0  0  0  0  0  0  0  0  0  0
  141.2650   78.3760  220.4210 C   0  0  0  0  0  0  0  0  0  0  0  0
  142.1992   77.8622  220.1503 H   0  0  0  0  0  0  0  0  0  0  0  0
  141.0471   79.1883  219.7120 H   0  0  0  0  0  0  0  0  0  0  0  0
  140.1080   77.3680  220.3720 C   0  0  0  0  0  0  0  0  0  0  0  0
  140.2044   76.7577  219.4619 H   0  0  0  0  0  0  0  0  0  0  0  0
  139.1620   77.9294  220.3697 H   0  0  0  0  0  0  0  0  0  0  0  0
  140.1140   76.4820  221.5430 N   0  0  0  0  0  0  0  0  0  0  0  0
  139.6120   76.8020  222.4030 H   0  0  0  0  0  0  0  0  0  0  0  0
  140.6690   75.2990  221.5670 C   0  0  0  0  0  0  0  0  0  0  0  0
  140.0790   74.3140  222.2950 N   0  0  0  0  0  0  0  0  0  0  0  0
  140.6000   73.0620  222.3350 C   0  0  0  0  0  0  0  0  0  0  0  0
  139.9520   72.0210  223.0990 N   0  0  0  0  0  0  0  0  0  0  0  0
  140.3340   71.7800  224.4990 C   0  0  0  0  0  0  0  0  0  0  0  0
  141.3980   72.0296  224.6243 H   0  0  0  0  0  0  0  0  0  0  0  0
  139.6980   72.4112  225.1370 H   0  0  0  0  0  0  0  0  0  0  0  0
  140.1200   70.3420  224.9070 C   0  0  0  0  0  0  0  0  0  0  0  0
  140.6050   69.9130  226.1530 C   0  0  0  0  0  0  0  0  0  0  0  0
  141.1364   70.6205  226.8064 H   0  0  0  0  0  0  0  0  0  0  0  0
  140.4160   68.5920  226.5670 C   0  0  0  0  0  0  0  0  0  0  0  0
  140.8067   68.2612  227.5406 H   0  0  0  0  0  0  0  0  0  0  0  0
  139.7330   67.6910  225.7490 C   0  0  0  0  0  0  0  0  0  0  0  0
  139.5900   66.6507  226.0766 H   0  0  0  0  0  0  0  0  0  0  0  0
  139.2310   68.1090  224.5150 C   0  0  0  0  0  0  0  0  0  0  0  0
  138.6960   67.3945  223.8722 H   0  0  0  0  0  0  0  0  0  0  0  0
  139.4050   69.4370  224.0890 C   0  0  0  0  0  0  0  0  0  0  0  0
  138.9150   69.8370  222.7220 C   0  0  0  0  0  0  0  0  0  0  0  0
  139.6419   69.4968  221.9697 H   0  0  0  0  0  0  0  0  0  0  0  0
  137.9318   69.3706  222.5615 H   0  0  0  0  0  0  0  0  0  0  0  0
  138.7480   71.3500  222.5990 C   0  0  0  0  0  0  0  0  0  0  0  0
  138.5925   71.6163  221.5431 H   0  0  0  0  0  0  0  0  0  0  0  0
  137.8788   71.6705  223.1920 H   0  0  0  0  0  0  0  0  0  0  0  0
  141.7250   72.7950  221.6250 N   0  0  0  0  0  0  0  0  0  0  0  0
  142.3310   73.7600  220.8860 C   0  0  0  0  0  0  0  0  0  0  0  0
  143.5080   73.4410  220.1200 N   0  0  0  0  0  0  0  0  0  0  0  0
  144.7270   73.0230  220.8230 C   0  0  0  0  0  0  0  0  0  0  0  0
  144.7921   73.5506  221.7860 H   0  0  0  0  0  0  0  0  0  0  0  0
  144.6916   71.9373  220.9963 H   0  0  0  0  0  0  0  0  0  0  0  0
  145.9560   73.3590  219.9760 C   0  0  0  0  0  0  0  0  0  0  0  0
  146.0592   74.4518  219.9050 H   0  0  0  0  0  0  0  0  0  0  0  0
  146.8470   72.9248  220.4530 H   0  0  0  0  0  0  0  0  0  0  0  0
  145.8180   72.7980  218.6270 N   0  0  0  0  0  0  0  0  0  0  0  0
  146.6650   73.0770  218.0830 H   0  0  0  0  0  0  0  0  0  0  0  0
  144.6520   73.3730  217.9470 C   0  0  0  0  0  0  0  0  0  0  0  0
  144.7704   74.4649  217.8863 H   0  0  0  0  0  0  0  0  0  0  0  0
  144.5810   72.9425  216.9372 H   0  0  0  0  0  0  0  0  0  0  0  0
  143.3710   73.0480  218.7140 C   0  0  0  0  0  0  0  0  0  0  0  0
  142.5296   73.5954  218.2642 H   0  0  0  0  0  0  0  0  0  0  0  0
  143.1863   71.9649  218.6609 H   0  0  0  0  0  0  0  0  0  0  0  0
  141.8120   75.0190  220.8700 N   0  0  0  0  0  0  0  0  0  0  0  0
  142.3220   75.7620  220.3460 H   0  0  0  0  0  0  0  0  0  0  0  0
  1  2  1  0
  2  3  1  0
  3  4  2  0
  4  5  1  0
  4  6  1  0
  6  7  1  0
  6  8  1  0
  8  9  1  0
  9 10  1  0
  9 11  1  0
  9 12  1  0
 12 13  1  0
 12 14  1  0
 12 15  1  0
 15 16  1  0
 15 17  2  0
 17 18  1  0
 18 19  2  0
 19 20  1  0
 20 21  1  0
 21 22  1  0
 21 23  1  0
 21 24  1  0
 24 25  2  0
 25 26  1  0
 25 27  1  0
 27 28  1  0
 27 29  2  0
 29 30  1  0
 29 31  1  0
 31 32  1  0
 31 33  2  0
 33 34  1  0
 34 35  1  0
 34 36  1  0
 34 37  1  0
 37 38  1  0
 37 39  1  0
 19 40  1  0
 40 41  2  0
 41 42  1  0
 42 43  1  0
 43 44  1  0
 43 45  1  0
 43 46  1  0
 46 47  1  0
 46 48  1  0
 46 49  1  0
 49 50  1  0
 49 51  1  0
 51 52  1  0
 51 53  1  0
 51 54  1  0
 54 55  1  0
 54 56  1  0
 41 57  1  0
 57 58  1  0
  8  2  2  0
 57 17  1  0
 37 20  1  0
 54 42  1  0
 33 24  1  0
M  CHG  1  15   1
M  END
>  <UniqueID>  (28) 
535

>  <SMILES>  (28) 
c1ccc2c(c1)CCN(c1nc(N3CCNCC3)[nH]/c(=[NH+]\CCc3cnc[nH]3)n1)C2

>  <Energy>  (28) 
93.63209805943227

>  <Genealogy>  (28) 
c1ccc2c(c1)CCN(c1nc([NH2+]CCc3cnc[nH]3)nc(N3CCNCC3)n1)C2 (protonated)
c1ccc2c(c1)CCN(c1nc(N3CCNCC3)[nH]c(=[NH+]CCc3cnc[nH]3)n1)C2 (tautomer)
c1ccc2c(c1)CCN(c1nc(N3CCNCC3)[nH]/c(=[NH+]\CCc3cnc[nH]3)n1)C2 (cis-trans isomerization)
c1ccc2c(c1)CCN(c1nc(N3CCNCC3)[nH]/c(=[NH+]\CCc3cnc[nH]3)n1)C2 (3D coordinates assigned)
c1ccc2c(c1)CCN(c1nc(N3CCNCC3)[nH]/c(=[NH+]\CCc3cnc[nH]3)n1)C2 (nonaromatic ring conformer: 93.63209805943227 kcal/mol)

>  <smiles>  (28) 
c1ccc2c(c1)CCN(c1nc(NCCc3cnc[nH]3)nc(N3CCNCC3)n1)C2

>  <score_type>  (28) 
oracle

>  <origin>  (28) 
autodockgpu

>  <m_score__min__energy>  (28) 
-9.0700000000000003

>  <m_primary>  (28) 
energy

>  <meeko>  (28) 
{"free_energy": -8.25, "intermolecular_energy": -10.04, "internal_energy": -0.3, "cluster_size": 18, "cluster_id": 1, "rank_in_cluster": 12}

>  <energy>  (28) 
-8.63

>  <cluster_rmsd>  (28) 
0.8

>  <rmsd>  (28) 
270.01

>  <cluster>  (28) 
1

$$$$
PEEFGLWBFXZENK-UFTUCYPHNA-O
     RDKit          3D

 58 62  0  0  0  0  0  0  0  0999 V2000
  139.7359   79.2378  224.1683 H   0  0  0  0  0  0  0  0  0  0  0  0
  140.7210   79.4040  223.7080 C   0  0  0  0  0  0  0  0  0  0  0  0
  141.4470   80.5360  223.8030 N   0  0  0  0  0  0  0  0  0  0  0  0
  142.5620   80.2780  223.0910 C   0  0  0  0  0  0  0  0  0  0  0  0
  143.3799   81.0015  222.9585 H   0  0  0  0  0  0  0  0  0  0  0  0
  142.5690   79.0410  222.5590 N   0  0  0  0  0  0  0  0  0  0  0  0
  143.3160   78.6100  221.9770 H   0  0  0  0  0  0  0  0  0  0  0  0
  141.4090   78.4890  222.9430 C   0  0  0  0  0  0  0  0  0  0  0  0
  140.9830   77.0850  222.6280 C   0  0  0  0  0  0  0  0  0  0  0  0
  140.4827   76.6567  223.5090 H   0  0  0  0  0  0  0  0  0  0  0  0
  141.8783   76.5022  222.3657 H   0  0  0  0  0  0  0  0  0  0  0  0
  140.0160   77.0470  221.4370 C   0  0  0  0  0  0  0  0  0  0  0  0
  140.5405   77.4063  220.5393 H   0  0  0  0  0  0  0  0  0  0  0  0
  139.1548   77.6899  221.6714 H   0  0  0  0  0  0  0  0  0  0  0  0
  139.5210   75.6870  221.1880 N   0  0  0  0  0  0  0  0  0  0  0  0
  138.5810   75.5810  220.7400 H   0  0  0  0  0  0  0  0  0  0  0  0
  140.1960   74.5990  221.4480 C   0  0  0  0  0  0  0  0  0  0  0  0
  139.6940   73.7160  222.3510 N   0  0  0  0  0  0  0  0  0  0  0  0
  140.3430   72.5600  222.6400 C   0  0  0  0  0  0  0  0  0  0  0  0
  139.7880   71.6230  223.5890 N   0  0  0  0  0  0  0  0  0  0  0  0
  140.3330   71.5370  224.9520 C   0  0  0  0  0  0  0  0  0  0  0  0
  141.4049   71.7820  224.9217 H   0  0  0  0  0  0  0  0  0  0  0  0
  139.7795   72.2471  225.5840 H   0  0  0  0  0  0  0  0  0  0  0  0
  140.1650   70.1580  225.5440 C   0  0  0  0  0  0  0  0  0  0  0  0
  140.7920   69.8650  226.7660 C   0  0  0  0  0  0  0  0  0  0  0  0
  141.3978   70.6339  227.2678 H   0  0  0  0  0  0  0  0  0  0  0  0
  140.6510   68.6030  227.3480 C   0  0  0  0  0  0  0  0  0  0  0  0
  141.1545   68.3786  228.2999 H   0  0  0  0  0  0  0  0  0  0  0  0
  139.8730   67.6260  226.7250 C   0  0  0  0  0  0  0  0  0  0  0  0
  139.7668   66.6323  227.1847 H   0  0  0  0  0  0  0  0  0  0  0  0
  139.2290   67.9090  225.5180 C   0  0  0  0  0  0  0  0  0  0  0  0
  138.6197   67.1348  225.0288 H   0  0  0  0  0  0  0  0  0  0  0  0
  139.3550   69.1770  224.9250 C   0  0  0  0  0  0  0  0  0  0  0  0
  138.7080   69.4280  223.5890 C   0  0  0  0  0  0  0  0  0  0  0  0
  139.3399   68.9934  222.8005 H   0  0  0  0  0  0  0  0  0  0  0  0
  137.7114   68.9625  223.5998 H   0  0  0  0  0  0  0  0  0  0  0  0
  138.5310   70.9190  223.3140 C   0  0  0  0  0  0  0  0  0  0  0  0
  138.2520   71.0662  222.2602 H   0  0  0  0  0  0  0  0  0  0  0  0
  137.7388   71.3187  223.9641 H   0  0  0  0  0  0  0  0  0  0  0  0
  141.5090   72.2840  222.0030 N   0  0  0  0  0  0  0  0  0  0  0  0
  142.0300   73.1480  221.0930 C   0  0  0  0  0  0  0  0  0  0  0  0
  143.2550   72.8160  220.4130 N   0  0  0  0  0  0  0  0  0  0  0  0
  143.2220   71.8480  219.3110 C   0  0  0  0  0  0  0  0  0  0  0  0
  142.4531   71.0885  219.5158 H   0  0  0  0  0  0  0  0  0  0  0  0
  142.9855   72.3740  218.3743 H   0  0  0  0  0  0  0  0  0  0  0  0
  144.5850   71.1660  219.1750 C   0  0  0  0  0  0  0  0  0  0  0  0
  144.7679   70.5415  220.0619 H   0  0  0  0  0  0  0  0  0  0  0  0
  144.5835   70.5435  218.2681 H   0  0  0  0  0  0  0  0  0  0  0  0
  145.6500   72.1690  219.0620 N   0  0  0  0  0  0  0  0  0  0  0  0
  146.5580   71.6560  219.0000 H   0  0  0  0  0  0  0  0  0  0  0  0
  145.7000   73.0050  220.2670 C   0  0  0  0  0  0  0  0  0  0  0  0
  145.8805   72.3657  221.1438 H   0  0  0  0  0  0  0  0  0  0  0  0
  146.5131   73.7378  220.1579 H   0  0  0  0  0  0  0  0  0  0  0  0
  144.3820   73.7540  220.4540 C   0  0  0  0  0  0  0  0  0  0  0  0
  144.3913   74.2682  221.4263 H   0  0  0  0  0  0  0  0  0  0  0  0
  144.2680   74.4872  219.6419 H   0  0  0  0  0  0  0  0  0  0  0  0
  141.3820   74.3150  220.8270 N   0  0  0  0  0  0  0  0  0  0  0  0
  141.8250   74.9930  220.1700 H   0  0  0  0  0  0  0  0  0  0  0  0
  1  2  1  0
  2  3  1  0
  3  4  2  0
  4  5  1  0
  4  6  1  0
  6  7  1  0
  6  8  1  0
  8  9  1  0
  9 10  1  0
  9 11  1  0
  9 12  1  0
 12 13  1  0
 12 14  1  0
 12 15  1  0
 15 16  1  0
 15 17  2  0
 17 18  1  0
 18 19  2  0
 19 20  1  0
 20 21  1  0
 21 22  1  0
 21 23  1  0
 21 24  1  0
 24 25  2  0
 25 26  1  0
 25 27  1  0
 27 28  1  0
 27 29  2  0
 29 30  1  0
 29 31  1  0
 31 32  1  0
 31 33  2  0
 33 34  1  0
 34 35  1  0
 34 36  1  0
 34 37  1  0
 37 38  1  0
 37 39  1  0
 19 40  1  0
 40 41  2  0
 41 42  1  0
 42 43  1  0
 43 44  1  0
 43 45  1  0
 43 46  1  0
 46 47  1  0
 46 48  1  0
 46 49  1  0
 49 50  1  0
 49 51  1  0
 51 52  1  0
 51 53  1  0
 51 54  1  0
 54 55  1  0
 54 56  1  0
 41 57  1  0
 57 58  1  0
  8  2  2  0
 57 17  1  0
 37 20  1  0
 54 42  1  0
 33 24  1  0
M  CHG  1  15   1
M  END
>  <UniqueID>  (29) 
535

>  <SMILES>  (29) 
c1ccc2c(c1)CCN(c1nc(N3CCNCC3)[nH]/c(=[NH+]\CCc3cnc[nH]3)n1)C2

>  <Energy>  (29) 
93.63209805943227

>  <Genealogy>  (29) 
c1ccc2c(c1)CCN(c1nc([NH2+]CCc3cnc[nH]3)nc(N3CCNCC3)n1)C2 (protonated)
c1ccc2c(c1)CCN(c1nc(N3CCNCC3)[nH]c(=[NH+]CCc3cnc[nH]3)n1)C2 (tautomer)
c1ccc2c(c1)CCN(c1nc(N3CCNCC3)[nH]/c(=[NH+]\CCc3cnc[nH]3)n1)C2 (cis-trans isomerization)
c1ccc2c(c1)CCN(c1nc(N3CCNCC3)[nH]/c(=[NH+]\CCc3cnc[nH]3)n1)C2 (3D coordinates assigned)
c1ccc2c(c1)CCN(c1nc(N3CCNCC3)[nH]/c(=[NH+]\CCc3cnc[nH]3)n1)C2 (nonaromatic ring conformer: 93.63209805943227 kcal/mol)

>  <smiles>  (29) 
c1ccc2c(c1)CCN(c1nc(NCCc3cnc[nH]3)nc(N3CCNCC3)n1)C2

>  <score_type>  (29) 
oracle

>  <origin>  (29) 
autodockgpu

>  <m_score__min__energy>  (29) 
-9.0700000000000003

>  <m_primary>  (29) 
energy

>  <meeko>  (29) 
{"free_energy": -9.06, "intermolecular_energy": -10.85, "internal_energy": -0.24, "cluster_size": 18, "cluster_id": 1, "rank_in_cluster": 2}

>  <energy>  (29) 
-8.6

>  <cluster_rmsd>  (29) 
0.74

>  <rmsd>  (29) 
270.02

>  <cluster>  (29) 
1

$$$$
PEEFGLWBFXZENK-UFTUCYPHNA-O
     RDKit          3D

 58 62  0  0  0  0  0  0  0  0999 V2000
  139.7887   79.2340  224.2174 H   0  0  0  0  0  0  0  0  0  0  0  0
  140.7600   79.4260  223.7380 C   0  0  0  0  0  0  0  0  0  0  0  0
  141.4560   80.5780  223.8170 N   0  0  0  0  0  0  0  0  0  0  0  0
  142.5650   80.3490  223.0840 C   0  0  0  0  0  0  0  0  0  0  0  0
  143.3602   81.0942  222.9343 H   0  0  0  0  0  0  0  0  0  0  0  0
  142.5950   79.1110  222.5550 N   0  0  0  0  0  0  0  0  0  0  0  0
  143.3430   78.6990  221.9590 H   0  0  0  0  0  0  0  0  0  0  0  0
  141.4580   78.5280  222.9620 C   0  0  0  0  0  0  0  0  0  0  0  0
  141.0650   77.1130  222.6590 C   0  0  0  0  0  0  0  0  0  0  0  0
  140.5403   76.6930  223.5298 H   0  0  0  0  0  0  0  0  0  0  0  0
  141.9777   76.5397  222.4394 H   0  0  0  0  0  0  0  0  0  0  0  0
  140.1410   77.0380  221.4350 C   0  0  0  0  0  0  0  0  0  0  0  0
  140.7079   77.3355  220.5405 H   0  0  0  0  0  0  0  0  0  0  0  0
  139.2904   77.7150  221.6029 H   0  0  0  0  0  0  0  0  0  0  0  0
  139.6170   75.6800  221.2380 N   0  0  0  0  0  0  0  0  0  0  0  0
  138.6570   75.5780  220.8350 H   0  0  0  0  0  0  0  0  0  0  0  0
  140.2890   74.5880  221.4890 C   0  0  0  0  0  0  0  0  0  0  0  0
  139.7770   73.6920  222.3730 N   0  0  0  0  0  0  0  0  0  0  0  0
  140.4220   72.5310  222.6510 C   0  0  0  0  0  0  0  0  0  0  0  0
  139.8560   71.5800  223.5790 N   0  0  0  0  0  0  0  0  0  0  0  0
  140.3330   71.5240  224.9680 C   0  0  0  0  0  0  0  0  0  0  0  0
  141.3947   71.8109  224.9903 H   0  0  0  0  0  0  0  0  0  0  0  0
  139.7201   72.2156  225.5648 H   0  0  0  0  0  0  0  0  0  0  0  0
  140.1890   70.1430  225.5630 C   0  0  0  0  0  0  0  0  0  0  0  0
  140.7640   69.8830  226.8170 C   0  0  0  0  0  0  0  0  0  0  0  0
  141.3147   70.6779  227.3413 H   0  0  0  0  0  0  0  0  0  0  0  0
  140.6410   68.6210  227.4030 C   0  0  0  0  0  0  0  0  0  0  0  0
  141.1021   68.4232  228.3819 H   0  0  0  0  0  0  0  0  0  0  0  0
  139.9340   67.6100  226.7490 C   0  0  0  0  0  0  0  0  0  0  0  0
  139.8426   66.6159  227.2110 H   0  0  0  0  0  0  0  0  0  0  0  0
  139.3430   67.8600  225.5090 C   0  0  0  0  0  0  0  0  0  0  0  0
  138.7903   67.0595  224.9955 H   0  0  0  0  0  0  0  0  0  0  0  0
  139.4500   69.1280  224.9130 C   0  0  0  0  0  0  0  0  0  0  0  0
  138.8630   69.3440  223.5430 C   0  0  0  0  0  0  0  0  0  0  0  0
  139.5513   68.9297  222.7915 H   0  0  0  0  0  0  0  0  0  0  0  0
  137.8865   68.8390  223.5063 H   0  0  0  0  0  0  0  0  0  0  0  0
  138.6420   70.8260  223.2470 C   0  0  0  0  0  0  0  0  0  0  0  0
  138.4109   70.9557  222.1794 H   0  0  0  0  0  0  0  0  0  0  0  0
  137.8030   71.1987  223.8530 H   0  0  0  0  0  0  0  0  0  0  0  0
  141.5960   72.2650  222.0240 N   0  0  0  0  0  0  0  0  0  0  0  0
  142.1280   73.1420  221.1340 C   0  0  0  0  0  0  0  0  0  0  0  0
  143.3610   72.8210  220.4640 N   0  0  0  0  0  0  0  0  0  0  0  0
  143.3510   71.8260  219.3850 C   0  0  0  0  0  0  0  0  0  0  0  0
  142.5983   71.0551  219.6067 H   0  0  0  0  0  0  0  0  0  0  0  0
  143.1048   72.3238  218.4355 H   0  0  0  0  0  0  0  0  0  0  0  0
  144.7290   71.1710  219.2680 C   0  0  0  0  0  0  0  0  0  0  0  0
  144.9238   70.5727  220.1703 H   0  0  0  0  0  0  0  0  0  0  0  0
  144.7433   70.5263  218.3769 H   0  0  0  0  0  0  0  0  0  0  0  0
  145.7720   72.1950  219.1320 N   0  0  0  0  0  0  0  0  0  0  0  0
  146.6910   71.7000  219.0840 H   0  0  0  0  0  0  0  0  0  0  0  0
  145.8020   73.0600  220.3160 C   0  0  0  0  0  0  0  0  0  0  0  0
  145.9949   72.4459  221.2080 H   0  0  0  0  0  0  0  0  0  0  0  0
  146.5992   73.8074  220.1900 H   0  0  0  0  0  0  0  0  0  0  0  0
  144.4680   73.7850  220.4840 C   0  0  0  0  0  0  0  0  0  0  0  0
  144.4648   74.3221  221.4439 H   0  0  0  0  0  0  0  0  0  0  0  0
  144.3393   74.4965  219.6550 H   0  0  0  0  0  0  0  0  0  0  0  0
  141.4830   74.3140  220.8790 N   0  0  0  0  0  0  0  0  0  0  0  0
  141.9340   75.0020  220.2380 H   0  0  0  0  0  0  0  0  0  0  0  0
  1  2  1  0
  2  3  1  0
  3  4  2  0
  4  5  1  0
  4  6  1  0
  6  7  1  0
  6  8  1  0
  8  9  1  0
  9 10  1  0
  9 11  1  0
  9 12  1  0
 12 13  1  0
 12 14  1  0
 12 15  1  0
 15 16  1  0
 15 17  2  0
 17 18  1  0
 18 19  2  0
 19 20  1  0
 20 21  1  0
 21 22  1  0
 21 23  1  0
 21 24  1  0
 24 25  2  0
 25 26  1  0
 25 27  1  0
 27 28  1  0
 27 29  2  0
 29 30  1  0
 29 31  1  0
 31 32  1  0
 31 33  2  0
 33 34  1  0
 34 35  1  0
 34 36  1  0
 34 37  1  0
 37 38  1  0
 37 39  1  0
 19 40  1  0
 40 41  2  0
 41 42  1  0
 42 43  1  0
 43 44  1  0
 43 45  1  0
 43 46  1  0
 46 47  1  0
 46 48  1  0
 46 49  1  0
 49 50  1  0
 49 51  1  0
 51 52  1  0
 51 53  1  0
 51 54  1  0
 54 55  1  0
 54 56  1  0
 41 57  1  0
 57 58  1  0
  8  2  2  0
 57 17  1  0
 37 20  1  0
 54 42  1  0
 33 24  1  0
M  CHG  1  15   1
M  END
>  <UniqueID>  (30) 
535

>  <SMILES>  (30) 
c1ccc2c(c1)CCN(c1nc(N3CCNCC3)[nH]/c(=[NH+]\CCc3cnc[nH]3)n1)C2

>  <Energy>  (30) 
93.63209805943227

>  <Genealogy>  (30) 
c1ccc2c(c1)CCN(c1nc([NH2+]CCc3cnc[nH]3)nc(N3CCNCC3)n1)C2 (protonated)
c1ccc2c(c1)CCN(c1nc(N3CCNCC3)[nH]c(=[NH+]CCc3cnc[nH]3)n1)C2 (tautomer)
c1ccc2c(c1)CCN(c1nc(N3CCNCC3)[nH]/c(=[NH+]\CCc3cnc[nH]3)n1)C2 (cis-trans isomerization)
c1ccc2c(c1)CCN(c1nc(N3CCNCC3)[nH]/c(=[NH+]\CCc3cnc[nH]3)n1)C2 (3D coordinates assigned)
c1ccc2c(c1)CCN(c1nc(N3CCNCC3)[nH]/c(=[NH+]\CCc3cnc[nH]3)n1)C2 (nonaromatic ring conformer: 93.63209805943227 kcal/mol)

>  <smiles>  (30) 
c1ccc2c(c1)CCN(c1nc(NCCc3cnc[nH]3)nc(N3CCNCC3)n1)C2

>  <score_type>  (30) 
oracle

>  <origin>  (30) 
autodockgpu

>  <m_score__min__energy>  (30) 
-9.0700000000000003

>  <m_primary>  (30) 
energy

>  <meeko>  (30) 
{"free_energy": -9.07, "intermolecular_energy": -10.86, "internal_energy": -0.23, "cluster_size": 18, "cluster_id": 1, "rank_in_cluster": 1}

>  <energy>  (30) 
-8.49

>  <cluster_rmsd>  (30) 
1.96

>  <rmsd>  (30) 
270.31

>  <cluster>  (30) 
1

$$$$
PEEFGLWBFXZENK-UFTUCYPHNA-O
     RDKit          3D

 58 62  0  0  0  0  0  0  0  0999 V2000
  140.7872   82.9747  219.1667 H   0  0  0  0  0  0  0  0  0  0  0  0
  141.1440   82.1530  219.8050 C   0  0  0  0  0  0  0  0  0  0  0  0
  140.8850   82.0170  221.1210 N   0  0  0  0  0  0  0  0  0  0  0  0
  141.5180   80.8790  221.4700 C   0  0  0  0  0  0  0  0  0  0  0  0
  141.5138   80.4687  222.4906 H   0  0  0  0  0  0  0  0  0  0  0  0
  142.1560   80.2980  220.4360 N   0  0  0  0  0  0  0  0  0  0  0  0
  142.7080   79.4150  220.4530 H   0  0  0  0  0  0  0  0  0  0  0  0
  141.9260   81.1000  219.3870 C   0  0  0  0  0  0  0  0  0  0  0  0
  142.4020   80.8380  217.9880 C   0  0  0  0  0  0  0  0  0  0  0  0
  143.5017   80.8613  217.9739 H   0  0  0  0  0  0  0  0  0  0  0  0
  141.9865   81.6152  217.3297 H   0  0  0  0  0  0  0  0  0  0  0  0
  141.9250   79.4700  217.4810 C   0  0  0  0  0  0  0  0  0  0  0  0
  141.7277   79.5382  216.4010 H   0  0  0  0  0  0  0  0  0  0  0  0
  141.0114   79.1983  218.0301 H   0  0  0  0  0  0  0  0  0  0  0  0
  142.9310   78.4270  217.7170 N   0  0  0  0  0  0  0  0  0  0  0  0
  143.7930   78.4330  217.1240 H   0  0  0  0  0  0  0  0  0  0  0  0
  142.8420   77.5170  218.6510 C   0  0  0  0  0  0  0  0  0  0  0  0
  141.8610   77.6300  219.5840 N   0  0  0  0  0  0  0  0  0  0  0  0
  141.7090   76.7000  220.5610 C   0  0  0  0  0  0  0  0  0  0  0  0
  140.6500   76.8230  221.5350 N   0  0  0  0  0  0  0  0  0  0  0  0
  139.7280   75.7030  221.7740 C   0  0  0  0  0  0  0  0  0  0  0  0
  139.6073   75.1370  220.8385 H   0  0  0  0  0  0  0  0  0  0  0  0
  140.1571   75.0742  222.5680 H   0  0  0  0  0  0  0  0  0  0  0  0
  138.3690   76.1750  222.2370 C   0  0  0  0  0  0  0  0  0  0  0  0
  137.3250   75.2410  222.3340 C   0  0  0  0  0  0  0  0  0  0  0  0
  137.5059   74.1893  222.0672 H   0  0  0  0  0  0  0  0  0  0  0  0
  136.0590   75.6390  222.7670 C   0  0  0  0  0  0  0  0  0  0  0  0
  135.2443   74.9026  222.8302 H   0  0  0  0  0  0  0  0  0  0  0  0
  135.8240   76.9690  223.1200 C   0  0  0  0  0  0  0  0  0  0  0  0
  134.8245   77.2799  223.4580 H   0  0  0  0  0  0  0  0  0  0  0  0
  136.8580   77.9050  223.0440 C   0  0  0  0  0  0  0  0  0  0  0  0
  136.6675   78.9530  223.3187 H   0  0  0  0  0  0  0  0  0  0  0  0
  138.1400   77.5170  222.6190 C   0  0  0  0  0  0  0  0  0  0  0  0
  139.2130   78.5640  222.4790 C   0  0  0  0  0  0  0  0  0  0  0  0
  139.0603   79.1061  221.5341 H   0  0  0  0  0  0  0  0  0  0  0  0
  139.1417   79.2436  223.3410 H   0  0  0  0  0  0  0  0  0  0  0  0
  140.6100   77.9480  222.4750 C   0  0  0  0  0  0  0  0  0  0  0  0
  141.3440   78.7076  222.1680 H   0  0  0  0  0  0  0  0  0  0  0  0
  140.8529   77.5879  223.4856 H   0  0  0  0  0  0  0  0  0  0  0  0
  142.5530   75.6370  220.5930 N   0  0  0  0  0  0  0  0  0  0  0  0
  143.5390   75.4990  219.6700 C   0  0  0  0  0  0  0  0  0  0  0  0
  144.4020   74.3470  219.7120 N   0  0  0  0  0  0  0  0  0  0  0  0
  144.4280   73.4300  218.5670 C   0  0  0  0  0  0  0  0  0  0  0  0
  143.4266   73.3835  218.1142 H   0  0  0  0  0  0  0  0  0  0  0  0
  145.1544   73.7959  217.8264 H   0  0  0  0  0  0  0  0  0  0  0  0
  144.8410   72.0320  219.0290 C   0  0  0  0  0  0  0  0  0  0  0  0
  144.0544   71.6172  219.6764 H   0  0  0  0  0  0  0  0  0  0  0  0
  144.9808   71.3913  218.1459 H   0  0  0  0  0  0  0  0  0  0  0  0
  146.1020   72.0920  219.7780 N   0  0  0  0  0  0  0  0  0  0  0  0
  146.3250   71.1220  220.0940 H   0  0  0  0  0  0  0  0  0  0  0  0
  145.9460   72.9180  220.9810 C   0  0  0  0  0  0  0  0  0  0  0  0
  145.1541   72.4904  221.6135 H   0  0  0  0  0  0  0  0  0  0  0  0
  146.9004   72.9344  221.5276 H   0  0  0  0  0  0  0  0  0  0  0  0
  145.5690   74.3490  220.6020 C   0  0  0  0  0  0  0  0  0  0  0  0
  145.3294   74.9153  221.5141 H   0  0  0  0  0  0  0  0  0  0  0  0
  146.4169   74.8175  220.0809 H   0  0  0  0  0  0  0  0  0  0  0  0
  143.6960   76.4500  218.7070 N   0  0  0  0  0  0  0  0  0  0  0  0
  144.4940   76.3590  218.0420 H   0  0  0  0  0  0  0  0  0  0  0  0
  1  2  1  0
  2  3  1  0
  3  4  2  0
  4  5  1  0
  4  6  1  0
  6  7  1  0
  6  8  1  0
  8  9  1  0
  9 10  1  0
  9 11  1  0
  9 12  1  0
 12 13  1  0
 12 14  1  0
 12 15  1  0
 15 16  1  0
 15 17  2  0
 17 18  1  0
 18 19  2  0
 19 20  1  0
 20 21  1  0
 21 22  1  0
 21 23  1  0
 21 24  1  0
 24 25  2  0
 25 26  1  0
 25 27  1  0
 27 28  1  0
 27 29  2  0
 29 30  1  0
 29 31  1  0
 31 32  1  0
 31 33  2  0
 33 34  1  0
 34 35  1  0
 34 36  1  0
 34 37  1  0
 37 38  1  0
 37 39  1  0
 19 40  1  0
 40 41  2  0
 41 42  1  0
 42 43  1  0
 43 44  1  0
 43 45  1  0
 43 46  1  0
 46 47  1  0
 46 48  1  0
 46 49  1  0
 49 50  1  0
 49 51  1  0
 51 52  1  0
 51 53  1  0
 51 54  1  0
 54 55  1  0
 54 56  1  0
 41 57  1  0
 57 58  1  0
  8  2  2  0
 57 17  1  0
 37 20  1  0
 54 42  1  0
 33 24  1  0
M  CHG  1  15   1
M  END
>  <UniqueID>  (31) 
535

>  <SMILES>  (31) 
c1ccc2c(c1)CCN(c1nc(N3CCNCC3)[nH]/c(=[NH+]\CCc3cnc[nH]3)n1)C2

>  <Energy>  (31) 
93.63209805943227

>  <Genealogy>  (31) 
c1ccc2c(c1)CCN(c1nc([NH2+]CCc3cnc[nH]3)nc(N3CCNCC3)n1)C2 (protonated)
c1ccc2c(c1)CCN(c1nc(N3CCNCC3)[nH]c(=[NH+]CCc3cnc[nH]3)n1)C2 (tautomer)
c1ccc2c(c1)CCN(c1nc(N3CCNCC3)[nH]/c(=[NH+]\CCc3cnc[nH]3)n1)C2 (cis-trans isomerization)
c1ccc2c(c1)CCN(c1nc(N3CCNCC3)[nH]/c(=[NH+]\CCc3cnc[nH]3)n1)C2 (3D coordinates assigned)
c1ccc2c(c1)CCN(c1nc(N3CCNCC3)[nH]/c(=[NH+]\CCc3cnc[nH]3)n1)C2 (nonaromatic ring conformer: 93.63209805943227 kcal/mol)

>  <smiles>  (31) 
c1ccc2c(c1)CCN(c1nc(NCCc3cnc[nH]3)nc(N3CCNCC3)n1)C2

>  <score_type>  (31) 
oracle

>  <origin>  (31) 
autodockgpu

>  <m_score__min__energy>  (31) 
-9.0700000000000003

>  <m_primary>  (31) 
energy

>  <meeko>  (31) 
{"free_energy": -7.64, "intermolecular_energy": -9.43, "internal_energy": -1.18, "cluster_size": 1, "cluster_id": 3, "rank_in_cluster": 1}

>  <energy>  (31) 
-8.48

>  <cluster_rmsd>  (31) 
1.95

>  <rmsd>  (31) 
270.28

>  <cluster>  (31) 
1

$$$$
PEEFGLWBFXZENK-UFTUCYPHNA-O
     RDKit          3D

 58 62  0  0  0  0  0  0  0  0999 V2000
  139.8080   79.5499  224.0592 H   0  0  0  0  0  0  0  0  0  0  0  0
  140.7700   79.6920  223.5450 C   0  0  0  0  0  0  0  0  0  0  0  0
  141.4600   80.8490  223.4850 N   0  0  0  0  0  0  0  0  0  0  0  0
  142.5580   80.5450  222.7630 C   0  0  0  0  0  0  0  0  0  0  0  0
  143.3461   81.2725  222.5186 H   0  0  0  0  0  0  0  0  0  0  0  0
  142.5870   79.2560  222.3730 N   0  0  0  0  0  0  0  0  0  0  0  0
  143.3270   78.7840  221.8140 H   0  0  0  0  0  0  0  0  0  0  0  0
  141.4600   78.7170  222.8610 C   0  0  0  0  0  0  0  0  0  0  0  0
  141.0710   77.2750  222.7220 C   0  0  0  0  0  0  0  0  0  0  0  0
  140.3245   77.0299  223.4918 H   0  0  0  0  0  0  0  0  0  0  0  0
  141.9744   76.6594  222.8443 H   0  0  0  0  0  0  0  0  0  0  0  0
  140.4740   76.9870  221.3380 C   0  0  0  0  0  0  0  0  0  0  0  0
  141.2795   77.0122  220.5893 H   0  0  0  0  0  0  0  0  0  0  0  0
  139.7151   77.7540  221.1239 H   0  0  0  0  0  0  0  0  0  0  0  0
  139.8230   75.6710  221.2940 N   0  0  0  0  0  0  0  0  0  0  0  0
  138.8040   75.6340  221.0610 H   0  0  0  0  0  0  0  0  0  0  0  0
  140.4440   74.5370  221.4840 C   0  0  0  0  0  0  0  0  0  0  0  0
  139.9350   73.6530  222.3820 N   0  0  0  0  0  0  0  0  0  0  0  0
  140.5270   72.4520  222.5990 C   0  0  0  0  0  0  0  0  0  0  0  0
  139.9630   71.5150  223.5440 N   0  0  0  0  0  0  0  0  0  0  0  0
  140.4130   71.5140  224.9440 C   0  0  0  0  0  0  0  0  0  0  0  0
  141.4670   71.8268  224.9781 H   0  0  0  0  0  0  0  0  0  0  0  0
  139.7724   72.2091  225.5065 H   0  0  0  0  0  0  0  0  0  0  0  0
  140.2890   70.1490  225.5790 C   0  0  0  0  0  0  0  0  0  0  0  0
  140.8440   69.9410  226.8520 C   0  0  0  0  0  0  0  0  0  0  0  0
  141.3643   70.7645  227.3631 H   0  0  0  0  0  0  0  0  0  0  0  0
  140.7390   68.6940  227.4730 C   0  0  0  0  0  0  0  0  0  0  0  0
  141.1853   68.5370  228.4661 H   0  0  0  0  0  0  0  0  0  0  0  0
  140.0700   67.6470  226.8380 C   0  0  0  0  0  0  0  0  0  0  0  0
  139.9930   66.6656  227.3288 H   0  0  0  0  0  0  0  0  0  0  0  0
  139.4980   67.8450  225.5790 C   0  0  0  0  0  0  0  0  0  0  0  0
  138.9737   67.0163  225.0806 H   0  0  0  0  0  0  0  0  0  0  0  0
  139.5880   69.0960  224.9450 C   0  0  0  0  0  0  0  0  0  0  0  0
  139.0240   69.2560  223.5580 C   0  0  0  0  0  0  0  0  0  0  0  0
  139.7366   68.8353  222.8333 H   0  0  0  0  0  0  0  0  0  0  0  0
  138.0603   68.7271  223.5180 H   0  0  0  0  0  0  0  0  0  0  0  0
  138.7750   70.7220  223.2120 C   0  0  0  0  0  0  0  0  0  0  0  0
  138.5629   70.8133  222.1365 H   0  0  0  0  0  0  0  0  0  0  0  0
  137.9155   71.0926  223.7899 H   0  0  0  0  0  0  0  0  0  0  0  0
  141.6420   72.1310  221.8950 N   0  0  0  0  0  0  0  0  0  0  0  0
  142.1680   72.9940  220.9880 C   0  0  0  0  0  0  0  0  0  0  0  0
  143.3360   72.6160  220.2360 N   0  0  0  0  0  0  0  0  0  0  0  0
  144.4260   73.5850  220.0720 C   0  0  0  0  0  0  0  0  0  0  0  0
  144.0059   74.5999  220.0124 H   0  0  0  0  0  0  0  0  0  0  0  0
  145.1062   73.5140  220.9336 H   0  0  0  0  0  0  0  0  0  0  0  0
  145.2040   73.2820  218.7900 C   0  0  0  0  0  0  0  0  0  0  0  0
  144.5574   73.4712  217.9204 H   0  0  0  0  0  0  0  0  0  0  0  0
  146.0915   73.9307  218.7495 H   0  0  0  0  0  0  0  0  0  0  0  0
  145.6380   71.8800  218.7740 N   0  0  0  0  0  0  0  0  0  0  0  0
  146.1370   71.7170  217.8710 H   0  0  0  0  0  0  0  0  0  0  0  0
  144.4780   70.9820  218.8010 C   0  0  0  0  0  0  0  0  0  0  0  0
  143.8414   71.1867  217.9276 H   0  0  0  0  0  0  0  0  0  0  0  0
  144.8332   69.9412  218.7759 H   0  0  0  0  0  0  0  0  0  0  0  0
  143.6650   71.1960  220.0770 C   0  0  0  0  0  0  0  0  0  0  0  0
  142.7347   70.6120  220.0173 H   0  0  0  0  0  0  0  0  0  0  0  0
  144.2605   70.8667  220.9413 H   0  0  0  0  0  0  0  0  0  0  0  0
  141.5790   74.2070  220.7940 N   0  0  0  0  0  0  0  0  0  0  0  0
  142.0290   74.8800  220.1380 H   0  0  0  0  0  0  0  0  0  0  0  0
  1  2  1  0
  2  3  1  0
  3  4  2  0
  4  5  1  0
  4  6  1  0
  6  7  1  0
  6  8  1  0
  8  9  1  0
  9 10  1  0
  9 11  1  0
  9 12  1  0
 12 13  1  0
 12 14  1  0
 12 15  1  0
 15 16  1  0
 15 17  2  0
 17 18  1  0
 18 19  2  0
 19 20  1  0
 20 21  1  0
 21 22  1  0
 21 23  1  0
 21 24  1  0
 24 25  2  0
 25 26  1  0
 25 27  1  0
 27 28  1  0
 27 29  2  0
 29 30  1  0
 29 31  1  0
 31 32  1  0
 31 33  2  0
 33 34  1  0
 34 35  1  0
 34 36  1  0
 34 37  1  0
 37 38  1  0
 37 39  1  0
 19 40  1  0
 40 41  2  0
 41 42  1  0
 42 43  1  0
 43 44  1  0
 43 45  1  0
 43 46  1  0
 46 47  1  0
 46 48  1  0
 46 49  1  0
 49 50  1  0
 49 51  1  0
 51 52  1  0
 51 53  1  0
 51 54  1  0
 54 55  1  0
 54 56  1  0
 41 57  1  0
 57 58  1  0
  8  2  2  0
 57 17  1  0
 37 20  1  0
 54 42  1  0
 33 24  1  0
M  CHG  1  15   1
M  END
>  <UniqueID>  (32) 
535

>  <SMILES>  (32) 
c1ccc2c(c1)CCN(c1nc(N3CCNCC3)[nH]/c(=[NH+]\CCc3cnc[nH]3)n1)C2

>  <Energy>  (32) 
93.63209805943227

>  <Genealogy>  (32) 
c1ccc2c(c1)CCN(c1nc([NH2+]CCc3cnc[nH]3)nc(N3CCNCC3)n1)C2 (protonated)
c1ccc2c(c1)CCN(c1nc(N3CCNCC3)[nH]c(=[NH+]CCc3cnc[nH]3)n1)C2 (tautomer)
c1ccc2c(c1)CCN(c1nc(N3CCNCC3)[nH]/c(=[NH+]\CCc3cnc[nH]3)n1)C2 (cis-trans isomerization)
c1ccc2c(c1)CCN(c1nc(N3CCNCC3)[nH]/c(=[NH+]\CCc3cnc[nH]3)n1)C2 (3D coordinates assigned)
c1ccc2c(c1)CCN(c1nc(N3CCNCC3)[nH]/c(=[NH+]\CCc3cnc[nH]3)n1)C2 (nonaromatic ring conformer: 93.63209805943227 kcal/mol)

>  <smiles>  (32) 
c1ccc2c(c1)CCN(c1nc(NCCc3cnc[nH]3)nc(N3CCNCC3)n1)C2

>  <score_type>  (32) 
oracle

>  <origin>  (32) 
autodockgpu

>  <m_score__min__energy>  (32) 
-9.0700000000000003

>  <m_primary>  (32) 
energy

>  <meeko>  (32) 
{"free_energy": -9.0, "intermolecular_energy": -10.79, "internal_energy": -0.19, "cluster_size": 18, "cluster_id": 1, "rank_in_cluster": 4}

>  <energy>  (32) 
-8.25

>  <cluster_rmsd>  (32) 
1.07

>  <rmsd>  (32) 
269.95

>  <cluster>  (32) 
1

$$$$
PEEFGLWBFXZENK-UFTUCYPHNA-O
     RDKit          3D

 58 62  0  0  0  0  0  0  0  0999 V2000
  139.8884   80.5152  223.9464 H   0  0  0  0  0  0  0  0  0  0  0  0
  140.8630   80.1930  223.5510 C   0  0  0  0  0  0  0  0  0  0  0  0
  142.0360   80.8240  223.7560 N   0  0  0  0  0  0  0  0  0  0  0  0
  142.9390   80.0750  223.0910 C   0  0  0  0  0  0  0  0  0  0  0  0
  144.0127   80.3104  223.0496 H   0  0  0  0  0  0  0  0  0  0  0  0
  142.3860   79.0080  222.4830 N   0  0  0  0  0  0  0  0  0  0  0  0
  142.8740   78.2830  221.9160 H   0  0  0  0  0  0  0  0  0  0  0  0
  141.0780   79.0810  222.7680 C   0  0  0  0  0  0  0  0  0  0  0  0
  140.0520   78.0730  222.3430 C   0  0  0  0  0  0  0  0  0  0  0  0
  139.2346   78.5926  221.8217 H   0  0  0  0  0  0  0  0  0  0  0  0
  139.6788   77.5597  223.2415 H   0  0  0  0  0  0  0  0  0  0  0  0
  140.6550   77.0210  221.4020 C   0  0  0  0  0  0  0  0  0  0  0  0
  141.7036   76.8476  221.6854 H   0  0  0  0  0  0  0  0  0  0  0  0
  140.5842   77.3998  220.3717 H   0  0  0  0  0  0  0  0  0  0  0  0
  139.9250   75.7490  221.4750 N   0  0  0  0  0  0  0  0  0  0  0  0
  138.8850   75.7720  221.3550 H   0  0  0  0  0  0  0  0  0  0  0  0
  140.4920   74.5830  221.6360 C   0  0  0  0  0  0  0  0  0  0  0  0
  139.9320   73.6950  222.5000 N   0  0  0  0  0  0  0  0  0  0  0  0
  140.4670   72.4620  222.6850 C   0  0  0  0  0  0  0  0  0  0  0  0
  139.8500   71.5230  223.5940 N   0  0  0  0  0  0  0  0  0  0  0  0
  140.2100   71.5250  225.0200 C   0  0  0  0  0  0  0  0  0  0  0  0
  141.2581   71.8434  225.1210 H   0  0  0  0  0  0  0  0  0  0  0  0
  139.5314   72.2170  225.5403 H   0  0  0  0  0  0  0  0  0  0  0  0
  140.0530   70.1600  225.6460 C   0  0  0  0  0  0  0  0  0  0  0  0
  140.5270   69.9560  226.9520 C   0  0  0  0  0  0  0  0  0  0  0  0
  141.0084   70.7832  227.4942 H   0  0  0  0  0  0  0  0  0  0  0  0
  140.3910   68.7090  227.5670 C   0  0  0  0  0  0  0  0  0  0  0  0
  140.7742   68.5556  228.5866 H   0  0  0  0  0  0  0  0  0  0  0  0
  139.7700   67.6570  226.8910 C   0  0  0  0  0  0  0  0  0  0  0  0
  139.6675   66.6754  227.3768 H   0  0  0  0  0  0  0  0  0  0  0  0
  139.2790   67.8510  225.5980 C   0  0  0  0  0  0  0  0  0  0  0  0
  138.7936   67.0187  225.0674 H   0  0  0  0  0  0  0  0  0  0  0  0
  139.4010   69.1030  224.9700 C   0  0  0  0  0  0  0  0  0  0  0  0
  138.9260   69.2580  223.5490 C   0  0  0  0  0  0  0  0  0  0  0  0
  139.6862   68.8413  222.8719 H   0  0  0  0  0  0  0  0  0  0  0  0
  137.9704   68.7228  223.4474 H   0  0  0  0  0  0  0  0  0  0  0  0
  138.6910   70.7220  223.1870 C   0  0  0  0  0  0  0  0  0  0  0  0
  138.5479   70.8116  222.1000 H   0  0  0  0  0  0  0  0  0  0  0  0
  137.7940   71.0872  223.7086 H   0  0  0  0  0  0  0  0  0  0  0  0
  141.5750   72.1140  221.9840 N   0  0  0  0  0  0  0  0  0  0  0  0
  142.1520   72.9800  221.1120 C   0  0  0  0  0  0  0  0  0  0  0  0
  143.3110   72.5740  220.3610 N   0  0  0  0  0  0  0  0  0  0  0  0
  143.1440   71.6610  219.2240 C   0  0  0  0  0  0  0  0  0  0  0  0
  142.3205   70.9629  219.4350 H   0  0  0  0  0  0  0  0  0  0  0  0
  142.9144   72.2461  218.3212 H   0  0  0  0  0  0  0  0  0  0  0  0
  144.4330   70.8700  218.9960 C   0  0  0  0  0  0  0  0  0  0  0  0
  144.5990   70.1938  219.8476 H   0  0  0  0  0  0  0  0  0  0  0  0
  144.3364   70.2898  218.0665 H   0  0  0  0  0  0  0  0  0  0  0  0
  145.5770   71.7820  218.8720 N   0  0  0  0  0  0  0  0  0  0  0  0
  146.4320   71.1950  218.7460 H   0  0  0  0  0  0  0  0  0  0  0  0
  145.7540   72.5560  220.1050 C   0  0  0  0  0  0  0  0  0  0  0  0
  145.9156   71.8653  220.9458 H   0  0  0  0  0  0  0  0  0  0  0  0
  146.6233   73.2196  219.9865 H   0  0  0  0  0  0  0  0  0  0  0  0
  144.5170   73.4080  220.3850 C   0  0  0  0  0  0  0  0  0  0  0  0
  144.6151   73.8764  221.3755 H   0  0  0  0  0  0  0  0  0  0  0  0
  144.4324   74.1834  219.6093 H   0  0  0  0  0  0  0  0  0  0  0  0
  141.6190   74.2240  220.9490 N   0  0  0  0  0  0  0  0  0  0  0  0
  142.1070   74.8960  220.3200 H   0  0  0  0  0  0  0  0  0  0  0  0
  1  2  1  0
  2  3  1  0
  3  4  2  0
  4  5  1  0
  4  6  1  0
  6  7  1  0
  6  8  1  0
  8  9  1  0
  9 10  1  0
  9 11  1  0
  9 12  1  0
 12 13  1  0
 12 14  1  0
 12 15  1  0
 15 16  1  0
 15 17  2  0
 17 18  1  0
 18 19  2  0
 19 20  1  0
 20 21  1  0
 21 22  1  0
 21 23  1  0
 21 24  1  0
 24 25  2  0
 25 26  1  0
 25 27  1  0
 27 28  1  0
 27 29  2  0
 29 30  1  0
 29 31  1  0
 31 32  1  0
 31 33  2  0
 33 34  1  0
 34 35  1  0
 34 36  1  0
 34 37  1  0
 37 38  1  0
 37 39  1  0
 19 40  1  0
 40 41  2  0
 41 42  1  0
 42 43  1  0
 43 44  1  0
 43 45  1  0
 43 46  1  0
 46 47  1  0
 46 48  1  0
 46 49  1  0
 49 50  1  0
 49 51  1  0
 51 52  1  0
 51 53  1  0
 51 54  1  0
 54 55  1  0
 54 56  1  0
 41 57  1  0
 57 58  1  0
  8  2  2  0
 57 17  1  0
 37 20  1  0
 54 42  1  0
 33 24  1  0
M  CHG  1  15   1
M  END
>  <UniqueID>  (33) 
535

>  <SMILES>  (33) 
c1ccc2c(c1)CCN(c1nc(N3CCNCC3)[nH]/c(=[NH+]\CCc3cnc[nH]3)n1)C2

>  <Energy>  (33) 
93.63209805943227

>  <Genealogy>  (33) 
c1ccc2c(c1)CCN(c1nc([NH2+]CCc3cnc[nH]3)nc(N3CCNCC3)n1)C2 (protonated)
c1ccc2c(c1)CCN(c1nc(N3CCNCC3)[nH]c(=[NH+]CCc3cnc[nH]3)n1)C2 (tautomer)
c1ccc2c(c1)CCN(c1nc(N3CCNCC3)[nH]/c(=[NH+]\CCc3cnc[nH]3)n1)C2 (cis-trans isomerization)
c1ccc2c(c1)CCN(c1nc(N3CCNCC3)[nH]/c(=[NH+]\CCc3cnc[nH]3)n1)C2 (3D coordinates assigned)
c1ccc2c(c1)CCN(c1nc(N3CCNCC3)[nH]/c(=[NH+]\CCc3cnc[nH]3)n1)C2 (nonaromatic ring conformer: 93.63209805943227 kcal/mol)

>  <smiles>  (33) 
c1ccc2c(c1)CCN(c1nc(NCCc3cnc[nH]3)nc(N3CCNCC3)n1)C2

>  <score_type>  (33) 
oracle

>  <origin>  (33) 
autodockgpu

>  <m_score__min__energy>  (33) 
-9.0700000000000003

>  <m_primary>  (33) 
energy

>  <meeko>  (33) 
{"free_energy": -8.89, "intermolecular_energy": -10.68, "internal_energy": -0.09, "cluster_size": 18, "cluster_id": 1, "rank_in_cluster": 6}

>  <energy>  (33) 
-8.21

>  <cluster_rmsd>  (33) 
1.13

>  <rmsd>  (33) 
269.97

>  <cluster>  (33) 
1

$$$$
PEEFGLWBFXZENK-UFTUCYPHNA-O
     RDKit          3D

 58 62  0  0  0  0  0  0  0  0999 V2000
  139.7774   69.0591  226.7601 H   0  0  0  0  0  0  0  0  0  0  0  0
  140.1850   70.0450  226.4920 C   0  0  0  0  0  0  0  0  0  0  0  0
  141.0410   70.7670  227.2430 N   0  0  0  0  0  0  0  0  0  0  0  0
  141.2570   71.8850  226.5200 C   0  0  0  0  0  0  0  0  0  0  0  0
  141.9159   72.7029  226.8470 H   0  0  0  0  0  0  0  0  0  0  0  0
  140.5810   71.8940  225.3560 N   0  0  0  0  0  0  0  0  0  0  0  0
  140.5880   72.6390  224.6290 H   0  0  0  0  0  0  0  0  0  0  0  0
  139.9020   70.7380  225.3360 C   0  0  0  0  0  0  0  0  0  0  0  0
  139.0330   70.2740  224.2050 C   0  0  0  0  0  0  0  0  0  0  0  0
  138.0077   70.6369  224.3693 H   0  0  0  0  0  0  0  0  0  0  0  0
  139.0582   69.1746  224.1774 H   0  0  0  0  0  0  0  0  0  0  0  0
  139.5400   70.8030  222.8560 C   0  0  0  0  0  0  0  0  0  0  0  0
  139.0084   70.2827  222.0457 H   0  0  0  0  0  0  0  0  0  0  0  0
  140.6226   70.6169  222.7977 H   0  0  0  0  0  0  0  0  0  0  0  0
  139.3140   72.2470  222.7240 N   0  0  0  0  0  0  0  0  0  0  0  0
  138.4340   72.6460  223.1260 H   0  0  0  0  0  0  0  0  0  0  0  0
  140.1630   73.0780  222.1780 C   0  0  0  0  0  0  0  0  0  0  0  0
  139.8920   74.4090  222.2120 N   0  0  0  0  0  0  0  0  0  0  0  0
  140.7500   75.3160  221.6820 C   0  0  0  0  0  0  0  0  0  0  0  0
  140.4570   76.7290  221.7420 N   0  0  0  0  0  0  0  0  0  0  0  0
  141.4740   77.7150  221.3480 C   0  0  0  0  0  0  0  0  0  0  0  0
  142.4701   77.3079  221.5764 H   0  0  0  0  0  0  0  0  0  0  0  0
  141.3595   77.9083  220.2712 H   0  0  0  0  0  0  0  0  0  0  0  0
  141.3050   79.0270  222.0770 C   0  0  0  0  0  0  0  0  0  0  0  0
  142.3010   80.0080  221.9460 C   0  0  0  0  0  0  0  0  0  0  0  0
  143.1870   79.8077  221.3257 H   0  0  0  0  0  0  0  0  0  0  0  0
  142.1740   81.2360  222.5980 C   0  0  0  0  0  0  0  0  0  0  0  0
  142.9646   81.9943  222.4985 H   0  0  0  0  0  0  0  0  0  0  0  0
  141.0460   81.5040  223.3760 C   0  0  0  0  0  0  0  0  0  0  0  0
  140.9503   82.4714  223.8907 H   0  0  0  0  0  0  0  0  0  0  0  0
  140.0390   80.5440  223.5010 C   0  0  0  0  0  0  0  0  0  0  0  0
  139.1536   80.7578  224.1177 H   0  0  0  0  0  0  0  0  0  0  0  0
  140.1500   79.3070  222.8440 C   0  0  0  0  0  0  0  0  0  0  0  0
  139.0820   78.2670  223.0580 C   0  0  0  0  0  0  0  0  0  0  0  0
  139.2560   77.7717  224.0247 H   0  0  0  0  0  0  0  0  0  0  0  0
  138.1050   78.7722  223.0426 H   0  0  0  0  0  0  0  0  0  0  0  0
  139.0880   77.2120  221.9540 C   0  0  0  0  0  0  0  0  0  0  0  0
  138.4443   76.3701  222.2487 H   0  0  0  0  0  0  0  0  0  0  0  0
  138.7091   77.6566  221.0219 H   0  0  0  0  0  0  0  0  0  0  0  0
  141.9030   74.8760  221.1150 N   0  0  0  0  0  0  0  0  0  0  0  0
  142.2000   73.5520  221.0710 C   0  0  0  0  0  0  0  0  0  0  0  0
  143.4430   73.1170  220.4890 N   0  0  0  0  0  0  0  0  0  0  0  0
  143.4280   72.0390  219.4940 C   0  0  0  0  0  0  0  0  0  0  0  0
  142.6261   71.3272  219.7397 H   0  0  0  0  0  0  0  0  0  0  0  0
  143.2513   72.4692  218.4971 H   0  0  0  0  0  0  0  0  0  0  0  0
  144.7720   71.3090  219.4960 C   0  0  0  0  0  0  0  0  0  0  0  0
  144.8944   70.7772  220.4511 H   0  0  0  0  0  0  0  0  0  0  0  0
  144.7912   70.5938  218.6605 H   0  0  0  0  0  0  0  0  0  0  0  0
  145.8740   72.2660  219.3300 N   0  0  0  0  0  0  0  0  0  0  0  0
  146.7660   71.7240  219.3660 H   0  0  0  0  0  0  0  0  0  0  0  0
  145.8970   73.2220  220.4420 C   0  0  0  0  0  0  0  0  0  0  0  0
  146.0169   72.6739  221.3882 H   0  0  0  0  0  0  0  0  0  0  0  0
  146.7377   73.9164  220.2970 H   0  0  0  0  0  0  0  0  0  0  0  0
  144.5960   74.0230  220.4860 C   0  0  0  0  0  0  0  0  0  0  0  0
  144.5780   74.6369  221.3986 H   0  0  0  0  0  0  0  0  0  0  0  0
  144.5423   74.6691  219.5974 H   0  0  0  0  0  0  0  0  0  0  0  0
  141.3200   72.6490  221.5880 N   0  0  0  0  0  0  0  0  0  0  0  0
  141.5360   71.6330  221.4940 H   0  0  0  0  0  0  0  0  0  0  0  0
  1  2  1  0
  2  3  1  0
  3  4  2  0
  4  5  1  0
  4  6  1  0
  6  7  1  0
  6  8  1  0
  8  9  1  0
  9 10  1  0
  9 11  1  0
  9 12  1  0
 12 13  1  0
 12 14  1  0
 12 15  1  0
 15 16  1  0
 15 17  2  0
 17 18  1  0
 18 19  2  0
 19 20  1  0
 20 21  1  0
 21 22  1  0
 21 23  1  0
 21 24  1  0
 24 25  2  0
 25 26  1  0
 25 27  1  0
 27 28  1  0
 27 29  2  0
 29 30  1  0
 29 31  1  0
 31 32  1  0
 31 33  2  0
 33 34  1  0
 34 35  1  0
 34 36  1  0
 34 37  1  0
 37 38  1  0
 37 39  1  0
 19 40  1  0
 40 41  2  0
 41 42  1  0
 42 43  1  0
 43 44  1  0
 43 45  1  0
 43 46  1  0
 46 47  1  0
 46 48  1  0
 46 49  1  0
 49 50  1  0
 49 51  1  0
 51 52  1  0
 51 53  1  0
 51 54  1  0
 54 55  1  0
 54 56  1  0
 41 57  1  0
 57 58  1  0
  8  2  2  0
 57 17  1  0
 37 20  1  0
 54 42  1  0
 33 24  1  0
M  CHG  1  15   1
M  END
>  <UniqueID>  (34) 
535

>  <SMILES>  (34) 
c1ccc2c(c1)CCN(c1nc(N3CCNCC3)[nH]/c(=[NH+]\CCc3cnc[nH]3)n1)C2

>  <Energy>  (34) 
93.63209805943227

>  <Genealogy>  (34) 
c1ccc2c(c1)CCN(c1nc([NH2+]CCc3cnc[nH]3)nc(N3CCNCC3)n1)C2 (protonated)
c1ccc2c(c1)CCN(c1nc(N3CCNCC3)[nH]c(=[NH+]CCc3cnc[nH]3)n1)C2 (tautomer)
c1ccc2c(c1)CCN(c1nc(N3CCNCC3)[nH]/c(=[NH+]\CCc3cnc[nH]3)n1)C2 (cis-trans isomerization)
c1ccc2c(c1)CCN(c1nc(N3CCNCC3)[nH]/c(=[NH+]\CCc3cnc[nH]3)n1)C2 (3D coordinates assigned)
c1ccc2c(c1)CCN(c1nc(N3CCNCC3)[nH]/c(=[NH+]\CCc3cnc[nH]3)n1)C2 (nonaromatic ring conformer: 93.63209805943227 kcal/mol)

>  <smiles>  (34) 
c1ccc2c(c1)CCN(c1nc(NCCc3cnc[nH]3)nc(N3CCNCC3)n1)C2

>  <score_type>  (34) 
oracle

>  <origin>  (34) 
autodockgpu

>  <m_score__min__energy>  (34) 
-9.0700000000000003

>  <m_primary>  (34) 
energy

>  <meeko>  (34) 
{"free_energy": -8.49, "intermolecular_energy": -10.28, "internal_energy": -0.27, "cluster_size": 18, "cluster_id": 1, "rank_in_cluster": 10}

>  <energy>  (34) 
-8.07

>  <cluster_rmsd>  (34) 
1.87

>  <rmsd>  (34) 
269.82

>  <cluster>  (34) 
1

$$$$
PEEFGLWBFXZENK-UFTUCYPHNA-O
     RDKit          3D

 58 62  0  0  0  0  0  0  0  0999 V2000
  143.8808   73.4053  217.9169 H   0  0  0  0  0  0  0  0  0  0  0  0
  144.3070   73.3980  218.9310 C   0  0  0  0  0  0  0  0  0  0  0  0
  144.4970   74.4840  219.7060 N   0  0  0  0  0  0  0  0  0  0  0  0
  145.0330   73.9940  220.8420 C   0  0  0  0  0  0  0  0  0  0  0  0
  145.3167   74.6205  221.7005 H   0  0  0  0  0  0  0  0  0  0  0  0
  145.1840   72.6570  220.8140 N   0  0  0  0  0  0  0  0  0  0  0  0
  145.5690   72.0510  221.5680 H   0  0  0  0  0  0  0  0  0  0  0  0
  144.7310   72.2780  219.6100 C   0  0  0  0  0  0  0  0  0  0  0  0
  144.6530   70.8580  219.1320 C   0  0  0  0  0  0  0  0  0  0  0  0
  145.5279   70.3060  219.5059 H   0  0  0  0  0  0  0  0  0  0  0  0
  144.6356   70.8634  218.0322 H   0  0  0  0  0  0  0  0  0  0  0  0
  143.3760   70.1680  219.6320 C   0  0  0  0  0  0  0  0  0  0  0  0
  143.4835   69.9521  220.7053 H   0  0  0  0  0  0  0  0  0  0  0  0
  143.2380   69.2403  219.0572 H   0  0  0  0  0  0  0  0  0  0  0  0
  142.1930   71.0130  219.4320 N   0  0  0  0  0  0  0  0  0  0  0  0
  141.7140   70.9770  218.5020 H   0  0  0  0  0  0  0  0  0  0  0  0
  141.6680   71.7750  220.3550 C   0  0  0  0  0  0  0  0  0  0  0  0
  141.1430   71.1930  221.4660 N   0  0  0  0  0  0  0  0  0  0  0  0
  140.6090   71.9400  222.4650 C   0  0  0  0  0  0  0  0  0  0  0  0
  140.0710   71.3080  223.6470 N   0  0  0  0  0  0  0  0  0  0  0  0
  140.5440   71.7060  224.9820 C   0  0  0  0  0  0  0  0  0  0  0  0
  141.5954   72.0205  224.9065 H   0  0  0  0  0  0  0  0  0  0  0  0
  139.9055   72.5288  225.3360 H   0  0  0  0  0  0  0  0  0  0  0  0
  140.4440   70.5780  225.9800 C   0  0  0  0  0  0  0  0  0  0  0  0
  141.0220   70.7430  227.2490 C   0  0  0  0  0  0  0  0  0  0  0  0
  141.5425   71.6803  227.4949 H   0  0  0  0  0  0  0  0  0  0  0  0
  140.9400   69.7240  228.2010 C   0  0  0  0  0  0  0  0  0  0  0  0
  141.4031   69.8583  229.1897 H   0  0  0  0  0  0  0  0  0  0  0  0
  140.2720   68.5360  227.9010 C   0  0  0  0  0  0  0  0  0  0  0  0
  140.2134   67.7338  228.6514 H   0  0  0  0  0  0  0  0  0  0  0  0
  139.6780   68.3650  226.6490 C   0  0  0  0  0  0  0  0  0  0  0  0
  139.1550   67.4258  226.4159 H   0  0  0  0  0  0  0  0  0  0  0  0
  139.7440   69.3850  225.6850 C   0  0  0  0  0  0  0  0  0  0  0  0
  139.1560   69.1400  224.3190 C   0  0  0  0  0  0  0  0  0  0  0  0
  139.8616   68.5349  223.7308 H   0  0  0  0  0  0  0  0  0  0  0  0
  138.1978   68.6154  224.4480 H   0  0  0  0  0  0  0  0  0  0  0  0
  138.8860   70.4460  223.5760 C   0  0  0  0  0  0  0  0  0  0  0  0
  138.6555   70.2269  222.5230 H   0  0  0  0  0  0  0  0  0  0  0  0
  138.0322   70.9605  224.0411 H   0  0  0  0  0  0  0  0  0  0  0  0
  140.6100   73.2920  222.3480 N   0  0  0  0  0  0  0  0  0  0  0  0
  141.1320   73.8980  221.2510 C   0  0  0  0  0  0  0  0  0  0  0  0
  141.1450   75.3360  221.1670 N   0  0  0  0  0  0  0  0  0  0  0  0
  141.5320   75.9750  219.9040 C   0  0  0  0  0  0  0  0  0  0  0  0
  142.2961   75.3616  219.4041 H   0  0  0  0  0  0  0  0  0  0  0  0
  140.6464   76.0655  219.2578 H   0  0  0  0  0  0  0  0  0  0  0  0
  142.1000   77.3690  220.1780 C   0  0  0  0  0  0  0  0  0  0  0  0
  143.0520   77.2722  220.7205 H   0  0  0  0  0  0  0  0  0  0  0  0
  142.2618   77.8831  219.2191 H   0  0  0  0  0  0  0  0  0  0  0  0
  141.1600   78.1550  220.9870 N   0  0  0  0  0  0  0  0  0  0  0  0
  141.6040   79.0830  221.1690 H   0  0  0  0  0  0  0  0  0  0  0  0
  140.9380   77.5130  222.2870 C   0  0  0  0  0  0  0  0  0  0  0  0
  141.8990   77.4216  222.8143 H   0  0  0  0  0  0  0  0  0  0  0  0
  140.2406   78.1292  222.8735 H   0  0  0  0  0  0  0  0  0  0  0  0
  140.3320   76.1220  222.1010 C   0  0  0  0  0  0  0  0  0  0  0  0
  140.2965   75.6082  223.0730 H   0  0  0  0  0  0  0  0  0  0  0  0
  139.3156   76.2249  221.6932 H   0  0  0  0  0  0  0  0  0  0  0  0
  141.6470   73.1390  220.2440 N   0  0  0  0  0  0  0  0  0  0  0  0
  141.9900   73.6170  219.3840 H   0  0  0  0  0  0  0  0  0  0  0  0
  1  2  1  0
  2  3  1  0
  3  4  2  0
  4  5  1  0
  4  6  1  0
  6  7  1  0
  6  8  1  0
  8  9  1  0
  9 10  1  0
  9 11  1  0
  9 12  1  0
 12 13  1  0
 12 14  1  0
 12 15  1  0
 15 16  1  0
 15 17  2  0
 17 18  1  0
 18 19  2  0
 19 20  1  0
 20 21  1  0
 21 22  1  0
 21 23  1  0
 21 24  1  0
 24 25  2  0
 25 26  1  0
 25 27  1  0
 27 28  1  0
 27 29  2  0
 29 30  1  0
 29 31  1  0
 31 32  1  0
 31 33  2  0
 33 34  1  0
 34 35  1  0
 34 36  1  0
 34 37  1  0
 37 38  1  0
 37 39  1  0
 19 40  1  0
 40 41  2  0
 41 42  1  0
 42 43  1  0
 43 44  1  0
 43 45  1  0
 43 46  1  0
 46 47  1  0
 46 48  1  0
 46 49  1  0
 49 50  1  0
 49 51  1  0
 51 52  1  0
 51 53  1  0
 51 54  1  0
 54 55  1  0
 54 56  1  0
 41 57  1  0
 57 58  1  0
  8  2  2  0
 57 17  1  0
 37 20  1  0
 54 42  1  0
 33 24  1  0
M  CHG  1  15   1
M  END
>  <UniqueID>  (35) 
535

>  <SMILES>  (35) 
c1ccc2c(c1)CCN(c1nc(N3CCNCC3)[nH]/c(=[NH+]\CCc3cnc[nH]3)n1)C2

>  <Energy>  (35) 
93.63209805943227

>  <Genealogy>  (35) 
c1ccc2c(c1)CCN(c1nc([NH2+]CCc3cnc[nH]3)nc(N3CCNCC3)n1)C2 (protonated)
c1ccc2c(c1)CCN(c1nc(N3CCNCC3)[nH]c(=[NH+]CCc3cnc[nH]3)n1)C2 (tautomer)
c1ccc2c(c1)CCN(c1nc(N3CCNCC3)[nH]/c(=[NH+]\CCc3cnc[nH]3)n1)C2 (cis-trans isomerization)
c1ccc2c(c1)CCN(c1nc(N3CCNCC3)[nH]/c(=[NH+]\CCc3cnc[nH]3)n1)C2 (3D coordinates assigned)
c1ccc2c(c1)CCN(c1nc(N3CCNCC3)[nH]/c(=[NH+]\CCc3cnc[nH]3)n1)C2 (nonaromatic ring conformer: 93.63209805943227 kcal/mol)

>  <smiles>  (35) 
c1ccc2c(c1)CCN(c1nc(NCCc3cnc[nH]3)nc(N3CCNCC3)n1)C2

>  <score_type>  (35) 
oracle

>  <origin>  (35) 
autodockgpu

>  <m_score__min__energy>  (35) 
-9.0700000000000003

>  <m_primary>  (35) 
energy

>  <meeko>  (35) 
{"free_energy": -7.73, "intermolecular_energy": -9.52, "internal_energy": -0.88, "cluster_size": 18, "cluster_id": 1, "rank_in_cluster": 18}

>  <energy>  (35) 
-7.97

>  <cluster_rmsd>  (35) 
1.98

>  <rmsd>  (35) 
269.84

>  <cluster>  (35) 
1

$$$$
PEEFGLWBFXZENK-UFTUCYPHNA-O
     RDKit          3D

 58 62  0  0  0  0  0  0  0  0999 V2000
  138.2679   68.7640  224.2905 H   0  0  0  0  0  0  0  0  0  0  0  0
  139.0190   68.5990  225.0770 C   0  0  0  0  0  0  0  0  0  0  0  0
  139.1610   67.4680  225.7960 N   0  0  0  0  0  0  0  0  0  0  0  0
  140.1940   67.7260  226.6240 C   0  0  0  0  0  0  0  0  0  0  0  0
  140.5795   67.0046  227.3595 H   0  0  0  0  0  0  0  0  0  0  0  0
  140.7030   68.9610  226.4540 N   0  0  0  0  0  0  0  0  0  0  0  0
  141.5010   69.3890  226.9680 H   0  0  0  0  0  0  0  0  0  0  0  0
  139.9630   69.5150  225.4830 C   0  0  0  0  0  0  0  0  0  0  0  0
  140.1870   70.8840  224.9110 C   0  0  0  0  0  0  0  0  0  0  0  0
  141.2243   71.1903  225.1113 H   0  0  0  0  0  0  0  0  0  0  0  0
  139.4769   71.5778  225.3848 H   0  0  0  0  0  0  0  0  0  0  0  0
  139.9440   70.9040  223.3950 C   0  0  0  0  0  0  0  0  0  0  0  0
  139.1649   70.1676  223.1484 H   0  0  0  0  0  0  0  0  0  0  0  0
  140.8902   70.6576  222.8911 H   0  0  0  0  0  0  0  0  0  0  0  0
  139.5100   72.2290  222.9360 N   0  0  0  0  0  0  0  0  0  0  0  0
  138.5500   72.5500  223.1990 H   0  0  0  0  0  0  0  0  0  0  0  0
  140.2610   73.0550  222.2570 C   0  0  0  0  0  0  0  0  0  0  0  0
  139.9770   74.3830  222.2970 N   0  0  0  0  0  0  0  0  0  0  0  0
  140.7400   75.2860  221.6300 C   0  0  0  0  0  0  0  0  0  0  0  0
  140.4360   76.6970  221.6980 N   0  0  0  0  0  0  0  0  0  0  0  0
  141.4540   77.6930  221.3290 C   0  0  0  0  0  0  0  0  0  0  0  0
  142.4487   77.2903  221.5708 H   0  0  0  0  0  0  0  0  0  0  0  0
  141.3568   77.8946  220.2520 H   0  0  0  0  0  0  0  0  0  0  0  0
  141.2640   78.9970  222.0660 C   0  0  0  0  0  0  0  0  0  0  0  0
  142.2570   79.9850  221.9600 C   0  0  0  0  0  0  0  0  0  0  0  0
  143.1551   79.7951  221.3540 H   0  0  0  0  0  0  0  0  0  0  0  0
  142.1100   81.2070  222.6200 C   0  0  0  0  0  0  0  0  0  0  0  0
  142.8967   81.9715  222.5389 H   0  0  0  0  0  0  0  0  0  0  0  0
  140.9690   81.4620  223.3820 C   0  0  0  0  0  0  0  0  0  0  0  0
  140.8592   82.4242  223.9036 H   0  0  0  0  0  0  0  0  0  0  0  0
  139.9660   80.4940  223.4820 C   0  0  0  0  0  0  0  0  0  0  0  0
  139.0695   80.6967  224.0863 H   0  0  0  0  0  0  0  0  0  0  0  0
  140.0950   79.2640  222.8160 C   0  0  0  0  0  0  0  0  0  0  0  0
  139.0300   78.2150  223.0040 C   0  0  0  0  0  0  0  0  0  0  0  0
  139.1913   77.7125  223.9692 H   0  0  0  0  0  0  0  0  0  0  0  0
  138.0499   78.7136  222.9774 H   0  0  0  0  0  0  0  0  0  0  0  0
  139.0620   77.1700  221.8910 C   0  0  0  0  0  0  0  0  0  0  0  0
  138.4185   76.3217  222.1671 H   0  0  0  0  0  0  0  0  0  0  0  0
  138.6970   77.6212  220.9566 H   0  0  0  0  0  0  0  0  0  0  0  0
  141.8080   74.8460  220.9190 N   0  0  0  0  0  0  0  0  0  0  0  0
  142.1160   73.5240  220.8650 C   0  0  0  0  0  0  0  0  0  0  0  0
  143.2720   73.0890  220.1250 N   0  0  0  0  0  0  0  0  0  0  0  0
  144.0900   74.0850  219.4250 C   0  0  0  0  0  0  0  0  0  0  0  0
  143.4431   74.8955  219.0581 H   0  0  0  0  0  0  0  0  0  0  0  0
  144.8383   74.4925  220.1207 H   0  0  0  0  0  0  0  0  0  0  0  0
  144.8060   73.4320  218.2410 C   0  0  0  0  0  0  0  0  0  0  0  0
  144.0620   73.1323  217.4882 H   0  0  0  0  0  0  0  0  0  0  0  0
  145.5120   74.1559  217.8079 H   0  0  0  0  0  0  0  0  0  0  0  0
  145.5510   72.2470  218.6830 N   0  0  0  0  0  0  0  0  0  0  0  0
  145.9960   71.8240  217.8390 H   0  0  0  0  0  0  0  0  0  0  0  0
  144.6380   71.2460  219.2450 C   0  0  0  0  0  0  0  0  0  0  0  0
  143.8999   70.9602  218.4811 H   0  0  0  0  0  0  0  0  0  0  0  0
  145.2221   70.3674  219.5562 H   0  0  0  0  0  0  0  0  0  0  0  0
  143.9080   71.8100  220.4630 C   0  0  0  0  0  0  0  0  0  0  0  0
  143.1373   71.0955  220.7878 H   0  0  0  0  0  0  0  0  0  0  0  0
  144.6340   71.9730  221.2731 H   0  0  0  0  0  0  0  0  0  0  0  0
  141.3310   72.6240  221.5210 N   0  0  0  0  0  0  0  0  0  0  0  0
  141.5470   71.6090  221.4220 H   0  0  0  0  0  0  0  0  0  0  0  0
  1  2  1  0
  2  3  1  0
  3  4  2  0
  4  5  1  0
  4  6  1  0
  6  7  1  0
  6  8  1  0
  8  9  1  0
  9 10  1  0
  9 11  1  0
  9 12  1  0
 12 13  1  0
 12 14  1  0
 12 15  1  0
 15 16  1  0
 15 17  2  0
 17 18  1  0
 18 19  2  0
 19 20  1  0
 20 21  1  0
 21 22  1  0
 21 23  1  0
 21 24  1  0
 24 25  2  0
 25 26  1  0
 25 27  1  0
 27 28  1  0
 27 29  2  0
 29 30  1  0
 29 31  1  0
 31 32  1  0
 31 33  2  0
 33 34  1  0
 34 35  1  0
 34 36  1  0
 34 37  1  0
 37 38  1  0
 37 39  1  0
 19 40  1  0
 40 41  2  0
 41 42  1  0
 42 43  1  0
 43 44  1  0
 43 45  1  0
 43 46  1  0
 46 47  1  0
 46 48  1  0
 46 49  1  0
 49 50  1  0
 49 51  1  0
 51 52  1  0
 51 53  1  0
 51 54  1  0
 54 55  1  0
 54 56  1  0
 41 57  1  0
 57 58  1  0
  8  2  2  0
 57 17  1  0
 37 20  1  0
 54 42  1  0
 33 24  1  0
M  CHG  1  15   1
M  END
>  <UniqueID>  (36) 
535

>  <SMILES>  (36) 
c1ccc2c(c1)CCN(c1nc(N3CCNCC3)[nH]/c(=[NH+]\CCc3cnc[nH]3)n1)C2

>  <Energy>  (36) 
93.63209805943227

>  <Genealogy>  (36) 
c1ccc2c(c1)CCN(c1nc([NH2+]CCc3cnc[nH]3)nc(N3CCNCC3)n1)C2 (protonated)
c1ccc2c(c1)CCN(c1nc(N3CCNCC3)[nH]c(=[NH+]CCc3cnc[nH]3)n1)C2 (tautomer)
c1ccc2c(c1)CCN(c1nc(N3CCNCC3)[nH]/c(=[NH+]\CCc3cnc[nH]3)n1)C2 (cis-trans isomerization)
c1ccc2c(c1)CCN(c1nc(N3CCNCC3)[nH]/c(=[NH+]\CCc3cnc[nH]3)n1)C2 (3D coordinates assigned)
c1ccc2c(c1)CCN(c1nc(N3CCNCC3)[nH]/c(=[NH+]\CCc3cnc[nH]3)n1)C2 (nonaromatic ring conformer: 93.63209805943227 kcal/mol)

>  <smiles>  (36) 
c1ccc2c(c1)CCN(c1nc(NCCc3cnc[nH]3)nc(N3CCNCC3)n1)C2

>  <score_type>  (36) 
oracle

>  <origin>  (36) 
autodockgpu

>  <m_score__min__energy>  (36) 
-9.0700000000000003

>  <m_primary>  (36) 
energy

>  <meeko>  (36) 
{"free_energy": -8.6, "intermolecular_energy": -10.39, "internal_energy": -0.16, "cluster_size": 1, "cluster_id": 2, "rank_in_cluster": 1}

>  <energy>  (36) 
-7.86

>  <cluster_rmsd>  (36) 
1.54

>  <rmsd>  (36) 
269.52

>  <cluster>  (36) 
1

$$$$
PEEFGLWBFXZENK-UFTUCYPHNA-O
     RDKit          3D

 58 62  0  0  0  0  0  0  0  0999 V2000
  139.5789   79.3756  223.2865 H   0  0  0  0  0  0  0  0  0  0  0  0
  140.6590   79.5540  223.1790 C   0  0  0  0  0  0  0  0  0  0  0  0
  141.3600   80.5110  223.8190 N   0  0  0  0  0  0  0  0  0  0  0  0
  142.6250   80.3480  223.3810 C   0  0  0  0  0  0  0  0  0  0  0  0
  143.4676   80.9753  223.7074 H   0  0  0  0  0  0  0  0  0  0  0  0
  142.7470   79.3350  222.5010 N   0  0  0  0  0  0  0  0  0  0  0  0
  143.6170   79.0130  222.0290 H   0  0  0  0  0  0  0  0  0  0  0  0
  141.5100   78.8350  222.3690 C   0  0  0  0  0  0  0  0  0  0  0  0
  141.1510   77.6510  221.5200 C   0  0  0  0  0  0  0  0  0  0  0  0
  141.9937   76.9440  221.5169 H   0  0  0  0  0  0  0  0  0  0  0  0
  140.9369   78.0072  220.5015 H   0  0  0  0  0  0  0  0  0  0  0  0
  139.9020   76.9370  222.0550 C   0  0  0  0  0  0  0  0  0  0  0  0
  139.0330   77.6011  221.9377 H   0  0  0  0  0  0  0  0  0  0  0  0
  140.0704   76.6953  223.1148 H   0  0  0  0  0  0  0  0  0  0  0  0
  139.6460   75.6840  221.3320 N   0  0  0  0  0  0  0  0  0  0  0  0
  138.9260   75.6930  220.5740 H   0  0  0  0  0  0  0  0  0  0  0  0
  140.2920   74.5680  221.5430 C   0  0  0  0  0  0  0  0  0  0  0  0
  139.7850   73.6760  222.4340 N   0  0  0  0  0  0  0  0  0  0  0  0
  140.4030   72.4910  222.6720 C   0  0  0  0  0  0  0  0  0  0  0  0
  139.8410   71.5450  223.6080 N   0  0  0  0  0  0  0  0  0  0  0  0
  140.3200   71.5030  224.9980 C   0  0  0  0  0  0  0  0  0  0  0  0
  141.3803   71.7951  225.0169 H   0  0  0  0  0  0  0  0  0  0  0  0
  139.7048   72.1967  225.5898 H   0  0  0  0  0  0  0  0  0  0  0  0
  140.1830   70.1260  225.6040 C   0  0  0  0  0  0  0  0  0  0  0  0
  140.7600   69.8790  226.8600 C   0  0  0  0  0  0  0  0  0  0  0  0
  141.3064   70.6808  227.3781 H   0  0  0  0  0  0  0  0  0  0  0  0
  140.6440   68.6210  227.4550 C   0  0  0  0  0  0  0  0  0  0  0  0
  141.1081   68.4330  228.4344 H   0  0  0  0  0  0  0  0  0  0  0  0
  139.9410   67.6010  226.8110 C   0  0  0  0  0  0  0  0  0  0  0  0
  139.8548   66.6103  227.2813 H   0  0  0  0  0  0  0  0  0  0  0  0
  139.3470   67.8390  225.5690 C   0  0  0  0  0  0  0  0  0  0  0  0
  138.7966   67.0321  225.0630 H   0  0  0  0  0  0  0  0  0  0  0  0
  139.4480   69.1020  224.9620 C   0  0  0  0  0  0  0  0  0  0  0  0
  138.8590   69.3040  223.5910 C   0  0  0  0  0  0  0  0  0  0  0  0
  139.5485   68.8867  222.8424 H   0  0  0  0  0  0  0  0  0  0  0  0
  137.8847   68.7943  223.5593 H   0  0  0  0  0  0  0  0  0  0  0  0
  138.6310   70.7820  223.2830 C   0  0  0  0  0  0  0  0  0  0  0  0
  138.3988   70.9016  222.2145 H   0  0  0  0  0  0  0  0  0  0  0  0
  137.7907   71.1554  223.8866 H   0  0  0  0  0  0  0  0  0  0  0  0
  141.5430   72.1980  221.9970 N   0  0  0  0  0  0  0  0  0  0  0  0
  142.0690   73.0700  221.0990 C   0  0  0  0  0  0  0  0  0  0  0  0
  143.2650   72.7200  220.3780 N   0  0  0  0  0  0  0  0  0  0  0  0
  143.1800   71.7510  219.2800 C   0  0  0  0  0  0  0  0  0  0  0  0
  142.4075   71.0033  219.5125 H   0  0  0  0  0  0  0  0  0  0  0  0
  142.9192   72.2788  218.3508 H   0  0  0  0  0  0  0  0  0  0  0  0
  144.5270   71.0490  219.0990 C   0  0  0  0  0  0  0  0  0  0  0  0
  144.7313   70.4237  219.9806 H   0  0  0  0  0  0  0  0  0  0  0  0
  144.4855   70.4245  218.1944 H   0  0  0  0  0  0  0  0  0  0  0  0
  145.6020   72.0370  218.9470 N   0  0  0  0  0  0  0  0  0  0  0  0
  146.5000   71.5110  218.8550 H   0  0  0  0  0  0  0  0  0  0  0  0
  145.7060   72.8740  220.1470 C   0  0  0  0  0  0  0  0  0  0  0  0
  145.9080   72.2338  221.0184 H   0  0  0  0  0  0  0  0  0  0  0  0
  146.5251   73.5949  220.0080 H   0  0  0  0  0  0  0  0  0  0  0  0
  144.4060   73.6420  220.3780 C   0  0  0  0  0  0  0  0  0  0  0  0
  144.4563   74.1576  221.3484 H   0  0  0  0  0  0  0  0  0  0  0  0
  144.2743   74.3755  219.5689 H   0  0  0  0  0  0  0  0  0  0  0  0
  141.4520   74.2650  220.8840 N   0  0  0  0  0  0  0  0  0  0  0  0
  141.9000   74.9480  220.2360 H   0  0  0  0  0  0  0  0  0  0  0  0
  1  2  1  0
  2  3  1  0
  3  4  2  0
  4  5  1  0
  4  6  1  0
  6  7  1  0
  6  8  1  0
  8  9  1  0
  9 10  1  0
  9 11  1  0
  9 12  1  0
 12 13  1  0
 12 14  1  0
 12 15  1  0
 15 16  1  0
 15 17  2  0
 17 18  1  0
 18 19  2  0
 19 20  1  0
 20 21  1  0
 21 22  1  0
 21 23  1  0
 21 24  1  0
 24 25  2  0
 25 26  1  0
 25 27  1  0
 27 28  1  0
 27 29  2  0
 29 30  1  0
 29 31  1  0
 31 32  1  0
 31 33  2  0
 33 34  1  0
 34 35  1  0
 34 36  1  0
 34 37  1  0
 37 38  1  0
 37 39  1  0
 19 40  1  0
 40 41  2  0
 41 42  1  0
 42 43  1  0
 43 44  1  0
 43 45  1  0
 43 46  1  0
 46 47  1  0
 46 48  1  0
 46 49  1  0
 49 50  1  0
 49 51  1  0
 51 52  1  0
 51 53  1  0
 51 54  1  0
 54 55  1  0
 54 56  1  0
 41 57  1  0
 57 58  1  0
  8  2  2  0
 57 17  1  0
 37 20  1  0
 54 42  1  0
 33 24  1  0
M  CHG  1  15   1
M  END
>  <UniqueID>  (37) 
535

>  <SMILES>  (37) 
c1ccc2c(c1)CCN(c1nc(N3CCNCC3)[nH]/c(=[NH+]\CCc3cnc[nH]3)n1)C2

>  <Energy>  (37) 
93.63209805943227

>  <Genealogy>  (37) 
c1ccc2c(c1)CCN(c1nc([NH2+]CCc3cnc[nH]3)nc(N3CCNCC3)n1)C2 (protonated)
c1ccc2c(c1)CCN(c1nc(N3CCNCC3)[nH]c(=[NH+]CCc3cnc[nH]3)n1)C2 (tautomer)
c1ccc2c(c1)CCN(c1nc(N3CCNCC3)[nH]/c(=[NH+]\CCc3cnc[nH]3)n1)C2 (cis-trans isomerization)
c1ccc2c(c1)CCN(c1nc(N3CCNCC3)[nH]/c(=[NH+]\CCc3cnc[nH]3)n1)C2 (3D coordinates assigned)
c1ccc2c(c1)CCN(c1nc(N3CCNCC3)[nH]/c(=[NH+]\CCc3cnc[nH]3)n1)C2 (nonaromatic ring conformer: 93.63209805943227 kcal/mol)

>  <smiles>  (37) 
c1ccc2c(c1)CCN(c1nc(NCCc3cnc[nH]3)nc(N3CCNCC3)n1)C2

>  <score_type>  (37) 
oracle

>  <origin>  (37) 
autodockgpu

>  <m_score__min__energy>  (37) 
-9.0700000000000003

>  <m_primary>  (37) 
energy

>  <meeko>  (37) 
{"free_energy": -9.01, "intermolecular_energy": -10.8, "internal_energy": -0.2, "cluster_size": 18, "cluster_id": 1, "rank_in_cluster": 3}

>  <energy>  (37) 
-7.74

>  <cluster_rmsd>  (37) 
1.61

>  <rmsd>  (37) 
269.51

>  <cluster>  (37) 
1

$$$$
PEEFGLWBFXZENK-UFTUCYPHNA-O
     RDKit          3D

 58 62  0  0  0  0  0  0  0  0999 V2000
  140.1211   76.4159  218.6214 H   0  0  0  0  0  0  0  0  0  0  0  0
  141.1810   76.4380  218.9150 C   0  0  0  0  0  0  0  0  0  0  0  0
  142.2010   75.9270  218.1970 N   0  0  0  0  0  0  0  0  0  0  0  0
  143.2950   76.1860  218.9420 C   0  0  0  0  0  0  0  0  0  0  0  0
  144.3145   75.8976  218.6463 H   0  0  0  0  0  0  0  0  0  0  0  0
  143.0070   76.8350  220.0860 N   0  0  0  0  0  0  0  0  0  0  0  0
  143.6780   77.1470  220.8190 H   0  0  0  0  0  0  0  0  0  0  0  0
  141.6760   76.9920  220.0740 C   0  0  0  0  0  0  0  0  0  0  0  0
  140.8890   77.7090  221.1310 C   0  0  0  0  0  0  0  0  0  0  0  0
  140.2958   78.5050  220.6572 H   0  0  0  0  0  0  0  0  0  0  0  0
  141.5949   78.1304  221.8619 H   0  0  0  0  0  0  0  0  0  0  0  0
  139.9420   76.7530  221.8700 C   0  0  0  0  0  0  0  0  0  0  0  0
  138.9601   77.2366  221.9796 H   0  0  0  0  0  0  0  0  0  0  0  0
  140.3794   76.5264  222.8536 H   0  0  0  0  0  0  0  0  0  0  0  0
  139.7730   75.4910  221.1400 N   0  0  0  0  0  0  0  0  0  0  0  0
  139.1160   75.4790  220.3250 H   0  0  0  0  0  0  0  0  0  0  0  0
  140.4230   74.3900  221.4110 C   0  0  0  0  0  0  0  0  0  0  0  0
  139.9130   73.5410  222.3420 N   0  0  0  0  0  0  0  0  0  0  0  0
  140.5350   72.3740  222.6440 C   0  0  0  0  0  0  0  0  0  0  0  0
  139.9720   71.4720  223.6220 N   0  0  0  0  0  0  0  0  0  0  0  0
  140.4370   71.5060  225.0170 C   0  0  0  0  0  0  0  0  0  0  0  0
  141.4949   71.8070  225.0310 H   0  0  0  0  0  0  0  0  0  0  0  0
  139.8104   72.2246  225.5656 H   0  0  0  0  0  0  0  0  0  0  0  0
  140.3040   70.1620  225.6930 C   0  0  0  0  0  0  0  0  0  0  0  0
  140.8710   69.9840  226.9650 C   0  0  0  0  0  0  0  0  0  0  0  0
  141.4076   70.8154  227.4455 H   0  0  0  0  0  0  0  0  0  0  0  0
  140.7580   68.7580  227.6240 C   0  0  0  0  0  0  0  0  0  0  0  0
  141.2133   68.6249  228.6165 H   0  0  0  0  0  0  0  0  0  0  0  0
  140.0690   67.7010  227.0270 C   0  0  0  0  0  0  0  0  0  0  0  0
  139.9852   66.7355  227.5474 H   0  0  0  0  0  0  0  0  0  0  0  0
  139.4860   67.8690  225.7690 C   0  0  0  0  0  0  0  0  0  0  0  0
  138.9473   67.0322  225.3003 H   0  0  0  0  0  0  0  0  0  0  0  0
  139.5830   69.1000  225.0980 C   0  0  0  0  0  0  0  0  0  0  0  0
  139.0060   69.2260  223.7120 C   0  0  0  0  0  0  0  0  0  0  0  0
  139.7059   68.7756  222.9927 H   0  0  0  0  0  0  0  0  0  0  0  0
  138.0358   68.7078  223.6972 H   0  0  0  0  0  0  0  0  0  0  0  0
  138.7710   70.6840  223.3260 C   0  0  0  0  0  0  0  0  0  0  0  0
  138.5482   70.7465  222.2506 H   0  0  0  0  0  0  0  0  0  0  0  0
  137.9225   71.0817  223.9020 H   0  0  0  0  0  0  0  0  0  0  0  0
  141.6820   72.0530  221.9940 N   0  0  0  0  0  0  0  0  0  0  0  0
  142.2110   72.8820  221.0570 C   0  0  0  0  0  0  0  0  0  0  0  0
  143.4140   72.5030  220.3630 N   0  0  0  0  0  0  0  0  0  0  0  0
  143.3340   71.5150  219.2800 C   0  0  0  0  0  0  0  0  0  0  0  0
  142.5475   70.7819  219.5124 H   0  0  0  0  0  0  0  0  0  0  0  0
  143.0958   72.0293  218.3372 H   0  0  0  0  0  0  0  0  0  0  0  0
  144.6750   70.7920  219.1350 C   0  0  0  0  0  0  0  0  0  0  0  0
  144.8552   70.1796  220.0308 H   0  0  0  0  0  0  0  0  0  0  0  0
  144.6406   70.1527  218.2405 H   0  0  0  0  0  0  0  0  0  0  0  0
  145.7660   71.7620  218.9850 N   0  0  0  0  0  0  0  0  0  0  0  0
  146.6580   71.2220  218.9180 H   0  0  0  0  0  0  0  0  0  0  0  0
  145.8600   72.6180  220.1730 C   0  0  0  0  0  0  0  0  0  0  0  0
  146.0361   71.9898  221.0586 H   0  0  0  0  0  0  0  0  0  0  0  0
  146.6922   73.3244  220.0371 H   0  0  0  0  0  0  0  0  0  0  0  0
  144.5680   73.4090  220.3670 C   0  0  0  0  0  0  0  0  0  0  0  0
  144.6087   73.9413  221.3288 H   0  0  0  0  0  0  0  0  0  0  0  0
  144.4613   74.1299  219.5431 H   0  0  0  0  0  0  0  0  0  0  0  0
  141.5890   74.0610  220.7770 N   0  0  0  0  0  0  0  0  0  0  0  0
  142.0390   74.7120  220.0980 H   0  0  0  0  0  0  0  0  0  0  0  0
  1  2  1  0
  2  3  1  0
  3  4  2  0
  4  5  1  0
  4  6  1  0
  6  7  1  0
  6  8  1  0
  8  9  1  0
  9 10  1  0
  9 11  1  0
  9 12  1  0
 12 13  1  0
 12 14  1  0
 12 15  1  0
 15 16  1  0
 15 17  2  0
 17 18  1  0
 18 19  2  0
 19 20  1  0
 20 21  1  0
 21 22  1  0
 21 23  1  0
 21 24  1  0
 24 25  2  0
 25 26  1  0
 25 27  1  0
 27 28  1  0
 27 29  2  0
 29 30  1  0
 29 31  1  0
 31 32  1  0
 31 33  2  0
 33 34  1  0
 34 35  1  0
 34 36  1  0
 34 37  1  0
 37 38  1  0
 37 39  1  0
 19 40  1  0
 40 41  2  0
 41 42  1  0
 42 43  1  0
 43 44  1  0
 43 45  1  0
 43 46  1  0
 46 47  1  0
 46 48  1  0
 46 49  1  0
 49 50  1  0
 49 51  1  0
 51 52  1  0
 51 53  1  0
 51 54  1  0
 54 55  1  0
 54 56  1  0
 41 57  1  0
 57 58  1  0
  8  2  2  0
 57 17  1  0
 37 20  1  0
 54 42  1  0
 33 24  1  0
M  CHG  1  15   1
M  END
>  <UniqueID>  (38) 
535

>  <SMILES>  (38) 
c1ccc2c(c1)CCN(c1nc(N3CCNCC3)[nH]/c(=[NH+]\CCc3cnc[nH]3)n1)C2

>  <Energy>  (38) 
93.63209805943227

>  <Genealogy>  (38) 
c1ccc2c(c1)CCN(c1nc([NH2+]CCc3cnc[nH]3)nc(N3CCNCC3)n1)C2 (protonated)
c1ccc2c(c1)CCN(c1nc(N3CCNCC3)[nH]c(=[NH+]CCc3cnc[nH]3)n1)C2 (tautomer)
c1ccc2c(c1)CCN(c1nc(N3CCNCC3)[nH]/c(=[NH+]\CCc3cnc[nH]3)n1)C2 (cis-trans isomerization)
c1ccc2c(c1)CCN(c1nc(N3CCNCC3)[nH]/c(=[NH+]\CCc3cnc[nH]3)n1)C2 (3D coordinates assigned)
c1ccc2c(c1)CCN(c1nc(N3CCNCC3)[nH]/c(=[NH+]\CCc3cnc[nH]3)n1)C2 (nonaromatic ring conformer: 93.63209805943227 kcal/mol)

>  <smiles>  (38) 
c1ccc2c(c1)CCN(c1nc(NCCc3cnc[nH]3)nc(N3CCNCC3)n1)C2

>  <score_type>  (38) 
oracle

>  <origin>  (38) 
autodockgpu

>  <m_score__min__energy>  (38) 
-9.0700000000000003

>  <m_primary>  (38) 
energy

>  <meeko>  (38) 
{"free_energy": -7.86, "intermolecular_energy": -9.65, "internal_energy": -0.96, "cluster_size": 18, "cluster_id": 1, "rank_in_cluster": 16}

>  <energy>  (38) 
-7.73

>  <cluster_rmsd>  (38) 
1.91

>  <rmsd>  (38) 
269.7

>  <cluster>  (38) 
1

$$$$
PEEFGLWBFXZENK-UFTUCYPHNA-O
     RDKit          3D

 58 62  0  0  0  0  0  0  0  0999 V2000
  143.6917   74.1861  218.9301 H   0  0  0  0  0  0  0  0  0  0  0  0
  144.4680   73.8900  219.6510 C   0  0  0  0  0  0  0  0  0  0  0  0
  145.0770   74.7150  220.5260 N   0  0  0  0  0  0  0  0  0  0  0  0
  145.9400   73.9190  221.1900 C   0  0  0  0  0  0  0  0  0  0  0  0
  146.6086   74.2773  221.9866 H   0  0  0  0  0  0  0  0  0  0  0  0
  145.8960   72.6390  220.7740 N   0  0  0  0  0  0  0  0  0  0  0  0
  146.4590   71.8410  221.1340 H   0  0  0  0  0  0  0  0  0  0  0  0
  144.9720   72.6180  219.8030 C   0  0  0  0  0  0  0  0  0  0  0  0
  144.5370   71.3880  219.0620 C   0  0  0  0  0  0  0  0  0  0  0  0
  144.6068   70.5211  219.7355 H   0  0  0  0  0  0  0  0  0  0  0  0
  145.1946   71.2587  218.1897 H   0  0  0  0  0  0  0  0  0  0  0  0
  143.0910   71.5170  218.5620 C   0  0  0  0  0  0  0  0  0  0  0  0
  142.9767   70.9241  217.6425 H   0  0  0  0  0  0  0  0  0  0  0  0
  142.8860   72.5807  218.3707 H   0  0  0  0  0  0  0  0  0  0  0  0
  142.1300   71.0360  219.5620 N   0  0  0  0  0  0  0  0  0  0  0  0
  141.8860   70.0180  219.5590 H   0  0  0  0  0  0  0  0  0  0  0  0
  141.5920   71.7860  220.4870 C   0  0  0  0  0  0  0  0  0  0  0  0
  141.0910   71.1930  221.6030 N   0  0  0  0  0  0  0  0  0  0  0  0
  140.5440   71.9270  222.6040 C   0  0  0  0  0  0  0  0  0  0  0  0
  140.0320   71.2840  223.7920 N   0  0  0  0  0  0  0  0  0  0  0  0
  140.5270   71.6770  225.1200 C   0  0  0  0  0  0  0  0  0  0  0  0
  141.5748   71.9988  225.0274 H   0  0  0  0  0  0  0  0  0  0  0  0
  139.8908   72.4940  225.4913 H   0  0  0  0  0  0  0  0  0  0  0  0
  140.4520   70.5400  226.1120 C   0  0  0  0  0  0  0  0  0  0  0  0
  141.0520   70.7010  227.3720 C   0  0  0  0  0  0  0  0  0  0  0  0
  141.5704   71.6403  227.6149 H   0  0  0  0  0  0  0  0  0  0  0  0
  140.9940   69.6750  228.3180 C   0  0  0  0  0  0  0  0  0  0  0  0
  141.4754   69.8053  229.2984 H   0  0  0  0  0  0  0  0  0  0  0  0
  140.3270   68.4850  228.0230 C   0  0  0  0  0  0  0  0  0  0  0  0
  140.2862   67.6781  228.7695 H   0  0  0  0  0  0  0  0  0  0  0  0
  139.7110   68.3180  226.7800 C   0  0  0  0  0  0  0  0  0  0  0  0
  139.1896   67.3772  226.5498 H   0  0  0  0  0  0  0  0  0  0  0  0
  139.7540   69.3460  225.8220 C   0  0  0  0  0  0  0  0  0  0  0  0
  139.1420   69.1070  224.4660 C   0  0  0  0  0  0  0  0  0  0  0  0
  139.8397   68.5095  223.8609 H   0  0  0  0  0  0  0  0  0  0  0  0
  138.1890   68.5769  224.6099 H   0  0  0  0  0  0  0  0  0  0  0  0
  138.8510   70.4160  223.7360 C   0  0  0  0  0  0  0  0  0  0  0  0
  138.6034   70.2022  222.6858 H   0  0  0  0  0  0  0  0  0  0  0  0
  138.0023   70.9225  224.2188 H   0  0  0  0  0  0  0  0  0  0  0  0
  140.5090   73.2790  222.4840 N   0  0  0  0  0  0  0  0  0  0  0  0
  141.0060   73.8960  221.3820 C   0  0  0  0  0  0  0  0  0  0  0  0
  140.9810   75.3330  221.2950 N   0  0  0  0  0  0  0  0  0  0  0  0
  141.4330   75.9830  220.0590 C   0  0  0  0  0  0  0  0  0  0  0  0
  142.2477   75.3933  219.6135 H   0  0  0  0  0  0  0  0  0  0  0  0
  140.5912   76.0457  219.3537 H   0  0  0  0  0  0  0  0  0  0  0  0
  141.9380   77.3940  220.3680 C   0  0  0  0  0  0  0  0  0  0  0  0
  142.8522   77.3268  220.9760 H   0  0  0  0  0  0  0  0  0  0  0  0
  142.1511   77.9122  219.4214 H   0  0  0  0  0  0  0  0  0  0  0  0
  140.9200   78.1510  221.1070 N   0  0  0  0  0  0  0  0  0  0  0  0
  141.3220   79.0930  221.3170 H   0  0  0  0  0  0  0  0  0  0  0  0
  140.6290   77.5040  222.3910 C   0  0  0  0  0  0  0  0  0  0  0  0
  141.5537   77.4432  222.9836 H   0  0  0  0  0  0  0  0  0  0  0  0
  139.8742   78.0988  222.9262 H   0  0  0  0  0  0  0  0  0  0  0  0
  140.0810   76.0950  222.1680 C   0  0  0  0  0  0  0  0  0  0  0  0
  139.9939   75.5815  223.1369 H   0  0  0  0  0  0  0  0  0  0  0  0
  139.0928   76.1660  221.6901 H   0  0  0  0  0  0  0  0  0  0  0  0
  141.5340   73.1480  220.3730 N   0  0  0  0  0  0  0  0  0  0  0  0
  141.8580   73.6340  219.5100 H   0  0  0  0  0  0  0  0  0  0  0  0
  1  2  1  0
  2  3  1  0
  3  4  2  0
  4  5  1  0
  4  6  1  0
  6  7  1  0
  6  8  1  0
  8  9  1  0
  9 10  1  0
  9 11  1  0
  9 12  1  0
 12 13  1  0
 12 14  1  0
 12 15  1  0
 15 16  1  0
 15 17  2  0
 17 18  1  0
 18 19  2  0
 19 20  1  0
 20 21  1  0
 21 22  1  0
 21 23  1  0
 21 24  1  0
 24 25  2  0
 25 26  1  0
 25 27  1  0
 27 28  1  0
 27 29  2  0
 29 30  1  0
 29 31  1  0
 31 32  1  0
 31 33  2  0
 33 34  1  0
 34 35  1  0
 34 36  1  0
 34 37  1  0
 37 38  1  0
 37 39  1  0
 19 40  1  0
 40 41  2  0
 41 42  1  0
 42 43  1  0
 43 44  1  0
 43 45  1  0
 43 46  1  0
 46 47  1  0
 46 48  1  0
 46 49  1  0
 49 50  1  0
 49 51  1  0
 51 52  1  0
 51 53  1  0
 51 54  1  0
 54 55  1  0
 54 56  1  0
 41 57  1  0
 57 58  1  0
  8  2  2  0
 57 17  1  0
 37 20  1  0
 54 42  1  0
 33 24  1  0
M  CHG  1  15   1
M  END
>  <UniqueID>  (39) 
535

>  <SMILES>  (39) 
c1ccc2c(c1)CCN(c1nc(N3CCNCC3)[nH]/c(=[NH+]\CCc3cnc[nH]3)n1)C2

>  <Energy>  (39) 
93.63209805943227

>  <Genealogy>  (39) 
c1ccc2c(c1)CCN(c1nc([NH2+]CCc3cnc[nH]3)nc(N3CCNCC3)n1)C2 (protonated)
c1ccc2c(c1)CCN(c1nc(N3CCNCC3)[nH]c(=[NH+]CCc3cnc[nH]3)n1)C2 (tautomer)
c1ccc2c(c1)CCN(c1nc(N3CCNCC3)[nH]/c(=[NH+]\CCc3cnc[nH]3)n1)C2 (cis-trans isomerization)
c1ccc2c(c1)CCN(c1nc(N3CCNCC3)[nH]/c(=[NH+]\CCc3cnc[nH]3)n1)C2 (3D coordinates assigned)
c1ccc2c(c1)CCN(c1nc(N3CCNCC3)[nH]/c(=[NH+]\CCc3cnc[nH]3)n1)C2 (nonaromatic ring conformer: 93.63209805943227 kcal/mol)

>  <smiles>  (39) 
c1ccc2c(c1)CCN(c1nc(NCCc3cnc[nH]3)nc(N3CCNCC3)n1)C2

>  <score_type>  (39) 
oracle

>  <origin>  (39) 
autodockgpu

>  <m_score__min__energy>  (39) 
-9.0700000000000003

>  <m_primary>  (39) 
energy

>  <meeko>  (39) 
{"free_energy": -7.97, "intermolecular_energy": -9.76, "internal_energy": -0.64, "cluster_size": 18, "cluster_id": 1, "rank_in_cluster": 15}

>  <energy>  (39) 
-8.6

>  <cluster_rmsd>  (39) 
0.0

>  <rmsd>  (39) 
270.05

>  <cluster>  (39) 
2

$$$$
PEEFGLWBFXZENK-UFTUCYPHNA-O
     RDKit          3D

 58 62  0  0  0  0  0  0  0  0999 V2000
  137.3851   79.1243  222.3708 H   0  0  0  0  0  0  0  0  0  0  0  0
  137.3680   78.0490  222.6020 C   0  0  0  0  0  0  0  0  0  0  0  0
  136.2580   77.3110  222.8040 N   0  0  0  0  0  0  0  0  0  0  0  0
  136.7240   76.0690  223.0510 C   0  0  0  0  0  0  0  0  0  0  0  0
  136.0748   75.2068  223.2633 H   0  0  0  0  0  0  0  0  0  0  0  0
  138.0680   75.9970  223.0100 N   0  0  0  0  0  0  0  0  0  0  0  0
  138.6580   75.1530  223.1610 H   0  0  0  0  0  0  0  0  0  0  0  0
  138.4770   77.2430  222.7310 C   0  0  0  0  0  0  0  0  0  0  0  0
  139.9070   77.6520  222.5360 C   0  0  0  0  0  0  0  0  0  0  0  0
  140.4832   77.3764  223.4315 H   0  0  0  0  0  0  0  0  0  0  0  0
  139.9364   78.7393  222.3717 H   0  0  0  0  0  0  0  0  0  0  0  0
  140.5260   76.9620  221.3120 C   0  0  0  0  0  0  0  0  0  0  0  0
  141.6082   76.8502  221.4740 H   0  0  0  0  0  0  0  0  0  0  0  0
  140.3245   77.5834  220.4270 H   0  0  0  0  0  0  0  0  0  0  0  0
  139.9380   75.6360  221.0870 N   0  0  0  0  0  0  0  0  0  0  0  0
  138.9910   75.5860  220.6450 H   0  0  0  0  0  0  0  0  0  0  0  0
  140.5400   74.5090  221.3600 C   0  0  0  0  0  0  0  0  0  0  0  0
  140.0070   73.6930  222.3080 N   0  0  0  0  0  0  0  0  0  0  0  0
  140.5780   72.5010  222.6130 C   0  0  0  0  0  0  0  0  0  0  0  0
  139.9890   71.6370  223.6100 N   0  0  0  0  0  0  0  0  0  0  0  0
  140.5870   71.5330  224.9490 C   0  0  0  0  0  0  0  0  0  0  0  0
  141.6736   71.6825  224.8650 H   0  0  0  0  0  0  0  0  0  0  0  0
  140.1269   72.3023  225.5866 H   0  0  0  0  0  0  0  0  0  0  0  0
  140.3280   70.1870  225.5830 C   0  0  0  0  0  0  0  0  0  0  0  0
  140.9840   69.8670  226.7830 C   0  0  0  0  0  0  0  0  0  0  0  0
  141.6771   70.5904  227.2372 H   0  0  0  0  0  0  0  0  0  0  0  0
  140.7610   68.6350  227.4030 C   0  0  0  0  0  0  0  0  0  0  0  0
  141.2866   68.3878  228.3372 H   0  0  0  0  0  0  0  0  0  0  0  0
  139.8730   67.7170  226.8400 C   0  0  0  0  0  0  0  0  0  0  0  0
  139.7026   66.7464  227.3287 H   0  0  0  0  0  0  0  0  0  0  0  0
  139.2010   68.0300  225.6570 C   0  0  0  0  0  0  0  0  0  0  0  0
  138.5049   67.3019  225.2151 H   0  0  0  0  0  0  0  0  0  0  0  0
  139.4080   69.2690  225.0270 C   0  0  0  0  0  0  0  0  0  0  0  0
  138.7230   69.5460  223.7140 C   0  0  0  0  0  0  0  0  0  0  0  0
  139.2774   69.0406  222.9095 H   0  0  0  0  0  0  0  0  0  0  0  0
  137.6916   69.1694  223.7801 H   0  0  0  0  0  0  0  0  0  0  0  0
  138.6640   71.0410  223.4100 C   0  0  0  0  0  0  0  0  0  0  0  0
  138.3493   71.1901  222.3666 H   0  0  0  0  0  0  0  0  0  0  0  0
  137.9414   71.5226  224.0853 H   0  0  0  0  0  0  0  0  0  0  0  0
  141.6980   72.1200  221.9490 N   0  0  0  0  0  0  0  0  0  0  0  0
  142.2500   72.9140  220.9950 C   0  0  0  0  0  0  0  0  0  0  0  0
  143.4230   72.4720  220.2870 N   0  0  0  0  0  0  0  0  0  0  0  0
  144.5970   73.3500  220.2280 C   0  0  0  0  0  0  0  0  0  0  0  0
  144.2668   74.3988  220.1965 H   0  0  0  0  0  0  0  0  0  0  0  0
  145.2194   73.1825  221.1194 H   0  0  0  0  0  0  0  0  0  0  0  0
  145.4180   73.0390  218.9750 C   0  0  0  0  0  0  0  0  0  0  0  0
  144.8391   73.3210  218.0832 H   0  0  0  0  0  0  0  0  0  0  0  0
  146.3569   73.6109  219.0127 H   0  0  0  0  0  0  0  0  0  0  0  0
  145.7350   71.6070  218.9130 N   0  0  0  0  0  0  0  0  0  0  0  0
  146.2690   71.4430  218.0300 H   0  0  0  0  0  0  0  0  0  0  0  0
  144.5050   70.8110  218.8360 C   0  0  0  0  0  0  0  0  0  0  0  0
  143.9375   71.1077  217.9416 H   0  0  0  0  0  0  0  0  0  0  0  0
  144.7742   69.7460  218.7791 H   0  0  0  0  0  0  0  0  0  0  0  0
  143.6420   71.0360  220.0760 C   0  0  0  0  0  0  0  0  0  0  0  0
  142.6715   70.5367  219.9388 H   0  0  0  0  0  0  0  0  0  0  0  0
  144.1581   70.6188  220.9532 H   0  0  0  0  0  0  0  0  0  0  0  0
  141.6800   74.1190  220.7120 N   0  0  0  0  0  0  0  0  0  0  0  0
  142.1490   74.7410  220.0190 H   0  0  0  0  0  0  0  0  0  0  0  0
  1  2  1  0
  2  3  1  0
  3  4  2  0
  4  5  1  0
  4  6  1  0
  6  7  1  0
  6  8  1  0
  8  9  1  0
  9 10  1  0
  9 11  1  0
  9 12  1  0
 12 13  1  0
 12 14  1  0
 12 15  1  0
 15 16  1  0
 15 17  2  0
 17 18  1  0
 18 19  2  0
 19 20  1  0
 20 21  1  0
 21 22  1  0
 21 23  1  0
 21 24  1  0
 24 25  2  0
 25 26  1  0
 25 27  1  0
 27 28  1  0
 27 29  2  0
 29 30  1  0
 29 31  1  0
 31 32  1  0
 31 33  2  0
 33 34  1  0
 34 35  1  0
 34 36  1  0
 34 37  1  0
 37 38  1  0
 37 39  1  0
 19 40  1  0
 40 41  2  0
 41 42  1  0
 42 43  1  0
 43 44  1  0
 43 45  1  0
 43 46  1  0
 46 47  1  0
 46 48  1  0
 46 49  1  0
 49 50  1  0
 49 51  1  0
 51 52  1  0
 51 53  1  0
 51 54  1  0
 54 55  1  0
 54 56  1  0
 41 57  1  0
 57 58  1  0
  8  2  2  0
 57 17  1  0
 37 20  1  0
 54 42  1  0
 33 24  1  0
M  CHG  1  15   1
M  END
>  <UniqueID>  (40) 
535

>  <SMILES>  (40) 
c1ccc2c(c1)CCN(c1nc(N3CCNCC3)[nH]/c(=[NH+]\CCc3cnc[nH]3)n1)C2

>  <Energy>  (40) 
93.63209805943227

>  <Genealogy>  (40) 
c1ccc2c(c1)CCN(c1nc([NH2+]CCc3cnc[nH]3)nc(N3CCNCC3)n1)C2 (protonated)
c1ccc2c(c1)CCN(c1nc(N3CCNCC3)[nH]c(=[NH+]CCc3cnc[nH]3)n1)C2 (tautomer)
c1ccc2c(c1)CCN(c1nc(N3CCNCC3)[nH]/c(=[NH+]\CCc3cnc[nH]3)n1)C2 (cis-trans isomerization)
c1ccc2c(c1)CCN(c1nc(N3CCNCC3)[nH]/c(=[NH+]\CCc3cnc[nH]3)n1)C2 (3D coordinates assigned)
c1ccc2c(c1)CCN(c1nc(N3CCNCC3)[nH]/c(=[NH+]\CCc3cnc[nH]3)n1)C2 (nonaromatic ring conformer: 93.63209805943227 kcal/mol)

>  <smiles>  (40) 
c1ccc2c(c1)CCN(c1nc(NCCc3cnc[nH]3)nc(N3CCNCC3)n1)C2

>  <score_type>  (40) 
oracle

>  <origin>  (40) 
autodockgpu

>  <m_score__min__energy>  (40) 
-9.0700000000000003

>  <m_primary>  (40) 
energy

>  <meeko>  (40) 
{"free_energy": -7.74, "intermolecular_energy": -9.53, "internal_energy": -0.93, "cluster_size": 18, "cluster_id": 1, "rank_in_cluster": 17}

>  <energy>  (40) 
-7.64

>  <cluster_rmsd>  (40) 
0.0

>  <rmsd>  (40) 
269.54

>  <cluster>  (40) 
3

$$$$
IEUOTYZOLCKWKV-RTROOMJONA-P
     RDKit          3D

 58 62  0  0  0  0  0  0  0  0999 V2000
  137.6821   77.7817  220.1079 H   0  0  0  0  0  0  0  0  0  0  0  0
  137.5650   76.8300  219.5690 C   0  0  0  0  0  0  0  0  0  0  0  0
  138.4450   76.3930  218.6420 N   0  0  0  0  0  0  0  0  0  0  0  0
  137.9410   75.2140  218.2410 C   0  0  0  0  0  0  0  0  0  0  0  0
  138.3836   74.5543  217.4801 H   0  0  0  0  0  0  0  0  0  0  0  0
  136.7820   74.9670  218.9370 C   0  0  0  0  0  0  0  0  0  0  0  0
  135.8730   73.7930  218.7490 C   0  0  0  0  0  0  0  0  0  0  0  0
  136.2681   73.1548  217.9449 H   0  0  0  0  0  0  0  0  0  0  0  0
  134.8699   74.1592  218.4852 H   0  0  0  0  0  0  0  0  0  0  0  0
  135.7770   72.9750  220.0400 C   0  0  0  0  0  0  0  0  0  0  0  0
  136.2981   72.0166  219.8986 H   0  0  0  0  0  0  0  0  0  0  0  0
  134.7148   72.8048  220.2698 H   0  0  0  0  0  0  0  0  0  0  0  0
  136.3900   73.6940  221.1630 N   0  0  0  0  0  0  0  0  0  0  0  0
  135.8160   74.4000  221.6790 H   0  0  0  0  0  0  0  0  0  0  0  0
  137.6220   73.4820  221.5390 C   0  0  0  0  0  0  0  0  0  0  0  0
  137.9150   72.4710  222.4000 N   0  0  0  0  0  0  0  0  0  0  0  0
  139.1910   72.2430  222.8030 C   0  0  0  0  0  0  0  0  0  0  0  0
  139.4830   71.1700  223.7220 N   0  0  0  0  0  0  0  0  0  0  0  0
  139.8650   71.5150  225.1060 C   0  0  0  0  0  0  0  0  0  0  0  0
  140.7450   72.1740  225.0692 H   0  0  0  0  0  0  0  0  0  0  0  0
  138.9938   72.0029  225.5674 H   0  0  0  0  0  0  0  0  0  0  0  0
  140.2030   70.3150  225.9610 C   0  0  0  0  0  0  0  0  0  0  0  0
  140.8590   70.5080  227.1860 C   0  0  0  0  0  0  0  0  0  0  0  0
  141.1522   71.5220  227.4955 H   0  0  0  0  0  0  0  0  0  0  0  0
  141.1420   69.4200  228.0150 C   0  0  0  0  0  0  0  0  0  0  0  0
  141.6669   69.5779  228.9687 H   0  0  0  0  0  0  0  0  0  0  0  0
  140.7590   68.1310  227.6340 C   0  0  0  0  0  0  0  0  0  0  0  0
  140.9809   67.2754  228.2887 H   0  0  0  0  0  0  0  0  0  0  0  0
  140.0950   67.9290  226.4230 C   0  0  0  0  0  0  0  0  0  0  0  0
  139.7841   66.9150  226.1312 H   0  0  0  0  0  0  0  0  0  0  0  0
  139.8220   69.0160  225.5750 C   0  0  0  0  0  0  0  0  0  0  0  0
  139.0780   68.8050  224.2920 C   0  0  0  0  0  0  0  0  0  0  0  0
  139.2421   67.7755  223.9411 H   0  0  0  0  0  0  0  0  0  0  0  0
  138.0050   68.9742  224.4655 H   0  0  0  0  0  0  0  0  0  0  0  0
  139.5740   69.7850  223.2320 C   0  0  0  0  0  0  0  0  0  0  0  0
  140.6223   69.5555  222.9901 H   0  0  0  0  0  0  0  0  0  0  0  0
  138.9451   69.6847  222.3351 H   0  0  0  0  0  0  0  0  0  0  0  0
  140.1830   73.0420  222.3330 N   0  0  0  0  0  0  0  0  0  0  0  0
  139.9170   74.0570  221.4700 C   0  0  0  0  0  0  0  0  0  0  0  0
  140.9980   74.8840  220.9840 N   0  0  0  0  0  0  0  0  0  0  0  0
  141.1450   76.2630  221.4660 C   0  0  0  0  0  0  0  0  0  0  0  0
  140.1608   76.6495  221.7694 H   0  0  0  0  0  0  0  0  0  0  0  0
  141.8316   76.2733  222.3253 H   0  0  0  0  0  0  0  0  0  0  0  0
  141.7190   77.1520  220.3520 C   0  0  0  0  0  0  0  0  0  0  0  0
  140.9448   77.2851  219.5820 H   0  0  0  0  0  0  0  0  0  0  0  0
  142.0154   78.1010  220.8226 H   0  0  0  0  0  0  0  0  0  0  0  0
  142.9320   76.5970  219.7030 N   0  0  0  0  0  0  0  0  0  0  0  0
  142.7990   76.6130  218.6640 H   0  0  0  0  0  0  0  0  0  0  0  0
  143.7480   77.2180  219.9170 H   0  0  0  0  0  0  0  0  0  0  0  0
  143.2830   75.2260  220.1090 C   0  0  0  0  0  0  0  0  0  0  0  0
  144.0150   74.8186  219.3960 H   0  0  0  0  0  0  0  0  0  0  0  0
  143.7041   75.2644  221.1245 H   0  0  0  0  0  0  0  0  0  0  0  0
  142.0520   74.3140  220.1340 C   0  0  0  0  0  0  0  0  0  0  0  0
  141.6670   74.1996  219.1099 H   0  0  0  0  0  0  0  0  0  0  0  0
  142.3456   73.3364  220.5440 H   0  0  0  0  0  0  0  0  0  0  0  0
  138.6290   74.2760  221.0750 N   0  0  0  0  0  0  0  0  0  0  0  0
  138.4040   75.0630  220.4280 H   0  0  0  0  0  0  0  0  0  0  0  0
  136.5290   75.9900  219.7720 N   0  0  0  0  0  0  0  0  0  0  0  0
  1  2  1  0
  2  3  2  0
  3  4  1  0
  4  5  1  0
  4  6  2  0
  6  7  1  0
  7  8  1  0
  7  9  1  0
  7 10  1  0
 10 11  1  0
 10 12  1  0
 10 13  1  0
 13 14  1  0
 13 15  2  0
 15 16  1  0
 16 17  2  0
 17 18  1  0
 18 19  1  0
 19 20  1  0
 19 21  1  0
 19 22  1  0
 22 23  2  0
 23 24  1  0
 23 25  1  0
 25 26  1  0
 25 27  2  0
 27 28  1  0
 27 29  1  0
 29 30  1  0
 29 31  2  0
 31 32  1  0
 32 33  1  0
 32 34  1  0
 32 35  1  0
 35 36  1  0
 35 37  1  0
 17 38  1  0
 38 39  2  0
 39 40  1  0
 40 41  1  0
 41 42  1  0
 41 43  1  0
 41 44  1  0
 44 45  1  0
 44 46  1  0
 44 47  1  0
 47 48  1  0
 47 49  1  0
 47 50  1  0
 50 51  1  0
 50 52  1  0
 50 53  1  0
 53 54  1  0
 53 55  1  0
 39 56  1  0
 56 57  1  0
  6 58  1  0
 58  2  1  0
 56 15  1  0
 35 18  1  0
 53 40  1  0
 31 22  1  0
M  CHG  3  13   1  47   1  58  -1
M  END
>  <UniqueID>  (41) 
536

>  <SMILES>  (41) 
c1ccc2c(c1)CCN(c1nc(N3CC[NH2+]CC3)[nH]/c(=[NH+]/CCc3cnc[n-]3)n1)C2

>  <Energy>  (41) 
94.32917575555722

>  <Genealogy>  (41) 
c1ccc2c(c1)CCN(c1nc([NH2+]CCc3cnc[n-]3)nc(N3CC[NH2+]CC3)n1)C2 (protonated)
c1ccc2c(c1)CCN(c1nc(N3CC[NH2+]CC3)[nH]c(=[NH+]CCc3cnc[n-]3)n1)C2 (tautomer)
c1ccc2c(c1)CCN(c1nc(N3CC[NH2+]CC3)[nH]/c(=[NH+]/CCc3cnc[n-]3)n1)C2 (cis-trans isomerization)
c1ccc2c(c1)CCN(c1nc(N3CC[NH2+]CC3)[nH]/c(=[NH+]/CCc3cnc[n-]3)n1)C2 (3D coordinates assigned)
c1ccc2c(c1)CCN(c1nc(N3CC[NH2+]CC3)[nH]/c(=[NH+]/CCc3cnc[n-]3)n1)C2 (nonaromatic ring conformer: 94.32917575555722 kcal/mol)

>  <smiles>  (41) 
c1ccc2c(c1)CCN(c1nc(NCCc3cnc[nH]3)nc(N3CCNCC3)n1)C2

>  <score_type>  (41) 
oracle

>  <origin>  (41) 
autodockgpu

>  <m_score__min__energy>  (41) 
-7.5700000000000003

>  <m_primary>  (41) 
energy

>  <meeko>  (41) 
{"free_energy": -5.85, "intermolecular_energy": -7.64, "internal_energy": -2.66, "cluster_size": 1, "cluster_id": 7, "rank_in_cluster": 1}

>  <energy>  (41) 
-7.57

>  <cluster_rmsd>  (41) 
0.0

>  <rmsd>  (41) 
272.46

>  <cluster>  (41) 
1

$$$$
IEUOTYZOLCKWKV-RTROOMJONA-P
     RDKit          3D

 58 62  0  0  0  0  0  0  0  0999 V2000
  147.2804   74.3858  216.7345 H   0  0  0  0  0  0  0  0  0  0  0  0
  146.4520   73.6890  216.9300 C   0  0  0  0  0  0  0  0  0  0  0  0
  145.5440   73.3410  215.9930 N   0  0  0  0  0  0  0  0  0  0  0  0
  144.7240   72.4880  216.6310 C   0  0  0  0  0  0  0  0  0  0  0  0
  143.8469   71.9918  216.1900 H   0  0  0  0  0  0  0  0  0  0  0  0
  145.1620   72.3380  217.9250 C   0  0  0  0  0  0  0  0  0  0  0  0
  144.4960   71.5260  218.9920 C   0  0  0  0  0  0  0  0  0  0  0  0
  145.1867   70.7408  219.3331 H   0  0  0  0  0  0  0  0  0  0  0  0
  143.5828   71.0746  218.5769 H   0  0  0  0  0  0  0  0  0  0  0  0
  144.1130   72.4120  220.1820 C   0  0  0  0  0  0  0  0  0  0  0  0
  144.4994   71.9593  221.1071 H   0  0  0  0  0  0  0  0  0  0  0  0
  143.0166   72.4919  220.2219 H   0  0  0  0  0  0  0  0  0  0  0  0
  144.6760   73.7590  220.0350 N   0  0  0  0  0  0  0  0  0  0  0  0
  145.6850   73.9090  220.2690 H   0  0  0  0  0  0  0  0  0  0  0  0
  143.9640   74.7720  219.6220 C   0  0  0  0  0  0  0  0  0  0  0  0
  143.1090   75.4040  220.4700 N   0  0  0  0  0  0  0  0  0  0  0  0
  142.3590   76.4550  220.0510 C   0  0  0  0  0  0  0  0  0  0  0  0
  141.4520   77.1100  220.9630 N   0  0  0  0  0  0  0  0  0  0  0  0
  141.6900   78.5280  221.2930 C   0  0  0  0  0  0  0  0  0  0  0  0
  142.7057   78.6227  221.7045 H   0  0  0  0  0  0  0  0  0  0  0  0
  141.5579   79.1003  220.3629 H   0  0  0  0  0  0  0  0  0  0  0  0
  140.7140   79.0910  222.2990 C   0  0  0  0  0  0  0  0  0  0  0  0
  140.9970   80.3180  222.9210 C   0  0  0  0  0  0  0  0  0  0  0  0
  141.9400   80.8388  222.6985 H   0  0  0  0  0  0  0  0  0  0  0  0
  140.0890   80.8810  223.8200 C   0  0  0  0  0  0  0  0  0  0  0  0
  140.3235   81.8367  224.3116 H   0  0  0  0  0  0  0  0  0  0  0  0
  138.8830   80.2320  224.0960 C   0  0  0  0  0  0  0  0  0  0  0  0
  138.1677   80.6786  224.8023 H   0  0  0  0  0  0  0  0  0  0  0  0
  138.5850   79.0170  223.4760 C   0  0  0  0  0  0  0  0  0  0  0  0
  137.6300   78.5136  223.6872 H   0  0  0  0  0  0  0  0  0  0  0  0
  139.5010   78.4350  222.5830 C   0  0  0  0  0  0  0  0  0  0  0  0
  139.1670   77.1500  221.8880 C   0  0  0  0  0  0  0  0  0  0  0  0
  138.4567   76.5776  222.5028 H   0  0  0  0  0  0  0  0  0  0  0  0
  138.7174   77.3756  220.9097 H   0  0  0  0  0  0  0  0  0  0  0  0
  140.4330   76.3240  221.6780 C   0  0  0  0  0  0  0  0  0  0  0  0
  140.8324   76.0194  222.6566 H   0  0  0  0  0  0  0  0  0  0  0  0
  140.1824   75.4377  221.0766 H   0  0  0  0  0  0  0  0  0  0  0  0
  142.4720   76.8760  218.7650 N   0  0  0  0  0  0  0  0  0  0  0  0
  143.3210   76.2630  217.8990 C   0  0  0  0  0  0  0  0  0  0  0  0
  143.4220   76.7400  216.5390 N   0  0  0  0  0  0  0  0  0  0  0  0
  144.1080   75.9320  215.5240 C   0  0  0  0  0  0  0  0  0  0  0  0
  144.8621   75.2973  216.0124 H   0  0  0  0  0  0  0  0  0  0  0  0
  143.3703   75.3027  215.0046 H   0  0  0  0  0  0  0  0  0  0  0  0
  144.7990   76.8480  214.5010 C   0  0  0  0  0  0  0  0  0  0  0  0
  145.6553   77.3322  214.9933 H   0  0  0  0  0  0  0  0  0  0  0  0
  145.1003   76.2111  213.6563 H   0  0  0  0  0  0  0  0  0  0  0  0
  143.9200   77.9060  213.9480 N   0  0  0  0  0  0  0  0  0  0  0  0
  144.4060   78.8310  214.0340 H   0  0  0  0  0  0  0  0  0  0  0  0
  143.7720   77.7310  212.9270 H   0  0  0  0  0  0  0  0  0  0  0  0
  142.5980   78.0140  214.5890 C   0  0  0  0  0  0  0  0  0  0  0  0
  142.1395   78.9720  214.3025 H   0  0  0  0  0  0  0  0  0  0  0  0
  141.9819   77.1673  214.2520 H   0  0  0  0  0  0  0  0  0  0  0  0
  142.7050   77.9510  216.1160 C   0  0  0  0  0  0  0  0  0  0  0  0
  143.2489   78.8366  216.4763 H   0  0  0  0  0  0  0  0  0  0  0  0
  141.6903   77.9264  216.5400 H   0  0  0  0  0  0  0  0  0  0  0  0
  144.0670   75.2060  218.3330 N   0  0  0  0  0  0  0  0  0  0  0  0
  144.7100   74.7110  217.6760 H   0  0  0  0  0  0  0  0  0  0  0  0
  146.2490   73.1030  218.1280 N   0  0  0  0  0  0  0  0  0  0  0  0
  1  2  1  0
  2  3  2  0
  3  4  1  0
  4  5  1  0
  4  6  2  0
  6  7  1  0
  7  8  1  0
  7  9  1  0
  7 10  1  0
 10 11  1  0
 10 12  1  0
 10 13  1  0
 13 14  1  0
 13 15  2  0
 15 16  1  0
 16 17  2  0
 17 18  1  0
 18 19  1  0
 19 20  1  0
 19 21  1  0
 19 22  1  0
 22 23  2  0
 23 24  1  0
 23 25  1  0
 25 26  1  0
 25 27  2  0
 27 28  1  0
 27 29  1  0
 29 30  1  0
 29 31  2  0
 31 32  1  0
 32 33  1  0
 32 34  1  0
 32 35  1  0
 35 36  1  0
 35 37  1  0
 17 38  1  0
 38 39  2  0
 39 40  1  0
 40 41  1  0
 41 42  1  0
 41 43  1  0
 41 44  1  0
 44 45  1  0
 44 46  1  0
 44 47  1  0
 47 48  1  0
 47 49  1  0
 47 50  1  0
 50 51  1  0
 50 52  1  0
 50 53  1  0
 53 54  1  0
 53 55  1  0
 39 56  1  0
 56 57  1  0
  6 58  1  0
 58  2  1  0
 56 15  1  0
 35 18  1  0
 53 40  1  0
 31 22  1  0
M  CHG  3  13   1  47   1  58  -1
M  END
>  <UniqueID>  (42) 
536

>  <SMILES>  (42) 
c1ccc2c(c1)CCN(c1nc(N3CC[NH2+]CC3)[nH]/c(=[NH+]/CCc3cnc[n-]3)n1)C2

>  <Energy>  (42) 
94.32917575555722

>  <Genealogy>  (42) 
c1ccc2c(c1)CCN(c1nc([NH2+]CCc3cnc[n-]3)nc(N3CC[NH2+]CC3)n1)C2 (protonated)
c1ccc2c(c1)CCN(c1nc(N3CC[NH2+]CC3)[nH]c(=[NH+]CCc3cnc[n-]3)n1)C2 (tautomer)
c1ccc2c(c1)CCN(c1nc(N3CC[NH2+]CC3)[nH]/c(=[NH+]/CCc3cnc[n-]3)n1)C2 (cis-trans isomerization)
c1ccc2c(c1)CCN(c1nc(N3CC[NH2+]CC3)[nH]/c(=[NH+]/CCc3cnc[n-]3)n1)C2 (3D coordinates assigned)
c1ccc2c(c1)CCN(c1nc(N3CC[NH2+]CC3)[nH]/c(=[NH+]/CCc3cnc[n-]3)n1)C2 (nonaromatic ring conformer: 94.32917575555722 kcal/mol)

>  <smiles>  (42) 
c1ccc2c(c1)CCN(c1nc(NCCc3cnc[nH]3)nc(N3CCNCC3)n1)C2

>  <score_type>  (42) 
oracle

>  <origin>  (42) 
autodockgpu

>  <m_score__min__energy>  (42) 
-7.5700000000000003

>  <m_primary>  (42) 
energy

>  <meeko>  (42) 
{"free_energy": -6.78, "intermolecular_energy": -8.57, "internal_energy": -2.64, "cluster_size": 4, "cluster_id": 3, "rank_in_cluster": 3}

>  <energy>  (42) 
-7.54

>  <cluster_rmsd>  (42) 
0.05

>  <rmsd>  (42) 
272.47

>  <cluster>  (42) 
1

$$$$
IEUOTYZOLCKWKV-RTROOMJONA-P
     RDKit          3D

 58 62  0  0  0  0  0  0  0  0999 V2000
  142.7655   75.0246  221.6841 H   0  0  0  0  0  0  0  0  0  0  0  0
  141.8080   74.8170  221.1840 C   0  0  0  0  0  0  0  0  0  0  0  0
  141.6450   74.8840  219.8450 N   0  0  0  0  0  0  0  0  0  0  0  0
  140.3540   74.5630  219.6550 C   0  0  0  0  0  0  0  0  0  0  0  0
  139.8422   74.5160  218.6824 H   0  0  0  0  0  0  0  0  0  0  0  0
  139.7780   74.3030  220.8760 C   0  0  0  0  0  0  0  0  0  0  0  0
  138.3390   73.9710  221.1190 C   0  0  0  0  0  0  0  0  0  0  0  0
  138.2707   72.9756  221.5823 H   0  0  0  0  0  0  0  0  0  0  0  0
  137.8052   73.9800  220.1572 H   0  0  0  0  0  0  0  0  0  0  0  0
  137.6980   75.0050  222.0500 C   0  0  0  0  0  0  0  0  0  0  0  0
  137.0991   74.4826  222.8105 H   0  0  0  0  0  0  0  0  0  0  0  0
  137.0606   75.6709  221.4498 H   0  0  0  0  0  0  0  0  0  0  0  0
  138.7240   75.8150  222.7190 N   0  0  0  0  0  0  0  0  0  0  0  0
  139.2530   75.3940  223.5170 H   0  0  0  0  0  0  0  0  0  0  0  0
  138.9980   77.0370  222.3510 C   0  0  0  0  0  0  0  0  0  0  0  0
  138.3940   78.0920  222.9600 N   0  0  0  0  0  0  0  0  0  0  0  0
  138.6670   79.3670  222.5820 C   0  0  0  0  0  0  0  0  0  0  0  0
  138.0110   80.4740  223.2350 N   0  0  0  0  0  0  0  0  0  0  0  0
  138.0280   80.5300  224.7100 C   0  0  0  0  0  0  0  0  0  0  0  0
  137.5838   79.6013  225.0976 H   0  0  0  0  0  0  0  0  0  0  0  0
  139.0779   80.6530  225.0142 H   0  0  0  0  0  0  0  0  0  0  0  0
  137.2630   81.7000  225.2840 C   0  0  0  0  0  0  0  0  0  0  0  0
  136.9480   81.7120  226.6520 C   0  0  0  0  0  0  0  0  0  0  0  0
  137.2279   80.8569  227.2848 H   0  0  0  0  0  0  0  0  0  0  0  0
  136.2820   82.8020  227.2140 C   0  0  0  0  0  0  0  0  0  0  0  0
  136.0290   82.7981  228.2845 H   0  0  0  0  0  0  0  0  0  0  0  0
  135.9360   83.8980  226.4200 C   0  0  0  0  0  0  0  0  0  0  0  0
  135.4132   84.7570  226.8658 H   0  0  0  0  0  0  0  0  0  0  0  0
  136.2540   83.9030  225.0600 C   0  0  0  0  0  0  0  0  0  0  0  0
  135.9904   84.7719  224.4390 H   0  0  0  0  0  0  0  0  0  0  0  0
  136.9090   82.8030  224.4820 C   0  0  0  0  0  0  0  0  0  0  0  0
  137.2830   82.8220  223.0310 C   0  0  0  0  0  0  0  0  0  0  0  0
  136.5948   83.4852  222.4864 H   0  0  0  0  0  0  0  0  0  0  0  0
  138.3149   83.1894  222.9295 H   0  0  0  0  0  0  0  0  0  0  0  0
  137.1940   81.4140  222.4490 C   0  0  0  0  0  0  0  0  0  0  0  0
  136.1454   81.0821  222.4652 H   0  0  0  0  0  0  0  0  0  0  0  0
  137.5719   81.4334  221.4161 H   0  0  0  0  0  0  0  0  0  0  0  0
  139.5580   79.5830  221.5820 N   0  0  0  0  0  0  0  0  0  0  0  0
  140.1780   78.5460  220.9590 C   0  0  0  0  0  0  0  0  0  0  0  0
  141.1270   78.8110  219.9020 N   0  0  0  0  0  0  0  0  0  0  0  0
  141.8870   80.0660  219.8910 C   0  0  0  0  0  0  0  0  0  0  0  0
  141.3108   80.8453  220.4113 H   0  0  0  0  0  0  0  0  0  0  0  0
  142.8490   79.9099  220.4011 H   0  0  0  0  0  0  0  0  0  0  0  0
  142.1500   80.5090  218.4430 C   0  0  0  0  0  0  0  0  0  0  0  0
  141.1974   80.8407  218.0043 H   0  0  0  0  0  0  0  0  0  0  0  0
  142.8988   81.3136  218.4872 H   0  0  0  0  0  0  0  0  0  0  0  0
  142.7150   79.4440  217.5800 N   0  0  0  0  0  0  0  0  0  0  0  0
  142.1480   79.3820  216.7010 H   0  0  0  0  0  0  0  0  0  0  0  0
  143.6880   79.7110  217.2980 H   0  0  0  0  0  0  0  0  0  0  0  0
  142.7700   78.1070  218.1960 C   0  0  0  0  0  0  0  0  0  0  0  0
  142.9460   77.3582  217.4097 H   0  0  0  0  0  0  0  0  0  0  0  0
  143.5864   78.1001  218.9332 H   0  0  0  0  0  0  0  0  0  0  0  0
  141.4640   77.7690  218.9220 C   0  0  0  0  0  0  0  0  0  0  0  0
  140.6514   77.6909  218.1848 H   0  0  0  0  0  0  0  0  0  0  0  0
  141.5926   76.8141  219.4527 H   0  0  0  0  0  0  0  0  0  0  0  0
  139.8920   77.2690  221.3470 N   0  0  0  0  0  0  0  0  0  0  0  0
  140.3450   76.4600  220.8660 H   0  0  0  0  0  0  0  0  0  0  0  0
  140.6880   74.4720  221.8510 N   0  0  0  0  0  0  0  0  0  0  0  0
  1  2  1  0
  2  3  2  0
  3  4  1  0
  4  5  1  0
  4  6  2  0
  6  7  1  0
  7  8  1  0
  7  9  1  0
  7 10  1  0
 10 11  1  0
 10 12  1  0
 10 13  1  0
 13 14  1  0
 13 15  2  0
 15 16  1  0
 16 17  2  0
 17 18  1  0
 18 19  1  0
 19 20  1  0
 19 21  1  0
 19 22  1  0
 22 23  2  0
 23 24  1  0
 23 25  1  0
 25 26  1  0
 25 27  2  0
 27 28  1  0
 27 29  1  0
 29 30  1  0
 29 31  2  0
 31 32  1  0
 32 33  1  0
 32 34  1  0
 32 35  1  0
 35 36  1  0
 35 37  1  0
 17 38  1  0
 38 39  2  0
 39 40  1  0
 40 41  1  0
 41 42  1  0
 41 43  1  0
 41 44  1  0
 44 45  1  0
 44 46  1  0
 44 47  1  0
 47 48  1  0
 47 49  1  0
 47 50  1  0
 50 51  1  0
 50 52  1  0
 50 53  1  0
 53 54  1  0
 53 55  1  0
 39 56  1  0
 56 57  1  0
  6 58  1  0
 58  2  1  0
 56 15  1  0
 35 18  1  0
 53 40  1  0
 31 22  1  0
M  CHG  3  13   1  47   1  58  -1
M  END
>  <UniqueID>  (43) 
536

>  <SMILES>  (43) 
c1ccc2c(c1)CCN(c1nc(N3CC[NH2+]CC3)[nH]/c(=[NH+]/CCc3cnc[n-]3)n1)C2

>  <Energy>  (43) 
94.32917575555722

>  <Genealogy>  (43) 
c1ccc2c(c1)CCN(c1nc([NH2+]CCc3cnc[n-]3)nc(N3CC[NH2+]CC3)n1)C2 (protonated)
c1ccc2c(c1)CCN(c1nc(N3CC[NH2+]CC3)[nH]c(=[NH+]CCc3cnc[n-]3)n1)C2 (tautomer)
c1ccc2c(c1)CCN(c1nc(N3CC[NH2+]CC3)[nH]/c(=[NH+]/CCc3cnc[n-]3)n1)C2 (cis-trans isomerization)
c1ccc2c(c1)CCN(c1nc(N3CC[NH2+]CC3)[nH]/c(=[NH+]/CCc3cnc[n-]3)n1)C2 (3D coordinates assigned)
c1ccc2c(c1)CCN(c1nc(N3CC[NH2+]CC3)[nH]/c(=[NH+]/CCc3cnc[n-]3)n1)C2 (nonaromatic ring conformer: 94.32917575555722 kcal/mol)

>  <smiles>  (43) 
c1ccc2c(c1)CCN(c1nc(NCCc3cnc[nH]3)nc(N3CCNCC3)n1)C2

>  <score_type>  (43) 
oracle

>  <origin>  (43) 
autodockgpu

>  <m_score__min__energy>  (43) 
-7.5700000000000003

>  <m_primary>  (43) 
energy

>  <meeko>  (43) 
{"free_energy": -6.12, "intermolecular_energy": -7.91, "internal_energy": -2.62, "cluster_size": 2, "cluster_id": 5, "rank_in_cluster": 2}

>  <energy>  (43) 
-7.11

>  <cluster_rmsd>  (43) 
1.03

>  <rmsd>  (43) 
272.52

>  <cluster>  (43) 
1

$$$$
IEUOTYZOLCKWKV-RTROOMJONA-P
     RDKit          3D

 58 62  0  0  0  0  0  0  0  0999 V2000
  145.3096   71.3524  216.6376 H   0  0  0  0  0  0  0  0  0  0  0  0
  145.5540   71.5430  217.6930 C   0  0  0  0  0  0  0  0  0  0  0  0
  145.9560   70.5750  218.5440 N   0  0  0  0  0  0  0  0  0  0  0  0
  146.1480   71.2190  219.7080 C   0  0  0  0  0  0  0  0  0  0  0  0
  146.4753   70.7553  220.6503 H   0  0  0  0  0  0  0  0  0  0  0  0
  145.8680   72.5520  219.5270 C   0  0  0  0  0  0  0  0  0  0  0  0
  145.8930   73.6100  220.5870 C   0  0  0  0  0  0  0  0  0  0  0  0
  146.7980   74.2232  220.4648 H   0  0  0  0  0  0  0  0  0  0  0  0
  145.8938   73.1242  221.5739 H   0  0  0  0  0  0  0  0  0  0  0  0
  144.6580   74.5080  220.4790 C   0  0  0  0  0  0  0  0  0  0  0  0
  144.8283   75.2617  219.6961 H   0  0  0  0  0  0  0  0  0  0  0  0
  144.4915   74.9944  221.4515 H   0  0  0  0  0  0  0  0  0  0  0  0
  143.4660   73.7220  220.1380 N   0  0  0  0  0  0  0  0  0  0  0  0
  143.5000   73.0990  219.2990 H   0  0  0  0  0  0  0  0  0  0  0  0
  142.3700   73.7730  220.8460 C   0  0  0  0  0  0  0  0  0  0  0  0
  141.9590   72.6900  221.5580 N   0  0  0  0  0  0  0  0  0  0  0  0
  140.8190   72.7290  222.2930 C   0  0  0  0  0  0  0  0  0  0  0  0
  140.3940   71.5680  223.0380 N   0  0  0  0  0  0  0  0  0  0  0  0
  140.7020   71.5070  224.4800 C   0  0  0  0  0  0  0  0  0  0  0  0
  141.7900   71.6072  224.6069 H   0  0  0  0  0  0  0  0  0  0  0  0
  140.1454   72.3244  224.9618 H   0  0  0  0  0  0  0  0  0  0  0  0
  140.2610   70.2230  225.1430 C   0  0  0  0  0  0  0  0  0  0  0  0
  140.7480   69.9060  226.4210 C   0  0  0  0  0  0  0  0  0  0  0  0
  141.4704   70.5746  226.9119 H   0  0  0  0  0  0  0  0  0  0  0  0
  140.3210   68.7470  227.0730 C   0  0  0  0  0  0  0  0  0  0  0  0
  140.7165   68.4994  228.0691 H   0  0  0  0  0  0  0  0  0  0  0  0
  139.3920   67.9020  226.4610 C   0  0  0  0  0  0  0  0  0  0  0  0
  139.0541   66.9913  226.9773 H   0  0  0  0  0  0  0  0  0  0  0  0
  138.8920   68.2120  225.1950 C   0  0  0  0  0  0  0  0  0  0  0  0
  138.1527   67.5500  224.7204 H   0  0  0  0  0  0  0  0  0  0  0  0
  139.3300   69.3670  224.5250 C   0  0  0  0  0  0  0  0  0  0  0  0
  138.7670   69.7210  223.1820 C   0  0  0  0  0  0  0  0  0  0  0  0
  138.4297   68.8046  222.6756 H   0  0  0  0  0  0  0  0  0  0  0  0
  137.9182   70.4076  223.3165 H   0  0  0  0  0  0  0  0  0  0  0  0
  139.8340   70.4050  222.3310 C   0  0  0  0  0  0  0  0  0  0  0  0
  140.6409   69.6883  222.1183 H   0  0  0  0  0  0  0  0  0  0  0  0
  139.3730   70.7485  221.3932 H   0  0  0  0  0  0  0  0  0  0  0  0
  140.0850   73.8710  222.3130 N   0  0  0  0  0  0  0  0  0  0  0  0
  140.4750   74.9680  221.6130 C   0  0  0  0  0  0  0  0  0  0  0  0
  139.6750   76.1700  221.6610 N   0  0  0  0  0  0  0  0  0  0  0  0
  138.2670   76.1020  222.0700 C   0  0  0  0  0  0  0  0  0  0  0  0
  137.8679   75.1039  221.8367 H   0  0  0  0  0  0  0  0  0  0  0  0
  138.1961   76.2891  223.1517 H   0  0  0  0  0  0  0  0  0  0  0  0
  137.4490   77.1650  221.3200 C   0  0  0  0  0  0  0  0  0  0  0  0
  137.3731   76.8625  220.2651 H   0  0  0  0  0  0  0  0  0  0  0  0
  136.4687   77.2210  221.8159 H   0  0  0  0  0  0  0  0  0  0  0  0
  138.0360   78.5260  221.3740 N   0  0  0  0  0  0  0  0  0  0  0  0
  138.0910   78.9120  220.4010 H   0  0  0  0  0  0  0  0  0  0  0  0
  137.3980   79.1540  221.9170 H   0  0  0  0  0  0  0  0  0  0  0  0
  139.3770   78.6020  221.9810 C   0  0  0  0  0  0  0  0  0  0  0  0
  139.8256   79.5760  221.7358 H   0  0  0  0  0  0  0  0  0  0  0  0
  139.2703   78.4827  223.0693 H   0  0  0  0  0  0  0  0  0  0  0  0
  140.2920   77.4880  221.4630 C   0  0  0  0  0  0  0  0  0  0  0  0
  140.4755   77.6424  220.3895 H   0  0  0  0  0  0  0  0  0  0  0  0
  141.2384   77.5212  222.0226 H   0  0  0  0  0  0  0  0  0  0  0  0
  141.6230   74.9140  220.8760 N   0  0  0  0  0  0  0  0  0  0  0  0
  141.9280   75.7410  220.3160 H   0  0  0  0  0  0  0  0  0  0  0  0
  145.4800   72.7660  218.2580 N   0  0  0  0  0  0  0  0  0  0  0  0
  1  2  1  0
  2  3  2  0
  3  4  1  0
  4  5  1  0
  4  6  2  0
  6  7  1  0
  7  8  1  0
  7  9  1  0
  7 10  1  0
 10 11  1  0
 10 12  1  0
 10 13  1  0
 13 14  1  0
 13 15  2  0
 15 16  1  0
 16 17  2  0
 17 18  1  0
 18 19  1  0
 19 20  1  0
 19 21  1  0
 19 22  1  0
 22 23  2  0
 23 24  1  0
 23 25  1  0
 25 26  1  0
 25 27  2  0
 27 28  1  0
 27 29  1  0
 29 30  1  0
 29 31  2  0
 31 32  1  0
 32 33  1  0
 32 34  1  0
 32 35  1  0
 35 36  1  0
 35 37  1  0
 17 38  1  0
 38 39  2  0
 39 40  1  0
 40 41  1  0
 41 42  1  0
 41 43  1  0
 41 44  1  0
 44 45  1  0
 44 46  1  0
 44 47  1  0
 47 48  1  0
 47 49  1  0
 47 50  1  0
 50 51  1  0
 50 52  1  0
 50 53  1  0
 53 54  1  0
 53 55  1  0
 39 56  1  0
 56 57  1  0
  6 58  1  0
 58  2  1  0
 56 15  1  0
 35 18  1  0
 53 40  1  0
 31 22  1  0
M  CHG  3  13   1  47   1  58  -1
M  END
>  <UniqueID>  (44) 
536

>  <SMILES>  (44) 
c1ccc2c(c1)CCN(c1nc(N3CC[NH2+]CC3)[nH]/c(=[NH+]/CCc3cnc[n-]3)n1)C2

>  <Energy>  (44) 
94.32917575555722

>  <Genealogy>  (44) 
c1ccc2c(c1)CCN(c1nc([NH2+]CCc3cnc[n-]3)nc(N3CC[NH2+]CC3)n1)C2 (protonated)
c1ccc2c(c1)CCN(c1nc(N3CC[NH2+]CC3)[nH]c(=[NH+]CCc3cnc[n-]3)n1)C2 (tautomer)
c1ccc2c(c1)CCN(c1nc(N3CC[NH2+]CC3)[nH]/c(=[NH+]/CCc3cnc[n-]3)n1)C2 (cis-trans isomerization)
c1ccc2c(c1)CCN(c1nc(N3CC[NH2+]CC3)[nH]/c(=[NH+]/CCc3cnc[n-]3)n1)C2 (3D coordinates assigned)
c1ccc2c(c1)CCN(c1nc(N3CC[NH2+]CC3)[nH]/c(=[NH+]/CCc3cnc[n-]3)n1)C2 (nonaromatic ring conformer: 94.32917575555722 kcal/mol)

>  <smiles>  (44) 
c1ccc2c(c1)CCN(c1nc(NCCc3cnc[nH]3)nc(N3CCNCC3)n1)C2

>  <score_type>  (44) 
oracle

>  <origin>  (44) 
autodockgpu

>  <m_score__min__energy>  (44) 
-7.5700000000000003

>  <m_primary>  (44) 
energy

>  <meeko>  (44) 
{"free_energy": -7.57, "intermolecular_energy": -9.36, "internal_energy": -1.1, "cluster_size": 6, "cluster_id": 1, "rank_in_cluster": 1}

>  <energy>  (44) 
-6.32

>  <cluster_rmsd>  (44) 
1.96

>  <rmsd>  (44) 
272.39

>  <cluster>  (44) 
1

$$$$
IEUOTYZOLCKWKV-RTROOMJONA-P
     RDKit          3D

 58 62  0  0  0  0  0  0  0  0999 V2000
  138.8688   81.9802  220.3611 H   0  0  0  0  0  0  0  0  0  0  0  0
  139.7780   81.9080  220.9760 C   0  0  0  0  0  0  0  0  0  0  0  0
  140.9620   82.4410  220.6070 N   0  0  0  0  0  0  0  0  0  0  0  0
  141.7900   82.1360  221.6220 C   0  0  0  0  0  0  0  0  0  0  0  0
  142.8560   82.4010  221.6811 H   0  0  0  0  0  0  0  0  0  0  0  0
  141.0840   81.4380  222.5740 C   0  0  0  0  0  0  0  0  0  0  0  0
  141.6440   80.8550  223.8330 C   0  0  0  0  0  0  0  0  0  0  0  0
  141.0937   81.2597  224.6952 H   0  0  0  0  0  0  0  0  0  0  0  0
  142.7093   81.1199  223.9042 H   0  0  0  0  0  0  0  0  0  0  0  0
  141.5130   79.3280  223.8230 C   0  0  0  0  0  0  0  0  0  0  0  0
  141.0832   78.9972  224.7800 H   0  0  0  0  0  0  0  0  0  0  0  0
  142.5119   78.8906  223.6787 H   0  0  0  0  0  0  0  0  0  0  0  0
  140.6440   78.8840  222.7270 N   0  0  0  0  0  0  0  0  0  0  0  0
  139.6070   78.9450  222.8540 H   0  0  0  0  0  0  0  0  0  0  0  0
  141.1180   78.4190  221.6030 C   0  0  0  0  0  0  0  0  0  0  0  0
  141.4680   77.1100  221.4930 N   0  0  0  0  0  0  0  0  0  0  0  0
  141.9680   76.6160  220.3310 C   0  0  0  0  0  0  0  0  0  0  0  0
  142.3410   75.2250  220.2330 N   0  0  0  0  0  0  0  0  0  0  0  0
  143.7690   74.8910  220.0660 C   0  0  0  0  0  0  0  0  0  0  0  0
  144.1425   75.4027  219.1667 H   0  0  0  0  0  0  0  0  0  0  0  0
  144.2850   75.2192  220.9803 H   0  0  0  0  0  0  0  0  0  0  0  0
  144.0330   73.4110  219.9170 C   0  0  0  0  0  0  0  0  0  0  0  0
  145.2880   72.9790  219.4590 C   0  0  0  0  0  0  0  0  0  0  0  0
  146.0522   73.7192  219.1796 H   0  0  0  0  0  0  0  0  0  0  0  0
  145.5720   71.6160  219.3560 C   0  0  0  0  0  0  0  0  0  0  0  0
  146.5537   71.2864  218.9851 H   0  0  0  0  0  0  0  0  0  0  0  0
  144.6120   70.6700  219.7230 C   0  0  0  0  0  0  0  0  0  0  0  0
  144.8386   69.5965  219.6435 H   0  0  0  0  0  0  0  0  0  0  0  0
  143.3640   71.0880  220.1910 C   0  0  0  0  0  0  0  0  0  0  0  0
  142.6130   70.3417  220.4895 H   0  0  0  0  0  0  0  0  0  0  0  0
  143.0640   72.4570  220.2820 C   0  0  0  0  0  0  0  0  0  0  0  0
  141.7390   72.9070  220.8180 C   0  0  0  0  0  0  0  0  0  0  0  0
  140.9892   72.1218  220.6413 H   0  0  0  0  0  0  0  0  0  0  0  0
  141.8329   73.0982  221.8972 H   0  0  0  0  0  0  0  0  0  0  0  0
  141.3000   74.1910  220.1190 C   0  0  0  0  0  0  0  0  0  0  0  0
  141.1162   73.9789  219.0554 H   0  0  0  0  0  0  0  0  0  0  0  0
  140.3808   74.5590  220.5981 H   0  0  0  0  0  0  0  0  0  0  0  0
  142.1170   77.4490  219.2690 N   0  0  0  0  0  0  0  0  0  0  0  0
  141.7720   78.7600  219.3530 C   0  0  0  0  0  0  0  0  0  0  0  0
  141.9370   79.6190  218.2030 N   0  0  0  0  0  0  0  0  0  0  0  0
  141.0480   79.4760  217.0430 C   0  0  0  0  0  0  0  0  0  0  0  0
  140.6786   78.4411  216.9927 H   0  0  0  0  0  0  0  0  0  0  0  0
  140.2013   80.1700  217.1497 H   0  0  0  0  0  0  0  0  0  0  0  0
  141.8110   79.8070  215.7510 C   0  0  0  0  0  0  0  0  0  0  0  0
  142.5331   78.9997  215.5591 H   0  0  0  0  0  0  0  0  0  0  0  0
  141.0600   79.9017  214.9529 H   0  0  0  0  0  0  0  0  0  0  0  0
  142.5500   81.0920  215.8000 N   0  0  0  0  0  0  0  0  0  0  0  0
  143.5390   80.9280  215.4940 H   0  0  0  0  0  0  0  0  0  0  0  0
  142.1240   81.7590  215.1150 H   0  0  0  0  0  0  0  0  0  0  0  0
  142.5730   81.7460  217.1200 C   0  0  0  0  0  0  0  0  0  0  0  0
  143.3477   82.5269  217.1181 H   0  0  0  0  0  0  0  0  0  0  0  0
  141.5793   82.1791  217.3069 H   0  0  0  0  0  0  0  0  0  0  0  0
  142.8780   80.7460  218.2390 C   0  0  0  0  0  0  0  0  0  0  0  0
  143.9021   80.3648  218.1126 H   0  0  0  0  0  0  0  0  0  0  0  0
  142.7767   81.2587  219.2069 H   0  0  0  0  0  0  0  0  0  0  0  0
  141.2730   79.2450  220.5280 N   0  0  0  0  0  0  0  0  0  0  0  0
  141.0210   80.2540  220.6160 H   0  0  0  0  0  0  0  0  0  0  0  0
  139.8130   81.2790  222.1680 N   0  0  0  0  0  0  0  0  0  0  0  0
  1  2  1  0
  2  3  2  0
  3  4  1  0
  4  5  1  0
  4  6  2  0
  6  7  1  0
  7  8  1  0
  7  9  1  0
  7 10  1  0
 10 11  1  0
 10 12  1  0
 10 13  1  0
 13 14  1  0
 13 15  2  0
 15 16  1  0
 16 17  2  0
 17 18  1  0
 18 19  1  0
 19 20  1  0
 19 21  1  0
 19 22  1  0
 22 23  2  0
 23 24  1  0
 23 25  1  0
 25 26  1  0
 25 27  2  0
 27 28  1  0
 27 29  1  0
 29 30  1  0
 29 31  2  0
 31 32  1  0
 32 33  1  0
 32 34  1  0
 32 35  1  0
 35 36  1  0
 35 37  1  0
 17 38  1  0
 38 39  2  0
 39 40  1  0
 40 41  1  0
 41 42  1  0
 41 43  1  0
 41 44  1  0
 44 45  1  0
 44 46  1  0
 44 47  1  0
 47 48  1  0
 47 49  1  0
 47 50  1  0
 50 51  1  0
 50 52  1  0
 50 53  1  0
 53 54  1  0
 53 55  1  0
 39 56  1  0
 56 57  1  0
  6 58  1  0
 58  2  1  0
 56 15  1  0
 35 18  1  0
 53 40  1  0
 31 22  1  0
M  CHG  3  13   1  47   1  58  -1
M  END
>  <UniqueID>  (45) 
536

>  <SMILES>  (45) 
c1ccc2c(c1)CCN(c1nc(N3CC[NH2+]CC3)[nH]/c(=[NH+]/CCc3cnc[n-]3)n1)C2

>  <Energy>  (45) 
94.32917575555722

>  <Genealogy>  (45) 
c1ccc2c(c1)CCN(c1nc([NH2+]CCc3cnc[n-]3)nc(N3CC[NH2+]CC3)n1)C2 (protonated)
c1ccc2c(c1)CCN(c1nc(N3CC[NH2+]CC3)[nH]c(=[NH+]CCc3cnc[n-]3)n1)C2 (tautomer)
c1ccc2c(c1)CCN(c1nc(N3CC[NH2+]CC3)[nH]/c(=[NH+]/CCc3cnc[n-]3)n1)C2 (cis-trans isomerization)
c1ccc2c(c1)CCN(c1nc(N3CC[NH2+]CC3)[nH]/c(=[NH+]/CCc3cnc[n-]3)n1)C2 (3D coordinates assigned)
c1ccc2c(c1)CCN(c1nc(N3CC[NH2+]CC3)[nH]/c(=[NH+]/CCc3cnc[n-]3)n1)C2 (nonaromatic ring conformer: 94.32917575555722 kcal/mol)

>  <smiles>  (45) 
c1ccc2c(c1)CCN(c1nc(NCCc3cnc[nH]3)nc(N3CCNCC3)n1)C2

>  <score_type>  (45) 
oracle

>  <origin>  (45) 
autodockgpu

>  <m_score__min__energy>  (45) 
-7.5700000000000003

>  <m_primary>  (45) 
energy

>  <meeko>  (45) 
{"free_energy": -6.39, "intermolecular_energy": -8.18, "internal_energy": -2.75, "cluster_size": 5, "cluster_id": 4, "rank_in_cluster": 4}

>  <energy>  (45) 
-6.31

>  <cluster_rmsd>  (45) 
1.96

>  <rmsd>  (45) 
272.4

>  <cluster>  (45) 
1

$$$$
IEUOTYZOLCKWKV-RTROOMJONA-P
     RDKit          3D

 58 62  0  0  0  0  0  0  0  0999 V2000
  145.2983   71.3205  216.6475 H   0  0  0  0  0  0  0  0  0  0  0  0
  145.5540   71.5180  217.6990 C   0  0  0  0  0  0  0  0  0  0  0  0
  145.9490   70.5530  218.5560 N   0  0  0  0  0  0  0  0  0  0  0  0
  146.1610   71.2060  219.7110 C   0  0  0  0  0  0  0  0  0  0  0  0
  146.4910   70.7471  220.6547 H   0  0  0  0  0  0  0  0  0  0  0  0
  145.8980   72.5410  219.5200 C   0  0  0  0  0  0  0  0  0  0  0  0
  145.9490   73.6090  220.5680 C   0  0  0  0  0  0  0  0  0  0  0  0
  146.8517   74.2196  220.4188 H   0  0  0  0  0  0  0  0  0  0  0  0
  145.9723   73.1334  221.5596 H   0  0  0  0  0  0  0  0  0  0  0  0
  144.7120   74.5080  220.4790 C   0  0  0  0  0  0  0  0  0  0  0  0
  144.8772   75.2720  219.7050 H   0  0  0  0  0  0  0  0  0  0  0  0
  144.5509   74.9815  221.4587 H   0  0  0  0  0  0  0  0  0  0  0  0
  143.5190   73.7260  220.1350 N   0  0  0  0  0  0  0  0  0  0  0  0
  143.5520   73.1050  219.2930 H   0  0  0  0  0  0  0  0  0  0  0  0
  142.4220   73.7770  220.8410 C   0  0  0  0  0  0  0  0  0  0  0  0
  142.0080   72.6930  221.5500 N   0  0  0  0  0  0  0  0  0  0  0  0
  140.8670   72.7330  222.2840 C   0  0  0  0  0  0  0  0  0  0  0  0
  140.4380   71.5710  223.0250 N   0  0  0  0  0  0  0  0  0  0  0  0
  140.7150   71.5210  224.4740 C   0  0  0  0  0  0  0  0  0  0  0  0
  141.7988   71.6343  224.6243 H   0  0  0  0  0  0  0  0  0  0  0  0
  140.1388   72.3344  224.9391 H   0  0  0  0  0  0  0  0  0  0  0  0
  140.2740   70.2350  225.1340 C   0  0  0  0  0  0  0  0  0  0  0  0
  140.7360   69.9300  226.4240 C   0  0  0  0  0  0  0  0  0  0  0  0
  141.4404   70.6087  226.9271 H   0  0  0  0  0  0  0  0  0  0  0  0
  140.3070   68.7710  227.0720 C   0  0  0  0  0  0  0  0  0  0  0  0
  140.6822   68.5340  228.0785 H   0  0  0  0  0  0  0  0  0  0  0  0
  139.4020   67.9110  226.4450 C   0  0  0  0  0  0  0  0  0  0  0  0
  139.0642   66.9986  226.9583 H   0  0  0  0  0  0  0  0  0  0  0  0
  138.9260   68.2100  225.1660 C   0  0  0  0  0  0  0  0  0  0  0  0
  138.2037   67.5381  224.6794 H   0  0  0  0  0  0  0  0  0  0  0  0
  139.3660   69.3650  224.4990 C   0  0  0  0  0  0  0  0  0  0  0  0
  138.8300   69.7060  223.1420 C   0  0  0  0  0  0  0  0  0  0  0  0
  138.5150   68.7833  222.6328 H   0  0  0  0  0  0  0  0  0  0  0  0
  137.9707   70.3836  223.2540 H   0  0  0  0  0  0  0  0  0  0  0  0
  139.9070   70.3980  222.3120 C   0  0  0  0  0  0  0  0  0  0  0  0
  140.7267   69.6897  222.1209 H   0  0  0  0  0  0  0  0  0  0  0  0
  139.4627   70.7317  221.3627 H   0  0  0  0  0  0  0  0  0  0  0  0
  140.1350   73.8760  222.3050 N   0  0  0  0  0  0  0  0  0  0  0  0
  140.5290   74.9740  221.6080 C   0  0  0  0  0  0  0  0  0  0  0  0
  139.7310   76.1770  221.6580 N   0  0  0  0  0  0  0  0  0  0  0  0
  138.3140   76.1080  222.0380 C   0  0  0  0  0  0  0  0  0  0  0  0
  137.9162   75.1150  221.7818 H   0  0  0  0  0  0  0  0  0  0  0  0
  138.2221   76.2791  223.1207 H   0  0  0  0  0  0  0  0  0  0  0  0
  137.5150   77.1850  221.2880 C   0  0  0  0  0  0  0  0  0  0  0  0
  137.4587   76.8981  220.2275 H   0  0  0  0  0  0  0  0  0  0  0  0
  136.5256   77.2376  221.7659 H   0  0  0  0  0  0  0  0  0  0  0  0
  138.1050   78.5430  221.3730 N   0  0  0  0  0  0  0  0  0  0  0  0
  138.1790   78.9420  220.4070 H   0  0  0  0  0  0  0  0  0  0  0  0
  137.4580   79.1640  221.9130 H   0  0  0  0  0  0  0  0  0  0  0  0
  139.4330   78.6050  222.0070 C   0  0  0  0  0  0  0  0  0  0  0  0
  139.8891   79.5812  221.7855 H   0  0  0  0  0  0  0  0  0  0  0  0
  139.3034   78.4687  223.0908 H   0  0  0  0  0  0  0  0  0  0  0  0
  140.3560   77.4970  221.4920 C   0  0  0  0  0  0  0  0  0  0  0  0
  140.5623   77.6666  220.4249 H   0  0  0  0  0  0  0  0  0  0  0  0
  141.2908   77.5196  222.0713 H   0  0  0  0  0  0  0  0  0  0  0  0
  141.6770   74.9200  220.8720 N   0  0  0  0  0  0  0  0  0  0  0  0
  141.9840   75.7470  220.3150 H   0  0  0  0  0  0  0  0  0  0  0  0
  145.5020   72.7470  218.2520 N   0  0  0  0  0  0  0  0  0  0  0  0
  1  2  1  0
  2  3  2  0
  3  4  1  0
  4  5  1  0
  4  6  2  0
  6  7  1  0
  7  8  1  0
  7  9  1  0
  7 10  1  0
 10 11  1  0
 10 12  1  0
 10 13  1  0
 13 14  1  0
 13 15  2  0
 15 16  1  0
 16 17  2  0
 17 18  1  0
 18 19  1  0
 19 20  1  0
 19 21  1  0
 19 22  1  0
 22 23  2  0
 23 24  1  0
 23 25  1  0
 25 26  1  0
 25 27  2  0
 27 28  1  0
 27 29  1  0
 29 30  1  0
 29 31  2  0
 31 32  1  0
 32 33  1  0
 32 34  1  0
 32 35  1  0
 35 36  1  0
 35 37  1  0
 17 38  1  0
 38 39  2  0
 39 40  1  0
 40 41  1  0
 41 42  1  0
 41 43  1  0
 41 44  1  0
 44 45  1  0
 44 46  1  0
 44 47  1  0
 47 48  1  0
 47 49  1  0
 47 50  1  0
 50 51  1  0
 50 52  1  0
 50 53  1  0
 53 54  1  0
 53 55  1  0
 39 56  1  0
 56 57  1  0
  6 58  1  0
 58  2  1  0
 56 15  1  0
 35 18  1  0
 53 40  1  0
 31 22  1  0
M  CHG  3  13   1  47   1  58  -1
M  END
>  <UniqueID>  (46) 
536

>  <SMILES>  (46) 
c1ccc2c(c1)CCN(c1nc(N3CC[NH2+]CC3)[nH]/c(=[NH+]/CCc3cnc[n-]3)n1)C2

>  <Energy>  (46) 
94.32917575555722

>  <Genealogy>  (46) 
c1ccc2c(c1)CCN(c1nc([NH2+]CCc3cnc[n-]3)nc(N3CC[NH2+]CC3)n1)C2 (protonated)
c1ccc2c(c1)CCN(c1nc(N3CC[NH2+]CC3)[nH]c(=[NH+]CCc3cnc[n-]3)n1)C2 (tautomer)
c1ccc2c(c1)CCN(c1nc(N3CC[NH2+]CC3)[nH]/c(=[NH+]/CCc3cnc[n-]3)n1)C2 (cis-trans isomerization)
c1ccc2c(c1)CCN(c1nc(N3CC[NH2+]CC3)[nH]/c(=[NH+]/CCc3cnc[n-]3)n1)C2 (3D coordinates assigned)
c1ccc2c(c1)CCN(c1nc(N3CC[NH2+]CC3)[nH]/c(=[NH+]/CCc3cnc[n-]3)n1)C2 (nonaromatic ring conformer: 94.32917575555722 kcal/mol)

>  <smiles>  (46) 
c1ccc2c(c1)CCN(c1nc(NCCc3cnc[nH]3)nc(N3CCNCC3)n1)C2

>  <score_type>  (46) 
oracle

>  <origin>  (46) 
autodockgpu

>  <m_score__min__energy>  (46) 
-7.5700000000000003

>  <m_primary>  (46) 
energy

>  <meeko>  (46) 
{"free_energy": -7.54, "intermolecular_energy": -9.33, "internal_energy": -1.12, "cluster_size": 6, "cluster_id": 1, "rank_in_cluster": 2}

>  <energy>  (46) 
-6.3

>  <cluster_rmsd>  (46) 
1.96

>  <rmsd>  (46) 
272.39

>  <cluster>  (46) 
1

$$$$
IEUOTYZOLCKWKV-RTROOMJONA-P
     RDKit          3D

 58 62  0  0  0  0  0  0  0  0999 V2000
  145.6638   70.2173  218.7953 H   0  0  0  0  0  0  0  0  0  0  0  0
  145.5590   71.3040  218.9300 C   0  0  0  0  0  0  0  0  0  0  0  0
  146.3250   72.0190  219.7810 N   0  0  0  0  0  0  0  0  0  0  0  0
  145.8820   73.2810  219.6410 C   0  0  0  0  0  0  0  0  0  0  0  0
  146.2642   74.1581  220.1837 H   0  0  0  0  0  0  0  0  0  0  0  0
  144.8730   73.2940  218.7080 C   0  0  0  0  0  0  0  0  0  0  0  0
  144.0630   74.4860  218.3020 C   0  0  0  0  0  0  0  0  0  0  0  0
  144.2164   74.6795  217.2301 H   0  0  0  0  0  0  0  0  0  0  0  0
  144.3868   75.3541  218.8949 H   0  0  0  0  0  0  0  0  0  0  0  0
  142.5740   74.2380  218.5610 C   0  0  0  0  0  0  0  0  0  0  0  0
  142.0967   73.9055  217.6274 H   0  0  0  0  0  0  0  0  0  0  0  0
  142.1181   75.1750  218.9135 H   0  0  0  0  0  0  0  0  0  0  0  0
  142.3850   73.2090  219.5900 N   0  0  0  0  0  0  0  0  0  0  0  0
  142.9200   72.3140  219.5070 H   0  0  0  0  0  0  0  0  0  0  0  0
  141.5760   73.3740  220.6010 C   0  0  0  0  0  0  0  0  0  0  0  0
  141.3240   72.3460  221.4550 N   0  0  0  0  0  0  0  0  0  0  0  0
  140.4810   72.5040  222.5080 C   0  0  0  0  0  0  0  0  0  0  0  0
  140.2190   71.4000  223.4000 N   0  0  0  0  0  0  0  0  0  0  0  0
  140.6940   71.4970  224.7950 C   0  0  0  0  0  0  0  0  0  0  0  0
  141.7808   71.6664  224.7805 H   0  0  0  0  0  0  0  0  0  0  0  0
  140.1453   72.3272  225.2638 H   0  0  0  0  0  0  0  0  0  0  0  0
  140.4150   70.2630  225.6200 C   0  0  0  0  0  0  0  0  0  0  0  0
  141.0640   70.0990  226.8540 C   0  0  0  0  0  0  0  0  0  0  0  0
  141.7936   70.8496  227.1919 H   0  0  0  0  0  0  0  0  0  0  0  0
  140.7890   68.9890  227.6550 C   0  0  0  0  0  0  0  0  0  0  0  0
  141.3106   68.8619  228.6151 H   0  0  0  0  0  0  0  0  0  0  0  0
  139.8520   68.0390  227.2390 C   0  0  0  0  0  0  0  0  0  0  0  0
  139.6347   67.1664  227.8725 H   0  0  0  0  0  0  0  0  0  0  0  0
  139.1920   68.1980  226.0190 C   0  0  0  0  0  0  0  0  0  0  0  0
  138.4468   67.4549  225.6987 H   0  0  0  0  0  0  0  0  0  0  0  0
  139.4750   69.3020  225.1990 C   0  0  0  0  0  0  0  0  0  0  0  0
  138.7410   69.4920  223.9060 C   0  0  0  0  0  0  0  0  0  0  0  0
  138.4081   68.5136  223.5293 H   0  0  0  0  0  0  0  0  0  0  0  0
  137.8706   70.1423  224.0779 H   0  0  0  0  0  0  0  0  0  0  0  0
  139.6570   70.1450  222.8750 C   0  0  0  0  0  0  0  0  0  0  0  0
  140.4785   69.4547  222.6331 H   0  0  0  0  0  0  0  0  0  0  0  0
  139.0700   70.3704  221.9724 H   0  0  0  0  0  0  0  0  0  0  0  0
  139.8860   73.7080  222.7030 N   0  0  0  0  0  0  0  0  0  0  0  0
  140.1240   74.7510  221.8660 C   0  0  0  0  0  0  0  0  0  0  0  0
  139.4800   76.0230  222.1060 N   0  0  0  0  0  0  0  0  0  0  0  0
  138.0940   76.0680  222.5860 C   0  0  0  0  0  0  0  0  0  0  0  0
  137.5652   75.1612  222.2573 H   0  0  0  0  0  0  0  0  0  0  0  0
  138.0943   76.1226  223.6846 H   0  0  0  0  0  0  0  0  0  0  0  0
  137.3810   77.3060  222.0200 C   0  0  0  0  0  0  0  0  0  0  0  0
  137.2215   77.1511  220.9427 H   0  0  0  0  0  0  0  0  0  0  0  0
  136.4382   77.4127  222.5765 H   0  0  0  0  0  0  0  0  0  0  0  0
  138.1330   78.5710  222.2030 N   0  0  0  0  0  0  0  0  0  0  0  0
  138.1910   79.0680  221.2830 H   0  0  0  0  0  0  0  0  0  0  0  0
  137.6020   79.1950  222.8550 H   0  0  0  0  0  0  0  0  0  0  0  0
  139.4980   78.4120  222.7340 C   0  0  0  0  0  0  0  0  0  0  0  0
  140.0518   79.3502  222.5821 H   0  0  0  0  0  0  0  0  0  0  0  0
  139.4249   78.1682  223.8041 H   0  0  0  0  0  0  0  0  0  0  0  0
  140.2460   77.2740  222.0330 C   0  0  0  0  0  0  0  0  0  0  0  0
  140.4008   77.5409  220.9772 H   0  0  0  0  0  0  0  0  0  0  0  0
  141.2127   77.1251  222.5363 H   0  0  0  0  0  0  0  0  0  0  0  0
  140.9720   74.5790  220.8100 N   0  0  0  0  0  0  0  0  0  0  0  0
  141.1520   75.3640  220.1460 H   0  0  0  0  0  0  0  0  0  0  0  0
  144.6530   72.0460  218.2600 N   0  0  0  0  0  0  0  0  0  0  0  0
  1  2  1  0
  2  3  2  0
  3  4  1  0
  4  5  1  0
  4  6  2  0
  6  7  1  0
  7  8  1  0
  7  9  1  0
  7 10  1  0
 10 11  1  0
 10 12  1  0
 10 13  1  0
 13 14  1  0
 13 15  2  0
 15 16  1  0
 16 17  2  0
 17 18  1  0
 18 19  1  0
 19 20  1  0
 19 21  1  0
 19 22  1  0
 22 23  2  0
 23 24  1  0
 23 25  1  0
 25 26  1  0
 25 27  2  0
 27 28  1  0
 27 29  1  0
 29 30  1  0
 29 31  2  0
 31 32  1  0
 32 33  1  0
 32 34  1  0
 32 35  1  0
 35 36  1  0
 35 37  1  0
 17 38  1  0
 38 39  2  0
 39 40  1  0
 40 41  1  0
 41 42  1  0
 41 43  1  0
 41 44  1  0
 44 45  1  0
 44 46  1  0
 44 47  1  0
 47 48  1  0
 47 49  1  0
 47 50  1  0
 50 51  1  0
 50 52  1  0
 50 53  1  0
 53 54  1  0
 53 55  1  0
 39 56  1  0
 56 57  1  0
  6 58  1  0
 58  2  1  0
 56 15  1  0
 35 18  1  0
 53 40  1  0
 31 22  1  0
M  CHG  3  13   1  47   1  58  -1
M  END
>  <UniqueID>  (47) 
536

>  <SMILES>  (47) 
c1ccc2c(c1)CCN(c1nc(N3CC[NH2+]CC3)[nH]/c(=[NH+]/CCc3cnc[n-]3)n1)C2

>  <Energy>  (47) 
94.32917575555722

>  <Genealogy>  (47) 
c1ccc2c(c1)CCN(c1nc([NH2+]CCc3cnc[n-]3)nc(N3CC[NH2+]CC3)n1)C2 (protonated)
c1ccc2c(c1)CCN(c1nc(N3CC[NH2+]CC3)[nH]c(=[NH+]CCc3cnc[n-]3)n1)C2 (tautomer)
c1ccc2c(c1)CCN(c1nc(N3CC[NH2+]CC3)[nH]/c(=[NH+]/CCc3cnc[n-]3)n1)C2 (cis-trans isomerization)
c1ccc2c(c1)CCN(c1nc(N3CC[NH2+]CC3)[nH]/c(=[NH+]/CCc3cnc[n-]3)n1)C2 (3D coordinates assigned)
c1ccc2c(c1)CCN(c1nc(N3CC[NH2+]CC3)[nH]/c(=[NH+]/CCc3cnc[n-]3)n1)C2 (nonaromatic ring conformer: 94.32917575555722 kcal/mol)

>  <smiles>  (47) 
c1ccc2c(c1)CCN(c1nc(NCCc3cnc[nH]3)nc(N3CCNCC3)n1)C2

>  <score_type>  (47) 
oracle

>  <origin>  (47) 
autodockgpu

>  <m_score__min__energy>  (47) 
-7.5700000000000003

>  <m_primary>  (47) 
energy

>  <meeko>  (47) 
{"free_energy": -7.11, "intermolecular_energy": -8.9, "internal_energy": -1.2, "cluster_size": 6, "cluster_id": 1, "rank_in_cluster": 3}

>  <energy>  (47) 
-7.48

>  <cluster_rmsd>  (47) 
0.0

>  <rmsd>  (47) 
272.33

>  <cluster>  (47) 
2

$$$$
IEUOTYZOLCKWKV-RTROOMJONA-P
     RDKit          3D

 58 62  0  0  0  0  0  0  0  0999 V2000
  138.8444   81.9785  220.4278 H   0  0  0  0  0  0  0  0  0  0  0  0
  139.7670   81.8890  221.0200 C   0  0  0  0  0  0  0  0  0  0  0  0
  140.9470   82.4160  220.6310 N   0  0  0  0  0  0  0  0  0  0  0  0
  141.7960   82.0880  221.6200 C   0  0  0  0  0  0  0  0  0  0  0  0
  142.8657   82.3417  221.6564 H   0  0  0  0  0  0  0  0  0  0  0  0
  141.1070   81.3830  222.5790 C   0  0  0  0  0  0  0  0  0  0  0  0
  141.6910   80.7760  223.8160 C   0  0  0  0  0  0  0  0  0  0  0  0
  141.2111   81.2224  224.6994 H   0  0  0  0  0  0  0  0  0  0  0  0
  142.7731   80.9729  223.8319 H   0  0  0  0  0  0  0  0  0  0  0  0
  141.4630   79.2610  223.8300 C   0  0  0  0  0  0  0  0  0  0  0  0
  140.9805   78.9782  224.7772 H   0  0  0  0  0  0  0  0  0  0  0  0
  142.4362   78.7582  223.7294 H   0  0  0  0  0  0  0  0  0  0  0  0
  140.6050   78.8500  222.7120 N   0  0  0  0  0  0  0  0  0  0  0  0
  139.5680   78.9340  222.8200 H   0  0  0  0  0  0  0  0  0  0  0  0
  141.0900   78.3860  221.5930 C   0  0  0  0  0  0  0  0  0  0  0  0
  141.4430   77.0770  221.4860 N   0  0  0  0  0  0  0  0  0  0  0  0
  141.9540   76.5840  220.3290 C   0  0  0  0  0  0  0  0  0  0  0  0
  142.3290   75.1930  220.2340 N   0  0  0  0  0  0  0  0  0  0  0  0
  143.7550   74.8620  220.0470 C   0  0  0  0  0  0  0  0  0  0  0  0
  144.1127   75.3686  219.1385 H   0  0  0  0  0  0  0  0  0  0  0  0
  144.2839   75.1978  220.9512 H   0  0  0  0  0  0  0  0  0  0  0  0
  144.0220   73.3820  219.9040 C   0  0  0  0  0  0  0  0  0  0  0  0
  145.2710   72.9510  219.4290 C   0  0  0  0  0  0  0  0  0  0  0  0
  146.0284   73.6917  219.1329 H   0  0  0  0  0  0  0  0  0  0  0  0
  145.5580   71.5870  219.3300 C   0  0  0  0  0  0  0  0  0  0  0  0
  146.5344   71.2573  218.9454 H   0  0  0  0  0  0  0  0  0  0  0  0
  144.6060   70.6420  219.7190 C   0  0  0  0  0  0  0  0  0  0  0  0
  144.8345   69.5687  219.6431 H   0  0  0  0  0  0  0  0  0  0  0  0
  143.3650   71.0580  220.2040 C   0  0  0  0  0  0  0  0  0  0  0  0
  142.6220   70.3110  220.5202 H   0  0  0  0  0  0  0  0  0  0  0  0
  143.0610   72.4270  220.2900 C   0  0  0  0  0  0  0  0  0  0  0  0
  141.7440   72.8770  220.8440 C   0  0  0  0  0  0  0  0  0  0  0  0
  140.9937   72.0886  220.6846 H   0  0  0  0  0  0  0  0  0  0  0  0
  141.8550   73.0758  221.9202 H   0  0  0  0  0  0  0  0  0  0  0  0
  141.2900   74.1550  220.1440 C   0  0  0  0  0  0  0  0  0  0  0  0
  141.0896   73.9352  219.0850 H   0  0  0  0  0  0  0  0  0  0  0  0
  140.3777   74.5234  220.6360 H   0  0  0  0  0  0  0  0  0  0  0  0
  142.1110   77.4160  219.2680 N   0  0  0  0  0  0  0  0  0  0  0  0
  141.7640   78.7280  219.3490 C   0  0  0  0  0  0  0  0  0  0  0  0
  141.9380   79.5860  218.2000 N   0  0  0  0  0  0  0  0  0  0  0  0
  141.0650   79.4360  217.0290 C   0  0  0  0  0  0  0  0  0  0  0  0
  140.7037   78.3985  216.9745 H   0  0  0  0  0  0  0  0  0  0  0  0
  140.2117   80.1236  217.1243 H   0  0  0  0  0  0  0  0  0  0  0  0
  141.8430   79.7720  215.7470 C   0  0  0  0  0  0  0  0  0  0  0  0
  142.5729   78.9694  215.5649 H   0  0  0  0  0  0  0  0  0  0  0  0
  141.1018   79.8617  214.9392 H   0  0  0  0  0  0  0  0  0  0  0  0
  142.5730   81.0620  215.8050 N   0  0  0  0  0  0  0  0  0  0  0  0
  143.5660   80.9040  215.5120 H   0  0  0  0  0  0  0  0  0  0  0  0
  142.1510   81.7250  215.1130 H   0  0  0  0  0  0  0  0  0  0  0  0
  142.5740   81.7170  217.1240 C   0  0  0  0  0  0  0  0  0  0  0  0
  143.3433   82.5032  217.1316 H   0  0  0  0  0  0  0  0  0  0  0  0
  141.5750   82.1435  217.2973 H   0  0  0  0  0  0  0  0  0  0  0  0
  142.8710   80.7200  218.2480 C   0  0  0  0  0  0  0  0  0  0  0  0
  143.8993   80.3459  218.1357 H   0  0  0  0  0  0  0  0  0  0  0  0
  142.7532   81.2327  219.2141 H   0  0  0  0  0  0  0  0  0  0  0  0
  141.2530   79.2110  220.5190 N   0  0  0  0  0  0  0  0  0  0  0  0
  140.9990   80.2200  220.6050 H   0  0  0  0  0  0  0  0  0  0  0  0
  139.8240   81.2420  222.2030 N   0  0  0  0  0  0  0  0  0  0  0  0
  1  2  1  0
  2  3  2  0
  3  4  1  0
  4  5  1  0
  4  6  2  0
  6  7  1  0
  7  8  1  0
  7  9  1  0
  7 10  1  0
 10 11  1  0
 10 12  1  0
 10 13  1  0
 13 14  1  0
 13 15  2  0
 15 16  1  0
 16 17  2  0
 17 18  1  0
 18 19  1  0
 19 20  1  0
 19 21  1  0
 19 22  1  0
 22 23  2  0
 23 24  1  0
 23 25  1  0
 25 26  1  0
 25 27  2  0
 27 28  1  0
 27 29  1  0
 29 30  1  0
 29 31  2  0
 31 32  1  0
 32 33  1  0
 32 34  1  0
 32 35  1  0
 35 36  1  0
 35 37  1  0
 17 38  1  0
 38 39  2  0
 39 40  1  0
 40 41  1  0
 41 42  1  0
 41 43  1  0
 41 44  1  0
 44 45  1  0
 44 46  1  0
 44 47  1  0
 47 48  1  0
 47 49  1  0
 47 50  1  0
 50 51  1  0
 50 52  1  0
 50 53  1  0
 53 54  1  0
 53 55  1  0
 39 56  1  0
 56 57  1  0
  6 58  1  0
 58  2  1  0
 56 15  1  0
 35 18  1  0
 53 40  1  0
 31 22  1  0
M  CHG  3  13   1  47   1  58  -1
M  END
>  <UniqueID>  (48) 
536

>  <SMILES>  (48) 
c1ccc2c(c1)CCN(c1nc(N3CC[NH2+]CC3)[nH]/c(=[NH+]/CCc3cnc[n-]3)n1)C2

>  <Energy>  (48) 
94.32917575555722

>  <Genealogy>  (48) 
c1ccc2c(c1)CCN(c1nc([NH2+]CCc3cnc[n-]3)nc(N3CC[NH2+]CC3)n1)C2 (protonated)
c1ccc2c(c1)CCN(c1nc(N3CC[NH2+]CC3)[nH]c(=[NH+]CCc3cnc[n-]3)n1)C2 (tautomer)
c1ccc2c(c1)CCN(c1nc(N3CC[NH2+]CC3)[nH]/c(=[NH+]/CCc3cnc[n-]3)n1)C2 (cis-trans isomerization)
c1ccc2c(c1)CCN(c1nc(N3CC[NH2+]CC3)[nH]/c(=[NH+]/CCc3cnc[n-]3)n1)C2 (3D coordinates assigned)
c1ccc2c(c1)CCN(c1nc(N3CC[NH2+]CC3)[nH]/c(=[NH+]/CCc3cnc[n-]3)n1)C2 (nonaromatic ring conformer: 94.32917575555722 kcal/mol)

>  <smiles>  (48) 
c1ccc2c(c1)CCN(c1nc(NCCc3cnc[nH]3)nc(N3CCNCC3)n1)C2

>  <score_type>  (48) 
oracle

>  <origin>  (48) 
autodockgpu

>  <m_score__min__energy>  (48) 
-7.5700000000000003

>  <m_primary>  (48) 
energy

>  <meeko>  (48) 
{"free_energy": -6.43, "intermolecular_energy": -8.22, "internal_energy": -2.75, "cluster_size": 5, "cluster_id": 4, "rank_in_cluster": 2}

>  <energy>  (48) 
-6.8

>  <cluster_rmsd>  (48) 
0.0

>  <rmsd>  (48) 
271.74

>  <cluster>  (48) 
3

$$$$
IEUOTYZOLCKWKV-RTROOMJONA-P
     RDKit          3D

 58 62  0  0  0  0  0  0  0  0999 V2000
  147.2403   74.4137  216.6595 H   0  0  0  0  0  0  0  0  0  0  0  0
  146.4320   73.7050  216.8930 C   0  0  0  0  0  0  0  0  0  0  0  0
  145.4980   73.3290  215.9940 N   0  0  0  0  0  0  0  0  0  0  0  0
  144.7180   72.4690  216.6710 C   0  0  0  0  0  0  0  0  0  0  0  0
  143.8355   71.9511  216.2674 H   0  0  0  0  0  0  0  0  0  0  0  0
  145.2040   72.3430  217.9500 C   0  0  0  0  0  0  0  0  0  0  0  0
  144.5920   71.5330  219.0500 C   0  0  0  0  0  0  0  0  0  0  0  0
  145.3352   70.8150  219.4269 H   0  0  0  0  0  0  0  0  0  0  0  0
  143.7157   70.9997  218.6529 H   0  0  0  0  0  0  0  0  0  0  0  0
  144.1400   72.4400  220.1990 C   0  0  0  0  0  0  0  0  0  0  0  0
  144.4877   72.0144  221.1519 H   0  0  0  0  0  0  0  0  0  0  0  0
  143.0420   72.5044  220.1848 H   0  0  0  0  0  0  0  0  0  0  0  0
  144.6910   73.7920  220.0470 N   0  0  0  0  0  0  0  0  0  0  0  0
  145.6980   73.9520  220.2840 H   0  0  0  0  0  0  0  0  0  0  0  0
  143.9720   74.7970  219.6270 C   0  0  0  0  0  0  0  0  0  0  0  0
  143.1120   75.4280  220.4710 N   0  0  0  0  0  0  0  0  0  0  0  0
  142.3540   76.4700  220.0440 C   0  0  0  0  0  0  0  0  0  0  0  0
  141.4420   77.1250  220.9510 N   0  0  0  0  0  0  0  0  0  0  0  0
  141.6840   78.5400  221.2910 C   0  0  0  0  0  0  0  0  0  0  0  0
  142.6962   78.6273  221.7127 H   0  0  0  0  0  0  0  0  0  0  0  0
  141.5637   79.1179  220.3628 H   0  0  0  0  0  0  0  0  0  0  0  0
  140.7010   79.1030  222.2910 C   0  0  0  0  0  0  0  0  0  0  0  0
  140.9840   80.3250  222.9210 C   0  0  0  0  0  0  0  0  0  0  0  0
  141.9312   80.8425  222.7091 H   0  0  0  0  0  0  0  0  0  0  0  0
  140.0710   80.8880  223.8150 C   0  0  0  0  0  0  0  0  0  0  0  0
  140.3056   81.8405  224.3128 H   0  0  0  0  0  0  0  0  0  0  0  0
  138.8600   80.2430  224.0780 C   0  0  0  0  0  0  0  0  0  0  0  0
  138.1411   80.6884  224.7815 H   0  0  0  0  0  0  0  0  0  0  0  0
  138.5620   79.0330  223.4480 C   0  0  0  0  0  0  0  0  0  0  0  0
  137.6027   78.5333  223.6479 H   0  0  0  0  0  0  0  0  0  0  0  0
  139.4820   78.4510  222.5600 C   0  0  0  0  0  0  0  0  0  0  0  0
  139.1480   77.1710  221.8560 C   0  0  0  0  0  0  0  0  0  0  0  0
  138.4297   76.5991  222.4618 H   0  0  0  0  0  0  0  0  0  0  0  0
  138.7080   77.4034  220.8750 H   0  0  0  0  0  0  0  0  0  0  0  0
  140.4120   76.3400  221.6530 C   0  0  0  0  0  0  0  0  0  0  0  0
  140.8010   76.0283  222.6336 H   0  0  0  0  0  0  0  0  0  0  0  0
  140.1625   75.4582  221.0446 H   0  0  0  0  0  0  0  0  0  0  0  0
  142.4630   76.8820  218.7550 N   0  0  0  0  0  0  0  0  0  0  0  0
  143.3170   76.2710  217.8940 C   0  0  0  0  0  0  0  0  0  0  0  0
  143.4150   76.7380  216.5300 N   0  0  0  0  0  0  0  0  0  0  0  0
  144.0890   75.9180  215.5160 C   0  0  0  0  0  0  0  0  0  0  0  0
  144.8404   75.2800  216.0042 H   0  0  0  0  0  0  0  0  0  0  0  0
  143.3434   75.2918  215.0043 H   0  0  0  0  0  0  0  0  0  0  0  0
  144.7820   76.8220  214.4840 C   0  0  0  0  0  0  0  0  0  0  0  0
  145.6453   77.3015  214.9685 H   0  0  0  0  0  0  0  0  0  0  0  0
  145.0732   76.1779  213.6412 H   0  0  0  0  0  0  0  0  0  0  0  0
  143.9080   77.8850  213.9300 N   0  0  0  0  0  0  0  0  0  0  0  0
  144.4020   78.8060  214.0070 H   0  0  0  0  0  0  0  0  0  0  0  0
  143.7540   77.7040  212.9100 H   0  0  0  0  0  0  0  0  0  0  0  0
  142.5900   78.0070  214.5770 C   0  0  0  0  0  0  0  0  0  0  0  0
  142.1374   78.9668  214.2873 H   0  0  0  0  0  0  0  0  0  0  0  0
  141.9653   77.1635  214.2480 H   0  0  0  0  0  0  0  0  0  0  0  0
  142.7050   77.9520  216.1030 C   0  0  0  0  0  0  0  0  0  0  0  0
  143.2577   78.8355  216.4550 H   0  0  0  0  0  0  0  0  0  0  0  0
  141.6924   77.9374  216.5324 H   0  0  0  0  0  0  0  0  0  0  0  0
  144.0710   75.2220  218.3350 N   0  0  0  0  0  0  0  0  0  0  0  0
  144.7190   74.7280  217.6810 H   0  0  0  0  0  0  0  0  0  0  0  0
  146.2820   73.1310  218.1040 N   0  0  0  0  0  0  0  0  0  0  0  0
  1  2  1  0
  2  3  2  0
  3  4  1  0
  4  5  1  0
  4  6  2  0
  6  7  1  0
  7  8  1  0
  7  9  1  0
  7 10  1  0
 10 11  1  0
 10 12  1  0
 10 13  1  0
 13 14  1  0
 13 15  2  0
 15 16  1  0
 16 17  2  0
 17 18  1  0
 18 19  1  0
 19 20  1  0
 19 21  1  0
 19 22  1  0
 22 23  2  0
 23 24  1  0
 23 25  1  0
 25 26  1  0
 25 27  2  0
 27 28  1  0
 27 29  1  0
 29 30  1  0
 29 31  2  0
 31 32  1  0
 32 33  1  0
 32 34  1  0
 32 35  1  0
 35 36  1  0
 35 37  1  0
 17 38  1  0
 38 39  2  0
 39 40  1  0
 40 41  1  0
 41 42  1  0
 41 43  1  0
 41 44  1  0
 44 45  1  0
 44 46  1  0
 44 47  1  0
 47 48  1  0
 47 49  1  0
 47 50  1  0
 50 51  1  0
 50 52  1  0
 50 53  1  0
 53 54  1  0
 53 55  1  0
 39 56  1  0
 56 57  1  0
  6 58  1  0
 58  2  1  0
 56 15  1  0
 35 18  1  0
 53 40  1  0
 31 22  1  0
M  CHG  3  13   1  47   1  58  -1
M  END
>  <UniqueID>  (49) 
536

>  <SMILES>  (49) 
c1ccc2c(c1)CCN(c1nc(N3CC[NH2+]CC3)[nH]/c(=[NH+]/CCc3cnc[n-]3)n1)C2

>  <Energy>  (49) 
94.32917575555722

>  <Genealogy>  (49) 
c1ccc2c(c1)CCN(c1nc([NH2+]CCc3cnc[n-]3)nc(N3CC[NH2+]CC3)n1)C2 (protonated)
c1ccc2c(c1)CCN(c1nc(N3CC[NH2+]CC3)[nH]c(=[NH+]CCc3cnc[n-]3)n1)C2 (tautomer)
c1ccc2c(c1)CCN(c1nc(N3CC[NH2+]CC3)[nH]/c(=[NH+]/CCc3cnc[n-]3)n1)C2 (cis-trans isomerization)
c1ccc2c(c1)CCN(c1nc(N3CC[NH2+]CC3)[nH]/c(=[NH+]/CCc3cnc[n-]3)n1)C2 (3D coordinates assigned)
c1ccc2c(c1)CCN(c1nc(N3CC[NH2+]CC3)[nH]/c(=[NH+]/CCc3cnc[n-]3)n1)C2 (nonaromatic ring conformer: 94.32917575555722 kcal/mol)

>  <smiles>  (49) 
c1ccc2c(c1)CCN(c1nc(NCCc3cnc[nH]3)nc(N3CCNCC3)n1)C2

>  <score_type>  (49) 
oracle

>  <origin>  (49) 
autodockgpu

>  <m_score__min__energy>  (49) 
-7.5700000000000003

>  <m_primary>  (49) 
energy

>  <meeko>  (49) 
{"free_energy": -6.8, "intermolecular_energy": -8.59, "internal_energy": -2.63, "cluster_size": 4, "cluster_id": 3, "rank_in_cluster": 2}

>  <energy>  (49) 
-6.8

>  <cluster_rmsd>  (49) 
0.04

>  <rmsd>  (49) 
271.74

>  <cluster>  (49) 
3

$$$$
IEUOTYZOLCKWKV-RTROOMJONA-P
     RDKit          3D

 58 62  0  0  0  0  0  0  0  0999 V2000
  147.2443   74.3571  216.6439 H   0  0  0  0  0  0  0  0  0  0  0  0
  146.4120   73.6760  216.8750 C   0  0  0  0  0  0  0  0  0  0  0  0
  145.4590   73.3450  215.9780 N   0  0  0  0  0  0  0  0  0  0  0  0
  144.6520   72.5070  216.6500 C   0  0  0  0  0  0  0  0  0  0  0  0
  143.7484   72.0269  216.2463 H   0  0  0  0  0  0  0  0  0  0  0  0
  145.1410   72.3480  217.9250 C   0  0  0  0  0  0  0  0  0  0  0  0
  144.5060   71.5480  219.0190 C   0  0  0  0  0  0  0  0  0  0  0  0
  145.2114   70.7753  219.3586 H   0  0  0  0  0  0  0  0  0  0  0  0
  143.5889   71.0803  218.6313 H   0  0  0  0  0  0  0  0  0  0  0  0
  144.1400   72.4510  220.2010 C   0  0  0  0  0  0  0  0  0  0  0  0
  144.5413   72.0126  221.1266 H   0  0  0  0  0  0  0  0  0  0  0  0
  143.0442   72.5299  220.2561 H   0  0  0  0  0  0  0  0  0  0  0  0
  144.6980   73.7970  220.0260 N   0  0  0  0  0  0  0  0  0  0  0  0
  145.7100   73.9510  220.2420 H   0  0  0  0  0  0  0  0  0  0  0  0
  143.9770   74.8030  219.6120 C   0  0  0  0  0  0  0  0  0  0  0  0
  143.1200   75.4320  220.4590 N   0  0  0  0  0  0  0  0  0  0  0  0
  142.3620   76.4770  220.0380 C   0  0  0  0  0  0  0  0  0  0  0  0
  141.4530   77.1290  220.9500 N   0  0  0  0  0  0  0  0  0  0  0  0
  141.7020   78.5410  221.3000 C   0  0  0  0  0  0  0  0  0  0  0  0
  142.7147   78.6205  221.7220 H   0  0  0  0  0  0  0  0  0  0  0  0
  141.5844   79.1262  220.3760 H   0  0  0  0  0  0  0  0  0  0  0  0
  140.7220   79.1010  222.3040 C   0  0  0  0  0  0  0  0  0  0  0  0
  141.0120   80.3170  222.9440 C   0  0  0  0  0  0  0  0  0  0  0  0
  141.9622   80.8308  222.7364 H   0  0  0  0  0  0  0  0  0  0  0  0
  140.1020   80.8780  223.8420 C   0  0  0  0  0  0  0  0  0  0  0  0
  140.3419   81.8252  224.3472 H   0  0  0  0  0  0  0  0  0  0  0  0
  138.8870   80.2380  224.1000 C   0  0  0  0  0  0  0  0  0  0  0  0
  138.1702   80.6824  224.8062 H   0  0  0  0  0  0  0  0  0  0  0  0
  138.5830   79.0340  223.4610 C   0  0  0  0  0  0  0  0  0  0  0  0
  137.6211   78.5377  223.6571 H   0  0  0  0  0  0  0  0  0  0  0  0
  139.5000   78.4540  222.5690 C   0  0  0  0  0  0  0  0  0  0  0  0
  139.1600   77.1810  221.8560 C   0  0  0  0  0  0  0  0  0  0  0  0
  138.4393   76.6081  222.4580 H   0  0  0  0  0  0  0  0  0  0  0  0
  138.7209   77.4228  220.8769 H   0  0  0  0  0  0  0  0  0  0  0  0
  140.4200   76.3450  221.6460 C   0  0  0  0  0  0  0  0  0  0  0  0
  140.8078   76.0240  222.6240 H   0  0  0  0  0  0  0  0  0  0  0  0
  140.1656   75.4693  221.0309 H   0  0  0  0  0  0  0  0  0  0  0  0
  142.4670   76.8920  218.7500 N   0  0  0  0  0  0  0  0  0  0  0  0
  143.3180   76.2820  217.8840 C   0  0  0  0  0  0  0  0  0  0  0  0
  143.4110   76.7530  216.5220 N   0  0  0  0  0  0  0  0  0  0  0  0
  144.0580   75.9240  215.4980 C   0  0  0  0  0  0  0  0  0  0  0  0
  144.8014   75.2690  215.9759 H   0  0  0  0  0  0  0  0  0  0  0  0
  143.2948   75.3150  214.9914 H   0  0  0  0  0  0  0  0  0  0  0  0
  144.7590   76.8190  214.4620 C   0  0  0  0  0  0  0  0  0  0  0  0
  145.6361   77.2798  214.9399 H   0  0  0  0  0  0  0  0  0  0  0  0
  145.0297   76.1727  213.6140 H   0  0  0  0  0  0  0  0  0  0  0  0
  143.9010   77.9000  213.9210 N   0  0  0  0  0  0  0  0  0  0  0  0
  144.4140   78.8110  213.9960 H   0  0  0  0  0  0  0  0  0  0  0  0
  143.7330   77.7270  212.9020 H   0  0  0  0  0  0  0  0  0  0  0  0
  142.5920   78.0460  214.5810 C   0  0  0  0  0  0  0  0  0  0  0  0
  142.1563   79.0160  214.2997 H   0  0  0  0  0  0  0  0  0  0  0  0
  141.9469   77.2170  214.2545 H   0  0  0  0  0  0  0  0  0  0  0  0
  142.7210   77.9820  216.1070 C   0  0  0  0  0  0  0  0  0  0  0  0
  143.2943   78.8531  216.4571 H   0  0  0  0  0  0  0  0  0  0  0  0
  141.7125   77.9852  216.5462 H   0  0  0  0  0  0  0  0  0  0  0  0
  144.0730   75.2320  218.3200 N   0  0  0  0  0  0  0  0  0  0  0  0
  144.7180   74.7390  217.6630 H   0  0  0  0  0  0  0  0  0  0  0  0
  146.2490   73.0940  218.0810 N   0  0  0  0  0  0  0  0  0  0  0  0
  1  2  1  0
  2  3  2  0
  3  4  1  0
  4  5  1  0
  4  6  2  0
  6  7  1  0
  7  8  1  0
  7  9  1  0
  7 10  1  0
 10 11  1  0
 10 12  1  0
 10 13  1  0
 13 14  1  0
 13 15  2  0
 15 16  1  0
 16 17  2  0
 17 18  1  0
 18 19  1  0
 19 20  1  0
 19 21  1  0
 19 22  1  0
 22 23  2  0
 23 24  1  0
 23 25  1  0
 25 26  1  0
 25 27  2  0
 27 28  1  0
 27 29  1  0
 29 30  1  0
 29 31  2  0
 31 32  1  0
 32 33  1  0
 32 34  1  0
 32 35  1  0
 35 36  1  0
 35 37  1  0
 17 38  1  0
 38 39  2  0
 39 40  1  0
 40 41  1  0
 41 42  1  0
 41 43  1  0
 41 44  1  0
 44 45  1  0
 44 46  1  0
 44 47  1  0
 47 48  1  0
 47 49  1  0
 47 50  1  0
 50 51  1  0
 50 52  1  0
 50 53  1  0
 53 54  1  0
 53 55  1  0
 39 56  1  0
 56 57  1  0
  6 58  1  0
 58  2  1  0
 56 15  1  0
 35 18  1  0
 53 40  1  0
 31 22  1  0
M  CHG  3  13   1  47   1  58  -1
M  END
>  <UniqueID>  (50) 
536

>  <SMILES>  (50) 
c1ccc2c(c1)CCN(c1nc(N3CC[NH2+]CC3)[nH]/c(=[NH+]/CCc3cnc[n-]3)n1)C2

>  <Energy>  (50) 
94.32917575555722

>  <Genealogy>  (50) 
c1ccc2c(c1)CCN(c1nc([NH2+]CCc3cnc[n-]3)nc(N3CC[NH2+]CC3)n1)C2 (protonated)
c1ccc2c(c1)CCN(c1nc(N3CC[NH2+]CC3)[nH]c(=[NH+]CCc3cnc[n-]3)n1)C2 (tautomer)
c1ccc2c(c1)CCN(c1nc(N3CC[NH2+]CC3)[nH]/c(=[NH+]/CCc3cnc[n-]3)n1)C2 (cis-trans isomerization)
c1ccc2c(c1)CCN(c1nc(N3CC[NH2+]CC3)[nH]/c(=[NH+]/CCc3cnc[n-]3)n1)C2 (3D coordinates assigned)
c1ccc2c(c1)CCN(c1nc(N3CC[NH2+]CC3)[nH]/c(=[NH+]/CCc3cnc[n-]3)n1)C2 (nonaromatic ring conformer: 94.32917575555722 kcal/mol)

>  <smiles>  (50) 
c1ccc2c(c1)CCN(c1nc(NCCc3cnc[nH]3)nc(N3CCNCC3)n1)C2

>  <score_type>  (50) 
oracle

>  <origin>  (50) 
autodockgpu

>  <m_score__min__energy>  (50) 
-7.5700000000000003

>  <m_primary>  (50) 
energy

>  <meeko>  (50) 
{"free_energy": -6.8, "intermolecular_energy": -8.59, "internal_energy": -2.62, "cluster_size": 4, "cluster_id": 3, "rank_in_cluster": 1}

>  <energy>  (50) 
-6.78

>  <cluster_rmsd>  (50) 
0.04

>  <rmsd>  (50) 
271.74

>  <cluster>  (50) 
3

$$$$
IEUOTYZOLCKWKV-RTROOMJONA-P
     RDKit          3D

 58 62  0  0  0  0  0  0  0  0999 V2000
  140.7050   77.0966  217.9510 H   0  0  0  0  0  0  0  0  0  0  0  0
  140.8510   77.3680  219.0070 C   0  0  0  0  0  0  0  0  0  0  0  0
  142.0650   77.6130  219.5450 N   0  0  0  0  0  0  0  0  0  0  0  0
  141.8010   77.9050  220.8310 C   0  0  0  0  0  0  0  0  0  0  0  0
  142.5493   78.1563  221.5971 H   0  0  0  0  0  0  0  0  0  0  0  0
  140.4430   77.8380  221.0310 C   0  0  0  0  0  0  0  0  0  0  0  0
  139.7330   78.0300  222.3350 C   0  0  0  0  0  0  0  0  0  0  0  0
  139.0673   78.9025  222.2598 H   0  0  0  0  0  0  0  0  0  0  0  0
  140.4798   78.1901  223.1266 H   0  0  0  0  0  0  0  0  0  0  0  0
  138.9020   76.7900  222.6810 C   0  0  0  0  0  0  0  0  0  0  0  0
  137.8561   77.0909  222.8408 H   0  0  0  0  0  0  0  0  0  0  0  0
  139.3152   76.3342  223.5929 H   0  0  0  0  0  0  0  0  0  0  0  0
  138.9570   75.8020  221.5980 N   0  0  0  0  0  0  0  0  0  0  0  0
  138.2930   75.9020  220.7950 H   0  0  0  0  0  0  0  0  0  0  0  0
  139.8030   74.8080  221.6010 C   0  0  0  0  0  0  0  0  0  0  0  0
  139.5720   73.7100  222.3680 N   0  0  0  0  0  0  0  0  0  0  0  0
  140.4480   72.6720  222.3830 C   0  0  0  0  0  0  0  0  0  0  0  0
  140.1900   71.5160  223.2080 N   0  0  0  0  0  0  0  0  0  0  0  0
  140.6860   71.5220  224.5990 C   0  0  0  0  0  0  0  0  0  0  0  0
  141.7737   71.6847  224.5792 H   0  0  0  0  0  0  0  0  0  0  0  0
  140.1512   72.3249  225.1276 H   0  0  0  0  0  0  0  0  0  0  0  0
  140.4090   70.2390  225.3480 C   0  0  0  0  0  0  0  0  0  0  0  0
  141.0740   69.9940  226.5600 C   0  0  0  0  0  0  0  0  0  0  0  0
  141.8136   70.7174  226.9338 H   0  0  0  0  0  0  0  0  0  0  0  0
  140.8020   68.8370  227.2940 C   0  0  0  0  0  0  0  0  0  0  0  0
  141.3357   68.6463  228.2368 H   0  0  0  0  0  0  0  0  0  0  0  0
  139.8530   67.9220  226.8320 C   0  0  0  0  0  0  0  0  0  0  0  0
  139.6382   67.0126  227.4124 H   0  0  0  0  0  0  0  0  0  0  0  0
  139.1770   68.1610  225.6340 C   0  0  0  0  0  0  0  0  0  0  0  0
  138.4221   67.4442  225.2785 H   0  0  0  0  0  0  0  0  0  0  0  0
  139.4570   69.3130  224.8810 C   0  0  0  0  0  0  0  0  0  0  0  0
  138.7060   69.5900  223.6140 C   0  0  0  0  0  0  0  0  0  0  0  0
  138.3601   68.6399  223.1808 H   0  0  0  0  0  0  0  0  0  0  0  0
  137.8433   70.2340  223.8399 H   0  0  0  0  0  0  0  0  0  0  0  0
  139.6120   70.3010  222.6130 C   0  0  0  0  0  0  0  0  0  0  0  0
  140.4250   69.6222  222.3160 H   0  0  0  0  0  0  0  0  0  0  0  0
  139.0141   70.5867  221.7350 H   0  0  0  0  0  0  0  0  0  0  0  0
  141.5670   72.7410  221.6180 N   0  0  0  0  0  0  0  0  0  0  0  0
  141.8190   73.8260  220.8410 C   0  0  0  0  0  0  0  0  0  0  0  0
  143.0160   73.8650  220.0330 N   0  0  0  0  0  0  0  0  0  0  0  0
  143.2390   74.9740  219.0970 C   0  0  0  0  0  0  0  0  0  0  0  0
  142.2685   75.3844  218.7812 H   0  0  0  0  0  0  0  0  0  0  0  0
  143.8301   75.7549  219.5978 H   0  0  0  0  0  0  0  0  0  0  0  0
  144.0060   74.4760  217.8630 C   0  0  0  0  0  0  0  0  0  0  0  0
  143.3327   73.8386  217.2711 H   0  0  0  0  0  0  0  0  0  0  0  0
  144.3368   75.3686  217.3119 H   0  0  0  0  0  0  0  0  0  0  0  0
  145.2250   73.6940  218.1860 N   0  0  0  0  0  0  0  0  0  0  0  0
  145.2040   72.7950  217.6490 H   0  0  0  0  0  0  0  0  0  0  0  0
  146.0680   74.2250  217.8630 H   0  0  0  0  0  0  0  0  0  0  0  0
  145.4030   73.3810  219.6150 C   0  0  0  0  0  0  0  0  0  0  0  0
  146.1648   72.5940  219.7162 H   0  0  0  0  0  0  0  0  0  0  0  0
  145.7170   74.2994  220.1326 H   0  0  0  0  0  0  0  0  0  0  0  0
  144.0970   72.8940  220.2510 C   0  0  0  0  0  0  0  0  0  0  0  0
  143.8134   71.9315  219.8002 H   0  0  0  0  0  0  0  0  0  0  0  0
  144.2539   72.7786  221.3336 H   0  0  0  0  0  0  0  0  0  0  0  0
  140.9320   74.8640  220.8360 N   0  0  0  0  0  0  0  0  0  0  0  0
  141.1190   75.7140  220.2600 H   0  0  0  0  0  0  0  0  0  0  0  0
  139.8340   77.4870  219.8850 N   0  0  0  0  0  0  0  0  0  0  0  0
  1  2  1  0
  2  3  2  0
  3  4  1  0
  4  5  1  0
  4  6  2  0
  6  7  1  0
  7  8  1  0
  7  9  1  0
  7 10  1  0
 10 11  1  0
 10 12  1  0
 10 13  1  0
 13 14  1  0
 13 15  2  0
 15 16  1  0
 16 17  2  0
 17 18  1  0
 18 19  1  0
 19 20  1  0
 19 21  1  0
 19 22  1  0
 22 23  2  0
 23 24  1  0
 23 25  1  0
 25 26  1  0
 25 27  2  0
 27 28  1  0
 27 29  1  0
 29 30  1  0
 29 31  2  0
 31 32  1  0
 32 33  1  0
 32 34  1  0
 32 35  1  0
 35 36  1  0
 35 37  1  0
 17 38  1  0
 38 39  2  0
 39 40  1  0
 40 41  1  0
 41 42  1  0
 41 43  1  0
 41 44  1  0
 44 45  1  0
 44 46  1  0
 44 47  1  0
 47 48  1  0
 47 49  1  0
 47 50  1  0
 50 51  1  0
 50 52  1  0
 50 53  1  0
 53 54  1  0
 53 55  1  0
 39 56  1  0
 56 57  1  0
  6 58  1  0
 58  2  1  0
 56 15  1  0
 35 18  1  0
 53 40  1  0
 31 22  1  0
M  CHG  3  13   1  47   1  58  -1
M  END
>  <UniqueID>  (51) 
536

>  <SMILES>  (51) 
c1ccc2c(c1)CCN(c1nc(N3CC[NH2+]CC3)[nH]/c(=[NH+]/CCc3cnc[n-]3)n1)C2

>  <Energy>  (51) 
94.32917575555722

>  <Genealogy>  (51) 
c1ccc2c(c1)CCN(c1nc([NH2+]CCc3cnc[n-]3)nc(N3CC[NH2+]CC3)n1)C2 (protonated)
c1ccc2c(c1)CCN(c1nc(N3CC[NH2+]CC3)[nH]c(=[NH+]CCc3cnc[n-]3)n1)C2 (tautomer)
c1ccc2c(c1)CCN(c1nc(N3CC[NH2+]CC3)[nH]/c(=[NH+]/CCc3cnc[n-]3)n1)C2 (cis-trans isomerization)
c1ccc2c(c1)CCN(c1nc(N3CC[NH2+]CC3)[nH]/c(=[NH+]/CCc3cnc[n-]3)n1)C2 (3D coordinates assigned)
c1ccc2c(c1)CCN(c1nc(N3CC[NH2+]CC3)[nH]/c(=[NH+]/CCc3cnc[n-]3)n1)C2 (nonaromatic ring conformer: 94.32917575555722 kcal/mol)

>  <smiles>  (51) 
c1ccc2c(c1)CCN(c1nc(NCCc3cnc[nH]3)nc(N3CCNCC3)n1)C2

>  <score_type>  (51) 
oracle

>  <origin>  (51) 
autodockgpu

>  <m_score__min__energy>  (51) 
-7.5700000000000003

>  <m_primary>  (51) 
energy

>  <meeko>  (51) 
{"free_energy": -6.31, "intermolecular_energy": -8.1, "internal_energy": -2.65, "cluster_size": 6, "cluster_id": 1, "rank_in_cluster": 5}

>  <energy>  (51) 
-6.76

>  <cluster_rmsd>  (51) 
0.06

>  <rmsd>  (51) 
271.74

>  <cluster>  (51) 
3

$$$$
IEUOTYZOLCKWKV-RTROOMJONA-P
     RDKit          3D

 58 62  0  0  0  0  0  0  0  0999 V2000
  147.1821   74.2730  220.8198 H   0  0  0  0  0  0  0  0  0  0  0  0
  146.3160   73.6890  220.4750 C   0  0  0  0  0  0  0  0  0  0  0  0
  146.3220   72.9610  219.3370 N   0  0  0  0  0  0  0  0  0  0  0  0
  145.0950   72.4140  219.2900 C   0  0  0  0  0  0  0  0  0  0  0  0
  144.7180   71.7536  218.4952 H   0  0  0  0  0  0  0  0  0  0  0  0
  144.3890   72.8160  220.3990 C   0  0  0  0  0  0  0  0  0  0  0  0
  142.9610   72.4860  220.7020 C   0  0  0  0  0  0  0  0  0  0  0  0
  142.8573   72.2822  221.7780 H   0  0  0  0  0  0  0  0  0  0  0  0
  142.6695   71.6008  220.1177 H   0  0  0  0  0  0  0  0  0  0  0  0
  142.0460   73.6540  220.3200 C   0  0  0  0  0  0  0  0  0  0  0  0
  141.0595   73.5052  220.7833 H   0  0  0  0  0  0  0  0  0  0  0  0
  141.9548   73.6854  219.2242 H   0  0  0  0  0  0  0  0  0  0  0  0
  142.6060   74.9300  220.7810 N   0  0  0  0  0  0  0  0  0  0  0  0
  143.4270   74.9120  221.4300 H   0  0  0  0  0  0  0  0  0  0  0  0
  142.1170   76.0820  220.4100 C   0  0  0  0  0  0  0  0  0  0  0  0
  141.4150   76.8470  221.2880 N   0  0  0  0  0  0  0  0  0  0  0  0
  140.8970   78.0440  220.9120 C   0  0  0  0  0  0  0  0  0  0  0  0
  140.1490   78.8410  221.8550 N   0  0  0  0  0  0  0  0  0  0  0  0
  138.7540   78.4570  222.1470 C   0  0  0  0  0  0  0  0  0  0  0  0
  138.1929   78.4420  221.2010 H   0  0  0  0  0  0  0  0  0  0  0  0
  138.7875   77.4700  222.6316 H   0  0  0  0  0  0  0  0  0  0  0  0
  138.0520   79.3940  223.1030 C   0  0  0  0  0  0  0  0  0  0  0  0
  136.6560   79.3230  223.2350 C   0  0  0  0  0  0  0  0  0  0  0  0
  136.0841   78.6139  222.6185 H   0  0  0  0  0  0  0  0  0  0  0  0
  135.9890   80.1470  224.1440 C   0  0  0  0  0  0  0  0  0  0  0  0
  134.8939   80.0935  224.2331 H   0  0  0  0  0  0  0  0  0  0  0  0
  136.7110   81.0390  224.9400 C   0  0  0  0  0  0  0  0  0  0  0  0
  136.1845   81.6860  225.6571 H   0  0  0  0  0  0  0  0  0  0  0  0
  138.1010   81.1100  224.8260 C   0  0  0  0  0  0  0  0  0  0  0  0
  138.6679   81.8050  225.4628 H   0  0  0  0  0  0  0  0  0  0  0  0
  138.7780   80.2980  223.9020 C   0  0  0  0  0  0  0  0  0  0  0  0
  140.2730   80.3460  223.8040 C   0  0  0  0  0  0  0  0  0  0  0  0
  140.6277   81.3347  224.1305 H   0  0  0  0  0  0  0  0  0  0  0  0
  140.7018   79.5639  224.4477 H   0  0  0  0  0  0  0  0  0  0  0  0
  140.7110   80.1030  222.3620 C   0  0  0  0  0  0  0  0  0  0  0  0
  140.3594   80.9338  221.7326 H   0  0  0  0  0  0  0  0  0  0  0  0
  141.8087   80.0398  222.3310 H   0  0  0  0  0  0  0  0  0  0  0  0
  141.0880   78.4760  219.6400 N   0  0  0  0  0  0  0  0  0  0  0  0
  141.7880   77.7320  218.7440 C   0  0  0  0  0  0  0  0  0  0  0  0
  141.9790   78.2240  217.3990 N   0  0  0  0  0  0  0  0  0  0  0  0
  141.9920   77.2890  216.2670 C   0  0  0  0  0  0  0  0  0  0  0  0
  142.3254   76.3002  216.6151 H   0  0  0  0  0  0  0  0  0  0  0  0
  140.9775   77.2148  215.8485 H   0  0  0  0  0  0  0  0  0  0  0  0
  142.9510   77.7950  215.1780 C   0  0  0  0  0  0  0  0  0  0  0  0
  143.9816   77.6876  215.5473 H   0  0  0  0  0  0  0  0  0  0  0  0
  142.7587   77.1915  214.2787 H   0  0  0  0  0  0  0  0  0  0  0  0
  142.7370   79.2120  214.7980 N   0  0  0  0  0  0  0  0  0  0  0  0
  143.6550   79.7170  214.8340 H   0  0  0  0  0  0  0  0  0  0  0  0
  142.4030   79.2550  213.8060 H   0  0  0  0  0  0  0  0  0  0  0  0
  141.7700   79.9420  215.6360 C   0  0  0  0  0  0  0  0  0  0  0  0
  141.8798   81.0208  215.4510 H   0  0  0  0  0  0  0  0  0  0  0  0
  140.7583   79.6000  215.3725 H   0  0  0  0  0  0  0  0  0  0  0  0
  141.9970   79.6670  217.1260 C   0  0  0  0  0  0  0  0  0  0  0  0
  142.9728   80.0782  217.4240 H   0  0  0  0  0  0  0  0  0  0  0  0
  141.1888   80.1443  217.6996 H   0  0  0  0  0  0  0  0  0  0  0  0
  142.3010   76.5290  219.1340 N   0  0  0  0  0  0  0  0  0  0  0  0
  142.8250   75.9350  218.4540 H   0  0  0  0  0  0  0  0  0  0  0  0
  145.1490   73.6330  221.1490 N   0  0  0  0  0  0  0  0  0  0  0  0
  1  2  1  0
  2  3  2  0
  3  4  1  0
  4  5  1  0
  4  6  2  0
  6  7  1  0
  7  8  1  0
  7  9  1  0
  7 10  1  0
 10 11  1  0
 10 12  1  0
 10 13  1  0
 13 14  1  0
 13 15  2  0
 15 16  1  0
 16 17  2  0
 17 18  1  0
 18 19  1  0
 19 20  1  0
 19 21  1  0
 19 22  1  0
 22 23  2  0
 23 24  1  0
 23 25  1  0
 25 26  1  0
 25 27  2  0
 27 28  1  0
 27 29  1  0
 29 30  1  0
 29 31  2  0
 31 32  1  0
 32 33  1  0
 32 34  1  0
 32 35  1  0
 35 36  1  0
 35 37  1  0
 17 38  1  0
 38 39  2  0
 39 40  1  0
 40 41  1  0
 41 42  1  0
 41 43  1  0
 41 44  1  0
 44 45  1  0
 44 46  1  0
 44 47  1  0
 47 48  1  0
 47 49  1  0
 47 50  1  0
 50 51  1  0
 50 52  1  0
 50 53  1  0
 53 54  1  0
 53 55  1  0
 39 56  1  0
 56 57  1  0
  6 58  1  0
 58  2  1  0
 56 15  1  0
 35 18  1  0
 53 40  1  0
 31 22  1  0
M  CHG  3  13   1  47   1  58  -1
M  END
>  <UniqueID>  (52) 
536

>  <SMILES>  (52) 
c1ccc2c(c1)CCN(c1nc(N3CC[NH2+]CC3)[nH]/c(=[NH+]/CCc3cnc[n-]3)n1)C2

>  <Energy>  (52) 
94.32917575555722

>  <Genealogy>  (52) 
c1ccc2c(c1)CCN(c1nc([NH2+]CCc3cnc[n-]3)nc(N3CC[NH2+]CC3)n1)C2 (protonated)
c1ccc2c(c1)CCN(c1nc(N3CC[NH2+]CC3)[nH]c(=[NH+]CCc3cnc[n-]3)n1)C2 (tautomer)
c1ccc2c(c1)CCN(c1nc(N3CC[NH2+]CC3)[nH]/c(=[NH+]/CCc3cnc[n-]3)n1)C2 (cis-trans isomerization)
c1ccc2c(c1)CCN(c1nc(N3CC[NH2+]CC3)[nH]/c(=[NH+]/CCc3cnc[n-]3)n1)C2 (3D coordinates assigned)
c1ccc2c(c1)CCN(c1nc(N3CC[NH2+]CC3)[nH]/c(=[NH+]/CCc3cnc[n-]3)n1)C2 (nonaromatic ring conformer: 94.32917575555722 kcal/mol)

>  <smiles>  (52) 
c1ccc2c(c1)CCN(c1nc(NCCc3cnc[nH]3)nc(N3CCNCC3)n1)C2

>  <score_type>  (52) 
oracle

>  <origin>  (52) 
autodockgpu

>  <m_score__min__energy>  (52) 
-7.5700000000000003

>  <m_primary>  (52) 
energy

>  <meeko>  (52) 
{"free_energy": -7.48, "intermolecular_energy": -9.27, "internal_energy": -1.23, "cluster_size": 1, "cluster_id": 2, "rank_in_cluster": 1}

>  <energy>  (52) 
-6.44

>  <cluster_rmsd>  (52) 
0.0

>  <rmsd>  (52) 
272.6

>  <cluster>  (52) 
4

$$$$
IEUOTYZOLCKWKV-RTROOMJONA-P
     RDKit          3D

 58 62  0  0  0  0  0  0  0  0999 V2000
  138.8259   81.9865  220.4986 H   0  0  0  0  0  0  0  0  0  0  0  0
  139.7610   81.8700  221.0660 C   0  0  0  0  0  0  0  0  0  0  0  0
  140.9400   82.3870  220.6600 N   0  0  0  0  0  0  0  0  0  0  0  0
  141.8070   82.0250  221.6210 C   0  0  0  0  0  0  0  0  0  0  0  0
  142.8812   82.2611  221.6368 H   0  0  0  0  0  0  0  0  0  0  0  0
  141.1300   81.3110  222.5810 C   0  0  0  0  0  0  0  0  0  0  0  0
  141.7330   80.6680  223.7910 C   0  0  0  0  0  0  0  0  0  0  0  0
  141.3257   81.1447  224.6948 H   0  0  0  0  0  0  0  0  0  0  0  0
  142.8250   80.7950  223.7537 H   0  0  0  0  0  0  0  0  0  0  0  0
  141.4100   79.1710  223.8220 C   0  0  0  0  0  0  0  0  0  0  0  0
  140.8752   78.9373  224.7544 H   0  0  0  0  0  0  0  0  0  0  0  0
  142.3529   78.6070  223.7679 H   0  0  0  0  0  0  0  0  0  0  0  0
  140.5710   78.7920  222.6790 N   0  0  0  0  0  0  0  0  0  0  0  0
  139.5330   78.8870  222.7670 H   0  0  0  0  0  0  0  0  0  0  0  0
  141.0750   78.3440  221.5610 C   0  0  0  0  0  0  0  0  0  0  0  0
  141.4500   77.0420  221.4480 N   0  0  0  0  0  0  0  0  0  0  0  0
  141.9800   76.5660  220.2930 C   0  0  0  0  0  0  0  0  0  0  0  0
  142.3800   75.1830  220.1930 N   0  0  0  0  0  0  0  0  0  0  0  0
  143.8180   74.8750  220.0630 C   0  0  0  0  0  0  0  0  0  0  0  0
  144.2072   75.4017  219.1792 H   0  0  0  0  0  0  0  0  0  0  0  0
  144.3020   75.2030  220.9947 H   0  0  0  0  0  0  0  0  0  0  0  0
  144.1130   73.4010  219.9080 C   0  0  0  0  0  0  0  0  0  0  0  0
  145.3880   72.9960  219.4820 C   0  0  0  0  0  0  0  0  0  0  0  0
  146.1463   73.7525  219.2316 H   0  0  0  0  0  0  0  0  0  0  0  0
  145.7000   71.6390  219.3740 C   0  0  0  0  0  0  0  0  0  0  0  0
  146.6974   71.3300  219.0281 H   0  0  0  0  0  0  0  0  0  0  0  0
  144.7460   70.6740  219.7050 C   0  0  0  0  0  0  0  0  0  0  0  0
  144.9938   69.6055  219.6221 H   0  0  0  0  0  0  0  0  0  0  0  0
  143.4780   71.0640  220.1410 C   0  0  0  0  0  0  0  0  0  0  0  0
  142.7328   70.3015  220.4117 H   0  0  0  0  0  0  0  0  0  0  0  0
  143.1510   72.4270  220.2350 C   0  0  0  0  0  0  0  0  0  0  0  0
  141.8030   72.8480  220.7370 C   0  0  0  0  0  0  0  0  0  0  0  0
  141.0729   72.0515  220.5308 H   0  0  0  0  0  0  0  0  0  0  0  0
  141.8627   73.0296  221.8203 H   0  0  0  0  0  0  0  0  0  0  0  0
  141.3610   74.1310  220.0390 C   0  0  0  0  0  0  0  0  0  0  0  0
  141.2112   73.9269  218.9685 H   0  0  0  0  0  0  0  0  0  0  0  0
  140.4221   74.4775  220.4956 H   0  0  0  0  0  0  0  0  0  0  0  0
  142.1330   77.4080  219.2400 N   0  0  0  0  0  0  0  0  0  0  0  0
  141.7620   78.7130  219.3260 C   0  0  0  0  0  0  0  0  0  0  0  0
  141.9320   79.5820  218.1840 N   0  0  0  0  0  0  0  0  0  0  0  0
  141.0460   79.4520  217.0210 C   0  0  0  0  0  0  0  0  0  0  0  0
  140.6751   78.4183  216.9593 H   0  0  0  0  0  0  0  0  0  0  0  0
  140.1998   80.1459  217.1324 H   0  0  0  0  0  0  0  0  0  0  0  0
  141.8140   79.7950  215.7340 C   0  0  0  0  0  0  0  0  0  0  0  0
  142.5353   78.9884  215.5361 H   0  0  0  0  0  0  0  0  0  0  0  0
  141.0655   79.8991  214.9347 H   0  0  0  0  0  0  0  0  0  0  0  0
  142.5550   81.0780  215.7980 N   0  0  0  0  0  0  0  0  0  0  0  0
  143.5440   80.9150  215.4940 H   0  0  0  0  0  0  0  0  0  0  0  0
  142.1320   81.7520  215.1180 H   0  0  0  0  0  0  0  0  0  0  0  0
  142.5750   81.7190  217.1240 C   0  0  0  0  0  0  0  0  0  0  0  0
  143.3510   82.4985  217.1320 H   0  0  0  0  0  0  0  0  0  0  0  0
  141.5814   82.1520  217.3120 H   0  0  0  0  0  0  0  0  0  0  0  0
  142.8750   80.7070  218.2350 C   0  0  0  0  0  0  0  0  0  0  0  0
  143.8989   80.3254  218.1084 H   0  0  0  0  0  0  0  0  0  0  0  0
  142.7715   81.2101  219.2077 H   0  0  0  0  0  0  0  0  0  0  0  0
  141.2330   79.1800  220.4940 N   0  0  0  0  0  0  0  0  0  0  0  0
  140.9610   80.1830  220.5850 H   0  0  0  0  0  0  0  0  0  0  0  0
  139.8370   81.1970  222.2330 N   0  0  0  0  0  0  0  0  0  0  0  0
  1  2  1  0
  2  3  2  0
  3  4  1  0
  4  5  1  0
  4  6  2  0
  6  7  1  0
  7  8  1  0
  7  9  1  0
  7 10  1  0
 10 11  1  0
 10 12  1  0
 10 13  1  0
 13 14  1  0
 13 15  2  0
 15 16  1  0
 16 17  2  0
 17 18  1  0
 18 19  1  0
 19 20  1  0
 19 21  1  0
 19 22  1  0
 22 23  2  0
 23 24  1  0
 23 25  1  0
 25 26  1  0
 25 27  2  0
 27 28  1  0
 27 29  1  0
 29 30  1  0
 29 31  2  0
 31 32  1  0
 32 33  1  0
 32 34  1  0
 32 35  1  0
 35 36  1  0
 35 37  1  0
 17 38  1  0
 38 39  2  0
 39 40  1  0
 40 41  1  0
 41 42  1  0
 41 43  1  0
 41 44  1  0
 44 45  1  0
 44 46  1  0
 44 47  1  0
 47 48  1  0
 47 49  1  0
 47 50  1  0
 50 51  1  0
 50 52  1  0
 50 53  1  0
 53 54  1  0
 53 55  1  0
 39 56  1  0
 56 57  1  0
  6 58  1  0
 58  2  1  0
 56 15  1  0
 35 18  1  0
 53 40  1  0
 31 22  1  0
M  CHG  3  13   1  47   1  58  -1
M  END
>  <UniqueID>  (53) 
536

>  <SMILES>  (53) 
c1ccc2c(c1)CCN(c1nc(N3CC[NH2+]CC3)[nH]/c(=[NH+]/CCc3cnc[n-]3)n1)C2

>  <Energy>  (53) 
94.32917575555722

>  <Genealogy>  (53) 
c1ccc2c(c1)CCN(c1nc([NH2+]CCc3cnc[n-]3)nc(N3CC[NH2+]CC3)n1)C2 (protonated)
c1ccc2c(c1)CCN(c1nc(N3CC[NH2+]CC3)[nH]c(=[NH+]CCc3cnc[n-]3)n1)C2 (tautomer)
c1ccc2c(c1)CCN(c1nc(N3CC[NH2+]CC3)[nH]/c(=[NH+]/CCc3cnc[n-]3)n1)C2 (cis-trans isomerization)
c1ccc2c(c1)CCN(c1nc(N3CC[NH2+]CC3)[nH]/c(=[NH+]/CCc3cnc[n-]3)n1)C2 (3D coordinates assigned)
c1ccc2c(c1)CCN(c1nc(N3CC[NH2+]CC3)[nH]/c(=[NH+]/CCc3cnc[n-]3)n1)C2 (nonaromatic ring conformer: 94.32917575555722 kcal/mol)

>  <smiles>  (53) 
c1ccc2c(c1)CCN(c1nc(NCCc3cnc[nH]3)nc(N3CCNCC3)n1)C2

>  <score_type>  (53) 
oracle

>  <origin>  (53) 
autodockgpu

>  <m_score__min__energy>  (53) 
-7.5700000000000003

>  <m_primary>  (53) 
energy

>  <meeko>  (53) 
{"free_energy": -6.44, "intermolecular_energy": -8.23, "internal_energy": -2.72, "cluster_size": 5, "cluster_id": 4, "rank_in_cluster": 1}

>  <energy>  (53) 
-6.43

>  <cluster_rmsd>  (53) 
0.08

>  <rmsd>  (53) 
272.6

>  <cluster>  (53) 
4

$$$$
IEUOTYZOLCKWKV-RTROOMJONA-P
     RDKit          3D

 58 62  0  0  0  0  0  0  0  0999 V2000
  138.8598   82.0326  220.4234 H   0  0  0  0  0  0  0  0  0  0  0  0
  139.7850   81.9450  221.0120 C   0  0  0  0  0  0  0  0  0  0  0  0
  140.9660   82.4650  220.6130 N   0  0  0  0  0  0  0  0  0  0  0  0
  141.8180   82.1420  221.6010 C   0  0  0  0  0  0  0  0  0  0  0  0
  142.8887   82.3923  221.6306 H   0  0  0  0  0  0  0  0  0  0  0  0
  141.1310   81.4470  222.5690 C   0  0  0  0  0  0  0  0  0  0  0  0
  141.7190   80.8480  223.8080 C   0  0  0  0  0  0  0  0  0  0  0  0
  141.2425   81.3006  224.6901 H   0  0  0  0  0  0  0  0  0  0  0  0
  142.8013   81.0443  223.8187 H   0  0  0  0  0  0  0  0  0  0  0  0
  141.4900   79.3330  223.8330 C   0  0  0  0  0  0  0  0  0  0  0  0
  141.0121   79.0567  224.7844 H   0  0  0  0  0  0  0  0  0  0  0  0
  142.4624   78.8290  223.7307 H   0  0  0  0  0  0  0  0  0  0  0  0
  140.6260   78.9150  222.7220 N   0  0  0  0  0  0  0  0  0  0  0  0
  139.5890   78.9970  222.8360 H   0  0  0  0  0  0  0  0  0  0  0  0
  141.1060   78.4490  221.6020 C   0  0  0  0  0  0  0  0  0  0  0  0
  141.4530   77.1380  221.4940 N   0  0  0  0  0  0  0  0  0  0  0  0
  141.9580   76.6430  220.3350 C   0  0  0  0  0  0  0  0  0  0  0  0
  142.3270   75.2510  220.2400 N   0  0  0  0  0  0  0  0  0  0  0  0
  143.7540   74.9120  220.0770 C   0  0  0  0  0  0  0  0  0  0  0  0
  144.1311   75.4211  219.1778 H   0  0  0  0  0  0  0  0  0  0  0  0
  144.2682   75.2397  220.9925 H   0  0  0  0  0  0  0  0  0  0  0  0
  144.0150   73.4310  219.9310 C   0  0  0  0  0  0  0  0  0  0  0  0
  145.2700   72.9950  219.4760 C   0  0  0  0  0  0  0  0  0  0  0  0
  146.0365   73.7328  219.1966 H   0  0  0  0  0  0  0  0  0  0  0  0
  145.5510   71.6310  219.3760 C   0  0  0  0  0  0  0  0  0  0  0  0
  146.5328   71.2979  219.0085 H   0  0  0  0  0  0  0  0  0  0  0  0
  144.5870   70.6890  219.7420 C   0  0  0  0  0  0  0  0  0  0  0  0
  144.8110   69.6148  219.6647 H   0  0  0  0  0  0  0  0  0  0  0  0
  143.3390   71.1100  220.2060 C   0  0  0  0  0  0  0  0  0  0  0  0
  142.5856   70.3658  220.5037 H   0  0  0  0  0  0  0  0  0  0  0  0
  143.0420   72.4800  220.2940 C   0  0  0  0  0  0  0  0  0  0  0  0
  141.7170   72.9340  220.8260 C   0  0  0  0  0  0  0  0  0  0  0  0
  140.9656   72.1507  220.6478 H   0  0  0  0  0  0  0  0  0  0  0  0
  141.8088   73.1258  221.9053 H   0  0  0  0  0  0  0  0  0  0  0  0
  141.2830   74.2190  220.1250 C   0  0  0  0  0  0  0  0  0  0  0  0
  141.1006   74.0064  219.0613 H   0  0  0  0  0  0  0  0  0  0  0  0
  140.3640   74.5900  220.6023 H   0  0  0  0  0  0  0  0  0  0  0  0
  142.1150   77.4740  219.2740 N   0  0  0  0  0  0  0  0  0  0  0  0
  141.7730   78.7870  219.3560 C   0  0  0  0  0  0  0  0  0  0  0  0
  141.9470   79.6440  218.2050 N   0  0  0  0  0  0  0  0  0  0  0  0
  141.0210   79.5510  217.0700 C   0  0  0  0  0  0  0  0  0  0  0  0
  140.6021   78.5349  217.0241 H   0  0  0  0  0  0  0  0  0  0  0  0
  140.2111   80.2831  217.2043 H   0  0  0  0  0  0  0  0  0  0  0  0
  141.7630   79.8550  215.7590 C   0  0  0  0  0  0  0  0  0  0  0  0
  142.4399   79.0156  215.5419 H   0  0  0  0  0  0  0  0  0  0  0  0
  140.9955   79.9915  214.9830 H   0  0  0  0  0  0  0  0  0  0  0  0
  142.5640   81.1030  215.7950 N   0  0  0  0  0  0  0  0  0  0  0  0
  143.5340   80.8940  215.4600 H   0  0  0  0  0  0  0  0  0  0  0  0
  142.1510   81.7940  215.1250 H   0  0  0  0  0  0  0  0  0  0  0  0
  142.6540   81.7460  217.1170 C   0  0  0  0  0  0  0  0  0  0  0  0
  143.4644   82.4896  217.0979 H   0  0  0  0  0  0  0  0  0  0  0  0
  141.6873   82.2241  217.3337 H   0  0  0  0  0  0  0  0  0  0  0  0
  142.9420   80.7250  218.2220 C   0  0  0  0  0  0  0  0  0  0  0  0
  143.9429   80.2965  218.0653 H   0  0  0  0  0  0  0  0  0  0  0  0
  142.8923   81.2350  219.1953 H   0  0  0  0  0  0  0  0  0  0  0  0
  141.2690   79.2730  220.5270 N   0  0  0  0  0  0  0  0  0  0  0  0
  141.0190   80.2830  220.6130 H   0  0  0  0  0  0  0  0  0  0  0  0
  139.8460   81.3080  222.2000 N   0  0  0  0  0  0  0  0  0  0  0  0
  1  2  1  0
  2  3  2  0
  3  4  1  0
  4  5  1  0
  4  6  2  0
  6  7  1  0
  7  8  1  0
  7  9  1  0
  7 10  1  0
 10 11  1  0
 10 12  1  0
 10 13  1  0
 13 14  1  0
 13 15  2  0
 15 16  1  0
 16 17  2  0
 17 18  1  0
 18 19  1  0
 19 20  1  0
 19 21  1  0
 19 22  1  0
 22 23  2  0
 23 24  1  0
 23 25  1  0
 25 26  1  0
 25 27  2  0
 27 28  1  0
 27 29  1  0
 29 30  1  0
 29 31  2  0
 31 32  1  0
 32 33  1  0
 32 34  1  0
 32 35  1  0
 35 36  1  0
 35 37  1  0
 17 38  1  0
 38 39  2  0
 39 40  1  0
 40 41  1  0
 41 42  1  0
 41 43  1  0
 41 44  1  0
 44 45  1  0
 44 46  1  0
 44 47  1  0
 47 48  1  0
 47 49  1  0
 47 50  1  0
 50 51  1  0
 50 52  1  0
 50 53  1  0
 53 54  1  0
 53 55  1  0
 39 56  1  0
 56 57  1  0
  6 58  1  0
 58  2  1  0
 56 15  1  0
 35 18  1  0
 53 40  1  0
 31 22  1  0
M  CHG  3  13   1  47   1  58  -1
M  END
>  <UniqueID>  (54) 
536

>  <SMILES>  (54) 
c1ccc2c(c1)CCN(c1nc(N3CC[NH2+]CC3)[nH]/c(=[NH+]/CCc3cnc[n-]3)n1)C2

>  <Energy>  (54) 
94.32917575555722

>  <Genealogy>  (54) 
c1ccc2c(c1)CCN(c1nc([NH2+]CCc3cnc[n-]3)nc(N3CC[NH2+]CC3)n1)C2 (protonated)
c1ccc2c(c1)CCN(c1nc(N3CC[NH2+]CC3)[nH]c(=[NH+]CCc3cnc[n-]3)n1)C2 (tautomer)
c1ccc2c(c1)CCN(c1nc(N3CC[NH2+]CC3)[nH]/c(=[NH+]/CCc3cnc[n-]3)n1)C2 (cis-trans isomerization)
c1ccc2c(c1)CCN(c1nc(N3CC[NH2+]CC3)[nH]/c(=[NH+]/CCc3cnc[n-]3)n1)C2 (3D coordinates assigned)
c1ccc2c(c1)CCN(c1nc(N3CC[NH2+]CC3)[nH]/c(=[NH+]/CCc3cnc[n-]3)n1)C2 (nonaromatic ring conformer: 94.32917575555722 kcal/mol)

>  <smiles>  (54) 
c1ccc2c(c1)CCN(c1nc(NCCc3cnc[nH]3)nc(N3CCNCC3)n1)C2

>  <score_type>  (54) 
oracle

>  <origin>  (54) 
autodockgpu

>  <m_score__min__energy>  (54) 
-7.5700000000000003

>  <m_primary>  (54) 
energy

>  <meeko>  (54) 
{"free_energy": -6.42, "intermolecular_energy": -8.21, "internal_energy": -2.75, "cluster_size": 5, "cluster_id": 4, "rank_in_cluster": 3}

>  <energy>  (54) 
-6.42

>  <cluster_rmsd>  (54) 
0.12

>  <rmsd>  (54) 
272.63

>  <cluster>  (54) 
4

$$$$
IEUOTYZOLCKWKV-RTROOMJONA-P
     RDKit          3D

 58 62  0  0  0  0  0  0  0  0999 V2000
  142.7533   74.9000  221.7161 H   0  0  0  0  0  0  0  0  0  0  0  0
  141.7950   74.7090  221.2110 C   0  0  0  0  0  0  0  0  0  0  0  0
  141.6370   74.7900  219.8720 N   0  0  0  0  0  0  0  0  0  0  0  0
  140.3430   74.4850  219.6740 C   0  0  0  0  0  0  0  0  0  0  0  0
  139.8344   74.4520  218.6992 H   0  0  0  0  0  0  0  0  0  0  0  0
  139.7600   74.2210  220.8910 C   0  0  0  0  0  0  0  0  0  0  0  0
  138.3160   73.9040  221.1260 C   0  0  0  0  0  0  0  0  0  0  0  0
  138.2367   72.9267  221.6246 H   0  0  0  0  0  0  0  0  0  0  0  0
  137.7956   73.8796  220.1572 H   0  0  0  0  0  0  0  0  0  0  0  0
  137.6670   74.9740  222.0090 C   0  0  0  0  0  0  0  0  0  0  0  0
  137.0212   74.4841  222.7526 H   0  0  0  0  0  0  0  0  0  0  0  0
  137.0758   75.6459  221.3695 H   0  0  0  0  0  0  0  0  0  0  0  0
  138.6860   75.7670  222.7060 N   0  0  0  0  0  0  0  0  0  0  0  0
  139.1880   75.3360  223.5170 H   0  0  0  0  0  0  0  0  0  0  0  0
  138.9880   76.9860  222.3500 C   0  0  0  0  0  0  0  0  0  0  0  0
  138.3710   78.0470  222.9350 N   0  0  0  0  0  0  0  0  0  0  0  0
  138.6720   79.3190  222.5690 C   0  0  0  0  0  0  0  0  0  0  0  0
  138.0030   80.4340  223.1960 N   0  0  0  0  0  0  0  0  0  0  0  0
  138.0310   80.5310  224.6690 C   0  0  0  0  0  0  0  0  0  0  0  0
  137.6054   79.6063  225.0860 H   0  0  0  0  0  0  0  0  0  0  0  0
  139.0811   80.6791  224.9613 H   0  0  0  0  0  0  0  0  0  0  0  0
  137.2510   81.7040  225.2160 C   0  0  0  0  0  0  0  0  0  0  0  0
  136.9460   81.7480  226.5860 C   0  0  0  0  0  0  0  0  0  0  0  0
  137.2444   80.9152  227.2398 H   0  0  0  0  0  0  0  0  0  0  0  0
  136.2660   82.8430  227.1230 C   0  0  0  0  0  0  0  0  0  0  0  0
  136.0213   82.8654  228.1952 H   0  0  0  0  0  0  0  0  0  0  0  0
  135.8960   83.9100  226.3010 C   0  0  0  0  0  0  0  0  0  0  0  0
  135.3626   84.7727  226.7267 H   0  0  0  0  0  0  0  0  0  0  0  0
  136.2030   83.8820  224.9390 C   0  0  0  0  0  0  0  0  0  0  0  0
  135.9199   84.7284  224.2960 H   0  0  0  0  0  0  0  0  0  0  0  0
  136.8720   82.7770  224.3870 C   0  0  0  0  0  0  0  0  0  0  0  0
  137.2350   82.7620  222.9330 C   0  0  0  0  0  0  0  0  0  0  0  0
  136.5319   83.3984  222.3756 H   0  0  0  0  0  0  0  0  0  0  0  0
  138.2598   83.1434  222.8132 H   0  0  0  0  0  0  0  0  0  0  0  0
  137.1650   81.3370  222.3910 C   0  0  0  0  0  0  0  0  0  0  0  0
  136.1223   80.9884  222.4248 H   0  0  0  0  0  0  0  0  0  0  0  0
  137.5344   81.3335  221.3549 H   0  0  0  0  0  0  0  0  0  0  0  0
  139.6040   79.5260  221.6040 N   0  0  0  0  0  0  0  0  0  0  0  0
  140.2360   78.4830  221.0060 C   0  0  0  0  0  0  0  0  0  0  0  0
  141.2290   78.7370  219.9870 N   0  0  0  0  0  0  0  0  0  0  0  0
  141.9810   79.9970  219.9880 C   0  0  0  0  0  0  0  0  0  0  0  0
  141.3782   80.7804  220.4707 H   0  0  0  0  0  0  0  0  0  0  0  0
  142.9213   79.8554  220.5409 H   0  0  0  0  0  0  0  0  0  0  0  0
  142.3030   80.4190  218.5460 C   0  0  0  0  0  0  0  0  0  0  0  0
  141.3678   80.7359  218.0614 H   0  0  0  0  0  0  0  0  0  0  0  0
  143.0432   81.2302  218.6096 H   0  0  0  0  0  0  0  0  0  0  0  0
  142.9130   79.3450  217.7250 N   0  0  0  0  0  0  0  0  0  0  0  0
  142.3840   79.2640  216.8240 H   0  0  0  0  0  0  0  0  0  0  0  0
  143.8940   79.6140  217.4820 H   0  0  0  0  0  0  0  0  0  0  0  0
  142.9480   78.0180  218.3650 C   0  0  0  0  0  0  0  0  0  0  0  0
  143.1624   77.2579  217.5993 H   0  0  0  0  0  0  0  0  0  0  0  0
  143.7310   78.0292  219.1376 H   0  0  0  0  0  0  0  0  0  0  0  0
  141.6150   77.6820  219.0390 C   0  0  0  0  0  0  0  0  0  0  0  0
  140.8355   77.5863  218.2688 H   0  0  0  0  0  0  0  0  0  0  0  0
  141.7269   76.7365  219.5900 H   0  0  0  0  0  0  0  0  0  0  0  0
  139.9230   77.2080  221.3810 N   0  0  0  0  0  0  0  0  0  0  0  0
  140.3850   76.3950  220.9190 H   0  0  0  0  0  0  0  0  0  0  0  0
  140.6680   74.3720  221.8710 N   0  0  0  0  0  0  0  0  0  0  0  0
  1  2  1  0
  2  3  2  0
  3  4  1  0
  4  5  1  0
  4  6  2  0
  6  7  1  0
  7  8  1  0
  7  9  1  0
  7 10  1  0
 10 11  1  0
 10 12  1  0
 10 13  1  0
 13 14  1  0
 13 15  2  0
 15 16  1  0
 16 17  2  0
 17 18  1  0
 18 19  1  0
 19 20  1  0
 19 21  1  0
 19 22  1  0
 22 23  2  0
 23 24  1  0
 23 25  1  0
 25 26  1  0
 25 27  2  0
 27 28  1  0
 27 29  1  0
 29 30  1  0
 29 31  2  0
 31 32  1  0
 32 33  1  0
 32 34  1  0
 32 35  1  0
 35 36  1  0
 35 37  1  0
 17 38  1  0
 38 39  2  0
 39 40  1  0
 40 41  1  0
 41 42  1  0
 41 43  1  0
 41 44  1  0
 44 45  1  0
 44 46  1  0
 44 47  1  0
 47 48  1  0
 47 49  1  0
 47 50  1  0
 50 51  1  0
 50 52  1  0
 50 53  1  0
 53 54  1  0
 53 55  1  0
 39 56  1  0
 56 57  1  0
  6 58  1  0
 58  2  1  0
 56 15  1  0
 35 18  1  0
 53 40  1  0
 31 22  1  0
M  CHG  3  13   1  47   1  58  -1
M  END
>  <UniqueID>  (55) 
536

>  <SMILES>  (55) 
c1ccc2c(c1)CCN(c1nc(N3CC[NH2+]CC3)[nH]/c(=[NH+]/CCc3cnc[n-]3)n1)C2

>  <Energy>  (55) 
94.32917575555722

>  <Genealogy>  (55) 
c1ccc2c(c1)CCN(c1nc([NH2+]CCc3cnc[n-]3)nc(N3CC[NH2+]CC3)n1)C2 (protonated)
c1ccc2c(c1)CCN(c1nc(N3CC[NH2+]CC3)[nH]c(=[NH+]CCc3cnc[n-]3)n1)C2 (tautomer)
c1ccc2c(c1)CCN(c1nc(N3CC[NH2+]CC3)[nH]/c(=[NH+]/CCc3cnc[n-]3)n1)C2 (cis-trans isomerization)
c1ccc2c(c1)CCN(c1nc(N3CC[NH2+]CC3)[nH]/c(=[NH+]/CCc3cnc[n-]3)n1)C2 (3D coordinates assigned)
c1ccc2c(c1)CCN(c1nc(N3CC[NH2+]CC3)[nH]/c(=[NH+]/CCc3cnc[n-]3)n1)C2 (nonaromatic ring conformer: 94.32917575555722 kcal/mol)

>  <smiles>  (55) 
c1ccc2c(c1)CCN(c1nc(NCCc3cnc[nH]3)nc(N3CCNCC3)n1)C2

>  <score_type>  (55) 
oracle

>  <origin>  (55) 
autodockgpu

>  <m_score__min__energy>  (55) 
-7.5700000000000003

>  <m_primary>  (55) 
energy

>  <meeko>  (55) 
{"free_energy": -6.14, "intermolecular_energy": -7.93, "internal_energy": -2.62, "cluster_size": 2, "cluster_id": 5, "rank_in_cluster": 1}

>  <energy>  (55) 
-6.39

>  <cluster_rmsd>  (55) 
0.1

>  <rmsd>  (55) 
272.62

>  <cluster>  (55) 
4

$$$$
IEUOTYZOLCKWKV-RTROOMJONA-P
     RDKit          3D

 58 62  0  0  0  0  0  0  0  0999 V2000
  140.7251   77.1261  217.9531 H   0  0  0  0  0  0  0  0  0  0  0  0
  140.8590   77.3880  219.0130 C   0  0  0  0  0  0  0  0  0  0  0  0
  142.0660   77.6290  219.5660 N   0  0  0  0  0  0  0  0  0  0  0  0
  141.7880   77.9090  220.8520 C   0  0  0  0  0  0  0  0  0  0  0  0
  142.5276   78.1537  221.6286 H   0  0  0  0  0  0  0  0  0  0  0  0
  140.4280   77.8390  221.0360 C   0  0  0  0  0  0  0  0  0  0  0  0
  139.7040   78.0180  222.3340 C   0  0  0  0  0  0  0  0  0  0  0  0
  139.0451   78.8959  222.2627 H   0  0  0  0  0  0  0  0  0  0  0  0
  140.4428   78.1620  223.1362 H   0  0  0  0  0  0  0  0  0  0  0  0
  138.8610   76.7800  222.6540 C   0  0  0  0  0  0  0  0  0  0  0  0
  137.8130   77.0842  222.7929 H   0  0  0  0  0  0  0  0  0  0  0  0
  139.2520   76.3168  223.5719 H   0  0  0  0  0  0  0  0  0  0  0  0
  138.9360   75.7980  221.5650 N   0  0  0  0  0  0  0  0  0  0  0  0
  138.2850   75.9010  220.7520 H   0  0  0  0  0  0  0  0  0  0  0  0
  139.7840   74.8060  221.5770 C   0  0  0  0  0  0  0  0  0  0  0  0
  139.5510   73.7090  222.3460 N   0  0  0  0  0  0  0  0  0  0  0  0
  140.4290   72.6740  222.3700 C   0  0  0  0  0  0  0  0  0  0  0  0
  140.1690   71.5200  223.1970 N   0  0  0  0  0  0  0  0  0  0  0  0
  140.6730   71.5230  224.5840 C   0  0  0  0  0  0  0  0  0  0  0  0
  141.7616   71.6786  224.5572 H   0  0  0  0  0  0  0  0  0  0  0  0
  140.1456   72.3292  225.1150 H   0  0  0  0  0  0  0  0  0  0  0  0
  140.3930   70.2430  225.3370 C   0  0  0  0  0  0  0  0  0  0  0  0
  141.0640   69.9930  226.5440 C   0  0  0  0  0  0  0  0  0  0  0  0
  141.8114   70.7110  226.9125 H   0  0  0  0  0  0  0  0  0  0  0  0
  140.7890   68.8390  227.2800 C   0  0  0  0  0  0  0  0  0  0  0  0
  141.3275   68.6453  228.2194 H   0  0  0  0  0  0  0  0  0  0  0  0
  139.8310   67.9300  226.8250 C   0  0  0  0  0  0  0  0  0  0  0  0
  139.6143   67.0223  227.4073 H   0  0  0  0  0  0  0  0  0  0  0  0
  139.1480   68.1730  225.6310 C   0  0  0  0  0  0  0  0  0  0  0  0
  138.3859   67.4612  225.2808 H   0  0  0  0  0  0  0  0  0  0  0  0
  139.4310   69.3230  224.8760 C   0  0  0  0  0  0  0  0  0  0  0  0
  138.6740   69.6040  223.6140 C   0  0  0  0  0  0  0  0  0  0  0  0
  138.3186   68.6560  223.1840 H   0  0  0  0  0  0  0  0  0  0  0  0
  137.8173   70.2543  223.8448 H   0  0  0  0  0  0  0  0  0  0  0  0
  139.5790   70.3080  222.6060 C   0  0  0  0  0  0  0  0  0  0  0  0
  140.3855   69.6234  222.3046 H   0  0  0  0  0  0  0  0  0  0  0  0
  138.9779   70.5968  221.7312 H   0  0  0  0  0  0  0  0  0  0  0  0
  141.5520   72.7430  221.6110 N   0  0  0  0  0  0  0  0  0  0  0  0
  141.8070   73.8260  220.8320 C   0  0  0  0  0  0  0  0  0  0  0  0
  143.0090   73.8650  220.0310 N   0  0  0  0  0  0  0  0  0  0  0  0
  143.2300   74.9670  219.0870 C   0  0  0  0  0  0  0  0  0  0  0  0
  142.2589   75.3679  218.7611 H   0  0  0  0  0  0  0  0  0  0  0  0
  143.8118   75.7573  219.5840 H   0  0  0  0  0  0  0  0  0  0  0  0
  144.0090   74.4610  217.8620 C   0  0  0  0  0  0  0  0  0  0  0  0
  143.3437   73.8132  217.2723 H   0  0  0  0  0  0  0  0  0  0  0  0
  144.3377   75.3503  217.3042 H   0  0  0  0  0  0  0  0  0  0  0  0
  145.2300   73.6910  218.2000 N   0  0  0  0  0  0  0  0  0  0  0  0
  145.2180   72.7860  217.6710 H   0  0  0  0  0  0  0  0  0  0  0  0
  146.0720   74.2230  217.8770 H   0  0  0  0  0  0  0  0  0  0  0  0
  145.4010   73.3910  219.6320 C   0  0  0  0  0  0  0  0  0  0  0  0
  146.1666   72.6091  219.7441 H   0  0  0  0  0  0  0  0  0  0  0  0
  145.7066   74.3156  220.1435 H   0  0  0  0  0  0  0  0  0  0  0  0
  144.0940   72.9020  220.2650 C   0  0  0  0  0  0  0  0  0  0  0  0
  143.8187   71.9337  219.8216 H   0  0  0  0  0  0  0  0  0  0  0  0
  144.2449   72.7973  221.3496 H   0  0  0  0  0  0  0  0  0  0  0  0
  140.9170   74.8610  220.8190 N   0  0  0  0  0  0  0  0  0  0  0  0
  141.1060   75.7100  220.2410 H   0  0  0  0  0  0  0  0  0  0  0  0
  139.8320   77.4980  219.8800 N   0  0  0  0  0  0  0  0  0  0  0  0
  1  2  1  0
  2  3  2  0
  3  4  1  0
  4  5  1  0
  4  6  2  0
  6  7  1  0
  7  8  1  0
  7  9  1  0
  7 10  1  0
 10 11  1  0
 10 12  1  0
 10 13  1  0
 13 14  1  0
 13 15  2  0
 15 16  1  0
 16 17  2  0
 17 18  1  0
 18 19  1  0
 19 20  1  0
 19 21  1  0
 19 22  1  0
 22 23  2  0
 23 24  1  0
 23 25  1  0
 25 26  1  0
 25 27  2  0
 27 28  1  0
 27 29  1  0
 29 30  1  0
 29 31  2  0
 31 32  1  0
 32 33  1  0
 32 34  1  0
 32 35  1  0
 35 36  1  0
 35 37  1  0
 17 38  1  0
 38 39  2  0
 39 40  1  0
 40 41  1  0
 41 42  1  0
 41 43  1  0
 41 44  1  0
 44 45  1  0
 44 46  1  0
 44 47  1  0
 47 48  1  0
 47 49  1  0
 47 50  1  0
 50 51  1  0
 50 52  1  0
 50 53  1  0
 53 54  1  0
 53 55  1  0
 39 56  1  0
 56 57  1  0
  6 58  1  0
 58  2  1  0
 56 15  1  0
 35 18  1  0
 53 40  1  0
 31 22  1  0
M  CHG  3  13   1  47   1  58  -1
M  END
>  <UniqueID>  (56) 
536

>  <SMILES>  (56) 
c1ccc2c(c1)CCN(c1nc(N3CC[NH2+]CC3)[nH]/c(=[NH+]/CCc3cnc[n-]3)n1)C2

>  <Energy>  (56) 
94.32917575555722

>  <Genealogy>  (56) 
c1ccc2c(c1)CCN(c1nc([NH2+]CCc3cnc[n-]3)nc(N3CC[NH2+]CC3)n1)C2 (protonated)
c1ccc2c(c1)CCN(c1nc(N3CC[NH2+]CC3)[nH]c(=[NH+]CCc3cnc[n-]3)n1)C2 (tautomer)
c1ccc2c(c1)CCN(c1nc(N3CC[NH2+]CC3)[nH]/c(=[NH+]/CCc3cnc[n-]3)n1)C2 (cis-trans isomerization)
c1ccc2c(c1)CCN(c1nc(N3CC[NH2+]CC3)[nH]/c(=[NH+]/CCc3cnc[n-]3)n1)C2 (3D coordinates assigned)
c1ccc2c(c1)CCN(c1nc(N3CC[NH2+]CC3)[nH]/c(=[NH+]/CCc3cnc[n-]3)n1)C2 (nonaromatic ring conformer: 94.32917575555722 kcal/mol)

>  <smiles>  (56) 
c1ccc2c(c1)CCN(c1nc(NCCc3cnc[nH]3)nc(N3CCNCC3)n1)C2

>  <score_type>  (56) 
oracle

>  <origin>  (56) 
autodockgpu

>  <m_score__min__energy>  (56) 
-7.5700000000000003

>  <m_primary>  (56) 
energy

>  <meeko>  (56) 
{"free_energy": -6.32, "intermolecular_energy": -8.11, "internal_energy": -2.64, "cluster_size": 6, "cluster_id": 1, "rank_in_cluster": 4}

>  <energy>  (56) 
-6.35

>  <cluster_rmsd>  (56) 
0.18

>  <rmsd>  (56) 
272.63

>  <cluster>  (56) 
4

$$$$
IEUOTYZOLCKWKV-RTROOMJONA-P
     RDKit          3D

 58 62  0  0  0  0  0  0  0  0999 V2000
  140.7878   81.2748  219.3829 H   0  0  0  0  0  0  0  0  0  0  0  0
  140.5980   82.2350  219.8850 C   0  0  0  0  0  0  0  0  0  0  0  0
  141.3600   82.7020  220.8970 N   0  0  0  0  0  0  0  0  0  0  0  0
  140.7990   83.8820  221.2140 C   0  0  0  0  0  0  0  0  0  0  0  0
  141.1429   84.5624  222.0070 H   0  0  0  0  0  0  0  0  0  0  0  0
  139.7250   84.0980  220.3840 C   0  0  0  0  0  0  0  0  0  0  0  0
  138.7860   85.2620  220.4440 C   0  0  0  0  0  0  0  0  0  0  0  0
  138.2205   85.3194  219.5022 H   0  0  0  0  0  0  0  0  0  0  0  0
  139.3703   86.1819  220.5934 H   0  0  0  0  0  0  0  0  0  0  0  0
  137.8060   85.1040  221.6110 C   0  0  0  0  0  0  0  0  0  0  0  0
  137.0113   85.8589  221.5185 H   0  0  0  0  0  0  0  0  0  0  0  0
  138.3571   85.2394  222.5533 H   0  0  0  0  0  0  0  0  0  0  0  0
  137.2010   83.7670  221.6100 N   0  0  0  0  0  0  0  0  0  0  0  0
  136.4950   83.5380  220.8720 H   0  0  0  0  0  0  0  0  0  0  0  0
  137.5120   82.8590  222.4940 C   0  0  0  0  0  0  0  0  0  0  0  0
  136.6980   82.6260  223.5580 N   0  0  0  0  0  0  0  0  0  0  0  0
  137.0140   81.6880  224.4870 C   0  0  0  0  0  0  0  0  0  0  0  0
  136.1430   81.4580  225.6140 N   0  0  0  0  0  0  0  0  0  0  0  0
  136.5920   81.8960  226.9500 C   0  0  0  0  0  0  0  0  0  0  0  0
  137.5561   81.4131  227.1676 H   0  0  0  0  0  0  0  0  0  0  0  0
  136.6684   82.9929  226.9190 H   0  0  0  0  0  0  0  0  0  0  0  0
  135.6260   81.5530  228.0600 C   0  0  0  0  0  0  0  0  0  0  0  0
  136.0520   81.6400  229.3940 C   0  0  0  0  0  0  0  0  0  0  0  0
  137.0915   81.9212  229.6183 H   0  0  0  0  0  0  0  0  0  0  0  0
  135.1650   81.3720  230.4390 C   0  0  0  0  0  0  0  0  0  0  0  0
  135.5102   81.4311  231.4817 H   0  0  0  0  0  0  0  0  0  0  0  0
  133.8400   81.0290  230.1610 C   0  0  0  0  0  0  0  0  0  0  0  0
  133.1418   80.8202  230.9850 H   0  0  0  0  0  0  0  0  0  0  0  0
  133.4010   80.9510  228.8380 C   0  0  0  0  0  0  0  0  0  0  0  0
  132.3539   80.6919  228.6226 H   0  0  0  0  0  0  0  0  0  0  0  0
  134.2910   81.2020  227.7810 C   0  0  0  0  0  0  0  0  0  0  0  0
  133.8130   81.1540  226.3620 C   0  0  0  0  0  0  0  0  0  0  0  0
  132.9480   80.4781  226.2923 H   0  0  0  0  0  0  0  0  0  0  0  0
  133.5234   82.1669  226.0454 H   0  0  0  0  0  0  0  0  0  0  0  0
  134.9260   80.6450  225.4500 C   0  0  0  0  0  0  0  0  0  0  0  0
  135.1527   79.5993  225.7052 H   0  0  0  0  0  0  0  0  0  0  0  0
  134.5893   80.7173  224.4053 H   0  0  0  0  0  0  0  0  0  0  0  0
  138.1610   80.9750  224.3430 N   0  0  0  0  0  0  0  0  0  0  0  0
  138.9890   81.1870  223.2860 C   0  0  0  0  0  0  0  0  0  0  0  0
  140.1990   80.4070  223.1590 N   0  0  0  0  0  0  0  0  0  0  0  0
  141.4370   80.8550  223.8070 C   0  0  0  0  0  0  0  0  0  0  0  0
  141.4178   81.9499  223.9114 H   0  0  0  0  0  0  0  0  0  0  0  0
  141.5148   80.3867  224.7993 H   0  0  0  0  0  0  0  0  0  0  0  0
  142.6520   80.4460  222.9600 C   0  0  0  0  0  0  0  0  0  0  0  0
  142.6616   81.0621  222.0488 H   0  0  0  0  0  0  0  0  0  0  0  0
  143.5431   80.6016  223.5859 H   0  0  0  0  0  0  0  0  0  0  0  0
  142.6540   79.0190  222.5580 N   0  0  0  0  0  0  0  0  0  0  0  0
  142.8150   78.9570  221.5240 H   0  0  0  0  0  0  0  0  0  0  0  0
  143.4580   78.5330  223.0220 H   0  0  0  0  0  0  0  0  0  0  0  0
  141.4240   78.2780  222.8850 C   0  0  0  0  0  0  0  0  0  0  0  0
  141.4165   77.3323  222.3233 H   0  0  0  0  0  0  0  0  0  0  0  0
  141.4122   78.0899  223.9687 H   0  0  0  0  0  0  0  0  0  0  0  0
  140.1710   79.0820  222.5230 C   0  0  0  0  0  0  0  0  0  0  0  0
  140.1258   79.2070  221.4311 H   0  0  0  0  0  0  0  0  0  0  0  0
  139.2861   78.5368  222.8830 H   0  0  0  0  0  0  0  0  0  0  0  0
  138.6610   82.1350  222.3610 N   0  0  0  0  0  0  0  0  0  0  0  0
  139.2950   82.3240  221.5540 H   0  0  0  0  0  0  0  0  0  0  0  0
  139.5820   83.0560  219.5470 N   0  0  0  0  0  0  0  0  0  0  0  0
  1  2  1  0
  2  3  2  0
  3  4  1  0
  4  5  1  0
  4  6  2  0
  6  7  1  0
  7  8  1  0
  7  9  1  0
  7 10  1  0
 10 11  1  0
 10 12  1  0
 10 13  1  0
 13 14  1  0
 13 15  2  0
 15 16  1  0
 16 17  2  0
 17 18  1  0
 18 19  1  0
 19 20  1  0
 19 21  1  0
 19 22  1  0
 22 23  2  0
 23 24  1  0
 23 25  1  0
 25 26  1  0
 25 27  2  0
 27 28  1  0
 27 29  1  0
 29 30  1  0
 29 31  2  0
 31 32  1  0
 32 33  1  0
 32 34  1  0
 32 35  1  0
 35 36  1  0
 35 37  1  0
 17 38  1  0
 38 39  2  0
 39 40  1  0
 40 41  1  0
 41 42  1  0
 41 43  1  0
 41 44  1  0
 44 45  1  0
 44 46  1  0
 44 47  1  0
 47 48  1  0
 47 49  1  0
 47 50  1  0
 50 51  1  0
 50 52  1  0
 50 53  1  0
 53 54  1  0
 53 55  1  0
 39 56  1  0
 56 57  1  0
  6 58  1  0
 58  2  1  0
 56 15  1  0
 35 18  1  0
 53 40  1  0
 31 22  1  0
M  CHG  3  13   1  47   1  58  -1
M  END
>  <UniqueID>  (57) 
536

>  <SMILES>  (57) 
c1ccc2c(c1)CCN(c1nc(N3CC[NH2+]CC3)[nH]/c(=[NH+]/CCc3cnc[n-]3)n1)C2

>  <Energy>  (57) 
94.32917575555722

>  <Genealogy>  (57) 
c1ccc2c(c1)CCN(c1nc([NH2+]CCc3cnc[n-]3)nc(N3CC[NH2+]CC3)n1)C2 (protonated)
c1ccc2c(c1)CCN(c1nc(N3CC[NH2+]CC3)[nH]c(=[NH+]CCc3cnc[n-]3)n1)C2 (tautomer)
c1ccc2c(c1)CCN(c1nc(N3CC[NH2+]CC3)[nH]/c(=[NH+]/CCc3cnc[n-]3)n1)C2 (cis-trans isomerization)
c1ccc2c(c1)CCN(c1nc(N3CC[NH2+]CC3)[nH]/c(=[NH+]/CCc3cnc[n-]3)n1)C2 (3D coordinates assigned)
c1ccc2c(c1)CCN(c1nc(N3CC[NH2+]CC3)[nH]/c(=[NH+]/CCc3cnc[n-]3)n1)C2 (nonaromatic ring conformer: 94.32917575555722 kcal/mol)

>  <smiles>  (57) 
c1ccc2c(c1)CCN(c1nc(NCCc3cnc[nH]3)nc(N3CCNCC3)n1)C2

>  <score_type>  (57) 
oracle

>  <origin>  (57) 
autodockgpu

>  <m_score__min__energy>  (57) 
-7.5700000000000003

>  <m_primary>  (57) 
energy

>  <meeko>  (57) 
{"free_energy": -5.88, "intermolecular_energy": -7.67, "internal_energy": -2.69, "cluster_size": 1, "cluster_id": 6, "rank_in_cluster": 1}

>  <energy>  (57) 
-6.14

>  <cluster_rmsd>  (57) 
0.0

>  <rmsd>  (57) 
273.07

>  <cluster>  (57) 
5

$$$$
IEUOTYZOLCKWKV-RTROOMJONA-P
     RDKit          3D

 58 62  0  0  0  0  0  0  0  0999 V2000
  147.3380   74.3939  216.7978 H   0  0  0  0  0  0  0  0  0  0  0  0
  146.4940   73.7090  216.9670 C   0  0  0  0  0  0  0  0  0  0  0  0
  145.5980   73.3900  216.0080 N   0  0  0  0  0  0  0  0  0  0  0  0
  144.7520   72.5420  216.6180 C   0  0  0  0  0  0  0  0  0  0  0  0
  143.8753   72.0675  216.1530 H   0  0  0  0  0  0  0  0  0  0  0  0
  145.1620   72.3650  217.9180 C   0  0  0  0  0  0  0  0  0  0  0  0
  144.4630   71.5490  218.9590 C   0  0  0  0  0  0  0  0  0  0  0  0
  145.1197   70.7245  219.2736 H   0  0  0  0  0  0  0  0  0  0  0  0
  143.5312   71.1503  218.5314 H   0  0  0  0  0  0  0  0  0  0  0  0
  144.1190   72.4120  220.1770 C   0  0  0  0  0  0  0  0  0  0  0  0
  144.5339   71.9413  221.0805 H   0  0  0  0  0  0  0  0  0  0  0  0
  143.0245   72.4918  220.2532 H   0  0  0  0  0  0  0  0  0  0  0  0
  144.6790   73.7620  220.0380 N   0  0  0  0  0  0  0  0  0  0  0  0
  145.6840   73.9150  220.2840 H   0  0  0  0  0  0  0  0  0  0  0  0
  143.9670   74.7730  219.6180 C   0  0  0  0  0  0  0  0  0  0  0  0
  143.1090   75.4070  220.4600 N   0  0  0  0  0  0  0  0  0  0  0  0
  142.3600   76.4560  220.0340 C   0  0  0  0  0  0  0  0  0  0  0  0
  141.4480   77.1140  220.9390 N   0  0  0  0  0  0  0  0  0  0  0  0
  141.6890   78.5320  221.2700 C   0  0  0  0  0  0  0  0  0  0  0  0
  142.7022   78.6234  221.6884 H   0  0  0  0  0  0  0  0  0  0  0  0
  141.5656   79.1045  220.3389 H   0  0  0  0  0  0  0  0  0  0  0  0
  140.7070   79.0990  222.2700 C   0  0  0  0  0  0  0  0  0  0  0  0
  140.9910   80.3240  222.8930 C   0  0  0  0  0  0  0  0  0  0  0  0
  141.9377   80.8408  222.6771 H   0  0  0  0  0  0  0  0  0  0  0  0
  140.0780   80.8910  223.7860 C   0  0  0  0  0  0  0  0  0  0  0  0
  140.3119   81.8467  224.2778 H   0  0  0  0  0  0  0  0  0  0  0  0
  138.8690   80.2460  224.0550 C   0  0  0  0  0  0  0  0  0  0  0  0
  138.1512   80.6942  224.7577 H   0  0  0  0  0  0  0  0  0  0  0  0
  138.5710   79.0320  223.4320 C   0  0  0  0  0  0  0  0  0  0  0  0
  137.6123   78.5326  223.6357 H   0  0  0  0  0  0  0  0  0  0  0  0
  139.4910   78.4460  222.5460 C   0  0  0  0  0  0  0  0  0  0  0  0
  139.1570   77.1620  221.8500 C   0  0  0  0  0  0  0  0  0  0  0  0
  138.4414   76.5922  222.4609 H   0  0  0  0  0  0  0  0  0  0  0  0
  138.7137   77.3883  220.8691 H   0  0  0  0  0  0  0  0  0  0  0  0
  140.4220   76.3320  221.6480 C   0  0  0  0  0  0  0  0  0  0  0  0
  140.8144   76.0266  222.6292 H   0  0  0  0  0  0  0  0  0  0  0  0
  140.1722   75.4464  221.0452 H   0  0  0  0  0  0  0  0  0  0  0  0
  142.4770   76.8710  218.7470 N   0  0  0  0  0  0  0  0  0  0  0  0
  143.3300   76.2560  217.8870 C   0  0  0  0  0  0  0  0  0  0  0  0
  143.4360   76.7270  216.5250 N   0  0  0  0  0  0  0  0  0  0  0  0
  144.1060   75.9040  215.5100 C   0  0  0  0  0  0  0  0  0  0  0  0
  144.8501   75.2575  215.9983 H   0  0  0  0  0  0  0  0  0  0  0  0
  143.3565   75.2862  214.9938 H   0  0  0  0  0  0  0  0  0  0  0  0
  144.8100   76.8050  214.4840 C   0  0  0  0  0  0  0  0  0  0  0  0
  145.6754   77.2758  214.9733 H   0  0  0  0  0  0  0  0  0  0  0  0
  145.0990   76.1611  213.6403 H   0  0  0  0  0  0  0  0  0  0  0  0
  143.9470   77.8770  213.9300 N   0  0  0  0  0  0  0  0  0  0  0  0
  144.4490   78.7930  214.0110 H   0  0  0  0  0  0  0  0  0  0  0  0
  143.7940   77.7010  212.9090 H   0  0  0  0  0  0  0  0  0  0  0  0
  142.6280   78.0080  214.5730 C   0  0  0  0  0  0  0  0  0  0  0  0
  142.1841   78.9722  214.2844 H   0  0  0  0  0  0  0  0  0  0  0  0
  141.9974   77.1706  214.2397 H   0  0  0  0  0  0  0  0  0  0  0  0
  142.7380   77.9480  216.1000 C   0  0  0  0  0  0  0  0  0  0  0  0
  143.2973   78.8257  216.4561 H   0  0  0  0  0  0  0  0  0  0  0  0
  141.7241   77.9413  216.5267 H   0  0  0  0  0  0  0  0  0  0  0  0
  144.0750   75.2010  218.3280 N   0  0  0  0  0  0  0  0  0  0  0  0
  144.7210   74.7040  217.6750 H   0  0  0  0  0  0  0  0  0  0  0  0
  146.2570   73.1090  218.1520 N   0  0  0  0  0  0  0  0  0  0  0  0
  1  2  1  0
  2  3  2  0
  3  4  1  0
  4  5  1  0
  4  6  2  0
  6  7  1  0
  7  8  1  0
  7  9  1  0
  7 10  1  0
 10 11  1  0
 10 12  1  0
 10 13  1  0
 13 14  1  0
 13 15  2  0
 15 16  1  0
 16 17  2  0
 17 18  1  0
 18 19  1  0
 19 20  1  0
 19 21  1  0
 19 22  1  0
 22 23  2  0
 23 24  1  0
 23 25  1  0
 25 26  1  0
 25 27  2  0
 27 28  1  0
 27 29  1  0
 29 30  1  0
 29 31  2  0
 31 32  1  0
 32 33  1  0
 32 34  1  0
 32 35  1  0
 35 36  1  0
 35 37  1  0
 17 38  1  0
 38 39  2  0
 39 40  1  0
 40 41  1  0
 41 42  1  0
 41 43  1  0
 41 44  1  0
 44 45  1  0
 44 46  1  0
 44 47  1  0
 47 48  1  0
 47 49  1  0
 47 50  1  0
 50 51  1  0
 50 52  1  0
 50 53  1  0
 53 54  1  0
 53 55  1  0
 39 56  1  0
 56 57  1  0
  6 58  1  0
 58  2  1  0
 56 15  1  0
 35 18  1  0
 53 40  1  0
 31 22  1  0
M  CHG  3  13   1  47   1  58  -1
M  END
>  <UniqueID>  (58) 
536

>  <SMILES>  (58) 
c1ccc2c(c1)CCN(c1nc(N3CC[NH2+]CC3)[nH]/c(=[NH+]/CCc3cnc[n-]3)n1)C2

>  <Energy>  (58) 
94.32917575555722

>  <Genealogy>  (58) 
c1ccc2c(c1)CCN(c1nc([NH2+]CCc3cnc[n-]3)nc(N3CC[NH2+]CC3)n1)C2 (protonated)
c1ccc2c(c1)CCN(c1nc(N3CC[NH2+]CC3)[nH]c(=[NH+]CCc3cnc[n-]3)n1)C2 (tautomer)
c1ccc2c(c1)CCN(c1nc(N3CC[NH2+]CC3)[nH]/c(=[NH+]/CCc3cnc[n-]3)n1)C2 (cis-trans isomerization)
c1ccc2c(c1)CCN(c1nc(N3CC[NH2+]CC3)[nH]/c(=[NH+]/CCc3cnc[n-]3)n1)C2 (3D coordinates assigned)
c1ccc2c(c1)CCN(c1nc(N3CC[NH2+]CC3)[nH]/c(=[NH+]/CCc3cnc[n-]3)n1)C2 (nonaromatic ring conformer: 94.32917575555722 kcal/mol)

>  <smiles>  (58) 
c1ccc2c(c1)CCN(c1nc(NCCc3cnc[nH]3)nc(N3CCNCC3)n1)C2

>  <score_type>  (58) 
oracle

>  <origin>  (58) 
autodockgpu

>  <m_score__min__energy>  (58) 
-7.5700000000000003

>  <m_primary>  (58) 
energy

>  <meeko>  (58) 
{"free_energy": -6.76, "intermolecular_energy": -8.55, "internal_energy": -2.63, "cluster_size": 4, "cluster_id": 3, "rank_in_cluster": 4}

>  <energy>  (58) 
-6.12

>  <cluster_rmsd>  (58) 
0.14

>  <rmsd>  (58) 
273.07

>  <cluster>  (58) 
5

$$$$
IEUOTYZOLCKWKV-RTROOMJONA-P
     RDKit          3D

 58 62  0  0  0  0  0  0  0  0999 V2000
  140.7291   77.1179  217.9404 H   0  0  0  0  0  0  0  0  0  0  0  0
  140.8690   77.3820  218.9990 C   0  0  0  0  0  0  0  0  0  0  0  0
  142.0800   77.6190  219.5460 N   0  0  0  0  0  0  0  0  0  0  0  0
  141.8090   77.9020  220.8320 C   0  0  0  0  0  0  0  0  0  0  0  0
  142.5535   78.1443  221.6047 H   0  0  0  0  0  0  0  0  0  0  0  0
  140.4500   77.8390  221.0230 C   0  0  0  0  0  0  0  0  0  0  0  0
  139.7320   78.0240  222.3240 C   0  0  0  0  0  0  0  0  0  0  0  0
  139.0717   78.9008  222.2514 H   0  0  0  0  0  0  0  0  0  0  0  0
  140.4747   78.1729  223.1216 H   0  0  0  0  0  0  0  0  0  0  0  0
  138.8920   76.7870  222.6550 C   0  0  0  0  0  0  0  0  0  0  0  0
  137.8454   77.0916  222.8026 H   0  0  0  0  0  0  0  0  0  0  0  0
  139.2914   76.3262  223.5705 H   0  0  0  0  0  0  0  0  0  0  0  0
  138.9570   75.8020  221.5680 N   0  0  0  0  0  0  0  0  0  0  0  0
  138.3040   75.9070  220.7580 H   0  0  0  0  0  0  0  0  0  0  0  0
  139.8000   74.8060  221.5780 C   0  0  0  0  0  0  0  0  0  0  0  0
  139.5600   73.7090  222.3450 N   0  0  0  0  0  0  0  0  0  0  0  0
  140.4320   72.6680  222.3680 C   0  0  0  0  0  0  0  0  0  0  0  0
  140.1650   71.5140  223.1920 N   0  0  0  0  0  0  0  0  0  0  0  0
  140.6750   71.5080  224.5770 C   0  0  0  0  0  0  0  0  0  0  0  0
  141.7649   71.6532  224.5463 H   0  0  0  0  0  0  0  0  0  0  0  0
  140.1586   72.3178  225.1132 H   0  0  0  0  0  0  0  0  0  0  0  0
  140.3850   70.2270  225.3260 C   0  0  0  0  0  0  0  0  0  0  0  0
  141.0590   69.9670  226.5290 C   0  0  0  0  0  0  0  0  0  0  0  0
  141.8150   70.6766  226.8963 H   0  0  0  0  0  0  0  0  0  0  0  0
  140.7760   68.8130  227.2630 C   0  0  0  0  0  0  0  0  0  0  0  0
  141.3157   68.6117  228.2001 H   0  0  0  0  0  0  0  0  0  0  0  0
  139.8080   67.9140  226.8080 C   0  0  0  0  0  0  0  0  0  0  0  0
  139.5855   67.0058  227.3874 H   0  0  0  0  0  0  0  0  0  0  0  0
  139.1230   68.1680  225.6180 C   0  0  0  0  0  0  0  0  0  0  0  0
  138.3527   67.4649  225.2683 H   0  0  0  0  0  0  0  0  0  0  0  0
  139.4140   69.3180  224.8660 C   0  0  0  0  0  0  0  0  0  0  0  0
  138.6540   69.6100  223.6070 C   0  0  0  0  0  0  0  0  0  0  0  0
  138.2893   68.6665  223.1748 H   0  0  0  0  0  0  0  0  0  0  0  0
  137.8034   70.2662  223.8432 H   0  0  0  0  0  0  0  0  0  0  0  0
  139.5610   70.3100  222.5990 C   0  0  0  0  0  0  0  0  0  0  0  0
  140.3599   69.6193  222.2913 H   0  0  0  0  0  0  0  0  0  0  0  0
  138.9586   70.6084  221.7283 H   0  0  0  0  0  0  0  0  0  0  0  0
  141.5570   72.7330  221.6110 N   0  0  0  0  0  0  0  0  0  0  0  0
  141.8180   73.8170  220.8340 C   0  0  0  0  0  0  0  0  0  0  0  0
  143.0220   73.8510  220.0350 N   0  0  0  0  0  0  0  0  0  0  0  0
  143.2400   74.9420  219.0770 C   0  0  0  0  0  0  0  0  0  0  0  0
  142.2678   75.3344  218.7442 H   0  0  0  0  0  0  0  0  0  0  0  0
  143.8173   75.7412  219.5648 H   0  0  0  0  0  0  0  0  0  0  0  0
  144.0230   74.4240  217.8610 C   0  0  0  0  0  0  0  0  0  0  0  0
  143.3618   73.7652  217.2789 H   0  0  0  0  0  0  0  0  0  0  0  0
  144.3484   75.3075  217.2922 H   0  0  0  0  0  0  0  0  0  0  0  0
  145.2480   73.6640  218.2110 N   0  0  0  0  0  0  0  0  0  0  0  0
  145.2410   72.7520  217.6940 H   0  0  0  0  0  0  0  0  0  0  0  0
  146.0870   74.1960  217.8830 H   0  0  0  0  0  0  0  0  0  0  0  0
  145.4170   73.3840  219.6470 C   0  0  0  0  0  0  0  0  0  0  0  0
  146.1862   72.6075  219.7714 H   0  0  0  0  0  0  0  0  0  0  0  0
  145.7168   74.3168  220.1470 H   0  0  0  0  0  0  0  0  0  0  0  0
  144.1110   72.8970  220.2830 C   0  0  0  0  0  0  0  0  0  0  0  0
  143.8414   71.9219  219.8512 H   0  0  0  0  0  0  0  0  0  0  0  0
  144.2601   72.8070  221.3691 H   0  0  0  0  0  0  0  0  0  0  0  0
  140.9350   74.8570  220.8220 N   0  0  0  0  0  0  0  0  0  0  0  0
  141.1290   75.7060  220.2470 H   0  0  0  0  0  0  0  0  0  0  0  0
  139.8460   77.4990  219.8710 N   0  0  0  0  0  0  0  0  0  0  0  0
  1  2  1  0
  2  3  2  0
  3  4  1  0
  4  5  1  0
  4  6  2  0
  6  7  1  0
  7  8  1  0
  7  9  1  0
  7 10  1  0
 10 11  1  0
 10 12  1  0
 10 13  1  0
 13 14  1  0
 13 15  2  0
 15 16  1  0
 16 17  2  0
 17 18  1  0
 18 19  1  0
 19 20  1  0
 19 21  1  0
 19 22  1  0
 22 23  2  0
 23 24  1  0
 23 25  1  0
 25 26  1  0
 25 27  2  0
 27 28  1  0
 27 29  1  0
 29 30  1  0
 29 31  2  0
 31 32  1  0
 32 33  1  0
 32 34  1  0
 32 35  1  0
 35 36  1  0
 35 37  1  0
 17 38  1  0
 38 39  2  0
 39 40  1  0
 40 41  1  0
 41 42  1  0
 41 43  1  0
 41 44  1  0
 44 45  1  0
 44 46  1  0
 44 47  1  0
 47 48  1  0
 47 49  1  0
 47 50  1  0
 50 51  1  0
 50 52  1  0
 50 53  1  0
 53 54  1  0
 53 55  1  0
 39 56  1  0
 56 57  1  0
  6 58  1  0
 58  2  1  0
 56 15  1  0
 35 18  1  0
 53 40  1  0
 31 22  1  0
M  CHG  3  13   1  47   1  58  -1
M  END
>  <UniqueID>  (59) 
536

>  <SMILES>  (59) 
c1ccc2c(c1)CCN(c1nc(N3CC[NH2+]CC3)[nH]/c(=[NH+]/CCc3cnc[n-]3)n1)C2

>  <Energy>  (59) 
94.32917575555722

>  <Genealogy>  (59) 
c1ccc2c(c1)CCN(c1nc([NH2+]CCc3cnc[n-]3)nc(N3CC[NH2+]CC3)n1)C2 (protonated)
c1ccc2c(c1)CCN(c1nc(N3CC[NH2+]CC3)[nH]c(=[NH+]CCc3cnc[n-]3)n1)C2 (tautomer)
c1ccc2c(c1)CCN(c1nc(N3CC[NH2+]CC3)[nH]/c(=[NH+]/CCc3cnc[n-]3)n1)C2 (cis-trans isomerization)
c1ccc2c(c1)CCN(c1nc(N3CC[NH2+]CC3)[nH]/c(=[NH+]/CCc3cnc[n-]3)n1)C2 (3D coordinates assigned)
c1ccc2c(c1)CCN(c1nc(N3CC[NH2+]CC3)[nH]/c(=[NH+]/CCc3cnc[n-]3)n1)C2 (nonaromatic ring conformer: 94.32917575555722 kcal/mol)

>  <smiles>  (59) 
c1ccc2c(c1)CCN(c1nc(NCCc3cnc[nH]3)nc(N3CCNCC3)n1)C2

>  <score_type>  (59) 
oracle

>  <origin>  (59) 
autodockgpu

>  <m_score__min__energy>  (59) 
-7.5700000000000003

>  <m_primary>  (59) 
energy

>  <meeko>  (59) 
{"free_energy": -6.3, "intermolecular_energy": -8.09, "internal_energy": -2.64, "cluster_size": 6, "cluster_id": 1, "rank_in_cluster": 6}

>  <energy>  (59) 
-5.88

>  <cluster_rmsd>  (59) 
0.0

>  <rmsd>  (59) 
275.06

>  <cluster>  (59) 
6

$$$$
IEUOTYZOLCKWKV-RTROOMJONA-P
     RDKit          3D

 58 62  0  0  0  0  0  0  0  0999 V2000
  138.8577   82.0706  220.3422 H   0  0  0  0  0  0  0  0  0  0  0  0
  139.7730   81.9830  220.9460 C   0  0  0  0  0  0  0  0  0  0  0  0
  140.9630   82.4900  220.5600 N   0  0  0  0  0  0  0  0  0  0  0  0
  141.7980   82.1720  221.5650 C   0  0  0  0  0  0  0  0  0  0  0  0
  142.8701   82.4145  221.6084 H   0  0  0  0  0  0  0  0  0  0  0  0
  141.0910   81.4940  222.5290 C   0  0  0  0  0  0  0  0  0  0  0  0
  141.6540   80.9040  223.7840 C   0  0  0  0  0  0  0  0  0  0  0  0
  141.1571   81.3604  224.6528 H   0  0  0  0  0  0  0  0  0  0  0  0
  142.7352   81.1038  223.8163 H   0  0  0  0  0  0  0  0  0  0  0  0
  141.4300   79.3890  223.8140 C   0  0  0  0  0  0  0  0  0  0  0  0
  140.9367   79.1167  224.7587 H   0  0  0  0  0  0  0  0  0  0  0  0
  142.4058   78.8881  223.7313 H   0  0  0  0  0  0  0  0  0  0  0  0
  140.5870   78.9610  222.6910 N   0  0  0  0  0  0  0  0  0  0  0  0
  139.5480   79.0430  222.7840 H   0  0  0  0  0  0  0  0  0  0  0  0
  141.0880   78.4850  221.5840 C   0  0  0  0  0  0  0  0  0  0  0  0
  141.4540   77.1780  221.4990 N   0  0  0  0  0  0  0  0  0  0  0  0
  141.9810   76.6730  220.3550 C   0  0  0  0  0  0  0  0  0  0  0  0
  142.3700   75.2850  220.2850 N   0  0  0  0  0  0  0  0  0  0  0  0
  143.7650   74.9640  219.9250 C   0  0  0  0  0  0  0  0  0  0  0  0
  143.9866   75.4238  218.9506 H   0  0  0  0  0  0  0  0  0  0  0  0
  144.4031   75.3574  220.7300 H   0  0  0  0  0  0  0  0  0  0  0  0
  144.0420   73.4820  219.8270 C   0  0  0  0  0  0  0  0  0  0  0  0
  145.2260   73.0430  219.2120 C   0  0  0  0  0  0  0  0  0  0  0  0
  145.9212   73.7768  218.7782 H   0  0  0  0  0  0  0  0  0  0  0  0
  145.5260   71.6800  219.1480 C   0  0  0  0  0  0  0  0  0  0  0  0
  146.4496   71.3435  218.6542 H   0  0  0  0  0  0  0  0  0  0  0  0
  144.6550   70.7440  219.7100 C   0  0  0  0  0  0  0  0  0  0  0  0
  144.8942   69.6714  219.6613 H   0  0  0  0  0  0  0  0  0  0  0  0
  143.4800   71.1700  220.3340 C   0  0  0  0  0  0  0  0  0  0  0  0
  142.8010   70.4318  220.7857 H   0  0  0  0  0  0  0  0  0  0  0  0
  143.1620   72.5370  220.3870 C   0  0  0  0  0  0  0  0  0  0  0  0
  141.9200   72.9980  221.0880 C   0  0  0  0  0  0  0  0  0  0  0  0
  141.1723   72.1914  221.0717 H   0  0  0  0  0  0  0  0  0  0  0  0
  142.1683   73.2569  222.1278 H   0  0  0  0  0  0  0  0  0  0  0  0
  141.3500   74.2290  220.3890 C   0  0  0  0  0  0  0  0  0  0  0  0
  141.0156   73.9488  219.3792 H   0  0  0  0  0  0  0  0  0  0  0  0
  140.5033   74.6109  220.9782 H   0  0  0  0  0  0  0  0  0  0  0  0
  142.1410   77.4920  219.2840 N   0  0  0  0  0  0  0  0  0  0  0  0
  141.7810   78.8010  219.3420 C   0  0  0  0  0  0  0  0  0  0  0  0
  141.9590   79.6440  218.1820 N   0  0  0  0  0  0  0  0  0  0  0  0
  141.0770   79.4920  217.0180 C   0  0  0  0  0  0  0  0  0  0  0  0
  140.7019   78.4587  216.9778 H   0  0  0  0  0  0  0  0  0  0  0  0
  140.2336   80.1920  217.1106 H   0  0  0  0  0  0  0  0  0  0  0  0
  141.8510   79.8030  215.7270 C   0  0  0  0  0  0  0  0  0  0  0  0
  142.5691   78.9889  215.5495 H   0  0  0  0  0  0  0  0  0  0  0  0
  141.1060   79.8930  214.9227 H   0  0  0  0  0  0  0  0  0  0  0  0
  142.5980   81.0840  215.7660 N   0  0  0  0  0  0  0  0  0  0  0  0
  143.5870   80.9090  215.4690 H   0  0  0  0  0  0  0  0  0  0  0  0
  142.1800   81.7450  215.0700 H   0  0  0  0  0  0  0  0  0  0  0  0
  142.6160   81.7540  217.0780 C   0  0  0  0  0  0  0  0  0  0  0  0
  143.3952   82.5304  217.0719 H   0  0  0  0  0  0  0  0  0  0  0  0
  141.6238   82.1954  217.2531 H   0  0  0  0  0  0  0  0  0  0  0  0
  142.9080   80.7650  218.2110 C   0  0  0  0  0  0  0  0  0  0  0  0
  143.9301   80.3754  218.0952 H   0  0  0  0  0  0  0  0  0  0  0  0
  142.8050   81.2896  219.1724 H   0  0  0  0  0  0  0  0  0  0  0  0
  141.2550   79.2960  220.4990 N   0  0  0  0  0  0  0  0  0  0  0  0
  140.9910   80.3040  220.5680 H   0  0  0  0  0  0  0  0  0  0  0  0
  139.8110   81.3590  222.1410 N   0  0  0  0  0  0  0  0  0  0  0  0
  1  2  1  0
  2  3  2  0
  3  4  1  0
  4  5  1  0
  4  6  2  0
  6  7  1  0
  7  8  1  0
  7  9  1  0
  7 10  1  0
 10 11  1  0
 10 12  1  0
 10 13  1  0
 13 14  1  0
 13 15  2  0
 15 16  1  0
 16 17  2  0
 17 18  1  0
 18 19  1  0
 19 20  1  0
 19 21  1  0
 19 22  1  0
 22 23  2  0
 23 24  1  0
 23 25  1  0
 25 26  1  0
 25 27  2  0
 27 28  1  0
 27 29  1  0
 29 30  1  0
 29 31  2  0
 31 32  1  0
 32 33  1  0
 32 34  1  0
 32 35  1  0
 35 36  1  0
 35 37  1  0
 17 38  1  0
 38 39  2  0
 39 40  1  0
 40 41  1  0
 41 42  1  0
 41 43  1  0
 41 44  1  0
 44 45  1  0
 44 46  1  0
 44 47  1  0
 47 48  1  0
 47 49  1  0
 47 50  1  0
 50 51  1  0
 50 52  1  0
 50 53  1  0
 53 54  1  0
 53 55  1  0
 39 56  1  0
 56 57  1  0
  6 58  1  0
 58  2  1  0
 56 15  1  0
 35 18  1  0
 53 40  1  0
 31 22  1  0
M  CHG  3  13   1  47   1  58  -1
M  END
>  <UniqueID>  (60) 
536

>  <SMILES>  (60) 
c1ccc2c(c1)CCN(c1nc(N3CC[NH2+]CC3)[nH]/c(=[NH+]/CCc3cnc[n-]3)n1)C2

>  <Energy>  (60) 
94.32917575555722

>  <Genealogy>  (60) 
c1ccc2c(c1)CCN(c1nc([NH2+]CCc3cnc[n-]3)nc(N3CC[NH2+]CC3)n1)C2 (protonated)
c1ccc2c(c1)CCN(c1nc(N3CC[NH2+]CC3)[nH]c(=[NH+]CCc3cnc[n-]3)n1)C2 (tautomer)
c1ccc2c(c1)CCN(c1nc(N3CC[NH2+]CC3)[nH]/c(=[NH+]/CCc3cnc[n-]3)n1)C2 (cis-trans isomerization)
c1ccc2c(c1)CCN(c1nc(N3CC[NH2+]CC3)[nH]/c(=[NH+]/CCc3cnc[n-]3)n1)C2 (3D coordinates assigned)
c1ccc2c(c1)CCN(c1nc(N3CC[NH2+]CC3)[nH]/c(=[NH+]/CCc3cnc[n-]3)n1)C2 (nonaromatic ring conformer: 94.32917575555722 kcal/mol)

>  <smiles>  (60) 
c1ccc2c(c1)CCN(c1nc(NCCc3cnc[nH]3)nc(N3CCNCC3)n1)C2

>  <score_type>  (60) 
oracle

>  <origin>  (60) 
autodockgpu

>  <m_score__min__energy>  (60) 
-7.5700000000000003

>  <m_primary>  (60) 
energy

>  <meeko>  (60) 
{"free_energy": -6.35, "intermolecular_energy": -8.14, "internal_energy": -2.74, "cluster_size": 5, "cluster_id": 4, "rank_in_cluster": 5}

>  <energy>  (60) 
-5.85

>  <cluster_rmsd>  (60) 
0.0

>  <rmsd>  (60) 
271.66

>  <cluster>  (60) 
7

$$$$
IEUOTYZOLCKWKV-RTROOMJONA-P
     RDKit          3D

 58 62  0  0  0  0  0  0  0  0999 V2000
  137.6821   77.7817  220.1079 H   0  0  0  0  0  0  0  0  0  0  0  0
  137.5650   76.8300  219.5690 C   0  0  0  0  0  0  0  0  0  0  0  0
  138.4450   76.3930  218.6420 N   0  0  0  0  0  0  0  0  0  0  0  0
  137.9410   75.2140  218.2410 C   0  0  0  0  0  0  0  0  0  0  0  0
  138.3836   74.5543  217.4801 H   0  0  0  0  0  0  0  0  0  0  0  0
  136.7820   74.9670  218.9370 C   0  0  0  0  0  0  0  0  0  0  0  0
  135.8730   73.7930  218.7490 C   0  0  0  0  0  0  0  0  0  0  0  0
  136.2681   73.1548  217.9449 H   0  0  0  0  0  0  0  0  0  0  0  0
  134.8699   74.1592  218.4852 H   0  0  0  0  0  0  0  0  0  0  0  0
  135.7770   72.9750  220.0400 C   0  0  0  0  0  0  0  0  0  0  0  0
  136.2981   72.0166  219.8986 H   0  0  0  0  0  0  0  0  0  0  0  0
  134.7148   72.8048  220.2698 H   0  0  0  0  0  0  0  0  0  0  0  0
  136.3900   73.6940  221.1630 N   0  0  0  0  0  0  0  0  0  0  0  0
  135.8160   74.4000  221.6790 H   0  0  0  0  0  0  0  0  0  0  0  0
  137.6220   73.4820  221.5390 C   0  0  0  0  0  0  0  0  0  0  0  0
  137.9150   72.4710  222.4000 N   0  0  0  0  0  0  0  0  0  0  0  0
  139.1910   72.2430  222.8030 C   0  0  0  0  0  0  0  0  0  0  0  0
  139.4830   71.1700  223.7220 N   0  0  0  0  0  0  0  0  0  0  0  0
  139.8650   71.5150  225.1060 C   0  0  0  0  0  0  0  0  0  0  0  0
  140.7450   72.1740  225.0692 H   0  0  0  0  0  0  0  0  0  0  0  0
  138.9938   72.0029  225.5674 H   0  0  0  0  0  0  0  0  0  0  0  0
  140.2030   70.3150  225.9610 C   0  0  0  0  0  0  0  0  0  0  0  0
  140.8590   70.5080  227.1860 C   0  0  0  0  0  0  0  0  0  0  0  0
  141.1522   71.5220  227.4955 H   0  0  0  0  0  0  0  0  0  0  0  0
  141.1420   69.4200  228.0150 C   0  0  0  0  0  0  0  0  0  0  0  0
  141.6669   69.5779  228.9687 H   0  0  0  0  0  0  0  0  0  0  0  0
  140.7590   68.1310  227.6340 C   0  0  0  0  0  0  0  0  0  0  0  0
  140.9809   67.2754  228.2887 H   0  0  0  0  0  0  0  0  0  0  0  0
  140.0950   67.9290  226.4230 C   0  0  0  0  0  0  0  0  0  0  0  0
  139.7841   66.9150  226.1312 H   0  0  0  0  0  0  0  0  0  0  0  0
  139.8220   69.0160  225.5750 C   0  0  0  0  0  0  0  0  0  0  0  0
  139.0780   68.8050  224.2920 C   0  0  0  0  0  0  0  0  0  0  0  0
  139.2421   67.7755  223.9411 H   0  0  0  0  0  0  0  0  0  0  0  0
  138.0050   68.9742  224.4655 H   0  0  0  0  0  0  0  0  0  0  0  0
  139.5740   69.7850  223.2320 C   0  0  0  0  0  0  0  0  0  0  0  0
  140.6223   69.5555  222.9901 H   0  0  0  0  0  0  0  0  0  0  0  0
  138.9451   69.6847  222.3351 H   0  0  0  0  0  0  0  0  0  0  0  0
  140.1830   73.0420  222.3330 N   0  0  0  0  0  0  0  0  0  0  0  0
  139.9170   74.0570  221.4700 C   0  0  0  0  0  0  0  0  0  0  0  0
  140.9980   74.8840  220.9840 N   0  0  0  0  0  0  0  0  0  0  0  0
  141.1450   76.2630  221.4660 C   0  0  0  0  0  0  0  0  0  0  0  0
  140.1608   76.6495  221.7694 H   0  0  0  0  0  0  0  0  0  0  0  0
  141.8316   76.2733  222.3253 H   0  0  0  0  0  0  0  0  0  0  0  0
  141.7190   77.1520  220.3520 C   0  0  0  0  0  0  0  0  0  0  0  0
  140.9448   77.2851  219.5820 H   0  0  0  0  0  0  0  0  0  0  0  0
  142.0154   78.1010  220.8226 H   0  0  0  0  0  0  0  0  0  0  0  0
  142.9320   76.5970  219.7030 N   0  0  0  0  0  0  0  0  0  0  0  0
  142.7990   76.6130  218.6640 H   0  0  0  0  0  0  0  0  0  0  0  0
  143.7480   77.2180  219.9170 H   0  0  0  0  0  0  0  0  0  0  0  0
  143.2830   75.2260  220.1090 C   0  0  0  0  0  0  0  0  0  0  0  0
  144.0150   74.8186  219.3960 H   0  0  0  0  0  0  0  0  0  0  0  0
  143.7041   75.2644  221.1245 H   0  0  0  0  0  0  0  0  0  0  0  0
  142.0520   74.3140  220.1340 C   0  0  0  0  0  0  0  0  0  0  0  0
  141.6670   74.1996  219.1099 H   0  0  0  0  0  0  0  0  0  0  0  0
  142.3456   73.3364  220.5440 H   0  0  0  0  0  0  0  0  0  0  0  0
  138.6290   74.2760  221.0750 N   0  0  0  0  0  0  0  0  0  0  0  0
  138.4040   75.0630  220.4280 H   0  0  0  0  0  0  0  0  0  0  0  0
  136.5290   75.9900  219.7720 N   0  0  0  0  0  0  0  0  0  0  0  0
  1  2  1  0
  2  3  2  0
  3  4  1  0
  4  5  1  0
  4  6  2  0
  6  7  1  0
  7  8  1  0
  7  9  1  0
  7 10  1  0
 10 11  1  0
 10 12  1  0
 10 13  1  0
 13 14  1  0
 13 15  2  0
 15 16  1  0
 16 17  2  0
 17 18  1  0
 18 19  1  0
 19 20  1  0
 19 21  1  0
 19 22  1  0
 22 23  2  0
 23 24  1  0
 23 25  1  0
 25 26  1  0
 25 27  2  0
 27 28  1  0
 27 29  1  0
 29 30  1  0
 29 31  2  0
 31 32  1  0
 32 33  1  0
 32 34  1  0
 32 35  1  0
 35 36  1  0
 35 37  1  0
 17 38  1  0
 38 39  2  0
 39 40  1  0
 40 41  1  0
 41 42  1  0
 41 43  1  0
 41 44  1  0
 44 45  1  0
 44 46  1  0
 44 47  1  0
 47 48  1  0
 47 49  1  0
 47 50  1  0
 50 51  1  0
 50 52  1  0
 50 53  1  0
 53 54  1  0
 53 55  1  0
 39 56  1  0
 56 57  1  0
  6 58  1  0
 58  2  1  0
 56 15  1  0
 35 18  1  0
 53 40  1  0
 31 22  1  0
M  CHG  3  13   1  47   1  58  -1
M  END
>  <UniqueID>  (61) 
537

>  <SMILES>  (61) 
c1ccc2c(c1)CCN(c1nc(N3CC[NH2+]CC3)[nH]/c(=[NH+]/CCc3cnc[n-]3)n1)C2

>  <Energy>  (61) 
94.50559688052871

>  <Genealogy>  (61) 
c1ccc2c(c1)CCN(c1nc([NH2+]CCc3cnc[n-]3)nc(N3CC[NH2+]CC3)n1)C2 (protonated)
c1ccc2c(c1)CCN(c1nc(N3CC[NH2+]CC3)[nH]c(=[NH+]CCc3cnc[n-]3)n1)C2 (tautomer)
c1ccc2c(c1)CCN(c1nc(N3CC[NH2+]CC3)[nH]/c(=[NH+]/CCc3cnc[n-]3)n1)C2 (cis-trans isomerization)
c1ccc2c(c1)CCN(c1nc(N3CC[NH2+]CC3)[nH]/c(=[NH+]/CCc3cnc[n-]3)n1)C2 (3D coordinates assigned)
c1ccc2c(c1)CCN(c1nc(N3CC[NH2+]CC3)[nH]/c(=[NH+]/CCc3cnc[n-]3)n1)C2 (nonaromatic ring conformer: 94.50559688052871 kcal/mol)

>  <smiles>  (61) 
c1ccc2c(c1)CCN(c1nc(NCCc3cnc[nH]3)nc(N3CCNCC3)n1)C2

>  <score_type>  (61) 
oracle

>  <origin>  (61) 
autodockgpu

>  <m_score__min__energy>  (61) 
-7.5700000000000003

>  <m_primary>  (61) 
energy

>  <meeko>  (61) 
{"free_energy": -5.85, "intermolecular_energy": -7.64, "internal_energy": -2.66, "cluster_size": 1, "cluster_id": 7, "rank_in_cluster": 1}

>  <energy>  (61) 
-7.57

>  <cluster_rmsd>  (61) 
0.0

>  <rmsd>  (61) 
272.46

>  <cluster>  (61) 
1

$$$$
IEUOTYZOLCKWKV-RTROOMJONA-P
     RDKit          3D

 58 62  0  0  0  0  0  0  0  0999 V2000
  147.2804   74.3858  216.7345 H   0  0  0  0  0  0  0  0  0  0  0  0
  146.4520   73.6890  216.9300 C   0  0  0  0  0  0  0  0  0  0  0  0
  145.5440   73.3410  215.9930 N   0  0  0  0  0  0  0  0  0  0  0  0
  144.7240   72.4880  216.6310 C   0  0  0  0  0  0  0  0  0  0  0  0
  143.8469   71.9918  216.1900 H   0  0  0  0  0  0  0  0  0  0  0  0
  145.1620   72.3380  217.9250 C   0  0  0  0  0  0  0  0  0  0  0  0
  144.4960   71.5260  218.9920 C   0  0  0  0  0  0  0  0  0  0  0  0
  145.1867   70.7408  219.3331 H   0  0  0  0  0  0  0  0  0  0  0  0
  143.5828   71.0746  218.5769 H   0  0  0  0  0  0  0  0  0  0  0  0
  144.1130   72.4120  220.1820 C   0  0  0  0  0  0  0  0  0  0  0  0
  144.4994   71.9593  221.1071 H   0  0  0  0  0  0  0  0  0  0  0  0
  143.0166   72.4919  220.2219 H   0  0  0  0  0  0  0  0  0  0  0  0
  144.6760   73.7590  220.0350 N   0  0  0  0  0  0  0  0  0  0  0  0
  145.6850   73.9090  220.2690 H   0  0  0  0  0  0  0  0  0  0  0  0
  143.9640   74.7720  219.6220 C   0  0  0  0  0  0  0  0  0  0  0  0
  143.1090   75.4040  220.4700 N   0  0  0  0  0  0  0  0  0  0  0  0
  142.3590   76.4550  220.0510 C   0  0  0  0  0  0  0  0  0  0  0  0
  141.4520   77.1100  220.9630 N   0  0  0  0  0  0  0  0  0  0  0  0
  141.6900   78.5280  221.2930 C   0  0  0  0  0  0  0  0  0  0  0  0
  142.7057   78.6227  221.7045 H   0  0  0  0  0  0  0  0  0  0  0  0
  141.5579   79.1003  220.3629 H   0  0  0  0  0  0  0  0  0  0  0  0
  140.7140   79.0910  222.2990 C   0  0  0  0  0  0  0  0  0  0  0  0
  140.9970   80.3180  222.9210 C   0  0  0  0  0  0  0  0  0  0  0  0
  141.9400   80.8388  222.6985 H   0  0  0  0  0  0  0  0  0  0  0  0
  140.0890   80.8810  223.8200 C   0  0  0  0  0  0  0  0  0  0  0  0
  140.3235   81.8367  224.3116 H   0  0  0  0  0  0  0  0  0  0  0  0
  138.8830   80.2320  224.0960 C   0  0  0  0  0  0  0  0  0  0  0  0
  138.1677   80.6786  224.8023 H   0  0  0  0  0  0  0  0  0  0  0  0
  138.5850   79.0170  223.4760 C   0  0  0  0  0  0  0  0  0  0  0  0
  137.6300   78.5136  223.6872 H   0  0  0  0  0  0  0  0  0  0  0  0
  139.5010   78.4350  222.5830 C   0  0  0  0  0  0  0  0  0  0  0  0
  139.1670   77.1500  221.8880 C   0  0  0  0  0  0  0  0  0  0  0  0
  138.4567   76.5776  222.5028 H   0  0  0  0  0  0  0  0  0  0  0  0
  138.7174   77.3756  220.9097 H   0  0  0  0  0  0  0  0  0  0  0  0
  140.4330   76.3240  221.6780 C   0  0  0  0  0  0  0  0  0  0  0  0
  140.8324   76.0194  222.6566 H   0  0  0  0  0  0  0  0  0  0  0  0
  140.1824   75.4377  221.0766 H   0  0  0  0  0  0  0  0  0  0  0  0
  142.4720   76.8760  218.7650 N   0  0  0  0  0  0  0  0  0  0  0  0
  143.3210   76.2630  217.8990 C   0  0  0  0  0  0  0  0  0  0  0  0
  143.4220   76.7400  216.5390 N   0  0  0  0  0  0  0  0  0  0  0  0
  144.1080   75.9320  215.5240 C   0  0  0  0  0  0  0  0  0  0  0  0
  144.8621   75.2973  216.0124 H   0  0  0  0  0  0  0  0  0  0  0  0
  143.3703   75.3027  215.0046 H   0  0  0  0  0  0  0  0  0  0  0  0
  144.7990   76.8480  214.5010 C   0  0  0  0  0  0  0  0  0  0  0  0
  145.6553   77.3322  214.9933 H   0  0  0  0  0  0  0  0  0  0  0  0
  145.1003   76.2111  213.6563 H   0  0  0  0  0  0  0  0  0  0  0  0
  143.9200   77.9060  213.9480 N   0  0  0  0  0  0  0  0  0  0  0  0
  144.4060   78.8310  214.0340 H   0  0  0  0  0  0  0  0  0  0  0  0
  143.7720   77.7310  212.9270 H   0  0  0  0  0  0  0  0  0  0  0  0
  142.5980   78.0140  214.5890 C   0  0  0  0  0  0  0  0  0  0  0  0
  142.1395   78.9720  214.3025 H   0  0  0  0  0  0  0  0  0  0  0  0
  141.9819   77.1673  214.2520 H   0  0  0  0  0  0  0  0  0  0  0  0
  142.7050   77.9510  216.1160 C   0  0  0  0  0  0  0  0  0  0  0  0
  143.2489   78.8366  216.4763 H   0  0  0  0  0  0  0  0  0  0  0  0
  141.6903   77.9264  216.5400 H   0  0  0  0  0  0  0  0  0  0  0  0
  144.0670   75.2060  218.3330 N   0  0  0  0  0  0  0  0  0  0  0  0
  144.7100   74.7110  217.6760 H   0  0  0  0  0  0  0  0  0  0  0  0
  146.2490   73.1030  218.1280 N   0  0  0  0  0  0  0  0  0  0  0  0
  1  2  1  0
  2  3  2  0
  3  4  1  0
  4  5  1  0
  4  6  2  0
  6  7  1  0
  7  8  1  0
  7  9  1  0
  7 10  1  0
 10 11  1  0
 10 12  1  0
 10 13  1  0
 13 14  1  0
 13 15  2  0
 15 16  1  0
 16 17  2  0
 17 18  1  0
 18 19  1  0
 19 20  1  0
 19 21  1  0
 19 22  1  0
 22 23  2  0
 23 24  1  0
 23 25  1  0
 25 26  1  0
 25 27  2  0
 27 28  1  0
 27 29  1  0
 29 30  1  0
 29 31  2  0
 31 32  1  0
 32 33  1  0
 32 34  1  0
 32 35  1  0
 35 36  1  0
 35 37  1  0
 17 38  1  0
 38 39  2  0
 39 40  1  0
 40 41  1  0
 41 42  1  0
 41 43  1  0
 41 44  1  0
 44 45  1  0
 44 46  1  0
 44 47  1  0
 47 48  1  0
 47 49  1  0
 47 50  1  0
 50 51  1  0
 50 52  1  0
 50 53  1  0
 53 54  1  0
 53 55  1  0
 39 56  1  0
 56 57  1  0
  6 58  1  0
 58  2  1  0
 56 15  1  0
 35 18  1  0
 53 40  1  0
 31 22  1  0
M  CHG  3  13   1  47   1  58  -1
M  END
>  <UniqueID>  (62) 
537

>  <SMILES>  (62) 
c1ccc2c(c1)CCN(c1nc(N3CC[NH2+]CC3)[nH]/c(=[NH+]/CCc3cnc[n-]3)n1)C2

>  <Energy>  (62) 
94.50559688052871

>  <Genealogy>  (62) 
c1ccc2c(c1)CCN(c1nc([NH2+]CCc3cnc[n-]3)nc(N3CC[NH2+]CC3)n1)C2 (protonated)
c1ccc2c(c1)CCN(c1nc(N3CC[NH2+]CC3)[nH]c(=[NH+]CCc3cnc[n-]3)n1)C2 (tautomer)
c1ccc2c(c1)CCN(c1nc(N3CC[NH2+]CC3)[nH]/c(=[NH+]/CCc3cnc[n-]3)n1)C2 (cis-trans isomerization)
c1ccc2c(c1)CCN(c1nc(N3CC[NH2+]CC3)[nH]/c(=[NH+]/CCc3cnc[n-]3)n1)C2 (3D coordinates assigned)
c1ccc2c(c1)CCN(c1nc(N3CC[NH2+]CC3)[nH]/c(=[NH+]/CCc3cnc[n-]3)n1)C2 (nonaromatic ring conformer: 94.50559688052871 kcal/mol)

>  <smiles>  (62) 
c1ccc2c(c1)CCN(c1nc(NCCc3cnc[nH]3)nc(N3CCNCC3)n1)C2

>  <score_type>  (62) 
oracle

>  <origin>  (62) 
autodockgpu

>  <m_score__min__energy>  (62) 
-7.5700000000000003

>  <m_primary>  (62) 
energy

>  <meeko>  (62) 
{"free_energy": -6.78, "intermolecular_energy": -8.57, "internal_energy": -2.64, "cluster_size": 4, "cluster_id": 3, "rank_in_cluster": 3}

>  <energy>  (62) 
-7.54

>  <cluster_rmsd>  (62) 
0.05

>  <rmsd>  (62) 
272.47

>  <cluster>  (62) 
1

$$$$
IEUOTYZOLCKWKV-RTROOMJONA-P
     RDKit          3D

 58 62  0  0  0  0  0  0  0  0999 V2000
  142.7655   75.0246  221.6841 H   0  0  0  0  0  0  0  0  0  0  0  0
  141.8080   74.8170  221.1840 C   0  0  0  0  0  0  0  0  0  0  0  0
  141.6450   74.8840  219.8450 N   0  0  0  0  0  0  0  0  0  0  0  0
  140.3540   74.5630  219.6550 C   0  0  0  0  0  0  0  0  0  0  0  0
  139.8422   74.5160  218.6824 H   0  0  0  0  0  0  0  0  0  0  0  0
  139.7780   74.3030  220.8760 C   0  0  0  0  0  0  0  0  0  0  0  0
  138.3390   73.9710  221.1190 C   0  0  0  0  0  0  0  0  0  0  0  0
  138.2707   72.9756  221.5823 H   0  0  0  0  0  0  0  0  0  0  0  0
  137.8052   73.9800  220.1572 H   0  0  0  0  0  0  0  0  0  0  0  0
  137.6980   75.0050  222.0500 C   0  0  0  0  0  0  0  0  0  0  0  0
  137.0991   74.4826  222.8105 H   0  0  0  0  0  0  0  0  0  0  0  0
  137.0606   75.6709  221.4498 H   0  0  0  0  0  0  0  0  0  0  0  0
  138.7240   75.8150  222.7190 N   0  0  0  0  0  0  0  0  0  0  0  0
  139.2530   75.3940  223.5170 H   0  0  0  0  0  0  0  0  0  0  0  0
  138.9980   77.0370  222.3510 C   0  0  0  0  0  0  0  0  0  0  0  0
  138.3940   78.0920  222.9600 N   0  0  0  0  0  0  0  0  0  0  0  0
  138.6670   79.3670  222.5820 C   0  0  0  0  0  0  0  0  0  0  0  0
  138.0110   80.4740  223.2350 N   0  0  0  0  0  0  0  0  0  0  0  0
  138.0280   80.5300  224.7100 C   0  0  0  0  0  0  0  0  0  0  0  0
  137.5838   79.6013  225.0976 H   0  0  0  0  0  0  0  0  0  0  0  0
  139.0779   80.6530  225.0142 H   0  0  0  0  0  0  0  0  0  0  0  0
  137.2630   81.7000  225.2840 C   0  0  0  0  0  0  0  0  0  0  0  0
  136.9480   81.7120  226.6520 C   0  0  0  0  0  0  0  0  0  0  0  0
  137.2279   80.8569  227.2848 H   0  0  0  0  0  0  0  0  0  0  0  0
  136.2820   82.8020  227.2140 C   0  0  0  0  0  0  0  0  0  0  0  0
  136.0290   82.7981  228.2845 H   0  0  0  0  0  0  0  0  0  0  0  0
  135.9360   83.8980  226.4200 C   0  0  0  0  0  0  0  0  0  0  0  0
  135.4132   84.7570  226.8658 H   0  0  0  0  0  0  0  0  0  0  0  0
  136.2540   83.9030  225.0600 C   0  0  0  0  0  0  0  0  0  0  0  0
  135.9904   84.7719  224.4390 H   0  0  0  0  0  0  0  0  0  0  0  0
  136.9090   82.8030  224.4820 C   0  0  0  0  0  0  0  0  0  0  0  0
  137.2830   82.8220  223.0310 C   0  0  0  0  0  0  0  0  0  0  0  0
  136.5948   83.4852  222.4864 H   0  0  0  0  0  0  0  0  0  0  0  0
  138.3149   83.1894  222.9295 H   0  0  0  0  0  0  0  0  0  0  0  0
  137.1940   81.4140  222.4490 C   0  0  0  0  0  0  0  0  0  0  0  0
  136.1454   81.0821  222.4652 H   0  0  0  0  0  0  0  0  0  0  0  0
  137.5719   81.4334  221.4161 H   0  0  0  0  0  0  0  0  0  0  0  0
  139.5580   79.5830  221.5820 N   0  0  0  0  0  0  0  0  0  0  0  0
  140.1780   78.5460  220.9590 C   0  0  0  0  0  0  0  0  0  0  0  0
  141.1270   78.8110  219.9020 N   0  0  0  0  0  0  0  0  0  0  0  0
  141.8870   80.0660  219.8910 C   0  0  0  0  0  0  0  0  0  0  0  0
  141.3108   80.8453  220.4113 H   0  0  0  0  0  0  0  0  0  0  0  0
  142.8490   79.9099  220.4011 H   0  0  0  0  0  0  0  0  0  0  0  0
  142.1500   80.5090  218.4430 C   0  0  0  0  0  0  0  0  0  0  0  0
  141.1974   80.8407  218.0043 H   0  0  0  0  0  0  0  0  0  0  0  0
  142.8988   81.3136  218.4872 H   0  0  0  0  0  0  0  0  0  0  0  0
  142.7150   79.4440  217.5800 N   0  0  0  0  0  0  0  0  0  0  0  0
  142.1480   79.3820  216.7010 H   0  0  0  0  0  0  0  0  0  0  0  0
  143.6880   79.7110  217.2980 H   0  0  0  0  0  0  0  0  0  0  0  0
  142.7700   78.1070  218.1960 C   0  0  0  0  0  0  0  0  0  0  0  0
  142.9460   77.3582  217.4097 H   0  0  0  0  0  0  0  0  0  0  0  0
  143.5864   78.1001  218.9332 H   0  0  0  0  0  0  0  0  0  0  0  0
  141.4640   77.7690  218.9220 C   0  0  0  0  0  0  0  0  0  0  0  0
  140.6514   77.6909  218.1848 H   0  0  0  0  0  0  0  0  0  0  0  0
  141.5926   76.8141  219.4527 H   0  0  0  0  0  0  0  0  0  0  0  0
  139.8920   77.2690  221.3470 N   0  0  0  0  0  0  0  0  0  0  0  0
  140.3450   76.4600  220.8660 H   0  0  0  0  0  0  0  0  0  0  0  0
  140.6880   74.4720  221.8510 N   0  0  0  0  0  0  0  0  0  0  0  0
  1  2  1  0
  2  3  2  0
  3  4  1  0
  4  5  1  0
  4  6  2  0
  6  7  1  0
  7  8  1  0
  7  9  1  0
  7 10  1  0
 10 11  1  0
 10 12  1  0
 10 13  1  0
 13 14  1  0
 13 15  2  0
 15 16  1  0
 16 17  2  0
 17 18  1  0
 18 19  1  0
 19 20  1  0
 19 21  1  0
 19 22  1  0
 22 23  2  0
 23 24  1  0
 23 25  1  0
 25 26  1  0
 25 27  2  0
 27 28  1  0
 27 29  1  0
 29 30  1  0
 29 31  2  0
 31 32  1  0
 32 33  1  0
 32 34  1  0
 32 35  1  0
 35 36  1  0
 35 37  1  0
 17 38  1  0
 38 39  2  0
 39 40  1  0
 40 41  1  0
 41 42  1  0
 41 43  1  0
 41 44  1  0
 44 45  1  0
 44 46  1  0
 44 47  1  0
 47 48  1  0
 47 49  1  0
 47 50  1  0
 50 51  1  0
 50 52  1  0
 50 53  1  0
 53 54  1  0
 53 55  1  0
 39 56  1  0
 56 57  1  0
  6 58  1  0
 58  2  1  0
 56 15  1  0
 35 18  1  0
 53 40  1  0
 31 22  1  0
M  CHG  3  13   1  47   1  58  -1
M  END
>  <UniqueID>  (63) 
537

>  <SMILES>  (63) 
c1ccc2c(c1)CCN(c1nc(N3CC[NH2+]CC3)[nH]/c(=[NH+]/CCc3cnc[n-]3)n1)C2

>  <Energy>  (63) 
94.50559688052871

>  <Genealogy>  (63) 
c1ccc2c(c1)CCN(c1nc([NH2+]CCc3cnc[n-]3)nc(N3CC[NH2+]CC3)n1)C2 (protonated)
c1ccc2c(c1)CCN(c1nc(N3CC[NH2+]CC3)[nH]c(=[NH+]CCc3cnc[n-]3)n1)C2 (tautomer)
c1ccc2c(c1)CCN(c1nc(N3CC[NH2+]CC3)[nH]/c(=[NH+]/CCc3cnc[n-]3)n1)C2 (cis-trans isomerization)
c1ccc2c(c1)CCN(c1nc(N3CC[NH2+]CC3)[nH]/c(=[NH+]/CCc3cnc[n-]3)n1)C2 (3D coordinates assigned)
c1ccc2c(c1)CCN(c1nc(N3CC[NH2+]CC3)[nH]/c(=[NH+]/CCc3cnc[n-]3)n1)C2 (nonaromatic ring conformer: 94.50559688052871 kcal/mol)

>  <smiles>  (63) 
c1ccc2c(c1)CCN(c1nc(NCCc3cnc[nH]3)nc(N3CCNCC3)n1)C2

>  <score_type>  (63) 
oracle

>  <origin>  (63) 
autodockgpu

>  <m_score__min__energy>  (63) 
-7.5700000000000003

>  <m_primary>  (63) 
energy

>  <meeko>  (63) 
{"free_energy": -6.12, "intermolecular_energy": -7.91, "internal_energy": -2.62, "cluster_size": 2, "cluster_id": 5, "rank_in_cluster": 2}

>  <energy>  (63) 
-7.11

>  <cluster_rmsd>  (63) 
1.03

>  <rmsd>  (63) 
272.52

>  <cluster>  (63) 
1

$$$$
IEUOTYZOLCKWKV-RTROOMJONA-P
     RDKit          3D

 58 62  0  0  0  0  0  0  0  0999 V2000
  145.3096   71.3524  216.6376 H   0  0  0  0  0  0  0  0  0  0  0  0
  145.5540   71.5430  217.6930 C   0  0  0  0  0  0  0  0  0  0  0  0
  145.9560   70.5750  218.5440 N   0  0  0  0  0  0  0  0  0  0  0  0
  146.1480   71.2190  219.7080 C   0  0  0  0  0  0  0  0  0  0  0  0
  146.4753   70.7553  220.6503 H   0  0  0  0  0  0  0  0  0  0  0  0
  145.8680   72.5520  219.5270 C   0  0  0  0  0  0  0  0  0  0  0  0
  145.8930   73.6100  220.5870 C   0  0  0  0  0  0  0  0  0  0  0  0
  146.7980   74.2232  220.4648 H   0  0  0  0  0  0  0  0  0  0  0  0
  145.8938   73.1242  221.5739 H   0  0  0  0  0  0  0  0  0  0  0  0
  144.6580   74.5080  220.4790 C   0  0  0  0  0  0  0  0  0  0  0  0
  144.8283   75.2617  219.6961 H   0  0  0  0  0  0  0  0  0  0  0  0
  144.4915   74.9944  221.4515 H   0  0  0  0  0  0  0  0  0  0  0  0
  143.4660   73.7220  220.1380 N   0  0  0  0  0  0  0  0  0  0  0  0
  143.5000   73.0990  219.2990 H   0  0  0  0  0  0  0  0  0  0  0  0
  142.3700   73.7730  220.8460 C   0  0  0  0  0  0  0  0  0  0  0  0
  141.9590   72.6900  221.5580 N   0  0  0  0  0  0  0  0  0  0  0  0
  140.8190   72.7290  222.2930 C   0  0  0  0  0  0  0  0  0  0  0  0
  140.3940   71.5680  223.0380 N   0  0  0  0  0  0  0  0  0  0  0  0
  140.7020   71.5070  224.4800 C   0  0  0  0  0  0  0  0  0  0  0  0
  141.7900   71.6072  224.6069 H   0  0  0  0  0  0  0  0  0  0  0  0
  140.1454   72.3244  224.9618 H   0  0  0  0  0  0  0  0  0  0  0  0
  140.2610   70.2230  225.1430 C   0  0  0  0  0  0  0  0  0  0  0  0
  140.7480   69.9060  226.4210 C   0  0  0  0  0  0  0  0  0  0  0  0
  141.4704   70.5746  226.9119 H   0  0  0  0  0  0  0  0  0  0  0  0
  140.3210   68.7470  227.0730 C   0  0  0  0  0  0  0  0  0  0  0  0
  140.7165   68.4994  228.0691 H   0  0  0  0  0  0  0  0  0  0  0  0
  139.3920   67.9020  226.4610 C   0  0  0  0  0  0  0  0  0  0  0  0
  139.0541   66.9913  226.9773 H   0  0  0  0  0  0  0  0  0  0  0  0
  138.8920   68.2120  225.1950 C   0  0  0  0  0  0  0  0  0  0  0  0
  138.1527   67.5500  224.7204 H   0  0  0  0  0  0  0  0  0  0  0  0
  139.3300   69.3670  224.5250 C   0  0  0  0  0  0  0  0  0  0  0  0
  138.7670   69.7210  223.1820 C   0  0  0  0  0  0  0  0  0  0  0  0
  138.4297   68.8046  222.6756 H   0  0  0  0  0  0  0  0  0  0  0  0
  137.9182   70.4076  223.3165 H   0  0  0  0  0  0  0  0  0  0  0  0
  139.8340   70.4050  222.3310 C   0  0  0  0  0  0  0  0  0  0  0  0
  140.6409   69.6883  222.1183 H   0  0  0  0  0  0  0  0  0  0  0  0
  139.3730   70.7485  221.3932 H   0  0  0  0  0  0  0  0  0  0  0  0
  140.0850   73.8710  222.3130 N   0  0  0  0  0  0  0  0  0  0  0  0
  140.4750   74.9680  221.6130 C   0  0  0  0  0  0  0  0  0  0  0  0
  139.6750   76.1700  221.6610 N   0  0  0  0  0  0  0  0  0  0  0  0
  138.2670   76.1020  222.0700 C   0  0  0  0  0  0  0  0  0  0  0  0
  137.8679   75.1039  221.8367 H   0  0  0  0  0  0  0  0  0  0  0  0
  138.1961   76.2891  223.1517 H   0  0  0  0  0  0  0  0  0  0  0  0
  137.4490   77.1650  221.3200 C   0  0  0  0  0  0  0  0  0  0  0  0
  137.3731   76.8625  220.2651 H   0  0  0  0  0  0  0  0  0  0  0  0
  136.4687   77.2210  221.8159 H   0  0  0  0  0  0  0  0  0  0  0  0
  138.0360   78.5260  221.3740 N   0  0  0  0  0  0  0  0  0  0  0  0
  138.0910   78.9120  220.4010 H   0  0  0  0  0  0  0  0  0  0  0  0
  137.3980   79.1540  221.9170 H   0  0  0  0  0  0  0  0  0  0  0  0
  139.3770   78.6020  221.9810 C   0  0  0  0  0  0  0  0  0  0  0  0
  139.8256   79.5760  221.7358 H   0  0  0  0  0  0  0  0  0  0  0  0
  139.2703   78.4827  223.0693 H   0  0  0  0  0  0  0  0  0  0  0  0
  140.2920   77.4880  221.4630 C   0  0  0  0  0  0  0  0  0  0  0  0
  140.4755   77.6424  220.3895 H   0  0  0  0  0  0  0  0  0  0  0  0
  141.2384   77.5212  222.0226 H   0  0  0  0  0  0  0  0  0  0  0  0
  141.6230   74.9140  220.8760 N   0  0  0  0  0  0  0  0  0  0  0  0
  141.9280   75.7410  220.3160 H   0  0  0  0  0  0  0  0  0  0  0  0
  145.4800   72.7660  218.2580 N   0  0  0  0  0  0  0  0  0  0  0  0
  1  2  1  0
  2  3  2  0
  3  4  1  0
  4  5  1  0
  4  6  2  0
  6  7  1  0
  7  8  1  0
  7  9  1  0
  7 10  1  0
 10 11  1  0
 10 12  1  0
 10 13  1  0
 13 14  1  0
 13 15  2  0
 15 16  1  0
 16 17  2  0
 17 18  1  0
 18 19  1  0
 19 20  1  0
 19 21  1  0
 19 22  1  0
 22 23  2  0
 23 24  1  0
 23 25  1  0
 25 26  1  0
 25 27  2  0
 27 28  1  0
 27 29  1  0
 29 30  1  0
 29 31  2  0
 31 32  1  0
 32 33  1  0
 32 34  1  0
 32 35  1  0
 35 36  1  0
 35 37  1  0
 17 38  1  0
 38 39  2  0
 39 40  1  0
 40 41  1  0
 41 42  1  0
 41 43  1  0
 41 44  1  0
 44 45  1  0
 44 46  1  0
 44 47  1  0
 47 48  1  0
 47 49  1  0
 47 50  1  0
 50 51  1  0
 50 52  1  0
 50 53  1  0
 53 54  1  0
 53 55  1  0
 39 56  1  0
 56 57  1  0
  6 58  1  0
 58  2  1  0
 56 15  1  0
 35 18  1  0
 53 40  1  0
 31 22  1  0
M  CHG  3  13   1  47   1  58  -1
M  END
>  <UniqueID>  (64) 
537

>  <SMILES>  (64) 
c1ccc2c(c1)CCN(c1nc(N3CC[NH2+]CC3)[nH]/c(=[NH+]/CCc3cnc[n-]3)n1)C2

>  <Energy>  (64) 
94.50559688052871

>  <Genealogy>  (64) 
c1ccc2c(c1)CCN(c1nc([NH2+]CCc3cnc[n-]3)nc(N3CC[NH2+]CC3)n1)C2 (protonated)
c1ccc2c(c1)CCN(c1nc(N3CC[NH2+]CC3)[nH]c(=[NH+]CCc3cnc[n-]3)n1)C2 (tautomer)
c1ccc2c(c1)CCN(c1nc(N3CC[NH2+]CC3)[nH]/c(=[NH+]/CCc3cnc[n-]3)n1)C2 (cis-trans isomerization)
c1ccc2c(c1)CCN(c1nc(N3CC[NH2+]CC3)[nH]/c(=[NH+]/CCc3cnc[n-]3)n1)C2 (3D coordinates assigned)
c1ccc2c(c1)CCN(c1nc(N3CC[NH2+]CC3)[nH]/c(=[NH+]/CCc3cnc[n-]3)n1)C2 (nonaromatic ring conformer: 94.50559688052871 kcal/mol)

>  <smiles>  (64) 
c1ccc2c(c1)CCN(c1nc(NCCc3cnc[nH]3)nc(N3CCNCC3)n1)C2

>  <score_type>  (64) 
oracle

>  <origin>  (64) 
autodockgpu

>  <m_score__min__energy>  (64) 
-7.5700000000000003

>  <m_primary>  (64) 
energy

>  <meeko>  (64) 
{"free_energy": -7.57, "intermolecular_energy": -9.36, "internal_energy": -1.1, "cluster_size": 6, "cluster_id": 1, "rank_in_cluster": 1}

>  <energy>  (64) 
-6.32

>  <cluster_rmsd>  (64) 
1.96

>  <rmsd>  (64) 
272.39

>  <cluster>  (64) 
1

$$$$
IEUOTYZOLCKWKV-RTROOMJONA-P
     RDKit          3D

 58 62  0  0  0  0  0  0  0  0999 V2000
  138.8688   81.9802  220.3611 H   0  0  0  0  0  0  0  0  0  0  0  0
  139.7780   81.9080  220.9760 C   0  0  0  0  0  0  0  0  0  0  0  0
  140.9620   82.4410  220.6070 N   0  0  0  0  0  0  0  0  0  0  0  0
  141.7900   82.1360  221.6220 C   0  0  0  0  0  0  0  0  0  0  0  0
  142.8560   82.4010  221.6811 H   0  0  0  0  0  0  0  0  0  0  0  0
  141.0840   81.4380  222.5740 C   0  0  0  0  0  0  0  0  0  0  0  0
  141.6440   80.8550  223.8330 C   0  0  0  0  0  0  0  0  0  0  0  0
  141.0937   81.2597  224.6952 H   0  0  0  0  0  0  0  0  0  0  0  0
  142.7093   81.1199  223.9042 H   0  0  0  0  0  0  0  0  0  0  0  0
  141.5130   79.3280  223.8230 C   0  0  0  0  0  0  0  0  0  0  0  0
  141.0832   78.9972  224.7800 H   0  0  0  0  0  0  0  0  0  0  0  0
  142.5119   78.8906  223.6787 H   0  0  0  0  0  0  0  0  0  0  0  0
  140.6440   78.8840  222.7270 N   0  0  0  0  0  0  0  0  0  0  0  0
  139.6070   78.9450  222.8540 H   0  0  0  0  0  0  0  0  0  0  0  0
  141.1180   78.4190  221.6030 C   0  0  0  0  0  0  0  0  0  0  0  0
  141.4680   77.1100  221.4930 N   0  0  0  0  0  0  0  0  0  0  0  0
  141.9680   76.6160  220.3310 C   0  0  0  0  0  0  0  0  0  0  0  0
  142.3410   75.2250  220.2330 N   0  0  0  0  0  0  0  0  0  0  0  0
  143.7690   74.8910  220.0660 C   0  0  0  0  0  0  0  0  0  0  0  0
  144.1425   75.4027  219.1667 H   0  0  0  0  0  0  0  0  0  0  0  0
  144.2850   75.2192  220.9803 H   0  0  0  0  0  0  0  0  0  0  0  0
  144.0330   73.4110  219.9170 C   0  0  0  0  0  0  0  0  0  0  0  0
  145.2880   72.9790  219.4590 C   0  0  0  0  0  0  0  0  0  0  0  0
  146.0522   73.7192  219.1796 H   0  0  0  0  0  0  0  0  0  0  0  0
  145.5720   71.6160  219.3560 C   0  0  0  0  0  0  0  0  0  0  0  0
  146.5537   71.2864  218.9851 H   0  0  0  0  0  0  0  0  0  0  0  0
  144.6120   70.6700  219.7230 C   0  0  0  0  0  0  0  0  0  0  0  0
  144.8386   69.5965  219.6435 H   0  0  0  0  0  0  0  0  0  0  0  0
  143.3640   71.0880  220.1910 C   0  0  0  0  0  0  0  0  0  0  0  0
  142.6130   70.3417  220.4895 H   0  0  0  0  0  0  0  0  0  0  0  0
  143.0640   72.4570  220.2820 C   0  0  0  0  0  0  0  0  0  0  0  0
  141.7390   72.9070  220.8180 C   0  0  0  0  0  0  0  0  0  0  0  0
  140.9892   72.1218  220.6413 H   0  0  0  0  0  0  0  0  0  0  0  0
  141.8329   73.0982  221.8972 H   0  0  0  0  0  0  0  0  0  0  0  0
  141.3000   74.1910  220.1190 C   0  0  0  0  0  0  0  0  0  0  0  0
  141.1162   73.9789  219.0554 H   0  0  0  0  0  0  0  0  0  0  0  0
  140.3808   74.5590  220.5981 H   0  0  0  0  0  0  0  0  0  0  0  0
  142.1170   77.4490  219.2690 N   0  0  0  0  0  0  0  0  0  0  0  0
  141.7720   78.7600  219.3530 C   0  0  0  0  0  0  0  0  0  0  0  0
  141.9370   79.6190  218.2030 N   0  0  0  0  0  0  0  0  0  0  0  0
  141.0480   79.4760  217.0430 C   0  0  0  0  0  0  0  0  0  0  0  0
  140.6786   78.4411  216.9927 H   0  0  0  0  0  0  0  0  0  0  0  0
  140.2013   80.1700  217.1497 H   0  0  0  0  0  0  0  0  0  0  0  0
  141.8110   79.8070  215.7510 C   0  0  0  0  0  0  0  0  0  0  0  0
  142.5331   78.9997  215.5591 H   0  0  0  0  0  0  0  0  0  0  0  0
  141.0600   79.9017  214.9529 H   0  0  0  0  0  0  0  0  0  0  0  0
  142.5500   81.0920  215.8000 N   0  0  0  0  0  0  0  0  0  0  0  0
  143.5390   80.9280  215.4940 H   0  0  0  0  0  0  0  0  0  0  0  0
  142.1240   81.7590  215.1150 H   0  0  0  0  0  0  0  0  0  0  0  0
  142.5730   81.7460  217.1200 C   0  0  0  0  0  0  0  0  0  0  0  0
  143.3477   82.5269  217.1181 H   0  0  0  0  0  0  0  0  0  0  0  0
  141.5793   82.1791  217.3069 H   0  0  0  0  0  0  0  0  0  0  0  0
  142.8780   80.7460  218.2390 C   0  0  0  0  0  0  0  0  0  0  0  0
  143.9021   80.3648  218.1126 H   0  0  0  0  0  0  0  0  0  0  0  0
  142.7767   81.2587  219.2069 H   0  0  0  0  0  0  0  0  0  0  0  0
  141.2730   79.2450  220.5280 N   0  0  0  0  0  0  0  0  0  0  0  0
  141.0210   80.2540  220.6160 H   0  0  0  0  0  0  0  0  0  0  0  0
  139.8130   81.2790  222.1680 N   0  0  0  0  0  0  0  0  0  0  0  0
  1  2  1  0
  2  3  2  0
  3  4  1  0
  4  5  1  0
  4  6  2  0
  6  7  1  0
  7  8  1  0
  7  9  1  0
  7 10  1  0
 10 11  1  0
 10 12  1  0
 10 13  1  0
 13 14  1  0
 13 15  2  0
 15 16  1  0
 16 17  2  0
 17 18  1  0
 18 19  1  0
 19 20  1  0
 19 21  1  0
 19 22  1  0
 22 23  2  0
 23 24  1  0
 23 25  1  0
 25 26  1  0
 25 27  2  0
 27 28  1  0
 27 29  1  0
 29 30  1  0
 29 31  2  0
 31 32  1  0
 32 33  1  0
 32 34  1  0
 32 35  1  0
 35 36  1  0
 35 37  1  0
 17 38  1  0
 38 39  2  0
 39 40  1  0
 40 41  1  0
 41 42  1  0
 41 43  1  0
 41 44  1  0
 44 45  1  0
 44 46  1  0
 44 47  1  0
 47 48  1  0
 47 49  1  0
 47 50  1  0
 50 51  1  0
 50 52  1  0
 50 53  1  0
 53 54  1  0
 53 55  1  0
 39 56  1  0
 56 57  1  0
  6 58  1  0
 58  2  1  0
 56 15  1  0
 35 18  1  0
 53 40  1  0
 31 22  1  0
M  CHG  3  13   1  47   1  58  -1
M  END
>  <UniqueID>  (65) 
537

>  <SMILES>  (65) 
c1ccc2c(c1)CCN(c1nc(N3CC[NH2+]CC3)[nH]/c(=[NH+]/CCc3cnc[n-]3)n1)C2

>  <Energy>  (65) 
94.50559688052871

>  <Genealogy>  (65) 
c1ccc2c(c1)CCN(c1nc([NH2+]CCc3cnc[n-]3)nc(N3CC[NH2+]CC3)n1)C2 (protonated)
c1ccc2c(c1)CCN(c1nc(N3CC[NH2+]CC3)[nH]c(=[NH+]CCc3cnc[n-]3)n1)C2 (tautomer)
c1ccc2c(c1)CCN(c1nc(N3CC[NH2+]CC3)[nH]/c(=[NH+]/CCc3cnc[n-]3)n1)C2 (cis-trans isomerization)
c1ccc2c(c1)CCN(c1nc(N3CC[NH2+]CC3)[nH]/c(=[NH+]/CCc3cnc[n-]3)n1)C2 (3D coordinates assigned)
c1ccc2c(c1)CCN(c1nc(N3CC[NH2+]CC3)[nH]/c(=[NH+]/CCc3cnc[n-]3)n1)C2 (nonaromatic ring conformer: 94.50559688052871 kcal/mol)

>  <smiles>  (65) 
c1ccc2c(c1)CCN(c1nc(NCCc3cnc[nH]3)nc(N3CCNCC3)n1)C2

>  <score_type>  (65) 
oracle

>  <origin>  (65) 
autodockgpu

>  <m_score__min__energy>  (65) 
-7.5700000000000003

>  <m_primary>  (65) 
energy

>  <meeko>  (65) 
{"free_energy": -6.39, "intermolecular_energy": -8.18, "internal_energy": -2.75, "cluster_size": 5, "cluster_id": 4, "rank_in_cluster": 4}

>  <energy>  (65) 
-6.31

>  <cluster_rmsd>  (65) 
1.96

>  <rmsd>  (65) 
272.4

>  <cluster>  (65) 
1

$$$$
IEUOTYZOLCKWKV-RTROOMJONA-P
     RDKit          3D

 58 62  0  0  0  0  0  0  0  0999 V2000
  145.2983   71.3205  216.6475 H   0  0  0  0  0  0  0  0  0  0  0  0
  145.5540   71.5180  217.6990 C   0  0  0  0  0  0  0  0  0  0  0  0
  145.9490   70.5530  218.5560 N   0  0  0  0  0  0  0  0  0  0  0  0
  146.1610   71.2060  219.7110 C   0  0  0  0  0  0  0  0  0  0  0  0
  146.4910   70.7471  220.6547 H   0  0  0  0  0  0  0  0  0  0  0  0
  145.8980   72.5410  219.5200 C   0  0  0  0  0  0  0  0  0  0  0  0
  145.9490   73.6090  220.5680 C   0  0  0  0  0  0  0  0  0  0  0  0
  146.8517   74.2196  220.4188 H   0  0  0  0  0  0  0  0  0  0  0  0
  145.9723   73.1334  221.5596 H   0  0  0  0  0  0  0  0  0  0  0  0
  144.7120   74.5080  220.4790 C   0  0  0  0  0  0  0  0  0  0  0  0
  144.8772   75.2720  219.7050 H   0  0  0  0  0  0  0  0  0  0  0  0
  144.5509   74.9815  221.4587 H   0  0  0  0  0  0  0  0  0  0  0  0
  143.5190   73.7260  220.1350 N   0  0  0  0  0  0  0  0  0  0  0  0
  143.5520   73.1050  219.2930 H   0  0  0  0  0  0  0  0  0  0  0  0
  142.4220   73.7770  220.8410 C   0  0  0  0  0  0  0  0  0  0  0  0
  142.0080   72.6930  221.5500 N   0  0  0  0  0  0  0  0  0  0  0  0
  140.8670   72.7330  222.2840 C   0  0  0  0  0  0  0  0  0  0  0  0
  140.4380   71.5710  223.0250 N   0  0  0  0  0  0  0  0  0  0  0  0
  140.7150   71.5210  224.4740 C   0  0  0  0  0  0  0  0  0  0  0  0
  141.7988   71.6343  224.6243 H   0  0  0  0  0  0  0  0  0  0  0  0
  140.1388   72.3344  224.9391 H   0  0  0  0  0  0  0  0  0  0  0  0
  140.2740   70.2350  225.1340 C   0  0  0  0  0  0  0  0  0  0  0  0
  140.7360   69.9300  226.4240 C   0  0  0  0  0  0  0  0  0  0  0  0
  141.4404   70.6087  226.9271 H   0  0  0  0  0  0  0  0  0  0  0  0
  140.3070   68.7710  227.0720 C   0  0  0  0  0  0  0  0  0  0  0  0
  140.6822   68.5340  228.0785 H   0  0  0  0  0  0  0  0  0  0  0  0
  139.4020   67.9110  226.4450 C   0  0  0  0  0  0  0  0  0  0  0  0
  139.0642   66.9986  226.9583 H   0  0  0  0  0  0  0  0  0  0  0  0
  138.9260   68.2100  225.1660 C   0  0  0  0  0  0  0  0  0  0  0  0
  138.2037   67.5381  224.6794 H   0  0  0  0  0  0  0  0  0  0  0  0
  139.3660   69.3650  224.4990 C   0  0  0  0  0  0  0  0  0  0  0  0
  138.8300   69.7060  223.1420 C   0  0  0  0  0  0  0  0  0  0  0  0
  138.5150   68.7833  222.6328 H   0  0  0  0  0  0  0  0  0  0  0  0
  137.9707   70.3836  223.2540 H   0  0  0  0  0  0  0  0  0  0  0  0
  139.9070   70.3980  222.3120 C   0  0  0  0  0  0  0  0  0  0  0  0
  140.7267   69.6897  222.1209 H   0  0  0  0  0  0  0  0  0  0  0  0
  139.4627   70.7317  221.3627 H   0  0  0  0  0  0  0  0  0  0  0  0
  140.1350   73.8760  222.3050 N   0  0  0  0  0  0  0  0  0  0  0  0
  140.5290   74.9740  221.6080 C   0  0  0  0  0  0  0  0  0  0  0  0
  139.7310   76.1770  221.6580 N   0  0  0  0  0  0  0  0  0  0  0  0
  138.3140   76.1080  222.0380 C   0  0  0  0  0  0  0  0  0  0  0  0
  137.9162   75.1150  221.7818 H   0  0  0  0  0  0  0  0  0  0  0  0
  138.2221   76.2791  223.1207 H   0  0  0  0  0  0  0  0  0  0  0  0
  137.5150   77.1850  221.2880 C   0  0  0  0  0  0  0  0  0  0  0  0
  137.4587   76.8981  220.2275 H   0  0  0  0  0  0  0  0  0  0  0  0
  136.5256   77.2376  221.7659 H   0  0  0  0  0  0  0  0  0  0  0  0
  138.1050   78.5430  221.3730 N   0  0  0  0  0  0  0  0  0  0  0  0
  138.1790   78.9420  220.4070 H   0  0  0  0  0  0  0  0  0  0  0  0
  137.4580   79.1640  221.9130 H   0  0  0  0  0  0  0  0  0  0  0  0
  139.4330   78.6050  222.0070 C   0  0  0  0  0  0  0  0  0  0  0  0
  139.8891   79.5812  221.7855 H   0  0  0  0  0  0  0  0  0  0  0  0
  139.3034   78.4687  223.0908 H   0  0  0  0  0  0  0  0  0  0  0  0
  140.3560   77.4970  221.4920 C   0  0  0  0  0  0  0  0  0  0  0  0
  140.5623   77.6666  220.4249 H   0  0  0  0  0  0  0  0  0  0  0  0
  141.2908   77.5196  222.0713 H   0  0  0  0  0  0  0  0  0  0  0  0
  141.6770   74.9200  220.8720 N   0  0  0  0  0  0  0  0  0  0  0  0
  141.9840   75.7470  220.3150 H   0  0  0  0  0  0  0  0  0  0  0  0
  145.5020   72.7470  218.2520 N   0  0  0  0  0  0  0  0  0  0  0  0
  1  2  1  0
  2  3  2  0
  3  4  1  0
  4  5  1  0
  4  6  2  0
  6  7  1  0
  7  8  1  0
  7  9  1  0
  7 10  1  0
 10 11  1  0
 10 12  1  0
 10 13  1  0
 13 14  1  0
 13 15  2  0
 15 16  1  0
 16 17  2  0
 17 18  1  0
 18 19  1  0
 19 20  1  0
 19 21  1  0
 19 22  1  0
 22 23  2  0
 23 24  1  0
 23 25  1  0
 25 26  1  0
 25 27  2  0
 27 28  1  0
 27 29  1  0
 29 30  1  0
 29 31  2  0
 31 32  1  0
 32 33  1  0
 32 34  1  0
 32 35  1  0
 35 36  1  0
 35 37  1  0
 17 38  1  0
 38 39  2  0
 39 40  1  0
 40 41  1  0
 41 42  1  0
 41 43  1  0
 41 44  1  0
 44 45  1  0
 44 46  1  0
 44 47  1  0
 47 48  1  0
 47 49  1  0
 47 50  1  0
 50 51  1  0
 50 52  1  0
 50 53  1  0
 53 54  1  0
 53 55  1  0
 39 56  1  0
 56 57  1  0
  6 58  1  0
 58  2  1  0
 56 15  1  0
 35 18  1  0
 53 40  1  0
 31 22  1  0
M  CHG  3  13   1  47   1  58  -1
M  END
>  <UniqueID>  (66) 
537

>  <SMILES>  (66) 
c1ccc2c(c1)CCN(c1nc(N3CC[NH2+]CC3)[nH]/c(=[NH+]/CCc3cnc[n-]3)n1)C2

>  <Energy>  (66) 
94.50559688052871

>  <Genealogy>  (66) 
c1ccc2c(c1)CCN(c1nc([NH2+]CCc3cnc[n-]3)nc(N3CC[NH2+]CC3)n1)C2 (protonated)
c1ccc2c(c1)CCN(c1nc(N3CC[NH2+]CC3)[nH]c(=[NH+]CCc3cnc[n-]3)n1)C2 (tautomer)
c1ccc2c(c1)CCN(c1nc(N3CC[NH2+]CC3)[nH]/c(=[NH+]/CCc3cnc[n-]3)n1)C2 (cis-trans isomerization)
c1ccc2c(c1)CCN(c1nc(N3CC[NH2+]CC3)[nH]/c(=[NH+]/CCc3cnc[n-]3)n1)C2 (3D coordinates assigned)
c1ccc2c(c1)CCN(c1nc(N3CC[NH2+]CC3)[nH]/c(=[NH+]/CCc3cnc[n-]3)n1)C2 (nonaromatic ring conformer: 94.50559688052871 kcal/mol)

>  <smiles>  (66) 
c1ccc2c(c1)CCN(c1nc(NCCc3cnc[nH]3)nc(N3CCNCC3)n1)C2

>  <score_type>  (66) 
oracle

>  <origin>  (66) 
autodockgpu

>  <m_score__min__energy>  (66) 
-7.5700000000000003

>  <m_primary>  (66) 
energy

>  <meeko>  (66) 
{"free_energy": -7.54, "intermolecular_energy": -9.33, "internal_energy": -1.12, "cluster_size": 6, "cluster_id": 1, "rank_in_cluster": 2}

>  <energy>  (66) 
-6.3

>  <cluster_rmsd>  (66) 
1.96

>  <rmsd>  (66) 
272.39

>  <cluster>  (66) 
1

$$$$
IEUOTYZOLCKWKV-RTROOMJONA-P
     RDKit          3D

 58 62  0  0  0  0  0  0  0  0999 V2000
  145.6638   70.2173  218.7953 H   0  0  0  0  0  0  0  0  0  0  0  0
  145.5590   71.3040  218.9300 C   0  0  0  0  0  0  0  0  0  0  0  0
  146.3250   72.0190  219.7810 N   0  0  0  0  0  0  0  0  0  0  0  0
  145.8820   73.2810  219.6410 C   0  0  0  0  0  0  0  0  0  0  0  0
  146.2642   74.1581  220.1837 H   0  0  0  0  0  0  0  0  0  0  0  0
  144.8730   73.2940  218.7080 C   0  0  0  0  0  0  0  0  0  0  0  0
  144.0630   74.4860  218.3020 C   0  0  0  0  0  0  0  0  0  0  0  0
  144.2164   74.6795  217.2301 H   0  0  0  0  0  0  0  0  0  0  0  0
  144.3868   75.3541  218.8949 H   0  0  0  0  0  0  0  0  0  0  0  0
  142.5740   74.2380  218.5610 C   0  0  0  0  0  0  0  0  0  0  0  0
  142.0967   73.9055  217.6274 H   0  0  0  0  0  0  0  0  0  0  0  0
  142.1181   75.1750  218.9135 H   0  0  0  0  0  0  0  0  0  0  0  0
  142.3850   73.2090  219.5900 N   0  0  0  0  0  0  0  0  0  0  0  0
  142.9200   72.3140  219.5070 H   0  0  0  0  0  0  0  0  0  0  0  0
  141.5760   73.3740  220.6010 C   0  0  0  0  0  0  0  0  0  0  0  0
  141.3240   72.3460  221.4550 N   0  0  0  0  0  0  0  0  0  0  0  0
  140.4810   72.5040  222.5080 C   0  0  0  0  0  0  0  0  0  0  0  0
  140.2190   71.4000  223.4000 N   0  0  0  0  0  0  0  0  0  0  0  0
  140.6940   71.4970  224.7950 C   0  0  0  0  0  0  0  0  0  0  0  0
  141.7808   71.6664  224.7805 H   0  0  0  0  0  0  0  0  0  0  0  0
  140.1453   72.3272  225.2638 H   0  0  0  0  0  0  0  0  0  0  0  0
  140.4150   70.2630  225.6200 C   0  0  0  0  0  0  0  0  0  0  0  0
  141.0640   70.0990  226.8540 C   0  0  0  0  0  0  0  0  0  0  0  0
  141.7936   70.8496  227.1919 H   0  0  0  0  0  0  0  0  0  0  0  0
  140.7890   68.9890  227.6550 C   0  0  0  0  0  0  0  0  0  0  0  0
  141.3106   68.8619  228.6151 H   0  0  0  0  0  0  0  0  0  0  0  0
  139.8520   68.0390  227.2390 C   0  0  0  0  0  0  0  0  0  0  0  0
  139.6347   67.1664  227.8725 H   0  0  0  0  0  0  0  0  0  0  0  0
  139.1920   68.1980  226.0190 C   0  0  0  0  0  0  0  0  0  0  0  0
  138.4468   67.4549  225.6987 H   0  0  0  0  0  0  0  0  0  0  0  0
  139.4750   69.3020  225.1990 C   0  0  0  0  0  0  0  0  0  0  0  0
  138.7410   69.4920  223.9060 C   0  0  0  0  0  0  0  0  0  0  0  0
  138.4081   68.5136  223.5293 H   0  0  0  0  0  0  0  0  0  0  0  0
  137.8706   70.1423  224.0779 H   0  0  0  0  0  0  0  0  0  0  0  0
  139.6570   70.1450  222.8750 C   0  0  0  0  0  0  0  0  0  0  0  0
  140.4785   69.4547  222.6331 H   0  0  0  0  0  0  0  0  0  0  0  0
  139.0700   70.3704  221.9724 H   0  0  0  0  0  0  0  0  0  0  0  0
  139.8860   73.7080  222.7030 N   0  0  0  0  0  0  0  0  0  0  0  0
  140.1240   74.7510  221.8660 C   0  0  0  0  0  0  0  0  0  0  0  0
  139.4800   76.0230  222.1060 N   0  0  0  0  0  0  0  0  0  0  0  0
  138.0940   76.0680  222.5860 C   0  0  0  0  0  0  0  0  0  0  0  0
  137.5652   75.1612  222.2573 H   0  0  0  0  0  0  0  0  0  0  0  0
  138.0943   76.1226  223.6846 H   0  0  0  0  0  0  0  0  0  0  0  0
  137.3810   77.3060  222.0200 C   0  0  0  0  0  0  0  0  0  0  0  0
  137.2215   77.1511  220.9427 H   0  0  0  0  0  0  0  0  0  0  0  0
  136.4382   77.4127  222.5765 H   0  0  0  0  0  0  0  0  0  0  0  0
  138.1330   78.5710  222.2030 N   0  0  0  0  0  0  0  0  0  0  0  0
  138.1910   79.0680  221.2830 H   0  0  0  0  0  0  0  0  0  0  0  0
  137.6020   79.1950  222.8550 H   0  0  0  0  0  0  0  0  0  0  0  0
  139.4980   78.4120  222.7340 C   0  0  0  0  0  0  0  0  0  0  0  0
  140.0518   79.3502  222.5821 H   0  0  0  0  0  0  0  0  0  0  0  0
  139.4249   78.1682  223.8041 H   0  0  0  0  0  0  0  0  0  0  0  0
  140.2460   77.2740  222.0330 C   0  0  0  0  0  0  0  0  0  0  0  0
  140.4008   77.5409  220.9772 H   0  0  0  0  0  0  0  0  0  0  0  0
  141.2127   77.1251  222.5363 H   0  0  0  0  0  0  0  0  0  0  0  0
  140.9720   74.5790  220.8100 N   0  0  0  0  0  0  0  0  0  0  0  0
  141.1520   75.3640  220.1460 H   0  0  0  0  0  0  0  0  0  0  0  0
  144.6530   72.0460  218.2600 N   0  0  0  0  0  0  0  0  0  0  0  0
  1  2  1  0
  2  3  2  0
  3  4  1  0
  4  5  1  0
  4  6  2  0
  6  7  1  0
  7  8  1  0
  7  9  1  0
  7 10  1  0
 10 11  1  0
 10 12  1  0
 10 13  1  0
 13 14  1  0
 13 15  2  0
 15 16  1  0
 16 17  2  0
 17 18  1  0
 18 19  1  0
 19 20  1  0
 19 21  1  0
 19 22  1  0
 22 23  2  0
 23 24  1  0
 23 25  1  0
 25 26  1  0
 25 27  2  0
 27 28  1  0
 27 29  1  0
 29 30  1  0
 29 31  2  0
 31 32  1  0
 32 33  1  0
 32 34  1  0
 32 35  1  0
 35 36  1  0
 35 37  1  0
 17 38  1  0
 38 39  2  0
 39 40  1  0
 40 41  1  0
 41 42  1  0
 41 43  1  0
 41 44  1  0
 44 45  1  0
 44 46  1  0
 44 47  1  0
 47 48  1  0
 47 49  1  0
 47 50  1  0
 50 51  1  0
 50 52  1  0
 50 53  1  0
 53 54  1  0
 53 55  1  0
 39 56  1  0
 56 57  1  0
  6 58  1  0
 58  2  1  0
 56 15  1  0
 35 18  1  0
 53 40  1  0
 31 22  1  0
M  CHG  3  13   1  47   1  58  -1
M  END
>  <UniqueID>  (67) 
537

>  <SMILES>  (67) 
c1ccc2c(c1)CCN(c1nc(N3CC[NH2+]CC3)[nH]/c(=[NH+]/CCc3cnc[n-]3)n1)C2

>  <Energy>  (67) 
94.50559688052871

>  <Genealogy>  (67) 
c1ccc2c(c1)CCN(c1nc([NH2+]CCc3cnc[n-]3)nc(N3CC[NH2+]CC3)n1)C2 (protonated)
c1ccc2c(c1)CCN(c1nc(N3CC[NH2+]CC3)[nH]c(=[NH+]CCc3cnc[n-]3)n1)C2 (tautomer)
c1ccc2c(c1)CCN(c1nc(N3CC[NH2+]CC3)[nH]/c(=[NH+]/CCc3cnc[n-]3)n1)C2 (cis-trans isomerization)
c1ccc2c(c1)CCN(c1nc(N3CC[NH2+]CC3)[nH]/c(=[NH+]/CCc3cnc[n-]3)n1)C2 (3D coordinates assigned)
c1ccc2c(c1)CCN(c1nc(N3CC[NH2+]CC3)[nH]/c(=[NH+]/CCc3cnc[n-]3)n1)C2 (nonaromatic ring conformer: 94.50559688052871 kcal/mol)

>  <smiles>  (67) 
c1ccc2c(c1)CCN(c1nc(NCCc3cnc[nH]3)nc(N3CCNCC3)n1)C2

>  <score_type>  (67) 
oracle

>  <origin>  (67) 
autodockgpu

>  <m_score__min__energy>  (67) 
-7.5700000000000003

>  <m_primary>  (67) 
energy

>  <meeko>  (67) 
{"free_energy": -7.11, "intermolecular_energy": -8.9, "internal_energy": -1.2, "cluster_size": 6, "cluster_id": 1, "rank_in_cluster": 3}

>  <energy>  (67) 
-7.48

>  <cluster_rmsd>  (67) 
0.0

>  <rmsd>  (67) 
272.33

>  <cluster>  (67) 
2

$$$$
IEUOTYZOLCKWKV-RTROOMJONA-P
     RDKit          3D

 58 62  0  0  0  0  0  0  0  0999 V2000
  138.8444   81.9785  220.4278 H   0  0  0  0  0  0  0  0  0  0  0  0
  139.7670   81.8890  221.0200 C   0  0  0  0  0  0  0  0  0  0  0  0
  140.9470   82.4160  220.6310 N   0  0  0  0  0  0  0  0  0  0  0  0
  141.7960   82.0880  221.6200 C   0  0  0  0  0  0  0  0  0  0  0  0
  142.8657   82.3417  221.6564 H   0  0  0  0  0  0  0  0  0  0  0  0
  141.1070   81.3830  222.5790 C   0  0  0  0  0  0  0  0  0  0  0  0
  141.6910   80.7760  223.8160 C   0  0  0  0  0  0  0  0  0  0  0  0
  141.2111   81.2224  224.6994 H   0  0  0  0  0  0  0  0  0  0  0  0
  142.7731   80.9729  223.8319 H   0  0  0  0  0  0  0  0  0  0  0  0
  141.4630   79.2610  223.8300 C   0  0  0  0  0  0  0  0  0  0  0  0
  140.9805   78.9782  224.7772 H   0  0  0  0  0  0  0  0  0  0  0  0
  142.4362   78.7582  223.7294 H   0  0  0  0  0  0  0  0  0  0  0  0
  140.6050   78.8500  222.7120 N   0  0  0  0  0  0  0  0  0  0  0  0
  139.5680   78.9340  222.8200 H   0  0  0  0  0  0  0  0  0  0  0  0
  141.0900   78.3860  221.5930 C   0  0  0  0  0  0  0  0  0  0  0  0
  141.4430   77.0770  221.4860 N   0  0  0  0  0  0  0  0  0  0  0  0
  141.9540   76.5840  220.3290 C   0  0  0  0  0  0  0  0  0  0  0  0
  142.3290   75.1930  220.2340 N   0  0  0  0  0  0  0  0  0  0  0  0
  143.7550   74.8620  220.0470 C   0  0  0  0  0  0  0  0  0  0  0  0
  144.1127   75.3686  219.1385 H   0  0  0  0  0  0  0  0  0  0  0  0
  144.2839   75.1978  220.9512 H   0  0  0  0  0  0  0  0  0  0  0  0
  144.0220   73.3820  219.9040 C   0  0  0  0  0  0  0  0  0  0  0  0
  145.2710   72.9510  219.4290 C   0  0  0  0  0  0  0  0  0  0  0  0
  146.0284   73.6917  219.1329 H   0  0  0  0  0  0  0  0  0  0  0  0
  145.5580   71.5870  219.3300 C   0  0  0  0  0  0  0  0  0  0  0  0
  146.5344   71.2573  218.9454 H   0  0  0  0  0  0  0  0  0  0  0  0
  144.6060   70.6420  219.7190 C   0  0  0  0  0  0  0  0  0  0  0  0
  144.8345   69.5687  219.6431 H   0  0  0  0  0  0  0  0  0  0  0  0
  143.3650   71.0580  220.2040 C   0  0  0  0  0  0  0  0  0  0  0  0
  142.6220   70.3110  220.5202 H   0  0  0  0  0  0  0  0  0  0  0  0
  143.0610   72.4270  220.2900 C   0  0  0  0  0  0  0  0  0  0  0  0
  141.7440   72.8770  220.8440 C   0  0  0  0  0  0  0  0  0  0  0  0
  140.9937   72.0886  220.6846 H   0  0  0  0  0  0  0  0  0  0  0  0
  141.8550   73.0758  221.9202 H   0  0  0  0  0  0  0  0  0  0  0  0
  141.2900   74.1550  220.1440 C   0  0  0  0  0  0  0  0  0  0  0  0
  141.0896   73.9352  219.0850 H   0  0  0  0  0  0  0  0  0  0  0  0
  140.3777   74.5234  220.6360 H   0  0  0  0  0  0  0  0  0  0  0  0
  142.1110   77.4160  219.2680 N   0  0  0  0  0  0  0  0  0  0  0  0
  141.7640   78.7280  219.3490 C   0  0  0  0  0  0  0  0  0  0  0  0
  141.9380   79.5860  218.2000 N   0  0  0  0  0  0  0  0  0  0  0  0
  141.0650   79.4360  217.0290 C   0  0  0  0  0  0  0  0  0  0  0  0
  140.7037   78.3985  216.9745 H   0  0  0  0  0  0  0  0  0  0  0  0
  140.2117   80.1236  217.1243 H   0  0  0  0  0  0  0  0  0  0  0  0
  141.8430   79.7720  215.7470 C   0  0  0  0  0  0  0  0  0  0  0  0
  142.5729   78.9694  215.5649 H   0  0  0  0  0  0  0  0  0  0  0  0
  141.1018   79.8617  214.9392 H   0  0  0  0  0  0  0  0  0  0  0  0
  142.5730   81.0620  215.8050 N   0  0  0  0  0  0  0  0  0  0  0  0
  143.5660   80.9040  215.5120 H   0  0  0  0  0  0  0  0  0  0  0  0
  142.1510   81.7250  215.1130 H   0  0  0  0  0  0  0  0  0  0  0  0
  142.5740   81.7170  217.1240 C   0  0  0  0  0  0  0  0  0  0  0  0
  143.3433   82.5032  217.1316 H   0  0  0  0  0  0  0  0  0  0  0  0
  141.5750   82.1435  217.2973 H   0  0  0  0  0  0  0  0  0  0  0  0
  142.8710   80.7200  218.2480 C   0  0  0  0  0  0  0  0  0  0  0  0
  143.8993   80.3459  218.1357 H   0  0  0  0  0  0  0  0  0  0  0  0
  142.7532   81.2327  219.2141 H   0  0  0  0  0  0  0  0  0  0  0  0
  141.2530   79.2110  220.5190 N   0  0  0  0  0  0  0  0  0  0  0  0
  140.9990   80.2200  220.6050 H   0  0  0  0  0  0  0  0  0  0  0  0
  139.8240   81.2420  222.2030 N   0  0  0  0  0  0  0  0  0  0  0  0
  1  2  1  0
  2  3  2  0
  3  4  1  0
  4  5  1  0
  4  6  2  0
  6  7  1  0
  7  8  1  0
  7  9  1  0
  7 10  1  0
 10 11  1  0
 10 12  1  0
 10 13  1  0
 13 14  1  0
 13 15  2  0
 15 16  1  0
 16 17  2  0
 17 18  1  0
 18 19  1  0
 19 20  1  0
 19 21  1  0
 19 22  1  0
 22 23  2  0
 23 24  1  0
 23 25  1  0
 25 26  1  0
 25 27  2  0
 27 28  1  0
 27 29  1  0
 29 30  1  0
 29 31  2  0
 31 32  1  0
 32 33  1  0
 32 34  1  0
 32 35  1  0
 35 36  1  0
 35 37  1  0
 17 38  1  0
 38 39  2  0
 39 40  1  0
 40 41  1  0
 41 42  1  0
 41 43  1  0
 41 44  1  0
 44 45  1  0
 44 46  1  0
 44 47  1  0
 47 48  1  0
 47 49  1  0
 47 50  1  0
 50 51  1  0
 50 52  1  0
 50 53  1  0
 53 54  1  0
 53 55  1  0
 39 56  1  0
 56 57  1  0
  6 58  1  0
 58  2  1  0
 56 15  1  0
 35 18  1  0
 53 40  1  0
 31 22  1  0
M  CHG  3  13   1  47   1  58  -1
M  END
>  <UniqueID>  (68) 
537

>  <SMILES>  (68) 
c1ccc2c(c1)CCN(c1nc(N3CC[NH2+]CC3)[nH]/c(=[NH+]/CCc3cnc[n-]3)n1)C2

>  <Energy>  (68) 
94.50559688052871

>  <Genealogy>  (68) 
c1ccc2c(c1)CCN(c1nc([NH2+]CCc3cnc[n-]3)nc(N3CC[NH2+]CC3)n1)C2 (protonated)
c1ccc2c(c1)CCN(c1nc(N3CC[NH2+]CC3)[nH]c(=[NH+]CCc3cnc[n-]3)n1)C2 (tautomer)
c1ccc2c(c1)CCN(c1nc(N3CC[NH2+]CC3)[nH]/c(=[NH+]/CCc3cnc[n-]3)n1)C2 (cis-trans isomerization)
c1ccc2c(c1)CCN(c1nc(N3CC[NH2+]CC3)[nH]/c(=[NH+]/CCc3cnc[n-]3)n1)C2 (3D coordinates assigned)
c1ccc2c(c1)CCN(c1nc(N3CC[NH2+]CC3)[nH]/c(=[NH+]/CCc3cnc[n-]3)n1)C2 (nonaromatic ring conformer: 94.50559688052871 kcal/mol)

>  <smiles>  (68) 
c1ccc2c(c1)CCN(c1nc(NCCc3cnc[nH]3)nc(N3CCNCC3)n1)C2

>  <score_type>  (68) 
oracle

>  <origin>  (68) 
autodockgpu

>  <m_score__min__energy>  (68) 
-7.5700000000000003

>  <m_primary>  (68) 
energy

>  <meeko>  (68) 
{"free_energy": -6.43, "intermolecular_energy": -8.22, "internal_energy": -2.75, "cluster_size": 5, "cluster_id": 4, "rank_in_cluster": 2}

>  <energy>  (68) 
-6.8

>  <cluster_rmsd>  (68) 
0.0

>  <rmsd>  (68) 
271.74

>  <cluster>  (68) 
3

$$$$
IEUOTYZOLCKWKV-RTROOMJONA-P
     RDKit          3D

 58 62  0  0  0  0  0  0  0  0999 V2000
  147.2403   74.4137  216.6595 H   0  0  0  0  0  0  0  0  0  0  0  0
  146.4320   73.7050  216.8930 C   0  0  0  0  0  0  0  0  0  0  0  0
  145.4980   73.3290  215.9940 N   0  0  0  0  0  0  0  0  0  0  0  0
  144.7180   72.4690  216.6710 C   0  0  0  0  0  0  0  0  0  0  0  0
  143.8355   71.9511  216.2674 H   0  0  0  0  0  0  0  0  0  0  0  0
  145.2040   72.3430  217.9500 C   0  0  0  0  0  0  0  0  0  0  0  0
  144.5920   71.5330  219.0500 C   0  0  0  0  0  0  0  0  0  0  0  0
  145.3352   70.8150  219.4269 H   0  0  0  0  0  0  0  0  0  0  0  0
  143.7157   70.9997  218.6529 H   0  0  0  0  0  0  0  0  0  0  0  0
  144.1400   72.4400  220.1990 C   0  0  0  0  0  0  0  0  0  0  0  0
  144.4877   72.0144  221.1519 H   0  0  0  0  0  0  0  0  0  0  0  0
  143.0420   72.5044  220.1848 H   0  0  0  0  0  0  0  0  0  0  0  0
  144.6910   73.7920  220.0470 N   0  0  0  0  0  0  0  0  0  0  0  0
  145.6980   73.9520  220.2840 H   0  0  0  0  0  0  0  0  0  0  0  0
  143.9720   74.7970  219.6270 C   0  0  0  0  0  0  0  0  0  0  0  0
  143.1120   75.4280  220.4710 N   0  0  0  0  0  0  0  0  0  0  0  0
  142.3540   76.4700  220.0440 C   0  0  0  0  0  0  0  0  0  0  0  0
  141.4420   77.1250  220.9510 N   0  0  0  0  0  0  0  0  0  0  0  0
  141.6840   78.5400  221.2910 C   0  0  0  0  0  0  0  0  0  0  0  0
  142.6962   78.6273  221.7127 H   0  0  0  0  0  0  0  0  0  0  0  0
  141.5637   79.1179  220.3628 H   0  0  0  0  0  0  0  0  0  0  0  0
  140.7010   79.1030  222.2910 C   0  0  0  0  0  0  0  0  0  0  0  0
  140.9840   80.3250  222.9210 C   0  0  0  0  0  0  0  0  0  0  0  0
  141.9312   80.8425  222.7091 H   0  0  0  0  0  0  0  0  0  0  0  0
  140.0710   80.8880  223.8150 C   0  0  0  0  0  0  0  0  0  0  0  0
  140.3056   81.8405  224.3128 H   0  0  0  0  0  0  0  0  0  0  0  0
  138.8600   80.2430  224.0780 C   0  0  0  0  0  0  0  0  0  0  0  0
  138.1411   80.6884  224.7815 H   0  0  0  0  0  0  0  0  0  0  0  0
  138.5620   79.0330  223.4480 C   0  0  0  0  0  0  0  0  0  0  0  0
  137.6027   78.5333  223.6479 H   0  0  0  0  0  0  0  0  0  0  0  0
  139.4820   78.4510  222.5600 C   0  0  0  0  0  0  0  0  0  0  0  0
  139.1480   77.1710  221.8560 C   0  0  0  0  0  0  0  0  0  0  0  0
  138.4297   76.5991  222.4618 H   0  0  0  0  0  0  0  0  0  0  0  0
  138.7080   77.4034  220.8750 H   0  0  0  0  0  0  0  0  0  0  0  0
  140.4120   76.3400  221.6530 C   0  0  0  0  0  0  0  0  0  0  0  0
  140.8010   76.0283  222.6336 H   0  0  0  0  0  0  0  0  0  0  0  0
  140.1625   75.4582  221.0446 H   0  0  0  0  0  0  0  0  0  0  0  0
  142.4630   76.8820  218.7550 N   0  0  0  0  0  0  0  0  0  0  0  0
  143.3170   76.2710  217.8940 C   0  0  0  0  0  0  0  0  0  0  0  0
  143.4150   76.7380  216.5300 N   0  0  0  0  0  0  0  0  0  0  0  0
  144.0890   75.9180  215.5160 C   0  0  0  0  0  0  0  0  0  0  0  0
  144.8404   75.2800  216.0042 H   0  0  0  0  0  0  0  0  0  0  0  0
  143.3434   75.2918  215.0043 H   0  0  0  0  0  0  0  0  0  0  0  0
  144.7820   76.8220  214.4840 C   0  0  0  0  0  0  0  0  0  0  0  0
  145.6453   77.3015  214.9685 H   0  0  0  0  0  0  0  0  0  0  0  0
  145.0732   76.1779  213.6412 H   0  0  0  0  0  0  0  0  0  0  0  0
  143.9080   77.8850  213.9300 N   0  0  0  0  0  0  0  0  0  0  0  0
  144.4020   78.8060  214.0070 H   0  0  0  0  0  0  0  0  0  0  0  0
  143.7540   77.7040  212.9100 H   0  0  0  0  0  0  0  0  0  0  0  0
  142.5900   78.0070  214.5770 C   0  0  0  0  0  0  0  0  0  0  0  0
  142.1374   78.9668  214.2873 H   0  0  0  0  0  0  0  0  0  0  0  0
  141.9653   77.1635  214.2480 H   0  0  0  0  0  0  0  0  0  0  0  0
  142.7050   77.9520  216.1030 C   0  0  0  0  0  0  0  0  0  0  0  0
  143.2577   78.8355  216.4550 H   0  0  0  0  0  0  0  0  0  0  0  0
  141.6924   77.9374  216.5324 H   0  0  0  0  0  0  0  0  0  0  0  0
  144.0710   75.2220  218.3350 N   0  0  0  0  0  0  0  0  0  0  0  0
  144.7190   74.7280  217.6810 H   0  0  0  0  0  0  0  0  0  0  0  0
  146.2820   73.1310  218.1040 N   0  0  0  0  0  0  0  0  0  0  0  0
  1  2  1  0
  2  3  2  0
  3  4  1  0
  4  5  1  0
  4  6  2  0
  6  7  1  0
  7  8  1  0
  7  9  1  0
  7 10  1  0
 10 11  1  0
 10 12  1  0
 10 13  1  0
 13 14  1  0
 13 15  2  0
 15 16  1  0
 16 17  2  0
 17 18  1  0
 18 19  1  0
 19 20  1  0
 19 21  1  0
 19 22  1  0
 22 23  2  0
 23 24  1  0
 23 25  1  0
 25 26  1  0
 25 27  2  0
 27 28  1  0
 27 29  1  0
 29 30  1  0
 29 31  2  0
 31 32  1  0
 32 33  1  0
 32 34  1  0
 32 35  1  0
 35 36  1  0
 35 37  1  0
 17 38  1  0
 38 39  2  0
 39 40  1  0
 40 41  1  0
 41 42  1  0
 41 43  1  0
 41 44  1  0
 44 45  1  0
 44 46  1  0
 44 47  1  0
 47 48  1  0
 47 49  1  0
 47 50  1  0
 50 51  1  0
 50 52  1  0
 50 53  1  0
 53 54  1  0
 53 55  1  0
 39 56  1  0
 56 57  1  0
  6 58  1  0
 58  2  1  0
 56 15  1  0
 35 18  1  0
 53 40  1  0
 31 22  1  0
M  CHG  3  13   1  47   1  58  -1
M  END
>  <UniqueID>  (69) 
537

>  <SMILES>  (69) 
c1ccc2c(c1)CCN(c1nc(N3CC[NH2+]CC3)[nH]/c(=[NH+]/CCc3cnc[n-]3)n1)C2

>  <Energy>  (69) 
94.50559688052871

>  <Genealogy>  (69) 
c1ccc2c(c1)CCN(c1nc([NH2+]CCc3cnc[n-]3)nc(N3CC[NH2+]CC3)n1)C2 (protonated)
c1ccc2c(c1)CCN(c1nc(N3CC[NH2+]CC3)[nH]c(=[NH+]CCc3cnc[n-]3)n1)C2 (tautomer)
c1ccc2c(c1)CCN(c1nc(N3CC[NH2+]CC3)[nH]/c(=[NH+]/CCc3cnc[n-]3)n1)C2 (cis-trans isomerization)
c1ccc2c(c1)CCN(c1nc(N3CC[NH2+]CC3)[nH]/c(=[NH+]/CCc3cnc[n-]3)n1)C2 (3D coordinates assigned)
c1ccc2c(c1)CCN(c1nc(N3CC[NH2+]CC3)[nH]/c(=[NH+]/CCc3cnc[n-]3)n1)C2 (nonaromatic ring conformer: 94.50559688052871 kcal/mol)

>  <smiles>  (69) 
c1ccc2c(c1)CCN(c1nc(NCCc3cnc[nH]3)nc(N3CCNCC3)n1)C2

>  <score_type>  (69) 
oracle

>  <origin>  (69) 
autodockgpu

>  <m_score__min__energy>  (69) 
-7.5700000000000003

>  <m_primary>  (69) 
energy

>  <meeko>  (69) 
{"free_energy": -6.8, "intermolecular_energy": -8.59, "internal_energy": -2.63, "cluster_size": 4, "cluster_id": 3, "rank_in_cluster": 2}

>  <energy>  (69) 
-6.8

>  <cluster_rmsd>  (69) 
0.04

>  <rmsd>  (69) 
271.74

>  <cluster>  (69) 
3

$$$$
IEUOTYZOLCKWKV-RTROOMJONA-P
     RDKit          3D

 58 62  0  0  0  0  0  0  0  0999 V2000
  147.2443   74.3571  216.6439 H   0  0  0  0  0  0  0  0  0  0  0  0
  146.4120   73.6760  216.8750 C   0  0  0  0  0  0  0  0  0  0  0  0
  145.4590   73.3450  215.9780 N   0  0  0  0  0  0  0  0  0  0  0  0
  144.6520   72.5070  216.6500 C   0  0  0  0  0  0  0  0  0  0  0  0
  143.7484   72.0269  216.2463 H   0  0  0  0  0  0  0  0  0  0  0  0
  145.1410   72.3480  217.9250 C   0  0  0  0  0  0  0  0  0  0  0  0
  144.5060   71.5480  219.0190 C   0  0  0  0  0  0  0  0  0  0  0  0
  145.2114   70.7753  219.3586 H   0  0  0  0  0  0  0  0  0  0  0  0
  143.5889   71.0803  218.6313 H   0  0  0  0  0  0  0  0  0  0  0  0
  144.1400   72.4510  220.2010 C   0  0  0  0  0  0  0  0  0  0  0  0
  144.5413   72.0126  221.1266 H   0  0  0  0  0  0  0  0  0  0  0  0
  143.0442   72.5299  220.2561 H   0  0  0  0  0  0  0  0  0  0  0  0
  144.6980   73.7970  220.0260 N   0  0  0  0  0  0  0  0  0  0  0  0
  145.7100   73.9510  220.2420 H   0  0  0  0  0  0  0  0  0  0  0  0
  143.9770   74.8030  219.6120 C   0  0  0  0  0  0  0  0  0  0  0  0
  143.1200   75.4320  220.4590 N   0  0  0  0  0  0  0  0  0  0  0  0
  142.3620   76.4770  220.0380 C   0  0  0  0  0  0  0  0  0  0  0  0
  141.4530   77.1290  220.9500 N   0  0  0  0  0  0  0  0  0  0  0  0
  141.7020   78.5410  221.3000 C   0  0  0  0  0  0  0  0  0  0  0  0
  142.7147   78.6205  221.7220 H   0  0  0  0  0  0  0  0  0  0  0  0
  141.5844   79.1262  220.3760 H   0  0  0  0  0  0  0  0  0  0  0  0
  140.7220   79.1010  222.3040 C   0  0  0  0  0  0  0  0  0  0  0  0
  141.0120   80.3170  222.9440 C   0  0  0  0  0  0  0  0  0  0  0  0
  141.9622   80.8308  222.7364 H   0  0  0  0  0  0  0  0  0  0  0  0
  140.1020   80.8780  223.8420 C   0  0  0  0  0  0  0  0  0  0  0  0
  140.3419   81.8252  224.3472 H   0  0  0  0  0  0  0  0  0  0  0  0
  138.8870   80.2380  224.1000 C   0  0  0  0  0  0  0  0  0  0  0  0
  138.1702   80.6824  224.8062 H   0  0  0  0  0  0  0  0  0  0  0  0
  138.5830   79.0340  223.4610 C   0  0  0  0  0  0  0  0  0  0  0  0
  137.6211   78.5377  223.6571 H   0  0  0  0  0  0  0  0  0  0  0  0
  139.5000   78.4540  222.5690 C   0  0  0  0  0  0  0  0  0  0  0  0
  139.1600   77.1810  221.8560 C   0  0  0  0  0  0  0  0  0  0  0  0
  138.4393   76.6081  222.4580 H   0  0  0  0  0  0  0  0  0  0  0  0
  138.7209   77.4228  220.8769 H   0  0  0  0  0  0  0  0  0  0  0  0
  140.4200   76.3450  221.6460 C   0  0  0  0  0  0  0  0  0  0  0  0
  140.8078   76.0240  222.6240 H   0  0  0  0  0  0  0  0  0  0  0  0
  140.1656   75.4693  221.0309 H   0  0  0  0  0  0  0  0  0  0  0  0
  142.4670   76.8920  218.7500 N   0  0  0  0  0  0  0  0  0  0  0  0
  143.3180   76.2820  217.8840 C   0  0  0  0  0  0  0  0  0  0  0  0
  143.4110   76.7530  216.5220 N   0  0  0  0  0  0  0  0  0  0  0  0
  144.0580   75.9240  215.4980 C   0  0  0  0  0  0  0  0  0  0  0  0
  144.8014   75.2690  215.9759 H   0  0  0  0  0  0  0  0  0  0  0  0
  143.2948   75.3150  214.9914 H   0  0  0  0  0  0  0  0  0  0  0  0
  144.7590   76.8190  214.4620 C   0  0  0  0  0  0  0  0  0  0  0  0
  145.6361   77.2798  214.9399 H   0  0  0  0  0  0  0  0  0  0  0  0
  145.0297   76.1727  213.6140 H   0  0  0  0  0  0  0  0  0  0  0  0
  143.9010   77.9000  213.9210 N   0  0  0  0  0  0  0  0  0  0  0  0
  144.4140   78.8110  213.9960 H   0  0  0  0  0  0  0  0  0  0  0  0
  143.7330   77.7270  212.9020 H   0  0  0  0  0  0  0  0  0  0  0  0
  142.5920   78.0460  214.5810 C   0  0  0  0  0  0  0  0  0  0  0  0
  142.1563   79.0160  214.2997 H   0  0  0  0  0  0  0  0  0  0  0  0
  141.9469   77.2170  214.2545 H   0  0  0  0  0  0  0  0  0  0  0  0
  142.7210   77.9820  216.1070 C   0  0  0  0  0  0  0  0  0  0  0  0
  143.2943   78.8531  216.4571 H   0  0  0  0  0  0  0  0  0  0  0  0
  141.7125   77.9852  216.5462 H   0  0  0  0  0  0  0  0  0  0  0  0
  144.0730   75.2320  218.3200 N   0  0  0  0  0  0  0  0  0  0  0  0
  144.7180   74.7390  217.6630 H   0  0  0  0  0  0  0  0  0  0  0  0
  146.2490   73.0940  218.0810 N   0  0  0  0  0  0  0  0  0  0  0  0
  1  2  1  0
  2  3  2  0
  3  4  1  0
  4  5  1  0
  4  6  2  0
  6  7  1  0
  7  8  1  0
  7  9  1  0
  7 10  1  0
 10 11  1  0
 10 12  1  0
 10 13  1  0
 13 14  1  0
 13 15  2  0
 15 16  1  0
 16 17  2  0
 17 18  1  0
 18 19  1  0
 19 20  1  0
 19 21  1  0
 19 22  1  0
 22 23  2  0
 23 24  1  0
 23 25  1  0
 25 26  1  0
 25 27  2  0
 27 28  1  0
 27 29  1  0
 29 30  1  0
 29 31  2  0
 31 32  1  0
 32 33  1  0
 32 34  1  0
 32 35  1  0
 35 36  1  0
 35 37  1  0
 17 38  1  0
 38 39  2  0
 39 40  1  0
 40 41  1  0
 41 42  1  0
 41 43  1  0
 41 44  1  0
 44 45  1  0
 44 46  1  0
 44 47  1  0
 47 48  1  0
 47 49  1  0
 47 50  1  0
 50 51  1  0
 50 52  1  0
 50 53  1  0
 53 54  1  0
 53 55  1  0
 39 56  1  0
 56 57  1  0
  6 58  1  0
 58  2  1  0
 56 15  1  0
 35 18  1  0
 53 40  1  0
 31 22  1  0
M  CHG  3  13   1  47   1  58  -1
M  END
>  <UniqueID>  (70) 
537

>  <SMILES>  (70) 
c1ccc2c(c1)CCN(c1nc(N3CC[NH2+]CC3)[nH]/c(=[NH+]/CCc3cnc[n-]3)n1)C2

>  <Energy>  (70) 
94.50559688052871

>  <Genealogy>  (70) 
c1ccc2c(c1)CCN(c1nc([NH2+]CCc3cnc[n-]3)nc(N3CC[NH2+]CC3)n1)C2 (protonated)
c1ccc2c(c1)CCN(c1nc(N3CC[NH2+]CC3)[nH]c(=[NH+]CCc3cnc[n-]3)n1)C2 (tautomer)
c1ccc2c(c1)CCN(c1nc(N3CC[NH2+]CC3)[nH]/c(=[NH+]/CCc3cnc[n-]3)n1)C2 (cis-trans isomerization)
c1ccc2c(c1)CCN(c1nc(N3CC[NH2+]CC3)[nH]/c(=[NH+]/CCc3cnc[n-]3)n1)C2 (3D coordinates assigned)
c1ccc2c(c1)CCN(c1nc(N3CC[NH2+]CC3)[nH]/c(=[NH+]/CCc3cnc[n-]3)n1)C2 (nonaromatic ring conformer: 94.50559688052871 kcal/mol)

>  <smiles>  (70) 
c1ccc2c(c1)CCN(c1nc(NCCc3cnc[nH]3)nc(N3CCNCC3)n1)C2

>  <score_type>  (70) 
oracle

>  <origin>  (70) 
autodockgpu

>  <m_score__min__energy>  (70) 
-7.5700000000000003

>  <m_primary>  (70) 
energy

>  <meeko>  (70) 
{"free_energy": -6.8, "intermolecular_energy": -8.59, "internal_energy": -2.62, "cluster_size": 4, "cluster_id": 3, "rank_in_cluster": 1}

>  <energy>  (70) 
-6.78

>  <cluster_rmsd>  (70) 
0.04

>  <rmsd>  (70) 
271.74

>  <cluster>  (70) 
3

$$$$
IEUOTYZOLCKWKV-RTROOMJONA-P
     RDKit          3D

 58 62  0  0  0  0  0  0  0  0999 V2000
  140.7050   77.0966  217.9510 H   0  0  0  0  0  0  0  0  0  0  0  0
  140.8510   77.3680  219.0070 C   0  0  0  0  0  0  0  0  0  0  0  0
  142.0650   77.6130  219.5450 N   0  0  0  0  0  0  0  0  0  0  0  0
  141.8010   77.9050  220.8310 C   0  0  0  0  0  0  0  0  0  0  0  0
  142.5493   78.1563  221.5971 H   0  0  0  0  0  0  0  0  0  0  0  0
  140.4430   77.8380  221.0310 C   0  0  0  0  0  0  0  0  0  0  0  0
  139.7330   78.0300  222.3350 C   0  0  0  0  0  0  0  0  0  0  0  0
  139.0673   78.9025  222.2598 H   0  0  0  0  0  0  0  0  0  0  0  0
  140.4798   78.1901  223.1266 H   0  0  0  0  0  0  0  0  0  0  0  0
  138.9020   76.7900  222.6810 C   0  0  0  0  0  0  0  0  0  0  0  0
  137.8561   77.0909  222.8408 H   0  0  0  0  0  0  0  0  0  0  0  0
  139.3152   76.3342  223.5929 H   0  0  0  0  0  0  0  0  0  0  0  0
  138.9570   75.8020  221.5980 N   0  0  0  0  0  0  0  0  0  0  0  0
  138.2930   75.9020  220.7950 H   0  0  0  0  0  0  0  0  0  0  0  0
  139.8030   74.8080  221.6010 C   0  0  0  0  0  0  0  0  0  0  0  0
  139.5720   73.7100  222.3680 N   0  0  0  0  0  0  0  0  0  0  0  0
  140.4480   72.6720  222.3830 C   0  0  0  0  0  0  0  0  0  0  0  0
  140.1900   71.5160  223.2080 N   0  0  0  0  0  0  0  0  0  0  0  0
  140.6860   71.5220  224.5990 C   0  0  0  0  0  0  0  0  0  0  0  0
  141.7737   71.6847  224.5792 H   0  0  0  0  0  0  0  0  0  0  0  0
  140.1512   72.3249  225.1276 H   0  0  0  0  0  0  0  0  0  0  0  0
  140.4090   70.2390  225.3480 C   0  0  0  0  0  0  0  0  0  0  0  0
  141.0740   69.9940  226.5600 C   0  0  0  0  0  0  0  0  0  0  0  0
  141.8136   70.7174  226.9338 H   0  0  0  0  0  0  0  0  0  0  0  0
  140.8020   68.8370  227.2940 C   0  0  0  0  0  0  0  0  0  0  0  0
  141.3357   68.6463  228.2368 H   0  0  0  0  0  0  0  0  0  0  0  0
  139.8530   67.9220  226.8320 C   0  0  0  0  0  0  0  0  0  0  0  0
  139.6382   67.0126  227.4124 H   0  0  0  0  0  0  0  0  0  0  0  0
  139.1770   68.1610  225.6340 C   0  0  0  0  0  0  0  0  0  0  0  0
  138.4221   67.4442  225.2785 H   0  0  0  0  0  0  0  0  0  0  0  0
  139.4570   69.3130  224.8810 C   0  0  0  0  0  0  0  0  0  0  0  0
  138.7060   69.5900  223.6140 C   0  0  0  0  0  0  0  0  0  0  0  0
  138.3601   68.6399  223.1808 H   0  0  0  0  0  0  0  0  0  0  0  0
  137.8433   70.2340  223.8399 H   0  0  0  0  0  0  0  0  0  0  0  0
  139.6120   70.3010  222.6130 C   0  0  0  0  0  0  0  0  0  0  0  0
  140.4250   69.6222  222.3160 H   0  0  0  0  0  0  0  0  0  0  0  0
  139.0141   70.5867  221.7350 H   0  0  0  0  0  0  0  0  0  0  0  0
  141.5670   72.7410  221.6180 N   0  0  0  0  0  0  0  0  0  0  0  0
  141.8190   73.8260  220.8410 C   0  0  0  0  0  0  0  0  0  0  0  0
  143.0160   73.8650  220.0330 N   0  0  0  0  0  0  0  0  0  0  0  0
  143.2390   74.9740  219.0970 C   0  0  0  0  0  0  0  0  0  0  0  0
  142.2685   75.3844  218.7812 H   0  0  0  0  0  0  0  0  0  0  0  0
  143.8301   75.7549  219.5978 H   0  0  0  0  0  0  0  0  0  0  0  0
  144.0060   74.4760  217.8630 C   0  0  0  0  0  0  0  0  0  0  0  0
  143.3327   73.8386  217.2711 H   0  0  0  0  0  0  0  0  0  0  0  0
  144.3368   75.3686  217.3119 H   0  0  0  0  0  0  0  0  0  0  0  0
  145.2250   73.6940  218.1860 N   0  0  0  0  0  0  0  0  0  0  0  0
  145.2040   72.7950  217.6490 H   0  0  0  0  0  0  0  0  0  0  0  0
  146.0680   74.2250  217.8630 H   0  0  0  0  0  0  0  0  0  0  0  0
  145.4030   73.3810  219.6150 C   0  0  0  0  0  0  0  0  0  0  0  0
  146.1648   72.5940  219.7162 H   0  0  0  0  0  0  0  0  0  0  0  0
  145.7170   74.2994  220.1326 H   0  0  0  0  0  0  0  0  0  0  0  0
  144.0970   72.8940  220.2510 C   0  0  0  0  0  0  0  0  0  0  0  0
  143.8134   71.9315  219.8002 H   0  0  0  0  0  0  0  0  0  0  0  0
  144.2539   72.7786  221.3336 H   0  0  0  0  0  0  0  0  0  0  0  0
  140.9320   74.8640  220.8360 N   0  0  0  0  0  0  0  0  0  0  0  0
  141.1190   75.7140  220.2600 H   0  0  0  0  0  0  0  0  0  0  0  0
  139.8340   77.4870  219.8850 N   0  0  0  0  0  0  0  0  0  0  0  0
  1  2  1  0
  2  3  2  0
  3  4  1  0
  4  5  1  0
  4  6  2  0
  6  7  1  0
  7  8  1  0
  7  9  1  0
  7 10  1  0
 10 11  1  0
 10 12  1  0
 10 13  1  0
 13 14  1  0
 13 15  2  0
 15 16  1  0
 16 17  2  0
 17 18  1  0
 18 19  1  0
 19 20  1  0
 19 21  1  0
 19 22  1  0
 22 23  2  0
 23 24  1  0
 23 25  1  0
 25 26  1  0
 25 27  2  0
 27 28  1  0
 27 29  1  0
 29 30  1  0
 29 31  2  0
 31 32  1  0
 32 33  1  0
 32 34  1  0
 32 35  1  0
 35 36  1  0
 35 37  1  0
 17 38  1  0
 38 39  2  0
 39 40  1  0
 40 41  1  0
 41 42  1  0
 41 43  1  0
 41 44  1  0
 44 45  1  0
 44 46  1  0
 44 47  1  0
 47 48  1  0
 47 49  1  0
 47 50  1  0
 50 51  1  0
 50 52  1  0
 50 53  1  0
 53 54  1  0
 53 55  1  0
 39 56  1  0
 56 57  1  0
  6 58  1  0
 58  2  1  0
 56 15  1  0
 35 18  1  0
 53 40  1  0
 31 22  1  0
M  CHG  3  13   1  47   1  58  -1
M  END
>  <UniqueID>  (71) 
537

>  <SMILES>  (71) 
c1ccc2c(c1)CCN(c1nc(N3CC[NH2+]CC3)[nH]/c(=[NH+]/CCc3cnc[n-]3)n1)C2

>  <Energy>  (71) 
94.50559688052871

>  <Genealogy>  (71) 
c1ccc2c(c1)CCN(c1nc([NH2+]CCc3cnc[n-]3)nc(N3CC[NH2+]CC3)n1)C2 (protonated)
c1ccc2c(c1)CCN(c1nc(N3CC[NH2+]CC3)[nH]c(=[NH+]CCc3cnc[n-]3)n1)C2 (tautomer)
c1ccc2c(c1)CCN(c1nc(N3CC[NH2+]CC3)[nH]/c(=[NH+]/CCc3cnc[n-]3)n1)C2 (cis-trans isomerization)
c1ccc2c(c1)CCN(c1nc(N3CC[NH2+]CC3)[nH]/c(=[NH+]/CCc3cnc[n-]3)n1)C2 (3D coordinates assigned)
c1ccc2c(c1)CCN(c1nc(N3CC[NH2+]CC3)[nH]/c(=[NH+]/CCc3cnc[n-]3)n1)C2 (nonaromatic ring conformer: 94.50559688052871 kcal/mol)

>  <smiles>  (71) 
c1ccc2c(c1)CCN(c1nc(NCCc3cnc[nH]3)nc(N3CCNCC3)n1)C2

>  <score_type>  (71) 
oracle

>  <origin>  (71) 
autodockgpu

>  <m_score__min__energy>  (71) 
-7.5700000000000003

>  <m_primary>  (71) 
energy

>  <meeko>  (71) 
{"free_energy": -6.31, "intermolecular_energy": -8.1, "internal_energy": -2.65, "cluster_size": 6, "cluster_id": 1, "rank_in_cluster": 5}

>  <energy>  (71) 
-6.76

>  <cluster_rmsd>  (71) 
0.06

>  <rmsd>  (71) 
271.74

>  <cluster>  (71) 
3

$$$$
IEUOTYZOLCKWKV-RTROOMJONA-P
     RDKit          3D

 58 62  0  0  0  0  0  0  0  0999 V2000
  147.1821   74.2730  220.8198 H   0  0  0  0  0  0  0  0  0  0  0  0
  146.3160   73.6890  220.4750 C   0  0  0  0  0  0  0  0  0  0  0  0
  146.3220   72.9610  219.3370 N   0  0  0  0  0  0  0  0  0  0  0  0
  145.0950   72.4140  219.2900 C   0  0  0  0  0  0  0  0  0  0  0  0
  144.7180   71.7536  218.4952 H   0  0  0  0  0  0  0  0  0  0  0  0
  144.3890   72.8160  220.3990 C   0  0  0  0  0  0  0  0  0  0  0  0
  142.9610   72.4860  220.7020 C   0  0  0  0  0  0  0  0  0  0  0  0
  142.8573   72.2822  221.7780 H   0  0  0  0  0  0  0  0  0  0  0  0
  142.6695   71.6008  220.1177 H   0  0  0  0  0  0  0  0  0  0  0  0
  142.0460   73.6540  220.3200 C   0  0  0  0  0  0  0  0  0  0  0  0
  141.0595   73.5052  220.7833 H   0  0  0  0  0  0  0  0  0  0  0  0
  141.9548   73.6854  219.2242 H   0  0  0  0  0  0  0  0  0  0  0  0
  142.6060   74.9300  220.7810 N   0  0  0  0  0  0  0  0  0  0  0  0
  143.4270   74.9120  221.4300 H   0  0  0  0  0  0  0  0  0  0  0  0
  142.1170   76.0820  220.4100 C   0  0  0  0  0  0  0  0  0  0  0  0
  141.4150   76.8470  221.2880 N   0  0  0  0  0  0  0  0  0  0  0  0
  140.8970   78.0440  220.9120 C   0  0  0  0  0  0  0  0  0  0  0  0
  140.1490   78.8410  221.8550 N   0  0  0  0  0  0  0  0  0  0  0  0
  138.7540   78.4570  222.1470 C   0  0  0  0  0  0  0  0  0  0  0  0
  138.1929   78.4420  221.2010 H   0  0  0  0  0  0  0  0  0  0  0  0
  138.7875   77.4700  222.6316 H   0  0  0  0  0  0  0  0  0  0  0  0
  138.0520   79.3940  223.1030 C   0  0  0  0  0  0  0  0  0  0  0  0
  136.6560   79.3230  223.2350 C   0  0  0  0  0  0  0  0  0  0  0  0
  136.0841   78.6139  222.6185 H   0  0  0  0  0  0  0  0  0  0  0  0
  135.9890   80.1470  224.1440 C   0  0  0  0  0  0  0  0  0  0  0  0
  134.8939   80.0935  224.2331 H   0  0  0  0  0  0  0  0  0  0  0  0
  136.7110   81.0390  224.9400 C   0  0  0  0  0  0  0  0  0  0  0  0
  136.1845   81.6860  225.6571 H   0  0  0  0  0  0  0  0  0  0  0  0
  138.1010   81.1100  224.8260 C   0  0  0  0  0  0  0  0  0  0  0  0
  138.6679   81.8050  225.4628 H   0  0  0  0  0  0  0  0  0  0  0  0
  138.7780   80.2980  223.9020 C   0  0  0  0  0  0  0  0  0  0  0  0
  140.2730   80.3460  223.8040 C   0  0  0  0  0  0  0  0  0  0  0  0
  140.6277   81.3347  224.1305 H   0  0  0  0  0  0  0  0  0  0  0  0
  140.7018   79.5639  224.4477 H   0  0  0  0  0  0  0  0  0  0  0  0
  140.7110   80.1030  222.3620 C   0  0  0  0  0  0  0  0  0  0  0  0
  140.3594   80.9338  221.7326 H   0  0  0  0  0  0  0  0  0  0  0  0
  141.8087   80.0398  222.3310 H   0  0  0  0  0  0  0  0  0  0  0  0
  141.0880   78.4760  219.6400 N   0  0  0  0  0  0  0  0  0  0  0  0
  141.7880   77.7320  218.7440 C   0  0  0  0  0  0  0  0  0  0  0  0
  141.9790   78.2240  217.3990 N   0  0  0  0  0  0  0  0  0  0  0  0
  141.9920   77.2890  216.2670 C   0  0  0  0  0  0  0  0  0  0  0  0
  142.3254   76.3002  216.6151 H   0  0  0  0  0  0  0  0  0  0  0  0
  140.9775   77.2148  215.8485 H   0  0  0  0  0  0  0  0  0  0  0  0
  142.9510   77.7950  215.1780 C   0  0  0  0  0  0  0  0  0  0  0  0
  143.9816   77.6876  215.5473 H   0  0  0  0  0  0  0  0  0  0  0  0
  142.7587   77.1915  214.2787 H   0  0  0  0  0  0  0  0  0  0  0  0
  142.7370   79.2120  214.7980 N   0  0  0  0  0  0  0  0  0  0  0  0
  143.6550   79.7170  214.8340 H   0  0  0  0  0  0  0  0  0  0  0  0
  142.4030   79.2550  213.8060 H   0  0  0  0  0  0  0  0  0  0  0  0
  141.7700   79.9420  215.6360 C   0  0  0  0  0  0  0  0  0  0  0  0
  141.8798   81.0208  215.4510 H   0  0  0  0  0  0  0  0  0  0  0  0
  140.7583   79.6000  215.3725 H   0  0  0  0  0  0  0  0  0  0  0  0
  141.9970   79.6670  217.1260 C   0  0  0  0  0  0  0  0  0  0  0  0
  142.9728   80.0782  217.4240 H   0  0  0  0  0  0  0  0  0  0  0  0
  141.1888   80.1443  217.6996 H   0  0  0  0  0  0  0  0  0  0  0  0
  142.3010   76.5290  219.1340 N   0  0  0  0  0  0  0  0  0  0  0  0
  142.8250   75.9350  218.4540 H   0  0  0  0  0  0  0  0  0  0  0  0
  145.1490   73.6330  221.1490 N   0  0  0  0  0  0  0  0  0  0  0  0
  1  2  1  0
  2  3  2  0
  3  4  1  0
  4  5  1  0
  4  6  2  0
  6  7  1  0
  7  8  1  0
  7  9  1  0
  7 10  1  0
 10 11  1  0
 10 12  1  0
 10 13  1  0
 13 14  1  0
 13 15  2  0
 15 16  1  0
 16 17  2  0
 17 18  1  0
 18 19  1  0
 19 20  1  0
 19 21  1  0
 19 22  1  0
 22 23  2  0
 23 24  1  0
 23 25  1  0
 25 26  1  0
 25 27  2  0
 27 28  1  0
 27 29  1  0
 29 30  1  0
 29 31  2  0
 31 32  1  0
 32 33  1  0
 32 34  1  0
 32 35  1  0
 35 36  1  0
 35 37  1  0
 17 38  1  0
 38 39  2  0
 39 40  1  0
 40 41  1  0
 41 42  1  0
 41 43  1  0
 41 44  1  0
 44 45  1  0
 44 46  1  0
 44 47  1  0
 47 48  1  0
 47 49  1  0
 47 50  1  0
 50 51  1  0
 50 52  1  0
 50 53  1  0
 53 54  1  0
 53 55  1  0
 39 56  1  0
 56 57  1  0
  6 58  1  0
 58  2  1  0
 56 15  1  0
 35 18  1  0
 53 40  1  0
 31 22  1  0
M  CHG  3  13   1  47   1  58  -1
M  END
>  <UniqueID>  (72) 
537

>  <SMILES>  (72) 
c1ccc2c(c1)CCN(c1nc(N3CC[NH2+]CC3)[nH]/c(=[NH+]/CCc3cnc[n-]3)n1)C2

>  <Energy>  (72) 
94.50559688052871

>  <Genealogy>  (72) 
c1ccc2c(c1)CCN(c1nc([NH2+]CCc3cnc[n-]3)nc(N3CC[NH2+]CC3)n1)C2 (protonated)
c1ccc2c(c1)CCN(c1nc(N3CC[NH2+]CC3)[nH]c(=[NH+]CCc3cnc[n-]3)n1)C2 (tautomer)
c1ccc2c(c1)CCN(c1nc(N3CC[NH2+]CC3)[nH]/c(=[NH+]/CCc3cnc[n-]3)n1)C2 (cis-trans isomerization)
c1ccc2c(c1)CCN(c1nc(N3CC[NH2+]CC3)[nH]/c(=[NH+]/CCc3cnc[n-]3)n1)C2 (3D coordinates assigned)
c1ccc2c(c1)CCN(c1nc(N3CC[NH2+]CC3)[nH]/c(=[NH+]/CCc3cnc[n-]3)n1)C2 (nonaromatic ring conformer: 94.50559688052871 kcal/mol)

>  <smiles>  (72) 
c1ccc2c(c1)CCN(c1nc(NCCc3cnc[nH]3)nc(N3CCNCC3)n1)C2

>  <score_type>  (72) 
oracle

>  <origin>  (72) 
autodockgpu

>  <m_score__min__energy>  (72) 
-7.5700000000000003

>  <m_primary>  (72) 
energy

>  <meeko>  (72) 
{"free_energy": -7.48, "intermolecular_energy": -9.27, "internal_energy": -1.23, "cluster_size": 1, "cluster_id": 2, "rank_in_cluster": 1}

>  <energy>  (72) 
-6.44

>  <cluster_rmsd>  (72) 
0.0

>  <rmsd>  (72) 
272.6

>  <cluster>  (72) 
4

$$$$
IEUOTYZOLCKWKV-RTROOMJONA-P
     RDKit          3D

 58 62  0  0  0  0  0  0  0  0999 V2000
  138.8259   81.9865  220.4986 H   0  0  0  0  0  0  0  0  0  0  0  0
  139.7610   81.8700  221.0660 C   0  0  0  0  0  0  0  0  0  0  0  0
  140.9400   82.3870  220.6600 N   0  0  0  0  0  0  0  0  0  0  0  0
  141.8070   82.0250  221.6210 C   0  0  0  0  0  0  0  0  0  0  0  0
  142.8812   82.2611  221.6368 H   0  0  0  0  0  0  0  0  0  0  0  0
  141.1300   81.3110  222.5810 C   0  0  0  0  0  0  0  0  0  0  0  0
  141.7330   80.6680  223.7910 C   0  0  0  0  0  0  0  0  0  0  0  0
  141.3257   81.1447  224.6948 H   0  0  0  0  0  0  0  0  0  0  0  0
  142.8250   80.7950  223.7537 H   0  0  0  0  0  0  0  0  0  0  0  0
  141.4100   79.1710  223.8220 C   0  0  0  0  0  0  0  0  0  0  0  0
  140.8752   78.9373  224.7544 H   0  0  0  0  0  0  0  0  0  0  0  0
  142.3529   78.6070  223.7679 H   0  0  0  0  0  0  0  0  0  0  0  0
  140.5710   78.7920  222.6790 N   0  0  0  0  0  0  0  0  0  0  0  0
  139.5330   78.8870  222.7670 H   0  0  0  0  0  0  0  0  0  0  0  0
  141.0750   78.3440  221.5610 C   0  0  0  0  0  0  0  0  0  0  0  0
  141.4500   77.0420  221.4480 N   0  0  0  0  0  0  0  0  0  0  0  0
  141.9800   76.5660  220.2930 C   0  0  0  0  0  0  0  0  0  0  0  0
  142.3800   75.1830  220.1930 N   0  0  0  0  0  0  0  0  0  0  0  0
  143.8180   74.8750  220.0630 C   0  0  0  0  0  0  0  0  0  0  0  0
  144.2072   75.4017  219.1792 H   0  0  0  0  0  0  0  0  0  0  0  0
  144.3020   75.2030  220.9947 H   0  0  0  0  0  0  0  0  0  0  0  0
  144.1130   73.4010  219.9080 C   0  0  0  0  0  0  0  0  0  0  0  0
  145.3880   72.9960  219.4820 C   0  0  0  0  0  0  0  0  0  0  0  0
  146.1463   73.7525  219.2316 H   0  0  0  0  0  0  0  0  0  0  0  0
  145.7000   71.6390  219.3740 C   0  0  0  0  0  0  0  0  0  0  0  0
  146.6974   71.3300  219.0281 H   0  0  0  0  0  0  0  0  0  0  0  0
  144.7460   70.6740  219.7050 C   0  0  0  0  0  0  0  0  0  0  0  0
  144.9938   69.6055  219.6221 H   0  0  0  0  0  0  0  0  0  0  0  0
  143.4780   71.0640  220.1410 C   0  0  0  0  0  0  0  0  0  0  0  0
  142.7328   70.3015  220.4117 H   0  0  0  0  0  0  0  0  0  0  0  0
  143.1510   72.4270  220.2350 C   0  0  0  0  0  0  0  0  0  0  0  0
  141.8030   72.8480  220.7370 C   0  0  0  0  0  0  0  0  0  0  0  0
  141.0729   72.0515  220.5308 H   0  0  0  0  0  0  0  0  0  0  0  0
  141.8627   73.0296  221.8203 H   0  0  0  0  0  0  0  0  0  0  0  0
  141.3610   74.1310  220.0390 C   0  0  0  0  0  0  0  0  0  0  0  0
  141.2112   73.9269  218.9685 H   0  0  0  0  0  0  0  0  0  0  0  0
  140.4221   74.4775  220.4956 H   0  0  0  0  0  0  0  0  0  0  0  0
  142.1330   77.4080  219.2400 N   0  0  0  0  0  0  0  0  0  0  0  0
  141.7620   78.7130  219.3260 C   0  0  0  0  0  0  0  0  0  0  0  0
  141.9320   79.5820  218.1840 N   0  0  0  0  0  0  0  0  0  0  0  0
  141.0460   79.4520  217.0210 C   0  0  0  0  0  0  0  0  0  0  0  0
  140.6751   78.4183  216.9593 H   0  0  0  0  0  0  0  0  0  0  0  0
  140.1998   80.1459  217.1324 H   0  0  0  0  0  0  0  0  0  0  0  0
  141.8140   79.7950  215.7340 C   0  0  0  0  0  0  0  0  0  0  0  0
  142.5353   78.9884  215.5361 H   0  0  0  0  0  0  0  0  0  0  0  0
  141.0655   79.8991  214.9347 H   0  0  0  0  0  0  0  0  0  0  0  0
  142.5550   81.0780  215.7980 N   0  0  0  0  0  0  0  0  0  0  0  0
  143.5440   80.9150  215.4940 H   0  0  0  0  0  0  0  0  0  0  0  0
  142.1320   81.7520  215.1180 H   0  0  0  0  0  0  0  0  0  0  0  0
  142.5750   81.7190  217.1240 C   0  0  0  0  0  0  0  0  0  0  0  0
  143.3510   82.4985  217.1320 H   0  0  0  0  0  0  0  0  0  0  0  0
  141.5814   82.1520  217.3120 H   0  0  0  0  0  0  0  0  0  0  0  0
  142.8750   80.7070  218.2350 C   0  0  0  0  0  0  0  0  0  0  0  0
  143.8989   80.3254  218.1084 H   0  0  0  0  0  0  0  0  0  0  0  0
  142.7715   81.2101  219.2077 H   0  0  0  0  0  0  0  0  0  0  0  0
  141.2330   79.1800  220.4940 N   0  0  0  0  0  0  0  0  0  0  0  0
  140.9610   80.1830  220.5850 H   0  0  0  0  0  0  0  0  0  0  0  0
  139.8370   81.1970  222.2330 N   0  0  0  0  0  0  0  0  0  0  0  0
  1  2  1  0
  2  3  2  0
  3  4  1  0
  4  5  1  0
  4  6  2  0
  6  7  1  0
  7  8  1  0
  7  9  1  0
  7 10  1  0
 10 11  1  0
 10 12  1  0
 10 13  1  0
 13 14  1  0
 13 15  2  0
 15 16  1  0
 16 17  2  0
 17 18  1  0
 18 19  1  0
 19 20  1  0
 19 21  1  0
 19 22  1  0
 22 23  2  0
 23 24  1  0
 23 25  1  0
 25 26  1  0
 25 27  2  0
 27 28  1  0
 27 29  1  0
 29 30  1  0
 29 31  2  0
 31 32  1  0
 32 33  1  0
 32 34  1  0
 32 35  1  0
 35 36  1  0
 35 37  1  0
 17 38  1  0
 38 39  2  0
 39 40  1  0
 40 41  1  0
 41 42  1  0
 41 43  1  0
 41 44  1  0
 44 45  1  0
 44 46  1  0
 44 47  1  0
 47 48  1  0
 47 49  1  0
 47 50  1  0
 50 51  1  0
 50 52  1  0
 50 53  1  0
 53 54  1  0
 53 55  1  0
 39 56  1  0
 56 57  1  0
  6 58  1  0
 58  2  1  0
 56 15  1  0
 35 18  1  0
 53 40  1  0
 31 22  1  0
M  CHG  3  13   1  47   1  58  -1
M  END
>  <UniqueID>  (73) 
537

>  <SMILES>  (73) 
c1ccc2c(c1)CCN(c1nc(N3CC[NH2+]CC3)[nH]/c(=[NH+]/CCc3cnc[n-]3)n1)C2

>  <Energy>  (73) 
94.50559688052871

>  <Genealogy>  (73) 
c1ccc2c(c1)CCN(c1nc([NH2+]CCc3cnc[n-]3)nc(N3CC[NH2+]CC3)n1)C2 (protonated)
c1ccc2c(c1)CCN(c1nc(N3CC[NH2+]CC3)[nH]c(=[NH+]CCc3cnc[n-]3)n1)C2 (tautomer)
c1ccc2c(c1)CCN(c1nc(N3CC[NH2+]CC3)[nH]/c(=[NH+]/CCc3cnc[n-]3)n1)C2 (cis-trans isomerization)
c1ccc2c(c1)CCN(c1nc(N3CC[NH2+]CC3)[nH]/c(=[NH+]/CCc3cnc[n-]3)n1)C2 (3D coordinates assigned)
c1ccc2c(c1)CCN(c1nc(N3CC[NH2+]CC3)[nH]/c(=[NH+]/CCc3cnc[n-]3)n1)C2 (nonaromatic ring conformer: 94.50559688052871 kcal/mol)

>  <smiles>  (73) 
c1ccc2c(c1)CCN(c1nc(NCCc3cnc[nH]3)nc(N3CCNCC3)n1)C2

>  <score_type>  (73) 
oracle

>  <origin>  (73) 
autodockgpu

>  <m_score__min__energy>  (73) 
-7.5700000000000003

>  <m_primary>  (73) 
energy

>  <meeko>  (73) 
{"free_energy": -6.44, "intermolecular_energy": -8.23, "internal_energy": -2.72, "cluster_size": 5, "cluster_id": 4, "rank_in_cluster": 1}

>  <energy>  (73) 
-6.43

>  <cluster_rmsd>  (73) 
0.08

>  <rmsd>  (73) 
272.6

>  <cluster>  (73) 
4

$$$$
IEUOTYZOLCKWKV-RTROOMJONA-P
     RDKit          3D

 58 62  0  0  0  0  0  0  0  0999 V2000
  138.8598   82.0326  220.4234 H   0  0  0  0  0  0  0  0  0  0  0  0
  139.7850   81.9450  221.0120 C   0  0  0  0  0  0  0  0  0  0  0  0
  140.9660   82.4650  220.6130 N   0  0  0  0  0  0  0  0  0  0  0  0
  141.8180   82.1420  221.6010 C   0  0  0  0  0  0  0  0  0  0  0  0
  142.8887   82.3923  221.6306 H   0  0  0  0  0  0  0  0  0  0  0  0
  141.1310   81.4470  222.5690 C   0  0  0  0  0  0  0  0  0  0  0  0
  141.7190   80.8480  223.8080 C   0  0  0  0  0  0  0  0  0  0  0  0
  141.2425   81.3006  224.6901 H   0  0  0  0  0  0  0  0  0  0  0  0
  142.8013   81.0443  223.8187 H   0  0  0  0  0  0  0  0  0  0  0  0
  141.4900   79.3330  223.8330 C   0  0  0  0  0  0  0  0  0  0  0  0
  141.0121   79.0567  224.7844 H   0  0  0  0  0  0  0  0  0  0  0  0
  142.4624   78.8290  223.7307 H   0  0  0  0  0  0  0  0  0  0  0  0
  140.6260   78.9150  222.7220 N   0  0  0  0  0  0  0  0  0  0  0  0
  139.5890   78.9970  222.8360 H   0  0  0  0  0  0  0  0  0  0  0  0
  141.1060   78.4490  221.6020 C   0  0  0  0  0  0  0  0  0  0  0  0
  141.4530   77.1380  221.4940 N   0  0  0  0  0  0  0  0  0  0  0  0
  141.9580   76.6430  220.3350 C   0  0  0  0  0  0  0  0  0  0  0  0
  142.3270   75.2510  220.2400 N   0  0  0  0  0  0  0  0  0  0  0  0
  143.7540   74.9120  220.0770 C   0  0  0  0  0  0  0  0  0  0  0  0
  144.1311   75.4211  219.1778 H   0  0  0  0  0  0  0  0  0  0  0  0
  144.2682   75.2397  220.9925 H   0  0  0  0  0  0  0  0  0  0  0  0
  144.0150   73.4310  219.9310 C   0  0  0  0  0  0  0  0  0  0  0  0
  145.2700   72.9950  219.4760 C   0  0  0  0  0  0  0  0  0  0  0  0
  146.0365   73.7328  219.1966 H   0  0  0  0  0  0  0  0  0  0  0  0
  145.5510   71.6310  219.3760 C   0  0  0  0  0  0  0  0  0  0  0  0
  146.5328   71.2979  219.0085 H   0  0  0  0  0  0  0  0  0  0  0  0
  144.5870   70.6890  219.7420 C   0  0  0  0  0  0  0  0  0  0  0  0
  144.8110   69.6148  219.6647 H   0  0  0  0  0  0  0  0  0  0  0  0
  143.3390   71.1100  220.2060 C   0  0  0  0  0  0  0  0  0  0  0  0
  142.5856   70.3658  220.5037 H   0  0  0  0  0  0  0  0  0  0  0  0
  143.0420   72.4800  220.2940 C   0  0  0  0  0  0  0  0  0  0  0  0
  141.7170   72.9340  220.8260 C   0  0  0  0  0  0  0  0  0  0  0  0
  140.9656   72.1507  220.6478 H   0  0  0  0  0  0  0  0  0  0  0  0
  141.8088   73.1258  221.9053 H   0  0  0  0  0  0  0  0  0  0  0  0
  141.2830   74.2190  220.1250 C   0  0  0  0  0  0  0  0  0  0  0  0
  141.1006   74.0064  219.0613 H   0  0  0  0  0  0  0  0  0  0  0  0
  140.3640   74.5900  220.6023 H   0  0  0  0  0  0  0  0  0  0  0  0
  142.1150   77.4740  219.2740 N   0  0  0  0  0  0  0  0  0  0  0  0
  141.7730   78.7870  219.3560 C   0  0  0  0  0  0  0  0  0  0  0  0
  141.9470   79.6440  218.2050 N   0  0  0  0  0  0  0  0  0  0  0  0
  141.0210   79.5510  217.0700 C   0  0  0  0  0  0  0  0  0  0  0  0
  140.6021   78.5349  217.0241 H   0  0  0  0  0  0  0  0  0  0  0  0
  140.2111   80.2831  217.2043 H   0  0  0  0  0  0  0  0  0  0  0  0
  141.7630   79.8550  215.7590 C   0  0  0  0  0  0  0  0  0  0  0  0
  142.4399   79.0156  215.5419 H   0  0  0  0  0  0  0  0  0  0  0  0
  140.9955   79.9915  214.9830 H   0  0  0  0  0  0  0  0  0  0  0  0
  142.5640   81.1030  215.7950 N   0  0  0  0  0  0  0  0  0  0  0  0
  143.5340   80.8940  215.4600 H   0  0  0  0  0  0  0  0  0  0  0  0
  142.1510   81.7940  215.1250 H   0  0  0  0  0  0  0  0  0  0  0  0
  142.6540   81.7460  217.1170 C   0  0  0  0  0  0  0  0  0  0  0  0
  143.4644   82.4896  217.0979 H   0  0  0  0  0  0  0  0  0  0  0  0
  141.6873   82.2241  217.3337 H   0  0  0  0  0  0  0  0  0  0  0  0
  142.9420   80.7250  218.2220 C   0  0  0  0  0  0  0  0  0  0  0  0
  143.9429   80.2965  218.0653 H   0  0  0  0  0  0  0  0  0  0  0  0
  142.8923   81.2350  219.1953 H   0  0  0  0  0  0  0  0  0  0  0  0
  141.2690   79.2730  220.5270 N   0  0  0  0  0  0  0  0  0  0  0  0
  141.0190   80.2830  220.6130 H   0  0  0  0  0  0  0  0  0  0  0  0
  139.8460   81.3080  222.2000 N   0  0  0  0  0  0  0  0  0  0  0  0
  1  2  1  0
  2  3  2  0
  3  4  1  0
  4  5  1  0
  4  6  2  0
  6  7  1  0
  7  8  1  0
  7  9  1  0
  7 10  1  0
 10 11  1  0
 10 12  1  0
 10 13  1  0
 13 14  1  0
 13 15  2  0
 15 16  1  0
 16 17  2  0
 17 18  1  0
 18 19  1  0
 19 20  1  0
 19 21  1  0
 19 22  1  0
 22 23  2  0
 23 24  1  0
 23 25  1  0
 25 26  1  0
 25 27  2  0
 27 28  1  0
 27 29  1  0
 29 30  1  0
 29 31  2  0
 31 32  1  0
 32 33  1  0
 32 34  1  0
 32 35  1  0
 35 36  1  0
 35 37  1  0
 17 38  1  0
 38 39  2  0
 39 40  1  0
 40 41  1  0
 41 42  1  0
 41 43  1  0
 41 44  1  0
 44 45  1  0
 44 46  1  0
 44 47  1  0
 47 48  1  0
 47 49  1  0
 47 50  1  0
 50 51  1  0
 50 52  1  0
 50 53  1  0
 53 54  1  0
 53 55  1  0
 39 56  1  0
 56 57  1  0
  6 58  1  0
 58  2  1  0
 56 15  1  0
 35 18  1  0
 53 40  1  0
 31 22  1  0
M  CHG  3  13   1  47   1  58  -1
M  END
>  <UniqueID>  (74) 
537

>  <SMILES>  (74) 
c1ccc2c(c1)CCN(c1nc(N3CC[NH2+]CC3)[nH]/c(=[NH+]/CCc3cnc[n-]3)n1)C2

>  <Energy>  (74) 
94.50559688052871

>  <Genealogy>  (74) 
c1ccc2c(c1)CCN(c1nc([NH2+]CCc3cnc[n-]3)nc(N3CC[NH2+]CC3)n1)C2 (protonated)
c1ccc2c(c1)CCN(c1nc(N3CC[NH2+]CC3)[nH]c(=[NH+]CCc3cnc[n-]3)n1)C2 (tautomer)
c1ccc2c(c1)CCN(c1nc(N3CC[NH2+]CC3)[nH]/c(=[NH+]/CCc3cnc[n-]3)n1)C2 (cis-trans isomerization)
c1ccc2c(c1)CCN(c1nc(N3CC[NH2+]CC3)[nH]/c(=[NH+]/CCc3cnc[n-]3)n1)C2 (3D coordinates assigned)
c1ccc2c(c1)CCN(c1nc(N3CC[NH2+]CC3)[nH]/c(=[NH+]/CCc3cnc[n-]3)n1)C2 (nonaromatic ring conformer: 94.50559688052871 kcal/mol)

>  <smiles>  (74) 
c1ccc2c(c1)CCN(c1nc(NCCc3cnc[nH]3)nc(N3CCNCC3)n1)C2

>  <score_type>  (74) 
oracle

>  <origin>  (74) 
autodockgpu

>  <m_score__min__energy>  (74) 
-7.5700000000000003

>  <m_primary>  (74) 
energy

>  <meeko>  (74) 
{"free_energy": -6.42, "intermolecular_energy": -8.21, "internal_energy": -2.75, "cluster_size": 5, "cluster_id": 4, "rank_in_cluster": 3}

>  <energy>  (74) 
-6.42

>  <cluster_rmsd>  (74) 
0.12

>  <rmsd>  (74) 
272.63

>  <cluster>  (74) 
4

$$$$
IEUOTYZOLCKWKV-RTROOMJONA-P
     RDKit          3D

 58 62  0  0  0  0  0  0  0  0999 V2000
  142.7533   74.9000  221.7161 H   0  0  0  0  0  0  0  0  0  0  0  0
  141.7950   74.7090  221.2110 C   0  0  0  0  0  0  0  0  0  0  0  0
  141.6370   74.7900  219.8720 N   0  0  0  0  0  0  0  0  0  0  0  0
  140.3430   74.4850  219.6740 C   0  0  0  0  0  0  0  0  0  0  0  0
  139.8344   74.4520  218.6992 H   0  0  0  0  0  0  0  0  0  0  0  0
  139.7600   74.2210  220.8910 C   0  0  0  0  0  0  0  0  0  0  0  0
  138.3160   73.9040  221.1260 C   0  0  0  0  0  0  0  0  0  0  0  0
  138.2367   72.9267  221.6246 H   0  0  0  0  0  0  0  0  0  0  0  0
  137.7956   73.8796  220.1572 H   0  0  0  0  0  0  0  0  0  0  0  0
  137.6670   74.9740  222.0090 C   0  0  0  0  0  0  0  0  0  0  0  0
  137.0212   74.4841  222.7526 H   0  0  0  0  0  0  0  0  0  0  0  0
  137.0758   75.6459  221.3695 H   0  0  0  0  0  0  0  0  0  0  0  0
  138.6860   75.7670  222.7060 N   0  0  0  0  0  0  0  0  0  0  0  0
  139.1880   75.3360  223.5170 H   0  0  0  0  0  0  0  0  0  0  0  0
  138.9880   76.9860  222.3500 C   0  0  0  0  0  0  0  0  0  0  0  0
  138.3710   78.0470  222.9350 N   0  0  0  0  0  0  0  0  0  0  0  0
  138.6720   79.3190  222.5690 C   0  0  0  0  0  0  0  0  0  0  0  0
  138.0030   80.4340  223.1960 N   0  0  0  0  0  0  0  0  0  0  0  0
  138.0310   80.5310  224.6690 C   0  0  0  0  0  0  0  0  0  0  0  0
  137.6054   79.6063  225.0860 H   0  0  0  0  0  0  0  0  0  0  0  0
  139.0811   80.6791  224.9613 H   0  0  0  0  0  0  0  0  0  0  0  0
  137.2510   81.7040  225.2160 C   0  0  0  0  0  0  0  0  0  0  0  0
  136.9460   81.7480  226.5860 C   0  0  0  0  0  0  0  0  0  0  0  0
  137.2444   80.9152  227.2398 H   0  0  0  0  0  0  0  0  0  0  0  0
  136.2660   82.8430  227.1230 C   0  0  0  0  0  0  0  0  0  0  0  0
  136.0213   82.8654  228.1952 H   0  0  0  0  0  0  0  0  0  0  0  0
  135.8960   83.9100  226.3010 C   0  0  0  0  0  0  0  0  0  0  0  0
  135.3626   84.7727  226.7267 H   0  0  0  0  0  0  0  0  0  0  0  0
  136.2030   83.8820  224.9390 C   0  0  0  0  0  0  0  0  0  0  0  0
  135.9199   84.7284  224.2960 H   0  0  0  0  0  0  0  0  0  0  0  0
  136.8720   82.7770  224.3870 C   0  0  0  0  0  0  0  0  0  0  0  0
  137.2350   82.7620  222.9330 C   0  0  0  0  0  0  0  0  0  0  0  0
  136.5319   83.3984  222.3756 H   0  0  0  0  0  0  0  0  0  0  0  0
  138.2598   83.1434  222.8132 H   0  0  0  0  0  0  0  0  0  0  0  0
  137.1650   81.3370  222.3910 C   0  0  0  0  0  0  0  0  0  0  0  0
  136.1223   80.9884  222.4248 H   0  0  0  0  0  0  0  0  0  0  0  0
  137.5344   81.3335  221.3549 H   0  0  0  0  0  0  0  0  0  0  0  0
  139.6040   79.5260  221.6040 N   0  0  0  0  0  0  0  0  0  0  0  0
  140.2360   78.4830  221.0060 C   0  0  0  0  0  0  0  0  0  0  0  0
  141.2290   78.7370  219.9870 N   0  0  0  0  0  0  0  0  0  0  0  0
  141.9810   79.9970  219.9880 C   0  0  0  0  0  0  0  0  0  0  0  0
  141.3782   80.7804  220.4707 H   0  0  0  0  0  0  0  0  0  0  0  0
  142.9213   79.8554  220.5409 H   0  0  0  0  0  0  0  0  0  0  0  0
  142.3030   80.4190  218.5460 C   0  0  0  0  0  0  0  0  0  0  0  0
  141.3678   80.7359  218.0614 H   0  0  0  0  0  0  0  0  0  0  0  0
  143.0432   81.2302  218.6096 H   0  0  0  0  0  0  0  0  0  0  0  0
  142.9130   79.3450  217.7250 N   0  0  0  0  0  0  0  0  0  0  0  0
  142.3840   79.2640  216.8240 H   0  0  0  0  0  0  0  0  0  0  0  0
  143.8940   79.6140  217.4820 H   0  0  0  0  0  0  0  0  0  0  0  0
  142.9480   78.0180  218.3650 C   0  0  0  0  0  0  0  0  0  0  0  0
  143.1624   77.2579  217.5993 H   0  0  0  0  0  0  0  0  0  0  0  0
  143.7310   78.0292  219.1376 H   0  0  0  0  0  0  0  0  0  0  0  0
  141.6150   77.6820  219.0390 C   0  0  0  0  0  0  0  0  0  0  0  0
  140.8355   77.5863  218.2688 H   0  0  0  0  0  0  0  0  0  0  0  0
  141.7269   76.7365  219.5900 H   0  0  0  0  0  0  0  0  0  0  0  0
  139.9230   77.2080  221.3810 N   0  0  0  0  0  0  0  0  0  0  0  0
  140.3850   76.3950  220.9190 H   0  0  0  0  0  0  0  0  0  0  0  0
  140.6680   74.3720  221.8710 N   0  0  0  0  0  0  0  0  0  0  0  0
  1  2  1  0
  2  3  2  0
  3  4  1  0
  4  5  1  0
  4  6  2  0
  6  7  1  0
  7  8  1  0
  7  9  1  0
  7 10  1  0
 10 11  1  0
 10 12  1  0
 10 13  1  0
 13 14  1  0
 13 15  2  0
 15 16  1  0
 16 17  2  0
 17 18  1  0
 18 19  1  0
 19 20  1  0
 19 21  1  0
 19 22  1  0
 22 23  2  0
 23 24  1  0
 23 25  1  0
 25 26  1  0
 25 27  2  0
 27 28  1  0
 27 29  1  0
 29 30  1  0
 29 31  2  0
 31 32  1  0
 32 33  1  0
 32 34  1  0
 32 35  1  0
 35 36  1  0
 35 37  1  0
 17 38  1  0
 38 39  2  0
 39 40  1  0
 40 41  1  0
 41 42  1  0
 41 43  1  0
 41 44  1  0
 44 45  1  0
 44 46  1  0
 44 47  1  0
 47 48  1  0
 47 49  1  0
 47 50  1  0
 50 51  1  0
 50 52  1  0
 50 53  1  0
 53 54  1  0
 53 55  1  0
 39 56  1  0
 56 57  1  0
  6 58  1  0
 58  2  1  0
 56 15  1  0
 35 18  1  0
 53 40  1  0
 31 22  1  0
M  CHG  3  13   1  47   1  58  -1
M  END
>  <UniqueID>  (75) 
537

>  <SMILES>  (75) 
c1ccc2c(c1)CCN(c1nc(N3CC[NH2+]CC3)[nH]/c(=[NH+]/CCc3cnc[n-]3)n1)C2

>  <Energy>  (75) 
94.50559688052871

>  <Genealogy>  (75) 
c1ccc2c(c1)CCN(c1nc([NH2+]CCc3cnc[n-]3)nc(N3CC[NH2+]CC3)n1)C2 (protonated)
c1ccc2c(c1)CCN(c1nc(N3CC[NH2+]CC3)[nH]c(=[NH+]CCc3cnc[n-]3)n1)C2 (tautomer)
c1ccc2c(c1)CCN(c1nc(N3CC[NH2+]CC3)[nH]/c(=[NH+]/CCc3cnc[n-]3)n1)C2 (cis-trans isomerization)
c1ccc2c(c1)CCN(c1nc(N3CC[NH2+]CC3)[nH]/c(=[NH+]/CCc3cnc[n-]3)n1)C2 (3D coordinates assigned)
c1ccc2c(c1)CCN(c1nc(N3CC[NH2+]CC3)[nH]/c(=[NH+]/CCc3cnc[n-]3)n1)C2 (nonaromatic ring conformer: 94.50559688052871 kcal/mol)

>  <smiles>  (75) 
c1ccc2c(c1)CCN(c1nc(NCCc3cnc[nH]3)nc(N3CCNCC3)n1)C2

>  <score_type>  (75) 
oracle

>  <origin>  (75) 
autodockgpu

>  <m_score__min__energy>  (75) 
-7.5700000000000003

>  <m_primary>  (75) 
energy

>  <meeko>  (75) 
{"free_energy": -6.14, "intermolecular_energy": -7.93, "internal_energy": -2.62, "cluster_size": 2, "cluster_id": 5, "rank_in_cluster": 1}

>  <energy>  (75) 
-6.39

>  <cluster_rmsd>  (75) 
0.1

>  <rmsd>  (75) 
272.62

>  <cluster>  (75) 
4

$$$$
IEUOTYZOLCKWKV-RTROOMJONA-P
     RDKit          3D

 58 62  0  0  0  0  0  0  0  0999 V2000
  140.7251   77.1261  217.9531 H   0  0  0  0  0  0  0  0  0  0  0  0
  140.8590   77.3880  219.0130 C   0  0  0  0  0  0  0  0  0  0  0  0
  142.0660   77.6290  219.5660 N   0  0  0  0  0  0  0  0  0  0  0  0
  141.7880   77.9090  220.8520 C   0  0  0  0  0  0  0  0  0  0  0  0
  142.5276   78.1537  221.6286 H   0  0  0  0  0  0  0  0  0  0  0  0
  140.4280   77.8390  221.0360 C   0  0  0  0  0  0  0  0  0  0  0  0
  139.7040   78.0180  222.3340 C   0  0  0  0  0  0  0  0  0  0  0  0
  139.0451   78.8959  222.2627 H   0  0  0  0  0  0  0  0  0  0  0  0
  140.4428   78.1620  223.1362 H   0  0  0  0  0  0  0  0  0  0  0  0
  138.8610   76.7800  222.6540 C   0  0  0  0  0  0  0  0  0  0  0  0
  137.8130   77.0842  222.7929 H   0  0  0  0  0  0  0  0  0  0  0  0
  139.2520   76.3168  223.5719 H   0  0  0  0  0  0  0  0  0  0  0  0
  138.9360   75.7980  221.5650 N   0  0  0  0  0  0  0  0  0  0  0  0
  138.2850   75.9010  220.7520 H   0  0  0  0  0  0  0  0  0  0  0  0
  139.7840   74.8060  221.5770 C   0  0  0  0  0  0  0  0  0  0  0  0
  139.5510   73.7090  222.3460 N   0  0  0  0  0  0  0  0  0  0  0  0
  140.4290   72.6740  222.3700 C   0  0  0  0  0  0  0  0  0  0  0  0
  140.1690   71.5200  223.1970 N   0  0  0  0  0  0  0  0  0  0  0  0
  140.6730   71.5230  224.5840 C   0  0  0  0  0  0  0  0  0  0  0  0
  141.7616   71.6786  224.5572 H   0  0  0  0  0  0  0  0  0  0  0  0
  140.1456   72.3292  225.1150 H   0  0  0  0  0  0  0  0  0  0  0  0
  140.3930   70.2430  225.3370 C   0  0  0  0  0  0  0  0  0  0  0  0
  141.0640   69.9930  226.5440 C   0  0  0  0  0  0  0  0  0  0  0  0
  141.8114   70.7110  226.9125 H   0  0  0  0  0  0  0  0  0  0  0  0
  140.7890   68.8390  227.2800 C   0  0  0  0  0  0  0  0  0  0  0  0
  141.3275   68.6453  228.2194 H   0  0  0  0  0  0  0  0  0  0  0  0
  139.8310   67.9300  226.8250 C   0  0  0  0  0  0  0  0  0  0  0  0
  139.6143   67.0223  227.4073 H   0  0  0  0  0  0  0  0  0  0  0  0
  139.1480   68.1730  225.6310 C   0  0  0  0  0  0  0  0  0  0  0  0
  138.3859   67.4612  225.2808 H   0  0  0  0  0  0  0  0  0  0  0  0
  139.4310   69.3230  224.8760 C   0  0  0  0  0  0  0  0  0  0  0  0
  138.6740   69.6040  223.6140 C   0  0  0  0  0  0  0  0  0  0  0  0
  138.3186   68.6560  223.1840 H   0  0  0  0  0  0  0  0  0  0  0  0
  137.8173   70.2543  223.8448 H   0  0  0  0  0  0  0  0  0  0  0  0
  139.5790   70.3080  222.6060 C   0  0  0  0  0  0  0  0  0  0  0  0
  140.3855   69.6234  222.3046 H   0  0  0  0  0  0  0  0  0  0  0  0
  138.9779   70.5968  221.7312 H   0  0  0  0  0  0  0  0  0  0  0  0
  141.5520   72.7430  221.6110 N   0  0  0  0  0  0  0  0  0  0  0  0
  141.8070   73.8260  220.8320 C   0  0  0  0  0  0  0  0  0  0  0  0
  143.0090   73.8650  220.0310 N   0  0  0  0  0  0  0  0  0  0  0  0
  143.2300   74.9670  219.0870 C   0  0  0  0  0  0  0  0  0  0  0  0
  142.2589   75.3679  218.7611 H   0  0  0  0  0  0  0  0  0  0  0  0
  143.8118   75.7573  219.5840 H   0  0  0  0  0  0  0  0  0  0  0  0
  144.0090   74.4610  217.8620 C   0  0  0  0  0  0  0  0  0  0  0  0
  143.3437   73.8132  217.2723 H   0  0  0  0  0  0  0  0  0  0  0  0
  144.3377   75.3503  217.3042 H   0  0  0  0  0  0  0  0  0  0  0  0
  145.2300   73.6910  218.2000 N   0  0  0  0  0  0  0  0  0  0  0  0
  145.2180   72.7860  217.6710 H   0  0  0  0  0  0  0  0  0  0  0  0
  146.0720   74.2230  217.8770 H   0  0  0  0  0  0  0  0  0  0  0  0
  145.4010   73.3910  219.6320 C   0  0  0  0  0  0  0  0  0  0  0  0
  146.1666   72.6091  219.7441 H   0  0  0  0  0  0  0  0  0  0  0  0
  145.7066   74.3156  220.1435 H   0  0  0  0  0  0  0  0  0  0  0  0
  144.0940   72.9020  220.2650 C   0  0  0  0  0  0  0  0  0  0  0  0
  143.8187   71.9337  219.8216 H   0  0  0  0  0  0  0  0  0  0  0  0
  144.2449   72.7973  221.3496 H   0  0  0  0  0  0  0  0  0  0  0  0
  140.9170   74.8610  220.8190 N   0  0  0  0  0  0  0  0  0  0  0  0
  141.1060   75.7100  220.2410 H   0  0  0  0  0  0  0  0  0  0  0  0
  139.8320   77.4980  219.8800 N   0  0  0  0  0  0  0  0  0  0  0  0
  1  2  1  0
  2  3  2  0
  3  4  1  0
  4  5  1  0
  4  6  2  0
  6  7  1  0
  7  8  1  0
  7  9  1  0
  7 10  1  0
 10 11  1  0
 10 12  1  0
 10 13  1  0
 13 14  1  0
 13 15  2  0
 15 16  1  0
 16 17  2  0
 17 18  1  0
 18 19  1  0
 19 20  1  0
 19 21  1  0
 19 22  1  0
 22 23  2  0
 23 24  1  0
 23 25  1  0
 25 26  1  0
 25 27  2  0
 27 28  1  0
 27 29  1  0
 29 30  1  0
 29 31  2  0
 31 32  1  0
 32 33  1  0
 32 34  1  0
 32 35  1  0
 35 36  1  0
 35 37  1  0
 17 38  1  0
 38 39  2  0
 39 40  1  0
 40 41  1  0
 41 42  1  0
 41 43  1  0
 41 44  1  0
 44 45  1  0
 44 46  1  0
 44 47  1  0
 47 48  1  0
 47 49  1  0
 47 50  1  0
 50 51  1  0
 50 52  1  0
 50 53  1  0
 53 54  1  0
 53 55  1  0
 39 56  1  0
 56 57  1  0
  6 58  1  0
 58  2  1  0
 56 15  1  0
 35 18  1  0
 53 40  1  0
 31 22  1  0
M  CHG  3  13   1  47   1  58  -1
M  END
>  <UniqueID>  (76) 
537

>  <SMILES>  (76) 
c1ccc2c(c1)CCN(c1nc(N3CC[NH2+]CC3)[nH]/c(=[NH+]/CCc3cnc[n-]3)n1)C2

>  <Energy>  (76) 
94.50559688052871

>  <Genealogy>  (76) 
c1ccc2c(c1)CCN(c1nc([NH2+]CCc3cnc[n-]3)nc(N3CC[NH2+]CC3)n1)C2 (protonated)
c1ccc2c(c1)CCN(c1nc(N3CC[NH2+]CC3)[nH]c(=[NH+]CCc3cnc[n-]3)n1)C2 (tautomer)
c1ccc2c(c1)CCN(c1nc(N3CC[NH2+]CC3)[nH]/c(=[NH+]/CCc3cnc[n-]3)n1)C2 (cis-trans isomerization)
c1ccc2c(c1)CCN(c1nc(N3CC[NH2+]CC3)[nH]/c(=[NH+]/CCc3cnc[n-]3)n1)C2 (3D coordinates assigned)
c1ccc2c(c1)CCN(c1nc(N3CC[NH2+]CC3)[nH]/c(=[NH+]/CCc3cnc[n-]3)n1)C2 (nonaromatic ring conformer: 94.50559688052871 kcal/mol)

>  <smiles>  (76) 
c1ccc2c(c1)CCN(c1nc(NCCc3cnc[nH]3)nc(N3CCNCC3)n1)C2

>  <score_type>  (76) 
oracle

>  <origin>  (76) 
autodockgpu

>  <m_score__min__energy>  (76) 
-7.5700000000000003

>  <m_primary>  (76) 
energy

>  <meeko>  (76) 
{"free_energy": -6.32, "intermolecular_energy": -8.11, "internal_energy": -2.64, "cluster_size": 6, "cluster_id": 1, "rank_in_cluster": 4}

>  <energy>  (76) 
-6.35

>  <cluster_rmsd>  (76) 
0.18

>  <rmsd>  (76) 
272.63

>  <cluster>  (76) 
4

$$$$
IEUOTYZOLCKWKV-RTROOMJONA-P
     RDKit          3D

 58 62  0  0  0  0  0  0  0  0999 V2000
  140.7878   81.2748  219.3829 H   0  0  0  0  0  0  0  0  0  0  0  0
  140.5980   82.2350  219.8850 C   0  0  0  0  0  0  0  0  0  0  0  0
  141.3600   82.7020  220.8970 N   0  0  0  0  0  0  0  0  0  0  0  0
  140.7990   83.8820  221.2140 C   0  0  0  0  0  0  0  0  0  0  0  0
  141.1429   84.5624  222.0070 H   0  0  0  0  0  0  0  0  0  0  0  0
  139.7250   84.0980  220.3840 C   0  0  0  0  0  0  0  0  0  0  0  0
  138.7860   85.2620  220.4440 C   0  0  0  0  0  0  0  0  0  0  0  0
  138.2205   85.3194  219.5022 H   0  0  0  0  0  0  0  0  0  0  0  0
  139.3703   86.1819  220.5934 H   0  0  0  0  0  0  0  0  0  0  0  0
  137.8060   85.1040  221.6110 C   0  0  0  0  0  0  0  0  0  0  0  0
  137.0113   85.8589  221.5185 H   0  0  0  0  0  0  0  0  0  0  0  0
  138.3571   85.2394  222.5533 H   0  0  0  0  0  0  0  0  0  0  0  0
  137.2010   83.7670  221.6100 N   0  0  0  0  0  0  0  0  0  0  0  0
  136.4950   83.5380  220.8720 H   0  0  0  0  0  0  0  0  0  0  0  0
  137.5120   82.8590  222.4940 C   0  0  0  0  0  0  0  0  0  0  0  0
  136.6980   82.6260  223.5580 N   0  0  0  0  0  0  0  0  0  0  0  0
  137.0140   81.6880  224.4870 C   0  0  0  0  0  0  0  0  0  0  0  0
  136.1430   81.4580  225.6140 N   0  0  0  0  0  0  0  0  0  0  0  0
  136.5920   81.8960  226.9500 C   0  0  0  0  0  0  0  0  0  0  0  0
  137.5561   81.4131  227.1676 H   0  0  0  0  0  0  0  0  0  0  0  0
  136.6684   82.9929  226.9190 H   0  0  0  0  0  0  0  0  0  0  0  0
  135.6260   81.5530  228.0600 C   0  0  0  0  0  0  0  0  0  0  0  0
  136.0520   81.6400  229.3940 C   0  0  0  0  0  0  0  0  0  0  0  0
  137.0915   81.9212  229.6183 H   0  0  0  0  0  0  0  0  0  0  0  0
  135.1650   81.3720  230.4390 C   0  0  0  0  0  0  0  0  0  0  0  0
  135.5102   81.4311  231.4817 H   0  0  0  0  0  0  0  0  0  0  0  0
  133.8400   81.0290  230.1610 C   0  0  0  0  0  0  0  0  0  0  0  0
  133.1418   80.8202  230.9850 H   0  0  0  0  0  0  0  0  0  0  0  0
  133.4010   80.9510  228.8380 C   0  0  0  0  0  0  0  0  0  0  0  0
  132.3539   80.6919  228.6226 H   0  0  0  0  0  0  0  0  0  0  0  0
  134.2910   81.2020  227.7810 C   0  0  0  0  0  0  0  0  0  0  0  0
  133.8130   81.1540  226.3620 C   0  0  0  0  0  0  0  0  0  0  0  0
  132.9480   80.4781  226.2923 H   0  0  0  0  0  0  0  0  0  0  0  0
  133.5234   82.1669  226.0454 H   0  0  0  0  0  0  0  0  0  0  0  0
  134.9260   80.6450  225.4500 C   0  0  0  0  0  0  0  0  0  0  0  0
  135.1527   79.5993  225.7052 H   0  0  0  0  0  0  0  0  0  0  0  0
  134.5893   80.7173  224.4053 H   0  0  0  0  0  0  0  0  0  0  0  0
  138.1610   80.9750  224.3430 N   0  0  0  0  0  0  0  0  0  0  0  0
  138.9890   81.1870  223.2860 C   0  0  0  0  0  0  0  0  0  0  0  0
  140.1990   80.4070  223.1590 N   0  0  0  0  0  0  0  0  0  0  0  0
  141.4370   80.8550  223.8070 C   0  0  0  0  0  0  0  0  0  0  0  0
  141.4178   81.9499  223.9114 H   0  0  0  0  0  0  0  0  0  0  0  0
  141.5148   80.3867  224.7993 H   0  0  0  0  0  0  0  0  0  0  0  0
  142.6520   80.4460  222.9600 C   0  0  0  0  0  0  0  0  0  0  0  0
  142.6616   81.0621  222.0488 H   0  0  0  0  0  0  0  0  0  0  0  0
  143.5431   80.6016  223.5859 H   0  0  0  0  0  0  0  0  0  0  0  0
  142.6540   79.0190  222.5580 N   0  0  0  0  0  0  0  0  0  0  0  0
  142.8150   78.9570  221.5240 H   0  0  0  0  0  0  0  0  0  0  0  0
  143.4580   78.5330  223.0220 H   0  0  0  0  0  0  0  0  0  0  0  0
  141.4240   78.2780  222.8850 C   0  0  0  0  0  0  0  0  0  0  0  0
  141.4165   77.3323  222.3233 H   0  0  0  0  0  0  0  0  0  0  0  0
  141.4122   78.0899  223.9687 H   0  0  0  0  0  0  0  0  0  0  0  0
  140.1710   79.0820  222.5230 C   0  0  0  0  0  0  0  0  0  0  0  0
  140.1258   79.2070  221.4311 H   0  0  0  0  0  0  0  0  0  0  0  0
  139.2861   78.5368  222.8830 H   0  0  0  0  0  0  0  0  0  0  0  0
  138.6610   82.1350  222.3610 N   0  0  0  0  0  0  0  0  0  0  0  0
  139.2950   82.3240  221.5540 H   0  0  0  0  0  0  0  0  0  0  0  0
  139.5820   83.0560  219.5470 N   0  0  0  0  0  0  0  0  0  0  0  0
  1  2  1  0
  2  3  2  0
  3  4  1  0
  4  5  1  0
  4  6  2  0
  6  7  1  0
  7  8  1  0
  7  9  1  0
  7 10  1  0
 10 11  1  0
 10 12  1  0
 10 13  1  0
 13 14  1  0
 13 15  2  0
 15 16  1  0
 16 17  2  0
 17 18  1  0
 18 19  1  0
 19 20  1  0
 19 21  1  0
 19 22  1  0
 22 23  2  0
 23 24  1  0
 23 25  1  0
 25 26  1  0
 25 27  2  0
 27 28  1  0
 27 29  1  0
 29 30  1  0
 29 31  2  0
 31 32  1  0
 32 33  1  0
 32 34  1  0
 32 35  1  0
 35 36  1  0
 35 37  1  0
 17 38  1  0
 38 39  2  0
 39 40  1  0
 40 41  1  0
 41 42  1  0
 41 43  1  0
 41 44  1  0
 44 45  1  0
 44 46  1  0
 44 47  1  0
 47 48  1  0
 47 49  1  0
 47 50  1  0
 50 51  1  0
 50 52  1  0
 50 53  1  0
 53 54  1  0
 53 55  1  0
 39 56  1  0
 56 57  1  0
  6 58  1  0
 58  2  1  0
 56 15  1  0
 35 18  1  0
 53 40  1  0
 31 22  1  0
M  CHG  3  13   1  47   1  58  -1
M  END
>  <UniqueID>  (77) 
537

>  <SMILES>  (77) 
c1ccc2c(c1)CCN(c1nc(N3CC[NH2+]CC3)[nH]/c(=[NH+]/CCc3cnc[n-]3)n1)C2

>  <Energy>  (77) 
94.50559688052871

>  <Genealogy>  (77) 
c1ccc2c(c1)CCN(c1nc([NH2+]CCc3cnc[n-]3)nc(N3CC[NH2+]CC3)n1)C2 (protonated)
c1ccc2c(c1)CCN(c1nc(N3CC[NH2+]CC3)[nH]c(=[NH+]CCc3cnc[n-]3)n1)C2 (tautomer)
c1ccc2c(c1)CCN(c1nc(N3CC[NH2+]CC3)[nH]/c(=[NH+]/CCc3cnc[n-]3)n1)C2 (cis-trans isomerization)
c1ccc2c(c1)CCN(c1nc(N3CC[NH2+]CC3)[nH]/c(=[NH+]/CCc3cnc[n-]3)n1)C2 (3D coordinates assigned)
c1ccc2c(c1)CCN(c1nc(N3CC[NH2+]CC3)[nH]/c(=[NH+]/CCc3cnc[n-]3)n1)C2 (nonaromatic ring conformer: 94.50559688052871 kcal/mol)

>  <smiles>  (77) 
c1ccc2c(c1)CCN(c1nc(NCCc3cnc[nH]3)nc(N3CCNCC3)n1)C2

>  <score_type>  (77) 
oracle

>  <origin>  (77) 
autodockgpu

>  <m_score__min__energy>  (77) 
-7.5700000000000003

>  <m_primary>  (77) 
energy

>  <meeko>  (77) 
{"free_energy": -5.88, "intermolecular_energy": -7.67, "internal_energy": -2.69, "cluster_size": 1, "cluster_id": 6, "rank_in_cluster": 1}

>  <energy>  (77) 
-6.14

>  <cluster_rmsd>  (77) 
0.0

>  <rmsd>  (77) 
273.07

>  <cluster>  (77) 
5

$$$$
IEUOTYZOLCKWKV-RTROOMJONA-P
     RDKit          3D

 58 62  0  0  0  0  0  0  0  0999 V2000
  147.3380   74.3939  216.7978 H   0  0  0  0  0  0  0  0  0  0  0  0
  146.4940   73.7090  216.9670 C   0  0  0  0  0  0  0  0  0  0  0  0
  145.5980   73.3900  216.0080 N   0  0  0  0  0  0  0  0  0  0  0  0
  144.7520   72.5420  216.6180 C   0  0  0  0  0  0  0  0  0  0  0  0
  143.8753   72.0675  216.1530 H   0  0  0  0  0  0  0  0  0  0  0  0
  145.1620   72.3650  217.9180 C   0  0  0  0  0  0  0  0  0  0  0  0
  144.4630   71.5490  218.9590 C   0  0  0  0  0  0  0  0  0  0  0  0
  145.1197   70.7245  219.2736 H   0  0  0  0  0  0  0  0  0  0  0  0
  143.5312   71.1503  218.5314 H   0  0  0  0  0  0  0  0  0  0  0  0
  144.1190   72.4120  220.1770 C   0  0  0  0  0  0  0  0  0  0  0  0
  144.5339   71.9413  221.0805 H   0  0  0  0  0  0  0  0  0  0  0  0
  143.0245   72.4918  220.2532 H   0  0  0  0  0  0  0  0  0  0  0  0
  144.6790   73.7620  220.0380 N   0  0  0  0  0  0  0  0  0  0  0  0
  145.6840   73.9150  220.2840 H   0  0  0  0  0  0  0  0  0  0  0  0
  143.9670   74.7730  219.6180 C   0  0  0  0  0  0  0  0  0  0  0  0
  143.1090   75.4070  220.4600 N   0  0  0  0  0  0  0  0  0  0  0  0
  142.3600   76.4560  220.0340 C   0  0  0  0  0  0  0  0  0  0  0  0
  141.4480   77.1140  220.9390 N   0  0  0  0  0  0  0  0  0  0  0  0
  141.6890   78.5320  221.2700 C   0  0  0  0  0  0  0  0  0  0  0  0
  142.7022   78.6234  221.6884 H   0  0  0  0  0  0  0  0  0  0  0  0
  141.5656   79.1045  220.3389 H   0  0  0  0  0  0  0  0  0  0  0  0
  140.7070   79.0990  222.2700 C   0  0  0  0  0  0  0  0  0  0  0  0
  140.9910   80.3240  222.8930 C   0  0  0  0  0  0  0  0  0  0  0  0
  141.9377   80.8408  222.6771 H   0  0  0  0  0  0  0  0  0  0  0  0
  140.0780   80.8910  223.7860 C   0  0  0  0  0  0  0  0  0  0  0  0
  140.3119   81.8467  224.2778 H   0  0  0  0  0  0  0  0  0  0  0  0
  138.8690   80.2460  224.0550 C   0  0  0  0  0  0  0  0  0  0  0  0
  138.1512   80.6942  224.7577 H   0  0  0  0  0  0  0  0  0  0  0  0
  138.5710   79.0320  223.4320 C   0  0  0  0  0  0  0  0  0  0  0  0
  137.6123   78.5326  223.6357 H   0  0  0  0  0  0  0  0  0  0  0  0
  139.4910   78.4460  222.5460 C   0  0  0  0  0  0  0  0  0  0  0  0
  139.1570   77.1620  221.8500 C   0  0  0  0  0  0  0  0  0  0  0  0
  138.4414   76.5922  222.4609 H   0  0  0  0  0  0  0  0  0  0  0  0
  138.7137   77.3883  220.8691 H   0  0  0  0  0  0  0  0  0  0  0  0
  140.4220   76.3320  221.6480 C   0  0  0  0  0  0  0  0  0  0  0  0
  140.8144   76.0266  222.6292 H   0  0  0  0  0  0  0  0  0  0  0  0
  140.1722   75.4464  221.0452 H   0  0  0  0  0  0  0  0  0  0  0  0
  142.4770   76.8710  218.7470 N   0  0  0  0  0  0  0  0  0  0  0  0
  143.3300   76.2560  217.8870 C   0  0  0  0  0  0  0  0  0  0  0  0
  143.4360   76.7270  216.5250 N   0  0  0  0  0  0  0  0  0  0  0  0
  144.1060   75.9040  215.5100 C   0  0  0  0  0  0  0  0  0  0  0  0
  144.8501   75.2575  215.9983 H   0  0  0  0  0  0  0  0  0  0  0  0
  143.3565   75.2862  214.9938 H   0  0  0  0  0  0  0  0  0  0  0  0
  144.8100   76.8050  214.4840 C   0  0  0  0  0  0  0  0  0  0  0  0
  145.6754   77.2758  214.9733 H   0  0  0  0  0  0  0  0  0  0  0  0
  145.0990   76.1611  213.6403 H   0  0  0  0  0  0  0  0  0  0  0  0
  143.9470   77.8770  213.9300 N   0  0  0  0  0  0  0  0  0  0  0  0
  144.4490   78.7930  214.0110 H   0  0  0  0  0  0  0  0  0  0  0  0
  143.7940   77.7010  212.9090 H   0  0  0  0  0  0  0  0  0  0  0  0
  142.6280   78.0080  214.5730 C   0  0  0  0  0  0  0  0  0  0  0  0
  142.1841   78.9722  214.2844 H   0  0  0  0  0  0  0  0  0  0  0  0
  141.9974   77.1706  214.2397 H   0  0  0  0  0  0  0  0  0  0  0  0
  142.7380   77.9480  216.1000 C   0  0  0  0  0  0  0  0  0  0  0  0
  143.2973   78.8257  216.4561 H   0  0  0  0  0  0  0  0  0  0  0  0
  141.7241   77.9413  216.5267 H   0  0  0  0  0  0  0  0  0  0  0  0
  144.0750   75.2010  218.3280 N   0  0  0  0  0  0  0  0  0  0  0  0
  144.7210   74.7040  217.6750 H   0  0  0  0  0  0  0  0  0  0  0  0
  146.2570   73.1090  218.1520 N   0  0  0  0  0  0  0  0  0  0  0  0
  1  2  1  0
  2  3  2  0
  3  4  1  0
  4  5  1  0
  4  6  2  0
  6  7  1  0
  7  8  1  0
  7  9  1  0
  7 10  1  0
 10 11  1  0
 10 12  1  0
 10 13  1  0
 13 14  1  0
 13 15  2  0
 15 16  1  0
 16 17  2  0
 17 18  1  0
 18 19  1  0
 19 20  1  0
 19 21  1  0
 19 22  1  0
 22 23  2  0
 23 24  1  0
 23 25  1  0
 25 26  1  0
 25 27  2  0
 27 28  1  0
 27 29  1  0
 29 30  1  0
 29 31  2  0
 31 32  1  0
 32 33  1  0
 32 34  1  0
 32 35  1  0
 35 36  1  0
 35 37  1  0
 17 38  1  0
 38 39  2  0
 39 40  1  0
 40 41  1  0
 41 42  1  0
 41 43  1  0
 41 44  1  0
 44 45  1  0
 44 46  1  0
 44 47  1  0
 47 48  1  0
 47 49  1  0
 47 50  1  0
 50 51  1  0
 50 52  1  0
 50 53  1  0
 53 54  1  0
 53 55  1  0
 39 56  1  0
 56 57  1  0
  6 58  1  0
 58  2  1  0
 56 15  1  0
 35 18  1  0
 53 40  1  0
 31 22  1  0
M  CHG  3  13   1  47   1  58  -1
M  END
>  <UniqueID>  (78) 
537

>  <SMILES>  (78) 
c1ccc2c(c1)CCN(c1nc(N3CC[NH2+]CC3)[nH]/c(=[NH+]/CCc3cnc[n-]3)n1)C2

>  <Energy>  (78) 
94.50559688052871

>  <Genealogy>  (78) 
c1ccc2c(c1)CCN(c1nc([NH2+]CCc3cnc[n-]3)nc(N3CC[NH2+]CC3)n1)C2 (protonated)
c1ccc2c(c1)CCN(c1nc(N3CC[NH2+]CC3)[nH]c(=[NH+]CCc3cnc[n-]3)n1)C2 (tautomer)
c1ccc2c(c1)CCN(c1nc(N3CC[NH2+]CC3)[nH]/c(=[NH+]/CCc3cnc[n-]3)n1)C2 (cis-trans isomerization)
c1ccc2c(c1)CCN(c1nc(N3CC[NH2+]CC3)[nH]/c(=[NH+]/CCc3cnc[n-]3)n1)C2 (3D coordinates assigned)
c1ccc2c(c1)CCN(c1nc(N3CC[NH2+]CC3)[nH]/c(=[NH+]/CCc3cnc[n-]3)n1)C2 (nonaromatic ring conformer: 94.50559688052871 kcal/mol)

>  <smiles>  (78) 
c1ccc2c(c1)CCN(c1nc(NCCc3cnc[nH]3)nc(N3CCNCC3)n1)C2

>  <score_type>  (78) 
oracle

>  <origin>  (78) 
autodockgpu

>  <m_score__min__energy>  (78) 
-7.5700000000000003

>  <m_primary>  (78) 
energy

>  <meeko>  (78) 
{"free_energy": -6.76, "intermolecular_energy": -8.55, "internal_energy": -2.63, "cluster_size": 4, "cluster_id": 3, "rank_in_cluster": 4}

>  <energy>  (78) 
-6.12

>  <cluster_rmsd>  (78) 
0.14

>  <rmsd>  (78) 
273.07

>  <cluster>  (78) 
5

$$$$
IEUOTYZOLCKWKV-RTROOMJONA-P
     RDKit          3D

 58 62  0  0  0  0  0  0  0  0999 V2000
  140.7291   77.1179  217.9404 H   0  0  0  0  0  0  0  0  0  0  0  0
  140.8690   77.3820  218.9990 C   0  0  0  0  0  0  0  0  0  0  0  0
  142.0800   77.6190  219.5460 N   0  0  0  0  0  0  0  0  0  0  0  0
  141.8090   77.9020  220.8320 C   0  0  0  0  0  0  0  0  0  0  0  0
  142.5535   78.1443  221.6047 H   0  0  0  0  0  0  0  0  0  0  0  0
  140.4500   77.8390  221.0230 C   0  0  0  0  0  0  0  0  0  0  0  0
  139.7320   78.0240  222.3240 C   0  0  0  0  0  0  0  0  0  0  0  0
  139.0717   78.9008  222.2514 H   0  0  0  0  0  0  0  0  0  0  0  0
  140.4747   78.1729  223.1216 H   0  0  0  0  0  0  0  0  0  0  0  0
  138.8920   76.7870  222.6550 C   0  0  0  0  0  0  0  0  0  0  0  0
  137.8454   77.0916  222.8026 H   0  0  0  0  0  0  0  0  0  0  0  0
  139.2914   76.3262  223.5705 H   0  0  0  0  0  0  0  0  0  0  0  0
  138.9570   75.8020  221.5680 N   0  0  0  0  0  0  0  0  0  0  0  0
  138.3040   75.9070  220.7580 H   0  0  0  0  0  0  0  0  0  0  0  0
  139.8000   74.8060  221.5780 C   0  0  0  0  0  0  0  0  0  0  0  0
  139.5600   73.7090  222.3450 N   0  0  0  0  0  0  0  0  0  0  0  0
  140.4320   72.6680  222.3680 C   0  0  0  0  0  0  0  0  0  0  0  0
  140.1650   71.5140  223.1920 N   0  0  0  0  0  0  0  0  0  0  0  0
  140.6750   71.5080  224.5770 C   0  0  0  0  0  0  0  0  0  0  0  0
  141.7649   71.6532  224.5463 H   0  0  0  0  0  0  0  0  0  0  0  0
  140.1586   72.3178  225.1132 H   0  0  0  0  0  0  0  0  0  0  0  0
  140.3850   70.2270  225.3260 C   0  0  0  0  0  0  0  0  0  0  0  0
  141.0590   69.9670  226.5290 C   0  0  0  0  0  0  0  0  0  0  0  0
  141.8150   70.6766  226.8963 H   0  0  0  0  0  0  0  0  0  0  0  0
  140.7760   68.8130  227.2630 C   0  0  0  0  0  0  0  0  0  0  0  0
  141.3157   68.6117  228.2001 H   0  0  0  0  0  0  0  0  0  0  0  0
  139.8080   67.9140  226.8080 C   0  0  0  0  0  0  0  0  0  0  0  0
  139.5855   67.0058  227.3874 H   0  0  0  0  0  0  0  0  0  0  0  0
  139.1230   68.1680  225.6180 C   0  0  0  0  0  0  0  0  0  0  0  0
  138.3527   67.4649  225.2683 H   0  0  0  0  0  0  0  0  0  0  0  0
  139.4140   69.3180  224.8660 C   0  0  0  0  0  0  0  0  0  0  0  0
  138.6540   69.6100  223.6070 C   0  0  0  0  0  0  0  0  0  0  0  0
  138.2893   68.6665  223.1748 H   0  0  0  0  0  0  0  0  0  0  0  0
  137.8034   70.2662  223.8432 H   0  0  0  0  0  0  0  0  0  0  0  0
  139.5610   70.3100  222.5990 C   0  0  0  0  0  0  0  0  0  0  0  0
  140.3599   69.6193  222.2913 H   0  0  0  0  0  0  0  0  0  0  0  0
  138.9586   70.6084  221.7283 H   0  0  0  0  0  0  0  0  0  0  0  0
  141.5570   72.7330  221.6110 N   0  0  0  0  0  0  0  0  0  0  0  0
  141.8180   73.8170  220.8340 C   0  0  0  0  0  0  0  0  0  0  0  0
  143.0220   73.8510  220.0350 N   0  0  0  0  0  0  0  0  0  0  0  0
  143.2400   74.9420  219.0770 C   0  0  0  0  0  0  0  0  0  0  0  0
  142.2678   75.3344  218.7442 H   0  0  0  0  0  0  0  0  0  0  0  0
  143.8173   75.7412  219.5648 H   0  0  0  0  0  0  0  0  0  0  0  0
  144.0230   74.4240  217.8610 C   0  0  0  0  0  0  0  0  0  0  0  0
  143.3618   73.7652  217.2789 H   0  0  0  0  0  0  0  0  0  0  0  0
  144.3484   75.3075  217.2922 H   0  0  0  0  0  0  0  0  0  0  0  0
  145.2480   73.6640  218.2110 N   0  0  0  0  0  0  0  0  0  0  0  0
  145.2410   72.7520  217.6940 H   0  0  0  0  0  0  0  0  0  0  0  0
  146.0870   74.1960  217.8830 H   0  0  0  0  0  0  0  0  0  0  0  0
  145.4170   73.3840  219.6470 C   0  0  0  0  0  0  0  0  0  0  0  0
  146.1862   72.6075  219.7714 H   0  0  0  0  0  0  0  0  0  0  0  0
  145.7168   74.3168  220.1470 H   0  0  0  0  0  0  0  0  0  0  0  0
  144.1110   72.8970  220.2830 C   0  0  0  0  0  0  0  0  0  0  0  0
  143.8414   71.9219  219.8512 H   0  0  0  0  0  0  0  0  0  0  0  0
  144.2601   72.8070  221.3691 H   0  0  0  0  0  0  0  0  0  0  0  0
  140.9350   74.8570  220.8220 N   0  0  0  0  0  0  0  0  0  0  0  0
  141.1290   75.7060  220.2470 H   0  0  0  0  0  0  0  0  0  0  0  0
  139.8460   77.4990  219.8710 N   0  0  0  0  0  0  0  0  0  0  0  0
  1  2  1  0
  2  3  2  0
  3  4  1  0
  4  5  1  0
  4  6  2  0
  6  7  1  0
  7  8  1  0
  7  9  1  0
  7 10  1  0
 10 11  1  0
 10 12  1  0
 10 13  1  0
 13 14  1  0
 13 15  2  0
 15 16  1  0
 16 17  2  0
 17 18  1  0
 18 19  1  0
 19 20  1  0
 19 21  1  0
 19 22  1  0
 22 23  2  0
 23 24  1  0
 23 25  1  0
 25 26  1  0
 25 27  2  0
 27 28  1  0
 27 29  1  0
 29 30  1  0
 29 31  2  0
 31 32  1  0
 32 33  1  0
 32 34  1  0
 32 35  1  0
 35 36  1  0
 35 37  1  0
 17 38  1  0
 38 39  2  0
 39 40  1  0
 40 41  1  0
 41 42  1  0
 41 43  1  0
 41 44  1  0
 44 45  1  0
 44 46  1  0
 44 47  1  0
 47 48  1  0
 47 49  1  0
 47 50  1  0
 50 51  1  0
 50 52  1  0
 50 53  1  0
 53 54  1  0
 53 55  1  0
 39 56  1  0
 56 57  1  0
  6 58  1  0
 58  2  1  0
 56 15  1  0
 35 18  1  0
 53 40  1  0
 31 22  1  0
M  CHG  3  13   1  47   1  58  -1
M  END
>  <UniqueID>  (79) 
537

>  <SMILES>  (79) 
c1ccc2c(c1)CCN(c1nc(N3CC[NH2+]CC3)[nH]/c(=[NH+]/CCc3cnc[n-]3)n1)C2

>  <Energy>  (79) 
94.50559688052871

>  <Genealogy>  (79) 
c1ccc2c(c1)CCN(c1nc([NH2+]CCc3cnc[n-]3)nc(N3CC[NH2+]CC3)n1)C2 (protonated)
c1ccc2c(c1)CCN(c1nc(N3CC[NH2+]CC3)[nH]c(=[NH+]CCc3cnc[n-]3)n1)C2 (tautomer)
c1ccc2c(c1)CCN(c1nc(N3CC[NH2+]CC3)[nH]/c(=[NH+]/CCc3cnc[n-]3)n1)C2 (cis-trans isomerization)
c1ccc2c(c1)CCN(c1nc(N3CC[NH2+]CC3)[nH]/c(=[NH+]/CCc3cnc[n-]3)n1)C2 (3D coordinates assigned)
c1ccc2c(c1)CCN(c1nc(N3CC[NH2+]CC3)[nH]/c(=[NH+]/CCc3cnc[n-]3)n1)C2 (nonaromatic ring conformer: 94.50559688052871 kcal/mol)

>  <smiles>  (79) 
c1ccc2c(c1)CCN(c1nc(NCCc3cnc[nH]3)nc(N3CCNCC3)n1)C2

>  <score_type>  (79) 
oracle

>  <origin>  (79) 
autodockgpu

>  <m_score__min__energy>  (79) 
-7.5700000000000003

>  <m_primary>  (79) 
energy

>  <meeko>  (79) 
{"free_energy": -6.3, "intermolecular_energy": -8.09, "internal_energy": -2.64, "cluster_size": 6, "cluster_id": 1, "rank_in_cluster": 6}

>  <energy>  (79) 
-5.88

>  <cluster_rmsd>  (79) 
0.0

>  <rmsd>  (79) 
275.06

>  <cluster>  (79) 
6

$$$$
IEUOTYZOLCKWKV-RTROOMJONA-P
     RDKit          3D

 58 62  0  0  0  0  0  0  0  0999 V2000
  138.8577   82.0706  220.3422 H   0  0  0  0  0  0  0  0  0  0  0  0
  139.7730   81.9830  220.9460 C   0  0  0  0  0  0  0  0  0  0  0  0
  140.9630   82.4900  220.5600 N   0  0  0  0  0  0  0  0  0  0  0  0
  141.7980   82.1720  221.5650 C   0  0  0  0  0  0  0  0  0  0  0  0
  142.8701   82.4145  221.6084 H   0  0  0  0  0  0  0  0  0  0  0  0
  141.0910   81.4940  222.5290 C   0  0  0  0  0  0  0  0  0  0  0  0
  141.6540   80.9040  223.7840 C   0  0  0  0  0  0  0  0  0  0  0  0
  141.1571   81.3604  224.6528 H   0  0  0  0  0  0  0  0  0  0  0  0
  142.7352   81.1038  223.8163 H   0  0  0  0  0  0  0  0  0  0  0  0
  141.4300   79.3890  223.8140 C   0  0  0  0  0  0  0  0  0  0  0  0
  140.9367   79.1167  224.7587 H   0  0  0  0  0  0  0  0  0  0  0  0
  142.4058   78.8881  223.7313 H   0  0  0  0  0  0  0  0  0  0  0  0
  140.5870   78.9610  222.6910 N   0  0  0  0  0  0  0  0  0  0  0  0
  139.5480   79.0430  222.7840 H   0  0  0  0  0  0  0  0  0  0  0  0
  141.0880   78.4850  221.5840 C   0  0  0  0  0  0  0  0  0  0  0  0
  141.4540   77.1780  221.4990 N   0  0  0  0  0  0  0  0  0  0  0  0
  141.9810   76.6730  220.3550 C   0  0  0  0  0  0  0  0  0  0  0  0
  142.3700   75.2850  220.2850 N   0  0  0  0  0  0  0  0  0  0  0  0
  143.7650   74.9640  219.9250 C   0  0  0  0  0  0  0  0  0  0  0  0
  143.9866   75.4238  218.9506 H   0  0  0  0  0  0  0  0  0  0  0  0
  144.4031   75.3574  220.7300 H   0  0  0  0  0  0  0  0  0  0  0  0
  144.0420   73.4820  219.8270 C   0  0  0  0  0  0  0  0  0  0  0  0
  145.2260   73.0430  219.2120 C   0  0  0  0  0  0  0  0  0  0  0  0
  145.9212   73.7768  218.7782 H   0  0  0  0  0  0  0  0  0  0  0  0
  145.5260   71.6800  219.1480 C   0  0  0  0  0  0  0  0  0  0  0  0
  146.4496   71.3435  218.6542 H   0  0  0  0  0  0  0  0  0  0  0  0
  144.6550   70.7440  219.7100 C   0  0  0  0  0  0  0  0  0  0  0  0
  144.8942   69.6714  219.6613 H   0  0  0  0  0  0  0  0  0  0  0  0
  143.4800   71.1700  220.3340 C   0  0  0  0  0  0  0  0  0  0  0  0
  142.8010   70.4318  220.7857 H   0  0  0  0  0  0  0  0  0  0  0  0
  143.1620   72.5370  220.3870 C   0  0  0  0  0  0  0  0  0  0  0  0
  141.9200   72.9980  221.0880 C   0  0  0  0  0  0  0  0  0  0  0  0
  141.1723   72.1914  221.0717 H   0  0  0  0  0  0  0  0  0  0  0  0
  142.1683   73.2569  222.1278 H   0  0  0  0  0  0  0  0  0  0  0  0
  141.3500   74.2290  220.3890 C   0  0  0  0  0  0  0  0  0  0  0  0
  141.0156   73.9488  219.3792 H   0  0  0  0  0  0  0  0  0  0  0  0
  140.5033   74.6109  220.9782 H   0  0  0  0  0  0  0  0  0  0  0  0
  142.1410   77.4920  219.2840 N   0  0  0  0  0  0  0  0  0  0  0  0
  141.7810   78.8010  219.3420 C   0  0  0  0  0  0  0  0  0  0  0  0
  141.9590   79.6440  218.1820 N   0  0  0  0  0  0  0  0  0  0  0  0
  141.0770   79.4920  217.0180 C   0  0  0  0  0  0  0  0  0  0  0  0
  140.7019   78.4587  216.9778 H   0  0  0  0  0  0  0  0  0  0  0  0
  140.2336   80.1920  217.1106 H   0  0  0  0  0  0  0  0  0  0  0  0
  141.8510   79.8030  215.7270 C   0  0  0  0  0  0  0  0  0  0  0  0
  142.5691   78.9889  215.5495 H   0  0  0  0  0  0  0  0  0  0  0  0
  141.1060   79.8930  214.9227 H   0  0  0  0  0  0  0  0  0  0  0  0
  142.5980   81.0840  215.7660 N   0  0  0  0  0  0  0  0  0  0  0  0
  143.5870   80.9090  215.4690 H   0  0  0  0  0  0  0  0  0  0  0  0
  142.1800   81.7450  215.0700 H   0  0  0  0  0  0  0  0  0  0  0  0
  142.6160   81.7540  217.0780 C   0  0  0  0  0  0  0  0  0  0  0  0
  143.3952   82.5304  217.0719 H   0  0  0  0  0  0  0  0  0  0  0  0
  141.6238   82.1954  217.2531 H   0  0  0  0  0  0  0  0  0  0  0  0
  142.9080   80.7650  218.2110 C   0  0  0  0  0  0  0  0  0  0  0  0
  143.9301   80.3754  218.0952 H   0  0  0  0  0  0  0  0  0  0  0  0
  142.8050   81.2896  219.1724 H   0  0  0  0  0  0  0  0  0  0  0  0
  141.2550   79.2960  220.4990 N   0  0  0  0  0  0  0  0  0  0  0  0
  140.9910   80.3040  220.5680 H   0  0  0  0  0  0  0  0  0  0  0  0
  139.8110   81.3590  222.1410 N   0  0  0  0  0  0  0  0  0  0  0  0
  1  2  1  0
  2  3  2  0
  3  4  1  0
  4  5  1  0
  4  6  2  0
  6  7  1  0
  7  8  1  0
  7  9  1  0
  7 10  1  0
 10 11  1  0
 10 12  1  0
 10 13  1  0
 13 14  1  0
 13 15  2  0
 15 16  1  0
 16 17  2  0
 17 18  1  0
 18 19  1  0
 19 20  1  0
 19 21  1  0
 19 22  1  0
 22 23  2  0
 23 24  1  0
 23 25  1  0
 25 26  1  0
 25 27  2  0
 27 28  1  0
 27 29  1  0
 29 30  1  0
 29 31  2  0
 31 32  1  0
 32 33  1  0
 32 34  1  0
 32 35  1  0
 35 36  1  0
 35 37  1  0
 17 38  1  0
 38 39  2  0
 39 40  1  0
 40 41  1  0
 41 42  1  0
 41 43  1  0
 41 44  1  0
 44 45  1  0
 44 46  1  0
 44 47  1  0
 47 48  1  0
 47 49  1  0
 47 50  1  0
 50 51  1  0
 50 52  1  0
 50 53  1  0
 53 54  1  0
 53 55  1  0
 39 56  1  0
 56 57  1  0
  6 58  1  0
 58  2  1  0
 56 15  1  0
 35 18  1  0
 53 40  1  0
 31 22  1  0
M  CHG  3  13   1  47   1  58  -1
M  END
>  <UniqueID>  (80) 
537

>  <SMILES>  (80) 
c1ccc2c(c1)CCN(c1nc(N3CC[NH2+]CC3)[nH]/c(=[NH+]/CCc3cnc[n-]3)n1)C2

>  <Energy>  (80) 
94.50559688052871

>  <Genealogy>  (80) 
c1ccc2c(c1)CCN(c1nc([NH2+]CCc3cnc[n-]3)nc(N3CC[NH2+]CC3)n1)C2 (protonated)
c1ccc2c(c1)CCN(c1nc(N3CC[NH2+]CC3)[nH]c(=[NH+]CCc3cnc[n-]3)n1)C2 (tautomer)
c1ccc2c(c1)CCN(c1nc(N3CC[NH2+]CC3)[nH]/c(=[NH+]/CCc3cnc[n-]3)n1)C2 (cis-trans isomerization)
c1ccc2c(c1)CCN(c1nc(N3CC[NH2+]CC3)[nH]/c(=[NH+]/CCc3cnc[n-]3)n1)C2 (3D coordinates assigned)
c1ccc2c(c1)CCN(c1nc(N3CC[NH2+]CC3)[nH]/c(=[NH+]/CCc3cnc[n-]3)n1)C2 (nonaromatic ring conformer: 94.50559688052871 kcal/mol)

>  <smiles>  (80) 
c1ccc2c(c1)CCN(c1nc(NCCc3cnc[nH]3)nc(N3CCNCC3)n1)C2

>  <score_type>  (80) 
oracle

>  <origin>  (80) 
autodockgpu

>  <m_score__min__energy>  (80) 
-7.5700000000000003

>  <m_primary>  (80) 
energy

>  <meeko>  (80) 
{"free_energy": -6.35, "intermolecular_energy": -8.14, "internal_energy": -2.74, "cluster_size": 5, "cluster_id": 4, "rank_in_cluster": 5}

>  <energy>  (80) 
-5.85

>  <cluster_rmsd>  (80) 
0.0

>  <rmsd>  (80) 
271.66

>  <cluster>  (80) 
7

$$$$
