
     RDKit          3D

 54 58  0  0  1  0  0  0  0  0999 V2000
  143.3980   77.3280  215.4660 C   0  0  0  0  0  0  0  0  0  0  0  0
  143.0140   77.2170  216.8620 N   0  0  0  0  0  0  0  0  0  0  0  0
  142.9430   76.1150  217.6180 C   0  0  0  0  0  0  0  0  0  0  0  0
  142.5350   76.4240  218.8990 C   0  0  0  0  0  0  0  0  0  0  0  0
  142.3160   75.5470  220.0690 C   0  0  2  0  0  0  0  0  0  0  0  0
  143.4770   74.6790  220.3560 C   0  0  0  0  0  0  0  0  0  0  0  0
  144.8020   74.9740  220.4680 C   0  0  0  0  0  0  0  0  0  0  0  0
  145.7290   73.9900  220.7440 C   0  0  0  0  0  0  0  0  0  0  0  0
  145.2500   72.6860  220.9030 C   0  0  0  0  0  0  0  0  0  0  0  0
  143.9020   72.3990  220.7870 C   0  0  0  0  0  0  0  0  0  0  0  0
  142.9840   73.4060  220.5070 C   0  0  0  0  0  0  0  0  0  0  0  0
  141.5150   73.3590  220.3380 C   0  0  0  0  0  0  0  0  0  0  0  0
  141.1700   74.7130  219.9730 N   0  0  0  0  0  0  0  0  0  0  0  0
  139.9630   75.2320  221.0960 S   0  0  0  0  0  0  0  0  0  0  0  0
  140.1090   74.4080  222.3450 O   0  0  0  0  0  0  0  0  0  0  0  0
  138.5650   74.9820  220.5940 O   0  0  0  0  0  0  0  0  0  0  0  0
  140.1060   76.9410  221.4940 C   0  0  0  0  0  0  0  0  0  0  0  0
  141.0160   77.0410  222.7250 C   0  0  0  0  0  0  0  0  0  0  0  0
  141.2610   78.4810  223.0200 C   0  0  0  0  0  0  0  0  0  0  0  0
  142.5350   79.0130  223.0820 C   0  0  0  0  0  0  0  0  0  0  0  0
  142.6690   80.3640  223.3630 C   0  0  0  0  0  0  0  0  0  0  0  0
  141.5540   81.1620  223.5770 C   0  0  0  0  0  0  0  0  0  0  0  0
  140.2800   80.6460  223.5180 C   0  0  0  0  0  0  0  0  0  0  0  0
  140.1470   79.2940  223.2370 C   0  0  0  0  0  0  0  0  0  0  0  0
  142.3560   77.8120  218.8860 C   0  0  0  0  0  0  0  0  0  0  0  0
  141.9580   78.7000  219.8690 C   0  0  0  0  0  0  0  0  0  0  0  0
  141.8440   80.0660  219.6340 C   0  0  0  0  0  0  0  0  0  0  0  0
  142.1490   80.5160  218.3590 C   0  0  0  0  0  0  0  0  0  0  0  0
  142.5530   79.6330  217.3570 C   0  0  0  0  0  0  0  0  0  0  0  0
  142.6580   78.2680  217.6200 C   0  0  0  0  0  0  0  0  0  0  0  0
  144.4528   77.6329  215.3990 H   0  0  0  0  0  0  0  0  0  0  0  0
  143.2655   76.3548  214.9708 H   0  0  0  0  0  0  0  0  0  0  0  0
  142.7666   78.0804  214.9708 H   0  0  0  0  0  0  0  0  0  0  0  0
  143.1782   75.0999  217.2655 H   0  0  0  0  0  0  0  0  0  0  0  0
  142.1593   76.2637  220.8886 H   0  0  0  0  0  0  0  0  0  0  0  0
  145.1383   76.0130  220.3364 H   0  0  0  0  0  0  0  0  0  0  0  0
  146.8004   74.2218  220.8352 H   0  0  0  0  0  0  0  0  0  0  0  0
  145.9580   71.8738  221.1243 H   0  0  0  0  0  0  0  0  0  0  0  0
  143.5523   71.3642  220.9174 H   0  0  0  0  0  0  0  0  0  0  0  0
  141.2339   72.6541  219.5416 H   0  0  0  0  0  0  0  0  0  0  0  0
  140.9922   73.0145  221.2424 H   0  0  0  0  0  0  0  0  0  0  0  0
  140.5504   77.4893  220.6503 H   0  0  0  0  0  0  0  0  0  0  0  0
  139.1185   77.3798  221.6995 H   0  0  0  0  0  0  0  0  0  0  0  0
  140.5267   76.5642  223.5871 H   0  0  0  0  0  0  0  0  0  0  0  0
  141.9703   76.5301  222.5291 H   0  0  0  0  0  0  0  0  0  0  0  0
  143.4194   78.3812  222.9128 H   0  0  0  0  0  0  0  0  0  0  0  0
  143.6732   80.8096  223.4171 H   0  0  0  0  0  0  0  0  0  0  0  0
  141.6918   82.2306  223.7987 H   0  0  0  0  0  0  0  0  0  0  0  0
  139.3989   81.2823  223.6875 H   0  0  0  0  0  0  0  0  0  0  0  0
  139.1409   78.8525  223.1840 H   0  0  0  0  0  0  0  0  0  0  0  0
  141.7235   78.3123  220.8714 H   0  0  0  0  0  0  0  0  0  0  0  0
  141.5254   80.7596  220.4261 H   0  0  0  0  0  0  0  0  0  0  0  0
  142.0711   81.5897  218.1328 H   0  0  0  0  0  0  0  0  0  0  0  0
  142.7900   80.0162  216.3535 H   0  0  0  0  0  0  0  0  0  0  0  0
  1  2  1  0
  2  3  1  0
  3  4  2  0
  4  5  1  0
  5  6  1  0
  6  7  2  0
  7  8  1  0
  8  9  2  0
  9 10  1  0
 10 11  2  0
 11 12  1  0
 12 13  1  0
 13 14  1  0
 14 15  2  0
 14 16  2  0
 14 17  1  0
 17 18  1  0
 18 19  1  0
 19 20  2  0
 20 21  1  0
 21 22  2  0
 22 23  1  0
 23 24  2  0
  4 25  1  0
 25 26  2  0
 26 27  1  0
 27 28  2  0
 28 29  1  0
 29 30  2  0
 30  2  1  0
 13  5  1  0
 24 19  1  0
 30 25  1  0
 11  6  1  0
  1 31  1  0
  1 32  1  0
  1 33  1  0
  3 34  1  0
  5 35  1  1
  7 36  1  0
  8 37  1  0
  9 38  1  0
 10 39  1  0
 12 40  1  0
 12 41  1  0
 17 42  1  0
 17 43  1  0
 18 44  1  0
 18 45  1  0
 20 46  1  0
 21 47  1  0
 22 48  1  0
 23 49  1  0
 24 50  1  0
 26 51  1  0
 27 52  1  0
 28 53  1  0
 29 54  1  0
M  END
>  <smiles>  (1) 
Cn1cc(C2c3ccccc3CN2S(=O)(=O)CCc2ccccc2)c2ccccc21

>  <score_type>  (1) 
oracle

>  <origin>  (1) 
autodockgpu

>  <m_score__min__energy>  (1) 
-9.1699999999999999

>  <m_primary>  (1) 
energy

>  <meeko>  (1) 
{"free_energy": -8.75, "intermolecular_energy": -10.24, "internal_energy": -2.18, "cluster_size": 7, "cluster_id": 1, "rank_in_cluster": 5}

>  <energy>  (1) 
-9.17

>  <cluster_rmsd>  (1) 
0.0

>  <rmsd>  (1) 
270.89

>  <cluster>  (1) 
1

$$$$

     RDKit          3D

 54 58  0  0  1  0  0  0  0  0999 V2000
  143.3360   77.3920  215.5210 C   0  0  0  0  0  0  0  0  0  0  0  0
  142.9850   77.2200  216.9200 N   0  0  0  0  0  0  0  0  0  0  0  0
  142.9330   76.0860  217.6280 C   0  0  0  0  0  0  0  0  0  0  0  0
  142.5570   76.3380  218.9310 C   0  0  0  0  0  0  0  0  0  0  0  0
  142.3660   75.4100  220.0660 C   0  0  2  0  0  0  0  0  0  0  0  0
  143.5640   74.5900  220.3400 C   0  0  0  0  0  0  0  0  0  0  0  0
  144.8710   74.9460  220.4810 C   0  0  0  0  0  0  0  0  0  0  0  0
  145.8430   73.9990  220.7360 C   0  0  0  0  0  0  0  0  0  0  0  0
  145.4270   72.6680  220.8420 C   0  0  0  0  0  0  0  0  0  0  0  0
  144.0960   72.3200  220.6970 C   0  0  0  0  0  0  0  0  0  0  0  0
  143.1330   73.2900  220.4390 C   0  0  0  0  0  0  0  0  0  0  0  0
  141.6700   73.1780  220.2470 C   0  0  0  0  0  0  0  0  0  0  0  0
  141.2630   74.5250  219.9250 N   0  0  0  0  0  0  0  0  0  0  0  0
  140.0180   74.9450  221.0480 S   0  0  0  0  0  0  0  0  0  0  0  0
  140.2360   74.1410  222.3000 O   0  0  0  0  0  0  0  0  0  0  0  0
  138.6460   74.5750  220.5490 O   0  0  0  0  0  0  0  0  0  0  0  0
  140.0170   76.6610  221.4390 C   0  0  0  0  0  0  0  0  0  0  0  0
  140.8670   76.8360  222.7040 C   0  0  0  0  0  0  0  0  0  0  0  0
  141.0020   78.2910  222.9900 C   0  0  0  0  0  0  0  0  0  0  0  0
  142.1940   78.8510  223.4090 C   0  0  0  0  0  0  0  0  0  0  0  0
  142.2290   80.2160  223.6530 C   0  0  0  0  0  0  0  0  0  0  0  0
  141.0960   80.9990  223.4810 C   0  0  0  0  0  0  0  0  0  0  0  0
  139.9030   80.4560  223.0650 C   0  0  0  0  0  0  0  0  0  0  0  0
  139.8700   79.0900  222.8210 C   0  0  0  0  0  0  0  0  0  0  0  0
  142.3770   77.7250  218.9830 C   0  0  0  0  0  0  0  0  0  0  0  0
  142.0020   78.5690  220.0130 C   0  0  0  0  0  0  0  0  0  0  0  0
  141.8820   79.9440  219.8400 C   0  0  0  0  0  0  0  0  0  0  0  0
  142.1560   80.4500  218.5790 C   0  0  0  0  0  0  0  0  0  0  0  0
  142.5360   79.6110  217.5300 C   0  0  0  0  0  0  0  0  0  0  0  0
  142.6480   78.2360  217.7310 C   0  0  0  0  0  0  0  0  0  0  0  0
  144.3215   77.8749  215.4469 H   0  0  0  0  0  0  0  0  0  0  0  0
  143.3713   76.4091  215.0283 H   0  0  0  0  0  0  0  0  0  0  0  0
  142.5809   78.0222  215.0283 H   0  0  0  0  0  0  0  0  0  0  0  0
  143.1595   75.0877  217.2255 H   0  0  0  0  0  0  0  0  0  0  0  0
  142.1636   76.0892  220.9073 H   0  0  0  0  0  0  0  0  0  0  0  0
  145.1567   76.0044  220.3903 H   0  0  0  0  0  0  0  0  0  0  0  0
  146.9003   74.2797  220.8509 H   0  0  0  0  0  0  0  0  0  0  0  0
  146.1714   71.8838  221.0443 H   0  0  0  0  0  0  0  0  0  0  0  0
  143.7961   71.2655  220.7867 H   0  0  0  0  0  0  0  0  0  0  0  0
  141.4342   72.4893  219.4223 H   0  0  0  0  0  0  0  0  0  0  0  0
  141.1535   72.7765  221.1313 H   0  0  0  0  0  0  0  0  0  0  0  0
  140.4522   77.2373  220.6093 H   0  0  0  0  0  0  0  0  0  0  0  0
  138.9918   77.0246  221.6028 H   0  0  0  0  0  0  0  0  0  0  0  0
  140.3763   76.3359  223.5520 H   0  0  0  0  0  0  0  0  0  0  0  0
  141.8609   76.3896  222.5528 H   0  0  0  0  0  0  0  0  0  0  0  0
  143.0918   78.2303  223.5455 H   0  0  0  0  0  0  0  0  0  0  0  0
  143.1668   80.6839  223.9871 H   0  0  0  0  0  0  0  0  0  0  0  0
  141.1536   82.0789  223.6821 H   0  0  0  0  0  0  0  0  0  0  0  0
  139.0079   81.0811  222.9306 H   0  0  0  0  0  0  0  0  0  0  0  0
  138.9301   78.6264  222.4867 H   0  0  0  0  0  0  0  0  0  0  0  0
  141.7915   78.1379  221.0029 H   0  0  0  0  0  0  0  0  0  0  0  0
  141.5823   80.6020  220.6690 H   0  0  0  0  0  0  0  0  0  0  0  0
  142.0725   81.5324  218.4016 H   0  0  0  0  0  0  0  0  0  0  0  0
  142.7484   80.0375  216.5385 H   0  0  0  0  0  0  0  0  0  0  0  0
  1  2  1  0
  2  3  1  0
  3  4  2  0
  4  5  1  0
  5  6  1  0
  6  7  2  0
  7  8  1  0
  8  9  2  0
  9 10  1  0
 10 11  2  0
 11 12  1  0
 12 13  1  0
 13 14  1  0
 14 15  2  0
 14 16  2  0
 14 17  1  0
 17 18  1  0
 18 19  1  0
 19 20  2  0
 20 21  1  0
 21 22  2  0
 22 23  1  0
 23 24  2  0
  4 25  1  0
 25 26  2  0
 26 27  1  0
 27 28  2  0
 28 29  1  0
 29 30  2  0
 30  2  1  0
 13  5  1  0
 24 19  1  0
 30 25  1  0
 11  6  1  0
  1 31  1  0
  1 32  1  0
  1 33  1  0
  3 34  1  0
  5 35  1  1
  7 36  1  0
  8 37  1  0
  9 38  1  0
 10 39  1  0
 12 40  1  0
 12 41  1  0
 17 42  1  0
 17 43  1  0
 18 44  1  0
 18 45  1  0
 20 46  1  0
 21 47  1  0
 22 48  1  0
 23 49  1  0
 24 50  1  0
 26 51  1  0
 27 52  1  0
 28 53  1  0
 29 54  1  0
M  END
>  <smiles>  (2) 
Cn1cc(C2c3ccccc3CN2S(=O)(=O)CCc2ccccc2)c2ccccc21

>  <score_type>  (2) 
oracle

>  <origin>  (2) 
autodockgpu

>  <m_score__min__energy>  (2) 
-9.1699999999999999

>  <m_primary>  (2) 
energy

>  <meeko>  (2) 
{"free_energy": -8.62, "intermolecular_energy": -10.12, "internal_energy": -2.22, "cluster_size": 7, "cluster_id": 1, "rank_in_cluster": 6}

>  <energy>  (2) 
-9.03

>  <cluster_rmsd>  (2) 
0.34

>  <rmsd>  (2) 
270.91

>  <cluster>  (2) 
1

$$$$

     RDKit          3D

 54 58  0  0  1  0  0  0  0  0999 V2000
  142.6710   78.4310  217.7680 C   0  0  0  0  0  0  0  0  0  0  0  0
  142.4010   77.5370  218.8810 N   0  0  0  0  0  0  0  0  0  0  0  0
  142.7000   76.2380  218.9920 C   0  0  0  0  0  0  0  0  0  0  0  0
  142.2760   75.7390  220.2070 C   0  0  0  0  0  0  0  0  0  0  0  0
  142.3840   74.3760  220.7700 C   0  0  2  0  0  0  0  0  0  0  0  0
  143.7250   73.7850  220.5770 C   0  0  0  0  0  0  0  0  0  0  0  0
  144.9640   74.2920  220.8230 C   0  0  0  0  0  0  0  0  0  0  0  0
  146.1000   73.5530  220.5610 C   0  0  0  0  0  0  0  0  0  0  0  0
  145.9220   72.2700  220.0360 C   0  0  0  0  0  0  0  0  0  0  0  0
  144.6580   71.7660  219.7910 C   0  0  0  0  0  0  0  0  0  0  0  0
  143.5250   72.5280  220.0610 C   0  0  0  0  0  0  0  0  0  0  0  0
  142.0880   72.2220  219.8910 C   0  0  0  0  0  0  0  0  0  0  0  0
  141.4300   73.4520  220.2640 N   0  0  0  0  0  0  0  0  0  0  0  0
  140.2870   73.0460  221.4950 S   0  0  0  0  0  0  0  0  0  0  0  0
  139.0170   72.6080  220.8190 O   0  0  0  0  0  0  0  0  0  0  0  0
  139.9160   74.2310  222.3490 O   0  0  0  0  0  0  0  0  0  0  0  0
  140.8670   71.7650  222.5540 C   0  0  0  0  0  0  0  0  0  0  0  0
  139.6490   71.2220  223.3120 C   0  0  0  0  0  0  0  0  0  0  0  0
  140.0460   70.9540  224.7220 C   0  0  0  0  0  0  0  0  0  0  0  0
  140.7880   71.8560  225.4610 C   0  0  0  0  0  0  0  0  0  0  0  0
  141.1130   71.5240  226.7680 C   0  0  0  0  0  0  0  0  0  0  0  0
  140.7040   70.3170  227.3190 C   0  0  0  0  0  0  0  0  0  0  0  0
  139.9650   69.4110  226.5950 C   0  0  0  0  0  0  0  0  0  0  0  0
  139.6410   69.7440  225.2890 C   0  0  0  0  0  0  0  0  0  0  0  0
  141.6850   76.8330  220.8500 C   0  0  0  0  0  0  0  0  0  0  0  0
  141.0820   76.9610  222.0870 C   0  0  0  0  0  0  0  0  0  0  0  0
  140.5500   78.1660  222.5340 C   0  0  0  0  0  0  0  0  0  0  0  0
  140.6480   79.2550  221.6820 C   0  0  0  0  0  0  0  0  0  0  0  0
  141.2540   79.1420  220.4310 C   0  0  0  0  0  0  0  0  0  0  0  0
  141.7790   77.9210  220.0080 C   0  0  0  0  0  0  0  0  0  0  0  0
  142.9688   79.4172  218.1537 H   0  0  0  0  0  0  0  0  0  0  0  0
  143.4841   78.0167  217.1538 H   0  0  0  0  0  0  0  0  0  0  0  0
  141.7645   78.5360  217.1538 H   0  0  0  0  0  0  0  0  0  0  0  0
  143.2142   75.6474  218.2195 H   0  0  0  0  0  0  0  0  0  0  0  0
  142.1830   74.5341  221.8399 H   0  0  0  0  0  0  0  0  0  0  0  0
  145.0615   75.3064  221.2370 H   0  0  0  0  0  0  0  0  0  0  0  0
  147.1040   73.9572  220.7573 H   0  0  0  0  0  0  0  0  0  0  0  0
  146.8032   71.6502  219.8138 H   0  0  0  0  0  0  0  0  0  0  0  0
  144.5467   70.7524  219.3785 H   0  0  0  0  0  0  0  0  0  0  0  0
  141.8639   71.9582  218.8469 H   0  0  0  0  0  0  0  0  0  0  0  0
  141.7606   71.3630  220.4951 H   0  0  0  0  0  0  0  0  0  0  0  0
  141.3294   70.9637  221.9590 H   0  0  0  0  0  0  0  0  0  0  0  0
  141.6252   72.1476  223.2531 H   0  0  0  0  0  0  0  0  0  0  0  0
  138.8380   71.9648  223.2904 H   0  0  0  0  0  0  0  0  0  0  0  0
  139.2957   70.2940  222.8388 H   0  0  0  0  0  0  0  0  0  0  0  0
  141.1123   72.8120  225.0242 H   0  0  0  0  0  0  0  0  0  0  0  0
  141.7025   72.2262  227.3759 H   0  0  0  0  0  0  0  0  0  0  0  0
  140.9772   70.0801  228.3579 H   0  0  0  0  0  0  0  0  0  0  0  0
  139.6426   68.4564  227.0364 H   0  0  0  0  0  0  0  0  0  0  0  0
  139.0511   69.0386  224.6853 H   0  0  0  0  0  0  0  0  0  0  0  0
  141.0206   76.0788  222.7412 H   0  0  0  0  0  0  0  0  0  0  0  0
  140.0721   78.2511  223.5211 H   0  0  0  0  0  0  0  0  0  0  0  0
  140.2402   80.2264  221.9985 H   0  0  0  0  0  0  0  0  0  0  0  0
  141.3183   80.0216  219.7736 H   0  0  0  0  0  0  0  0  0  0  0  0
  1  2  1  0
  2  3  1  0
  3  4  2  0
  4  5  1  0
  5  6  1  0
  6  7  2  0
  7  8  1  0
  8  9  2  0
  9 10  1  0
 10 11  2  0
 11 12  1  0
 12 13  1  0
 13 14  1  0
 14 15  2  0
 14 16  2  0
 14 17  1  0
 17 18  1  0
 18 19  1  0
 19 20  2  0
 20 21  1  0
 21 22  2  0
 22 23  1  0
 23 24  2  0
  4 25  1  0
 25 26  2  0
 26 27  1  0
 27 28  2  0
 28 29  1  0
 29 30  2  0
 30  2  1  0
 13  5  1  0
 24 19  1  0
 30 25  1  0
 11  6  1  0
  1 31  1  0
  1 32  1  0
  1 33  1  0
  3 34  1  0
  5 35  1  1
  7 36  1  0
  8 37  1  0
  9 38  1  0
 10 39  1  0
 12 40  1  0
 12 41  1  0
 17 42  1  0
 17 43  1  0
 18 44  1  0
 18 45  1  0
 20 46  1  0
 21 47  1  0
 22 48  1  0
 23 49  1  0
 24 50  1  0
 26 51  1  0
 27 52  1  0
 28 53  1  0
 29 54  1  0
M  END
>  <smiles>  (3) 
Cn1cc(C2c3ccccc3CN2S(=O)(=O)CCc2ccccc2)c2ccccc21

>  <score_type>  (3) 
oracle

>  <origin>  (3) 
autodockgpu

>  <m_score__min__energy>  (3) 
-9.1699999999999999

>  <m_primary>  (3) 
energy

>  <meeko>  (3) 
{"free_energy": -9.17, "intermolecular_energy": -10.66, "internal_energy": -1.58, "cluster_size": 7, "cluster_id": 1, "rank_in_cluster": 1}

>  <energy>  (3) 
-8.81

>  <cluster_rmsd>  (3) 
1.97

>  <rmsd>  (3) 
270.87

>  <cluster>  (3) 
1

$$$$

     RDKit          3D

 54 58  0  0  1  0  0  0  0  0999 V2000
  143.3380   77.5040  215.5490 C   0  0  0  0  0  0  0  0  0  0  0  0
  142.9720   77.2880  216.9390 N   0  0  0  0  0  0  0  0  0  0  0  0
  142.9160   76.1330  217.6110 C   0  0  0  0  0  0  0  0  0  0  0  0
  142.5240   76.3430  218.9170 C   0  0  0  0  0  0  0  0  0  0  0  0
  142.3240   75.3800  220.0210 C   0  0  2  0  0  0  0  0  0  0  0  0
  143.5280   74.5680  220.2940 C   0  0  0  0  0  0  0  0  0  0  0  0
  144.8270   74.9350  220.4710 C   0  0  0  0  0  0  0  0  0  0  0  0
  145.8050   73.9930  220.7170 C   0  0  0  0  0  0  0  0  0  0  0  0
  145.4050   72.6550  220.7760 C   0  0  0  0  0  0  0  0  0  0  0  0
  144.0820   72.2950  220.5950 C   0  0  0  0  0  0  0  0  0  0  0  0
  143.1110   73.2600  220.3470 C   0  0  0  0  0  0  0  0  0  0  0  0
  141.6540   73.1350  220.1240 C   0  0  0  0  0  0  0  0  0  0  0  0
  141.2360   74.4870  219.8330 N   0  0  0  0  0  0  0  0  0  0  0  0
  139.9640   74.8580  220.9430 S   0  0  0  0  0  0  0  0  0  0  0  0
  140.5180   74.7380  222.3360 O   0  0  0  0  0  0  0  0  0  0  0  0
  138.8250   73.8760  220.8620 O   0  0  0  0  0  0  0  0  0  0  0  0
  139.3140   76.4760  220.7020 C   0  0  0  0  0  0  0  0  0  0  0  0
  138.8170   76.9690  222.0670 C   0  0  0  0  0  0  0  0  0  0  0  0
  139.7900   77.9640  222.5980 C   0  0  0  0  0  0  0  0  0  0  0  0
  141.0780   77.6130  222.9580 C   0  0  0  0  0  0  0  0  0  0  0  0
  141.9170   78.6050  223.4430 C   0  0  0  0  0  0  0  0  0  0  0  0
  141.4760   79.9160  223.5640 C   0  0  0  0  0  0  0  0  0  0  0  0
  140.1970   80.2790  223.2090 C   0  0  0  0  0  0  0  0  0  0  0  0
  139.3590   79.2860  222.7240 C   0  0  0  0  0  0  0  0  0  0  0  0
  142.3400   77.7280  219.0100 C   0  0  0  0  0  0  0  0  0  0  0  0
  141.9510   78.5380  220.0610 C   0  0  0  0  0  0  0  0  0  0  0  0
  141.8290   79.9170  219.9290 C   0  0  0  0  0  0  0  0  0  0  0  0
  142.1150   80.4630  218.6870 C   0  0  0  0  0  0  0  0  0  0  0  0
  142.5090   79.6580  217.6170 C   0  0  0  0  0  0  0  0  0  0  0  0
  142.6230   78.2770  217.7770 C   0  0  0  0  0  0  0  0  0  0  0  0
  144.2844   78.0626  215.5016 H   0  0  0  0  0  0  0  0  0  0  0  0
  143.4597   76.5330  215.0467 H   0  0  0  0  0  0  0  0  0  0  0  0
  142.5468   78.0799  215.0467 H   0  0  0  0  0  0  0  0  0  0  0  0
  143.1508   75.1484  217.1804 H   0  0  0  0  0  0  0  0  0  0  0  0
  142.0969   76.0308  220.8783 H   0  0  0  0  0  0  0  0  0  0  0  0
  145.1013   75.9989  220.4171 H   0  0  0  0  0  0  0  0  0  0  0  0
  146.8562   74.2832  220.8608 H   0  0  0  0  0  0  0  0  0  0  0  0
  146.1557   71.8747  220.9698 H   0  0  0  0  0  0  0  0  0  0  0  0
  143.7944   71.2346  220.6477 H   0  0  0  0  0  0  0  0  0  0  0  0
  141.4427   72.4677  219.2755 H   0  0  0  0  0  0  0  0  0  0  0  0
  141.1260   72.7013  220.9860 H   0  0  0  0  0  0  0  0  0  0  0  0
  140.0995   77.1457  220.3218 H   0  0  0  0  0  0  0  0  0  0  0  0
  138.4952   76.4641  219.9676 H   0  0  0  0  0  0  0  0  0  0  0  0
  137.8298   77.4408  221.9533 H   0  0  0  0  0  0  0  0  0  0  0  0
  138.7298   76.1215  222.7628 H   0  0  0  0  0  0  0  0  0  0  0  0
  141.4279   76.5745  222.8622 H   0  0  0  0  0  0  0  0  0  0  0  0
  142.9461   78.3497  223.7359 H   0  0  0  0  0  0  0  0  0  0  0  0
  142.1642   80.6813  223.9522 H   0  0  0  0  0  0  0  0  0  0  0  0
  139.8518   81.3189  223.3064 H   0  0  0  0  0  0  0  0  0  0  0  0
  138.3309   79.5460  222.4318 H   0  0  0  0  0  0  0  0  0  0  0  0
  141.7306   78.0759  221.0346 H   0  0  0  0  0  0  0  0  0  0  0  0
  141.5185   80.5483  220.7746 H   0  0  0  0  0  0  0  0  0  0  0  0
  142.0299   81.5501  218.5423 H   0  0  0  0  0  0  0  0  0  0  0  0
  142.7310   80.1154  216.6416 H   0  0  0  0  0  0  0  0  0  0  0  0
  1  2  1  0
  2  3  1  0
  3  4  2  0
  4  5  1  0
  5  6  1  0
  6  7  2  0
  7  8  1  0
  8  9  2  0
  9 10  1  0
 10 11  2  0
 11 12  1  0
 12 13  1  0
 13 14  1  0
 14 15  2  0
 14 16  2  0
 14 17  1  0
 17 18  1  0
 18 19  1  0
 19 20  2  0
 20 21  1  0
 21 22  2  0
 22 23  1  0
 23 24  2  0
  4 25  1  0
 25 26  2  0
 26 27  1  0
 27 28  2  0
 28 29  1  0
 29 30  2  0
 30  2  1  0
 13  5  1  0
 24 19  1  0
 30 25  1  0
 11  6  1  0
  1 31  1  0
  1 32  1  0
  1 33  1  0
  3 34  1  0
  5 35  1  1
  7 36  1  0
  8 37  1  0
  9 38  1  0
 10 39  1  0
 12 40  1  0
 12 41  1  0
 17 42  1  0
 17 43  1  0
 18 44  1  0
 18 45  1  0
 20 46  1  0
 21 47  1  0
 22 48  1  0
 23 49  1  0
 24 50  1  0
 26 51  1  0
 27 52  1  0
 28 53  1  0
 29 54  1  0
M  END
>  <smiles>  (4) 
Cn1cc(C2c3ccccc3CN2S(=O)(=O)CCc2ccccc2)c2ccccc21

>  <score_type>  (4) 
oracle

>  <origin>  (4) 
autodockgpu

>  <m_score__min__energy>  (4) 
-9.1699999999999999

>  <m_primary>  (4) 
energy

>  <meeko>  (4) 
{"free_energy": -8.07, "intermolecular_energy": -9.56, "internal_energy": -2.45, "cluster_size": 7, "cluster_id": 1, "rank_in_cluster": 7}

>  <energy>  (4) 
-8.77

>  <cluster_rmsd>  (4) 
1.97

>  <rmsd>  (4) 
270.77

>  <cluster>  (4) 
1

$$$$

     RDKit          3D

 54 58  0  0  1  0  0  0  0  0999 V2000
  143.3410   77.4230  215.4970 C   0  0  0  0  0  0  0  0  0  0  0  0
  142.9650   77.2910  216.8940 N   0  0  0  0  0  0  0  0  0  0  0  0
  142.8850   76.1760  217.6290 C   0  0  0  0  0  0  0  0  0  0  0  0
  142.4900   76.4660  218.9190 C   0  0  0  0  0  0  0  0  0  0  0  0
  142.2670   75.5700  220.0740 C   0  0  2  0  0  0  0  0  0  0  0  0
  143.4270   74.6980  220.3510 C   0  0  0  0  0  0  0  0  0  0  0  0
  144.7520   74.9920  220.4720 C   0  0  0  0  0  0  0  0  0  0  0  0
  145.6780   74.0040  220.7360 C   0  0  0  0  0  0  0  0  0  0  0  0
  145.2000   72.6970  220.8710 C   0  0  0  0  0  0  0  0  0  0  0  0
  143.8530   72.4110  220.7460 C   0  0  0  0  0  0  0  0  0  0  0  0
  142.9350   73.4220  220.4800 C   0  0  0  0  0  0  0  0  0  0  0  0
  141.4660   73.3770  220.3040 C   0  0  0  0  0  0  0  0  0  0  0  0
  141.1210   74.7370  219.9610 N   0  0  0  0  0  0  0  0  0  0  0  0
  139.9100   75.2380  221.0870 S   0  0  0  0  0  0  0  0  0  0  0  0
  140.0840   74.4260  222.3420 O   0  0  0  0  0  0  0  0  0  0  0  0
  138.5150   74.9510  220.5970 O   0  0  0  0  0  0  0  0  0  0  0  0
  140.0170   76.9520  221.4720 C   0  0  0  0  0  0  0  0  0  0  0  0
  140.9110   77.0810  222.7120 C   0  0  0  0  0  0  0  0  0  0  0  0
  141.0800   78.5260  223.0290 C   0  0  0  0  0  0  0  0  0  0  0  0
  140.0000   79.3700  223.2090 C   0  0  0  0  0  0  0  0  0  0  0  0
  140.2500   80.7020  223.5030 C   0  0  0  0  0  0  0  0  0  0  0  0
  141.5500   81.1760  223.6130 C   0  0  0  0  0  0  0  0  0  0  0  0
  142.6330   80.3470  223.4360 C   0  0  0  0  0  0  0  0  0  0  0  0
  142.3820   79.0150  223.1430 C   0  0  0  0  0  0  0  0  0  0  0  0
  142.3290   77.8560  218.9340 C   0  0  0  0  0  0  0  0  0  0  0  0
  141.9490   78.7310  219.9350 C   0  0  0  0  0  0  0  0  0  0  0  0
  141.8520   80.1020  219.7270 C   0  0  0  0  0  0  0  0  0  0  0  0
  142.1540   80.5720  218.4580 C   0  0  0  0  0  0  0  0  0  0  0  0
  142.5390   79.7030  217.4370 C   0  0  0  0  0  0  0  0  0  0  0  0
  142.6280   78.3310  217.6740 C   0  0  0  0  0  0  0  0  0  0  0  0
  144.3769   77.7867  215.4289 H   0  0  0  0  0  0  0  0  0  0  0  0
  143.2629   76.4437  215.0021 H   0  0  0  0  0  0  0  0  0  0  0  0
  142.6679   78.1386  215.0021 H   0  0  0  0  0  0  0  0  0  0  0  0
  143.1044   75.1649  217.2555 H   0  0  0  0  0  0  0  0  0  0  0  0
  142.1071   76.2736  220.9043 H   0  0  0  0  0  0  0  0  0  0  0  0
  145.0885   76.0330  220.3574 H   0  0  0  0  0  0  0  0  0  0  0  0
  146.7488   74.2351  220.8362 H   0  0  0  0  0  0  0  0  0  0  0  0
  145.9082   71.8817  221.0804 H   0  0  0  0  0  0  0  0  0  0  0  0
  143.5038   71.3739  220.8580 H   0  0  0  0  0  0  0  0  0  0  0  0
  141.1888   72.6858  219.4944 H   0  0  0  0  0  0  0  0  0  0  0  0
  140.9399   73.0166  221.2003 H   0  0  0  0  0  0  0  0  0  0  0  0
  140.4604   77.5012  220.6284 H   0  0  0  0  0  0  0  0  0  0  0  0
  139.0190   77.3733  221.6634 H   0  0  0  0  0  0  0  0  0  0  0  0
  140.4399   76.5677  223.5632 H   0  0  0  0  0  0  0  0  0  0  0  0
  141.8916   76.6224  222.5170 H   0  0  0  0  0  0  0  0  0  0  0  0
  138.9696   78.9950  223.1213 H   0  0  0  0  0  0  0  0  0  0  0  0
  139.4065   81.3924  223.6511 H   0  0  0  0  0  0  0  0  0  0  0  0
  141.7176   82.2377  223.8468 H   0  0  0  0  0  0  0  0  0  0  0  0
  143.6616   80.7269  223.5237 H   0  0  0  0  0  0  0  0  0  0  0  0
  143.2287   78.3281  222.9971 H   0  0  0  0  0  0  0  0  0  0  0  0
  141.7151   78.3278  220.9314 H   0  0  0  0  0  0  0  0  0  0  0  0
  141.5487   80.7847  220.5344 H   0  0  0  0  0  0  0  0  0  0  0  0
  142.0888   81.6507  218.2525 H   0  0  0  0  0  0  0  0  0  0  0  0
  142.7738   80.1018  216.4391 H   0  0  0  0  0  0  0  0  0  0  0  0
  1  2  1  0
  2  3  1  0
  3  4  2  0
  4  5  1  0
  5  6  1  0
  6  7  2  0
  7  8  1  0
  8  9  2  0
  9 10  1  0
 10 11  2  0
 11 12  1  0
 12 13  1  0
 13 14  1  0
 14 15  2  0
 14 16  2  0
 14 17  1  0
 17 18  1  0
 18 19  1  0
 19 20  2  0
 20 21  1  0
 21 22  2  0
 22 23  1  0
 23 24  2  0
  4 25  1  0
 25 26  2  0
 26 27  1  0
 27 28  2  0
 28 29  1  0
 29 30  2  0
 30  2  1  0
 13  5  1  0
 24 19  1  0
 30 25  1  0
 11  6  1  0
  1 31  1  0
  1 32  1  0
  1 33  1  0
  3 34  1  0
  5 35  1  1
  7 36  1  0
  8 37  1  0
  9 38  1  0
 10 39  1  0
 12 40  1  0
 12 41  1  0
 17 42  1  0
 17 43  1  0
 18 44  1  0
 18 45  1  0
 20 46  1  0
 21 47  1  0
 22 48  1  0
 23 49  1  0
 24 50  1  0
 26 51  1  0
 27 52  1  0
 28 53  1  0
 29 54  1  0
M  END
>  <smiles>  (5) 
Cn1cc(C2c3ccccc3CN2S(=O)(=O)CCc2ccccc2)c2ccccc21

>  <score_type>  (5) 
oracle

>  <origin>  (5) 
autodockgpu

>  <m_score__min__energy>  (5) 
-9.1699999999999999

>  <m_primary>  (5) 
energy

>  <meeko>  (5) 
{"free_energy": -8.77, "intermolecular_energy": -10.26, "internal_energy": -2.17, "cluster_size": 7, "cluster_id": 1, "rank_in_cluster": 4}

>  <energy>  (5) 
-8.75

>  <cluster_rmsd>  (5) 
1.97

>  <rmsd>  (5) 
270.78

>  <cluster>  (5) 
1

$$$$

     RDKit          3D

 54 58  0  0  1  0  0  0  0  0999 V2000
  143.3530   77.4710  215.5060 C   0  0  0  0  0  0  0  0  0  0  0  0
  142.9660   77.3490  216.9010 N   0  0  0  0  0  0  0  0  0  0  0  0
  142.8640   76.2390  217.6390 C   0  0  0  0  0  0  0  0  0  0  0  0
  142.4650   76.5390  218.9260 C   0  0  0  0  0  0  0  0  0  0  0  0
  142.2210   75.6500  220.0820 C   0  0  2  0  0  0  0  0  0  0  0  0
  143.3560   74.7450  220.3550 C   0  0  0  0  0  0  0  0  0  0  0  0
  144.6890   75.0000  220.4700 C   0  0  0  0  0  0  0  0  0  0  0  0
  145.5880   73.9840  220.7300 C   0  0  0  0  0  0  0  0  0  0  0  0
  145.0720   72.6930  220.8680 C   0  0  0  0  0  0  0  0  0  0  0  0
  143.7160   72.4470  220.7490 C   0  0  0  0  0  0  0  0  0  0  0  0
  142.8270   73.4840  220.4860 C   0  0  0  0  0  0  0  0  0  0  0  0
  141.3570   73.4830  220.3170 C   0  0  0  0  0  0  0  0  0  0  0  0
  141.0510   74.8520  219.9740 N   0  0  0  0  0  0  0  0  0  0  0  0
  139.8600   75.3880  221.1060 S   0  0  0  0  0  0  0  0  0  0  0  0
  139.9810   74.5380  222.3410 O   0  0  0  0  0  0  0  0  0  0  0  0
  138.4550   75.1890  220.6000 O   0  0  0  0  0  0  0  0  0  0  0  0
  140.0550   77.0840  221.5330 C   0  0  0  0  0  0  0  0  0  0  0  0
  141.0400   77.1430  222.7080 C   0  0  0  0  0  0  0  0  0  0  0  0
  141.2560   78.5690  223.0780 C   0  0  0  0  0  0  0  0  0  0  0  0
  140.2070   79.4190  223.3770 C   0  0  0  0  0  0  0  0  0  0  0  0
  140.5020   80.7320  223.7120 C   0  0  0  0  0  0  0  0  0  0  0  0
  141.8140   81.1820  223.7440 C   0  0  0  0  0  0  0  0  0  0  0  0
  142.8670   80.3480  223.4490 C   0  0  0  0  0  0  0  0  0  0  0  0
  142.5720   79.0340  223.1150 C   0  0  0  0  0  0  0  0  0  0  0  0
  142.3260   77.9320  218.9350 C   0  0  0  0  0  0  0  0  0  0  0  0
  141.9540   78.8150  219.9310 C   0  0  0  0  0  0  0  0  0  0  0  0
  141.8800   80.1870  219.7180 C   0  0  0  0  0  0  0  0  0  0  0  0
  142.1970   80.6490  218.4500 C   0  0  0  0  0  0  0  0  0  0  0  0
  142.5750   79.7700  217.4340 C   0  0  0  0  0  0  0  0  0  0  0  0
  142.6410   78.3980  217.6760 C   0  0  0  0  0  0  0  0  0  0  0  0
  144.4004   77.8012  215.4436 H   0  0  0  0  0  0  0  0  0  0  0  0
  143.2458   76.4955  215.0091 H   0  0  0  0  0  0  0  0  0  0  0  0
  142.7058   78.2087  215.0091 H   0  0  0  0  0  0  0  0  0  0  0  0
  143.0702   75.2233  217.2703 H   0  0  0  0  0  0  0  0  0  0  0  0
  142.0856   76.3578  220.9130 H   0  0  0  0  0  0  0  0  0  0  0  0
  145.0552   76.0307  220.3541 H   0  0  0  0  0  0  0  0  0  0  0  0
  146.6657   74.1831  220.8245 H   0  0  0  0  0  0  0  0  0  0  0  0
  145.7564   71.8571  221.0750 H   0  0  0  0  0  0  0  0  0  0  0  0
  143.3368   71.4208  220.8635 H   0  0  0  0  0  0  0  0  0  0  0  0
  141.0554   72.7995  219.5096 H   0  0  0  0  0  0  0  0  0  0  0  0
  140.8247   73.1397  221.2163 H   0  0  0  0  0  0  0  0  0  0  0  0
  140.4559   77.6452  220.6760 H   0  0  0  0  0  0  0  0  0  0  0  0
  139.0889   77.5318  221.8091 H   0  0  0  0  0  0  0  0  0  0  0  0
  140.6244   76.5964  223.5673 H   0  0  0  0  0  0  0  0  0  0  0  0
  141.9959   76.6815  222.4195 H   0  0  0  0  0  0  0  0  0  0  0  0
  139.1665   79.0632  223.3498 H   0  0  0  0  0  0  0  0  0  0  0  0
  139.6844   81.4263  223.9558 H   0  0  0  0  0  0  0  0  0  0  0  0
  142.0166   82.2296  224.0114 H   0  0  0  0  0  0  0  0  0  0  0  0
  143.9055   80.7096  223.4768 H   0  0  0  0  0  0  0  0  0  0  0  0
  143.3933   78.3431  222.8740 H   0  0  0  0  0  0  0  0  0  0  0  0
  141.7078   78.4185  220.9271 H   0  0  0  0  0  0  0  0  0  0  0  0
  141.5825   80.8767  220.5217 H   0  0  0  0  0  0  0  0  0  0  0  0
  142.1498   81.7279  218.2409 H   0  0  0  0  0  0  0  0  0  0  0  0
  142.8224   80.1616  216.4363 H   0  0  0  0  0  0  0  0  0  0  0  0
  1  2  1  0
  2  3  1  0
  3  4  2  0
  4  5  1  0
  5  6  1  0
  6  7  2  0
  7  8  1  0
  8  9  2  0
  9 10  1  0
 10 11  2  0
 11 12  1  0
 12 13  1  0
 13 14  1  0
 14 15  2  0
 14 16  2  0
 14 17  1  0
 17 18  1  0
 18 19  1  0
 19 20  2  0
 20 21  1  0
 21 22  2  0
 22 23  1  0
 23 24  2  0
  4 25  1  0
 25 26  2  0
 26 27  1  0
 27 28  2  0
 28 29  1  0
 29 30  2  0
 30  2  1  0
 13  5  1  0
 24 19  1  0
 30 25  1  0
 11  6  1  0
  1 31  1  0
  1 32  1  0
  1 33  1  0
  3 34  1  0
  5 35  1  1
  7 36  1  0
  8 37  1  0
  9 38  1  0
 10 39  1  0
 12 40  1  0
 12 41  1  0
 17 42  1  0
 17 43  1  0
 18 44  1  0
 18 45  1  0
 20 46  1  0
 21 47  1  0
 22 48  1  0
 23 49  1  0
 24 50  1  0
 26 51  1  0
 27 52  1  0
 28 53  1  0
 29 54  1  0
M  END
>  <smiles>  (6) 
Cn1cc(C2c3ccccc3CN2S(=O)(=O)CCc2ccccc2)c2ccccc21

>  <score_type>  (6) 
oracle

>  <origin>  (6) 
autodockgpu

>  <m_score__min__energy>  (6) 
-9.1699999999999999

>  <m_primary>  (6) 
energy

>  <meeko>  (6) 
{"free_energy": -8.77, "intermolecular_energy": -10.26, "internal_energy": -2.15, "cluster_size": 12, "cluster_id": 2, "rank_in_cluster": 6}

>  <energy>  (6) 
-8.62

>  <cluster_rmsd>  (6) 
1.83

>  <rmsd>  (6) 
270.73

>  <cluster>  (6) 
1

$$$$

     RDKit          3D

 54 58  0  0  1  0  0  0  0  0999 V2000
  143.3270   77.3820  215.6400 C   0  0  0  0  0  0  0  0  0  0  0  0
  142.9650   77.2640  217.0420 N   0  0  0  0  0  0  0  0  0  0  0  0
  142.9460   76.1640  217.8030 C   0  0  0  0  0  0  0  0  0  0  0  0
  142.5440   76.4640  219.0890 C   0  0  0  0  0  0  0  0  0  0  0  0
  142.3720   75.5850  220.2660 C   0  0  2  0  0  0  0  0  0  0  0  0
  143.5050   74.6540  220.4510 C   0  0  0  0  0  0  0  0  0  0  0  0
  144.8480   74.8780  220.4580 C   0  0  0  0  0  0  0  0  0  0  0  0
  145.7410   73.8430  220.6510 C   0  0  0  0  0  0  0  0  0  0  0  0
  145.2080   72.5650  220.8370 C   0  0  0  0  0  0  0  0  0  0  0  0
  143.8420   72.3500  220.8280 C   0  0  0  0  0  0  0  0  0  0  0  0
  142.9590   73.4070  220.6310 C   0  0  0  0  0  0  0  0  0  0  0  0
  141.4810   73.4390  220.5800 C   0  0  0  0  0  0  0  0  0  0  0  0
  141.1800   74.8140  220.2560 N   0  0  0  0  0  0  0  0  0  0  0  0
  140.0960   75.3810  221.4760 S   0  0  0  0  0  0  0  0  0  0  0  0
  139.7070   74.2070  222.3320 O   0  0  0  0  0  0  0  0  0  0  0  0
  138.8120   75.9190  220.9000 O   0  0  0  0  0  0  0  0  0  0  0  0
  140.8140   76.6340  222.4830 C   0  0  0  0  0  0  0  0  0  0  0  0
  139.8000   77.7830  222.5640 C   0  0  0  0  0  0  0  0  0  0  0  0
  140.5250   79.0330  222.9260 C   0  0  0  0  0  0  0  0  0  0  0  0
  139.9670   80.2850  222.7470 C   0  0  0  0  0  0  0  0  0  0  0  0
  140.7140   81.3950  223.1130 C   0  0  0  0  0  0  0  0  0  0  0  0
  141.9880   81.2520  223.6450 C   0  0  0  0  0  0  0  0  0  0  0  0
  142.5550   80.0130  223.8290 C   0  0  0  0  0  0  0  0  0  0  0  0
  141.8070   78.9030  223.4630 C   0  0  0  0  0  0  0  0  0  0  0  0
  142.3140   77.8450  219.0720 C   0  0  0  0  0  0  0  0  0  0  0  0
  141.8960   78.7220  220.0560 C   0  0  0  0  0  0  0  0  0  0  0  0
  141.7290   80.0820  219.8160 C   0  0  0  0  0  0  0  0  0  0  0  0
  142.0000   80.5370  218.5350 C   0  0  0  0  0  0  0  0  0  0  0  0
  142.4230   79.6630  217.5320 C   0  0  0  0  0  0  0  0  0  0  0  0
  142.5820   78.3040  217.8000 C   0  0  0  0  0  0  0  0  0  0  0  0
  144.3699   77.7220  215.5580 H   0  0  0  0  0  0  0  0  0  0  0  0
  143.2209   76.4028  215.1502 H   0  0  0  0  0  0  0  0  0  0  0  0
  142.6642   78.1106  215.1502 H   0  0  0  0  0  0  0  0  0  0  0  0
  143.2144   75.1568  217.4515 H   0  0  0  0  0  0  0  0  0  0  0  0
  142.3187   76.2985  221.1016 H   0  0  0  0  0  0  0  0  0  0  0  0
  145.2274   75.8995  220.3075 H   0  0  0  0  0  0  0  0  0  0  0  0
  146.8271   74.0173  220.6580 H   0  0  0  0  0  0  0  0  0  0  0  0
  145.8874   71.7142  220.9935 H   0  0  0  0  0  0  0  0  0  0  0  0
  143.4497   71.3334  220.9781 H   0  0  0  0  0  0  0  0  0  0  0  0
  141.1004   72.7603  219.8025 H   0  0  0  0  0  0  0  0  0  0  0  0
  141.0145   73.1104  221.5204 H   0  0  0  0  0  0  0  0  0  0  0  0
  141.0179   76.2389  223.4891 H   0  0  0  0  0  0  0  0  0  0  0  0
  141.7666   76.9814  222.0565 H   0  0  0  0  0  0  0  0  0  0  0  0
  139.3058   77.9103  221.5895 H   0  0  0  0  0  0  0  0  0  0  0  0
  139.0373   77.5578  223.3240 H   0  0  0  0  0  0  0  0  0  0  0  0
  138.9573   80.3980  222.3254 H   0  0  0  0  0  0  0  0  0  0  0  0
  140.2912   82.4017  222.9799 H   0  0  0  0  0  0  0  0  0  0  0  0
  142.5571   82.1505  223.9258 H   0  0  0  0  0  0  0  0  0  0  0  0
  143.5651   79.9055  224.2511 H   0  0  0  0  0  0  0  0  0  0  0  0
  142.2337   77.8983  223.5990 H   0  0  0  0  0  0  0  0  0  0  0  0
  141.6884   78.3309  221.0629 H   0  0  0  0  0  0  0  0  0  0  0  0
  141.3960   80.7674  220.6093 H   0  0  0  0  0  0  0  0  0  0  0  0
  141.8796   81.6059  218.3047 H   0  0  0  0  0  0  0  0  0  0  0  0
  142.6323   80.0491  216.5235 H   0  0  0  0  0  0  0  0  0  0  0  0
  1  2  1  0
  2  3  1  0
  3  4  2  0
  4  5  1  0
  5  6  1  0
  6  7  2  0
  7  8  1  0
  8  9  2  0
  9 10  1  0
 10 11  2  0
 11 12  1  0
 12 13  1  0
 13 14  1  0
 14 15  2  0
 14 16  2  0
 14 17  1  0
 17 18  1  0
 18 19  1  0
 19 20  2  0
 20 21  1  0
 21 22  2  0
 22 23  1  0
 23 24  2  0
  4 25  1  0
 25 26  2  0
 26 27  1  0
 27 28  2  0
 28 29  1  0
 29 30  2  0
 30  2  1  0
 13  5  1  0
 24 19  1  0
 30 25  1  0
 11  6  1  0
  1 31  1  0
  1 32  1  0
  1 33  1  0
  3 34  1  0
  5 35  1  1
  7 36  1  0
  8 37  1  0
  9 38  1  0
 10 39  1  0
 12 40  1  0
 12 41  1  0
 17 42  1  0
 17 43  1  0
 18 44  1  0
 18 45  1  0
 20 46  1  0
 21 47  1  0
 22 48  1  0
 23 49  1  0
 24 50  1  0
 26 51  1  0
 27 52  1  0
 28 53  1  0
 29 54  1  0
M  END
>  <smiles>  (7) 
Cn1cc(C2c3ccccc3CN2S(=O)(=O)CCc2ccccc2)c2ccccc21

>  <score_type>  (7) 
oracle

>  <origin>  (7) 
autodockgpu

>  <m_score__min__energy>  (7) 
-9.1699999999999999

>  <m_primary>  (7) 
energy

>  <meeko>  (7) 
{"free_energy": -8.81, "intermolecular_energy": -10.3, "internal_energy": -2.24, "cluster_size": 12, "cluster_id": 2, "rank_in_cluster": 3}

>  <energy>  (7) 
-8.07

>  <cluster_rmsd>  (7) 
1.82

>  <rmsd>  (7) 
270.53

>  <cluster>  (7) 
1

$$$$

     RDKit          3D

 54 58  0  0  1  0  0  0  0  0999 V2000
  143.3190   77.3840  215.6320 C   0  0  0  0  0  0  0  0  0  0  0  0
  142.9610   77.2690  217.0350 N   0  0  0  0  0  0  0  0  0  0  0  0
  142.9410   76.1710  217.7980 C   0  0  0  0  0  0  0  0  0  0  0  0
  142.5430   76.4730  219.0850 C   0  0  0  0  0  0  0  0  0  0  0  0
  142.3720   75.5970  220.2630 C   0  0  2  0  0  0  0  0  0  0  0  0
  143.5040   74.6640  220.4480 C   0  0  0  0  0  0  0  0  0  0  0  0
  144.8470   74.8860  220.4520 C   0  0  0  0  0  0  0  0  0  0  0  0
  145.7390   73.8500  220.6440 C   0  0  0  0  0  0  0  0  0  0  0  0
  145.2040   72.5730  220.8330 C   0  0  0  0  0  0  0  0  0  0  0  0
  143.8380   72.3600  220.8270 C   0  0  0  0  0  0  0  0  0  0  0  0
  142.9560   73.4180  220.6310 C   0  0  0  0  0  0  0  0  0  0  0  0
  141.4780   73.4530  220.5830 C   0  0  0  0  0  0  0  0  0  0  0  0
  141.1780   74.8270  220.2570 N   0  0  0  0  0  0  0  0  0  0  0  0
  140.0980   75.3990  221.4780 S   0  0  0  0  0  0  0  0  0  0  0  0
  139.7060   74.2250  222.3340 O   0  0  0  0  0  0  0  0  0  0  0  0
  138.8150   75.9410  220.9040 O   0  0  0  0  0  0  0  0  0  0  0  0
  140.8210   76.6490  222.4840 C   0  0  0  0  0  0  0  0  0  0  0  0
  139.8110   77.8000  222.5690 C   0  0  0  0  0  0  0  0  0  0  0  0
  140.5400   79.0490  222.9270 C   0  0  0  0  0  0  0  0  0  0  0  0
  139.9850   80.3020  222.7470 C   0  0  0  0  0  0  0  0  0  0  0  0
  140.7360   81.4100  223.1090 C   0  0  0  0  0  0  0  0  0  0  0  0
  142.0120   81.2650  223.6380 C   0  0  0  0  0  0  0  0  0  0  0  0
  142.5750   80.0250  223.8220 C   0  0  0  0  0  0  0  0  0  0  0  0
  141.8230   78.9170  223.4600 C   0  0  0  0  0  0  0  0  0  0  0  0
  142.3160   77.8550  219.0660 C   0  0  0  0  0  0  0  0  0  0  0  0
  141.9030   78.7350  220.0500 C   0  0  0  0  0  0  0  0  0  0  0  0
  141.7380   80.0940  219.8080 C   0  0  0  0  0  0  0  0  0  0  0  0
  142.0070   80.5470  218.5260 C   0  0  0  0  0  0  0  0  0  0  0  0
  142.4250   79.6710  217.5230 C   0  0  0  0  0  0  0  0  0  0  0  0
  142.5820   78.3120  217.7930 C   0  0  0  0  0  0  0  0  0  0  0  0
  144.3631   77.7194  215.5463 H   0  0  0  0  0  0  0  0  0  0  0  0
  143.2072   76.4047  215.1436 H   0  0  0  0  0  0  0  0  0  0  0  0
  142.6578   78.1150  215.1436 H   0  0  0  0  0  0  0  0  0  0  0  0
  143.2060   75.1626  217.4473 H   0  0  0  0  0  0  0  0  0  0  0  0
  142.3215   76.3126  221.0969 H   0  0  0  0  0  0  0  0  0  0  0  0
  145.2275   75.9068  220.2999 H   0  0  0  0  0  0  0  0  0  0  0  0
  146.8254   74.0225  220.6480 H   0  0  0  0  0  0  0  0  0  0  0  0
  145.8824   71.7213  220.9895 H   0  0  0  0  0  0  0  0  0  0  0  0
  143.4446   71.3440  220.9787 H   0  0  0  0  0  0  0  0  0  0  0  0
  141.0946   72.7733  219.8077 H   0  0  0  0  0  0  0  0  0  0  0  0
  141.0133   73.1275  221.5254 H   0  0  0  0  0  0  0  0  0  0  0  0
  141.0265   76.2523  223.4892 H   0  0  0  0  0  0  0  0  0  0  0  0
  141.7731   76.9946  222.0550 H   0  0  0  0  0  0  0  0  0  0  0  0
  139.3127   77.9279  221.5967 H   0  0  0  0  0  0  0  0  0  0  0  0
  139.0516   77.5769  223.3329 H   0  0  0  0  0  0  0  0  0  0  0  0
  138.9746   80.4171  222.3278 H   0  0  0  0  0  0  0  0  0  0  0  0
  140.3154   82.4176  222.9754 H   0  0  0  0  0  0  0  0  0  0  0  0
  142.5844   82.1623  223.9157 H   0  0  0  0  0  0  0  0  0  0  0  0
  143.5859   79.9150  224.2414 H   0  0  0  0  0  0  0  0  0  0  0  0
  142.2476   77.9114  223.5962 H   0  0  0  0  0  0  0  0  0  0  0  0
  141.6981   78.3463  221.0584 H   0  0  0  0  0  0  0  0  0  0  0  0
  141.4077   80.7812  220.6009 H   0  0  0  0  0  0  0  0  0  0  0  0
  141.8890   81.6160  218.2949 H   0  0  0  0  0  0  0  0  0  0  0  0
  142.6319   80.0551  216.5132 H   0  0  0  0  0  0  0  0  0  0  0  0
  1  2  1  0
  2  3  1  0
  3  4  2  0
  4  5  1  0
  5  6  1  0
  6  7  2  0
  7  8  1  0
  8  9  2  0
  9 10  1  0
 10 11  2  0
 11 12  1  0
 12 13  1  0
 13 14  1  0
 14 15  2  0
 14 16  2  0
 14 17  1  0
 17 18  1  0
 18 19  1  0
 19 20  2  0
 20 21  1  0
 21 22  2  0
 22 23  1  0
 23 24  2  0
  4 25  1  0
 25 26  2  0
 26 27  1  0
 27 28  2  0
 28 29  1  0
 29 30  2  0
 30  2  1  0
 13  5  1  0
 24 19  1  0
 30 25  1  0
 11  6  1  0
  1 31  1  0
  1 32  1  0
  1 33  1  0
  3 34  1  0
  5 35  1  1
  7 36  1  0
  8 37  1  0
  9 38  1  0
 10 39  1  0
 12 40  1  0
 12 41  1  0
 17 42  1  0
 17 43  1  0
 18 44  1  0
 18 45  1  0
 20 46  1  0
 21 47  1  0
 22 48  1  0
 23 49  1  0
 24 50  1  0
 26 51  1  0
 27 52  1  0
 28 53  1  0
 29 54  1  0
M  END
>  <smiles>  (8) 
Cn1cc(C2c3ccccc3CN2S(=O)(=O)CCc2ccccc2)c2ccccc21

>  <score_type>  (8) 
oracle

>  <origin>  (8) 
autodockgpu

>  <m_score__min__energy>  (8) 
-9.1699999999999999

>  <m_primary>  (8) 
energy

>  <meeko>  (8) 
{"free_energy": -8.81, "intermolecular_energy": -10.3, "internal_energy": -2.24, "cluster_size": 12, "cluster_id": 2, "rank_in_cluster": 2}

>  <energy>  (8) 
-8.81

>  <cluster_rmsd>  (8) 
0.0

>  <rmsd>  (8) 
270.88

>  <cluster>  (8) 
2

$$$$

     RDKit          3D

 54 58  0  0  1  0  0  0  0  0999 V2000
  143.3040   77.3800  215.6420 C   0  0  0  0  0  0  0  0  0  0  0  0
  142.9360   77.2670  217.0430 N   0  0  0  0  0  0  0  0  0  0  0  0
  142.9210   76.1710  217.8100 C   0  0  0  0  0  0  0  0  0  0  0  0
  142.5100   76.4740  219.0920 C   0  0  0  0  0  0  0  0  0  0  0  0
  142.3390   75.6000  220.2720 C   0  0  2  0  0  0  0  0  0  0  0  0
  143.4670   74.6630  220.4550 C   0  0  0  0  0  0  0  0  0  0  0  0
  144.8120   74.8790  220.4540 C   0  0  0  0  0  0  0  0  0  0  0  0
  145.6990   73.8390  220.6450 C   0  0  0  0  0  0  0  0  0  0  0  0
  145.1590   72.5640  220.8380 C   0  0  0  0  0  0  0  0  0  0  0  0
  143.7920   72.3580  220.8370 C   0  0  0  0  0  0  0  0  0  0  0  0
  142.9140   73.4200  220.6410 C   0  0  0  0  0  0  0  0  0  0  0  0
  141.4360   73.4610  220.5980 C   0  0  0  0  0  0  0  0  0  0  0  0
  141.1420   74.8360  220.2710 N   0  0  0  0  0  0  0  0  0  0  0  0
  140.0680   75.4150  221.4950 S   0  0  0  0  0  0  0  0  0  0  0  0
  139.6620   74.2420  222.3450 O   0  0  0  0  0  0  0  0  0  0  0  0
  138.7910   75.9740  220.9230 O   0  0  0  0  0  0  0  0  0  0  0  0
  140.8060   76.6520  222.5060 C   0  0  0  0  0  0  0  0  0  0  0  0
  139.7940   77.7990  222.6260 C   0  0  0  0  0  0  0  0  0  0  0  0
  140.5300   79.0510  222.9560 C   0  0  0  0  0  0  0  0  0  0  0  0
  139.9740   80.3030  222.7680 C   0  0  0  0  0  0  0  0  0  0  0  0
  140.7310   81.4140  223.1030 C   0  0  0  0  0  0  0  0  0  0  0  0
  142.0150   81.2750  223.6130 C   0  0  0  0  0  0  0  0  0  0  0  0
  142.5800   80.0360  223.8050 C   0  0  0  0  0  0  0  0  0  0  0  0
  141.8210   78.9240  223.4700 C   0  0  0  0  0  0  0  0  0  0  0  0
  142.2680   77.8530  219.0660 C   0  0  0  0  0  0  0  0  0  0  0  0
  141.8380   78.7320  220.0430 C   0  0  0  0  0  0  0  0  0  0  0  0
  141.6610   80.0890  219.7950 C   0  0  0  0  0  0  0  0  0  0  0  0
  141.9350   80.5390  218.5130 C   0  0  0  0  0  0  0  0  0  0  0  0
  142.3710   79.6640  217.5170 C   0  0  0  0  0  0  0  0  0  0  0  0
  142.5390   78.3080  217.7930 C   0  0  0  0  0  0  0  0  0  0  0  0
  144.3528   77.7021  215.5632 H   0  0  0  0  0  0  0  0  0  0  0  0
  143.1825   76.4032  215.1510 H   0  0  0  0  0  0  0  0  0  0  0  0
  142.6552   78.1203  215.1510 H   0  0  0  0  0  0  0  0  0  0  0  0
  143.1988   75.1641  217.4652 H   0  0  0  0  0  0  0  0  0  0  0  0
  142.2945   76.3169  221.1051 H   0  0  0  0  0  0  0  0  0  0  0  0
  145.1969   75.8977  220.2986 H   0  0  0  0  0  0  0  0  0  0  0  0
  146.7862   74.0064  220.6454 H   0  0  0  0  0  0  0  0  0  0  0  0
  145.8339   71.7094  220.9934 H   0  0  0  0  0  0  0  0  0  0  0  0
  143.3941   71.3444  220.9927 H   0  0  0  0  0  0  0  0  0  0  0  0
  141.0469   72.7820  219.8250 H   0  0  0  0  0  0  0  0  0  0  0  0
  140.9726   73.1385  221.5421 H   0  0  0  0  0  0  0  0  0  0  0  0
  141.0307   76.2413  223.5014 H   0  0  0  0  0  0  0  0  0  0  0  0
  141.7494   77.0066  222.0652 H   0  0  0  0  0  0  0  0  0  0  0  0
  139.2605   77.9235  221.6722 H   0  0  0  0  0  0  0  0  0  0  0  0
  139.0634   77.5736  223.4168 H   0  0  0  0  0  0  0  0  0  0  0  0
  138.9573   80.4140  222.3631 H   0  0  0  0  0  0  0  0  0  0  0  0
  140.3090   82.4201  222.9630 H   0  0  0  0  0  0  0  0  0  0  0  0
  142.5927   82.1754  223.8690 H   0  0  0  0  0  0  0  0  0  0  0  0
  143.5974   79.9304  224.2097 H   0  0  0  0  0  0  0  0  0  0  0  0
  142.2465   77.9197  223.6128 H   0  0  0  0  0  0  0  0  0  0  0  0
  141.6287   78.3446  221.0510 H   0  0  0  0  0  0  0  0  0  0  0  0
  141.3181   80.7759  220.5828 H   0  0  0  0  0  0  0  0  0  0  0  0
  141.8064   81.6055  218.2762 H   0  0  0  0  0  0  0  0  0  0  0  0
  142.5834   80.0468  216.5079 H   0  0  0  0  0  0  0  0  0  0  0  0
  1  2  1  0
  2  3  1  0
  3  4  2  0
  4  5  1  0
  5  6  1  0
  6  7  2  0
  7  8  1  0
  8  9  2  0
  9 10  1  0
 10 11  2  0
 11 12  1  0
 12 13  1  0
 13 14  1  0
 14 15  2  0
 14 16  2  0
 14 17  1  0
 17 18  1  0
 18 19  1  0
 19 20  2  0
 20 21  1  0
 21 22  2  0
 22 23  1  0
 23 24  2  0
  4 25  1  0
 25 26  2  0
 26 27  1  0
 27 28  2  0
 28 29  1  0
 29 30  2  0
 30  2  1  0
 13  5  1  0
 24 19  1  0
 30 25  1  0
 11  6  1  0
  1 31  1  0
  1 32  1  0
  1 33  1  0
  3 34  1  0
  5 35  1  1
  7 36  1  0
  8 37  1  0
  9 38  1  0
 10 39  1  0
 12 40  1  0
 12 41  1  0
 17 42  1  0
 17 43  1  0
 18 44  1  0
 18 45  1  0
 20 46  1  0
 21 47  1  0
 22 48  1  0
 23 49  1  0
 24 50  1  0
 26 51  1  0
 27 52  1  0
 28 53  1  0
 29 54  1  0
M  END
>  <smiles>  (9) 
Cn1cc(C2c3ccccc3CN2S(=O)(=O)CCc2ccccc2)c2ccccc21

>  <score_type>  (9) 
oracle

>  <origin>  (9) 
autodockgpu

>  <m_score__min__energy>  (9) 
-9.1699999999999999

>  <m_primary>  (9) 
energy

>  <meeko>  (9) 
{"free_energy": -8.81, "intermolecular_energy": -10.3, "internal_energy": -2.25, "cluster_size": 12, "cluster_id": 2, "rank_in_cluster": 1}

>  <energy>  (9) 
-8.81

>  <cluster_rmsd>  (9) 
0.04

>  <rmsd>  (9) 
270.89

>  <cluster>  (9) 
2

$$$$

     RDKit          3D

 54 58  0  0  1  0  0  0  0  0999 V2000
  143.3180   77.3910  215.6200 C   0  0  0  0  0  0  0  0  0  0  0  0
  142.9470   77.2980  217.0210 N   0  0  0  0  0  0  0  0  0  0  0  0
  142.9230   76.2120  217.8020 C   0  0  0  0  0  0  0  0  0  0  0  0
  142.5110   76.5350  219.0800 C   0  0  0  0  0  0  0  0  0  0  0  0
  142.3320   75.6780  220.2700 C   0  0  2  0  0  0  0  0  0  0  0  0
  143.4350   74.7100  220.4470 C   0  0  0  0  0  0  0  0  0  0  0  0
  144.7850   74.8870  220.4260 C   0  0  0  0  0  0  0  0  0  0  0  0
  145.6450   73.8240  220.6150 C   0  0  0  0  0  0  0  0  0  0  0  0
  145.0720   72.5670  220.8280 C   0  0  0  0  0  0  0  0  0  0  0  0
  143.6990   72.4010  220.8480 C   0  0  0  0  0  0  0  0  0  0  0  0
  142.8490   73.4850  220.6540 C   0  0  0  0  0  0  0  0  0  0  0  0
  141.3720   73.5680  220.6300 C   0  0  0  0  0  0  0  0  0  0  0  0
  141.1130   74.9490  220.2940 N   0  0  0  0  0  0  0  0  0  0  0  0
  140.0740   75.5700  221.5260 S   0  0  0  0  0  0  0  0  0  0  0  0
  139.5970   74.4090  222.3560 O   0  0  0  0  0  0  0  0  0  0  0  0
  138.8350   76.2150  220.9630 O   0  0  0  0  0  0  0  0  0  0  0  0
  140.8830   76.7420  222.5600 C   0  0  0  0  0  0  0  0  0  0  0  0
  139.9580   77.9620  222.6670 C   0  0  0  0  0  0  0  0  0  0  0  0
  140.7850   79.1590  222.9890 C   0  0  0  0  0  0  0  0  0  0  0  0
  142.0750   79.0530  223.4730 C   0  0  0  0  0  0  0  0  0  0  0  0
  142.7710   80.2210  223.7450 C   0  0  0  0  0  0  0  0  0  0  0  0
  142.1880   81.4640  223.5370 C   0  0  0  0  0  0  0  0  0  0  0  0
  140.9050   81.5830  223.0560 C   0  0  0  0  0  0  0  0  0  0  0  0
  140.2100   80.4140  222.7840 C   0  0  0  0  0  0  0  0  0  0  0  0
  142.2800   77.9150  219.0360 C   0  0  0  0  0  0  0  0  0  0  0  0
  141.8550   78.8100  220.0000 C   0  0  0  0  0  0  0  0  0  0  0  0
  141.6890   80.1650  219.7350 C   0  0  0  0  0  0  0  0  0  0  0  0
  141.9680   80.5970  218.4480 C   0  0  0  0  0  0  0  0  0  0  0  0
  142.3990   79.7060  217.4640 C   0  0  0  0  0  0  0  0  0  0  0  0
  142.5570   78.3520  217.7580 C   0  0  0  0  0  0  0  0  0  0  0  0
  144.3821   77.6578  215.5394 H   0  0  0  0  0  0  0  0  0  0  0  0
  143.1448   76.4217  215.1297 H   0  0  0  0  0  0  0  0  0  0  0  0
  142.7080   78.1640  215.1297 H   0  0  0  0  0  0  0  0  0  0  0  0
  143.1947   75.1988  217.4710 H   0  0  0  0  0  0  0  0  0  0  0  0
  142.3206   76.4042  221.0961 H   0  0  0  0  0  0  0  0  0  0  0  0
  145.1966   75.8928  220.2557 H   0  0  0  0  0  0  0  0  0  0  0  0
  146.7364   73.9605  220.5987 H   0  0  0  0  0  0  0  0  0  0  0  0
  145.7242   71.6948  220.9824 H   0  0  0  0  0  0  0  0  0  0  0  0
  143.2745   71.4008  221.0192 H   0  0  0  0  0  0  0  0  0  0  0  0
  140.9534   72.8937  219.8684 H   0  0  0  0  0  0  0  0  0  0  0  0
  140.9122   73.2673  221.5830 H   0  0  0  0  0  0  0  0  0  0  0  0
  141.0554   76.3103  223.5570 H   0  0  0  0  0  0  0  0  0  0  0  0
  141.8596   77.0261  222.1410 H   0  0  0  0  0  0  0  0  0  0  0  0
  139.4376   78.1175  221.7104 H   0  0  0  0  0  0  0  0  0  0  0  0
  139.2102   77.7984  223.4570 H   0  0  0  0  0  0  0  0  0  0  0  0
  142.5372   78.0686  223.6381 H   0  0  0  0  0  0  0  0  0  0  0  0
  143.7994   80.1621  224.1309 H   0  0  0  0  0  0  0  0  0  0  0  0
  142.7648   82.3732  223.7618 H   0  0  0  0  0  0  0  0  0  0  0  0
  140.4467   82.5696  222.8929 H   0  0  0  0  0  0  0  0  0  0  0  0
  139.1820   80.4775  222.3978 H   0  0  0  0  0  0  0  0  0  0  0  0
  141.6405   78.4372  221.0124 H   0  0  0  0  0  0  0  0  0  0  0  0
  141.3506   80.8643  220.5138 H   0  0  0  0  0  0  0  0  0  0  0  0
  141.8476   81.6613  218.1975 H   0  0  0  0  0  0  0  0  0  0  0  0
  142.6154   80.0741  216.4503 H   0  0  0  0  0  0  0  0  0  0  0  0
  1  2  1  0
  2  3  1  0
  3  4  2  0
  4  5  1  0
  5  6  1  0
  6  7  2  0
  7  8  1  0
  8  9  2  0
  9 10  1  0
 10 11  2  0
 11 12  1  0
 12 13  1  0
 13 14  1  0
 14 15  2  0
 14 16  2  0
 14 17  1  0
 17 18  1  0
 18 19  1  0
 19 20  2  0
 20 21  1  0
 21 22  2  0
 22 23  1  0
 23 24  2  0
  4 25  1  0
 25 26  2  0
 26 27  1  0
 27 28  2  0
 28 29  1  0
 29 30  2  0
 30  2  1  0
 13  5  1  0
 24 19  1  0
 30 25  1  0
 11  6  1  0
  1 31  1  0
  1 32  1  0
  1 33  1  0
  3 34  1  0
  5 35  1  1
  7 36  1  0
  8 37  1  0
  9 38  1  0
 10 39  1  0
 12 40  1  0
 12 41  1  0
 17 42  1  0
 17 43  1  0
 18 44  1  0
 18 45  1  0
 20 46  1  0
 21 47  1  0
 22 48  1  0
 23 49  1  0
 24 50  1  0
 26 51  1  0
 27 52  1  0
 28 53  1  0
 29 54  1  0
M  END
>  <smiles>  (10) 
Cn1cc(C2c3ccccc3CN2S(=O)(=O)CCc2ccccc2)c2ccccc21

>  <score_type>  (10) 
oracle

>  <origin>  (10) 
autodockgpu

>  <m_score__min__energy>  (10) 
-9.1699999999999999

>  <m_primary>  (10) 
energy

>  <meeko>  (10) 
{"free_energy": -8.76, "intermolecular_energy": -10.26, "internal_energy": -2.24, "cluster_size": 12, "cluster_id": 2, "rank_in_cluster": 8}

>  <energy>  (10) 
-8.81

>  <cluster_rmsd>  (10) 
0.05

>  <rmsd>  (10) 
270.88

>  <cluster>  (10) 
2

$$$$

     RDKit          3D

 54 58  0  0  1  0  0  0  0  0999 V2000
  143.3430   77.4050  215.6290 C   0  0  0  0  0  0  0  0  0  0  0  0
  142.9740   77.3060  217.0300 N   0  0  0  0  0  0  0  0  0  0  0  0
  142.9560   76.2180  217.8080 C   0  0  0  0  0  0  0  0  0  0  0  0
  142.5450   76.5350  219.0870 C   0  0  0  0  0  0  0  0  0  0  0  0
  142.3720   75.6730  220.2750 C   0  0  2  0  0  0  0  0  0  0  0  0
  143.4810   74.7120  220.4490 C   0  0  0  0  0  0  0  0  0  0  0  0
  144.8300   74.8980  220.4270 C   0  0  0  0  0  0  0  0  0  0  0  0
  145.6960   73.8400  220.6140 C   0  0  0  0  0  0  0  0  0  0  0  0
  145.1310   72.5790  220.8230 C   0  0  0  0  0  0  0  0  0  0  0  0
  143.7590   72.4030  220.8430 C   0  0  0  0  0  0  0  0  0  0  0  0
  142.9030   73.4830  220.6520 C   0  0  0  0  0  0  0  0  0  0  0  0
  141.4250   73.5570  220.6300 C   0  0  0  0  0  0  0  0  0  0  0  0
  141.1570   74.9360  220.2970 N   0  0  0  0  0  0  0  0  0  0  0  0
  140.1140   75.5470  221.5320 S   0  0  0  0  0  0  0  0  0  0  0  0
  139.6290   74.3790  222.3460 O   0  0  0  0  0  0  0  0  0  0  0  0
  138.8800   76.2030  220.9700 O   0  0  0  0  0  0  0  0  0  0  0  0
  140.9230   76.7050  222.5820 C   0  0  0  0  0  0  0  0  0  0  0  0
  139.9930   77.9180  222.7170 C   0  0  0  0  0  0  0  0  0  0  0  0
  140.8180   79.1200  223.0210 C   0  0  0  0  0  0  0  0  0  0  0  0
  142.1190   79.0230  223.4780 C   0  0  0  0  0  0  0  0  0  0  0  0
  142.8140   80.1950  223.7350 C   0  0  0  0  0  0  0  0  0  0  0  0
  142.2180   81.4340  223.5390 C   0  0  0  0  0  0  0  0  0  0  0  0
  140.9250   81.5450  223.0860 C   0  0  0  0  0  0  0  0  0  0  0  0
  140.2310   80.3720  222.8280 C   0  0  0  0  0  0  0  0  0  0  0  0
  142.3060   77.9140  219.0470 C   0  0  0  0  0  0  0  0  0  0  0  0
  141.8780   78.8040  220.0150 C   0  0  0  0  0  0  0  0  0  0  0  0
  141.7040   80.1590  219.7530 C   0  0  0  0  0  0  0  0  0  0  0  0
  141.9800   80.5960  218.4670 C   0  0  0  0  0  0  0  0  0  0  0  0
  142.4140   79.7100  217.4800 C   0  0  0  0  0  0  0  0  0  0  0  0
  142.5790   78.3560  217.7700 C   0  0  0  0  0  0  0  0  0  0  0  0
  144.4026   77.6893  215.5481 H   0  0  0  0  0  0  0  0  0  0  0  0
  143.1857   76.4329  215.1388 H   0  0  0  0  0  0  0  0  0  0  0  0
  142.7203   78.1678  215.1388 H   0  0  0  0  0  0  0  0  0  0  0  0
  143.2316   75.2070  217.4736 H   0  0  0  0  0  0  0  0  0  0  0  0
  142.3564   76.3965  221.1034 H   0  0  0  0  0  0  0  0  0  0  0  0
  145.2352   75.9065  220.2577 H   0  0  0  0  0  0  0  0  0  0  0  0
  146.7865   73.9833  220.5992 H   0  0  0  0  0  0  0  0  0  0  0  0
  145.7891   71.7107  220.9743 H   0  0  0  0  0  0  0  0  0  0  0  0
  143.3409   71.3996  221.0115 H   0  0  0  0  0  0  0  0  0  0  0  0
  141.0096   72.8814  219.8678 H   0  0  0  0  0  0  0  0  0  0  0  0
  140.9684   73.2518  221.5831 H   0  0  0  0  0  0  0  0  0  0  0  0
  141.1038   76.2564  223.5699 H   0  0  0  0  0  0  0  0  0  0  0  0
  141.8953   77.0019  222.1618 H   0  0  0  0  0  0  0  0  0  0  0  0
  139.4468   78.0725  221.7748 H   0  0  0  0  0  0  0  0  0  0  0  0
  139.2679   77.7464  223.5262 H   0  0  0  0  0  0  0  0  0  0  0  0
  142.5907   78.0415  223.6337 H   0  0  0  0  0  0  0  0  0  0  0  0
  143.8508   80.1427  224.0988 H   0  0  0  0  0  0  0  0  0  0  0  0
  142.7936   82.3471  223.7511 H   0  0  0  0  0  0  0  0  0  0  0  0
  140.4573   82.5289  222.9335 H   0  0  0  0  0  0  0  0  0  0  0  0
  139.1949   80.4295  222.4631 H   0  0  0  0  0  0  0  0  0  0  0  0
  141.6679   78.4275  221.0270 H   0  0  0  0  0  0  0  0  0  0  0  0
  141.3618   80.8544  220.5336 H   0  0  0  0  0  0  0  0  0  0  0  0
  141.8547   81.6605  218.2198 H   0  0  0  0  0  0  0  0  0  0  0  0
  142.6273   80.0820  216.4670 H   0  0  0  0  0  0  0  0  0  0  0  0
  1  2  1  0
  2  3  1  0
  3  4  2  0
  4  5  1  0
  5  6  1  0
  6  7  2  0
  7  8  1  0
  8  9  2  0
  9 10  1  0
 10 11  2  0
 11 12  1  0
 12 13  1  0
 13 14  1  0
 14 15  2  0
 14 16  2  0
 14 17  1  0
 17 18  1  0
 18 19  1  0
 19 20  2  0
 20 21  1  0
 21 22  2  0
 22 23  1  0
 23 24  2  0
  4 25  1  0
 25 26  2  0
 26 27  1  0
 27 28  2  0
 28 29  1  0
 29 30  2  0
 30  2  1  0
 13  5  1  0
 24 19  1  0
 30 25  1  0
 11  6  1  0
  1 31  1  0
  1 32  1  0
  1 33  1  0
  3 34  1  0
  5 35  1  1
  7 36  1  0
  8 37  1  0
  9 38  1  0
 10 39  1  0
 12 40  1  0
 12 41  1  0
 17 42  1  0
 17 43  1  0
 18 44  1  0
 18 45  1  0
 20 46  1  0
 21 47  1  0
 22 48  1  0
 23 49  1  0
 24 50  1  0
 26 51  1  0
 27 52  1  0
 28 53  1  0
 29 54  1  0
M  END
>  <smiles>  (11) 
Cn1cc(C2c3ccccc3CN2S(=O)(=O)CCc2ccccc2)c2ccccc21

>  <score_type>  (11) 
oracle

>  <origin>  (11) 
autodockgpu

>  <m_score__min__energy>  (11) 
-9.1699999999999999

>  <m_primary>  (11) 
energy

>  <meeko>  (11) 
{"free_energy": -8.76, "intermolecular_energy": -10.25, "internal_energy": -2.26, "cluster_size": 12, "cluster_id": 2, "rank_in_cluster": 9}

>  <energy>  (11) 
-8.81

>  <cluster_rmsd>  (11) 
0.02

>  <rmsd>  (11) 
270.88

>  <cluster>  (11) 
2

$$$$

     RDKit          3D

 54 58  0  0  1  0  0  0  0  0999 V2000
  143.3110   77.4030  215.6340 C   0  0  0  0  0  0  0  0  0  0  0  0
  142.9440   77.3030  217.0360 N   0  0  0  0  0  0  0  0  0  0  0  0
  142.9200   76.2140  217.8120 C   0  0  0  0  0  0  0  0  0  0  0  0
  142.5130   76.5310  219.0910 C   0  0  0  0  0  0  0  0  0  0  0  0
  142.3360   75.6680  220.2790 C   0  0  2  0  0  0  0  0  0  0  0  0
  143.4420   74.7030  220.4520 C   0  0  0  0  0  0  0  0  0  0  0  0
  144.7920   74.8840  220.4320 C   0  0  0  0  0  0  0  0  0  0  0  0
  145.6550   73.8230  220.6170 C   0  0  0  0  0  0  0  0  0  0  0  0
  145.0850   72.5630  220.8240 C   0  0  0  0  0  0  0  0  0  0  0  0
  143.7130   72.3920  220.8420 C   0  0  0  0  0  0  0  0  0  0  0  0
  142.8600   73.4750  220.6530 C   0  0  0  0  0  0  0  0  0  0  0  0
  141.3830   73.5540  220.6290 C   0  0  0  0  0  0  0  0  0  0  0  0
  141.1190   74.9350  220.2980 N   0  0  0  0  0  0  0  0  0  0  0  0
  140.0770   75.5470  221.5330 S   0  0  0  0  0  0  0  0  0  0  0  0
  139.5990   74.3810  222.3530 O   0  0  0  0  0  0  0  0  0  0  0  0
  138.8400   76.1970  220.9720 O   0  0  0  0  0  0  0  0  0  0  0  0
  140.8850   76.7130  222.5770 C   0  0  0  0  0  0  0  0  0  0  0  0
  139.9570   77.9280  222.6970 C   0  0  0  0  0  0  0  0  0  0  0  0
  140.7810   79.1260  223.0200 C   0  0  0  0  0  0  0  0  0  0  0  0
  142.0740   79.0220  223.4990 C   0  0  0  0  0  0  0  0  0  0  0  0
  142.7680   80.1910  223.7730 C   0  0  0  0  0  0  0  0  0  0  0  0
  142.1810   81.4330  223.5720 C   0  0  0  0  0  0  0  0  0  0  0  0
  140.8960   81.5510  223.0960 C   0  0  0  0  0  0  0  0  0  0  0  0
  140.2030   80.3810  222.8220 C   0  0  0  0  0  0  0  0  0  0  0  0
  142.2840   77.9120  219.0550 C   0  0  0  0  0  0  0  0  0  0  0  0
  141.8630   78.8020  220.0260 C   0  0  0  0  0  0  0  0  0  0  0  0
  141.6990   80.1590  219.7670 C   0  0  0  0  0  0  0  0  0  0  0  0
  141.9750   80.5970  218.4820 C   0  0  0  0  0  0  0  0  0  0  0  0
  142.4010   79.7100  217.4920 C   0  0  0  0  0  0  0  0  0  0  0  0
  142.5580   78.3540  217.7790 C   0  0  0  0  0  0  0  0  0  0  0  0
  144.3693   77.6914  215.5517 H   0  0  0  0  0  0  0  0  0  0  0  0
  143.1569   76.4301  215.1443 H   0  0  0  0  0  0  0  0  0  0  0  0
  142.6847   78.1632  215.1443 H   0  0  0  0  0  0  0  0  0  0  0  0
  143.1887   75.2018  217.4754 H   0  0  0  0  0  0  0  0  0  0  0  0
  142.3219   76.3899  221.1089 H   0  0  0  0  0  0  0  0  0  0  0  0
  145.2007   75.8916  220.2658 H   0  0  0  0  0  0  0  0  0  0  0  0
  146.7460   73.9627  220.6022 H   0  0  0  0  0  0  0  0  0  0  0  0
  145.7399   71.6922  220.9753 H   0  0  0  0  0  0  0  0  0  0  0  0
  143.2915   71.3895  221.0074 H   0  0  0  0  0  0  0  0  0  0  0  0
  140.9666   72.8811  219.8649 H   0  0  0  0  0  0  0  0  0  0  0  0
  140.9244   73.2488  221.5811 H   0  0  0  0  0  0  0  0  0  0  0  0
  141.0608   76.2727  223.5696 H   0  0  0  0  0  0  0  0  0  0  0  0
  141.8598   77.0041  222.1587 H   0  0  0  0  0  0  0  0  0  0  0  0
  139.4296   78.0869  221.7448 H   0  0  0  0  0  0  0  0  0  0  0  0
  139.2154   77.7571  223.4912 H   0  0  0  0  0  0  0  0  0  0  0  0
  142.5397   78.0383  223.6584 H   0  0  0  0  0  0  0  0  0  0  0  0
  143.7980   80.1334  224.1549 H   0  0  0  0  0  0  0  0  0  0  0  0
  142.7563   82.3428  223.7985 H   0  0  0  0  0  0  0  0  0  0  0  0
  140.4347   82.5371  222.9383 H   0  0  0  0  0  0  0  0  0  0  0  0
  139.1735   80.4437  222.4396 H   0  0  0  0  0  0  0  0  0  0  0  0
  141.6507   78.4244  221.0371 H   0  0  0  0  0  0  0  0  0  0  0  0
  141.3641   80.8553  220.5500 H   0  0  0  0  0  0  0  0  0  0  0  0
  141.8563   81.6629  218.2375 H   0  0  0  0  0  0  0  0  0  0  0  0
  142.6142   80.0826  216.4792 H   0  0  0  0  0  0  0  0  0  0  0  0
  1  2  1  0
  2  3  1  0
  3  4  2  0
  4  5  1  0
  5  6  1  0
  6  7  2  0
  7  8  1  0
  8  9  2  0
  9 10  1  0
 10 11  2  0
 11 12  1  0
 12 13  1  0
 13 14  1  0
 14 15  2  0
 14 16  2  0
 14 17  1  0
 17 18  1  0
 18 19  1  0
 19 20  2  0
 20 21  1  0
 21 22  2  0
 22 23  1  0
 23 24  2  0
  4 25  1  0
 25 26  2  0
 26 27  1  0
 27 28  2  0
 28 29  1  0
 29 30  2  0
 30  2  1  0
 13  5  1  0
 24 19  1  0
 30 25  1  0
 11  6  1  0
  1 31  1  0
  1 32  1  0
  1 33  1  0
  3 34  1  0
  5 35  1  1
  7 36  1  0
  8 37  1  0
  9 38  1  0
 10 39  1  0
 12 40  1  0
 12 41  1  0
 17 42  1  0
 17 43  1  0
 18 44  1  0
 18 45  1  0
 20 46  1  0
 21 47  1  0
 22 48  1  0
 23 49  1  0
 24 50  1  0
 26 51  1  0
 27 52  1  0
 28 53  1  0
 29 54  1  0
M  END
>  <smiles>  (12) 
Cn1cc(C2c3ccccc3CN2S(=O)(=O)CCc2ccccc2)c2ccccc21

>  <score_type>  (12) 
oracle

>  <origin>  (12) 
autodockgpu

>  <m_score__min__energy>  (12) 
-9.1699999999999999

>  <m_primary>  (12) 
energy

>  <meeko>  (12) 
{"free_energy": -8.77, "intermolecular_energy": -10.26, "internal_energy": -2.25, "cluster_size": 12, "cluster_id": 2, "rank_in_cluster": 7}

>  <energy>  (12) 
-8.81

>  <cluster_rmsd>  (12) 
0.02

>  <rmsd>  (12) 
270.88

>  <cluster>  (12) 
2

$$$$

     RDKit          3D

 54 58  0  0  1  0  0  0  0  0999 V2000
  143.3000   77.3550  215.6260 C   0  0  0  0  0  0  0  0  0  0  0  0
  142.9390   77.2480  217.0290 N   0  0  0  0  0  0  0  0  0  0  0  0
  142.9230   76.1550  217.7990 C   0  0  0  0  0  0  0  0  0  0  0  0
  142.5200   76.4640  219.0820 C   0  0  0  0  0  0  0  0  0  0  0  0
  142.3520   75.5950  220.2660 C   0  0  2  0  0  0  0  0  0  0  0  0
  143.4830   74.6630  220.4550 C   0  0  0  0  0  0  0  0  0  0  0  0
  144.8270   74.8850  220.4540 C   0  0  0  0  0  0  0  0  0  0  0  0
  145.7180   73.8490  220.6510 C   0  0  0  0  0  0  0  0  0  0  0  0
  145.1830   72.5730  220.8490 C   0  0  0  0  0  0  0  0  0  0  0  0
  143.8160   72.3610  220.8480 C   0  0  0  0  0  0  0  0  0  0  0  0
  142.9350   73.4190  220.6470 C   0  0  0  0  0  0  0  0  0  0  0  0
  141.4560   73.4540  220.6020 C   0  0  0  0  0  0  0  0  0  0  0  0
  141.1570   74.8270  220.2680 N   0  0  0  0  0  0  0  0  0  0  0  0
  140.0800   75.4070  221.4880 S   0  0  0  0  0  0  0  0  0  0  0  0
  139.6750   74.2350  222.3410 O   0  0  0  0  0  0  0  0  0  0  0  0
  138.8040   75.9620  220.9120 O   0  0  0  0  0  0  0  0  0  0  0  0
  140.8130   76.6480  222.4980 C   0  0  0  0  0  0  0  0  0  0  0  0
  139.8030   77.7970  222.6060 C   0  0  0  0  0  0  0  0  0  0  0  0
  140.5380   79.0470  222.9460 C   0  0  0  0  0  0  0  0  0  0  0  0
  139.9800   80.2990  222.7680 C   0  0  0  0  0  0  0  0  0  0  0  0
  140.7370   81.4090  223.1110 C   0  0  0  0  0  0  0  0  0  0  0  0
  142.0210   81.2670  223.6200 C   0  0  0  0  0  0  0  0  0  0  0  0
  142.5870   80.0280  223.8020 C   0  0  0  0  0  0  0  0  0  0  0  0
  141.8300   78.9180  223.4580 C   0  0  0  0  0  0  0  0  0  0  0  0
  142.2850   77.8440  219.0530 C   0  0  0  0  0  0  0  0  0  0  0  0
  141.8640   78.7290  220.0290 C   0  0  0  0  0  0  0  0  0  0  0  0
  141.6920   80.0860  219.7780 C   0  0  0  0  0  0  0  0  0  0  0  0
  141.9620   80.5300  218.4930 C   0  0  0  0  0  0  0  0  0  0  0  0
  142.3870   79.6500  217.4980 C   0  0  0  0  0  0  0  0  0  0  0  0
  142.5510   78.2940  217.7780 C   0  0  0  0  0  0  0  0  0  0  0  0
  144.3515   77.6667  215.5407 H   0  0  0  0  0  0  0  0  0  0  0  0
  143.1662   76.3786  215.1375 H   0  0  0  0  0  0  0  0  0  0  0  0
  142.6557   78.1008  215.1375 H   0  0  0  0  0  0  0  0  0  0  0  0
  143.1945   75.1457  217.4560 H   0  0  0  0  0  0  0  0  0  0  0  0
  142.3053   76.3158  221.0956 H   0  0  0  0  0  0  0  0  0  0  0  0
  145.2079   75.9045  220.2939 H   0  0  0  0  0  0  0  0  0  0  0  0
  146.8045   74.0207  220.6521 H   0  0  0  0  0  0  0  0  0  0  0  0
  145.8613   71.7219  221.0085 H   0  0  0  0  0  0  0  0  0  0  0  0
  143.4218   71.3465  221.0076 H   0  0  0  0  0  0  0  0  0  0  0  0
  141.0705   72.7699  219.8317 H   0  0  0  0  0  0  0  0  0  0  0  0
  140.9927   73.1341  221.5470 H   0  0  0  0  0  0  0  0  0  0  0  0
  141.0304   76.2417  223.4968 H   0  0  0  0  0  0  0  0  0  0  0  0
  141.7597   76.9990  222.0615 H   0  0  0  0  0  0  0  0  0  0  0  0
  139.2818   77.9234  221.6456 H   0  0  0  0  0  0  0  0  0  0  0  0
  139.0620   77.5730  223.3875 H   0  0  0  0  0  0  0  0  0  0  0  0
  138.9627   80.4118  222.3651 H   0  0  0  0  0  0  0  0  0  0  0  0
  140.3145   82.4159  222.9780 H   0  0  0  0  0  0  0  0  0  0  0  0
  142.5978   82.1659  223.8833 H   0  0  0  0  0  0  0  0  0  0  0  0
  143.6044   79.9205  224.2062 H   0  0  0  0  0  0  0  0  0  0  0  0
  142.2575   77.9133  223.5917 H   0  0  0  0  0  0  0  0  0  0  0  0
  141.6580   78.3460  221.0394 H   0  0  0  0  0  0  0  0  0  0  0  0
  141.3562   80.7771  220.5652 H   0  0  0  0  0  0  0  0  0  0  0  0
  141.8388   81.5965  218.2535 H   0  0  0  0  0  0  0  0  0  0  0  0
  142.5941   80.0281  216.4860 H   0  0  0  0  0  0  0  0  0  0  0  0
  1  2  1  0
  2  3  1  0
  3  4  2  0
  4  5  1  0
  5  6  1  0
  6  7  2  0
  7  8  1  0
  8  9  2  0
  9 10  1  0
 10 11  2  0
 11 12  1  0
 12 13  1  0
 13 14  1  0
 14 15  2  0
 14 16  2  0
 14 17  1  0
 17 18  1  0
 18 19  1  0
 19 20  2  0
 20 21  1  0
 21 22  2  0
 22 23  1  0
 23 24  2  0
  4 25  1  0
 25 26  2  0
 26 27  1  0
 27 28  2  0
 28 29  1  0
 29 30  2  0
 30  2  1  0
 13  5  1  0
 24 19  1  0
 30 25  1  0
 11  6  1  0
  1 31  1  0
  1 32  1  0
  1 33  1  0
  3 34  1  0
  5 35  1  1
  7 36  1  0
  8 37  1  0
  9 38  1  0
 10 39  1  0
 12 40  1  0
 12 41  1  0
 17 42  1  0
 17 43  1  0
 18 44  1  0
 18 45  1  0
 20 46  1  0
 21 47  1  0
 22 48  1  0
 23 49  1  0
 24 50  1  0
 26 51  1  0
 27 52  1  0
 28 53  1  0
 29 54  1  0
M  END
>  <smiles>  (13) 
Cn1cc(C2c3ccccc3CN2S(=O)(=O)CCc2ccccc2)c2ccccc21

>  <score_type>  (13) 
oracle

>  <origin>  (13) 
autodockgpu

>  <m_score__min__energy>  (13) 
-9.1699999999999999

>  <m_primary>  (13) 
energy

>  <meeko>  (13) 
{"free_energy": -8.81, "intermolecular_energy": -10.3, "internal_energy": -2.25, "cluster_size": 12, "cluster_id": 2, "rank_in_cluster": 4}

>  <energy>  (13) 
-8.77

>  <cluster_rmsd>  (13) 
0.49

>  <rmsd>  (13) 
270.82

>  <cluster>  (13) 
2

$$$$

     RDKit          3D

 54 58  0  0  1  0  0  0  0  0999 V2000
  142.5120   78.4330  217.8920 C   0  0  0  0  0  0  0  0  0  0  0  0
  142.2320   77.5410  219.0040 N   0  0  0  0  0  0  0  0  0  0  0  0
  142.4850   76.2310  219.0990 C   0  0  0  0  0  0  0  0  0  0  0  0
  142.0680   75.7370  220.3190 C   0  0  0  0  0  0  0  0  0  0  0  0
  142.1370   74.3670  220.8690 C   0  0  2  0  0  0  0  0  0  0  0  0
  143.4350   73.7120  220.6040 C   0  0  0  0  0  0  0  0  0  0  0  0
  144.7090   74.1560  220.7890 C   0  0  0  0  0  0  0  0  0  0  0  0
  145.7920   73.3630  220.4660 C   0  0  0  0  0  0  0  0  0  0  0  0
  145.5240   72.0940  219.9450 C   0  0  0  0  0  0  0  0  0  0  0  0
  144.2250   71.6550  219.7620 C   0  0  0  0  0  0  0  0  0  0  0  0
  143.1470   72.4700  220.0930 C   0  0  0  0  0  0  0  0  0  0  0  0
  141.6890   72.2370  219.9960 C   0  0  0  0  0  0  0  0  0  0  0  0
  141.1140   73.4950  220.4090 N   0  0  0  0  0  0  0  0  0  0  0  0
  140.0160   73.1370  221.6950 S   0  0  0  0  0  0  0  0  0  0  0  0
  138.8480   72.3920  221.1100 O   0  0  0  0  0  0  0  0  0  0  0  0
  139.4440   74.3800  222.3250 O   0  0  0  0  0  0  0  0  0  0  0  0
  140.7600   72.1700  222.9630 C   0  0  0  0  0  0  0  0  0  0  0  0
  139.6530   71.3040  223.5780 C   0  0  0  0  0  0  0  0  0  0  0  0
  139.9800   71.0580  225.0100 C   0  0  0  0  0  0  0  0  0  0  0  0
  140.8250   71.8860  225.7240 C   0  0  0  0  0  0  0  0  0  0  0  0
  141.0740   71.5810  227.0540 C   0  0  0  0  0  0  0  0  0  0  0  0
  140.4910   70.4720  227.6520 C   0  0  0  0  0  0  0  0  0  0  0  0
  139.6480   69.6390  226.9530 C   0  0  0  0  0  0  0  0  0  0  0  0
  139.4000   69.9460  225.6230 C   0  0  0  0  0  0  0  0  0  0  0  0
  141.5320   76.8480  220.9820 C   0  0  0  0  0  0  0  0  0  0  0  0
  140.9590   76.9870  222.2330 C   0  0  0  0  0  0  0  0  0  0  0  0
  140.4830   78.2070  222.7000 C   0  0  0  0  0  0  0  0  0  0  0  0
  140.6030   79.2990  221.8550 C   0  0  0  0  0  0  0  0  0  0  0  0
  141.1790   79.1740  220.5900 C   0  0  0  0  0  0  0  0  0  0  0  0
  141.6480   77.9390  220.1470 C   0  0  0  0  0  0  0  0  0  0  0  0
  142.8204   79.4155  218.2787 H   0  0  0  0  0  0  0  0  0  0  0  0
  143.3207   78.0105  217.2776 H   0  0  0  0  0  0  0  0  0  0  0  0
  141.6069   78.5484  217.2776 H   0  0  0  0  0  0  0  0  0  0  0  0
  142.9611   75.6285  218.3114 H   0  0  0  0  0  0  0  0  0  0  0  0
  141.9994   74.5273  221.9485 H   0  0  0  0  0  0  0  0  0  0  0  0
  144.8777   75.1615  221.2020 H   0  0  0  0  0  0  0  0  0  0  0  0
  146.8236   73.7155  220.6127 H   0  0  0  0  0  0  0  0  0  0  0  0
  146.3608   71.4327  219.6758 H   0  0  0  0  0  0  0  0  0  0  0  0
  144.0425   70.6513  219.3506 H   0  0  0  0  0  0  0  0  0  0  0  0
  141.3985   71.9929  218.9635 H   0  0  0  0  0  0  0  0  0  0  0  0
  141.3504   71.3906  220.6116 H   0  0  0  0  0  0  0  0  0  0  0  0
  141.5468   71.5301  222.5370 H   0  0  0  0  0  0  0  0  0  0  0  0
  141.2228   72.8136  223.7256 H   0  0  0  0  0  0  0  0  0  0  0  0
  138.6886   71.8277  223.5031 H   0  0  0  0  0  0  0  0  0  0  0  0
  139.5826   70.3473  223.0397 H   0  0  0  0  0  0  0  0  0  0  0  0
  141.2881   72.7640  225.2500 H   0  0  0  0  0  0  0  0  0  0  0  0
  141.7424   72.2265  227.6428 H   0  0  0  0  0  0  0  0  0  0  0  0
  140.7079   70.2544  228.7082 H   0  0  0  0  0  0  0  0  0  0  0  0
  139.1876   68.7619  227.4312 H   0  0  0  0  0  0  0  0  0  0  0  0
  138.7308   69.2981  225.0379 H   0  0  0  0  0  0  0  0  0  0  0  0
  140.8770   76.1018  222.8809 H   0  0  0  0  0  0  0  0  0  0  0  0
  140.0303   78.3016  223.6980 H   0  0  0  0  0  0  0  0  0  0  0  0
  140.2377   80.2819  222.1874 H   0  0  0  0  0  0  0  0  0  0  0  0
  141.2633   80.0562  219.9384 H   0  0  0  0  0  0  0  0  0  0  0  0
  1  2  1  0
  2  3  1  0
  3  4  2  0
  4  5  1  0
  5  6  1  0
  6  7  2  0
  7  8  1  0
  8  9  2  0
  9 10  1  0
 10 11  2  0
 11 12  1  0
 12 13  1  0
 13 14  1  0
 14 15  2  0
 14 16  2  0
 14 17  1  0
 17 18  1  0
 18 19  1  0
 19 20  2  0
 20 21  1  0
 21 22  2  0
 22 23  1  0
 23 24  2  0
  4 25  1  0
 25 26  2  0
 26 27  1  0
 27 28  2  0
 28 29  1  0
 29 30  2  0
 30  2  1  0
 13  5  1  0
 24 19  1  0
 30 25  1  0
 11  6  1  0
  1 31  1  0
  1 32  1  0
  1 33  1  0
  3 34  1  0
  5 35  1  1
  7 36  1  0
  8 37  1  0
  9 38  1  0
 10 39  1  0
 12 40  1  0
 12 41  1  0
 17 42  1  0
 17 43  1  0
 18 44  1  0
 18 45  1  0
 20 46  1  0
 21 47  1  0
 22 48  1  0
 23 49  1  0
 24 50  1  0
 26 51  1  0
 27 52  1  0
 28 53  1  0
 29 54  1  0
M  END
>  <smiles>  (14) 
Cn1cc(C2c3ccccc3CN2S(=O)(=O)CCc2ccccc2)c2ccccc21

>  <score_type>  (14) 
oracle

>  <origin>  (14) 
autodockgpu

>  <m_score__min__energy>  (14) 
-9.1699999999999999

>  <m_primary>  (14) 
energy

>  <meeko>  (14) 
{"free_energy": -9.03, "intermolecular_energy": -10.52, "internal_energy": -1.58, "cluster_size": 7, "cluster_id": 1, "rank_in_cluster": 2}

>  <energy>  (14) 
-8.77

>  <cluster_rmsd>  (14) 
0.14

>  <rmsd>  (14) 
270.92

>  <cluster>  (14) 
2

$$$$

     RDKit          3D

 54 58  0  0  1  0  0  0  0  0999 V2000
  143.3390   77.4050  215.6290 C   0  0  0  0  0  0  0  0  0  0  0  0
  142.9680   77.3040  217.0300 N   0  0  0  0  0  0  0  0  0  0  0  0
  142.9430   76.2140  217.8050 C   0  0  0  0  0  0  0  0  0  0  0  0
  142.5330   76.5300  219.0840 C   0  0  0  0  0  0  0  0  0  0  0  0
  142.3540   75.6660  220.2700 C   0  0  2  0  0  0  0  0  0  0  0  0
  143.4640   74.7060  220.4490 C   0  0  0  0  0  0  0  0  0  0  0  0
  144.8120   74.8950  220.4360 C   0  0  0  0  0  0  0  0  0  0  0  0
  145.6800   73.8380  220.6260 C   0  0  0  0  0  0  0  0  0  0  0  0
  145.1150   72.5750  220.8300 C   0  0  0  0  0  0  0  0  0  0  0  0
  143.7440   72.3970  220.8410 C   0  0  0  0  0  0  0  0  0  0  0  0
  142.8870   73.4760  220.6470 C   0  0  0  0  0  0  0  0  0  0  0  0
  141.4090   73.5470  220.6150 C   0  0  0  0  0  0  0  0  0  0  0  0
  141.1410   74.9270  220.2830 N   0  0  0  0  0  0  0  0  0  0  0  0
  140.0890   75.5340  221.5130 S   0  0  0  0  0  0  0  0  0  0  0  0
  139.6130   74.3650  222.3310 O   0  0  0  0  0  0  0  0  0  0  0  0
  138.8500   76.1750  220.9450 O   0  0  0  0  0  0  0  0  0  0  0  0
  140.8840   76.7040  222.5590 C   0  0  0  0  0  0  0  0  0  0  0  0
  139.9460   77.9120  222.6790 C   0  0  0  0  0  0  0  0  0  0  0  0
  140.7590   79.1170  223.0020 C   0  0  0  0  0  0  0  0  0  0  0  0
  142.0440   79.0240  223.5030 C   0  0  0  0  0  0  0  0  0  0  0  0
  142.7290   80.1990  223.7750 C   0  0  0  0  0  0  0  0  0  0  0  0
  142.1390   81.4360  223.5510 C   0  0  0  0  0  0  0  0  0  0  0  0
  140.8620   81.5430  223.0530 C   0  0  0  0  0  0  0  0  0  0  0  0
  140.1780   80.3670  222.7810 C   0  0  0  0  0  0  0  0  0  0  0  0
  142.3030   77.9100  219.0480 C   0  0  0  0  0  0  0  0  0  0  0  0
  141.8780   78.8000  220.0180 C   0  0  0  0  0  0  0  0  0  0  0  0
  141.7130   80.1560  219.7610 C   0  0  0  0  0  0  0  0  0  0  0  0
  141.9920   80.5950  218.4760 C   0  0  0  0  0  0  0  0  0  0  0  0
  142.4210   79.7100  217.4870 C   0  0  0  0  0  0  0  0  0  0  0  0
  142.5790   78.3540  217.7730 C   0  0  0  0  0  0  0  0  0  0  0  0
  144.3976   77.6932  215.5499 H   0  0  0  0  0  0  0  0  0  0  0  0
  143.1861   76.4325  215.1382 H   0  0  0  0  0  0  0  0  0  0  0  0
  142.7142   78.1657  215.1382 H   0  0  0  0  0  0  0  0  0  0  0  0
  143.2129   75.2022  217.4681 H   0  0  0  0  0  0  0  0  0  0  0  0
  142.3319   76.3881  221.0995 H   0  0  0  0  0  0  0  0  0  0  0  0
  145.2159   75.9049  220.2717 H   0  0  0  0  0  0  0  0  0  0  0  0
  146.7703   73.9833  220.6173 H   0  0  0  0  0  0  0  0  0  0  0  0
  145.7734   71.7075  220.9845 H   0  0  0  0  0  0  0  0  0  0  0  0
  143.3266   71.3925  221.0047 H   0  0  0  0  0  0  0  0  0  0  0  0
  141.0001   72.8723  219.8484 H   0  0  0  0  0  0  0  0  0  0  0  0
  140.9462   73.2386  221.5641 H   0  0  0  0  0  0  0  0  0  0  0  0
  141.0612   76.2638  223.5514 H   0  0  0  0  0  0  0  0  0  0  0  0
  141.8572   77.0037  222.1429 H   0  0  0  0  0  0  0  0  0  0  0  0
  139.4175   78.0664  221.7267 H   0  0  0  0  0  0  0  0  0  0  0  0
  139.2062   77.7348  223.4735 H   0  0  0  0  0  0  0  0  0  0  0  0
  142.5109   78.0441  223.6813 H   0  0  0  0  0  0  0  0  0  0  0  0
  143.7532   80.1504  224.1734 H   0  0  0  0  0  0  0  0  0  0  0  0
  142.7062   82.3509  223.7771 H   0  0  0  0  0  0  0  0  0  0  0  0
  140.3994   82.5253  222.8766 H   0  0  0  0  0  0  0  0  0  0  0  0
  139.1543   80.4208  222.3820 H   0  0  0  0  0  0  0  0  0  0  0  0
  141.6631   78.4213  221.0282 H   0  0  0  0  0  0  0  0  0  0  0  0
  141.3754   80.8511  220.5438 H   0  0  0  0  0  0  0  0  0  0  0  0
  141.8729   81.6609  218.2319 H   0  0  0  0  0  0  0  0  0  0  0  0
  142.6361   80.0838  216.4751 H   0  0  0  0  0  0  0  0  0  0  0  0
  1  2  1  0
  2  3  1  0
  3  4  2  0
  4  5  1  0
  5  6  1  0
  6  7  2  0
  7  8  1  0
  8  9  2  0
  9 10  1  0
 10 11  2  0
 11 12  1  0
 12 13  1  0
 13 14  1  0
 14 15  2  0
 14 16  2  0
 14 17  1  0
 17 18  1  0
 18 19  1  0
 19 20  2  0
 20 21  1  0
 21 22  2  0
 22 23  1  0
 23 24  2  0
  4 25  1  0
 25 26  2  0
 26 27  1  0
 27 28  2  0
 28 29  1  0
 29 30  2  0
 30  2  1  0
 13  5  1  0
 24 19  1  0
 30 25  1  0
 11  6  1  0
  1 31  1  0
  1 32  1  0
  1 33  1  0
  3 34  1  0
  5 35  1  1
  7 36  1  0
  8 37  1  0
  9 38  1  0
 10 39  1  0
 12 40  1  0
 12 41  1  0
 17 42  1  0
 17 43  1  0
 18 44  1  0
 18 45  1  0
 20 46  1  0
 21 47  1  0
 22 48  1  0
 23 49  1  0
 24 50  1  0
 26 51  1  0
 27 52  1  0
 28 53  1  0
 29 54  1  0
M  END
>  <smiles>  (15) 
Cn1cc(C2c3ccccc3CN2S(=O)(=O)CCc2ccccc2)c2ccccc21

>  <score_type>  (15) 
oracle

>  <origin>  (15) 
autodockgpu

>  <m_score__min__energy>  (15) 
-9.1699999999999999

>  <m_primary>  (15) 
energy

>  <meeko>  (15) 
{"free_energy": -8.76, "intermolecular_energy": -10.25, "internal_energy": -2.25, "cluster_size": 12, "cluster_id": 2, "rank_in_cluster": 10}

>  <energy>  (15) 
-8.76

>  <cluster_rmsd>  (15) 
0.16

>  <rmsd>  (15) 
270.91

>  <cluster>  (15) 
2

$$$$

     RDKit          3D

 54 58  0  0  1  0  0  0  0  0999 V2000
  143.3460   77.3110  215.6260 C   0  0  0  0  0  0  0  0  0  0  0  0
  142.9830   77.1890  217.0270 N   0  0  0  0  0  0  0  0  0  0  0  0
  142.9810   76.0900  217.7910 C   0  0  0  0  0  0  0  0  0  0  0  0
  142.5700   76.3850  219.0750 C   0  0  0  0  0  0  0  0  0  0  0  0
  142.4120   75.5060  220.2520 C   0  0  2  0  0  0  0  0  0  0  0  0
  143.5610   74.5970  220.4440 C   0  0  0  0  0  0  0  0  0  0  0  0
  144.9000   74.8460  220.4550 C   0  0  0  0  0  0  0  0  0  0  0  0
  145.8110   73.8290  220.6530 C   0  0  0  0  0  0  0  0  0  0  0  0
  145.3020   72.5400  220.8390 C   0  0  0  0  0  0  0  0  0  0  0  0
  143.9400   72.3000  220.8260 C   0  0  0  0  0  0  0  0  0  0  0  0
  143.0370   73.3400  220.6240 C   0  0  0  0  0  0  0  0  0  0  0  0
  141.5590   73.3440  220.5680 C   0  0  0  0  0  0  0  0  0  0  0  0
  141.2330   74.7120  220.2400 N   0  0  0  0  0  0  0  0  0  0  0  0
  140.1350   75.2620  221.4560 S   0  0  0  0  0  0  0  0  0  0  0  0
  139.7770   74.0850  222.3210 O   0  0  0  0  0  0  0  0  0  0  0  0
  138.8380   75.7610  220.8750 O   0  0  0  0  0  0  0  0  0  0  0  0
  140.8200   76.5410  222.4520 C   0  0  0  0  0  0  0  0  0  0  0  0
  139.8160   77.7010  222.4490 C   0  0  0  0  0  0  0  0  0  0  0  0
  140.5110   78.9340  222.9140 C   0  0  0  0  0  0  0  0  0  0  0  0
  139.8880   80.1680  222.9310 C   0  0  0  0  0  0  0  0  0  0  0  0
  140.6120   81.2620  223.3800 C   0  0  0  0  0  0  0  0  0  0  0  0
  141.9270   81.1230  223.8000 C   0  0  0  0  0  0  0  0  0  0  0  0
  142.5590   79.9020  223.7890 C   0  0  0  0  0  0  0  0  0  0  0  0
  141.8340   78.8070  223.3400 C   0  0  0  0  0  0  0  0  0  0  0  0
  142.3160   77.7620  219.0550 C   0  0  0  0  0  0  0  0  0  0  0  0
  141.8800   78.6340  220.0360 C   0  0  0  0  0  0  0  0  0  0  0  0
  141.6900   79.9900  219.7930 C   0  0  0  0  0  0  0  0  0  0  0  0
  141.9560   80.4470  218.5120 C   0  0  0  0  0  0  0  0  0  0  0  0
  142.3970   79.5790  217.5110 C   0  0  0  0  0  0  0  0  0  0  0  0
  142.5790   78.2240  217.7830 C   0  0  0  0  0  0  0  0  0  0  0  0
  144.3859   77.6605  215.5458 H   0  0  0  0  0  0  0  0  0  0  0  0
  143.2496   76.3311  215.1356 H   0  0  0  0  0  0  0  0  0  0  0  0
  142.6774   78.0338  215.1356 H   0  0  0  0  0  0  0  0  0  0  0  0
  143.2682   75.0870  217.4425 H   0  0  0  0  0  0  0  0  0  0  0  0
  142.3439   76.2206  221.0855 H   0  0  0  0  0  0  0  0  0  0  0  0
  145.2607   75.8741  220.3036 H   0  0  0  0  0  0  0  0  0  0  0  0
  146.8935   74.0242  220.6641 H   0  0  0  0  0  0  0  0  0  0  0  0
  145.9969   71.7023  220.9984 H   0  0  0  0  0  0  0  0  0  0  0  0
  143.5663   71.2765  220.9769 H   0  0  0  0  0  0  0  0  0  0  0  0
  141.1940   72.6565  219.7907 H   0  0  0  0  0  0  0  0  0  0  0  0
  141.0957   73.0087  221.5077 H   0  0  0  0  0  0  0  0  0  0  0  0
  140.9743   76.1780  223.4789 H   0  0  0  0  0  0  0  0  0  0  0  0
  141.7944   76.8652  222.0577 H   0  0  0  0  0  0  0  0  0  0  0  0
  139.4308   77.8548  221.4302 H   0  0  0  0  0  0  0  0  0  0  0  0
  138.9738   77.4701  223.1178 H   0  0  0  0  0  0  0  0  0  0  0  0
  138.8458   80.2790  222.5972 H   0  0  0  0  0  0  0  0  0  0  0  0
  140.1371   82.2539  223.4035 H   0  0  0  0  0  0  0  0  0  0  0  0
  142.4763   82.0096  224.1497 H   0  0  0  0  0  0  0  0  0  0  0  0
  143.6015   79.7968  224.1239 H   0  0  0  0  0  0  0  0  0  0  0  0
  142.3128   77.8169  223.3194 H   0  0  0  0  0  0  0  0  0  0  0  0
  141.6765   78.2414  221.0432 H   0  0  0  0  0  0  0  0  0  0  0  0
  141.3432   80.6711  220.5841 H   0  0  0  0  0  0  0  0  0  0  0  0
  141.8172   81.5131  218.2795 H   0  0  0  0  0  0  0  0  0  0  0  0
  142.6019   79.9667  216.5022 H   0  0  0  0  0  0  0  0  0  0  0  0
  1  2  1  0
  2  3  1  0
  3  4  2  0
  4  5  1  0
  5  6  1  0
  6  7  2  0
  7  8  1  0
  8  9  2  0
  9 10  1  0
 10 11  2  0
 11 12  1  0
 12 13  1  0
 13 14  1  0
 14 15  2  0
 14 16  2  0
 14 17  1  0
 17 18  1  0
 18 19  1  0
 19 20  2  0
 20 21  1  0
 21 22  2  0
 22 23  1  0
 23 24  2  0
  4 25  1  0
 25 26  2  0
 26 27  1  0
 27 28  2  0
 28 29  1  0
 29 30  2  0
 30  2  1  0
 13  5  1  0
 24 19  1  0
 30 25  1  0
 11  6  1  0
  1 31  1  0
  1 32  1  0
  1 33  1  0
  3 34  1  0
  5 35  1  1
  7 36  1  0
  8 37  1  0
  9 38  1  0
 10 39  1  0
 12 40  1  0
 12 41  1  0
 17 42  1  0
 17 43  1  0
 18 44  1  0
 18 45  1  0
 20 46  1  0
 21 47  1  0
 22 48  1  0
 23 49  1  0
 24 50  1  0
 26 51  1  0
 27 52  1  0
 28 53  1  0
 29 54  1  0
M  END
>  <smiles>  (16) 
Cn1cc(C2c3ccccc3CN2S(=O)(=O)CCc2ccccc2)c2ccccc21

>  <score_type>  (16) 
oracle

>  <origin>  (16) 
autodockgpu

>  <m_score__min__energy>  (16) 
-9.1699999999999999

>  <m_primary>  (16) 
energy

>  <meeko>  (16) 
{"free_energy": -8.81, "intermolecular_energy": -10.3, "internal_energy": -2.21, "cluster_size": 7, "cluster_id": 1, "rank_in_cluster": 3}

>  <energy>  (16) 
-8.76

>  <cluster_rmsd>  (16) 
0.16

>  <rmsd>  (16) 
270.94

>  <cluster>  (16) 
2

$$$$

     RDKit          3D

 54 58  0  0  1  0  0  0  0  0999 V2000
  143.3160   77.3670  215.6490 C   0  0  0  0  0  0  0  0  0  0  0  0
  142.9470   77.2520  217.0490 N   0  0  0  0  0  0  0  0  0  0  0  0
  142.9280   76.1560  217.8140 C   0  0  0  0  0  0  0  0  0  0  0  0
  142.5170   76.4580  219.0960 C   0  0  0  0  0  0  0  0  0  0  0  0
  142.3430   75.5830  220.2750 C   0  0  2  0  0  0  0  0  0  0  0  0
  143.4680   74.6420  220.4570 C   0  0  0  0  0  0  0  0  0  0  0  0
  144.8130   74.8530  220.4560 C   0  0  0  0  0  0  0  0  0  0  0  0
  145.6970   73.8100  220.6460 C   0  0  0  0  0  0  0  0  0  0  0  0
  145.1520   72.5360  220.8370 C   0  0  0  0  0  0  0  0  0  0  0  0
  143.7840   72.3350  220.8360 C   0  0  0  0  0  0  0  0  0  0  0  0
  142.9100   73.4000  220.6420 C   0  0  0  0  0  0  0  0  0  0  0  0
  141.4320   73.4470  220.5980 C   0  0  0  0  0  0  0  0  0  0  0  0
  141.1430   74.8240  220.2730 N   0  0  0  0  0  0  0  0  0  0  0  0
  140.0710   75.4040  221.4980 S   0  0  0  0  0  0  0  0  0  0  0  0
  139.6590   74.2310  222.3450 O   0  0  0  0  0  0  0  0  0  0  0  0
  138.7980   75.9710  220.9260 O   0  0  0  0  0  0  0  0  0  0  0  0
  140.8140   76.6350  222.5130 C   0  0  0  0  0  0  0  0  0  0  0  0
  139.8010   77.7780  222.6500 C   0  0  0  0  0  0  0  0  0  0  0  0
  140.5370   79.0320  222.9740 C   0  0  0  0  0  0  0  0  0  0  0  0
  139.9850   80.2830  222.7720 C   0  0  0  0  0  0  0  0  0  0  0  0
  140.7440   81.3960  223.1020 C   0  0  0  0  0  0  0  0  0  0  0  0
  142.0230   81.2580  223.6220 C   0  0  0  0  0  0  0  0  0  0  0  0
  142.5850   80.0200  223.8290 C   0  0  0  0  0  0  0  0  0  0  0  0
  141.8250   78.9070  223.4980 C   0  0  0  0  0  0  0  0  0  0  0  0
  142.2800   77.8380  219.0730 C   0  0  0  0  0  0  0  0  0  0  0  0
  141.8520   78.7170  220.0500 C   0  0  0  0  0  0  0  0  0  0  0  0
  141.6790   80.0750  219.8040 C   0  0  0  0  0  0  0  0  0  0  0  0
  141.9560   80.5260  218.5230 C   0  0  0  0  0  0  0  0  0  0  0  0
  142.3890   79.6510  217.5260 C   0  0  0  0  0  0  0  0  0  0  0  0
  142.5530   78.2940  217.8000 C   0  0  0  0  0  0  0  0  0  0  0  0
  144.3636   77.6935  215.5715 H   0  0  0  0  0  0  0  0  0  0  0  0
  143.1992   76.3898  215.1576 H   0  0  0  0  0  0  0  0  0  0  0  0
  142.6647   78.1048  215.1576 H   0  0  0  0  0  0  0  0  0  0  0  0
  143.2030   75.1487  217.4680 H   0  0  0  0  0  0  0  0  0  0  0  0
  142.3013   76.2986  221.1094 H   0  0  0  0  0  0  0  0  0  0  0  0
  145.2013   75.8705  220.3014 H   0  0  0  0  0  0  0  0  0  0  0  0
  146.7847   73.9739  220.6471 H   0  0  0  0  0  0  0  0  0  0  0  0
  145.8238   71.6786  220.9908 H   0  0  0  0  0  0  0  0  0  0  0  0
  143.3825   71.3226  220.9902 H   0  0  0  0  0  0  0  0  0  0  0  0
  141.0409   72.7707  219.8236 H   0  0  0  0  0  0  0  0  0  0  0  0
  140.9669   73.1249  221.5414 H   0  0  0  0  0  0  0  0  0  0  0  0
  141.0475   76.2170  223.5033 H   0  0  0  0  0  0  0  0  0  0  0  0
  141.7530   76.9953  222.0676 H   0  0  0  0  0  0  0  0  0  0  0  0
  139.2544   77.9036  221.7037 H   0  0  0  0  0  0  0  0  0  0  0  0
  139.0821   77.5479  223.4501 H   0  0  0  0  0  0  0  0  0  0  0  0
  138.9708   80.3929  222.3605 H   0  0  0  0  0  0  0  0  0  0  0  0
  140.3262   82.4021  222.9494 H   0  0  0  0  0  0  0  0  0  0  0  0
  142.6006   82.1594  223.8744 H   0  0  0  0  0  0  0  0  0  0  0  0
  143.5993   79.9158  224.2416 H   0  0  0  0  0  0  0  0  0  0  0  0
  142.2472   77.9030  223.6521 H   0  0  0  0  0  0  0  0  0  0  0  0
  141.6408   78.3290  221.0574 H   0  0  0  0  0  0  0  0  0  0  0  0
  141.3370   80.7617  220.5924 H   0  0  0  0  0  0  0  0  0  0  0  0
  141.8322   81.5934  218.2879 H   0  0  0  0  0  0  0  0  0  0  0  0
  142.6023   80.0345  216.5173 H   0  0  0  0  0  0  0  0  0  0  0  0
  1  2  1  0
  2  3  1  0
  3  4  2  0
  4  5  1  0
  5  6  1  0
  6  7  2  0
  7  8  1  0
  8  9  2  0
  9 10  1  0
 10 11  2  0
 11 12  1  0
 12 13  1  0
 13 14  1  0
 14 15  2  0
 14 16  2  0
 14 17  1  0
 17 18  1  0
 18 19  1  0
 19 20  2  0
 20 21  1  0
 21 22  2  0
 22 23  1  0
 23 24  2  0
  4 25  1  0
 25 26  2  0
 26 27  1  0
 27 28  2  0
 28 29  1  0
 29 30  2  0
 30  2  1  0
 13  5  1  0
 24 19  1  0
 30 25  1  0
 11  6  1  0
  1 31  1  0
  1 32  1  0
  1 33  1  0
  3 34  1  0
  5 35  1  1
  7 36  1  0
  8 37  1  0
  9 38  1  0
 10 39  1  0
 12 40  1  0
 12 41  1  0
 17 42  1  0
 17 43  1  0
 18 44  1  0
 18 45  1  0
 20 46  1  0
 21 47  1  0
 22 48  1  0
 23 49  1  0
 24 50  1  0
 26 51  1  0
 27 52  1  0
 28 53  1  0
 29 54  1  0
M  END
>  <smiles>  (17) 
Cn1cc(C2c3ccccc3CN2S(=O)(=O)CCc2ccccc2)c2ccccc21

>  <score_type>  (17) 
oracle

>  <origin>  (17) 
autodockgpu

>  <m_score__min__energy>  (17) 
-9.1699999999999999

>  <m_primary>  (17) 
energy

>  <meeko>  (17) 
{"free_energy": -8.81, "intermolecular_energy": -10.3, "internal_energy": -2.25, "cluster_size": 12, "cluster_id": 2, "rank_in_cluster": 5}

>  <energy>  (17) 
-8.76

>  <cluster_rmsd>  (17) 
0.13

>  <rmsd>  (17) 
270.92

>  <cluster>  (17) 
2

$$$$

     RDKit          3D

 54 58  0  0  1  0  0  0  0  0999 V2000
  141.2380   82.2440  219.1020 C   0  0  0  0  0  0  0  0  0  0  0  0
  141.3650   81.0070  219.8540 N   0  0  0  0  0  0  0  0  0  0  0  0
  141.2590   79.7510  219.4070 C   0  0  0  0  0  0  0  0  0  0  0  0
  141.4420   78.8470  220.4330 C   0  0  0  0  0  0  0  0  0  0  0  0
  141.4160   77.3690  220.4210 C   0  0  2  0  0  0  0  0  0  0  0  0
  142.0690   76.7980  219.2240 C   0  0  0  0  0  0  0  0  0  0  0  0
  143.2780   77.0650  218.6580 C   0  0  0  0  0  0  0  0  0  0  0  0
  143.6930   76.4020  217.5210 C   0  0  0  0  0  0  0  0  0  0  0  0
  142.8220   75.4520  216.9800 C   0  0  0  0  0  0  0  0  0  0  0  0
  141.5960   75.1900  217.5640 C   0  0  0  0  0  0  0  0  0  0  0  0
  141.1960   75.8700  218.7100 C   0  0  0  0  0  0  0  0  0  0  0  0
  139.9570   75.7730  219.5130 C   0  0  0  0  0  0  0  0  0  0  0  0
  140.1170   76.8020  220.5130 N   0  0  0  0  0  0  0  0  0  0  0  0
  139.9130   76.0330  222.0480 S   0  0  0  0  0  0  0  0  0  0  0  0
  141.0010   76.5300  222.9610 O   0  0  0  0  0  0  0  0  0  0  0  0
  140.0860   74.5390  221.9700 O   0  0  0  0  0  0  0  0  0  0  0  0
  138.3410   76.3690  222.7640 C   0  0  0  0  0  0  0  0  0  0  0  0
  137.6030   77.3140  221.8080 C   0  0  0  0  0  0  0  0  0  0  0  0
  137.9660   78.7180  222.1510 C   0  0  0  0  0  0  0  0  0  0  0  0
  137.8360   79.7540  221.2450 C   0  0  0  0  0  0  0  0  0  0  0  0
  138.1980   81.0290  221.6510 C   0  0  0  0  0  0  0  0  0  0  0  0
  138.6780   81.2600  222.9330 C   0  0  0  0  0  0  0  0  0  0  0  0
  138.8120   80.2390  223.8440 C   0  0  0  0  0  0  0  0  0  0  0  0
  138.4490   78.9630  223.4380 C   0  0  0  0  0  0  0  0  0  0  0  0
  141.6730   79.6410  221.5630 C   0  0  0  0  0  0  0  0  0  0  0  0
  141.9230   79.3160  222.8840 C   0  0  0  0  0  0  0  0  0  0  0  0
  142.1260   80.2840  223.8610 C   0  0  0  0  0  0  0  0  0  0  0  0
  142.0690   81.6100  223.4610 C   0  0  0  0  0  0  0  0  0  0  0  0
  141.8180   81.9540  222.1320 C   0  0  0  0  0  0  0  0  0  0  0  0
  141.6180   80.9620  221.1720 C   0  0  0  0  0  0  0  0  0  0  0  0
  141.1512   83.0900  219.7997 H   0  0  0  0  0  0  0  0  0  0  0  0
  142.1268   82.3809  218.4685 H   0  0  0  0  0  0  0  0  0  0  0  0
  140.3399   82.1975  218.4685 H   0  0  0  0  0  0  0  0  0  0  0  0
  141.0536   79.4758  218.3620 H   0  0  0  0  0  0  0  0  0  0  0  0
  141.9772   77.1048  221.3294 H   0  0  0  0  0  0  0  0  0  0  0  0
  143.9343   77.8209  219.1140 H   0  0  0  0  0  0  0  0  0  0  0  0
  144.6690   76.6125  217.0595 H   0  0  0  0  0  0  0  0  0  0  0  0
  143.1169   74.9030  216.0736 H   0  0  0  0  0  0  0  0  0  0  0  0
  140.9304   74.4364  217.1179 H   0  0  0  0  0  0  0  0  0  0  0  0
  139.0702   75.9647  218.8910 H   0  0  0  0  0  0  0  0  0  0  0  0
  139.8080   74.7740  219.9487 H   0  0  0  0  0  0  0  0  0  0  0  0
  137.7733   75.4344  222.8837 H   0  0  0  0  0  0  0  0  0  0  0  0
  138.4532   76.8267  223.7580 H   0  0  0  0  0  0  0  0  0  0  0  0
  137.8995   77.0976  220.7711 H   0  0  0  0  0  0  0  0  0  0  0  0
  136.5164   77.1729  221.9053 H   0  0  0  0  0  0  0  0  0  0  0  0
  137.4555   79.5715  220.2292 H   0  0  0  0  0  0  0  0  0  0  0  0
  138.1036   81.8694  220.9476 H   0  0  0  0  0  0  0  0  0  0  0  0
  138.9573   82.2827  223.2265 H   0  0  0  0  0  0  0  0  0  0  0  0
  139.1934   80.4271  224.8585 H   0  0  0  0  0  0  0  0  0  0  0  0
  138.5438   78.1260  224.1454 H   0  0  0  0  0  0  0  0  0  0  0  0
  141.9626   78.2550  223.1715 H   0  0  0  0  0  0  0  0  0  0  0  0
  142.3236   80.0092  224.9076 H   0  0  0  0  0  0  0  0  0  0  0  0
  142.2244   82.4055  224.2046 H   0  0  0  0  0  0  0  0  0  0  0  0
  141.7776   83.0137  221.8398 H   0  0  0  0  0  0  0  0  0  0  0  0
  1  2  1  0
  2  3  1  0
  3  4  2  0
  4  5  1  0
  5  6  1  0
  6  7  2  0
  7  8  1  0
  8  9  2  0
  9 10  1  0
 10 11  2  0
 11 12  1  0
 12 13  1  0
 13 14  1  0
 14 15  2  0
 14 16  2  0
 14 17  1  0
 17 18  1  0
 18 19  1  0
 19 20  2  0
 20 21  1  0
 21 22  2  0
 22 23  1  0
 23 24  2  0
  4 25  1  0
 25 26  2  0
 26 27  1  0
 27 28  2  0
 28 29  1  0
 29 30  2  0
 30  2  1  0
 13  5  1  0
 24 19  1  0
 30 25  1  0
 11  6  1  0
  1 31  1  0
  1 32  1  0
  1 33  1  0
  3 34  1  0
  5 35  1  1
  7 36  1  0
  8 37  1  0
  9 38  1  0
 10 39  1  0
 12 40  1  0
 12 41  1  0
 17 42  1  0
 17 43  1  0
 18 44  1  0
 18 45  1  0
 20 46  1  0
 21 47  1  0
 22 48  1  0
 23 49  1  0
 24 50  1  0
 26 51  1  0
 27 52  1  0
 28 53  1  0
 29 54  1  0
M  END
>  <smiles>  (18) 
Cn1cc(C2c3ccccc3CN2S(=O)(=O)CCc2ccccc2)c2ccccc21

>  <score_type>  (18) 
oracle

>  <origin>  (18) 
autodockgpu

>  <m_score__min__energy>  (18) 
-9.1699999999999999

>  <m_primary>  (18) 
energy

>  <meeko>  (18) 
{"free_energy": -6.77, "intermolecular_energy": -8.26, "internal_energy": -3.23, "cluster_size": 1, "cluster_id": 3, "rank_in_cluster": 1}

>  <energy>  (18) 
-8.74

>  <cluster_rmsd>  (18) 
0.49

>  <rmsd>  (18) 
270.77

>  <cluster>  (18) 
2

$$$$

     RDKit          3D

 54 58  0  0  1  0  0  0  0  0999 V2000
  142.4790   80.0430  217.4650 C   0  0  0  0  0  0  0  0  0  0  0  0
  142.5400   78.6780  217.9600 N   0  0  0  0  0  0  0  0  0  0  0  0
  142.2480   78.2260  219.1850 C   0  0  0  0  0  0  0  0  0  0  0  0
  142.4320   76.8610  219.2610 C   0  0  0  0  0  0  0  0  0  0  0  0
  142.2390   75.9340  220.3970 C   0  0  2  0  0  0  0  0  0  0  0  0
  143.2380   74.8450  220.4190 C   0  0  0  0  0  0  0  0  0  0  0  0
  144.5950   74.8800  220.3090 C   0  0  0  0  0  0  0  0  0  0  0  0
  145.3430   73.7210  220.3550 C   0  0  0  0  0  0  0  0  0  0  0  0
  144.6500   72.5180  220.5180 C   0  0  0  0  0  0  0  0  0  0  0  0
  143.2710   72.4950  220.6280 C   0  0  0  0  0  0  0  0  0  0  0  0
  142.5350   73.6750  220.5790 C   0  0  0  0  0  0  0  0  0  0  0  0
  141.0790   73.9150  220.6720 C   0  0  0  0  0  0  0  0  0  0  0  0
  140.9510   75.3370  220.4580 N   0  0  0  0  0  0  0  0  0  0  0  0
  140.0710   75.9620  221.8080 S   0  0  0  0  0  0  0  0  0  0  0  0
  141.0680   76.3910  222.8500 O   0  0  0  0  0  0  0  0  0  0  0  0
  139.2070   74.9180  222.4640 O   0  0  0  0  0  0  0  0  0  0  0  0
  139.0490   77.3260  221.3700 C   0  0  0  0  0  0  0  0  0  0  0  0
  139.0120   78.2680  222.5790 C   0  0  0  0  0  0  0  0  0  0  0  0
  140.2530   79.0920  222.5790 C   0  0  0  0  0  0  0  0  0  0  0  0
  140.6440   79.8330  221.4800 C   0  0  0  0  0  0  0  0  0  0  0  0
  141.8140   80.5720  221.5680 C   0  0  0  0  0  0  0  0  0  0  0  0
  142.5740   80.5660  222.7300 C   0  0  0  0  0  0  0  0  0  0  0  0
  142.1970   79.8340  223.8310 C   0  0  0  0  0  0  0  0  0  0  0  0
  141.0260   79.0960  223.7420 C   0  0  0  0  0  0  0  0  0  0  0  0
  142.8630   76.4920  217.9810 C   0  0  0  0  0  0  0  0  0  0  0  0
  143.2060   75.2660  217.4420 C   0  0  0  0  0  0  0  0  0  0  0  0
  143.6160   75.1250  216.1200 C   0  0  0  0  0  0  0  0  0  0  0  0
  143.6700   76.2750  215.3480 C   0  0  0  0  0  0  0  0  0  0  0  0
  143.3260   77.5190  215.8780 C   0  0  0  0  0  0  0  0  0  0  0  0
  142.9180   77.6310  217.2070 C   0  0  0  0  0  0  0  0  0  0  0  0
  142.4478   80.7403  218.3152 H   0  0  0  0  0  0  0  0  0  0  0  0
  143.3687   80.2510  216.8526 H   0  0  0  0  0  0  0  0  0  0  0  0
  141.5743   80.1709  216.8526 H   0  0  0  0  0  0  0  0  0  0  0  0
  141.9073   78.8575  220.0188 H   0  0  0  0  0  0  0  0  0  0  0  0
  142.3623   76.5878  221.2730 H   0  0  0  0  0  0  0  0  0  0  0  0
  145.1029   75.8473  220.1815 H   0  0  0  0  0  0  0  0  0  0  0  0
  146.4393   73.7430  220.2670 H   0  0  0  0  0  0  0  0  0  0  0  0
  145.2110   71.5727  220.5596 H   0  0  0  0  0  0  0  0  0  0  0  0
  142.7511   71.5341  220.7555 H   0  0  0  0  0  0  0  0  0  0  0  0
  140.5385   73.3517  219.8970 H   0  0  0  0  0  0  0  0  0  0  0  0
  140.6542   73.5891  221.6329 H   0  0  0  0  0  0  0  0  0  0  0  0
  139.4696   77.8479  220.4978 H   0  0  0  0  0  0  0  0  0  0  0  0
  138.0361   76.9875  221.1062 H   0  0  0  0  0  0  0  0  0  0  0  0
  138.1318   78.9241  222.5105 H   0  0  0  0  0  0  0  0  0  0  0  0
  138.9497   77.6833  223.5086 H   0  0  0  0  0  0  0  0  0  0  0  0
  140.0425   79.8365  220.5590 H   0  0  0  0  0  0  0  0  0  0  0  0
  142.1442   81.1706  220.7063 H   0  0  0  0  0  0  0  0  0  0  0  0
  143.4987   81.1604  222.7706 H   0  0  0  0  0  0  0  0  0  0  0  0
  142.8023   79.8336  224.7495 H   0  0  0  0  0  0  0  0  0  0  0  0
  140.6988   78.5004  224.6070 H   0  0  0  0  0  0  0  0  0  0  0  0
  143.1529   74.3715  218.0801 H   0  0  0  0  0  0  0  0  0  0  0  0
  143.8858   74.1427  215.7050 H   0  0  0  0  0  0  0  0  0  0  0  0
  143.9900   76.2056  214.2979 H   0  0  0  0  0  0  0  0  0  0  0  0
  143.3769   78.4165  215.2441 H   0  0  0  0  0  0  0  0  0  0  0  0
  1  2  1  0
  2  3  1  0
  3  4  2  0
  4  5  1  0
  5  6  1  0
  6  7  2  0
  7  8  1  0
  8  9  2  0
  9 10  1  0
 10 11  2  0
 11 12  1  0
 12 13  1  0
 13 14  1  0
 14 15  2  0
 14 16  2  0
 14 17  1  0
 17 18  1  0
 18 19  1  0
 19 20  2  0
 20 21  1  0
 21 22  2  0
 22 23  1  0
 23 24  2  0
  4 25  1  0
 25 26  2  0
 26 27  1  0
 27 28  2  0
 28 29  1  0
 29 30  2  0
 30  2  1  0
 13  5  1  0
 24 19  1  0
 30 25  1  0
 11  6  1  0
  1 31  1  0
  1 32  1  0
  1 33  1  0
  3 34  1  0
  5 35  1  1
  7 36  1  0
  8 37  1  0
  9 38  1  0
 10 39  1  0
 12 40  1  0
 12 41  1  0
 17 42  1  0
 17 43  1  0
 18 44  1  0
 18 45  1  0
 20 46  1  0
 21 47  1  0
 22 48  1  0
 23 49  1  0
 24 50  1  0
 26 51  1  0
 27 52  1  0
 28 53  1  0
 29 54  1  0
M  END
>  <smiles>  (19) 
Cn1cc(C2c3ccccc3CN2S(=O)(=O)CCc2ccccc2)c2ccccc21

>  <score_type>  (19) 
oracle

>  <origin>  (19) 
autodockgpu

>  <m_score__min__energy>  (19) 
-9.1699999999999999

>  <m_primary>  (19) 
energy

>  <meeko>  (19) 
{"free_energy": -7.86, "intermolecular_energy": -9.35, "internal_energy": -2.15, "cluster_size": 12, "cluster_id": 2, "rank_in_cluster": 12}

>  <energy>  (19) 
-7.86

>  <cluster_rmsd>  (19) 
1.34

>  <rmsd>  (19) 
270.52

>  <cluster>  (19) 
2

$$$$

     RDKit          3D

 54 58  0  0  1  0  0  0  0  0999 V2000
  143.3530   77.3620  215.4780 C   0  0  0  0  0  0  0  0  0  0  0  0
  142.9620   77.2540  216.8730 N   0  0  0  0  0  0  0  0  0  0  0  0
  142.8670   76.1520  217.6240 C   0  0  0  0  0  0  0  0  0  0  0  0
  142.4620   76.4650  218.9060 C   0  0  0  0  0  0  0  0  0  0  0  0
  142.2210   75.5890  220.0720 C   0  0  2  0  0  0  0  0  0  0  0  0
  143.3600   74.6910  220.3550 C   0  0  0  0  0  0  0  0  0  0  0  0
  144.6910   74.9520  220.4670 C   0  0  0  0  0  0  0  0  0  0  0  0
  145.5940   73.9430  220.7380 C   0  0  0  0  0  0  0  0  0  0  0  0
  145.0820   72.6510  220.8920 C   0  0  0  0  0  0  0  0  0  0  0  0
  143.7280   72.3990  220.7760 C   0  0  0  0  0  0  0  0  0  0  0  0
  142.8350   73.4300  220.5010 C   0  0  0  0  0  0  0  0  0  0  0  0
  141.3650   73.4210  220.3320 C   0  0  0  0  0  0  0  0  0  0  0  0
  141.0540   74.7850  219.9740 N   0  0  0  0  0  0  0  0  0  0  0  0
  139.8610   75.3300  221.0990 S   0  0  0  0  0  0  0  0  0  0  0  0
  139.9740   74.4830  222.3380 O   0  0  0  0  0  0  0  0  0  0  0  0
  138.4570   75.1350  220.5890 O   0  0  0  0  0  0  0  0  0  0  0  0
  140.0620   77.0270  221.5220 C   0  0  0  0  0  0  0  0  0  0  0  0
  141.0280   77.0830  222.7120 C   0  0  0  0  0  0  0  0  0  0  0  0
  141.2910   78.5110  223.0450 C   0  0  0  0  0  0  0  0  0  0  0  0
  142.5710   79.0330  223.0850 C   0  0  0  0  0  0  0  0  0  0  0  0
  142.7230   80.3740  223.4040 C   0  0  0  0  0  0  0  0  0  0  0  0
  141.6200   81.1710  223.6750 C   0  0  0  0  0  0  0  0  0  0  0  0
  140.3410   80.6660  223.6380 C   0  0  0  0  0  0  0  0  0  0  0  0
  140.1900   79.3240  223.3190 C   0  0  0  0  0  0  0  0  0  0  0  0
  142.3110   77.8570  218.8970 C   0  0  0  0  0  0  0  0  0  0  0  0
  141.9280   78.7490  219.8810 C   0  0  0  0  0  0  0  0  0  0  0  0
  141.8430   80.1180  219.6500 C   0  0  0  0  0  0  0  0  0  0  0  0
  142.1610   80.5660  218.3770 C   0  0  0  0  0  0  0  0  0  0  0  0
  142.5500   79.6780  217.3740 C   0  0  0  0  0  0  0  0  0  0  0  0
  142.6260   78.3100  217.6330 C   0  0  0  0  0  0  0  0  0  0  0  0
  144.4116   77.6544  215.4155 H   0  0  0  0  0  0  0  0  0  0  0  0
  143.2109   76.3910  214.9811 H   0  0  0  0  0  0  0  0  0  0  0  0
  142.7326   78.1224  214.9811 H   0  0  0  0  0  0  0  0  0  0  0  0
  143.0824   75.1336  217.2684 H   0  0  0  0  0  0  0  0  0  0  0  0
  142.0824   76.3062  220.8945 H   0  0  0  0  0  0  0  0  0  0  0  0
  145.0531   75.9828  220.3396 H   0  0  0  0  0  0  0  0  0  0  0  0
  146.6711   74.1471  220.8289 H   0  0  0  0  0  0  0  0  0  0  0  0
  145.7693   71.8201  221.1094 H   0  0  0  0  0  0  0  0  0  0  0  0
  143.3525   71.3728  220.9024 H   0  0  0  0  0  0  0  0  0  0  0  0
  141.0662   72.7275  219.5321 H   0  0  0  0  0  0  0  0  0  0  0  0
  140.8338   73.0852  221.2348 H   0  0  0  0  0  0  0  0  0  0  0  0
  140.4809   77.5815  220.6693 H   0  0  0  0  0  0  0  0  0  0  0  0
  139.0952   77.4836  221.7804 H   0  0  0  0  0  0  0  0  0  0  0  0
  140.5776   76.5774  223.5789 H   0  0  0  0  0  0  0  0  0  0  0  0
  141.9706   76.5778  222.4545 H   0  0  0  0  0  0  0  0  0  0  0  0
  143.4454   78.4013  222.8695 H   0  0  0  0  0  0  0  0  0  0  0  0
  143.7314   80.8117  223.4427 H   0  0  0  0  0  0  0  0  0  0  0  0
  141.7719   82.2313  223.9253 H   0  0  0  0  0  0  0  0  0  0  0  0
  139.4701   81.3025  223.8533 H   0  0  0  0  0  0  0  0  0  0  0  0
  139.1795   78.8910  223.2812 H   0  0  0  0  0  0  0  0  0  0  0  0
  141.6819   78.3629  220.8812 H   0  0  0  0  0  0  0  0  0  0  0  0
  141.5366   80.8155  220.4435 H   0  0  0  0  0  0  0  0  0  0  0  0
  142.1055   81.6417  218.1538 H   0  0  0  0  0  0  0  0  0  0  0  0
  142.7983   80.0593  216.3725 H   0  0  0  0  0  0  0  0  0  0  0  0
  1  2  1  0
  2  3  1  0
  3  4  2  0
  4  5  1  0
  5  6  1  0
  6  7  2  0
  7  8  1  0
  8  9  2  0
  9 10  1  0
 10 11  2  0
 11 12  1  0
 12 13  1  0
 13 14  1  0
 14 15  2  0
 14 16  2  0
 14 17  1  0
 17 18  1  0
 18 19  1  0
 19 20  2  0
 20 21  1  0
 21 22  2  0
 22 23  1  0
 23 24  2  0
  4 25  1  0
 25 26  2  0
 26 27  1  0
 27 28  2  0
 28 29  1  0
 29 30  2  0
 30  2  1  0
 13  5  1  0
 24 19  1  0
 30 25  1  0
 11  6  1  0
  1 31  1  0
  1 32  1  0
  1 33  1  0
  3 34  1  0
  5 35  1  1
  7 36  1  0
  8 37  1  0
  9 38  1  0
 10 39  1  0
 12 40  1  0
 12 41  1  0
 17 42  1  0
 17 43  1  0
 18 44  1  0
 18 45  1  0
 20 46  1  0
 21 47  1  0
 22 48  1  0
 23 49  1  0
 24 50  1  0
 26 51  1  0
 27 52  1  0
 28 53  1  0
 29 54  1  0
M  END
>  <smiles>  (20) 
Cn1cc(C2c3ccccc3CN2S(=O)(=O)CCc2ccccc2)c2ccccc21

>  <score_type>  (20) 
oracle

>  <origin>  (20) 
autodockgpu

>  <m_score__min__energy>  (20) 
-9.1699999999999999

>  <m_primary>  (20) 
energy

>  <meeko>  (20) 
{"free_energy": -8.74, "intermolecular_energy": -10.23, "internal_energy": -2.16, "cluster_size": 12, "cluster_id": 2, "rank_in_cluster": 11}

>  <energy>  (20) 
-6.77

>  <cluster_rmsd>  (20) 
0.0

>  <rmsd>  (20) 
270.93

>  <cluster>  (20) 
3

$$$$

     RDKit          3D

 54 58  0  0  1  0  0  0  0  0999 V2000
  136.4080   78.2830  222.7260 C   0  0  0  0  0  0  0  0  0  0  0  0
  137.6310   77.5700  222.4240 N   0  0  0  0  0  0  0  0  0  0  0  0
  137.7780   76.3990  221.7590 C   0  0  0  0  0  0  0  0  0  0  0  0
  139.1140   76.0650  221.6820 C   0  0  0  0  0  0  0  0  0  0  0  0
  139.7700   74.8960  221.0550 C   0  0  1  0  0  0  0  0  0  0  0  0
  141.0600   75.2590  220.4160 C   0  0  0  0  0  0  0  0  0  0  0  0
  141.3120   76.3310  219.5640 C   0  0  0  0  0  0  0  0  0  0  0  0
  142.6150   76.4600  219.0940 C   0  0  0  0  0  0  0  0  0  0  0  0
  143.6050   75.5660  219.4600 C   0  0  0  0  0  0  0  0  0  0  0  0
  143.3460   74.5010  220.3100 C   0  0  0  0  0  0  0  0  0  0  0  0
  142.0550   74.3750  220.7730 C   0  0  0  0  0  0  0  0  0  0  0  0
  141.4340   73.3690  221.6830 C   0  0  0  0  0  0  0  0  0  0  0  0
  140.1210   73.8750  221.9910 N   0  0  0  0  0  0  0  0  0  0  0  0
  139.0290   72.5090  221.8950 S   0  0  0  0  0  0  0  0  0  0  0  0
  139.4090   71.6920  220.6690 O   0  0  0  0  0  0  0  0  0  0  0  0
  137.6510   73.0470  221.6950 O   0  0  0  0  0  0  0  0  0  0  0  0
  139.0770   71.5520  223.3580 C   0  0  0  0  0  0  0  0  0  0  0  0
  140.3760   71.6950  224.0680 C   0  0  0  0  0  0  0  0  0  0  0  0
  140.4610   71.0960  225.3980 C   0  0  0  0  0  0  0  0  0  0  0  0
  140.9640   71.8890  226.4320 C   0  0  0  0  0  0  0  0  0  0  0  0
  141.0850   71.4350  227.7210 C   0  0  0  0  0  0  0  0  0  0  0  0
  140.6970   70.1400  228.0300 C   0  0  0  0  0  0  0  0  0  0  0  0
  140.1950   69.3380  227.0150 C   0  0  0  0  0  0  0  0  0  0  0  0
  140.0760   69.8070  225.7090 C   0  0  0  0  0  0  0  0  0  0  0  0
  139.7880   77.0940  222.3370 C   0  0  0  0  0  0  0  0  0  0  0  0
  141.1180   77.3490  222.6000 C   0  0  0  0  0  0  0  0  0  0  0  0
  141.5390   78.4690  223.2860 C   0  0  0  0  0  0  0  0  0  0  0  0
  140.5740   79.3690  223.7230 C   0  0  0  0  0  0  0  0  0  0  0  0
  139.2450   79.1530  223.4820 C   0  0  0  0  0  0  0  0  0  0  0  0
  138.8570   78.0070  222.7840 C   0  0  0  0  0  0  0  0  0  0  0  0
  136.2851   78.3546  223.8168 H   0  0  0  0  0  0  0  0  0  0  0  0
  136.4571   79.2940  222.2954 H   0  0  0  0  0  0  0  0  0  0  0  0
  135.5524   77.7422  222.2954 H   0  0  0  0  0  0  0  0  0  0  0  0
  136.9534   75.8024  221.3419 H   0  0  0  0  0  0  0  0  0  0  0  0
  139.0216   74.5393  220.3321 H   0  0  0  0  0  0  0  0  0  0  0  0
  140.5212   77.0397  219.2771 H   0  0  0  0  0  0  0  0  0  0  0  0
  142.8633   77.2906  218.4169 H   0  0  0  0  0  0  0  0  0  0  0  0
  144.6232   75.7031  219.0671 H   0  0  0  0  0  0  0  0  0  0  0  0
  144.1342   73.7908  220.6005 H   0  0  0  0  0  0  0  0  0  0  0  0
  141.3602   72.3929  221.1813 H   0  0  0  0  0  0  0  0  0  0  0  0
  142.0344   73.2215  222.5928 H   0  0  0  0  0  0  0  0  0  0  0  0
  138.2677   71.8817  224.0261 H   0  0  0  0  0  0  0  0  0  0  0  0
  138.9534   70.4950  223.0798 H   0  0  0  0  0  0  0  0  0  0  0  0
  141.1520   71.2304  223.4419 H   0  0  0  0  0  0  0  0  0  0  0  0
  140.5038   72.7760  224.2267 H   0  0  0  0  0  0  0  0  0  0  0  0
  141.2756   72.9189  226.2036 H   0  0  0  0  0  0  0  0  0  0  0  0
  141.4873   72.0941  228.5044 H   0  0  0  0  0  0  0  0  0  0  0  0
  140.7853   69.7569  229.0573 H   0  0  0  0  0  0  0  0  0  0  0  0
  139.8841   68.3087  227.2471 H   0  0  0  0  0  0  0  0  0  0  0  0
  139.6746   69.1494  224.9239 H   0  0  0  0  0  0  0  0  0  0  0  0
  141.8729   76.6303  222.2485 H   0  0  0  0  0  0  0  0  0  0  0  0
  142.6071   78.6449  223.4815 H   0  0  0  0  0  0  0  0  0  0  0  0
  140.8844   80.2703  224.2720 H   0  0  0  0  0  0  0  0  0  0  0  0
  138.4912   79.8728  223.8335 H   0  0  0  0  0  0  0  0  0  0  0  0
  1  2  1  0
  2  3  1  0
  3  4  2  0
  4  5  1  0
  5  6  1  0
  6  7  2  0
  7  8  1  0
  8  9  2  0
  9 10  1  0
 10 11  2  0
 11 12  1  0
 12 13  1  0
 13 14  1  0
 14 15  2  0
 14 16  2  0
 14 17  1  0
 17 18  1  0
 18 19  1  0
 19 20  2  0
 20 21  1  0
 21 22  2  0
 22 23  1  0
 23 24  2  0
  4 25  1  0
 25 26  2  0
 26 27  1  0
 27 28  2  0
 28 29  1  0
 29 30  2  0
 30  2  1  0
 13  5  1  0
 24 19  1  0
 30 25  1  0
 11  6  1  0
  1 31  1  0
  1 32  1  0
  1 33  1  0
  3 34  1  0
  5 35  1  6
  7 36  1  0
  8 37  1  0
  9 38  1  0
 10 39  1  0
 12 40  1  0
 12 41  1  0
 17 42  1  0
 17 43  1  0
 18 44  1  0
 18 45  1  0
 20 46  1  0
 21 47  1  0
 22 48  1  0
 23 49  1  0
 24 50  1  0
 26 51  1  0
 27 52  1  0
 28 53  1  0
 29 54  1  0
M  END
>  <smiles>  (21) 
Cn1cc(C2c3ccccc3CN2S(=O)(=O)CCc2ccccc2)c2ccccc21

>  <score_type>  (21) 
oracle

>  <origin>  (21) 
autodockgpu

>  <m_score__min__energy>  (21) 
-9.0600000000000005

>  <m_primary>  (21) 
energy

>  <meeko>  (21) 
{"free_energy": -9.06, "intermolecular_energy": -10.55, "internal_energy": -1.47, "cluster_size": 10, "cluster_id": 1, "rank_in_cluster": 1}

>  <energy>  (21) 
-9.06

>  <cluster_rmsd>  (21) 
0.0

>  <rmsd>  (21) 
270.79

>  <cluster>  (21) 
1

$$$$

     RDKit          3D

 54 58  0  0  1  0  0  0  0  0999 V2000
  136.3650   78.3200  222.8590 C   0  0  0  0  0  0  0  0  0  0  0  0
  137.5800   77.6120  222.5180 N   0  0  0  0  0  0  0  0  0  0  0  0
  137.7120   76.4470  221.8410 C   0  0  0  0  0  0  0  0  0  0  0  0
  139.0450   76.1170  221.7240 C   0  0  0  0  0  0  0  0  0  0  0  0
  139.6870   74.9540  221.0690 C   0  0  1  0  0  0  0  0  0  0  0  0
  140.9370   75.3330  220.3640 C   0  0  0  0  0  0  0  0  0  0  0  0
  141.1280   76.4040  219.4950 C   0  0  0  0  0  0  0  0  0  0  0  0
  142.4040   76.5500  218.9580 C   0  0  0  0  0  0  0  0  0  0  0  0
  143.4250   75.6730  219.2780 C   0  0  0  0  0  0  0  0  0  0  0  0
  143.2260   74.6090  220.1450 C   0  0  0  0  0  0  0  0  0  0  0  0
  141.9620   74.4670  220.6740 C   0  0  0  0  0  0  0  0  0  0  0  0
  141.4030   73.4560  221.6190 C   0  0  0  0  0  0  0  0  0  0  0  0
  140.1000   73.9440  221.9910 N   0  0  0  0  0  0  0  0  0  0  0  0
  139.0260   72.5610  221.9580 S   0  0  0  0  0  0  0  0  0  0  0  0
  139.0330   71.9980  220.5440 O   0  0  0  0  0  0  0  0  0  0  0  0
  137.6500   73.0530  222.2630 O   0  0  0  0  0  0  0  0  0  0  0  0
  139.4950   71.3620  223.1420 C   0  0  0  0  0  0  0  0  0  0  0  0
  140.5140   71.8900  224.0870 C   0  0  0  0  0  0  0  0  0  0  0  0
  140.4950   71.3390  225.4400 C   0  0  0  0  0  0  0  0  0  0  0  0
  139.8040   70.1410  225.6390 C   0  0  0  0  0  0  0  0  0  0  0  0
  139.7240   69.5280  226.8630 C   0  0  0  0  0  0  0  0  0  0  0  0
  140.3460   70.1050  227.9600 C   0  0  0  0  0  0  0  0  0  0  0  0
  141.0370   71.2940  227.7800 C   0  0  0  0  0  0  0  0  0  0  0  0
  141.1140   71.9100  226.5340 C   0  0  0  0  0  0  0  0  0  0  0  0
  139.7350   77.1430  222.3670 C   0  0  0  0  0  0  0  0  0  0  0  0
  141.0710   77.3990  222.5950 C   0  0  0  0  0  0  0  0  0  0  0  0
  141.5090   78.5150  223.2770 C   0  0  0  0  0  0  0  0  0  0  0  0
  140.5550   79.4090  223.7480 C   0  0  0  0  0  0  0  0  0  0  0  0
  139.2190   79.1920  223.5420 C   0  0  0  0  0  0  0  0  0  0  0  0
  138.8150   78.0510  222.8470 C   0  0  0  0  0  0  0  0  0  0  0  0
  136.2683   78.3764  223.9533 H   0  0  0  0  0  0  0  0  0  0  0  0
  136.4037   79.3369  222.4415 H   0  0  0  0  0  0  0  0  0  0  0  0
  135.4993   77.7849  222.4415 H   0  0  0  0  0  0  0  0  0  0  0  0
  136.8776   75.8511  221.4427 H   0  0  0  0  0  0  0  0  0  0  0  0
  138.9090   74.5822  220.3860 H   0  0  0  0  0  0  0  0  0  0  0  0
  140.3126   77.0990  219.2456 H   0  0  0  0  0  0  0  0  0  0  0  0
  142.6047   77.3801  218.2647 H   0  0  0  0  0  0  0  0  0  0  0  0
  144.4199   75.8234  218.8335 H   0  0  0  0  0  0  0  0  0  0  0  0
  144.0384   73.9120  220.3981 H   0  0  0  0  0  0  0  0  0  0  0  0
  141.3186   72.4764  221.1258 H   0  0  0  0  0  0  0  0  0  0  0  0
  142.0509   73.3219  222.4978 H   0  0  0  0  0  0  0  0  0  0  0  0
  138.6049   71.0568  223.7118 H   0  0  0  0  0  0  0  0  0  0  0  0
  139.9342   70.5066  222.6077 H   0  0  0  0  0  0  0  0  0  0  0  0
  141.5059   71.6866  223.6571 H   0  0  0  0  0  0  0  0  0  0  0  0
  140.2774   72.9579  224.2039 H   0  0  0  0  0  0  0  0  0  0  0  0
  139.3041   69.6707  224.7794 H   0  0  0  0  0  0  0  0  0  0  0  0
  139.1698   68.5843  226.9741 H   0  0  0  0  0  0  0  0  0  0  0  0
  140.2925   69.6302  228.9508 H   0  0  0  0  0  0  0  0  0  0  0  0
  141.5359   71.7612  228.6419 H   0  0  0  0  0  0  0  0  0  0  0  0
  141.6688   72.8531  226.4209 H   0  0  0  0  0  0  0  0  0  0  0  0
  141.8173   76.6843  222.2177 H   0  0  0  0  0  0  0  0  0  0  0  0
  142.5818   78.6922  223.4432 H   0  0  0  0  0  0  0  0  0  0  0  0
  140.8788   80.3063  224.2957 H   0  0  0  0  0  0  0  0  0  0  0  0
  138.4736   79.9076  223.9193 H   0  0  0  0  0  0  0  0  0  0  0  0
  1  2  1  0
  2  3  1  0
  3  4  2  0
  4  5  1  0
  5  6  1  0
  6  7  2  0
  7  8  1  0
  8  9  2  0
  9 10  1  0
 10 11  2  0
 11 12  1  0
 12 13  1  0
 13 14  1  0
 14 15  2  0
 14 16  2  0
 14 17  1  0
 17 18  1  0
 18 19  1  0
 19 20  2  0
 20 21  1  0
 21 22  2  0
 22 23  1  0
 23 24  2  0
  4 25  1  0
 25 26  2  0
 26 27  1  0
 27 28  2  0
 28 29  1  0
 29 30  2  0
 30  2  1  0
 13  5  1  0
 24 19  1  0
 30 25  1  0
 11  6  1  0
  1 31  1  0
  1 32  1  0
  1 33  1  0
  3 34  1  0
  5 35  1  6
  7 36  1  0
  8 37  1  0
  9 38  1  0
 10 39  1  0
 12 40  1  0
 12 41  1  0
 17 42  1  0
 17 43  1  0
 18 44  1  0
 18 45  1  0
 20 46  1  0
 21 47  1  0
 22 48  1  0
 23 49  1  0
 24 50  1  0
 26 51  1  0
 27 52  1  0
 28 53  1  0
 29 54  1  0
M  END
>  <smiles>  (22) 
Cn1cc(C2c3ccccc3CN2S(=O)(=O)CCc2ccccc2)c2ccccc21

>  <score_type>  (22) 
oracle

>  <origin>  (22) 
autodockgpu

>  <m_score__min__energy>  (22) 
-9.0600000000000005

>  <m_primary>  (22) 
energy

>  <meeko>  (22) 
{"free_energy": -9.0, "intermolecular_energy": -10.49, "internal_energy": -1.51, "cluster_size": 10, "cluster_id": 1, "rank_in_cluster": 3}

>  <energy>  (22) 
-9.04

>  <cluster_rmsd>  (22) 
0.19

>  <rmsd>  (22) 
270.76

>  <cluster>  (22) 
1

$$$$

     RDKit          3D

 54 58  0  0  1  0  0  0  0  0999 V2000
  138.3150   80.2460  224.2220 C   0  0  0  0  0  0  0  0  0  0  0  0
  139.2720   79.6810  223.2950 N   0  0  0  0  0  0  0  0  0  0  0  0
  139.0490   78.8120  222.2810 C   0  0  0  0  0  0  0  0  0  0  0  0
  140.2330   78.5250  221.6350 C   0  0  0  0  0  0  0  0  0  0  0  0
  140.4980   77.6450  220.4740 C   0  0  1  0  0  0  0  0  0  0  0  0
  141.1140   78.3860  219.3450 C   0  0  0  0  0  0  0  0  0  0  0  0
  140.7050   79.6020  218.8060 C   0  0  0  0  0  0  0  0  0  0  0  0
  141.4540   80.0960  217.7420 C   0  0  0  0  0  0  0  0  0  0  0  0
  142.5500   79.4060  217.2520 C   0  0  0  0  0  0  0  0  0  0  0  0
  142.9500   78.1950  217.7950 C   0  0  0  0  0  0  0  0  0  0  0  0
  142.2060   77.7090  218.8480 C   0  0  0  0  0  0  0  0  0  0  0  0
  142.3480   76.4630  219.6550 C   0  0  0  0  0  0  0  0  0  0  0  0
  141.4320   76.6020  220.7580 N   0  0  0  0  0  0  0  0  0  0  0  0
  140.6360   75.0530  220.9400 S   0  0  0  0  0  0  0  0  0  0  0  0
  139.1430   75.2700  220.7460 O   0  0  0  0  0  0  0  0  0  0  0  0
  140.8670   74.5910  222.3410 O   0  0  0  0  0  0  0  0  0  0  0  0
  141.2770   73.8720  219.8210 C   0  0  0  0  0  0  0  0  0  0  0  0
  142.0570   72.8170  220.5200 C   0  0  0  0  0  0  0  0  0  0  0  0
  143.5120   72.9410  220.4690 C   0  0  0  0  0  0  0  0  0  0  0  0
  144.0690   74.1670  220.8400 C   0  0  0  0  0  0  0  0  0  0  0  0
  145.4210   74.3970  220.8360 C   0  0  0  0  0  0  0  0  0  0  0  0
  146.2870   73.3840  220.4510 C   0  0  0  0  0  0  0  0  0  0  0  0
  145.7510   72.1600  220.0790 C   0  0  0  0  0  0  0  0  0  0  0  0
  144.3760   71.9350  220.0860 C   0  0  0  0  0  0  0  0  0  0  0  0
  141.2060   79.2650  222.3060 C   0  0  0  0  0  0  0  0  0  0  0  0
  142.5680   79.4120  222.1520 C   0  0  0  0  0  0  0  0  0  0  0  0
  143.3260   80.2260  222.9690 C   0  0  0  0  0  0  0  0  0  0  0  0
  142.6760   80.9190  223.9840 C   0  0  0  0  0  0  0  0  0  0  0  0
  141.3250   80.8000  224.1690 C   0  0  0  0  0  0  0  0  0  0  0  0
  140.5930   79.9670  223.3220 C   0  0  0  0  0  0  0  0  0  0  0  0
  138.6446   80.0514  225.2533 H   0  0  0  0  0  0  0  0  0  0  0  0
  138.2431   81.3314  224.0587 H   0  0  0  0  0  0  0  0  0  0  0  0
  137.3299   79.7846  224.0587 H   0  0  0  0  0  0  0  0  0  0  0  0
  138.0670   78.3958  222.0119 H   0  0  0  0  0  0  0  0  0  0  0  0
  139.5058   77.2398  220.2262 H   0  0  0  0  0  0  0  0  0  0  0  0
  139.8338   80.1453  219.2009 H   0  0  0  0  0  0  0  0  0  0  0  0
  141.1697   81.0535  217.2812 H   0  0  0  0  0  0  0  0  0  0  0  0
  143.1177   79.8297  216.4104 H   0  0  0  0  0  0  0  0  0  0  0  0
  143.8203   77.6478  217.4037 H   0  0  0  0  0  0  0  0  0  0  0  0
  142.0870   75.5827  219.0492 H   0  0  0  0  0  0  0  0  0  0  0  0
  143.3819   76.3223  220.0032 H   0  0  0  0  0  0  0  0  0  0  0  0
  140.4412   73.4000  219.2837 H   0  0  0  0  0  0  0  0  0  0  0  0
  141.9514   74.3913  219.1242 H   0  0  0  0  0  0  0  0  0  0  0  0
  141.7576   72.8259  221.5784 H   0  0  0  0  0  0  0  0  0  0  0  0
  141.8254   71.8826  219.9878 H   0  0  0  0  0  0  0  0  0  0  0  0
  143.3961   74.9809  221.1478 H   0  0  0  0  0  0  0  0  0  0  0  0
  145.8163   75.3787  221.1362 H   0  0  0  0  0  0  0  0  0  0  0  0
  147.3747   73.5478  220.4410 H   0  0  0  0  0  0  0  0  0  0  0  0
  146.4269   71.3485  219.7714 H   0  0  0  0  0  0  0  0  0  0  0  0
  143.9784   70.9542  219.7859 H   0  0  0  0  0  0  0  0  0  0  0  0
  143.0709   78.8582  221.3455 H   0  0  0  0  0  0  0  0  0  0  0  0
  144.4117   80.3236  222.8216 H   0  0  0  0  0  0  0  0  0  0  0  0
  143.2573   81.5740  224.6496 H   0  0  0  0  0  0  0  0  0  0  0  0
  140.8225   81.3542  224.9755 H   0  0  0  0  0  0  0  0  0  0  0  0
  1  2  1  0
  2  3  1  0
  3  4  2  0
  4  5  1  0
  5  6  1  0
  6  7  2  0
  7  8  1  0
  8  9  2  0
  9 10  1  0
 10 11  2  0
 11 12  1  0
 12 13  1  0
 13 14  1  0
 14 15  2  0
 14 16  2  0
 14 17  1  0
 17 18  1  0
 18 19  1  0
 19 20  2  0
 20 21  1  0
 21 22  2  0
 22 23  1  0
 23 24  2  0
  4 25  1  0
 25 26  2  0
 26 27  1  0
 27 28  2  0
 28 29  1  0
 29 30  2  0
 30  2  1  0
 13  5  1  0
 24 19  1  0
 30 25  1  0
 11  6  1  0
  1 31  1  0
  1 32  1  0
  1 33  1  0
  3 34  1  0
  5 35  1  6
  7 36  1  0
  8 37  1  0
  9 38  1  0
 10 39  1  0
 12 40  1  0
 12 41  1  0
 17 42  1  0
 17 43  1  0
 18 44  1  0
 18 45  1  0
 20 46  1  0
 21 47  1  0
 22 48  1  0
 23 49  1  0
 24 50  1  0
 26 51  1  0
 27 52  1  0
 28 53  1  0
 29 54  1  0
M  END
>  <smiles>  (23) 
Cn1cc(C2c3ccccc3CN2S(=O)(=O)CCc2ccccc2)c2ccccc21

>  <score_type>  (23) 
oracle

>  <origin>  (23) 
autodockgpu

>  <m_score__min__energy>  (23) 
-9.0600000000000005

>  <m_primary>  (23) 
energy

>  <meeko>  (23) 
{"free_energy": -7.99, "intermolecular_energy": -9.49, "internal_energy": -1.94, "cluster_size": 8, "cluster_id": 2, "rank_in_cluster": 2}

>  <energy>  (23) 
-9.0

>  <cluster_rmsd>  (23) 
0.26

>  <rmsd>  (23) 
270.77

>  <cluster>  (23) 
1

$$$$

     RDKit          3D

 54 58  0  0  1  0  0  0  0  0999 V2000
  141.2360   82.4610  219.8700 C   0  0  0  0  0  0  0  0  0  0  0  0
  141.2990   81.0650  220.2480 N   0  0  0  0  0  0  0  0  0  0  0  0
  141.0780   79.9740  219.4770 C   0  0  0  0  0  0  0  0  0  0  0  0
  141.2440   78.8270  220.2230 C   0  0  0  0  0  0  0  0  0  0  0  0
  141.1200   77.4050  219.8280 C   0  0  1  0  0  0  0  0  0  0  0  0
  142.0910   77.0370  218.7680 C   0  0  0  0  0  0  0  0  0  0  0  0
  142.3660   77.7290  217.5920 C   0  0  0  0  0  0  0  0  0  0  0  0
  143.3280   77.1750  216.7520 C   0  0  0  0  0  0  0  0  0  0  0  0
  143.9760   75.9970  217.0790 C   0  0  0  0  0  0  0  0  0  0  0  0
  143.6970   75.3140  218.2530 C   0  0  0  0  0  0  0  0  0  0  0  0
  142.7440   75.8640  219.0810 C   0  0  0  0  0  0  0  0  0  0  0  0
  142.2050   75.4070  220.3950 C   0  0  0  0  0  0  0  0  0  0  0  0
  141.4050   76.4970  220.8930 N   0  0  0  0  0  0  0  0  0  0  0  0
  139.9440   75.7820  221.5410 S   0  0  0  0  0  0  0  0  0  0  0  0
  140.3110   74.4340  222.1450 O   0  0  0  0  0  0  0  0  0  0  0  0
  139.0130   75.5470  220.3980 O   0  0  0  0  0  0  0  0  0  0  0  0
  139.1820   76.8370  222.7090 C   0  0  0  0  0  0  0  0  0  0  0  0
  138.0970   77.6470  222.0940 C   0  0  0  0  0  0  0  0  0  0  0  0
  138.2000   79.0970  222.2470 C   0  0  0  0  0  0  0  0  0  0  0  0
  138.5330   79.5900  223.5110 C   0  0  0  0  0  0  0  0  0  0  0  0
  138.6630   80.9300  223.7710 C   0  0  0  0  0  0  0  0  0  0  0  0
  138.4600   81.8490  222.7520 C   0  0  0  0  0  0  0  0  0  0  0  0
  138.1290   81.3760  221.4900 C   0  0  0  0  0  0  0  0  0  0  0  0
  137.9990   80.0130  221.2350 C   0  0  0  0  0  0  0  0  0  0  0  0
  141.5790   79.2660  221.5030 C   0  0  0  0  0  0  0  0  0  0  0  0
  141.8670   78.6230  222.6880 C   0  0  0  0  0  0  0  0  0  0  0  0
  142.1760   79.3030  223.8480 C   0  0  0  0  0  0  0  0  0  0  0  0
  142.1950   80.6930  223.8050 C   0  0  0  0  0  0  0  0  0  0  0  0
  141.9160   81.3690  222.6480 C   0  0  0  0  0  0  0  0  0  0  0  0
  141.6070   80.6450  221.4950 C   0  0  0  0  0  0  0  0  0  0  0  0
  141.2078   83.0851  220.7754 H   0  0  0  0  0  0  0  0  0  0  0  0
  142.1234   82.7198  219.2737 H   0  0  0  0  0  0  0  0  0  0  0  0
  140.3289   82.6388  219.2737 H   0  0  0  0  0  0  0  0  0  0  0  0
  140.8059   79.9994  218.4115 H   0  0  0  0  0  0  0  0  0  0  0  0
  140.0748   77.3198  219.4958 H   0  0  0  0  0  0  0  0  0  0  0  0
  141.8491   78.6665  217.3391 H   0  0  0  0  0  0  0  0  0  0  0  0
  143.5780   77.6840  215.8094 H   0  0  0  0  0  0  0  0  0  0  0  0
  144.7318   75.5920  216.3900 H   0  0  0  0  0  0  0  0  0  0  0  0
  144.2126   74.3771  218.5108 H   0  0  0  0  0  0  0  0  0  0  0  0
  141.5863   74.5072  220.2629 H   0  0  0  0  0  0  0  0  0  0  0  0
  143.0127   75.1457  221.0945 H   0  0  0  0  0  0  0  0  0  0  0  0
  138.7553   76.2248  223.5171 H   0  0  0  0  0  0  0  0  0  0  0  0
  139.9460   77.5264  223.0976 H   0  0  0  0  0  0  0  0  0  0  0  0
  138.0832   77.4246  221.0168 H   0  0  0  0  0  0  0  0  0  0  0  0
  137.1802   77.3616  222.6307 H   0  0  0  0  0  0  0  0  0  0  0  0
  138.6975   78.8747  224.3303 H   0  0  0  0  0  0  0  0  0  0  0  0
  138.9267   81.2743  224.7819 H   0  0  0  0  0  0  0  0  0  0  0  0
  138.5592   82.9283  222.9400 H   0  0  0  0  0  0  0  0  0  0  0  0
  137.9656   82.0938  220.6727 H   0  0  0  0  0  0  0  0  0  0  0  0
  137.7356   79.6661  220.2249 H   0  0  0  0  0  0  0  0  0  0  0  0
  141.8498   77.5233  222.7095 H   0  0  0  0  0  0  0  0  0  0  0  0
  142.4006   78.7620  224.7790 H   0  0  0  0  0  0  0  0  0  0  0  0
  142.4384   81.2588  224.7164 H   0  0  0  0  0  0  0  0  0  0  0  0
  141.9350   82.4686  222.6269 H   0  0  0  0  0  0  0  0  0  0  0  0
  1  2  1  0
  2  3  1  0
  3  4  2  0
  4  5  1  0
  5  6  1  0
  6  7  2  0
  7  8  1  0
  8  9  2  0
  9 10  1  0
 10 11  2  0
 11 12  1  0
 12 13  1  0
 13 14  1  0
 14 15  2  0
 14 16  2  0
 14 17  1  0
 17 18  1  0
 18 19  1  0
 19 20  2  0
 20 21  1  0
 21 22  2  0
 22 23  1  0
 23 24  2  0
  4 25  1  0
 25 26  2  0
 26 27  1  0
 27 28  2  0
 28 29  1  0
 29 30  2  0
 30  2  1  0
 13  5  1  0
 24 19  1  0
 30 25  1  0
 11  6  1  0
  1 31  1  0
  1 32  1  0
  1 33  1  0
  3 34  1  0
  5 35  1  6
  7 36  1  0
  8 37  1  0
  9 38  1  0
 10 39  1  0
 12 40  1  0
 12 41  1  0
 17 42  1  0
 17 43  1  0
 18 44  1  0
 18 45  1  0
 20 46  1  0
 21 47  1  0
 22 48  1  0
 23 49  1  0
 24 50  1  0
 26 51  1  0
 27 52  1  0
 28 53  1  0
 29 54  1  0
M  END
>  <smiles>  (24) 
Cn1cc(C2c3ccccc3CN2S(=O)(=O)CCc2ccccc2)c2ccccc21

>  <score_type>  (24) 
oracle

>  <origin>  (24) 
autodockgpu

>  <m_score__min__energy>  (24) 
-9.0600000000000005

>  <m_primary>  (24) 
energy

>  <meeko>  (24) 
{"free_energy": -7.2, "intermolecular_energy": -8.7, "internal_energy": -3.05, "cluster_size": 2, "cluster_id": 3, "rank_in_cluster": 2}

>  <energy>  (24) 
-8.96

>  <cluster_rmsd>  (24) 
0.18

>  <rmsd>  (24) 
270.78

>  <cluster>  (24) 
1

$$$$

     RDKit          3D

 54 58  0  0  1  0  0  0  0  0999 V2000
  136.4120   78.3650  222.7270 C   0  0  0  0  0  0  0  0  0  0  0  0
  137.6260   77.6390  222.4230 N   0  0  0  0  0  0  0  0  0  0  0  0
  137.7610   76.4740  221.7470 C   0  0  0  0  0  0  0  0  0  0  0  0
  139.0920   76.1220  221.6720 C   0  0  0  0  0  0  0  0  0  0  0  0
  139.7360   74.9510  221.0350 C   0  0  1  0  0  0  0  0  0  0  0  0
  141.0270   75.3070  220.3960 C   0  0  0  0  0  0  0  0  0  0  0  0
  141.2870   76.3820  219.5510 C   0  0  0  0  0  0  0  0  0  0  0  0
  142.5910   76.5020  219.0780 C   0  0  0  0  0  0  0  0  0  0  0  0
  143.5730   75.5960  219.4350 C   0  0  0  0  0  0  0  0  0  0  0  0
  143.3060   74.5280  220.2780 C   0  0  0  0  0  0  0  0  0  0  0  0
  142.0150   74.4110  220.7440 C   0  0  0  0  0  0  0  0  0  0  0  0
  141.3870   73.4040  221.6490 C   0  0  0  0  0  0  0  0  0  0  0  0
  140.0790   73.9200  221.9630 N   0  0  0  0  0  0  0  0  0  0  0  0
  138.9740   72.5650  221.8610 S   0  0  0  0  0  0  0  0  0  0  0  0
  139.0640   71.9950  220.4530 O   0  0  0  0  0  0  0  0  0  0  0  0
  137.5940   73.0940  222.0680 O   0  0  0  0  0  0  0  0  0  0  0  0
  139.3290   71.3610  223.0780 C   0  0  0  0  0  0  0  0  0  0  0  0
  140.3350   71.8480  224.0580 C   0  0  0  0  0  0  0  0  0  0  0  0
  140.3330   71.2040  225.3700 C   0  0  0  0  0  0  0  0  0  0  0  0
  140.9390   71.8880  226.4260 C   0  0  0  0  0  0  0  0  0  0  0  0
  140.9920   71.3840  227.7000 C   0  0  0  0  0  0  0  0  0  0  0  0
  140.4270   70.1470  227.9720 C   0  0  0  0  0  0  0  0  0  0  0  0
  139.8200   69.4540  226.9340 C   0  0  0  0  0  0  0  0  0  0  0  0
  139.7710   69.9730  225.6430 C   0  0  0  0  0  0  0  0  0  0  0  0
  139.7770   77.1350  222.3420 C   0  0  0  0  0  0  0  0  0  0  0  0
  141.1090   77.3680  222.6150 C   0  0  0  0  0  0  0  0  0  0  0  0
  141.5420   78.4750  223.3150 C   0  0  0  0  0  0  0  0  0  0  0  0
  140.5870   79.3820  223.7570 C   0  0  0  0  0  0  0  0  0  0  0  0
  139.2560   79.1880  223.5070 C   0  0  0  0  0  0  0  0  0  0  0  0
  138.8560   78.0550  222.7940 C   0  0  0  0  0  0  0  0  0  0  0  0
  136.2914   78.4371  223.8180 H   0  0  0  0  0  0  0  0  0  0  0  0
  136.4718   79.3757  222.2971 H   0  0  0  0  0  0  0  0  0  0  0  0
  135.5499   77.8341  222.2971 H   0  0  0  0  0  0  0  0  0  0  0  0
  136.9303   75.8931  221.3199 H   0  0  0  0  0  0  0  0  0  0  0  0
  138.9831   74.6060  220.3111 H   0  0  0  0  0  0  0  0  0  0  0  0
  140.5022   77.1002  219.2711 H   0  0  0  0  0  0  0  0  0  0  0  0
  142.8455   77.3350  218.4062 H   0  0  0  0  0  0  0  0  0  0  0  0
  144.5915   75.7259  219.0403 H   0  0  0  0  0  0  0  0  0  0  0  0
  144.0881   73.8082  220.5612 H   0  0  0  0  0  0  0  0  0  0  0  0
  141.3035   72.4319  221.1410 H   0  0  0  0  0  0  0  0  0  0  0  0
  141.9879   73.2448  222.5565 H   0  0  0  0  0  0  0  0  0  0  0  0
  138.4012   71.1118  223.6139 H   0  0  0  0  0  0  0  0  0  0  0  0
  139.7434   70.4758  222.5732 H   0  0  0  0  0  0  0  0  0  0  0  0
  141.3312   71.7010  223.6152 H   0  0  0  0  0  0  0  0  0  0  0  0
  140.0701   72.8984  224.2491 H   0  0  0  0  0  0  0  0  0  0  0  0
  141.3920   72.8706  226.2277 H   0  0  0  0  0  0  0  0  0  0  0  0
  141.4799   71.9576  228.5018 H   0  0  0  0  0  0  0  0  0  0  0  0
  140.4592   69.7248  228.9872 H   0  0  0  0  0  0  0  0  0  0  0  0
  139.3672   68.4721  227.1359 H   0  0  0  0  0  0  0  0  0  0  0  0
  139.2838   69.4013  224.8394 H   0  0  0  0  0  0  0  0  0  0  0  0
  141.8556   76.6421  222.2604 H   0  0  0  0  0  0  0  0  0  0  0  0
  142.6114   78.6348  223.5172 H   0  0  0  0  0  0  0  0  0  0  0  0
  140.9068   80.2724  224.3182 H   0  0  0  0  0  0  0  0  0  0  0  0
  138.5105   79.9145  223.8627 H   0  0  0  0  0  0  0  0  0  0  0  0
  1  2  1  0
  2  3  1  0
  3  4  2  0
  4  5  1  0
  5  6  1  0
  6  7  2  0
  7  8  1  0
  8  9  2  0
  9 10  1  0
 10 11  2  0
 11 12  1  0
 12 13  1  0
 13 14  1  0
 14 15  2  0
 14 16  2  0
 14 17  1  0
 17 18  1  0
 18 19  1  0
 19 20  2  0
 20 21  1  0
 21 22  2  0
 22 23  1  0
 23 24  2  0
  4 25  1  0
 25 26  2  0
 26 27  1  0
 27 28  2  0
 28 29  1  0
 29 30  2  0
 30  2  1  0
 13  5  1  0
 24 19  1  0
 30 25  1  0
 11  6  1  0
  1 31  1  0
  1 32  1  0
  1 33  1  0
  3 34  1  0
  5 35  1  6
  7 36  1  0
  8 37  1  0
  9 38  1  0
 10 39  1  0
 12 40  1  0
 12 41  1  0
 17 42  1  0
 17 43  1  0
 18 44  1  0
 18 45  1  0
 20 46  1  0
 21 47  1  0
 22 48  1  0
 23 49  1  0
 24 50  1  0
 26 51  1  0
 27 52  1  0
 28 53  1  0
 29 54  1  0
M  END
>  <smiles>  (25) 
Cn1cc(C2c3ccccc3CN2S(=O)(=O)CCc2ccccc2)c2ccccc21

>  <score_type>  (25) 
oracle

>  <origin>  (25) 
autodockgpu

>  <m_score__min__energy>  (25) 
-9.0600000000000005

>  <m_primary>  (25) 
energy

>  <meeko>  (25) 
{"free_energy": -9.04, "intermolecular_energy": -10.53, "internal_energy": -1.48, "cluster_size": 10, "cluster_id": 1, "rank_in_cluster": 2}

>  <energy>  (25) 
-8.87

>  <cluster_rmsd>  (25) 
0.73

>  <rmsd>  (25) 
270.88

>  <cluster>  (25) 
1

$$$$

     RDKit          3D

 54 58  0  0  1  0  0  0  0  0999 V2000
  136.5960   78.4180  223.0480 C   0  0  0  0  0  0  0  0  0  0  0  0
  137.8450   77.8280  222.6170 N   0  0  0  0  0  0  0  0  0  0  0  0
  138.0340   76.7170  221.8670 C   0  0  0  0  0  0  0  0  0  0  0  0
  139.3820   76.4990  221.6770 C   0  0  0  0  0  0  0  0  0  0  0  0
  140.0800   75.4280  220.9290 C   0  0  1  0  0  0  0  0  0  0  0  0
  141.1440   75.9710  220.0470 C   0  0  0  0  0  0  0  0  0  0  0  0
  141.0490   77.0420  219.1640 C   0  0  0  0  0  0  0  0  0  0  0  0
  142.1960   77.3610  218.4430 C   0  0  0  0  0  0  0  0  0  0  0  0
  143.3690   76.6440  218.6030 C   0  0  0  0  0  0  0  0  0  0  0  0
  143.4560   75.5780  219.4860 C   0  0  0  0  0  0  0  0  0  0  0  0
  142.3180   75.2650  220.1970 C   0  0  0  0  0  0  0  0  0  0  0  0
  142.0570   74.2020  221.2100 C   0  0  0  0  0  0  0  0  0  0  0  0
  140.7670   74.5040  221.7750 N   0  0  0  0  0  0  0  0  0  0  0  0
  139.9110   72.9810  221.8960 S   0  0  0  0  0  0  0  0  0  0  0  0
  139.8440   72.3700  220.5040 O   0  0  0  0  0  0  0  0  0  0  0  0
  138.5190   73.2830  222.3450 O   0  0  0  0  0  0  0  0  0  0  0  0
  140.6770   71.9090  223.0450 C   0  0  0  0  0  0  0  0  0  0  0  0
  139.6770   71.1350  223.8280 C   0  0  0  0  0  0  0  0  0  0  0  0
  139.9840   70.9150  225.2400 C   0  0  0  0  0  0  0  0  0  0  0  0
  140.7720   71.8710  225.8850 C   0  0  0  0  0  0  0  0  0  0  0  0
  141.1180   71.7720  227.2080 C   0  0  0  0  0  0  0  0  0  0  0  0
  140.6790   70.6870  227.9530 C   0  0  0  0  0  0  0  0  0  0  0  0
  139.8950   69.7290  227.3270 C   0  0  0  0  0  0  0  0  0  0  0  0
  139.5480   69.8360  225.9830 C   0  0  0  0  0  0  0  0  0  0  0  0
  140.0210   77.5380  222.3530 C   0  0  0  0  0  0  0  0  0  0  0  0
  141.3420   77.8840  222.5430 C   0  0  0  0  0  0  0  0  0  0  0  0
  141.7240   78.9900  223.2730 C   0  0  0  0  0  0  0  0  0  0  0  0
  140.7260   79.7780  223.8340 C   0  0  0  0  0  0  0  0  0  0  0  0
  139.4030   79.4700  223.6680 C   0  0  0  0  0  0  0  0  0  0  0  0
  139.0560   78.3420  222.9220 C   0  0  0  0  0  0  0  0  0  0  0  0
  136.5588   78.4356  224.1472 H   0  0  0  0  0  0  0  0  0  0  0  0
  136.5235   79.4456  222.6622 H   0  0  0  0  0  0  0  0  0  0  0  0
  135.7562   77.8214  222.6622 H   0  0  0  0  0  0  0  0  0  0  0  0
  137.2299   76.0814  221.4677 H   0  0  0  0  0  0  0  0  0  0  0  0
  139.2714   74.9357  220.3687 H   0  0  0  0  0  0  0  0  0  0  0  0
  140.1140   77.6084  219.0418 H   0  0  0  0  0  0  0  0  0  0  0  0
  142.1697   78.1997  217.7318 H   0  0  0  0  0  0  0  0  0  0  0  0
  144.2546   76.9267  218.0150 H   0  0  0  0  0  0  0  0  0  0  0  0
  144.3891   75.0095  219.6127 H   0  0  0  0  0  0  0  0  0  0  0  0
  142.0427   73.2120  220.7308 H   0  0  0  0  0  0  0  0  0  0  0  0
  142.8405   74.1781  221.9817 H   0  0  0  0  0  0  0  0  0  0  0  0
  141.3241   71.2061  222.4999 H   0  0  0  0  0  0  0  0  0  0  0  0
  141.2623   72.5211  223.7470 H   0  0  0  0  0  0  0  0  0  0  0  0
  138.7199   71.6745  223.7740 H   0  0  0  0  0  0  0  0  0  0  0  0
  139.6627   70.1335  223.3734 H   0  0  0  0  0  0  0  0  0  0  0  0
  141.1290   72.7374  225.3089 H   0  0  0  0  0  0  0  0  0  0  0  0
  141.7404   72.5487  227.6763 H   0  0  0  0  0  0  0  0  0  0  0  0
  140.9464   70.5887  229.0155 H   0  0  0  0  0  0  0  0  0  0  0  0
  139.5390   68.8643  227.9063 H   0  0  0  0  0  0  0  0  0  0  0  0
  138.9260   69.0603  225.5126 H   0  0  0  0  0  0  0  0  0  0  0  0
  142.1228   77.2524  222.0942 H   0  0  0  0  0  0  0  0  0  0  0  0
  142.7866   79.2409  223.4072 H   0  0  0  0  0  0  0  0  0  0  0  0
  141.0045   80.6650  224.4219 H   0  0  0  0  0  0  0  0  0  0  0  0
  138.6231   80.1029  224.1165 H   0  0  0  0  0  0  0  0  0  0  0  0
  1  2  1  0
  2  3  1  0
  3  4  2  0
  4  5  1  0
  5  6  1  0
  6  7  2  0
  7  8  1  0
  8  9  2  0
  9 10  1  0
 10 11  2  0
 11 12  1  0
 12 13  1  0
 13 14  1  0
 14 15  2  0
 14 16  2  0
 14 17  1  0
 17 18  1  0
 18 19  1  0
 19 20  2  0
 20 21  1  0
 21 22  2  0
 22 23  1  0
 23 24  2  0
  4 25  1  0
 25 26  2  0
 26 27  1  0
 27 28  2  0
 28 29  1  0
 29 30  2  0
 30  2  1  0
 13  5  1  0
 24 19  1  0
 30 25  1  0
 11  6  1  0
  1 31  1  0
  1 32  1  0
  1 33  1  0
  3 34  1  0
  5 35  1  6
  7 36  1  0
  8 37  1  0
  9 38  1  0
 10 39  1  0
 12 40  1  0
 12 41  1  0
 17 42  1  0
 17 43  1  0
 18 44  1  0
 18 45  1  0
 20 46  1  0
 21 47  1  0
 22 48  1  0
 23 49  1  0
 24 50  1  0
 26 51  1  0
 27 52  1  0
 28 53  1  0
 29 54  1  0
M  END
>  <smiles>  (26) 
Cn1cc(C2c3ccccc3CN2S(=O)(=O)CCc2ccccc2)c2ccccc21

>  <score_type>  (26) 
oracle

>  <origin>  (26) 
autodockgpu

>  <m_score__min__energy>  (26) 
-9.0600000000000005

>  <m_primary>  (26) 
energy

>  <meeko>  (26) 
{"free_energy": -8.87, "intermolecular_energy": -10.36, "internal_energy": -1.58, "cluster_size": 10, "cluster_id": 1, "rank_in_cluster": 5}

>  <energy>  (26) 
-8.86

>  <cluster_rmsd>  (26) 
0.74

>  <rmsd>  (26) 
270.94

>  <cluster>  (26) 
1

$$$$

     RDKit          3D

 54 58  0  0  1  0  0  0  0  0999 V2000
  140.9090   83.0960  220.0560 C   0  0  0  0  0  0  0  0  0  0  0  0
  141.0970   81.6960  220.3720 N   0  0  0  0  0  0  0  0  0  0  0  0
  140.9080   80.6210  219.5700 C   0  0  0  0  0  0  0  0  0  0  0  0
  141.2030   79.4620  220.2560 C   0  0  0  0  0  0  0  0  0  0  0  0
  141.1570   78.0510  219.8090 C   0  0  1  0  0  0  0  0  0  0  0  0
  141.8590   77.8550  218.5160 C   0  0  0  0  0  0  0  0  0  0  0  0
  141.7320   78.6170  217.3580 C   0  0  0  0  0  0  0  0  0  0  0  0
  142.5050   78.2290  216.2680 C   0  0  0  0  0  0  0  0  0  0  0  0
  143.3560   77.1410  216.3400 C   0  0  0  0  0  0  0  0  0  0  0  0
  143.4770   76.3860  217.4970 C   0  0  0  0  0  0  0  0  0  0  0  0
  142.7100   76.7730  218.5740 C   0  0  0  0  0  0  0  0  0  0  0  0
  142.5910   76.2020  219.9470 C   0  0  0  0  0  0  0  0  0  0  0  0
  141.8190   77.1550  220.7040 N   0  0  0  0  0  0  0  0  0  0  0  0
  140.6750   76.2250  221.6490 S   0  0  0  0  0  0  0  0  0  0  0  0
  140.7410   76.7240  223.0850 O   0  0  0  0  0  0  0  0  0  0  0  0
  141.1230   74.8010  221.6240 O   0  0  0  0  0  0  0  0  0  0  0  0
  139.0590   76.3430  220.9900 C   0  0  0  0  0  0  0  0  0  0  0  0
  138.1010   76.9070  221.9780 C   0  0  0  0  0  0  0  0  0  0  0  0
  138.2330   78.3320  222.2720 C   0  0  0  0  0  0  0  0  0  0  0  0
  137.8480   79.2340  221.2780 C   0  0  0  0  0  0  0  0  0  0  0  0
  137.9230   80.5940  221.4440 C   0  0  0  0  0  0  0  0  0  0  0  0
  138.3960   81.1130  222.6390 C   0  0  0  0  0  0  0  0  0  0  0  0
  138.7830   80.2310  223.6380 C   0  0  0  0  0  0  0  0  0  0  0  0
  138.7040   78.8520  223.4610 C   0  0  0  0  0  0  0  0  0  0  0  0
  141.5860   79.8770  221.5300 C   0  0  0  0  0  0  0  0  0  0  0  0
  141.9940   79.2140  222.6680 C   0  0  0  0  0  0  0  0  0  0  0  0
  142.3260   79.8710  223.8340 C   0  0  0  0  0  0  0  0  0  0  0  0
  142.2400   81.2580  223.8490 C   0  0  0  0  0  0  0  0  0  0  0  0
  141.8400   81.9540  222.7400 C   0  0  0  0  0  0  0  0  0  0  0  0
  141.5130   81.2530  221.5780 C   0  0  0  0  0  0  0  0  0  0  0  0
  140.8312   83.6750  220.9880 H   0  0  0  0  0  0  0  0  0  0  0  0
  141.7666   83.4580  219.4699 H   0  0  0  0  0  0  0  0  0  0  0  0
  139.9863   83.2189  219.4699 H   0  0  0  0  0  0  0  0  0  0  0  0
  140.5689   80.6660  218.5246 H   0  0  0  0  0  0  0  0  0  0  0  0
  140.0802   77.8353  219.7455 H   0  0  0  0  0  0  0  0  0  0  0  0
  141.0547   79.4823  217.3072 H   0  0  0  0  0  0  0  0  0  0  0  0
  142.4379   78.7993  215.3298 H   0  0  0  0  0  0  0  0  0  0  0  0
  143.9521   76.8676  215.4569 H   0  0  0  0  0  0  0  0  0  0  0  0
  144.1528   75.5199  217.5521 H   0  0  0  0  0  0  0  0  0  0  0  0
  142.0752   75.2310  219.9145 H   0  0  0  0  0  0  0  0  0  0  0  0
  143.5783   76.0299  220.4005 H   0  0  0  0  0  0  0  0  0  0  0  0
  139.0822   76.9946  220.1041 H   0  0  0  0  0  0  0  0  0  0  0  0
  138.7219   75.3298  220.7259 H   0  0  0  0  0  0  0  0  0  0  0  0
  137.0847   76.7378  221.5926 H   0  0  0  0  0  0  0  0  0  0  0  0
  138.3215   76.3922  222.9248 H   0  0  0  0  0  0  0  0  0  0  0  0
  137.4695   78.8385  220.3239 H   0  0  0  0  0  0  0  0  0  0  0  0
  137.6096   81.2684  220.6335 H   0  0  0  0  0  0  0  0  0  0  0  0
  138.4631   82.2002  222.7922 H   0  0  0  0  0  0  0  0  0  0  0  0
  139.1606   80.6301  224.5910 H   0  0  0  0  0  0  0  0  0  0  0  0
  139.0174   78.1758  224.2700 H   0  0  0  0  0  0  0  0  0  0  0  0
  142.0572   78.1161  222.6448 H   0  0  0  0  0  0  0  0  0  0  0  0
  142.6493   79.3139  224.7257 H   0  0  0  0  0  0  0  0  0  0  0  0
  142.4977   81.8058  224.7674 H   0  0  0  0  0  0  0  0  0  0  0  0
  141.7771   83.0519  222.7643 H   0  0  0  0  0  0  0  0  0  0  0  0
  1  2  1  0
  2  3  1  0
  3  4  2  0
  4  5  1  0
  5  6  1  0
  6  7  2  0
  7  8  1  0
  8  9  2  0
  9 10  1  0
 10 11  2  0
 11 12  1  0
 12 13  1  0
 13 14  1  0
 14 15  2  0
 14 16  2  0
 14 17  1  0
 17 18  1  0
 18 19  1  0
 19 20  2  0
 20 21  1  0
 21 22  2  0
 22 23  1  0
 23 24  2  0
  4 25  1  0
 25 26  2  0
 26 27  1  0
 27 28  2  0
 28 29  1  0
 29 30  2  0
 30  2  1  0
 13  5  1  0
 24 19  1  0
 30 25  1  0
 11  6  1  0
  1 31  1  0
  1 32  1  0
  1 33  1  0
  3 34  1  0
  5 35  1  6
  7 36  1  0
  8 37  1  0
  9 38  1  0
 10 39  1  0
 12 40  1  0
 12 41  1  0
 17 42  1  0
 17 43  1  0
 18 44  1  0
 18 45  1  0
 20 46  1  0
 21 47  1  0
 22 48  1  0
 23 49  1  0
 24 50  1  0
 26 51  1  0
 27 52  1  0
 28 53  1  0
 29 54  1  0
M  END
>  <smiles>  (27) 
Cn1cc(C2c3ccccc3CN2S(=O)(=O)CCc2ccccc2)c2ccccc21

>  <score_type>  (27) 
oracle

>  <origin>  (27) 
autodockgpu

>  <m_score__min__energy>  (27) 
-9.0600000000000005

>  <m_primary>  (27) 
energy

>  <meeko>  (27) 
{"free_energy": -6.95, "intermolecular_energy": -8.45, "internal_energy": -3.08, "cluster_size": 8, "cluster_id": 2, "rank_in_cluster": 7}

>  <energy>  (27) 
-8.81

>  <cluster_rmsd>  (27) 
0.28

>  <rmsd>  (27) 
270.79

>  <cluster>  (27) 
1

$$$$

     RDKit          3D

 54 58  0  0  1  0  0  0  0  0999 V2000
  140.9380   79.2140  223.7400 C   0  0  0  0  0  0  0  0  0  0  0  0
  140.3920   78.0890  223.0120 N   0  0  0  0  0  0  0  0  0  0  0  0
  141.0510   77.0340  222.4770 C   0  0  0  0  0  0  0  0  0  0  0  0
  140.1580   76.1790  221.8670 C   0  0  0  0  0  0  0  0  0  0  0  0
  140.3940   74.9000  221.1570 C   0  0  1  0  0  0  0  0  0  0  0  0
  141.6600   74.9210  220.3820 C   0  0  0  0  0  0  0  0  0  0  0  0
  142.1090   75.9150  219.5180 C   0  0  0  0  0  0  0  0  0  0  0  0
  143.3400   75.7000  218.9050 C   0  0  0  0  0  0  0  0  0  0  0  0
  144.0750   74.5530  219.1490 C   0  0  0  0  0  0  0  0  0  0  0  0
  143.6200   73.5670  220.0120 C   0  0  0  0  0  0  0  0  0  0  0  0
  142.4010   73.7830  220.6160 C   0  0  0  0  0  0  0  0  0  0  0  0
  141.6240   72.9510  221.5800 C   0  0  0  0  0  0  0  0  0  0  0  0
  140.5430   73.7850  222.0380 N   0  0  0  0  0  0  0  0  0  0  0  0
  139.1110   72.7780  222.0510 S   0  0  0  0  0  0  0  0  0  0  0  0
  138.9360   72.1960  220.6560 O   0  0  0  0  0  0  0  0  0  0  0  0
  137.9430   73.6600  222.3440 O   0  0  0  0  0  0  0  0  0  0  0  0
  139.2210   71.5290  223.2710 C   0  0  0  0  0  0  0  0  0  0  0  0
  140.4970   71.6130  224.0310 C   0  0  0  0  0  0  0  0  0  0  0  0
  140.4420   71.2360  225.4410 C   0  0  0  0  0  0  0  0  0  0  0  0
  139.7300   70.0800  225.7720 C   0  0  0  0  0  0  0  0  0  0  0  0
  139.6140   69.6270  227.0610 C   0  0  0  0  0  0  0  0  0  0  0  0
  140.2220   70.3290  228.0920 C   0  0  0  0  0  0  0  0  0  0  0  0
  140.9340   71.4780  227.7810 C   0  0  0  0  0  0  0  0  0  0  0  0
  141.0450   71.9320  226.4690 C   0  0  0  0  0  0  0  0  0  0  0  0
  138.9060   76.7620  222.0530 C   0  0  0  0  0  0  0  0  0  0  0  0
  137.6240   76.4080  221.6870 C   0  0  0  0  0  0  0  0  0  0  0  0
  136.5220   77.1760  222.0000 C   0  0  0  0  0  0  0  0  0  0  0  0
  136.7270   78.3530  222.7120 C   0  0  0  0  0  0  0  0  0  0  0  0
  137.9830   78.7390  223.0930 C   0  0  0  0  0  0  0  0  0  0  0  0
  139.0740   77.9340  222.7590 C   0  0  0  0  0  0  0  0  0  0  0  0
  140.8485   79.0296  224.8208 H   0  0  0  0  0  0  0  0  0  0  0  0
  141.9983   79.3416  223.4764 H   0  0  0  0  0  0  0  0  0  0  0  0
  140.3823   80.1259  223.4764 H   0  0  0  0  0  0  0  0  0  0  0  0
  142.1394   76.8815  222.5225 H   0  0  0  0  0  0  0  0  0  0  0  0
  139.5052   74.7920  220.5179 H   0  0  0  0  0  0  0  0  0  0  0  0
  141.5206   76.8250  219.3289 H   0  0  0  0  0  0  0  0  0  0  0  0
  143.7367   76.4571  218.2126 H   0  0  0  0  0  0  0  0  0  0  0  0
  145.0442   74.4200  218.6460 H   0  0  0  0  0  0  0  0  0  0  0  0
  144.2050   72.6556  220.2049 H   0  0  0  0  0  0  0  0  0  0  0  0
  141.2300   72.0537  221.0803 H   0  0  0  0  0  0  0  0  0  0  0  0
  142.2519   72.6080  222.4155 H   0  0  0  0  0  0  0  0  0  0  0  0
  138.3806   71.6404  223.9719 H   0  0  0  0  0  0  0  0  0  0  0  0
  139.1864   70.5524  222.7660 H   0  0  0  0  0  0  0  0  0  0  0  0
  141.2245   70.9524  223.5366 H   0  0  0  0  0  0  0  0  0  0  0  0
  140.7696   72.6787  224.0251 H   0  0  0  0  0  0  0  0  0  0  0  0
  139.2432   69.5108  224.9664 H   0  0  0  0  0  0  0  0  0  0  0  0
  139.0422   68.7123  227.2765 H   0  0  0  0  0  0  0  0  0  0  0  0
  140.1411   69.9820  229.1327 H   0  0  0  0  0  0  0  0  0  0  0  0
  141.4219   72.0433  228.5887 H   0  0  0  0  0  0  0  0  0  0  0  0
  141.6147   72.8475  226.2516 H   0  0  0  0  0  0  0  0  0  0  0  0
  137.4746   75.4756  221.1228 H   0  0  0  0  0  0  0  0  0  0  0  0
  135.5112   76.8669  221.6956 H   0  0  0  0  0  0  0  0  0  0  0  0
  135.8648   78.9842  222.9732 H   0  0  0  0  0  0  0  0  0  0  0  0
  138.1317   79.6724  223.6557 H   0  0  0  0  0  0  0  0  0  0  0  0
  1  2  1  0
  2  3  1  0
  3  4  2  0
  4  5  1  0
  5  6  1  0
  6  7  2  0
  7  8  1  0
  8  9  2  0
  9 10  1  0
 10 11  2  0
 11 12  1  0
 12 13  1  0
 13 14  1  0
 14 15  2  0
 14 16  2  0
 14 17  1  0
 17 18  1  0
 18 19  1  0
 19 20  2  0
 20 21  1  0
 21 22  2  0
 22 23  1  0
 23 24  2  0
  4 25  1  0
 25 26  2  0
 26 27  1  0
 27 28  2  0
 28 29  1  0
 29 30  2  0
 30  2  1  0
 13  5  1  0
 24 19  1  0
 30 25  1  0
 11  6  1  0
  1 31  1  0
  1 32  1  0
  1 33  1  0
  3 34  1  0
  5 35  1  6
  7 36  1  0
  8 37  1  0
  9 38  1  0
 10 39  1  0
 12 40  1  0
 12 41  1  0
 17 42  1  0
 17 43  1  0
 18 44  1  0
 18 45  1  0
 20 46  1  0
 21 47  1  0
 22 48  1  0
 23 49  1  0
 24 50  1  0
 26 51  1  0
 27 52  1  0
 28 53  1  0
 29 54  1  0
M  END
>  <smiles>  (28) 
Cn1cc(C2c3ccccc3CN2S(=O)(=O)CCc2ccccc2)c2ccccc21

>  <score_type>  (28) 
oracle

>  <origin>  (28) 
autodockgpu

>  <m_score__min__energy>  (28) 
-9.0600000000000005

>  <m_primary>  (28) 
energy

>  <meeko>  (28) 
{"free_energy": -8.55, "intermolecular_energy": -10.04, "internal_energy": -1.44, "cluster_size": 10, "cluster_id": 1, "rank_in_cluster": 9}

>  <energy>  (28) 
-8.56

>  <cluster_rmsd>  (28) 
0.5

>  <rmsd>  (28) 
270.64

>  <cluster>  (28) 
1

$$$$

     RDKit          3D

 54 58  0  0  1  0  0  0  0  0999 V2000
  136.3250   78.1000  222.7490 C   0  0  0  0  0  0  0  0  0  0  0  0
  137.5830   77.4610  222.4300 N   0  0  0  0  0  0  0  0  0  0  0  0
  137.7910   76.3080  221.7510 C   0  0  0  0  0  0  0  0  0  0  0  0
  139.1430   76.0500  221.6610 C   0  0  0  0  0  0  0  0  0  0  0  0
  139.8590   74.9270  221.0140 C   0  0  1  0  0  0  0  0  0  0  0  0
  141.0980   75.3790  220.3320 C   0  0  0  0  0  0  0  0  0  0  0  0
  141.2440   76.4610  219.4690 C   0  0  0  0  0  0  0  0  0  0  0  0
  142.5180   76.6800  218.9540 C   0  0  0  0  0  0  0  0  0  0  0  0
  143.5810   75.8600  219.2890 C   0  0  0  0  0  0  0  0  0  0  0  0
  143.4270   74.7840  220.1500 C   0  0  0  0  0  0  0  0  0  0  0  0
  142.1640   74.5690  220.6570 C   0  0  0  0  0  0  0  0  0  0  0  0
  141.6470   73.5260  221.5900 C   0  0  0  0  0  0  0  0  0  0  0  0
  140.3130   73.9390  221.9410 N   0  0  0  0  0  0  0  0  0  0  0  0
  139.3180   72.4980  221.8860 S   0  0  0  0  0  0  0  0  0  0  0  0
  139.9690   71.5190  220.9200 O   0  0  0  0  0  0  0  0  0  0  0  0
  137.9880   72.8910  221.3340 O   0  0  0  0  0  0  0  0  0  0  0  0
  139.1110   71.8060  223.4780 C   0  0  0  0  0  0  0  0  0  0  0  0
  140.3180   71.0530  223.9130 C   0  0  0  0  0  0  0  0  0  0  0  0
  140.4890   70.8730  225.3530 C   0  0  0  0  0  0  0  0  0  0  0  0
  140.2550   69.5990  225.8760 C   0  0  0  0  0  0  0  0  0  0  0  0
  140.3900   69.3110  227.2100 C   0  0  0  0  0  0  0  0  0  0  0  0
  140.7730   70.3110  228.0910 C   0  0  0  0  0  0  0  0  0  0  0  0
  141.0100   71.5820  227.5890 C   0  0  0  0  0  0  0  0  0  0  0  0
  140.8700   71.8660  226.2330 C   0  0  0  0  0  0  0  0  0  0  0  0
  139.7630   77.1080  222.3240 C   0  0  0  0  0  0  0  0  0  0  0  0
  141.0780   77.4330  222.5820 C   0  0  0  0  0  0  0  0  0  0  0  0
  141.4410   78.5670  223.2790 C   0  0  0  0  0  0  0  0  0  0  0  0
  140.4300   79.4050  223.7340 C   0  0  0  0  0  0  0  0  0  0  0  0
  139.1130   79.1190  223.4980 C   0  0  0  0  0  0  0  0  0  0  0  0
  138.7860   77.9620  222.7880 C   0  0  0  0  0  0  0  0  0  0  0  0
  136.2100   78.1584  223.8414 H   0  0  0  0  0  0  0  0  0  0  0  0
  136.3109   79.1145  222.3241 H   0  0  0  0  0  0  0  0  0  0  0  0
  135.4974   77.5130  222.3241 H   0  0  0  0  0  0  0  0  0  0  0  0
  136.9981   75.6706  221.3326 H   0  0  0  0  0  0  0  0  0  0  0  0
  139.1150   74.5138  220.3171 H   0  0  0  0  0  0  0  0  0  0  0  0
  140.3954   77.1101  219.2073 H   0  0  0  0  0  0  0  0  0  0  0  0
  142.6835   77.5224  218.2663 H   0  0  0  0  0  0  0  0  0  0  0  0
  144.5732   76.0669  218.8616 H   0  0  0  0  0  0  0  0  0  0  0  0
  144.2730   74.1330  220.4156 H   0  0  0  0  0  0  0  0  0  0  0  0
  141.6258   72.5447  221.0935 H   0  0  0  0  0  0  0  0  0  0  0  0
  142.2866   73.4258  222.4793 H   0  0  0  0  0  0  0  0  0  0  0  0
  138.9185   72.6164  224.1965 H   0  0  0  0  0  0  0  0  0  0  0  0
  138.2651   71.1040  223.4389 H   0  0  0  0  0  0  0  0  0  0  0  0
  140.2724   70.0543  223.4542 H   0  0  0  0  0  0  0  0  0  0  0  0
  141.1744   71.6640  223.5918 H   0  0  0  0  0  0  0  0  0  0  0  0
  139.9503   68.7946  225.1904 H   0  0  0  0  0  0  0  0  0  0  0  0
  140.1957   68.2931  227.5788 H   0  0  0  0  0  0  0  0  0  0  0  0
  140.8864   70.1008  229.1648 H   0  0  0  0  0  0  0  0  0  0  0  0
  141.3154   72.3837  228.2775 H   0  0  0  0  0  0  0  0  0  0  0  0
  141.0634   72.8835  225.8624 H   0  0  0  0  0  0  0  0  0  0  0  0
  141.8692   76.7613  222.2175 H   0  0  0  0  0  0  0  0  0  0  0  0
  142.4989   78.8008  223.4689 H   0  0  0  0  0  0  0  0  0  0  0  0
  140.6933   80.3145  224.2939 H   0  0  0  0  0  0  0  0  0  0  0  0
  138.3225   79.7914  223.8627 H   0  0  0  0  0  0  0  0  0  0  0  0
  1  2  1  0
  2  3  1  0
  3  4  2  0
  4  5  1  0
  5  6  1  0
  6  7  2  0
  7  8  1  0
  8  9  2  0
  9 10  1  0
 10 11  2  0
 11 12  1  0
 12 13  1  0
 13 14  1  0
 14 15  2  0
 14 16  2  0
 14 17  1  0
 17 18  1  0
 18 19  1  0
 19 20  2  0
 20 21  1  0
 21 22  2  0
 22 23  1  0
 23 24  2  0
  4 25  1  0
 25 26  2  0
 26 27  1  0
 27 28  2  0
 28 29  1  0
 29 30  2  0
 30  2  1  0
 13  5  1  0
 24 19  1  0
 30 25  1  0
 11  6  1  0
  1 31  1  0
  1 32  1  0
  1 33  1  0
  3 34  1  0
  5 35  1  6
  7 36  1  0
  8 37  1  0
  9 38  1  0
 10 39  1  0
 12 40  1  0
 12 41  1  0
 17 42  1  0
 17 43  1  0
 18 44  1  0
 18 45  1  0
 20 46  1  0
 21 47  1  0
 22 48  1  0
 23 49  1  0
 24 50  1  0
 26 51  1  0
 27 52  1  0
 28 53  1  0
 29 54  1  0
M  END
>  <smiles>  (29) 
Cn1cc(C2c3ccccc3CN2S(=O)(=O)CCc2ccccc2)c2ccccc21

>  <score_type>  (29) 
oracle

>  <origin>  (29) 
autodockgpu

>  <m_score__min__energy>  (29) 
-9.0600000000000005

>  <m_primary>  (29) 
energy

>  <meeko>  (29) 
{"free_energy": -8.81, "intermolecular_energy": -10.3, "internal_energy": -1.54, "cluster_size": 10, "cluster_id": 1, "rank_in_cluster": 7}

>  <energy>  (29) 
-8.55

>  <cluster_rmsd>  (29) 
1.27

>  <rmsd>  (29) 
270.72

>  <cluster>  (29) 
1

$$$$

     RDKit          3D

 54 58  0  0  1  0  0  0  0  0999 V2000
  141.1140   82.4560  219.9210 C   0  0  0  0  0  0  0  0  0  0  0  0
  141.2030   81.0620  220.2980 N   0  0  0  0  0  0  0  0  0  0  0  0
  140.9960   79.9680  219.5280 C   0  0  0  0  0  0  0  0  0  0  0  0
  141.1850   78.8230  220.2720 C   0  0  0  0  0  0  0  0  0  0  0  0
  141.0820   77.4000  219.8760 C   0  0  1  0  0  0  0  0  0  0  0  0
  142.0620   77.0450  218.8200 C   0  0  0  0  0  0  0  0  0  0  0  0
  142.3310   77.7410  217.6440 C   0  0  0  0  0  0  0  0  0  0  0  0
  143.3030   77.2000  216.8080 C   0  0  0  0  0  0  0  0  0  0  0  0
  143.9670   76.0310  217.1360 C   0  0  0  0  0  0  0  0  0  0  0  0
  143.6940   75.3440  218.3100 C   0  0  0  0  0  0  0  0  0  0  0  0
  142.7300   75.8810  219.1350 C   0  0  0  0  0  0  0  0  0  0  0  0
  142.1930   75.4170  220.4470 C   0  0  0  0  0  0  0  0  0  0  0  0
  141.3770   76.4950  220.9420 N   0  0  0  0  0  0  0  0  0  0  0  0
  139.9230   75.7600  221.5850 S   0  0  0  0  0  0  0  0  0  0  0  0
  140.3210   74.4650  222.2780 O   0  0  0  0  0  0  0  0  0  0  0  0
  139.0400   75.4250  220.4290 O   0  0  0  0  0  0  0  0  0  0  0  0
  139.0840   76.8490  222.6670 C   0  0  0  0  0  0  0  0  0  0  0  0
  138.0990   77.6950  221.9420 C   0  0  0  0  0  0  0  0  0  0  0  0
  138.1600   79.1320  222.1990 C   0  0  0  0  0  0  0  0  0  0  0  0
  138.5320   79.5420  223.4810 C   0  0  0  0  0  0  0  0  0  0  0  0
  138.6280   80.8630  223.8360 C   0  0  0  0  0  0  0  0  0  0  0  0
  138.3490   81.8460  222.8990 C   0  0  0  0  0  0  0  0  0  0  0  0
  137.9780   81.4560  221.6200 C   0  0  0  0  0  0  0  0  0  0  0  0
  137.8820   80.1120  221.2680 C   0  0  0  0  0  0  0  0  0  0  0  0
  141.5230   79.2670  221.5490 C   0  0  0  0  0  0  0  0  0  0  0  0
  141.8300   78.6280  222.7320 C   0  0  0  0  0  0  0  0  0  0  0  0
  142.1370   79.3120  223.8900 C   0  0  0  0  0  0  0  0  0  0  0  0
  142.1310   80.7020  223.8480 C   0  0  0  0  0  0  0  0  0  0  0  0
  141.8330   81.3740  222.6940 C   0  0  0  0  0  0  0  0  0  0  0  0
  141.5280   80.6460  221.5420 C   0  0  0  0  0  0  0  0  0  0  0  0
  141.0742   83.0790  220.8267 H   0  0  0  0  0  0  0  0  0  0  0  0
  141.9964   82.7317  219.3248 H   0  0  0  0  0  0  0  0  0  0  0  0
  140.2037   82.6172  219.3248 H   0  0  0  0  0  0  0  0  0  0  0  0
  140.7176   79.9896  218.4640 H   0  0  0  0  0  0  0  0  0  0  0  0
  140.0392   77.3014  219.5401 H   0  0  0  0  0  0  0  0  0  0  0  0
  141.8020   78.6711  217.3890 H   0  0  0  0  0  0  0  0  0  0  0  0
  143.5488   77.7125  215.8663 H   0  0  0  0  0  0  0  0  0  0  0  0
  144.7301   75.6367  216.4489 H   0  0  0  0  0  0  0  0  0  0  0  0
  144.2221   74.4147  218.5698 H   0  0  0  0  0  0  0  0  0  0  0  0
  141.5871   74.5087  220.3130 H   0  0  0  0  0  0  0  0  0  0  0  0
  143.0019   75.1670  221.1492 H   0  0  0  0  0  0  0  0  0  0  0  0
  138.5538   76.2572  223.4277 H   0  0  0  0  0  0  0  0  0  0  0  0
  139.8289   77.5119  223.1314 H   0  0  0  0  0  0  0  0  0  0  0  0
  138.2557   77.5413  220.8641 H   0  0  0  0  0  0  0  0  0  0  0  0
  137.1132   77.3749  222.3105 H   0  0  0  0  0  0  0  0  0  0  0  0
  138.7570   78.7746  224.2363 H   0  0  0  0  0  0  0  0  0  0  0  0
  138.9246   81.1411  224.8581 H   0  0  0  0  0  0  0  0  0  0  0  0
  138.4201   82.9113  223.1635 H   0  0  0  0  0  0  0  0  0  0  0  0
  137.7546   82.2260  220.8669 H   0  0  0  0  0  0  0  0  0  0  0  0
  137.5843   79.8313  220.2469 H   0  0  0  0  0  0  0  0  0  0  0  0
  141.8301   77.5282  222.7530 H   0  0  0  0  0  0  0  0  0  0  0  0
  142.3792   78.7742  224.8185 H   0  0  0  0  0  0  0  0  0  0  0  0
  142.3700   81.2712  224.7585 H   0  0  0  0  0  0  0  0  0  0  0  0
  141.8337   82.4738  222.6739 H   0  0  0  0  0  0  0  0  0  0  0  0
  1  2  1  0
  2  3  1  0
  3  4  2  0
  4  5  1  0
  5  6  1  0
  6  7  2  0
  7  8  1  0
  8  9  2  0
  9 10  1  0
 10 11  2  0
 11 12  1  0
 12 13  1  0
 13 14  1  0
 14 15  2  0
 14 16  2  0
 14 17  1  0
 17 18  1  0
 18 19  1  0
 19 20  2  0
 20 21  1  0
 21 22  2  0
 22 23  1  0
 23 24  2  0
  4 25  1  0
 25 26  2  0
 26 27  1  0
 27 28  2  0
 28 29  1  0
 29 30  2  0
 30  2  1  0
 13  5  1  0
 24 19  1  0
 30 25  1  0
 11  6  1  0
  1 31  1  0
  1 32  1  0
  1 33  1  0
  3 34  1  0
  5 35  1  6
  7 36  1  0
  8 37  1  0
  9 38  1  0
 10 39  1  0
 12 40  1  0
 12 41  1  0
 17 42  1  0
 17 43  1  0
 18 44  1  0
 18 45  1  0
 20 46  1  0
 21 47  1  0
 22 48  1  0
 23 49  1  0
 24 50  1  0
 26 51  1  0
 27 52  1  0
 28 53  1  0
 29 54  1  0
M  END
>  <smiles>  (30) 
Cn1cc(C2c3ccccc3CN2S(=O)(=O)CCc2ccccc2)c2ccccc21

>  <score_type>  (30) 
oracle

>  <origin>  (30) 
autodockgpu

>  <m_score__min__energy>  (30) 
-9.0600000000000005

>  <m_primary>  (30) 
energy

>  <meeko>  (30) 
{"free_energy": -7.21, "intermolecular_energy": -8.71, "internal_energy": -3.05, "cluster_size": 8, "cluster_id": 2, "rank_in_cluster": 4}

>  <energy>  (30) 
-8.54

>  <cluster_rmsd>  (30) 
1.28

>  <rmsd>  (30) 
270.71

>  <cluster>  (30) 
1

$$$$

     RDKit          3D

 54 58  0  0  1  0  0  0  0  0999 V2000
  141.1220   82.4530  219.9200 C   0  0  0  0  0  0  0  0  0  0  0  0
  141.2090   81.0600  220.3010 N   0  0  0  0  0  0  0  0  0  0  0  0
  141.0020   79.9640  219.5320 C   0  0  0  0  0  0  0  0  0  0  0  0
  141.1900   78.8210  220.2800 C   0  0  0  0  0  0  0  0  0  0  0  0
  141.0860   77.3970  219.8870 C   0  0  1  0  0  0  0  0  0  0  0  0
  142.0660   77.0390  218.8310 C   0  0  0  0  0  0  0  0  0  0  0  0
  142.3340   77.7320  217.6540 C   0  0  0  0  0  0  0  0  0  0  0  0
  143.3050   77.1900  216.8180 C   0  0  0  0  0  0  0  0  0  0  0  0
  143.9680   76.0210  217.1490 C   0  0  0  0  0  0  0  0  0  0  0  0
  143.6960   75.3370  218.3240 C   0  0  0  0  0  0  0  0  0  0  0  0
  142.7330   75.8760  219.1480 C   0  0  0  0  0  0  0  0  0  0  0  0
  142.1970   75.4140  220.4620 C   0  0  0  0  0  0  0  0  0  0  0  0
  141.3810   76.4940  220.9550 N   0  0  0  0  0  0  0  0  0  0  0  0
  139.9280   75.7610  221.6010 S   0  0  0  0  0  0  0  0  0  0  0  0
  140.3280   74.4730  222.3060 O   0  0  0  0  0  0  0  0  0  0  0  0
  139.0490   75.4130  220.4450 O   0  0  0  0  0  0  0  0  0  0  0  0
  139.0820   76.8570  222.6700 C   0  0  0  0  0  0  0  0  0  0  0  0
  138.1090   77.7050  221.9320 C   0  0  0  0  0  0  0  0  0  0  0  0
  138.1620   79.1410  222.1990 C   0  0  0  0  0  0  0  0  0  0  0  0
  138.5370   79.5450  223.4820 C   0  0  0  0  0  0  0  0  0  0  0  0
  138.6260   80.8640  223.8450 C   0  0  0  0  0  0  0  0  0  0  0  0
  138.3370   81.8520  222.9160 C   0  0  0  0  0  0  0  0  0  0  0  0
  137.9640   81.4680  221.6360 C   0  0  0  0  0  0  0  0  0  0  0  0
  137.8750   80.1260  221.2760 C   0  0  0  0  0  0  0  0  0  0  0  0
  141.5260   79.2680  221.5570 C   0  0  0  0  0  0  0  0  0  0  0  0
  141.8310   78.6310  222.7410 C   0  0  0  0  0  0  0  0  0  0  0  0
  142.1360   79.3180  223.8980 C   0  0  0  0  0  0  0  0  0  0  0  0
  142.1320   80.7070  223.8520 C   0  0  0  0  0  0  0  0  0  0  0  0
  141.8350   81.3770  222.6960 C   0  0  0  0  0  0  0  0  0  0  0  0
  141.5320   80.6460  221.5460 C   0  0  0  0  0  0  0  0  0  0  0  0
  141.0829   83.0786  220.8239 H   0  0  0  0  0  0  0  0  0  0  0  0
  142.0049   82.7257  219.3232 H   0  0  0  0  0  0  0  0  0  0  0  0
  140.2121   82.6138  219.3232 H   0  0  0  0  0  0  0  0  0  0  0  0
  140.7248   79.9831  218.4677 H   0  0  0  0  0  0  0  0  0  0  0  0
  140.0430   77.2983  219.5516 H   0  0  0  0  0  0  0  0  0  0  0  0
  141.8046   78.6616  217.3977 H   0  0  0  0  0  0  0  0  0  0  0  0
  143.5507   77.7007  215.8752 H   0  0  0  0  0  0  0  0  0  0  0  0
  144.7303   75.6244  216.4623 H   0  0  0  0  0  0  0  0  0  0  0  0
  144.2241   74.4082  218.5856 H   0  0  0  0  0  0  0  0  0  0  0  0
  141.5911   74.5054  220.3304 H   0  0  0  0  0  0  0  0  0  0  0  0
  143.0062   75.1650  221.1642 H   0  0  0  0  0  0  0  0  0  0  0  0
  138.5409   76.2699  223.4266 H   0  0  0  0  0  0  0  0  0  0  0  0
  139.8248   77.5181  223.1403 H   0  0  0  0  0  0  0  0  0  0  0  0
  138.2862   77.5582  220.8563 H   0  0  0  0  0  0  0  0  0  0  0  0
  137.1172   77.3805  222.2799 H   0  0  0  0  0  0  0  0  0  0  0  0
  138.7703   78.7742  224.2313 H   0  0  0  0  0  0  0  0  0  0  0  0
  138.9251   81.1371  224.8677 H   0  0  0  0  0  0  0  0  0  0  0  0
  138.4020   82.9159  223.1876 H   0  0  0  0  0  0  0  0  0  0  0  0
  137.7333   82.2414  220.8886 H   0  0  0  0  0  0  0  0  0  0  0  0
  137.5754   79.8504  220.2541 H   0  0  0  0  0  0  0  0  0  0  0  0
  141.8312   77.5312  222.7642 H   0  0  0  0  0  0  0  0  0  0  0  0
  142.3751   78.7825  224.8286 H   0  0  0  0  0  0  0  0  0  0  0  0
  142.3718   81.2782  224.7610 H   0  0  0  0  0  0  0  0  0  0  0  0
  141.8351   82.4768  222.6735 H   0  0  0  0  0  0  0  0  0  0  0  0
  1  2  1  0
  2  3  1  0
  3  4  2  0
  4  5  1  0
  5  6  1  0
  6  7  2  0
  7  8  1  0
  8  9  2  0
  9 10  1  0
 10 11  2  0
 11 12  1  0
 12 13  1  0
 13 14  1  0
 14 15  2  0
 14 16  2  0
 14 17  1  0
 17 18  1  0
 18 19  1  0
 19 20  2  0
 20 21  1  0
 21 22  2  0
 22 23  1  0
 23 24  2  0
  4 25  1  0
 25 26  2  0
 26 27  1  0
 27 28  2  0
 28 29  1  0
 29 30  2  0
 30  2  1  0
 13  5  1  0
 24 19  1  0
 30 25  1  0
 11  6  1  0
  1 31  1  0
  1 32  1  0
  1 33  1  0
  3 34  1  0
  5 35  1  6
  7 36  1  0
  8 37  1  0
  9 38  1  0
 10 39  1  0
 12 40  1  0
 12 41  1  0
 17 42  1  0
 17 43  1  0
 18 44  1  0
 18 45  1  0
 20 46  1  0
 21 47  1  0
 22 48  1  0
 23 49  1  0
 24 50  1  0
 26 51  1  0
 27 52  1  0
 28 53  1  0
 29 54  1  0
M  END
>  <smiles>  (31) 
Cn1cc(C2c3ccccc3CN2S(=O)(=O)CCc2ccccc2)c2ccccc21

>  <score_type>  (31) 
oracle

>  <origin>  (31) 
autodockgpu

>  <m_score__min__energy>  (31) 
-9.0600000000000005

>  <m_primary>  (31) 
energy

>  <meeko>  (31) 
{"free_energy": -7.22, "intermolecular_energy": -8.71, "internal_energy": -3.05, "cluster_size": 8, "cluster_id": 2, "rank_in_cluster": 3}

>  <energy>  (31) 
-8.01

>  <cluster_rmsd>  (31) 
0.0

>  <rmsd>  (31) 
270.8

>  <cluster>  (31) 
2

$$$$

     RDKit          3D

 54 58  0  0  1  0  0  0  0  0999 V2000
  136.3380   78.2710  222.6990 C   0  0  0  0  0  0  0  0  0  0  0  0
  137.5710   77.5750  222.4010 N   0  0  0  0  0  0  0  0  0  0  0  0
  137.7380   76.4110  221.7290 C   0  0  0  0  0  0  0  0  0  0  0  0
  139.0780   76.0930  221.6600 C   0  0  0  0  0  0  0  0  0  0  0  0
  139.7540   74.9370  221.0290 C   0  0  1  0  0  0  0  0  0  0  0  0
  141.0360   75.3240  220.3900 C   0  0  0  0  0  0  0  0  0  0  0  0
  141.2670   76.4010  219.5390 C   0  0  0  0  0  0  0  0  0  0  0  0
  142.5670   76.5540  219.0660 C   0  0  0  0  0  0  0  0  0  0  0  0
  143.5740   75.6760  219.4290 C   0  0  0  0  0  0  0  0  0  0  0  0
  143.3350   74.6060  220.2780 C   0  0  0  0  0  0  0  0  0  0  0  0
  142.0470   74.4570  220.7430 C   0  0  0  0  0  0  0  0  0  0  0  0
  141.4450   73.4390  221.6530 C   0  0  0  0  0  0  0  0  0  0  0  0
  140.1240   73.9210  221.9640 N   0  0  0  0  0  0  0  0  0  0  0  0
  139.0560   72.5360  221.8680 S   0  0  0  0  0  0  0  0  0  0  0  0
  138.6720   72.3420  220.4080 O   0  0  0  0  0  0  0  0  0  0  0  0
  137.8220   72.8660  222.6400 O   0  0  0  0  0  0  0  0  0  0  0  0
  139.8040   71.1060  222.5420 C   0  0  0  0  0  0  0  0  0  0  0  0
  139.0330   70.5740  223.6970 C   0  0  0  0  0  0  0  0  0  0  0  0
  139.6740   70.6630  225.0060 C   0  0  0  0  0  0  0  0  0  0  0  0
  140.6040   71.6870  225.2000 C   0  0  0  0  0  0  0  0  0  0  0  0
  141.2640   71.8710  226.3880 C   0  0  0  0  0  0  0  0  0  0  0  0
  141.0120   71.0180  227.4520 C   0  0  0  0  0  0  0  0  0  0  0  0
  140.0910   69.9960  227.2770 C   0  0  0  0  0  0  0  0  0  0  0  0
  139.4250   69.8150  226.0670 C   0  0  0  0  0  0  0  0  0  0  0  0
  139.7350   77.1260  222.3280 C   0  0  0  0  0  0  0  0  0  0  0  0
  141.0590   77.3950  222.6030 C   0  0  0  0  0  0  0  0  0  0  0  0
  141.4620   78.5150  223.3000 C   0  0  0  0  0  0  0  0  0  0  0  0
  140.4820   79.4000  223.7360 C   0  0  0  0  0  0  0  0  0  0  0  0
  139.1580   79.1700  223.4830 C   0  0  0  0  0  0  0  0  0  0  0  0
  138.7890   78.0250  222.7740 C   0  0  0  0  0  0  0  0  0  0  0  0
  136.2116   78.3424  223.7894 H   0  0  0  0  0  0  0  0  0  0  0  0
  136.3740   79.2820  222.2671 H   0  0  0  0  0  0  0  0  0  0  0  0
  135.4910   77.7177  222.2671 H   0  0  0  0  0  0  0  0  0  0  0  0
  136.9239   75.8077  221.3009 H   0  0  0  0  0  0  0  0  0  0  0  0
  139.0120   74.5684  220.3054 H   0  0  0  0  0  0  0  0  0  0  0  0
  140.4630   77.0959  219.2548 H   0  0  0  0  0  0  0  0  0  0  0  0
  142.7992   77.3899  218.3897 H   0  0  0  0  0  0  0  0  0  0  0  0
  144.5889   75.8311  219.0341 H   0  0  0  0  0  0  0  0  0  0  0  0
  144.1359   73.9093  220.5664 H   0  0  0  0  0  0  0  0  0  0  0  0
  141.3876   72.4623  221.1502 H   0  0  0  0  0  0  0  0  0  0  0  0
  142.0494   73.3013  222.5617 H   0  0  0  0  0  0  0  0  0  0  0  0
  139.8587   70.3315  221.7628 H   0  0  0  0  0  0  0  0  0  0  0  0
  140.8084   71.3797  222.8972 H   0  0  0  0  0  0  0  0  0  0  0  0
  138.0854   71.1301  223.7506 H   0  0  0  0  0  0  0  0  0  0  0  0
  138.9212   69.4974  223.5007 H   0  0  0  0  0  0  0  0  0  0  0  0
  140.8154   72.3732  224.3667 H   0  0  0  0  0  0  0  0  0  0  0  0
  141.9894   72.6908  226.4963 H   0  0  0  0  0  0  0  0  0  0  0  0
  141.5309   71.1491  228.4130 H   0  0  0  0  0  0  0  0  0  0  0  0
  139.8816   69.3125  228.1130 H   0  0  0  0  0  0  0  0  0  0  0  0
  138.6997   68.9954  225.9565 H   0  0  0  0  0  0  0  0  0  0  0  0
  141.8250   76.6877  222.2523 H   0  0  0  0  0  0  0  0  0  0  0  0
  142.5264   78.7024  223.5048 H   0  0  0  0  0  0  0  0  0  0  0  0
  140.7770   80.3008  224.2941 H   0  0  0  0  0  0  0  0  0  0  0  0
  138.3930   79.8783  223.8337 H   0  0  0  0  0  0  0  0  0  0  0  0
  1  2  1  0
  2  3  1  0
  3  4  2  0
  4  5  1  0
  5  6  1  0
  6  7  2  0
  7  8  1  0
  8  9  2  0
  9 10  1  0
 10 11  2  0
 11 12  1  0
 12 13  1  0
 13 14  1  0
 14 15  2  0
 14 16  2  0
 14 17  1  0
 17 18  1  0
 18 19  1  0
 19 20  2  0
 20 21  1  0
 21 22  2  0
 22 23  1  0
 23 24  2  0
  4 25  1  0
 25 26  2  0
 26 27  1  0
 27 28  2  0
 28 29  1  0
 29 30  2  0
 30  2  1  0
 13  5  1  0
 24 19  1  0
 30 25  1  0
 11  6  1  0
  1 31  1  0
  1 32  1  0
  1 33  1  0
  3 34  1  0
  5 35  1  6
  7 36  1  0
  8 37  1  0
  9 38  1  0
 10 39  1  0
 12 40  1  0
 12 41  1  0
 17 42  1  0
 17 43  1  0
 18 44  1  0
 18 45  1  0
 20 46  1  0
 21 47  1  0
 22 48  1  0
 23 49  1  0
 24 50  1  0
 26 51  1  0
 27 52  1  0
 28 53  1  0
 29 54  1  0
M  END
>  <smiles>  (32) 
Cn1cc(C2c3ccccc3CN2S(=O)(=O)CCc2ccccc2)c2ccccc21

>  <score_type>  (32) 
oracle

>  <origin>  (32) 
autodockgpu

>  <m_score__min__energy>  (32) 
-9.0600000000000005

>  <m_primary>  (32) 
energy

>  <meeko>  (32) 
{"free_energy": -8.56, "intermolecular_energy": -10.05, "internal_energy": -1.68, "cluster_size": 10, "cluster_id": 1, "rank_in_cluster": 8}

>  <energy>  (32) 
-7.99

>  <cluster_rmsd>  (32) 
0.21

>  <rmsd>  (32) 
270.89

>  <cluster>  (32) 
2

$$$$

     RDKit          3D

 54 58  0  0  1  0  0  0  0  0999 V2000
  136.6790   78.4890  223.0910 C   0  0  0  0  0  0  0  0  0  0  0  0
  137.9180   77.8800  222.6580 N   0  0  0  0  0  0  0  0  0  0  0  0
  138.0890   76.7670  221.9060 C   0  0  0  0  0  0  0  0  0  0  0  0
  139.4340   76.5280  221.7150 C   0  0  0  0  0  0  0  0  0  0  0  0
  140.1140   75.4480  220.9650 C   0  0  1  0  0  0  0  0  0  0  0  0
  141.1580   75.9780  220.0520 C   0  0  0  0  0  0  0  0  0  0  0  0
  141.0430   77.0390  219.1580 C   0  0  0  0  0  0  0  0  0  0  0  0
  142.1730   77.3470  218.4080 C   0  0  0  0  0  0  0  0  0  0  0  0
  143.3490   76.6320  218.5500 C   0  0  0  0  0  0  0  0  0  0  0  0
  143.4560   75.5760  219.4440 C   0  0  0  0  0  0  0  0  0  0  0  0
  142.3340   75.2730  220.1840 C   0  0  0  0  0  0  0  0  0  0  0  0
  142.0960   74.2230  221.2170 C   0  0  0  0  0  0  0  0  0  0  0  0
  140.8190   74.5340  221.8060 N   0  0  0  0  0  0  0  0  0  0  0  0
  139.9650   73.0130  221.9660 S   0  0  0  0  0  0  0  0  0  0  0  0
  139.9690   72.3300  220.6070 O   0  0  0  0  0  0  0  0  0  0  0  0
  138.5520   73.3280  222.3310 O   0  0  0  0  0  0  0  0  0  0  0  0
  140.6800   72.0080  223.2060 C   0  0  0  0  0  0  0  0  0  0  0  0
  139.6480   71.2610  223.9730 C   0  0  0  0  0  0  0  0  0  0  0  0
  139.9710   70.9440  225.3620 C   0  0  0  0  0  0  0  0  0  0  0  0
  140.7180   71.8810  226.0800 C   0  0  0  0  0  0  0  0  0  0  0  0
  141.0760   71.6930  227.3910 C   0  0  0  0  0  0  0  0  0  0  0  0
  140.6890   70.5340  228.0480 C   0  0  0  0  0  0  0  0  0  0  0  0
  139.9450   69.5940  227.3490 C   0  0  0  0  0  0  0  0  0  0  0  0
  139.5870   69.7920  226.0180 C   0  0  0  0  0  0  0  0  0  0  0  0
  140.0890   77.5560  222.3920 C   0  0  0  0  0  0  0  0  0  0  0  0
  141.4160   77.8800  222.5820 C   0  0  0  0  0  0  0  0  0  0  0  0
  141.8160   78.9790  223.3130 C   0  0  0  0  0  0  0  0  0  0  0  0
  140.8310   79.7820  223.8760 C   0  0  0  0  0  0  0  0  0  0  0  0
  139.5040   79.4950  223.7110 C   0  0  0  0  0  0  0  0  0  0  0  0
  139.1380   78.3740  222.9630 C   0  0  0  0  0  0  0  0  0  0  0  0
  136.6436   78.5064  224.1903 H   0  0  0  0  0  0  0  0  0  0  0  0
  136.6219   79.5178  222.7060 H   0  0  0  0  0  0  0  0  0  0  0  0
  135.8296   77.9057  222.7060 H   0  0  0  0  0  0  0  0  0  0  0  0
  137.2748   76.1448  221.5061 H   0  0  0  0  0  0  0  0  0  0  0  0
  139.2921   74.9503  220.4294 H   0  0  0  0  0  0  0  0  0  0  0  0
  140.1060   77.6050  219.0503 H   0  0  0  0  0  0  0  0  0  0  0  0
  142.1309   78.1765  217.6868 H   0  0  0  0  0  0  0  0  0  0  0  0
  144.2211   76.9076  217.9389 H   0  0  0  0  0  0  0  0  0  0  0  0
  144.3914   75.0083  219.5564 H   0  0  0  0  0  0  0  0  0  0  0  0
  142.0706   73.2266  220.7516 H   0  0  0  0  0  0  0  0  0  0  0  0
  142.8967   74.2082  221.9711 H   0  0  0  0  0  0  0  0  0  0  0  0
  141.3620   71.2874  222.7311 H   0  0  0  0  0  0  0  0  0  0  0  0
  141.2211   72.6612  223.9064 H   0  0  0  0  0  0  0  0  0  0  0  0
  138.7289   71.8654  223.9731 H   0  0  0  0  0  0  0  0  0  0  0  0
  139.5553   70.2890  223.4664 H   0  0  0  0  0  0  0  0  0  0  0  0
  141.0316   72.8061  225.5742 H   0  0  0  0  0  0  0  0  0  0  0  0
  141.6665   72.4568  227.9182 H   0  0  0  0  0  0  0  0  0  0  0  0
  140.9656   70.3640  229.0990 H   0  0  0  0  0  0  0  0  0  0  0  0
  139.6308   68.6710  227.8582 H   0  0  0  0  0  0  0  0  0  0  0  0
  138.9973   69.0291  225.4886 H   0  0  0  0  0  0  0  0  0  0  0  0
  142.1863   77.2361  222.1325 H   0  0  0  0  0  0  0  0  0  0  0  0
  142.8825   79.2130  223.4465 H   0  0  0  0  0  0  0  0  0  0  0  0
  141.1239   80.6639  224.4647 H   0  0  0  0  0  0  0  0  0  0  0  0
  138.7347   80.1391  224.1618 H   0  0  0  0  0  0  0  0  0  0  0  0
  1  2  1  0
  2  3  1  0
  3  4  2  0
  4  5  1  0
  5  6  1  0
  6  7  2  0
  7  8  1  0
  8  9  2  0
  9 10  1  0
 10 11  2  0
 11 12  1  0
 12 13  1  0
 13 14  1  0
 14 15  2  0
 14 16  2  0
 14 17  1  0
 17 18  1  0
 18 19  1  0
 19 20  2  0
 20 21  1  0
 21 22  2  0
 22 23  1  0
 23 24  2  0
  4 25  1  0
 25 26  2  0
 26 27  1  0
 27 28  2  0
 28 29  1  0
 29 30  2  0
 30  2  1  0
 13  5  1  0
 24 19  1  0
 30 25  1  0
 11  6  1  0
  1 31  1  0
  1 32  1  0
  1 33  1  0
  3 34  1  0
  5 35  1  6
  7 36  1  0
  8 37  1  0
  9 38  1  0
 10 39  1  0
 12 40  1  0
 12 41  1  0
 17 42  1  0
 17 43  1  0
 18 44  1  0
 18 45  1  0
 20 46  1  0
 21 47  1  0
 22 48  1  0
 23 49  1  0
 24 50  1  0
 26 51  1  0
 27 52  1  0
 28 53  1  0
 29 54  1  0
M  END
>  <smiles>  (33) 
Cn1cc(C2c3ccccc3CN2S(=O)(=O)CCc2ccccc2)c2ccccc21

>  <score_type>  (33) 
oracle

>  <origin>  (33) 
autodockgpu

>  <m_score__min__energy>  (33) 
-9.0600000000000005

>  <m_primary>  (33) 
energy

>  <meeko>  (33) 
{"free_energy": -8.86, "intermolecular_energy": -10.35, "internal_energy": -1.57, "cluster_size": 10, "cluster_id": 1, "rank_in_cluster": 6}

>  <energy>  (33) 
-7.22

>  <cluster_rmsd>  (33) 
2.0

>  <rmsd>  (33) 
270.76

>  <cluster>  (33) 
2

$$$$

     RDKit          3D

 54 58  0  0  1  0  0  0  0  0999 V2000
  140.8440   83.1030  220.0240 C   0  0  0  0  0  0  0  0  0  0  0  0
  141.0500   81.7060  220.3420 N   0  0  0  0  0  0  0  0  0  0  0  0
  140.8630   80.6270  219.5470 C   0  0  0  0  0  0  0  0  0  0  0  0
  141.1770   79.4730  220.2340 C   0  0  0  0  0  0  0  0  0  0  0  0
  141.1420   78.0600  219.7930 C   0  0  1  0  0  0  0  0  0  0  0  0
  141.8480   77.8630  218.5030 C   0  0  0  0  0  0  0  0  0  0  0  0
  141.7180   78.6190  217.3410 C   0  0  0  0  0  0  0  0  0  0  0  0
  142.4960   78.2310  216.2540 C   0  0  0  0  0  0  0  0  0  0  0  0
  143.3530   77.1480  216.3330 C   0  0  0  0  0  0  0  0  0  0  0  0
  143.4770   76.4000  217.4930 C   0  0  0  0  0  0  0  0  0  0  0  0
  142.7050   76.7860  218.5670 C   0  0  0  0  0  0  0  0  0  0  0  0
  142.5860   76.2200  219.9430 C   0  0  0  0  0  0  0  0  0  0  0  0
  141.8070   77.1710  220.6930 N   0  0  0  0  0  0  0  0  0  0  0  0
  140.6660   76.2390  221.6400 S   0  0  0  0  0  0  0  0  0  0  0  0
  140.7780   76.6950  223.0870 O   0  0  0  0  0  0  0  0  0  0  0  0
  141.0820   74.8070  221.5630 O   0  0  0  0  0  0  0  0  0  0  0  0
  139.0380   76.4090  221.0250 C   0  0  0  0  0  0  0  0  0  0  0  0
  138.1220   76.9900  222.0430 C   0  0  0  0  0  0  0  0  0  0  0  0
  138.2070   78.4350  222.2460 C   0  0  0  0  0  0  0  0  0  0  0  0
  138.7230   78.8860  223.4620 C   0  0  0  0  0  0  0  0  0  0  0  0
  138.8540   80.2180  223.7610 C   0  0  0  0  0  0  0  0  0  0  0  0
  138.4640   81.1710  222.8320 C   0  0  0  0  0  0  0  0  0  0  0  0
  137.9490   80.7400  221.6180 C   0  0  0  0  0  0  0  0  0  0  0  0
  137.8190   79.3850  221.3220 C   0  0  0  0  0  0  0  0  0  0  0  0
  141.5710   79.8970  221.5020 C   0  0  0  0  0  0  0  0  0  0  0  0
  141.9980   79.2420  222.6380 C   0  0  0  0  0  0  0  0  0  0  0  0
  142.3370   79.9080  223.7980 C   0  0  0  0  0  0  0  0  0  0  0  0
  142.2370   81.2940  223.8080 C   0  0  0  0  0  0  0  0  0  0  0  0
  141.8180   81.9810  222.7020 C   0  0  0  0  0  0  0  0  0  0  0  0
  141.4840   81.2720  221.5460 C   0  0  0  0  0  0  0  0  0  0  0  0
  140.7586   83.6823  220.9552 H   0  0  0  0  0  0  0  0  0  0  0  0
  141.6970   83.4752  219.4376 H   0  0  0  0  0  0  0  0  0  0  0  0
  139.9199   83.2132  219.4376 H   0  0  0  0  0  0  0  0  0  0  0  0
  140.5119   80.6648  218.5052 H   0  0  0  0  0  0  0  0  0  0  0  0
  140.0667   77.8376  219.7282 H   0  0  0  0  0  0  0  0  0  0  0  0
  141.0350   79.4794  217.2849 H   0  0  0  0  0  0  0  0  0  0  0  0
  142.4280   78.7970  215.3132 H   0  0  0  0  0  0  0  0  0  0  0  0
  143.9517   76.8734  215.4520 H   0  0  0  0  0  0  0  0  0  0  0  0
  144.1592   75.5392  217.5534 H   0  0  0  0  0  0  0  0  0  0  0  0
  142.0762   75.2457  219.9135 H   0  0  0  0  0  0  0  0  0  0  0  0
  143.5731   76.0557  220.3997 H   0  0  0  0  0  0  0  0  0  0  0  0
  139.0567   77.0685  220.1448 H   0  0  0  0  0  0  0  0  0  0  0  0
  138.6656   75.4083  220.7606 H   0  0  0  0  0  0  0  0  0  0  0  0
  137.0914   76.7551  221.7385 H   0  0  0  0  0  0  0  0  0  0  0  0
  138.4281   76.5425  223.0001 H   0  0  0  0  0  0  0  0  0  0  0  0
  139.0371   78.1434  224.2103 H   0  0  0  0  0  0  0  0  0  0  0  0
  139.2662   80.5288  224.7324 H   0  0  0  0  0  0  0  0  0  0  0  0
  138.5608   82.2443  223.0527 H   0  0  0  0  0  0  0  0  0  0  0  0
  137.6361   81.4854  220.8720 H   0  0  0  0  0  0  0  0  0  0  0  0
  137.4069   79.0716  220.3515 H   0  0  0  0  0  0  0  0  0  0  0  0
  142.0713   78.1446  222.6186 H   0  0  0  0  0  0  0  0  0  0  0  0
  142.6763   79.3582  224.6883 H   0  0  0  0  0  0  0  0  0  0  0  0
  142.4994   81.8482  224.7212 H   0  0  0  0  0  0  0  0  0  0  0  0
  141.7450   83.0784  222.7227 H   0  0  0  0  0  0  0  0  0  0  0  0
  1  2  1  0
  2  3  1  0
  3  4  2  0
  4  5  1  0
  5  6  1  0
  6  7  2  0
  7  8  1  0
  8  9  2  0
  9 10  1  0
 10 11  2  0
 11 12  1  0
 12 13  1  0
 13 14  1  0
 14 15  2  0
 14 16  2  0
 14 17  1  0
 17 18  1  0
 18 19  1  0
 19 20  2  0
 20 21  1  0
 21 22  2  0
 22 23  1  0
 23 24  2  0
  4 25  1  0
 25 26  2  0
 26 27  1  0
 27 28  2  0
 28 29  1  0
 29 30  2  0
 30  2  1  0
 13  5  1  0
 24 19  1  0
 30 25  1  0
 11  6  1  0
  1 31  1  0
  1 32  1  0
  1 33  1  0
  3 34  1  0
  5 35  1  6
  7 36  1  0
  8 37  1  0
  9 38  1  0
 10 39  1  0
 12 40  1  0
 12 41  1  0
 17 42  1  0
 17 43  1  0
 18 44  1  0
 18 45  1  0
 20 46  1  0
 21 47  1  0
 22 48  1  0
 23 49  1  0
 24 50  1  0
 26 51  1  0
 27 52  1  0
 28 53  1  0
 29 54  1  0
M  END
>  <smiles>  (34) 
Cn1cc(C2c3ccccc3CN2S(=O)(=O)CCc2ccccc2)c2ccccc21

>  <score_type>  (34) 
oracle

>  <origin>  (34) 
autodockgpu

>  <m_score__min__energy>  (34) 
-9.0600000000000005

>  <m_primary>  (34) 
energy

>  <meeko>  (34) 
{"free_energy": -6.98, "intermolecular_energy": -8.47, "internal_energy": -3.09, "cluster_size": 8, "cluster_id": 2, "rank_in_cluster": 6}

>  <energy>  (34) 
-7.21

>  <cluster_rmsd>  (34) 
1.99

>  <rmsd>  (34) 
270.76

>  <cluster>  (34) 
2

$$$$

     RDKit          3D

 54 58  0  0  1  0  0  0  0  0999 V2000
  141.1090   82.4390  219.9110 C   0  0  0  0  0  0  0  0  0  0  0  0
  141.1960   81.0450  220.2880 N   0  0  0  0  0  0  0  0  0  0  0  0
  140.9860   79.9510  219.5180 C   0  0  0  0  0  0  0  0  0  0  0  0
  141.1750   78.8060  220.2620 C   0  0  0  0  0  0  0  0  0  0  0  0
  141.0690   77.3830  219.8670 C   0  0  1  0  0  0  0  0  0  0  0  0
  142.0460   77.0270  218.8070 C   0  0  0  0  0  0  0  0  0  0  0  0
  142.3110   77.7220  217.6310 C   0  0  0  0  0  0  0  0  0  0  0  0
  143.2810   77.1810  216.7920 C   0  0  0  0  0  0  0  0  0  0  0  0
  143.9440   76.0110  217.1180 C   0  0  0  0  0  0  0  0  0  0  0  0
  143.6740   75.3250  218.2920 C   0  0  0  0  0  0  0  0  0  0  0  0
  142.7130   75.8630  219.1200 C   0  0  0  0  0  0  0  0  0  0  0  0
  142.1800   75.3980  220.4340 C   0  0  0  0  0  0  0  0  0  0  0  0
  141.3660   76.4780  220.9320 N   0  0  0  0  0  0  0  0  0  0  0  0
  139.9140   75.7440  221.5790 S   0  0  0  0  0  0  0  0  0  0  0  0
  140.3230   74.4940  222.3450 O   0  0  0  0  0  0  0  0  0  0  0  0
  139.0650   75.3310  220.4230 O   0  0  0  0  0  0  0  0  0  0  0  0
  139.0270   76.8660  222.5860 C   0  0  0  0  0  0  0  0  0  0  0  0
  138.1670   77.7700  221.7770 C   0  0  0  0  0  0  0  0  0  0  0  0
  138.1770   79.1840  222.1470 C   0  0  0  0  0  0  0  0  0  0  0  0
  138.4960   79.5020  223.4690 C   0  0  0  0  0  0  0  0  0  0  0  0
  138.5420   80.7930  223.9290 C   0  0  0  0  0  0  0  0  0  0  0  0
  138.2650   81.8390  223.0610 C   0  0  0  0  0  0  0  0  0  0  0  0
  137.9470   81.5410  221.7440 C   0  0  0  0  0  0  0  0  0  0  0  0
  137.9020   80.2270  221.2860 C   0  0  0  0  0  0  0  0  0  0  0  0
  141.5140   79.2490  221.5390 C   0  0  0  0  0  0  0  0  0  0  0  0
  141.8210   78.6100  222.7220 C   0  0  0  0  0  0  0  0  0  0  0  0
  142.1300   79.2940  223.8790 C   0  0  0  0  0  0  0  0  0  0  0  0
  142.1260   80.6840  223.8370 C   0  0  0  0  0  0  0  0  0  0  0  0
  141.8280   81.3560  222.6830 C   0  0  0  0  0  0  0  0  0  0  0  0
  141.5210   80.6280  221.5310 C   0  0  0  0  0  0  0  0  0  0  0  0
  141.0701   83.0620  220.8167 H   0  0  0  0  0  0  0  0  0  0  0  0
  141.9918   82.7134  219.3148 H   0  0  0  0  0  0  0  0  0  0  0  0
  140.1990   82.6015  219.3148 H   0  0  0  0  0  0  0  0  0  0  0  0
  140.7056   79.9728  218.4546 H   0  0  0  0  0  0  0  0  0  0  0  0
  140.0250   77.2851  219.5348 H   0  0  0  0  0  0  0  0  0  0  0  0
  141.7808   78.6518  217.3772 H   0  0  0  0  0  0  0  0  0  0  0  0
  143.5256   77.6942  215.8503 H   0  0  0  0  0  0  0  0  0  0  0  0
  144.7042   75.6154  216.4284 H   0  0  0  0  0  0  0  0  0  0  0  0
  144.2019   74.3952  218.5503 H   0  0  0  0  0  0  0  0  0  0  0  0
  141.5728   74.4904  220.3015 H   0  0  0  0  0  0  0  0  0  0  0  0
  142.9907   75.1463  221.1335 H   0  0  0  0  0  0  0  0  0  0  0  0
  138.3916   76.2964  223.2801 H   0  0  0  0  0  0  0  0  0  0  0  0
  139.7540   77.4837  223.1336 H   0  0  0  0  0  0  0  0  0  0  0  0
  138.4965   77.6962  220.7301 H   0  0  0  0  0  0  0  0  0  0  0  0
  137.1366   77.4294  221.9570 H   0  0  0  0  0  0  0  0  0  0  0  0
  138.7194   78.6838  224.1695 H   0  0  0  0  0  0  0  0  0  0  0  0
  138.7969   80.9978  224.9793 H   0  0  0  0  0  0  0  0  0  0  0  0
  138.2968   82.8819  223.4094 H   0  0  0  0  0  0  0  0  0  0  0  0
  137.7254   82.3615  221.0457 H   0  0  0  0  0  0  0  0  0  0  0  0
  137.6468   80.0198  220.2363 H   0  0  0  0  0  0  0  0  0  0  0  0
  141.8193   77.5102  222.7436 H   0  0  0  0  0  0  0  0  0  0  0  0
  142.3724   78.7561  224.8074 H   0  0  0  0  0  0  0  0  0  0  0  0
  142.3665   81.2530  224.7472 H   0  0  0  0  0  0  0  0  0  0  0  0
  141.8302   82.4558  222.6626 H   0  0  0  0  0  0  0  0  0  0  0  0
  1  2  1  0
  2  3  1  0
  3  4  2  0
  4  5  1  0
  5  6  1  0
  6  7  2  0
  7  8  1  0
  8  9  2  0
  9 10  1  0
 10 11  2  0
 11 12  1  0
 12 13  1  0
 13 14  1  0
 14 15  2  0
 14 16  2  0
 14 17  1  0
 17 18  1  0
 18 19  1  0
 19 20  2  0
 20 21  1  0
 21 22  2  0
 22 23  1  0
 23 24  2  0
  4 25  1  0
 25 26  2  0
 26 27  1  0
 27 28  2  0
 28 29  1  0
 29 30  2  0
 30  2  1  0
 13  5  1  0
 24 19  1  0
 30 25  1  0
 11  6  1  0
  1 31  1  0
  1 32  1  0
  1 33  1  0
  3 34  1  0
  5 35  1  6
  7 36  1  0
  8 37  1  0
  9 38  1  0
 10 39  1  0
 12 40  1  0
 12 41  1  0
 17 42  1  0
 17 43  1  0
 18 44  1  0
 18 45  1  0
 20 46  1  0
 21 47  1  0
 22 48  1  0
 23 49  1  0
 24 50  1  0
 26 51  1  0
 27 52  1  0
 28 53  1  0
 29 54  1  0
M  END
>  <smiles>  (35) 
Cn1cc(C2c3ccccc3CN2S(=O)(=O)CCc2ccccc2)c2ccccc21

>  <score_type>  (35) 
oracle

>  <origin>  (35) 
autodockgpu

>  <m_score__min__energy>  (35) 
-9.0600000000000005

>  <m_primary>  (35) 
energy

>  <meeko>  (35) 
{"free_energy": -7.21, "intermolecular_energy": -8.7, "internal_energy": -3.04, "cluster_size": 8, "cluster_id": 2, "rank_in_cluster": 5}

>  <energy>  (35) 
-7.21

>  <cluster_rmsd>  (35) 
2.0

>  <rmsd>  (35) 
270.74

>  <cluster>  (35) 
2

$$$$

     RDKit          3D

 54 58  0  0  1  0  0  0  0  0999 V2000
  140.9830   79.1360  223.6770 C   0  0  0  0  0  0  0  0  0  0  0  0
  140.4300   78.0060  222.9620 N   0  0  0  0  0  0  0  0  0  0  0  0
  141.0850   76.9460  222.4310 C   0  0  0  0  0  0  0  0  0  0  0  0
  140.1860   76.0870  221.8350 C   0  0  0  0  0  0  0  0  0  0  0  0
  140.4150   74.8030  221.1340 C   0  0  1  0  0  0  0  0  0  0  0  0
  141.6670   74.8200  220.3370 C   0  0  0  0  0  0  0  0  0  0  0  0
  142.0970   75.8080  219.4560 C   0  0  0  0  0  0  0  0  0  0  0  0
  143.3180   75.5920  218.8240 C   0  0  0  0  0  0  0  0  0  0  0  0
  144.0620   74.4510  219.0660 C   0  0  0  0  0  0  0  0  0  0  0  0
  143.6270   73.4710  219.9470 C   0  0  0  0  0  0  0  0  0  0  0  0
  142.4170   73.6880  220.5690 C   0  0  0  0  0  0  0  0  0  0  0  0
  141.6610   72.8620  221.5550 C   0  0  0  0  0  0  0  0  0  0  0  0
  140.5840   73.6970  222.0230 N   0  0  0  0  0  0  0  0  0  0  0  0
  139.1570   72.6830  222.0720 S   0  0  0  0  0  0  0  0  0  0  0  0
  138.9990   72.0330  220.7050 O   0  0  0  0  0  0  0  0  0  0  0  0
  137.9820   73.5730  222.3090 O   0  0  0  0  0  0  0  0  0  0  0  0
  139.2610   71.4970  223.3530 C   0  0  0  0  0  0  0  0  0  0  0  0
  140.5360   71.6140  224.1090 C   0  0  0  0  0  0  0  0  0  0  0  0
  140.5010   71.2040  225.5110 C   0  0  0  0  0  0  0  0  0  0  0  0
  139.8190   70.0260  225.8220 C   0  0  0  0  0  0  0  0  0  0  0  0
  139.7250   69.5410  227.1020 C   0  0  0  0  0  0  0  0  0  0  0  0
  140.3250   70.2340  228.1430 C   0  0  0  0  0  0  0  0  0  0  0  0
  141.0070   71.4070  227.8510 C   0  0  0  0  0  0  0  0  0  0  0  0
  141.0970   71.8920  226.5490 C   0  0  0  0  0  0  0  0  0  0  0  0
  138.9360   76.6730  222.0250 C   0  0  0  0  0  0  0  0  0  0  0  0
  137.6510   76.3170  221.6730 C   0  0  0  0  0  0  0  0  0  0  0  0
  136.5520   77.0890  221.9870 C   0  0  0  0  0  0  0  0  0  0  0  0
  136.7640   78.2720  222.6870 C   0  0  0  0  0  0  0  0  0  0  0  0
  138.0230   78.6600  223.0560 C   0  0  0  0  0  0  0  0  0  0  0  0
  139.1100   77.8500  222.7200 C   0  0  0  0  0  0  0  0  0  0  0  0
  140.8979   78.9621  224.7598 H   0  0  0  0  0  0  0  0  0  0  0  0
  142.0425   79.2577  223.4074 H   0  0  0  0  0  0  0  0  0  0  0  0
  140.4290   80.0473  223.4074 H   0  0  0  0  0  0  0  0  0  0  0  0
  142.1736   76.7930  222.4695 H   0  0  0  0  0  0  0  0  0  0  0  0
  139.5156   74.6864  220.5116 H   0  0  0  0  0  0  0  0  0  0  0  0
  141.5018   76.7139  219.2687 H   0  0  0  0  0  0  0  0  0  0  0  0
  143.6993   76.3440  218.1175 H   0  0  0  0  0  0  0  0  0  0  0  0
  145.0226   74.3172  218.5470 H   0  0  0  0  0  0  0  0  0  0  0  0
  144.2198   72.5646  220.1395 H   0  0  0  0  0  0  0  0  0  0  0  0
  141.2624   71.9579  221.0715 H   0  0  0  0  0  0  0  0  0  0  0  0
  142.3047   72.5298  222.3828 H   0  0  0  0  0  0  0  0  0  0  0  0
  138.4204   71.6468  224.0465 H   0  0  0  0  0  0  0  0  0  0  0  0
  139.2231   70.4964  222.8976 H   0  0  0  0  0  0  0  0  0  0  0  0
  141.2863   70.9931  223.5976 H   0  0  0  0  0  0  0  0  0  0  0  0
  140.7680   72.6891  224.1251 H   0  0  0  0  0  0  0  0  0  0  0  0
  139.3377   69.4641  225.0080 H   0  0  0  0  0  0  0  0  0  0  0  0
  139.1771   68.6082  227.3015 H   0  0  0  0  0  0  0  0  0  0  0  0
  140.2617   69.8624  229.1764 H   0  0  0  0  0  0  0  0  0  0  0  0
  141.4876   71.9664  228.6671 H   0  0  0  0  0  0  0  0  0  0  0  0
  141.6438   72.8248  226.3471 H   0  0  0  0  0  0  0  0  0  0  0  0
  137.4962   75.3792  221.1193 H   0  0  0  0  0  0  0  0  0  0  0  0
  135.5386   76.7785  221.6927 H   0  0  0  0  0  0  0  0  0  0  0  0
  135.9045   78.9067  222.9485 H   0  0  0  0  0  0  0  0  0  0  0  0
  138.1771   79.5977  223.6101 H   0  0  0  0  0  0  0  0  0  0  0  0
  1  2  1  0
  2  3  1  0
  3  4  2  0
  4  5  1  0
  5  6  1  0
  6  7  2  0
  7  8  1  0
  8  9  2  0
  9 10  1  0
 10 11  2  0
 11 12  1  0
 12 13  1  0
 13 14  1  0
 14 15  2  0
 14 16  2  0
 14 17  1  0
 17 18  1  0
 18 19  1  0
 19 20  2  0
 20 21  1  0
 21 22  2  0
 22 23  1  0
 23 24  2  0
  4 25  1  0
 25 26  2  0
 26 27  1  0
 27 28  2  0
 28 29  1  0
 29 30  2  0
 30  2  1  0
 13  5  1  0
 24 19  1  0
 30 25  1  0
 11  6  1  0
  1 31  1  0
  1 32  1  0
  1 33  1  0
  3 34  1  0
  5 35  1  6
  7 36  1  0
  8 37  1  0
  9 38  1  0
 10 39  1  0
 12 40  1  0
 12 41  1  0
 17 42  1  0
 17 43  1  0
 18 44  1  0
 18 45  1  0
 20 46  1  0
 21 47  1  0
 22 48  1  0
 23 49  1  0
 24 50  1  0
 26 51  1  0
 27 52  1  0
 28 53  1  0
 29 54  1  0
M  END
>  <smiles>  (36) 
Cn1cc(C2c3ccccc3CN2S(=O)(=O)CCc2ccccc2)c2ccccc21

>  <score_type>  (36) 
oracle

>  <origin>  (36) 
autodockgpu

>  <m_score__min__energy>  (36) 
-9.0600000000000005

>  <m_primary>  (36) 
energy

>  <meeko>  (36) 
{"free_energy": -8.54, "intermolecular_energy": -10.03, "internal_energy": -1.46, "cluster_size": 10, "cluster_id": 1, "rank_in_cluster": 10}

>  <energy>  (36) 
-6.98

>  <cluster_rmsd>  (36) 
1.97

>  <rmsd>  (36) 
270.79

>  <cluster>  (36) 
2

$$$$

     RDKit          3D

 54 58  0  0  1  0  0  0  0  0999 V2000
  140.7150   83.1810  220.2660 C   0  0  0  0  0  0  0  0  0  0  0  0
  140.9740   81.7800  220.5210 N   0  0  0  0  0  0  0  0  0  0  0  0
  140.7700   80.7250  219.6970 C   0  0  0  0  0  0  0  0  0  0  0  0
  141.1520   79.5570  220.3230 C   0  0  0  0  0  0  0  0  0  0  0  0
  141.1270   78.1600  219.8330 C   0  0  1  0  0  0  0  0  0  0  0  0
  141.7700   78.0270  218.5020 C   0  0  0  0  0  0  0  0  0  0  0  0
  141.5620   78.8200  217.3770 C   0  0  0  0  0  0  0  0  0  0  0  0
  142.2920   78.4910  216.2380 C   0  0  0  0  0  0  0  0  0  0  0  0
  143.1770   77.4280  216.2330 C   0  0  0  0  0  0  0  0  0  0  0  0
  143.3790   76.6430  217.3580 C   0  0  0  0  0  0  0  0  0  0  0  0
  142.6540   76.9710  218.4830 C   0  0  0  0  0  0  0  0  0  0  0  0
  142.6210   76.3540  219.8410 C   0  0  0  0  0  0  0  0  0  0  0  0
  141.8590   77.2570  220.6650 N   0  0  0  0  0  0  0  0  0  0  0  0
  140.7910   76.2630  221.6330 S   0  0  0  0  0  0  0  0  0  0  0  0
  141.0090   76.6300  223.0940 O   0  0  0  0  0  0  0  0  0  0  0  0
  141.2020   74.8410  221.4390 O   0  0  0  0  0  0  0  0  0  0  0  0
  139.1220   76.4620  221.1510 C   0  0  0  0  0  0  0  0  0  0  0  0
  138.2860   76.9860  222.2630 C   0  0  0  0  0  0  0  0  0  0  0  0
  138.3480   78.4260  222.5020 C   0  0  0  0  0  0  0  0  0  0  0  0
  137.7680   79.2640  221.5470 C   0  0  0  0  0  0  0  0  0  0  0  0
  137.7610   80.6300  221.6680 C   0  0  0  0  0  0  0  0  0  0  0  0
  138.3480   81.2220  222.7760 C   0  0  0  0  0  0  0  0  0  0  0  0
  138.9290   80.4050  223.7350 C   0  0  0  0  0  0  0  0  0  0  0  0
  138.9320   79.0180  223.6040 C   0  0  0  0  0  0  0  0  0  0  0  0
  141.6050   79.9460  221.5820 C   0  0  0  0  0  0  0  0  0  0  0  0
  142.1130   79.2640  222.6670 C   0  0  0  0  0  0  0  0  0  0  0  0
  142.5000   79.8960  223.8300 C   0  0  0  0  0  0  0  0  0  0  0  0
  142.3660   81.2790  223.8970 C   0  0  0  0  0  0  0  0  0  0  0  0
  141.8670   81.9930  222.8420 C   0  0  0  0  0  0  0  0  0  0  0  0
  141.4870   81.3160  221.6810 C   0  0  0  0  0  0  0  0  0  0  0  0
  140.6162   83.7156  221.2223 H   0  0  0  0  0  0  0  0  0  0  0  0
  141.5492   83.6094  219.6910 H   0  0  0  0  0  0  0  0  0  0  0  0
  139.7828   83.2828  219.6910 H   0  0  0  0  0  0  0  0  0  0  0  0
  140.3600   80.7900  218.6783 H   0  0  0  0  0  0  0  0  0  0  0  0
  140.0553   77.9125  219.8150 H   0  0  0  0  0  0  0  0  0  0  0  0
  140.8565   79.6639  217.3874 H   0  0  0  0  0  0  0  0  0  0  0  0
  142.1623   79.0885  215.3236 H   0  0  0  0  0  0  0  0  0  0  0  0
  143.7349   77.1995  215.3129 H   0  0  0  0  0  0  0  0  0  0  0  0
  144.0842   75.7988  217.3527 H   0  0  0  0  0  0  0  0  0  0  0  0
  142.1344   75.3683  219.8019 H   0  0  0  0  0  0  0  0  0  0  0  0
  143.6345   76.1999  220.2400 H   0  0  0  0  0  0  0  0  0  0  0  0
  139.0763   77.1672  220.3081 H   0  0  0  0  0  0  0  0  0  0  0  0
  138.7290   75.4759  220.8626 H   0  0  0  0  0  0  0  0  0  0  0  0
  137.2392   76.7282  222.0444 H   0  0  0  0  0  0  0  0  0  0  0  0
  138.6898   76.5217  223.1748 H   0  0  0  0  0  0  0  0  0  0  0  0
  137.2979   78.8100  220.6622 H   0  0  0  0  0  0  0  0  0  0  0  0
  137.2927   81.2521  220.8910 H   0  0  0  0  0  0  0  0  0  0  0  0
  138.3529   82.3158  222.8921 H   0  0  0  0  0  0  0  0  0  0  0  0
  139.3978   80.8626  224.6186 H   0  0  0  0  0  0  0  0  0  0  0  0
  139.4002   78.3939  224.3794 H   0  0  0  0  0  0  0  0  0  0  0  0
  142.2138   78.1705  222.6024 H   0  0  0  0  0  0  0  0  0  0  0  0
  142.9024   79.3239  224.6789 H   0  0  0  0  0  0  0  0  0  0  0  0
  142.6663   81.8075  224.8138 H   0  0  0  0  0  0  0  0  0  0  0  0
  141.7664   83.0864  222.9073 H   0  0  0  0  0  0  0  0  0  0  0  0
  1  2  1  0
  2  3  1  0
  3  4  2  0
  4  5  1  0
  5  6  1  0
  6  7  2  0
  7  8  1  0
  8  9  2  0
  9 10  1  0
 10 11  2  0
 11 12  1  0
 12 13  1  0
 13 14  1  0
 14 15  2  0
 14 16  2  0
 14 17  1  0
 17 18  1  0
 18 19  1  0
 19 20  2  0
 20 21  1  0
 21 22  2  0
 22 23  1  0
 23 24  2  0
  4 25  1  0
 25 26  2  0
 26 27  1  0
 27 28  2  0
 28 29  1  0
 29 30  2  0
 30  2  1  0
 13  5  1  0
 24 19  1  0
 30 25  1  0
 11  6  1  0
  1 31  1  0
  1 32  1  0
  1 33  1  0
  3 34  1  0
  5 35  1  6
  7 36  1  0
  8 37  1  0
  9 38  1  0
 10 39  1  0
 12 40  1  0
 12 41  1  0
 17 42  1  0
 17 43  1  0
 18 44  1  0
 18 45  1  0
 20 46  1  0
 21 47  1  0
 22 48  1  0
 23 49  1  0
 24 50  1  0
 26 51  1  0
 27 52  1  0
 28 53  1  0
 29 54  1  0
M  END
>  <smiles>  (37) 
Cn1cc(C2c3ccccc3CN2S(=O)(=O)CCc2ccccc2)c2ccccc21

>  <score_type>  (37) 
oracle

>  <origin>  (37) 
autodockgpu

>  <m_score__min__energy>  (37) 
-9.0600000000000005

>  <m_primary>  (37) 
energy

>  <meeko>  (37) 
{"free_energy": -6.9, "intermolecular_energy": -8.39, "internal_energy": -3.09, "cluster_size": 8, "cluster_id": 2, "rank_in_cluster": 8}

>  <energy>  (37) 
-6.95

>  <cluster_rmsd>  (37) 
1.96

>  <rmsd>  (37) 
270.78

>  <cluster>  (37) 
2

$$$$

     RDKit          3D

 54 58  0  0  1  0  0  0  0  0999 V2000
  141.1700   82.4370  219.8800 C   0  0  0  0  0  0  0  0  0  0  0  0
  141.2450   81.0460  220.2710 N   0  0  0  0  0  0  0  0  0  0  0  0
  141.0370   79.9470  219.5080 C   0  0  0  0  0  0  0  0  0  0  0  0
  141.2110   78.8070  220.2650 C   0  0  0  0  0  0  0  0  0  0  0  0
  141.1020   77.3810  219.8810 C   0  0  1  0  0  0  0  0  0  0  0  0
  142.0780   77.0140  218.8250 C   0  0  0  0  0  0  0  0  0  0  0  0
  142.3460   77.6990  217.6430 C   0  0  0  0  0  0  0  0  0  0  0  0
  143.3150   77.1490  216.8090 C   0  0  0  0  0  0  0  0  0  0  0  0
  143.9750   75.9800  217.1450 C   0  0  0  0  0  0  0  0  0  0  0  0
  143.7020   75.3040  218.3250 C   0  0  0  0  0  0  0  0  0  0  0  0
  142.7420   75.8510  219.1470 C   0  0  0  0  0  0  0  0  0  0  0  0
  142.2080   75.3990  220.4650 C   0  0  0  0  0  0  0  0  0  0  0  0
  141.3960   76.4840  220.9540 N   0  0  0  0  0  0  0  0  0  0  0  0
  139.9420   75.7590  221.6060 S   0  0  0  0  0  0  0  0  0  0  0  0
  140.3350   74.4600  222.2930 O   0  0  0  0  0  0  0  0  0  0  0  0
  139.0470   75.4330  220.4560 O   0  0  0  0  0  0  0  0  0  0  0  0
  139.1190   76.8520  222.6960 C   0  0  0  0  0  0  0  0  0  0  0  0
  138.1050   77.6770  221.9870 C   0  0  0  0  0  0  0  0  0  0  0  0
  138.1760   79.1210  222.1990 C   0  0  0  0  0  0  0  0  0  0  0  0
  138.5090   79.5690  223.4800 C   0  0  0  0  0  0  0  0  0  0  0  0
  138.6100   80.9000  223.7940 C   0  0  0  0  0  0  0  0  0  0  0  0
  138.3760   81.8550  222.8160 C   0  0  0  0  0  0  0  0  0  0  0  0
  138.0450   81.4270  221.5390 C   0  0  0  0  0  0  0  0  0  0  0  0
  137.9440   80.0740  221.2280 C   0  0  0  0  0  0  0  0  0  0  0  0
  141.5380   79.2600  221.5420 C   0  0  0  0  0  0  0  0  0  0  0  0
  141.8280   78.6300  222.7330 C   0  0  0  0  0  0  0  0  0  0  0  0
  142.1270   79.3230  223.8880 C   0  0  0  0  0  0  0  0  0  0  0  0
  142.1320   80.7120  223.8330 C   0  0  0  0  0  0  0  0  0  0  0  0
  141.8500   81.3750  222.6700 C   0  0  0  0  0  0  0  0  0  0  0  0
  141.5530   80.6390  221.5220 C   0  0  0  0  0  0  0  0  0  0  0  0
  141.1359   83.0694  220.7794 H   0  0  0  0  0  0  0  0  0  0  0  0
  142.0554   82.6979  219.2817 H   0  0  0  0  0  0  0  0  0  0  0  0
  140.2617   82.6012  219.2817 H   0  0  0  0  0  0  0  0  0  0  0  0
  140.7687   79.9611  218.4413 H   0  0  0  0  0  0  0  0  0  0  0  0
  140.0581   77.2829  219.5484 H   0  0  0  0  0  0  0  0  0  0  0  0
  141.8185   78.6281  217.3814 H   0  0  0  0  0  0  0  0  0  0  0  0
  143.5613   77.6539  215.8633 H   0  0  0  0  0  0  0  0  0  0  0  0
  144.7349   75.5769  216.4594 H   0  0  0  0  0  0  0  0  0  0  0  0
  144.2274   74.3751  218.5916 H   0  0  0  0  0  0  0  0  0  0  0  0
  141.5993   74.4913  220.3405 H   0  0  0  0  0  0  0  0  0  0  0  0
  143.0185   75.1526  221.1666 H   0  0  0  0  0  0  0  0  0  0  0  0
  138.6164   76.2640  223.4780 H   0  0  0  0  0  0  0  0  0  0  0  0
  139.8680   77.5296  223.1318 H   0  0  0  0  0  0  0  0  0  0  0  0
  138.2178   77.4915  220.9086 H   0  0  0  0  0  0  0  0  0  0  0  0
  137.1351   77.3687  222.4044 H   0  0  0  0  0  0  0  0  0  0  0  0
  138.6976   78.8246  224.2676 H   0  0  0  0  0  0  0  0  0  0  0  0
  138.8752   81.2085  224.8160 H   0  0  0  0  0  0  0  0  0  0  0  0
  138.4512   82.9277  223.0478 H   0  0  0  0  0  0  0  0  0  0  0  0
  137.8579   82.1741  220.7537 H   0  0  0  0  0  0  0  0  0  0  0  0
  137.6788   79.7638  220.2065 H   0  0  0  0  0  0  0  0  0  0  0  0
  141.8208   77.5305  222.7640 H   0  0  0  0  0  0  0  0  0  0  0  0
  142.3546   78.7923  224.8242 H   0  0  0  0  0  0  0  0  0  0  0  0
  142.3668   81.2880  224.7402 H   0  0  0  0  0  0  0  0  0  0  0  0
  141.8573   82.4746  222.6401 H   0  0  0  0  0  0  0  0  0  0  0  0
  1  2  1  0
  2  3  1  0
  3  4  2  0
  4  5  1  0
  5  6  1  0
  6  7  2  0
  7  8  1  0
  8  9  2  0
  9 10  1  0
 10 11  2  0
 11 12  1  0
 12 13  1  0
 13 14  1  0
 14 15  2  0
 14 16  2  0
 14 17  1  0
 17 18  1  0
 18 19  1  0
 19 20  2  0
 20 21  1  0
 21 22  2  0
 22 23  1  0
 23 24  2  0
  4 25  1  0
 25 26  2  0
 26 27  1  0
 27 28  2  0
 28 29  1  0
 29 30  2  0
 30  2  1  0
 13  5  1  0
 24 19  1  0
 30 25  1  0
 11  6  1  0
  1 31  1  0
  1 32  1  0
  1 33  1  0
  3 34  1  0
  5 35  1  6
  7 36  1  0
  8 37  1  0
  9 38  1  0
 10 39  1  0
 12 40  1  0
 12 41  1  0
 17 42  1  0
 17 43  1  0
 18 44  1  0
 18 45  1  0
 20 46  1  0
 21 47  1  0
 22 48  1  0
 23 49  1  0
 24 50  1  0
 26 51  1  0
 27 52  1  0
 28 53  1  0
 29 54  1  0
M  END
>  <smiles>  (38) 
Cn1cc(C2c3ccccc3CN2S(=O)(=O)CCc2ccccc2)c2ccccc21

>  <score_type>  (38) 
oracle

>  <origin>  (38) 
autodockgpu

>  <m_score__min__energy>  (38) 
-9.0600000000000005

>  <m_primary>  (38) 
energy

>  <meeko>  (38) 
{"free_energy": -7.22, "intermolecular_energy": -8.71, "internal_energy": -3.05, "cluster_size": 2, "cluster_id": 3, "rank_in_cluster": 1}

>  <energy>  (38) 
-6.9

>  <cluster_rmsd>  (38) 
1.95

>  <rmsd>  (38) 
270.86

>  <cluster>  (38) 
2

$$$$

     RDKit          3D

 54 58  0  0  1  0  0  0  0  0999 V2000
  136.3810   78.1790  222.7650 C   0  0  0  0  0  0  0  0  0  0  0  0
  137.6080   77.4780  222.4560 N   0  0  0  0  0  0  0  0  0  0  0  0
  137.7640   76.3050  221.7970 C   0  0  0  0  0  0  0  0  0  0  0  0
  139.1020   75.9850  221.7110 C   0  0  0  0  0  0  0  0  0  0  0  0
  139.7660   74.8200  221.0840 C   0  0  1  0  0  0  0  0  0  0  0  0
  141.0510   75.1920  220.4400 C   0  0  0  0  0  0  0  0  0  0  0  0
  141.2910   76.2640  219.5850 C   0  0  0  0  0  0  0  0  0  0  0  0
  142.5910   76.4030  219.1090 C   0  0  0  0  0  0  0  0  0  0  0  0
  143.5900   75.5180  219.4750 C   0  0  0  0  0  0  0  0  0  0  0  0
  143.3430   74.4530  220.3280 C   0  0  0  0  0  0  0  0  0  0  0  0
  142.0540   74.3180  220.7960 C   0  0  0  0  0  0  0  0  0  0  0  0
  141.4450   73.3090  221.7110 C   0  0  0  0  0  0  0  0  0  0  0  0
  140.1280   73.8050  222.0220 N   0  0  0  0  0  0  0  0  0  0  0  0
  139.0480   72.4290  221.9330 S   0  0  0  0  0  0  0  0  0  0  0  0
  139.5310   71.5280  220.8060 O   0  0  0  0  0  0  0  0  0  0  0  0
  137.6930   72.9440  221.5780 O   0  0  0  0  0  0  0  0  0  0  0  0
  138.9700   71.5810  223.4610 C   0  0  0  0  0  0  0  0  0  0  0  0
  140.3090   71.0940  223.8890 C   0  0  0  0  0  0  0  0  0  0  0  0
  140.4970   70.8830  225.3230 C   0  0  0  0  0  0  0  0  0  0  0  0
  140.2410   69.6050  225.8250 C   0  0  0  0  0  0  0  0  0  0  0  0
  140.3880   69.2880  227.1520 C   0  0  0  0  0  0  0  0  0  0  0  0
  140.8070   70.2620  228.0460 C   0  0  0  0  0  0  0  0  0  0  0  0
  141.0660   71.5370  227.5640 C   0  0  0  0  0  0  0  0  0  0  0  0
  140.9140   71.8500  226.2150 C   0  0  0  0  0  0  0  0  0  0  0  0
  139.7710   77.0260  222.3530 C   0  0  0  0  0  0  0  0  0  0  0  0
  141.0990   77.2970  222.6030 C   0  0  0  0  0  0  0  0  0  0  0  0
  141.5140   78.4260  223.2790 C   0  0  0  0  0  0  0  0  0  0  0  0
  140.5430   79.3170  223.7190 C   0  0  0  0  0  0  0  0  0  0  0  0
  139.2140   79.0850  223.4910 C   0  0  0  0  0  0  0  0  0  0  0  0
  138.8330   77.9310  222.8030 C   0  0  0  0  0  0  0  0  0  0  0  0
  136.2623   78.2468  223.8565 H   0  0  0  0  0  0  0  0  0  0  0  0
  136.4193   79.1915  222.3368 H   0  0  0  0  0  0  0  0  0  0  0  0
  135.5283   77.6318  222.3368 H   0  0  0  0  0  0  0  0  0  0  0  0
  136.9429   75.6966  221.3899 H   0  0  0  0  0  0  0  0  0  0  0  0
  139.0189   74.4554  220.3636 H   0  0  0  0  0  0  0  0  0  0  0  0
  140.4932   76.9657  219.3001 H   0  0  0  0  0  0  0  0  0  0  0  0
  142.8296   77.2332  218.4279 H   0  0  0  0  0  0  0  0  0  0  0  0
  144.6060   75.6631  219.0791 H   0  0  0  0  0  0  0  0  0  0  0  0
  144.1379   73.7497  220.6172 H   0  0  0  0  0  0  0  0  0  0  0  0
  141.3780   72.3308  221.2123 H   0  0  0  0  0  0  0  0  0  0  0  0
  142.0497   73.1690  222.6191 H   0  0  0  0  0  0  0  0  0  0  0  0
  138.5772   72.2644  224.2283 H   0  0  0  0  0  0  0  0  0  0  0  0
  138.3117   70.7086  223.3358 H   0  0  0  0  0  0  0  0  0  0  0  0
  140.4936   70.1350  223.3828 H   0  0  0  0  0  0  0  0  0  0  0  0
  141.0115   71.8957  223.6175 H   0  0  0  0  0  0  0  0  0  0  0  0
  139.9082   68.8212  225.1287 H   0  0  0  0  0  0  0  0  0  0  0  0
  140.1749   68.2680  227.5044 H   0  0  0  0  0  0  0  0  0  0  0  0
  140.9313   70.0288  229.1138 H   0  0  0  0  0  0  0  0  0  0  0  0
  141.3989   72.3185  228.2629 H   0  0  0  0  0  0  0  0  0  0  0  0
  141.1267   72.8693  225.8603 H   0  0  0  0  0  0  0  0  0  0  0  0
  141.8587   76.5845  222.2493 H   0  0  0  0  0  0  0  0  0  0  0  0
  142.5817   78.6150  223.4641 H   0  0  0  0  0  0  0  0  0  0  0  0
  140.8480   80.2248  224.2601 H   0  0  0  0  0  0  0  0  0  0  0  0
  138.4553   79.7984  223.8451 H   0  0  0  0  0  0  0  0  0  0  0  0
  1  2  1  0
  2  3  1  0
  3  4  2  0
  4  5  1  0
  5  6  1  0
  6  7  2  0
  7  8  1  0
  8  9  2  0
  9 10  1  0
 10 11  2  0
 11 12  1  0
 12 13  1  0
 13 14  1  0
 14 15  2  0
 14 16  2  0
 14 17  1  0
 17 18  1  0
 18 19  1  0
 19 20  2  0
 20 21  1  0
 21 22  2  0
 22 23  1  0
 23 24  2  0
  4 25  1  0
 25 26  2  0
 26 27  1  0
 27 28  2  0
 28 29  1  0
 29 30  2  0
 30  2  1  0
 13  5  1  0
 24 19  1  0
 30 25  1  0
 11  6  1  0
  1 31  1  0
  1 32  1  0
  1 33  1  0
  3 34  1  0
  5 35  1  6
  7 36  1  0
  8 37  1  0
  9 38  1  0
 10 39  1  0
 12 40  1  0
 12 41  1  0
 17 42  1  0
 17 43  1  0
 18 44  1  0
 18 45  1  0
 20 46  1  0
 21 47  1  0
 22 48  1  0
 23 49  1  0
 24 50  1  0
 26 51  1  0
 27 52  1  0
 28 53  1  0
 29 54  1  0
M  END
>  <smiles>  (39) 
Cn1cc(C2c3ccccc3CN2S(=O)(=O)CCc2ccccc2)c2ccccc21

>  <score_type>  (39) 
oracle

>  <origin>  (39) 
autodockgpu

>  <m_score__min__energy>  (39) 
-9.0600000000000005

>  <m_primary>  (39) 
energy

>  <meeko>  (39) 
{"free_energy": -8.96, "intermolecular_energy": -10.45, "internal_energy": -1.52, "cluster_size": 10, "cluster_id": 1, "rank_in_cluster": 4}

>  <energy>  (39) 
-7.22

>  <cluster_rmsd>  (39) 
0.0

>  <rmsd>  (39) 
270.76

>  <cluster>  (39) 
3

$$$$

     RDKit          3D

 54 58  0  0  1  0  0  0  0  0999 V2000
  138.3760   80.1820  224.2350 C   0  0  0  0  0  0  0  0  0  0  0  0
  139.3050   79.6170  223.2810 N   0  0  0  0  0  0  0  0  0  0  0  0
  139.0520   78.7410  222.2800 C   0  0  0  0  0  0  0  0  0  0  0  0
  140.2150   78.4560  221.5960 C   0  0  0  0  0  0  0  0  0  0  0  0
  140.4460   77.5700  220.4320 C   0  0  1  0  0  0  0  0  0  0  0  0
  141.1000   78.2870  219.3100 C   0  0  0  0  0  0  0  0  0  0  0  0
  140.7500   79.5230  218.7740 C   0  0  0  0  0  0  0  0  0  0  0  0
  141.5250   79.9870  217.7160 C   0  0  0  0  0  0  0  0  0  0  0  0
  142.5900   79.2510  217.2280 C   0  0  0  0  0  0  0  0  0  0  0  0
  142.9330   78.0200  217.7670 C   0  0  0  0  0  0  0  0  0  0  0  0
  142.1630   77.5640  218.8140 C   0  0  0  0  0  0  0  0  0  0  0  0
  142.2440   76.3080  219.6150 C   0  0  0  0  0  0  0  0  0  0  0  0
  141.3310   76.4840  220.7150 N   0  0  0  0  0  0  0  0  0  0  0  0
  140.4650   74.9720  220.8860 S   0  0  0  0  0  0  0  0  0  0  0  0
  139.0150   75.2170  220.4920 O   0  0  0  0  0  0  0  0  0  0  0  0
  140.5030   74.5930  222.3300 O   0  0  0  0  0  0  0  0  0  0  0  0
  141.1980   73.7060  219.9290 C   0  0  0  0  0  0  0  0  0  0  0  0
  142.0780   72.8330  220.7510 C   0  0  0  0  0  0  0  0  0  0  0  0
  143.5170   72.9830  220.5490 C   0  0  0  0  0  0  0  0  0  0  0  0
  144.2120   71.8910  220.0240 C   0  0  0  0  0  0  0  0  0  0  0  0
  145.5630   71.9190  219.7870 C   0  0  0  0  0  0  0  0  0  0  0  0
  146.2850   73.0680  220.0730 C   0  0  0  0  0  0  0  0  0  0  0  0
  145.6100   74.1620  220.5940 C   0  0  0  0  0  0  0  0  0  0  0  0
  144.2390   74.1250  220.8320 C   0  0  0  0  0  0  0  0  0  0  0  0
  141.2060   79.2040  222.2290 C   0  0  0  0  0  0  0  0  0  0  0  0
  142.5620   79.3570  222.0290 C   0  0  0  0  0  0  0  0  0  0  0  0
  143.3420   80.1800  222.8140 C   0  0  0  0  0  0  0  0  0  0  0  0
  142.7230   80.8760  223.8460 C   0  0  0  0  0  0  0  0  0  0  0  0
  141.3810   80.7520  224.0780 C   0  0  0  0  0  0  0  0  0  0  0  0
  140.6240   79.9090  223.2610 C   0  0  0  0  0  0  0  0  0  0  0  0
  138.7249   79.9698  225.2564 H   0  0  0  0  0  0  0  0  0  0  0  0
  138.3150   81.2703  224.0870 H   0  0  0  0  0  0  0  0  0  0  0  0
  137.3816   79.7356  224.0870 H   0  0  0  0  0  0  0  0  0  0  0  0
  138.0635   78.3185  222.0466 H   0  0  0  0  0  0  0  0  0  0  0  0
  139.4376   77.2112  220.1781 H   0  0  0  0  0  0  0  0  0  0  0  0
  139.9028   80.1039  219.1674 H   0  0  0  0  0  0  0  0  0  0  0  0
  141.2863   80.9584  217.2583 H   0  0  0  0  0  0  0  0  0  0  0  0
  143.1799   79.6525  216.3909 H   0  0  0  0  0  0  0  0  0  0  0  0
  143.7795   77.4358  217.3770 H   0  0  0  0  0  0  0  0  0  0  0  0
  141.9449   75.4439  219.0036 H   0  0  0  0  0  0  0  0  0  0  0  0
  143.2688   76.1174  219.9663 H   0  0  0  0  0  0  0  0  0  0  0  0
  140.4027   73.0910  219.4826 H   0  0  0  0  0  0  0  0  0  0  0  0
  141.8152   74.1788  219.1508 H   0  0  0  0  0  0  0  0  0  0  0  0
  141.8651   73.0453  221.8091 H   0  0  0  0  0  0  0  0  0  0  0  0
  141.8453   71.8052  220.4355 H   0  0  0  0  0  0  0  0  0  0  0  0
  143.6539   70.9721  219.7914 H   0  0  0  0  0  0  0  0  0  0  0  0
  146.0705   71.0354  219.3726 H   0  0  0  0  0  0  0  0  0  0  0  0
  147.3689   73.1108  219.8907 H   0  0  0  0  0  0  0  0  0  0  0  0
  146.1709   75.0798  220.8243 H   0  0  0  0  0  0  0  0  0  0  0  0
  143.7299   75.0076  221.2465 H   0  0  0  0  0  0  0  0  0  0  0  0
  143.0408   78.8000  221.2102 H   0  0  0  0  0  0  0  0  0  0  0  0
  144.4215   80.2826  222.6291 H   0  0  0  0  0  0  0  0  0  0  0  0
  143.3233   81.5381  224.4873 H   0  0  0  0  0  0  0  0  0  0  0  0
  140.9037   81.3091  224.8977 H   0  0  0  0  0  0  0  0  0  0  0  0
  1  2  1  0
  2  3  1  0
  3  4  2  0
  4  5  1  0
  5  6  1  0
  6  7  2  0
  7  8  1  0
  8  9  2  0
  9 10  1  0
 10 11  2  0
 11 12  1  0
 12 13  1  0
 13 14  1  0
 14 15  2  0
 14 16  2  0
 14 17  1  0
 17 18  1  0
 18 19  1  0
 19 20  2  0
 20 21  1  0
 21 22  2  0
 22 23  1  0
 23 24  2  0
  4 25  1  0
 25 26  2  0
 26 27  1  0
 27 28  2  0
 28 29  1  0
 29 30  2  0
 30  2  1  0
 13  5  1  0
 24 19  1  0
 30 25  1  0
 11  6  1  0
  1 31  1  0
  1 32  1  0
  1 33  1  0
  3 34  1  0
  5 35  1  6
  7 36  1  0
  8 37  1  0
  9 38  1  0
 10 39  1  0
 12 40  1  0
 12 41  1  0
 17 42  1  0
 17 43  1  0
 18 44  1  0
 18 45  1  0
 20 46  1  0
 21 47  1  0
 22 48  1  0
 23 49  1  0
 24 50  1  0
 26 51  1  0
 27 52  1  0
 28 53  1  0
 29 54  1  0
M  END
>  <smiles>  (40) 
Cn1cc(C2c3ccccc3CN2S(=O)(=O)CCc2ccccc2)c2ccccc21

>  <score_type>  (40) 
oracle

>  <origin>  (40) 
autodockgpu

>  <m_score__min__energy>  (40) 
-9.0600000000000005

>  <m_primary>  (40) 
energy

>  <meeko>  (40) 
{"free_energy": -8.01, "intermolecular_energy": -9.5, "internal_energy": -1.94, "cluster_size": 8, "cluster_id": 2, "rank_in_cluster": 1}

>  <energy>  (40) 
-7.2

>  <cluster_rmsd>  (40) 
0.08

>  <rmsd>  (40) 
270.74

>  <cluster>  (40) 
3

$$$$
