CHYZURNRBYISSB-FYWRMAATNA-N
     RDKit          3D

 58 61  0  0  0  0  0  0  0  0999 V2000
  141.7791   72.0517  221.4447 H   0  0  0  0  0  0  0  0  0  0  0  0
  140.7500   72.3030  221.7410 C   0  0  0  0  0  0  0  0  0  0  0  0
  139.9060   71.3200  222.0800 C   0  0  0  0  0  0  0  0  0  0  0  0
  139.2237   70.9122  221.3196 H   0  0  0  0  0  0  0  0  0  0  0  0
  139.8690   70.7660  223.4610 C   0  0  0  0  0  0  0  0  0  0  0  0
  140.4080   71.5350  224.4490 N   0  0  0  0  0  0  0  0  0  0  0  0
  140.5140   71.1050  225.7210 C   0  0  0  0  0  0  0  0  0  0  0  0
  141.0480   71.9470  226.7030 C   0  0  0  0  0  0  0  0  0  0  0  0
  141.3668   72.9664  226.4399 H   0  0  0  0  0  0  0  0  0  0  0  0
  141.1760   71.4920  228.0180 C   0  0  0  0  0  0  0  0  0  0  0  0
  141.5928   72.1557  228.7899 H   0  0  0  0  0  0  0  0  0  0  0  0
  140.7750   70.1930  228.3560 C   0  0  0  0  0  0  0  0  0  0  0  0
  140.8737   69.8385  229.3926 H   0  0  0  0  0  0  0  0  0  0  0  0
  140.2500   69.3490  227.3760 C   0  0  0  0  0  0  0  0  0  0  0  0
  139.9468   68.3251  227.6400 H   0  0  0  0  0  0  0  0  0  0  0  0
  140.1070   69.8030  226.0510 C   0  0  0  0  0  0  0  0  0  0  0  0
  139.5520   69.0060  225.0410 C   0  0  0  0  0  0  0  0  0  0  0  0
  139.1980   67.8230  225.3150 O   0  0  0  0  0  0  0  0  0  0  0  0
  139.3870   69.5020  223.7660 N   0  0  0  0  0  0  0  0  0  0  0  0
  138.6590   68.6580  222.7850 C   0  0  0  0  0  0  0  0  0  0  0  0
  138.8121   69.0720  221.7775 H   0  0  0  0  0  0  0  0  0  0  0  0
  139.0539   67.6340  222.8582 H   0  0  0  0  0  0  0  0  0  0  0  0
  137.1310   68.6070  223.0810 C   0  0  0  0  0  0  0  0  0  0  0  0
  136.9274   67.6039  223.4838 H   0  0  0  0  0  0  0  0  0  0  0  0
  136.2970   68.7850  221.7810 C   0  0  0  0  0  0  0  0  0  0  0  0
  136.9561   68.5938  220.9214 H   0  0  0  0  0  0  0  0  0  0  0  0
  135.4593   68.0753  221.8478 H   0  0  0  0  0  0  0  0  0  0  0  0
  135.6730   70.1830  221.6070 C   0  0  0  0  0  0  0  0  0  0  0  0
  135.5420   70.3820  220.5331 H   0  0  0  0  0  0  0  0  0  0  0  0
  134.7078   70.1917  222.1346 H   0  0  0  0  0  0  0  0  0  0  0  0
  136.5480   71.2800  222.2080 C   0  0  0  0  0  0  0  0  0  0  0  0
  137.5263   71.2686  221.7053 H   0  0  0  0  0  0  0  0  0  0  0  0
  136.0345   72.2415  222.0605 H   0  0  0  0  0  0  0  0  0  0  0  0
  136.7650   71.0850  223.7230 C   0  0  0  0  0  0  0  0  0  0  0  0
  137.7575   71.4801  223.9853 H   0  0  0  0  0  0  0  0  0  0  0  0
  135.9515   71.6193  224.2355 H   0  0  0  0  0  0  0  0  0  0  0  0
  136.6920   69.6110  224.1760 C   0  0  0  0  0  0  0  0  0  0  0  0
  137.3476   69.4822  225.0499 H   0  0  0  0  0  0  0  0  0  0  0  0
  135.6390   69.3956  224.4099 H   0  0  0  0  0  0  0  0  0  0  0  0
  140.3290   73.7090  221.7570 C   0  0  0  0  0  0  0  0  0  0  0  0
  141.2540   74.7420  221.5620 C   0  0  0  0  0  0  0  0  0  0  0  0
  142.3145   74.5054  221.3906 H   0  0  0  0  0  0  0  0  0  0  0  0
  140.8310   76.0710  221.5850 C   0  0  0  0  0  0  0  0  0  0  0  0
  141.5559   76.8780  221.4024 H   0  0  0  0  0  0  0  0  0  0  0  0
  139.4790   76.3880  221.8410 C   0  0  0  0  0  0  0  0  0  0  0  0
  139.0220   77.7150  221.9030 O   0  0  0  0  0  0  0  0  0  0  0  0
  139.1670   78.5570  223.0420 C   0  0  0  0  0  0  0  0  0  0  0  0
  139.0635   77.9562  223.9576 H   0  0  0  0  0  0  0  0  0  0  0  0
  140.1599   79.0302  223.0242 H   0  0  0  0  0  0  0  0  0  0  0  0
  138.3896   79.3351  223.0242 H   0  0  0  0  0  0  0  0  0  0  0  0
  138.5530   75.3550  222.0540 C   0  0  0  0  0  0  0  0  0  0  0  0
  137.2300   75.7040  222.3600 O   0  0  0  0  0  0  0  0  0  0  0  0
  136.2300   74.7760  222.7840 C   0  0  0  0  0  0  0  0  0  0  0  0
  136.1990   74.7472  223.8832 H   0  0  0  0  0  0  0  0  0  0  0  0
  135.2496   75.0915  222.3976 H   0  0  0  0  0  0  0  0  0  0  0  0
  136.4715   73.7748  222.3976 H   0  0  0  0  0  0  0  0  0  0  0  0
  138.9740   74.0150  221.9780 C   0  0  0  0  0  0  0  0  0  0  0  0
  138.2406   73.2031  222.0918 H   0  0  0  0  0  0  0  0  0  0  0  0
  1  2  1  0
  2  3  2  0
  3  4  1  0
  3  5  1  0
  5  6  2  0
  6  7  1  0
  7  8  2  0
  8  9  1  0
  8 10  1  0
 10 11  1  0
 10 12  2  0
 12 13  1  0
 12 14  1  0
 14 15  1  0
 14 16  2  0
 16 17  1  0
 17 18  2  0
 17 19  1  0
 19 20  1  0
 20 21  1  0
 20 22  1  0
 20 23  1  0
 23 24  1  0
 23 25  1  0
 25 26  1  0
 25 27  1  0
 25 28  1  0
 28 29  1  0
 28 30  1  0
 28 31  1  0
 31 32  1  0
 31 33  1  0
 31 34  1  0
 34 35  1  0
 34 36  1  0
 34 37  1  0
 37 38  1  0
 37 39  1  0
  2 40  1  0
 40 41  2  0
 41 42  1  0
 41 43  1  0
 43 44  1  0
 43 45  2  0
 45 46  1  0
 46 47  1  0
 47 48  1  0
 47 49  1  0
 47 50  1  0
 45 51  1  0
 51 52  1  0
 52 53  1  0
 53 54  1  0
 53 55  1  0
 53 56  1  0
 51 57  2  0
 57 58  1  0
 19  5  1  0
 37 23  1  0
 57 40  1  0
 16  7  1  0
M  END
>  <UniqueID>  (1) 
65

>  <SMILES>  (1) 
COc1ccc(/C=C/c2nc3ccccc3c(=O)n2CC2CCCCC2)cc1OC

>  <Energy>  (1) 
74.25401405626954

>  <Genealogy>  (1) 
COc1ccc(/C=C/c2nc3ccccc3c(=O)n2CC2CCCCC2)cc1OC (cis-trans isomerization)
COc1ccc(/C=C/c2nc3ccccc3c(=O)n2CC2CCCCC2)cc1OC (3D coordinates assigned)
COc1ccc(/C=C/c2nc3ccccc3c(=O)n2CC2CCCCC2)cc1OC (nonaromatic ring conformer: 74.25401405626954 kcal/mol)

>  <smiles>  (1) 
COc1ccc(/C=C/c2nc3ccccc3c(=O)n2CC2CCCCC2)cc1OC

>  <score_type>  (1) 
oracle

>  <origin>  (1) 
autodockgpu

>  <m_score__min__energy>  (1) 
-7.5199999999999996

>  <m_primary>  (1) 
energy

>  <meeko>  (1) 
{"free_energy": -6.86, "intermolecular_energy": -8.95, "internal_energy": -2.04, "cluster_size": 5, "cluster_id": 3, "rank_in_cluster": 5}

>  <energy>  (1) 
-7.52

>  <cluster_rmsd>  (1) 
0.0

>  <rmsd>  (1) 
269.58

>  <cluster>  (1) 
1

$$$$
CHYZURNRBYISSB-FYWRMAATNA-N
     RDKit          3D

 58 61  0  0  0  0  0  0  0  0999 V2000
  139.0741   72.0463  220.5770 H   0  0  0  0  0  0  0  0  0  0  0  0
  139.7640   72.4030  221.3560 C   0  0  0  0  0  0  0  0  0  0  0  0
  140.5260   71.5200  222.0120 C   0  0  0  0  0  0  0  0  0  0  0  0
  141.4426   71.1427  221.5351 H   0  0  0  0  0  0  0  0  0  0  0  0
  140.1620   71.0360  223.3730 C   0  0  0  0  0  0  0  0  0  0  0  0
  140.7630   71.6540  224.4280 N   0  0  0  0  0  0  0  0  0  0  0  0
  140.5830   71.2470  225.6990 C   0  0  0  0  0  0  0  0  0  0  0  0
  141.2010   71.9360  226.7500 C   0  0  0  0  0  0  0  0  0  0  0  0
  141.8205   72.8201  226.5388 H   0  0  0  0  0  0  0  0  0  0  0  0
  141.0310   71.5010  228.0660 C   0  0  0  0  0  0  0  0  0  0  0  0
  141.5153   72.0445  228.8907 H   0  0  0  0  0  0  0  0  0  0  0  0
  140.2450   70.3740  228.3380 C   0  0  0  0  0  0  0  0  0  0  0  0
  140.1085   70.0360  229.3758 H   0  0  0  0  0  0  0  0  0  0  0  0
  139.6350   69.6800  227.2920 C   0  0  0  0  0  0  0  0  0  0  0  0
  139.0289   68.7874  227.5062 H   0  0  0  0  0  0  0  0  0  0  0  0
  139.7930   70.1190  225.9630 C   0  0  0  0  0  0  0  0  0  0  0  0
  139.1710   69.4780  224.8840 C   0  0  0  0  0  0  0  0  0  0  0  0
  138.4700   68.4470  225.1000 O   0  0  0  0  0  0  0  0  0  0  0  0
  139.3120   69.9640  223.6020 N   0  0  0  0  0  0  0  0  0  0  0  0
  138.5090   69.3270  222.5280 C   0  0  0  0  0  0  0  0  0  0  0  0
  139.1410   69.2062  221.6358 H   0  0  0  0  0  0  0  0  0  0  0  0
  138.1555   68.3536  222.8989 H   0  0  0  0  0  0  0  0  0  0  0  0
  137.2630   70.1800  222.1500 C   0  0  0  0  0  0  0  0  0  0  0  0
  137.4400   70.5490  221.1289 H   0  0  0  0  0  0  0  0  0  0  0  0
  137.1120   71.4100  223.0900 C   0  0  0  0  0  0  0  0  0  0  0  0
  138.0737   71.5739  223.5982 H   0  0  0  0  0  0  0  0  0  0  0  0
  136.8121   72.2551  222.4530 H   0  0  0  0  0  0  0  0  0  0  0  0
  136.0190   71.2630  224.1650 C   0  0  0  0  0  0  0  0  0  0  0  0
  136.2857   71.8883  225.0298 H   0  0  0  0  0  0  0  0  0  0  0  0
  135.0636   71.5807  223.7220 H   0  0  0  0  0  0  0  0  0  0  0  0
  135.8630   69.8180  224.6320 C   0  0  0  0  0  0  0  0  0  0  0  0
  136.8189   69.4774  225.0566 H   0  0  0  0  0  0  0  0  0  0  0  0
  135.0599   69.7896  225.3831 H   0  0  0  0  0  0  0  0  0  0  0  0
  135.4670   68.8740  223.4770 C   0  0  0  0  0  0  0  0  0  0  0  0
  135.8990   67.8820  223.6755 H   0  0  0  0  0  0  0  0  0  0  0  0
  134.3678   68.8532  223.4411 H   0  0  0  0  0  0  0  0  0  0  0  0
  135.9550   69.3500  222.0920 C   0  0  0  0  0  0  0  0  0  0  0  0
  136.1312   68.4657  221.4619 H   0  0  0  0  0  0  0  0  0  0  0  0
  135.1733   70.0056  221.6808 H   0  0  0  0  0  0  0  0  0  0  0  0
  139.8310   73.8390  221.6560 C   0  0  0  0  0  0  0  0  0  0  0  0
  141.0470   74.5320  221.6040 C   0  0  0  0  0  0  0  0  0  0  0  0
  141.9714   74.0010  221.3328 H   0  0  0  0  0  0  0  0  0  0  0  0
  141.0860   75.8950  221.8960 C   0  0  0  0  0  0  0  0  0  0  0  0
  142.0383   76.4411  221.8260 H   0  0  0  0  0  0  0  0  0  0  0  0
  139.9120   76.5800  222.2810 C   0  0  0  0  0  0  0  0  0  0  0  0
  139.9180   77.9440  222.6120 O   0  0  0  0  0  0  0  0  0  0  0  0
  141.0680   78.6500  223.0700 C   0  0  0  0  0  0  0  0  0  0  0  0
  141.0798   78.6573  224.1699 H   0  0  0  0  0  0  0  0  0  0  0  0
  141.9758   78.1534  222.6968 H   0  0  0  0  0  0  0  0  0  0  0  0
  141.0360   79.6843  222.6968 H   0  0  0  0  0  0  0  0  0  0  0  0
  138.6950   75.8840  222.3500 C   0  0  0  0  0  0  0  0  0  0  0  0
  137.5590   76.5780  222.7880 O   0  0  0  0  0  0  0  0  0  0  0  0
  136.3480   75.9530  223.2170 C   0  0  0  0  0  0  0  0  0  0  0  0
  136.3139   75.9354  224.3163 H   0  0  0  0  0  0  0  0  0  0  0  0
  135.4869   76.5193  222.8325 H   0  0  0  0  0  0  0  0  0  0  0  0
  136.3108   74.9231  222.8325 H   0  0  0  0  0  0  0  0  0  0  0  0
  138.6510   74.5210  222.0030 C   0  0  0  0  0  0  0  0  0  0  0  0
  137.6895   73.9866  222.0032 H   0  0  0  0  0  0  0  0  0  0  0  0
  1  2  1  0
  2  3  2  0
  3  4  1  0
  3  5  1  0
  5  6  2  0
  6  7  1  0
  7  8  2  0
  8  9  1  0
  8 10  1  0
 10 11  1  0
 10 12  2  0
 12 13  1  0
 12 14  1  0
 14 15  1  0
 14 16  2  0
 16 17  1  0
 17 18  2  0
 17 19  1  0
 19 20  1  0
 20 21  1  0
 20 22  1  0
 20 23  1  0
 23 24  1  0
 23 25  1  0
 25 26  1  0
 25 27  1  0
 25 28  1  0
 28 29  1  0
 28 30  1  0
 28 31  1  0
 31 32  1  0
 31 33  1  0
 31 34  1  0
 34 35  1  0
 34 36  1  0
 34 37  1  0
 37 38  1  0
 37 39  1  0
  2 40  1  0
 40 41  2  0
 41 42  1  0
 41 43  1  0
 43 44  1  0
 43 45  2  0
 45 46  1  0
 46 47  1  0
 47 48  1  0
 47 49  1  0
 47 50  1  0
 45 51  1  0
 51 52  1  0
 52 53  1  0
 53 54  1  0
 53 55  1  0
 53 56  1  0
 51 57  2  0
 57 58  1  0
 19  5  1  0
 37 23  1  0
 57 40  1  0
 16  7  1  0
M  END
>  <UniqueID>  (2) 
65

>  <SMILES>  (2) 
COc1ccc(/C=C/c2nc3ccccc3c(=O)n2CC2CCCCC2)cc1OC

>  <Energy>  (2) 
74.25401405626954

>  <Genealogy>  (2) 
COc1ccc(/C=C/c2nc3ccccc3c(=O)n2CC2CCCCC2)cc1OC (cis-trans isomerization)
COc1ccc(/C=C/c2nc3ccccc3c(=O)n2CC2CCCCC2)cc1OC (3D coordinates assigned)
COc1ccc(/C=C/c2nc3ccccc3c(=O)n2CC2CCCCC2)cc1OC (nonaromatic ring conformer: 74.25401405626954 kcal/mol)

>  <smiles>  (2) 
COc1ccc(/C=C/c2nc3ccccc3c(=O)n2CC2CCCCC2)cc1OC

>  <score_type>  (2) 
oracle

>  <origin>  (2) 
autodockgpu

>  <m_score__min__energy>  (2) 
-7.5199999999999996

>  <m_primary>  (2) 
energy

>  <meeko>  (2) 
{"free_energy": -6.92, "intermolecular_energy": -9.01, "internal_energy": -2.09, "cluster_size": 5, "cluster_id": 3, "rank_in_cluster": 4}

>  <energy>  (2) 
-7.46

>  <cluster_rmsd>  (2) 
0.29

>  <rmsd>  (2) 
269.56

>  <cluster>  (2) 
1

$$$$
CHYZURNRBYISSB-FYWRMAATNA-N
     RDKit          3D

 58 61  0  0  0  0  0  0  0  0999 V2000
  136.4548   71.3590  221.7250 H   0  0  0  0  0  0  0  0  0  0  0  0
  136.8680   71.6400  222.7050 C   0  0  0  0  0  0  0  0  0  0  0  0
  138.1750   71.4680  222.9400 C   0  0  0  0  0  0  0  0  0  0  0  0
  138.9069   71.8767  222.2278 H   0  0  0  0  0  0  0  0  0  0  0  0
  138.6610   70.7370  224.1420 C   0  0  0  0  0  0  0  0  0  0  0  0
  139.3680   71.4560  225.0580 N   0  0  0  0  0  0  0  0  0  0  0  0
  139.9340   70.8880  226.1400 C   0  0  0  0  0  0  0  0  0  0  0  0
  140.6240   71.6780  227.0670 C   0  0  0  0  0  0  0  0  0  0  0  0
  140.6900   72.7663  226.9210 H   0  0  0  0  0  0  0  0  0  0  0  0
  141.2290   71.0840  228.1780 C   0  0  0  0  0  0  0  0  0  0  0  0
  141.7685   71.7063  228.9072 H   0  0  0  0  0  0  0  0  0  0  0  0
  141.1500   69.6990  228.3650 C   0  0  0  0  0  0  0  0  0  0  0  0
  141.6228   69.2346  229.2430 H   0  0  0  0  0  0  0  0  0  0  0  0
  140.4710   68.9070  227.4370 C   0  0  0  0  0  0  0  0  0  0  0  0
  140.4218   67.8172  227.5781 H   0  0  0  0  0  0  0  0  0  0  0  0
  139.8490   69.4990  226.3210 C   0  0  0  0  0  0  0  0  0  0  0  0
  139.1240   68.7520  225.3830 C   0  0  0  0  0  0  0  0  0  0  0  0
  139.0520   67.4960  225.5190 O   0  0  0  0  0  0  0  0  0  0  0  0
  138.4900   69.3730  224.3280 N   0  0  0  0  0  0  0  0  0  0  0  0
  137.6200   68.5420  223.4590 C   0  0  0  0  0  0  0  0  0  0  0  0
  137.0070   67.8855  224.0940 H   0  0  0  0  0  0  0  0  0  0  0  0
  136.9909   69.2183  222.8617 H   0  0  0  0  0  0  0  0  0  0  0  0
  138.4470   67.6620  222.4770 C   0  0  0  0  0  0  0  0  0  0  0  0
  139.0821   67.0158  223.1007 H   0  0  0  0  0  0  0  0  0  0  0  0
  139.3730   68.5320  221.5810 C   0  0  0  0  0  0  0  0  0  0  0  0
  139.4693   69.5234  222.0477 H   0  0  0  0  0  0  0  0  0  0  0  0
  140.3302   67.9949  221.5077 H   0  0  0  0  0  0  0  0  0  0  0  0
  138.8700   68.7270  220.1380 C   0  0  0  0  0  0  0  0  0  0  0  0
  139.2654   69.6772  219.7497 H   0  0  0  0  0  0  0  0  0  0  0  0
  139.2212   67.8744  219.5382 H   0  0  0  0  0  0  0  0  0  0  0  0
  137.3460   68.7600  220.0620 C   0  0  0  0  0  0  0  0  0  0  0  0
  136.9784   69.5956  220.6758 H   0  0  0  0  0  0  0  0  0  0  0  0
  137.0624   68.8846  219.0065 H   0  0  0  0  0  0  0  0  0  0  0  0
  136.7100   67.4500  220.5730 C   0  0  0  0  0  0  0  0  0  0  0  0
  135.7358   67.6898  221.0241 H   0  0  0  0  0  0  0  0  0  0  0  0
  136.6175   66.7783  219.7068 H   0  0  0  0  0  0  0  0  0  0  0  0
  137.5660   66.7140  221.6250 C   0  0  0  0  0  0  0  0  0  0  0  0
  136.8927   66.1645  222.2993 H   0  0  0  0  0  0  0  0  0  0  0  0
  138.2460   66.0443  221.0781 H   0  0  0  0  0  0  0  0  0  0  0  0
  135.9760   72.1960  223.7290 C   0  0  0  0  0  0  0  0  0  0  0  0
  135.7960   73.5800  223.8560 C   0  0  0  0  0  0  0  0  0  0  0  0
  136.3257   74.2679  223.1806 H   0  0  0  0  0  0  0  0  0  0  0  0
  134.9450   74.0850  224.8390 C   0  0  0  0  0  0  0  0  0  0  0  0
  134.7837   75.1704  224.9160 H   0  0  0  0  0  0  0  0  0  0  0  0
  134.2890   73.2140  225.7360 C   0  0  0  0  0  0  0  0  0  0  0  0
  133.4510   73.6880  226.7580 O   0  0  0  0  0  0  0  0  0  0  0  0
  132.0590   73.3990  226.8480 C   0  0  0  0  0  0  0  0  0  0  0  0
  131.7649   73.3379  227.9062 H   0  0  0  0  0  0  0  0  0  0  0  0
  131.4861   74.1973  226.3537 H   0  0  0  0  0  0  0  0  0  0  0  0
  131.8512   72.4386  226.3537 H   0  0  0  0  0  0  0  0  0  0  0  0
  134.4820   71.8280  225.6240 C   0  0  0  0  0  0  0  0  0  0  0  0
  133.8610   70.9940  226.5630 O   0  0  0  0  0  0  0  0  0  0  0  0
  134.3120   70.8190  227.9070 C   0  0  0  0  0  0  0  0  0  0  0  0
  133.5180   71.1271  228.6032 H   0  0  0  0  0  0  0  0  0  0  0  0
  134.5577   69.7603  228.0764 H   0  0  0  0  0  0  0  0  0  0  0  0
  135.2075   71.4349  228.0764 H   0  0  0  0  0  0  0  0  0  0  0  0
  135.2990   71.3210  224.5970 C   0  0  0  0  0  0  0  0  0  0  0  0
  135.4089   70.2336  224.4723 H   0  0  0  0  0  0  0  0  0  0  0  0
  1  2  1  0
  2  3  2  0
  3  4  1  0
  3  5  1  0
  5  6  2  0
  6  7  1  0
  7  8  2  0
  8  9  1  0
  8 10  1  0
 10 11  1  0
 10 12  2  0
 12 13  1  0
 12 14  1  0
 14 15  1  0
 14 16  2  0
 16 17  1  0
 17 18  2  0
 17 19  1  0
 19 20  1  0
 20 21  1  0
 20 22  1  0
 20 23  1  0
 23 24  1  0
 23 25  1  0
 25 26  1  0
 25 27  1  0
 25 28  1  0
 28 29  1  0
 28 30  1  0
 28 31  1  0
 31 32  1  0
 31 33  1  0
 31 34  1  0
 34 35  1  0
 34 36  1  0
 34 37  1  0
 37 38  1  0
 37 39  1  0
  2 40  1  0
 40 41  2  0
 41 42  1  0
 41 43  1  0
 43 44  1  0
 43 45  2  0
 45 46  1  0
 46 47  1  0
 47 48  1  0
 47 49  1  0
 47 50  1  0
 45 51  1  0
 51 52  1  0
 52 53  1  0
 53 54  1  0
 53 55  1  0
 53 56  1  0
 51 57  2  0
 57 58  1  0
 19  5  1  0
 37 23  1  0
 57 40  1  0
 16  7  1  0
M  END
>  <UniqueID>  (3) 
65

>  <SMILES>  (3) 
COc1ccc(/C=C/c2nc3ccccc3c(=O)n2CC2CCCCC2)cc1OC

>  <Energy>  (3) 
74.25401405626954

>  <Genealogy>  (3) 
COc1ccc(/C=C/c2nc3ccccc3c(=O)n2CC2CCCCC2)cc1OC (cis-trans isomerization)
COc1ccc(/C=C/c2nc3ccccc3c(=O)n2CC2CCCCC2)cc1OC (3D coordinates assigned)
COc1ccc(/C=C/c2nc3ccccc3c(=O)n2CC2CCCCC2)cc1OC (nonaromatic ring conformer: 74.25401405626954 kcal/mol)

>  <smiles>  (3) 
COc1ccc(/C=C/c2nc3ccccc3c(=O)n2CC2CCCCC2)cc1OC

>  <score_type>  (3) 
oracle

>  <origin>  (3) 
autodockgpu

>  <m_score__min__energy>  (3) 
-7.5199999999999996

>  <m_primary>  (3) 
energy

>  <meeko>  (3) 
{"free_energy": -6.93, "intermolecular_energy": -9.02, "internal_energy": -1.99, "cluster_size": 3, "cluster_id": 5, "rank_in_cluster": 3}

>  <energy>  (3) 
-7.38

>  <cluster_rmsd>  (3) 
0.59

>  <rmsd>  (3) 
269.52

>  <cluster>  (3) 
1

$$$$
CHYZURNRBYISSB-FYWRMAATNA-N
     RDKit          3D

 58 61  0  0  0  0  0  0  0  0999 V2000
  134.6135   68.3606  224.1597 H   0  0  0  0  0  0  0  0  0  0  0  0
  135.2750   69.2390  224.1870 C   0  0  0  0  0  0  0  0  0  0  0  0
  136.4580   69.1890  223.5640 C   0  0  0  0  0  0  0  0  0  0  0  0
  136.4890   68.9584  222.4889 H   0  0  0  0  0  0  0  0  0  0  0  0
  137.7340   69.4380  224.2910 C   0  0  0  0  0  0  0  0  0  0  0  0
  138.1300   68.4890  225.1850 N   0  0  0  0  0  0  0  0  0  0  0  0
  139.2160   68.6430  225.9660 C   0  0  0  0  0  0  0  0  0  0  0  0
  139.5960   67.6230  226.8460 C   0  0  0  0  0  0  0  0  0  0  0  0
  139.0172   66.6886  226.8885 H   0  0  0  0  0  0  0  0  0  0  0  0
  140.7120   67.7930  227.6710 C   0  0  0  0  0  0  0  0  0  0  0  0
  141.0120   66.9900  228.3604 H   0  0  0  0  0  0  0  0  0  0  0  0
  141.4490   68.9830  227.6220 C   0  0  0  0  0  0  0  0  0  0  0  0
  142.3290   69.1124  228.2692 H   0  0  0  0  0  0  0  0  0  0  0  0
  141.0660   70.0050  226.7510 C   0  0  0  0  0  0  0  0  0  0  0  0
  141.6379   70.9442  226.7226 H   0  0  0  0  0  0  0  0  0  0  0  0
  139.9500   69.8370  225.9090 C   0  0  0  0  0  0  0  0  0  0  0  0
  139.5490   70.8180  224.9920 C   0  0  0  0  0  0  0  0  0  0  0  0
  140.1870   71.9100  224.9400 O   0  0  0  0  0  0  0  0  0  0  0  0
  138.4790   70.6000  224.1520 N   0  0  0  0  0  0  0  0  0  0  0  0
  138.2010   71.6160  223.1070 C   0  0  0  0  0  0  0  0  0  0  0  0
  137.1149   71.6653  222.9396 H   0  0  0  0  0  0  0  0  0  0  0  0
  138.5937   72.5814  223.4588 H   0  0  0  0  0  0  0  0  0  0  0  0
  138.9020   71.2740  221.7600 C   0  0  0  0  0  0  0  0  0  0  0  0
  138.5137   70.2923  221.4509 H   0  0  0  0  0  0  0  0  0  0  0  0
  140.4420   71.1510  221.9380 C   0  0  0  0  0  0  0  0  0  0  0  0
  140.6545   71.0226  223.0096 H   0  0  0  0  0  0  0  0  0  0  0  0
  140.7588   70.2910  221.3297 H   0  0  0  0  0  0  0  0  0  0  0  0
  141.2440   72.3640  221.4310 C   0  0  0  0  0  0  0  0  0  0  0  0
  142.1841   72.4299  221.9984 H   0  0  0  0  0  0  0  0  0  0  0  0
  141.4350   72.2189  220.3575 H   0  0  0  0  0  0  0  0  0  0  0  0
  140.4750   73.6720  221.5990 C   0  0  0  0  0  0  0  0  0  0  0  0
  140.2568   73.8205  222.6669 H   0  0  0  0  0  0  0  0  0  0  0  0
  141.1001   74.4856  221.2023 H   0  0  0  0  0  0  0  0  0  0  0  0
  139.1450   73.6690  220.8150 C   0  0  0  0  0  0  0  0  0  0  0  0
  138.4175   74.2858  221.3630 H   0  0  0  0  0  0  0  0  0  0  0  0
  139.3619   74.0667  219.8126 H   0  0  0  0  0  0  0  0  0  0  0  0
  138.5420   72.2610  220.6210 C   0  0  0  0  0  0  0  0  0  0  0  0
  137.4470   72.3543  220.5739 H   0  0  0  0  0  0  0  0  0  0  0  0
  138.9654   71.8521  219.6917 H   0  0  0  0  0  0  0  0  0  0  0  0
  134.8430   70.4430  224.9060 C   0  0  0  0  0  0  0  0  0  0  0  0
  134.1350   70.3510  226.1110 C   0  0  0  0  0  0  0  0  0  0  0  0
  133.8958   69.3642  226.5340 H   0  0  0  0  0  0  0  0  0  0  0  0
  133.7330   71.5100  226.7750 C   0  0  0  0  0  0  0  0  0  0  0  0
  133.2032   71.4326  227.7359 H   0  0  0  0  0  0  0  0  0  0  0  0
  134.0010   72.7820  226.2230 C   0  0  0  0  0  0  0  0  0  0  0  0
  133.5830   73.9690  226.8460 O   0  0  0  0  0  0  0  0  0  0  0  0
  132.2430   74.2320  227.2490 C   0  0  0  0  0  0  0  0  0  0  0  0
  132.1860   74.2432  228.3475 H   0  0  0  0  0  0  0  0  0  0  0  0
  131.9269   75.2093  226.8554 H   0  0  0  0  0  0  0  0  0  0  0  0
  131.5809   73.4467  226.8554 H   0  0  0  0  0  0  0  0  0  0  0  0
  134.6940   72.8770  225.0060 C   0  0  0  0  0  0  0  0  0  0  0  0
  134.8960   74.1510  224.4570 O   0  0  0  0  0  0  0  0  0  0  0  0
  135.8050   74.4330  223.3920 C   0  0  0  0  0  0  0  0  0  0  0  0
  136.7769   74.7345  223.8097 H   0  0  0  0  0  0  0  0  0  0  0  0
  135.9352   73.5330  222.7731 H   0  0  0  0  0  0  0  0  0  0  0  0
  135.4029   75.2486  222.7731 H   0  0  0  0  0  0  0  0  0  0  0  0
  135.1440   71.7070  224.3680 C   0  0  0  0  0  0  0  0  0  0  0  0
  135.7347   71.7811  223.4430 H   0  0  0  0  0  0  0  0  0  0  0  0
  1  2  1  0
  2  3  2  0
  3  4  1  0
  3  5  1  0
  5  6  2  0
  6  7  1  0
  7  8  2  0
  8  9  1  0
  8 10  1  0
 10 11  1  0
 10 12  2  0
 12 13  1  0
 12 14  1  0
 14 15  1  0
 14 16  2  0
 16 17  1  0
 17 18  2  0
 17 19  1  0
 19 20  1  0
 20 21  1  0
 20 22  1  0
 20 23  1  0
 23 24  1  0
 23 25  1  0
 25 26  1  0
 25 27  1  0
 25 28  1  0
 28 29  1  0
 28 30  1  0
 28 31  1  0
 31 32  1  0
 31 33  1  0
 31 34  1  0
 34 35  1  0
 34 36  1  0
 34 37  1  0
 37 38  1  0
 37 39  1  0
  2 40  1  0
 40 41  2  0
 41 42  1  0
 41 43  1  0
 43 44  1  0
 43 45  2  0
 45 46  1  0
 46 47  1  0
 47 48  1  0
 47 49  1  0
 47 50  1  0
 45 51  1  0
 51 52  1  0
 52 53  1  0
 53 54  1  0
 53 55  1  0
 53 56  1  0
 51 57  2  0
 57 58  1  0
 19  5  1  0
 37 23  1  0
 57 40  1  0
 16  7  1  0
M  END
>  <UniqueID>  (4) 
65

>  <SMILES>  (4) 
COc1ccc(/C=C/c2nc3ccccc3c(=O)n2CC2CCCCC2)cc1OC

>  <Energy>  (4) 
74.25401405626954

>  <Genealogy>  (4) 
COc1ccc(/C=C/c2nc3ccccc3c(=O)n2CC2CCCCC2)cc1OC (cis-trans isomerization)
COc1ccc(/C=C/c2nc3ccccc3c(=O)n2CC2CCCCC2)cc1OC (3D coordinates assigned)
COc1ccc(/C=C/c2nc3ccccc3c(=O)n2CC2CCCCC2)cc1OC (nonaromatic ring conformer: 74.25401405626954 kcal/mol)

>  <smiles>  (4) 
COc1ccc(/C=C/c2nc3ccccc3c(=O)n2CC2CCCCC2)cc1OC

>  <score_type>  (4) 
oracle

>  <origin>  (4) 
autodockgpu

>  <m_score__min__energy>  (4) 
-7.5199999999999996

>  <m_primary>  (4) 
energy

>  <meeko>  (4) 
{"free_energy": -6.81, "intermolecular_energy": -8.9, "internal_energy": -1.97, "cluster_size": 1, "cluster_id": 6, "rank_in_cluster": 1}

>  <energy>  (4) 
-7.3

>  <cluster_rmsd>  (4) 
1.13

>  <rmsd>  (4) 
269.64

>  <cluster>  (4) 
1

$$$$
CHYZURNRBYISSB-FYWRMAATNA-N
     RDKit          3D

 58 61  0  0  0  0  0  0  0  0999 V2000
  137.9275   72.5342  221.8636 H   0  0  0  0  0  0  0  0  0  0  0  0
  139.0100   72.6630  222.0110 C   0  0  0  0  0  0  0  0  0  0  0  0
  139.7740   71.5870  222.2370 C   0  0  0  0  0  0  0  0  0  0  0  0
  140.4137   71.2030  221.4287 H   0  0  0  0  0  0  0  0  0  0  0  0
  139.7780   70.8980  223.5570 C   0  0  0  0  0  0  0  0  0  0  0  0
  140.3140   71.5810  224.6070 N   0  0  0  0  0  0  0  0  0  0  0  0
  140.4540   71.0300  225.8280 C   0  0  0  0  0  0  0  0  0  0  0  0
  140.9830   71.7860  226.8810 C   0  0  0  0  0  0  0  0  0  0  0  0
  141.2679   72.8355  226.7158 H   0  0  0  0  0  0  0  0  0  0  0  0
  141.1490   71.2070  228.1420 C   0  0  0  0  0  0  0  0  0  0  0  0
  141.5632   71.8023  228.9691 H   0  0  0  0  0  0  0  0  0  0  0  0
  140.7890   69.8700  228.3550 C   0  0  0  0  0  0  0  0  0  0  0  0
  140.9152   69.4178  229.3498 H   0  0  0  0  0  0  0  0  0  0  0  0
  140.2700   69.1120  227.3040 C   0  0  0  0  0  0  0  0  0  0  0  0
  140.0007   68.0583  227.4691 H   0  0  0  0  0  0  0  0  0  0  0  0
  140.0900   69.6910  226.0340 C   0  0  0  0  0  0  0  0  0  0  0  0
  139.5380   68.9820  224.9580 C   0  0  0  0  0  0  0  0  0  0  0  0
  139.2220   67.7670  225.1190 O   0  0  0  0  0  0  0  0  0  0  0  0
  139.3350   69.5970  223.7410 N   0  0  0  0  0  0  0  0  0  0  0  0
  138.6130   68.8330  222.6940 C   0  0  0  0  0  0  0  0  0  0  0  0
  138.6413   69.4042  221.7543 H   0  0  0  0  0  0  0  0  0  0  0  0
  139.1093   67.8578  222.5817 H   0  0  0  0  0  0  0  0  0  0  0  0
  137.1270   68.5750  223.0810 C   0  0  0  0  0  0  0  0  0  0  0  0
  137.0828   67.5477  223.4718 H   0  0  0  0  0  0  0  0  0  0  0  0
  136.1960   68.6610  221.8380 C   0  0  0  0  0  0  0  0  0  0  0  0
  136.8191   68.5735  220.9357 H   0  0  0  0  0  0  0  0  0  0  0  0
  135.4655   67.8447  221.9381 H   0  0  0  0  0  0  0  0  0  0  0  0
  135.3830   69.9650  221.7360 C   0  0  0  0  0  0  0  0  0  0  0  0
  135.1576   70.1608  220.6773 H   0  0  0  0  0  0  0  0  0  0  0  0
  134.4614   69.8368  222.3227 H   0  0  0  0  0  0  0  0  0  0  0  0
  136.1420   71.1600  222.3070 C   0  0  0  0  0  0  0  0  0  0  0  0
  137.0789   71.2867  221.7447 H   0  0  0  0  0  0  0  0  0  0  0  0
  135.4975   72.0466  222.2138 H   0  0  0  0  0  0  0  0  0  0  0  0
  136.4800   70.9730  223.8020 C   0  0  0  0  0  0  0  0  0  0  0  0
  137.4270   71.4920  224.0115 H   0  0  0  0  0  0  0  0  0  0  0  0
  135.6383   71.3876  224.3762 H   0  0  0  0  0  0  0  0  0  0  0  0
  136.6300   69.4960  224.2240 C   0  0  0  0  0  0  0  0  0  0  0  0
  137.3508   69.4421  225.0532 H   0  0  0  0  0  0  0  0  0  0  0  0
  135.6313   69.1395  224.5163 H   0  0  0  0  0  0  0  0  0  0  0  0
  139.5880   74.0110  221.9560 C   0  0  0  0  0  0  0  0  0  0  0  0
  140.9170   74.2110  221.5630 C   0  0  0  0  0  0  0  0  0  0  0  0
  141.5442   73.3506  221.2866 H   0  0  0  0  0  0  0  0  0  0  0  0
  141.4460   75.5020  221.5220 C   0  0  0  0  0  0  0  0  0  0  0  0
  142.4815   75.6572  221.1849 H   0  0  0  0  0  0  0  0  0  0  0  0
  140.6620   76.6100  221.9100 C   0  0  0  0  0  0  0  0  0  0  0  0
  141.1690   77.9200  221.9120 O   0  0  0  0  0  0  0  0  0  0  0  0
  141.5050   78.6450  223.0910 C   0  0  0  0  0  0  0  0  0  0  0  0
  141.2305   78.0527  223.9764 H   0  0  0  0  0  0  0  0  0  0  0  0
  142.5869   78.8434  223.1036 H   0  0  0  0  0  0  0  0  0  0  0  0
  140.9571   79.5988  223.1036 H   0  0  0  0  0  0  0  0  0  0  0  0
  139.3350   76.4110  222.3220 C   0  0  0  0  0  0  0  0  0  0  0  0
  138.6000   77.5240  222.7540 O   0  0  0  0  0  0  0  0  0  0  0  0
  138.1180   78.5540  221.8900 C   0  0  0  0  0  0  0  0  0  0  0  0
  137.7283   79.3867  222.4940 H   0  0  0  0  0  0  0  0  0  0  0  0
  138.9407   78.9150  221.2553 H   0  0  0  0  0  0  0  0  0  0  0  0
  137.3137   78.1536  221.2553 H   0  0  0  0  0  0  0  0  0  0  0  0
  138.7900   75.1130  222.3110 C   0  0  0  0  0  0  0  0  0  0  0  0
  137.7348   74.9601  222.5814 H   0  0  0  0  0  0  0  0  0  0  0  0
  1  2  1  0
  2  3  2  0
  3  4  1  0
  3  5  1  0
  5  6  2  0
  6  7  1  0
  7  8  2  0
  8  9  1  0
  8 10  1  0
 10 11  1  0
 10 12  2  0
 12 13  1  0
 12 14  1  0
 14 15  1  0
 14 16  2  0
 16 17  1  0
 17 18  2  0
 17 19  1  0
 19 20  1  0
 20 21  1  0
 20 22  1  0
 20 23  1  0
 23 24  1  0
 23 25  1  0
 25 26  1  0
 25 27  1  0
 25 28  1  0
 28 29  1  0
 28 30  1  0
 28 31  1  0
 31 32  1  0
 31 33  1  0
 31 34  1  0
 34 35  1  0
 34 36  1  0
 34 37  1  0
 37 38  1  0
 37 39  1  0
  2 40  1  0
 40 41  2  0
 41 42  1  0
 41 43  1  0
 43 44  1  0
 43 45  2  0
 45 46  1  0
 46 47  1  0
 47 48  1  0
 47 49  1  0
 47 50  1  0
 45 51  1  0
 51 52  1  0
 52 53  1  0
 53 54  1  0
 53 55  1  0
 53 56  1  0
 51 57  2  0
 57 58  1  0
 19  5  1  0
 37 23  1  0
 57 40  1  0
 16  7  1  0
M  END
>  <UniqueID>  (5) 
65

>  <SMILES>  (5) 
COc1ccc(/C=C/c2nc3ccccc3c(=O)n2CC2CCCCC2)cc1OC

>  <Energy>  (5) 
74.25401405626954

>  <Genealogy>  (5) 
COc1ccc(/C=C/c2nc3ccccc3c(=O)n2CC2CCCCC2)cc1OC (cis-trans isomerization)
COc1ccc(/C=C/c2nc3ccccc3c(=O)n2CC2CCCCC2)cc1OC (3D coordinates assigned)
COc1ccc(/C=C/c2nc3ccccc3c(=O)n2CC2CCCCC2)cc1OC (nonaromatic ring conformer: 74.25401405626954 kcal/mol)

>  <smiles>  (5) 
COc1ccc(/C=C/c2nc3ccccc3c(=O)n2CC2CCCCC2)cc1OC

>  <score_type>  (5) 
oracle

>  <origin>  (5) 
autodockgpu

>  <m_score__min__energy>  (5) 
-7.5199999999999996

>  <m_primary>  (5) 
energy

>  <meeko>  (5) 
{"free_energy": -7.09, "intermolecular_energy": -9.18, "internal_energy": -1.88, "cluster_size": 5, "cluster_id": 3, "rank_in_cluster": 1}

>  <energy>  (5) 
-7.13

>  <cluster_rmsd>  (5) 
1.35

>  <rmsd>  (5) 
269.69

>  <cluster>  (5) 
1

$$$$
CHYZURNRBYISSB-FYWRMAATNA-N
     RDKit          3D

 58 61  0  0  0  0  0  0  0  0999 V2000
  140.7906   73.5919  222.2551 H   0  0  0  0  0  0  0  0  0  0  0  0
  141.2050   72.6920  221.7770 C   0  0  0  0  0  0  0  0  0  0  0  0
  140.5840   71.5170  221.9390 C   0  0  0  0  0  0  0  0  0  0  0  0
  140.3067   70.9289  221.0517 H   0  0  0  0  0  0  0  0  0  0  0  0
  140.2600   70.9880  223.2930 C   0  0  0  0  0  0  0  0  0  0  0  0
  140.8000   71.6450  224.3580 N   0  0  0  0  0  0  0  0  0  0  0  0
  140.6520   71.2100  225.6230 C   0  0  0  0  0  0  0  0  0  0  0  0
  141.2010   71.9400  226.6840 C   0  0  0  0  0  0  0  0  0  0  0  0
  141.7387   72.8789  226.4855 H   0  0  0  0  0  0  0  0  0  0  0  0
  141.0660   71.4760  227.9950 C   0  0  0  0  0  0  0  0  0  0  0  0
  141.4958   72.0518  228.8279 H   0  0  0  0  0  0  0  0  0  0  0  0
  140.3850   70.2800  228.2510 C   0  0  0  0  0  0  0  0  0  0  0  0
  140.2762   69.9195  229.2845 H   0  0  0  0  0  0  0  0  0  0  0  0
  139.8440   69.5450  227.1950 C   0  0  0  0  0  0  0  0  0  0  0  0
  139.3207   68.5988  227.3970 H   0  0  0  0  0  0  0  0  0  0  0  0
  139.9660   70.0110  225.8720 C   0  0  0  0  0  0  0  0  0  0  0  0
  139.4090   69.3290  224.7820 C   0  0  0  0  0  0  0  0  0  0  0  0
  138.8040   68.2360  224.9840 O   0  0  0  0  0  0  0  0  0  0  0  0
  139.5110   69.8400  223.5060 N   0  0  0  0  0  0  0  0  0  0  0  0
  138.7720   69.1450  222.4220 C   0  0  0  0  0  0  0  0  0  0  0  0
  139.4420   69.0204  221.5585 H   0  0  0  0  0  0  0  0  0  0  0  0
  138.4369   68.1714  222.8090 H   0  0  0  0  0  0  0  0  0  0  0  0
  137.5140   69.9420  221.9710 C   0  0  0  0  0  0  0  0  0  0  0  0
  137.6474   70.1468  220.8985 H   0  0  0  0  0  0  0  0  0  0  0  0
  137.4090   71.3040  222.7140 C   0  0  0  0  0  0  0  0  0  0  0  0
  138.3931   71.5352  223.1478 H   0  0  0  0  0  0  0  0  0  0  0  0
  137.0830   72.0427  221.9670 H   0  0  0  0  0  0  0  0  0  0  0  0
  136.3650   71.3370  223.8460 C   0  0  0  0  0  0  0  0  0  0  0  0
  136.6734   72.0851  224.5912 H   0  0  0  0  0  0  0  0  0  0  0  0
  135.3919   71.5935  223.4019 H   0  0  0  0  0  0  0  0  0  0  0  0
  136.2240   69.9830  224.5370 C   0  0  0  0  0  0  0  0  0  0  0  0
  137.1962   69.7019  224.9680 H   0  0  0  0  0  0  0  0  0  0  0  0
  135.4543   70.0795  225.3169 H   0  0  0  0  0  0  0  0  0  0  0  0
  135.7740   68.8760  223.5600 C   0  0  0  0  0  0  0  0  0  0  0  0
  136.2108   67.9222  223.8909 H   0  0  0  0  0  0  0  0  0  0  0  0
  134.6742   68.8616  223.5750 H   0  0  0  0  0  0  0  0  0  0  0  0
  136.2020   69.1270  222.0980 C   0  0  0  0  0  0  0  0  0  0  0  0
  136.3470   68.1542  221.6054 H   0  0  0  0  0  0  0  0  0  0  0  0
  135.4053   69.7191  221.6240 H   0  0  0  0  0  0  0  0  0  0  0  0
  142.4290   72.8020  220.9730 C   0  0  0  0  0  0  0  0  0  0  0  0
  142.8870   74.0460  220.5220 C   0  0  0  0  0  0  0  0  0  0  0  0
  142.3290   74.9606  220.7713 H   0  0  0  0  0  0  0  0  0  0  0  0
  144.0500   74.1260  219.7570 C   0  0  0  0  0  0  0  0  0  0  0  0
  144.4213   75.1081  219.4291 H   0  0  0  0  0  0  0  0  0  0  0  0
  144.7550   72.9550  219.4000 C   0  0  0  0  0  0  0  0  0  0  0  0
  145.9120   72.9930  218.6050 O   0  0  0  0  0  0  0  0  0  0  0  0
  145.9310   73.4030  217.2410 C   0  0  0  0  0  0  0  0  0  0  0  0
  145.9819   74.5006  217.1887 H   0  0  0  0  0  0  0  0  0  0  0  0
  146.8101   72.9710  216.7405 H   0  0  0  0  0  0  0  0  0  0  0  0
  145.0157   73.0541  216.7405 H   0  0  0  0  0  0  0  0  0  0  0  0
  144.2880   71.7050  219.8360 C   0  0  0  0  0  0  0  0  0  0  0  0
  144.9780   70.5580  219.4190 O   0  0  0  0  0  0  0  0  0  0  0  0
  144.3920   69.2600  219.3110 C   0  0  0  0  0  0  0  0  0  0  0  0
  144.2093   68.8553  220.3174 H   0  0  0  0  0  0  0  0  0  0  0  0
  143.4391   69.3321  218.7662 H   0  0  0  0  0  0  0  0  0  0  0  0
  145.0763   68.5929  218.7662 H   0  0  0  0  0  0  0  0  0  0  0  0
  143.1440   71.6350  220.6520 C   0  0  0  0  0  0  0  0  0  0  0  0
  142.8075   70.6625  221.0406 H   0  0  0  0  0  0  0  0  0  0  0  0
  1  2  1  0
  2  3  2  0
  3  4  1  0
  3  5  1  0
  5  6  2  0
  6  7  1  0
  7  8  2  0
  8  9  1  0
  8 10  1  0
 10 11  1  0
 10 12  2  0
 12 13  1  0
 12 14  1  0
 14 15  1  0
 14 16  2  0
 16 17  1  0
 17 18  2  0
 17 19  1  0
 19 20  1  0
 20 21  1  0
 20 22  1  0
 20 23  1  0
 23 24  1  0
 23 25  1  0
 25 26  1  0
 25 27  1  0
 25 28  1  0
 28 29  1  0
 28 30  1  0
 28 31  1  0
 31 32  1  0
 31 33  1  0
 31 34  1  0
 34 35  1  0
 34 36  1  0
 34 37  1  0
 37 38  1  0
 37 39  1  0
  2 40  1  0
 40 41  2  0
 41 42  1  0
 41 43  1  0
 43 44  1  0
 43 45  2  0
 45 46  1  0
 46 47  1  0
 47 48  1  0
 47 49  1  0
 47 50  1  0
 45 51  1  0
 51 52  1  0
 52 53  1  0
 53 54  1  0
 53 55  1  0
 53 56  1  0
 51 57  2  0
 57 58  1  0
 19  5  1  0
 37 23  1  0
 57 40  1  0
 16  7  1  0
M  END
>  <UniqueID>  (6) 
65

>  <SMILES>  (6) 
COc1ccc(/C=C/c2nc3ccccc3c(=O)n2CC2CCCCC2)cc1OC

>  <Energy>  (6) 
74.25401405626954

>  <Genealogy>  (6) 
COc1ccc(/C=C/c2nc3ccccc3c(=O)n2CC2CCCCC2)cc1OC (cis-trans isomerization)
COc1ccc(/C=C/c2nc3ccccc3c(=O)n2CC2CCCCC2)cc1OC (3D coordinates assigned)
COc1ccc(/C=C/c2nc3ccccc3c(=O)n2CC2CCCCC2)cc1OC (nonaromatic ring conformer: 74.25401405626954 kcal/mol)

>  <smiles>  (6) 
COc1ccc(/C=C/c2nc3ccccc3c(=O)n2CC2CCCCC2)cc1OC

>  <score_type>  (6) 
oracle

>  <origin>  (6) 
autodockgpu

>  <m_score__min__energy>  (6) 
-7.5199999999999996

>  <m_primary>  (6) 
energy

>  <meeko>  (6) 
{"free_energy": -7.52, "intermolecular_energy": -9.61, "internal_energy": -1.64, "cluster_size": 7, "cluster_id": 1, "rank_in_cluster": 1}

>  <energy>  (6) 
-7.05

>  <cluster_rmsd>  (6) 
1.68

>  <rmsd>  (6) 
269.35

>  <cluster>  (6) 
1

$$$$
CHYZURNRBYISSB-FYWRMAATNA-N
     RDKit          3D

 58 61  0  0  0  0  0  0  0  0999 V2000
  138.4552   73.0729  222.5333 H   0  0  0  0  0  0  0  0  0  0  0  0
  139.4860   72.8720  222.2060 C   0  0  0  0  0  0  0  0  0  0  0  0
  139.9880   71.6380  222.3390 C   0  0  0  0  0  0  0  0  0  0  0  0
  140.4586   71.1529  221.4711 H   0  0  0  0  0  0  0  0  0  0  0  0
  139.9240   70.9070  223.6350 C   0  0  0  0  0  0  0  0  0  0  0  0
  140.4520   71.5330  224.7240 N   0  0  0  0  0  0  0  0  0  0  0  0
  140.5330   70.9380  225.9290 C   0  0  0  0  0  0  0  0  0  0  0  0
  141.0560   71.6390  227.0230 C   0  0  0  0  0  0  0  0  0  0  0  0
  141.3854   72.6815  226.9022 H   0  0  0  0  0  0  0  0  0  0  0  0
  141.1590   71.0130  228.2680 C   0  0  0  0  0  0  0  0  0  0  0  0
  141.5678   71.5646  229.1275 H   0  0  0  0  0  0  0  0  0  0  0  0
  140.7430   69.6850  228.4240 C   0  0  0  0  0  0  0  0  0  0  0  0
  140.8212   69.1958  229.4061 H   0  0  0  0  0  0  0  0  0  0  0  0
  140.2290   68.9820  227.3330 C   0  0  0  0  0  0  0  0  0  0  0  0
  139.9152   67.9347  227.4542 H   0  0  0  0  0  0  0  0  0  0  0  0
  140.1110   69.6090  226.0780 C   0  0  0  0  0  0  0  0  0  0  0  0
  139.5680   68.9570  224.9630 C   0  0  0  0  0  0  0  0  0  0  0  0
  139.2000   67.7510  225.0730 O   0  0  0  0  0  0  0  0  0  0  0  0
  139.4270   69.6180  223.7620 N   0  0  0  0  0  0  0  0  0  0  0  0
  138.7100   68.9180  222.6670 C   0  0  0  0  0  0  0  0  0  0  0  0
  138.8226   69.4992  221.7399 H   0  0  0  0  0  0  0  0  0  0  0  0
  139.1465   67.9138  222.5615 H   0  0  0  0  0  0  0  0  0  0  0  0
  137.1930   68.7540  222.9770 C   0  0  0  0  0  0  0  0  0  0  0  0
  137.0577   67.7168  223.3174 H   0  0  0  0  0  0  0  0  0  0  0  0
  136.3290   68.9620  221.7000 C   0  0  0  0  0  0  0  0  0  0  0  0
  136.9851   68.8665  220.8223 H   0  0  0  0  0  0  0  0  0  0  0  0
  135.5371   68.1991  221.7311 H   0  0  0  0  0  0  0  0  0  0  0  0
  135.6190   70.3260  221.6230 C   0  0  0  0  0  0  0  0  0  0  0  0
  135.4597   70.5838  220.5656 H   0  0  0  0  0  0  0  0  0  0  0  0
  134.6636   70.2414  222.1615 H   0  0  0  0  0  0  0  0  0  0  0  0
  136.4340   71.4360  222.2830 C   0  0  0  0  0  0  0  0  0  0  0  0
  137.4032   71.5178  221.7693 H   0  0  0  0  0  0  0  0  0  0  0  0
  135.8600   72.3710  222.2033 H   0  0  0  0  0  0  0  0  0  0  0  0
  136.6860   71.1590  223.7800 C   0  0  0  0  0  0  0  0  0  0  0  0
  137.6566   71.5973  224.0555 H   0  0  0  0  0  0  0  0  0  0  0  0
  135.8492   71.6084  224.3349 H   0  0  0  0  0  0  0  0  0  0  0  0
  136.7100   69.6580  224.1390 C   0  0  0  0  0  0  0  0  0  0  0  0
  137.3854   69.5153  224.9955 H   0  0  0  0  0  0  0  0  0  0  0  0
  135.6758   69.3634  224.3708 H   0  0  0  0  0  0  0  0  0  0  0  0
  140.2840   73.9620  221.6320 C   0  0  0  0  0  0  0  0  0  0  0  0
  141.3480   73.6960  220.7610 C   0  0  0  0  0  0  0  0  0  0  0  0
  141.5950   72.6575  220.4954 H   0  0  0  0  0  0  0  0  0  0  0  0
  142.0950   74.7490  220.2300 C   0  0  0  0  0  0  0  0  0  0  0  0
  142.9114   74.5376  219.5238 H   0  0  0  0  0  0  0  0  0  0  0  0
  141.8100   76.0840  220.5930 C   0  0  0  0  0  0  0  0  0  0  0  0
  142.5590   77.1660  220.1040 O   0  0  0  0  0  0  0  0  0  0  0  0
  142.6000   77.5560  218.7350 C   0  0  0  0  0  0  0  0  0  0  0  0
  142.7148   78.6479  218.6681 H   0  0  0  0  0  0  0  0  0  0  0  0
  143.4517   77.0667  218.2397 H   0  0  0  0  0  0  0  0  0  0  0  0
  141.6652   77.2546  218.2397 H   0  0  0  0  0  0  0  0  0  0  0  0
  140.7550   76.3510  221.4800 C   0  0  0  0  0  0  0  0  0  0  0  0
  140.5330   77.6810  221.8630 O   0  0  0  0  0  0  0  0  0  0  0  0
  141.3800   78.4170  222.7470 C   0  0  0  0  0  0  0  0  0  0  0  0
  141.1130   78.1850  223.7886 H   0  0  0  0  0  0  0  0  0  0  0  0
  142.4287   78.1384  222.5666 H   0  0  0  0  0  0  0  0  0  0  0  0
  141.2505   79.4944  222.5666 H   0  0  0  0  0  0  0  0  0  0  0  0
  139.9720   75.2900  221.9700 C   0  0  0  0  0  0  0  0  0  0  0  0
  139.1109   75.5009  222.6212 H   0  0  0  0  0  0  0  0  0  0  0  0
  1  2  1  0
  2  3  2  0
  3  4  1  0
  3  5  1  0
  5  6  2  0
  6  7  1  0
  7  8  2  0
  8  9  1  0
  8 10  1  0
 10 11  1  0
 10 12  2  0
 12 13  1  0
 12 14  1  0
 14 15  1  0
 14 16  2  0
 16 17  1  0
 17 18  2  0
 17 19  1  0
 19 20  1  0
 20 21  1  0
 20 22  1  0
 20 23  1  0
 23 24  1  0
 23 25  1  0
 25 26  1  0
 25 27  1  0
 25 28  1  0
 28 29  1  0
 28 30  1  0
 28 31  1  0
 31 32  1  0
 31 33  1  0
 31 34  1  0
 34 35  1  0
 34 36  1  0
 34 37  1  0
 37 38  1  0
 37 39  1  0
  2 40  1  0
 40 41  2  0
 41 42  1  0
 41 43  1  0
 43 44  1  0
 43 45  2  0
 45 46  1  0
 46 47  1  0
 47 48  1  0
 47 49  1  0
 47 50  1  0
 45 51  1  0
 51 52  1  0
 52 53  1  0
 53 54  1  0
 53 55  1  0
 53 56  1  0
 51 57  2  0
 57 58  1  0
 19  5  1  0
 37 23  1  0
 57 40  1  0
 16  7  1  0
M  END
>  <UniqueID>  (7) 
65

>  <SMILES>  (7) 
COc1ccc(/C=C/c2nc3ccccc3c(=O)n2CC2CCCCC2)cc1OC

>  <Energy>  (7) 
74.25401405626954

>  <Genealogy>  (7) 
COc1ccc(/C=C/c2nc3ccccc3c(=O)n2CC2CCCCC2)cc1OC (cis-trans isomerization)
COc1ccc(/C=C/c2nc3ccccc3c(=O)n2CC2CCCCC2)cc1OC (3D coordinates assigned)
COc1ccc(/C=C/c2nc3ccccc3c(=O)n2CC2CCCCC2)cc1OC (nonaromatic ring conformer: 74.25401405626954 kcal/mol)

>  <smiles>  (7) 
COc1ccc(/C=C/c2nc3ccccc3c(=O)n2CC2CCCCC2)cc1OC

>  <score_type>  (7) 
oracle

>  <origin>  (7) 
autodockgpu

>  <m_score__min__energy>  (7) 
-7.5199999999999996

>  <m_primary>  (7) 
energy

>  <meeko>  (7) 
{"free_energy": -7.05, "intermolecular_energy": -9.14, "internal_energy": -1.78, "cluster_size": 5, "cluster_id": 3, "rank_in_cluster": 3}

>  <energy>  (7) 
-6.98

>  <cluster_rmsd>  (7) 
1.68

>  <rmsd>  (7) 
269.36

>  <cluster>  (7) 
1

$$$$
CHYZURNRBYISSB-FYWRMAATNA-N
     RDKit          3D

 58 61  0  0  0  0  0  0  0  0999 V2000
  138.7544   73.3093  222.8207 H   0  0  0  0  0  0  0  0  0  0  0  0
  139.6750   72.9520  222.3360 C   0  0  0  0  0  0  0  0  0  0  0  0
  139.9850   71.6510  222.3940 C   0  0  0  0  0  0  0  0  0  0  0  0
  140.2966   71.1318  221.4757 H   0  0  0  0  0  0  0  0  0  0  0  0
  139.9180   70.8900  223.6720 C   0  0  0  0  0  0  0  0  0  0  0  0
  140.4360   71.4950  224.7780 N   0  0  0  0  0  0  0  0  0  0  0  0
  140.5130   70.8740  225.9700 C   0  0  0  0  0  0  0  0  0  0  0  0
  141.0260   71.5520  227.0820 C   0  0  0  0  0  0  0  0  0  0  0  0
  141.3512   72.5985  226.9864 H   0  0  0  0  0  0  0  0  0  0  0  0
  141.1250   70.8990  228.3140 C   0  0  0  0  0  0  0  0  0  0  0  0
  141.5256   71.4336  229.1879 H   0  0  0  0  0  0  0  0  0  0  0  0
  140.7150   69.5650  228.4380 C   0  0  0  0  0  0  0  0  0  0  0  0
  140.7896   69.0546  229.4096 H   0  0  0  0  0  0  0  0  0  0  0  0
  140.2120   68.8840  227.3290 C   0  0  0  0  0  0  0  0  0  0  0  0
  139.9035   67.8325  227.4247 H   0  0  0  0  0  0  0  0  0  0  0  0
  140.0980   69.5390  226.0870 C   0  0  0  0  0  0  0  0  0  0  0  0
  139.5640   68.9090  224.9540 C   0  0  0  0  0  0  0  0  0  0  0  0
  139.2030   67.6990  225.0350 O   0  0  0  0  0  0  0  0  0  0  0  0
  139.4270   69.5960  223.7680 N   0  0  0  0  0  0  0  0  0  0  0  0
  138.7200   68.9170  222.6530 C   0  0  0  0  0  0  0  0  0  0  0  0
  138.8591   69.5047  221.7336 H   0  0  0  0  0  0  0  0  0  0  0  0
  139.1429   67.9071  222.5463 H   0  0  0  0  0  0  0  0  0  0  0  0
  137.1950   68.7740  222.9330 C   0  0  0  0  0  0  0  0  0  0  0  0
  137.0323   67.7283  223.2330 H   0  0  0  0  0  0  0  0  0  0  0  0
  136.3570   69.0460  221.6510 C   0  0  0  0  0  0  0  0  0  0  0  0
  137.0255   68.9692  220.7808 H   0  0  0  0  0  0  0  0  0  0  0  0
  135.5498   68.2988  221.6406 H   0  0  0  0  0  0  0  0  0  0  0  0
  135.6760   70.4270  221.6140 C   0  0  0  0  0  0  0  0  0  0  0  0
  135.5392   70.7269  220.5646 H   0  0  0  0  0  0  0  0  0  0  0  0
  134.7105   70.3425  222.1342 H   0  0  0  0  0  0  0  0  0  0  0  0
  136.5020   71.4940  222.3270 C   0  0  0  0  0  0  0  0  0  0  0  0
  137.4810   71.5744  221.8318 H   0  0  0  0  0  0  0  0  0  0  0  0
  135.9484   72.4430  222.2732 H   0  0  0  0  0  0  0  0  0  0  0  0
  136.7240   71.1570  223.8170 C   0  0  0  0  0  0  0  0  0  0  0  0
  137.6985   71.5647  224.1237 H   0  0  0  0  0  0  0  0  0  0  0  0
  135.8876   71.6029  224.3752 H   0  0  0  0  0  0  0  0  0  0  0  0
  136.7120   69.6440  224.1200 C   0  0  0  0  0  0  0  0  0  0  0  0
  137.3706   69.4557  224.9807 H   0  0  0  0  0  0  0  0  0  0  0  0
  135.6685   69.3626  224.3248 H   0  0  0  0  0  0  0  0  0  0  0  0
  140.5400   73.9110  221.6380 C   0  0  0  0  0  0  0  0  0  0  0  0
  141.6690   73.4830  220.9300 C   0  0  0  0  0  0  0  0  0  0  0  0
  141.9185   72.4125  220.8885 H   0  0  0  0  0  0  0  0  0  0  0  0
  142.4780   74.4130  220.2770 C   0  0  0  0  0  0  0  0  0  0  0  0
  143.3478   74.0690  219.6980 H   0  0  0  0  0  0  0  0  0  0  0  0
  142.1880   75.7940  220.3540 C   0  0  0  0  0  0  0  0  0  0  0  0
  142.9970   76.7620  219.7370 O   0  0  0  0  0  0  0  0  0  0  0  0
  142.6030   77.5250  218.6010 C   0  0  0  0  0  0  0  0  0  0  0  0
  142.1220   78.4566  218.9339 H   0  0  0  0  0  0  0  0  0  0  0  0
  143.4894   77.7660  217.9958 H   0  0  0  0  0  0  0  0  0  0  0  0
  141.8933   76.9418  217.9958 H   0  0  0  0  0  0  0  0  0  0  0  0
  141.0670   76.2270  221.0790 C   0  0  0  0  0  0  0  0  0  0  0  0
  140.8370   77.6060  221.1820 O   0  0  0  0  0  0  0  0  0  0  0  0
  141.4210   78.4470  222.1780 C   0  0  0  0  0  0  0  0  0  0  0  0
  141.1585   78.0689  223.1770 H   0  0  0  0  0  0  0  0  0  0  0  0
  142.5149   78.4476  222.0620 H   0  0  0  0  0  0  0  0  0  0  0  0
  141.0394   79.4722  222.0620 H   0  0  0  0  0  0  0  0  0  0  0  0
  140.2250   75.2810  221.6910 C   0  0  0  0  0  0  0  0  0  0  0  0
  139.3161   75.6140  222.2134 H   0  0  0  0  0  0  0  0  0  0  0  0
  1  2  1  0
  2  3  2  0
  3  4  1  0
  3  5  1  0
  5  6  2  0
  6  7  1  0
  7  8  2  0
  8  9  1  0
  8 10  1  0
 10 11  1  0
 10 12  2  0
 12 13  1  0
 12 14  1  0
 14 15  1  0
 14 16  2  0
 16 17  1  0
 17 18  2  0
 17 19  1  0
 19 20  1  0
 20 21  1  0
 20 22  1  0
 20 23  1  0
 23 24  1  0
 23 25  1  0
 25 26  1  0
 25 27  1  0
 25 28  1  0
 28 29  1  0
 28 30  1  0
 28 31  1  0
 31 32  1  0
 31 33  1  0
 31 34  1  0
 34 35  1  0
 34 36  1  0
 34 37  1  0
 37 38  1  0
 37 39  1  0
  2 40  1  0
 40 41  2  0
 41 42  1  0
 41 43  1  0
 43 44  1  0
 43 45  2  0
 45 46  1  0
 46 47  1  0
 47 48  1  0
 47 49  1  0
 47 50  1  0
 45 51  1  0
 51 52  1  0
 52 53  1  0
 53 54  1  0
 53 55  1  0
 53 56  1  0
 51 57  2  0
 57 58  1  0
 19  5  1  0
 37 23  1  0
 57 40  1  0
 16  7  1  0
M  END
>  <UniqueID>  (8) 
65

>  <SMILES>  (8) 
COc1ccc(/C=C/c2nc3ccccc3c(=O)n2CC2CCCCC2)cc1OC

>  <Energy>  (8) 
74.25401405626954

>  <Genealogy>  (8) 
COc1ccc(/C=C/c2nc3ccccc3c(=O)n2CC2CCCCC2)cc1OC (cis-trans isomerization)
COc1ccc(/C=C/c2nc3ccccc3c(=O)n2CC2CCCCC2)cc1OC (3D coordinates assigned)
COc1ccc(/C=C/c2nc3ccccc3c(=O)n2CC2CCCCC2)cc1OC (nonaromatic ring conformer: 74.25401405626954 kcal/mol)

>  <smiles>  (8) 
COc1ccc(/C=C/c2nc3ccccc3c(=O)n2CC2CCCCC2)cc1OC

>  <score_type>  (8) 
oracle

>  <origin>  (8) 
autodockgpu

>  <m_score__min__energy>  (8) 
-7.5199999999999996

>  <m_primary>  (8) 
energy

>  <meeko>  (8) 
{"free_energy": -7.06, "intermolecular_energy": -9.15, "internal_energy": -1.77, "cluster_size": 5, "cluster_id": 3, "rank_in_cluster": 2}

>  <energy>  (8) 
-7.46

>  <cluster_rmsd>  (8) 
0.0

>  <rmsd>  (8) 
270.02

>  <cluster>  (8) 
2

$$$$
CHYZURNRBYISSB-FYWRMAATNA-N
     RDKit          3D

 58 61  0  0  0  0  0  0  0  0999 V2000
  136.4190   71.8337  221.8665 H   0  0  0  0  0  0  0  0  0  0  0  0
  136.8130   71.6620  222.8790 C   0  0  0  0  0  0  0  0  0  0  0  0
  138.1250   71.4560  223.0470 C   0  0  0  0  0  0  0  0  0  0  0  0
  138.8308   71.8587  222.3056 H   0  0  0  0  0  0  0  0  0  0  0  0
  138.6520   70.6950  224.2130 C   0  0  0  0  0  0  0  0  0  0  0  0
  139.3300   71.4050  225.1570 N   0  0  0  0  0  0  0  0  0  0  0  0
  139.9290   70.8170  226.2100 C   0  0  0  0  0  0  0  0  0  0  0  0
  140.5870   71.5970  227.1680 C   0  0  0  0  0  0  0  0  0  0  0  0
  140.6013   72.6926  227.0702 H   0  0  0  0  0  0  0  0  0  0  0  0
  141.2260   70.9830  228.2490 C   0  0  0  0  0  0  0  0  0  0  0  0
  141.7411   71.5968  229.0026 H   0  0  0  0  0  0  0  0  0  0  0  0
  141.2120   69.5880  228.3750 C   0  0  0  0  0  0  0  0  0  0  0  0
  141.7120   69.1074  229.2289 H   0  0  0  0  0  0  0  0  0  0  0  0
  140.5630   68.8080  227.4160 C   0  0  0  0  0  0  0  0  0  0  0  0
  140.5635   67.7120  227.5094 H   0  0  0  0  0  0  0  0  0  0  0  0
  139.9080   69.4190  226.3300 C   0  0  0  0  0  0  0  0  0  0  0  0
  139.2120   68.6810  225.3630 C   0  0  0  0  0  0  0  0  0  0  0  0
  139.1990   67.4180  225.4440 O   0  0  0  0  0  0  0  0  0  0  0  0
  138.5450   69.3180  224.3390 N   0  0  0  0  0  0  0  0  0  0  0  0
  137.7080   68.4870  223.4380 C   0  0  0  0  0  0  0  0  0  0  0  0
  137.1177   67.7866  224.0472 H   0  0  0  0  0  0  0  0  0  0  0  0
  137.0560   69.1606  222.8625 H   0  0  0  0  0  0  0  0  0  0  0  0
  138.5690   67.6730  222.4290 C   0  0  0  0  0  0  0  0  0  0  0  0
  139.3044   67.1169  223.0289 H   0  0  0  0  0  0  0  0  0  0  0  0
  139.3430   68.6120  221.4600 C   0  0  0  0  0  0  0  0  0  0  0  0
  139.3564   69.6210  221.8978 H   0  0  0  0  0  0  0  0  0  0  0  0
  140.3474   68.1792  221.3425 H   0  0  0  0  0  0  0  0  0  0  0  0
  138.7420   68.7100  220.0460 C   0  0  0  0  0  0  0  0  0  0  0  0
  139.0093   69.6855  219.6136 H   0  0  0  0  0  0  0  0  0  0  0  0
  139.1497   67.8830  219.4461 H   0  0  0  0  0  0  0  0  0  0  0  0
  137.2210   68.5770  220.0590 C   0  0  0  0  0  0  0  0  0  0  0  0
  136.7995   69.3848  220.6753 H   0  0  0  0  0  0  0  0  0  0  0  0
  136.8662   68.6415  219.0198 H   0  0  0  0  0  0  0  0  0  0  0  0
  136.7620   67.2200  220.6350 C   0  0  0  0  0  0  0  0  0  0  0  0
  135.7937   67.3652  221.1364 H   0  0  0  0  0  0  0  0  0  0  0  0
  136.6963   66.5181  219.7906 H   0  0  0  0  0  0  0  0  0  0  0  0
  137.7510   66.6110  221.6520 C   0  0  0  0  0  0  0  0  0  0  0  0
  137.1805   66.0118  222.3769 H   0  0  0  0  0  0  0  0  0  0  0  0
  138.4686   66.0027  221.0818 H   0  0  0  0  0  0  0  0  0  0  0  0
  135.8900   71.6630  224.0210 C   0  0  0  0  0  0  0  0  0  0  0  0
  135.4350   70.4640  224.5830 C   0  0  0  0  0  0  0  0  0  0  0  0
  135.7708   69.5012  224.1704 H   0  0  0  0  0  0  0  0  0  0  0  0
  134.5560   70.4900  225.6660 C   0  0  0  0  0  0  0  0  0  0  0  0
  134.2248   69.5459  226.1231 H   0  0  0  0  0  0  0  0  0  0  0  0
  134.0880   71.7200  226.1800 C   0  0  0  0  0  0  0  0  0  0  0  0
  133.1780   71.7850  227.2470 O   0  0  0  0  0  0  0  0  0  0  0  0
  131.8610   72.3170  227.1430 C   0  0  0  0  0  0  0  0  0  0  0  0
  131.4517   72.4823  228.1506 H   0  0  0  0  0  0  0  0  0  0  0  0
  131.8934   73.2726  226.5991 H   0  0  0  0  0  0  0  0  0  0  0  0
  131.2206   71.6070  226.5991 H   0  0  0  0  0  0  0  0  0  0  0  0
  134.5280   72.9230  225.6060 C   0  0  0  0  0  0  0  0  0  0  0  0
  134.0040   74.1240  226.1030 O   0  0  0  0  0  0  0  0  0  0  0  0
  134.4580   75.4220  225.7150 C   0  0  0  0  0  0  0  0  0  0  0  0
  134.6675   76.0209  226.6135 H   0  0  0  0  0  0  0  0  0  0  0  0
  135.3758   75.3257  225.1164 H   0  0  0  0  0  0  0  0  0  0  0  0
  133.6802   75.9187  225.1164 H   0  0  0  0  0  0  0  0  0  0  0  0
  135.4560   72.8920  224.5490 C   0  0  0  0  0  0  0  0  0  0  0  0
  135.8440   73.8337  224.1335 H   0  0  0  0  0  0  0  0  0  0  0  0
  1  2  1  0
  2  3  2  0
  3  4  1  0
  3  5  1  0
  5  6  2  0
  6  7  1  0
  7  8  2  0
  8  9  1  0
  8 10  1  0
 10 11  1  0
 10 12  2  0
 12 13  1  0
 12 14  1  0
 14 15  1  0
 14 16  2  0
 16 17  1  0
 17 18  2  0
 17 19  1  0
 19 20  1  0
 20 21  1  0
 20 22  1  0
 20 23  1  0
 23 24  1  0
 23 25  1  0
 25 26  1  0
 25 27  1  0
 25 28  1  0
 28 29  1  0
 28 30  1  0
 28 31  1  0
 31 32  1  0
 31 33  1  0
 31 34  1  0
 34 35  1  0
 34 36  1  0
 34 37  1  0
 37 38  1  0
 37 39  1  0
  2 40  1  0
 40 41  2  0
 41 42  1  0
 41 43  1  0
 43 44  1  0
 43 45  2  0
 45 46  1  0
 46 47  1  0
 47 48  1  0
 47 49  1  0
 47 50  1  0
 45 51  1  0
 51 52  1  0
 52 53  1  0
 53 54  1  0
 53 55  1  0
 53 56  1  0
 51 57  2  0
 57 58  1  0
 19  5  1  0
 37 23  1  0
 57 40  1  0
 16  7  1  0
M  END
>  <UniqueID>  (9) 
65

>  <SMILES>  (9) 
COc1ccc(/C=C/c2nc3ccccc3c(=O)n2CC2CCCCC2)cc1OC

>  <Energy>  (9) 
74.25401405626954

>  <Genealogy>  (9) 
COc1ccc(/C=C/c2nc3ccccc3c(=O)n2CC2CCCCC2)cc1OC (cis-trans isomerization)
COc1ccc(/C=C/c2nc3ccccc3c(=O)n2CC2CCCCC2)cc1OC (3D coordinates assigned)
COc1ccc(/C=C/c2nc3ccccc3c(=O)n2CC2CCCCC2)cc1OC (nonaromatic ring conformer: 74.25401405626954 kcal/mol)

>  <smiles>  (9) 
COc1ccc(/C=C/c2nc3ccccc3c(=O)n2CC2CCCCC2)cc1OC

>  <score_type>  (9) 
oracle

>  <origin>  (9) 
autodockgpu

>  <m_score__min__energy>  (9) 
-7.5199999999999996

>  <m_primary>  (9) 
energy

>  <meeko>  (9) 
{"free_energy": -6.99, "intermolecular_energy": -9.08, "internal_energy": -2.0, "cluster_size": 3, "cluster_id": 5, "rank_in_cluster": 2}

>  <energy>  (9) 
-7.46

>  <cluster_rmsd>  (9) 
0.46

>  <rmsd>  (9) 
270.03

>  <cluster>  (9) 
2

$$$$
CHYZURNRBYISSB-FYWRMAATNA-N
     RDKit          3D

 58 61  0  0  0  0  0  0  0  0999 V2000
  140.0738   70.5733  220.6148 H   0  0  0  0  0  0  0  0  0  0  0  0
  140.6230   71.3310  221.1930 C   0  0  0  0  0  0  0  0  0  0  0  0
  140.0540   71.8660  222.2800 C   0  0  0  0  0  0  0  0  0  0  0  0
  139.6348   72.8814  222.2221 H   0  0  0  0  0  0  0  0  0  0  0  0
  139.9750   71.1190  223.5660 C   0  0  0  0  0  0  0  0  0  0  0  0
  140.4860   71.7340  224.6690 N   0  0  0  0  0  0  0  0  0  0  0  0
  140.5520   71.1250  225.8680 C   0  0  0  0  0  0  0  0  0  0  0  0
  141.0580   71.8150  226.9770 C   0  0  0  0  0  0  0  0  0  0  0  0
  141.3857   72.8599  226.8730 H   0  0  0  0  0  0  0  0  0  0  0  0
  141.1460   71.1740  228.2160 C   0  0  0  0  0  0  0  0  0  0  0  0
  141.5415   71.7165  229.0874 H   0  0  0  0  0  0  0  0  0  0  0  0
  140.7320   69.8430  228.3510 C   0  0  0  0  0  0  0  0  0  0  0  0
  140.7977   69.3430  229.3286 H   0  0  0  0  0  0  0  0  0  0  0  0
  140.2360   69.1510  227.2450 C   0  0  0  0  0  0  0  0  0  0  0  0
  139.9247   68.1011  227.3493 H   0  0  0  0  0  0  0  0  0  0  0  0
  140.1330   69.7930  225.9960 C   0  0  0  0  0  0  0  0  0  0  0  0
  139.6070   69.1530  224.8660 C   0  0  0  0  0  0  0  0  0  0  0  0
  139.2430   67.9440  224.9560 O   0  0  0  0  0  0  0  0  0  0  0  0
  139.4810   69.8270  223.6710 N   0  0  0  0  0  0  0  0  0  0  0  0
  138.7810   69.1380  222.5580 C   0  0  0  0  0  0  0  0  0  0  0  0
  138.9194   69.7216  221.6359 H   0  0  0  0  0  0  0  0  0  0  0  0
  139.2100   68.1300  222.4589 H   0  0  0  0  0  0  0  0  0  0  0  0
  137.2570   68.9870  222.8330 C   0  0  0  0  0  0  0  0  0  0  0  0
  137.1075   67.9550  223.1832 H   0  0  0  0  0  0  0  0  0  0  0  0
  136.4250   69.1830  221.5340 C   0  0  0  0  0  0  0  0  0  0  0  0
  137.1011   69.0716  220.6735 H   0  0  0  0  0  0  0  0  0  0  0  0
  135.6277   68.4255  221.5573 H   0  0  0  0  0  0  0  0  0  0  0  0
  135.7250   70.5500  221.4210 C   0  0  0  0  0  0  0  0  0  0  0  0
  135.5917   70.7936  220.3566 H   0  0  0  0  0  0  0  0  0  0  0  0
  134.7566   70.4789  221.9379 H   0  0  0  0  0  0  0  0  0  0  0  0
  136.5320   71.6640  222.0840 C   0  0  0  0  0  0  0  0  0  0  0  0
  137.5138   71.7319  221.5925 H   0  0  0  0  0  0  0  0  0  0  0  0
  135.9673   72.6019  221.9771 H   0  0  0  0  0  0  0  0  0  0  0  0
  136.7460   71.4060  223.5910 C   0  0  0  0  0  0  0  0  0  0  0  0
  137.7123   71.8423  223.8840 H   0  0  0  0  0  0  0  0  0  0  0  0
  135.8988   71.8678  224.1191 H   0  0  0  0  0  0  0  0  0  0  0  0
  136.7520   69.9100  223.9710 C   0  0  0  0  0  0  0  0  0  0  0  0
  137.4059   69.7751  224.8452 H   0  0  0  0  0  0  0  0  0  0  0  0
  135.7108   69.6248  224.1820 H   0  0  0  0  0  0  0  0  0  0  0  0
  141.9650   71.7350  220.7570 C   0  0  0  0  0  0  0  0  0  0  0  0
  142.9080   70.7850  220.3460 C   0  0  0  0  0  0  0  0  0  0  0  0
  142.6474   69.7163  220.3441 H   0  0  0  0  0  0  0  0  0  0  0  0
  144.1780   71.1940  219.9390 C   0  0  0  0  0  0  0  0  0  0  0  0
  144.9057   70.4469  219.5895 H   0  0  0  0  0  0  0  0  0  0  0  0
  144.5370   72.5590  219.9720 C   0  0  0  0  0  0  0  0  0  0  0  0
  145.8160   73.0050  219.6000 O   0  0  0  0  0  0  0  0  0  0  0  0
  146.6770   73.7590  220.4470 C   0  0  0  0  0  0  0  0  0  0  0  0
  146.4346   73.5467  221.4988 H   0  0  0  0  0  0  0  0  0  0  0  0
  147.7225   73.4807  220.2483 H   0  0  0  0  0  0  0  0  0  0  0  0
  146.5391   74.8321  220.2483 H   0  0  0  0  0  0  0  0  0  0  0  0
  143.5990   73.5120  220.4000 C   0  0  0  0  0  0  0  0  0  0  0  0
  144.0030   74.8530  220.4740 O   0  0  0  0  0  0  0  0  0  0  0  0
  143.4340   75.9090  219.6980 C   0  0  0  0  0  0  0  0  0  0  0  0
  143.0208   76.6759  220.3696 H   0  0  0  0  0  0  0  0  0  0  0  0
  144.2122   76.3581  219.0635 H   0  0  0  0  0  0  0  0  0  0  0  0
  142.6309   75.5060  219.0635 H   0  0  0  0  0  0  0  0  0  0  0  0
  142.3030   73.1010  220.7590 C   0  0  0  0  0  0  0  0  0  0  0  0
  141.5498   73.8508  221.0427 H   0  0  0  0  0  0  0  0  0  0  0  0
  1  2  1  0
  2  3  2  0
  3  4  1  0
  3  5  1  0
  5  6  2  0
  6  7  1  0
  7  8  2  0
  8  9  1  0
  8 10  1  0
 10 11  1  0
 10 12  2  0
 12 13  1  0
 12 14  1  0
 14 15  1  0
 14 16  2  0
 16 17  1  0
 17 18  2  0
 17 19  1  0
 19 20  1  0
 20 21  1  0
 20 22  1  0
 20 23  1  0
 23 24  1  0
 23 25  1  0
 25 26  1  0
 25 27  1  0
 25 28  1  0
 28 29  1  0
 28 30  1  0
 28 31  1  0
 31 32  1  0
 31 33  1  0
 31 34  1  0
 34 35  1  0
 34 36  1  0
 34 37  1  0
 37 38  1  0
 37 39  1  0
  2 40  1  0
 40 41  2  0
 41 42  1  0
 41 43  1  0
 43 44  1  0
 43 45  2  0
 45 46  1  0
 46 47  1  0
 47 48  1  0
 47 49  1  0
 47 50  1  0
 45 51  1  0
 51 52  1  0
 52 53  1  0
 53 54  1  0
 53 55  1  0
 53 56  1  0
 51 57  2  0
 57 58  1  0
 19  5  1  0
 37 23  1  0
 57 40  1  0
 16  7  1  0
M  END
>  <UniqueID>  (10) 
65

>  <SMILES>  (10) 
COc1ccc(/C=C/c2nc3ccccc3c(=O)n2CC2CCCCC2)cc1OC

>  <Energy>  (10) 
74.25401405626954

>  <Genealogy>  (10) 
COc1ccc(/C=C/c2nc3ccccc3c(=O)n2CC2CCCCC2)cc1OC (cis-trans isomerization)
COc1ccc(/C=C/c2nc3ccccc3c(=O)n2CC2CCCCC2)cc1OC (3D coordinates assigned)
COc1ccc(/C=C/c2nc3ccccc3c(=O)n2CC2CCCCC2)cc1OC (nonaromatic ring conformer: 74.25401405626954 kcal/mol)

>  <smiles>  (10) 
COc1ccc(/C=C/c2nc3ccccc3c(=O)n2CC2CCCCC2)cc1OC

>  <score_type>  (10) 
oracle

>  <origin>  (10) 
autodockgpu

>  <m_score__min__energy>  (10) 
-7.5199999999999996

>  <m_primary>  (10) 
energy

>  <meeko>  (10) 
{"free_energy": -7.13, "intermolecular_energy": -9.21, "internal_energy": -1.74, "cluster_size": 7, "cluster_id": 1, "rank_in_cluster": 5}

>  <energy>  (10) 
-7.45

>  <cluster_rmsd>  (10) 
0.5

>  <rmsd>  (10) 
270.05

>  <cluster>  (10) 
2

$$$$
CHYZURNRBYISSB-FYWRMAATNA-N
     RDKit          3D

 58 61  0  0  0  0  0  0  0  0999 V2000
  140.5391   73.6188  222.4095 H   0  0  0  0  0  0  0  0  0  0  0  0
  140.9080   72.6900  221.9500 C   0  0  0  0  0  0  0  0  0  0  0  0
  140.2200   71.5540  222.1210 C   0  0  0  0  0  0  0  0  0  0  0  0
  139.7477   71.0762  221.2500 H   0  0  0  0  0  0  0  0  0  0  0  0
  140.0790   70.9220  223.4620 C   0  0  0  0  0  0  0  0  0  0  0  0
  140.5840   71.6100  224.5240 N   0  0  0  0  0  0  0  0  0  0  0  0
  140.5960   71.1030  225.7720 C   0  0  0  0  0  0  0  0  0  0  0  0
  141.0990   71.8650  226.8330 C   0  0  0  0  0  0  0  0  0  0  0  0
  141.4690   72.8848  226.6510 H   0  0  0  0  0  0  0  0  0  0  0  0
  141.1310   71.3300  228.1230 C   0  0  0  0  0  0  0  0  0  0  0  0
  141.5254   71.9301  228.9563 H   0  0  0  0  0  0  0  0  0  0  0  0
  140.6620   70.0310  228.3580 C   0  0  0  0  0  0  0  0  0  0  0  0
  140.6828   69.6139  229.3756 H   0  0  0  0  0  0  0  0  0  0  0  0
  140.1680   69.2660  227.2990 C   0  0  0  0  0  0  0  0  0  0  0  0
  139.8129   68.2411  227.4821 H   0  0  0  0  0  0  0  0  0  0  0  0
  140.1230   69.8020  225.9980 C   0  0  0  0  0  0  0  0  0  0  0  0
  139.6020   69.0880  224.9110 C   0  0  0  0  0  0  0  0  0  0  0  0
  139.1890   67.9060  225.0920 O   0  0  0  0  0  0  0  0  0  0  0  0
  139.5320   69.6630  223.6600 N   0  0  0  0  0  0  0  0  0  0  0  0
  138.8350   68.9080  222.5900 C   0  0  0  0  0  0  0  0  0  0  0  0
  139.0239   69.4024  221.6257 H   0  0  0  0  0  0  0  0  0  0  0  0
  139.2232   67.8788  222.5920 H   0  0  0  0  0  0  0  0  0  0  0  0
  137.2990   68.8430  222.8290 C   0  0  0  0  0  0  0  0  0  0  0  0
  137.0869   67.8290  223.1988 H   0  0  0  0  0  0  0  0  0  0  0  0
  136.5110   69.0510  221.5040 C   0  0  0  0  0  0  0  0  0  0  0  0
  137.2017   68.8846  220.6642 H   0  0  0  0  0  0  0  0  0  0  0  0
  135.6750   68.3364  221.5227 H   0  0  0  0  0  0  0  0  0  0  0  0
  135.8870   70.4490  221.3430 C   0  0  0  0  0  0  0  0  0  0  0  0
  135.7941   70.6746  220.2704 H   0  0  0  0  0  0  0  0  0  0  0  0
  134.9035   70.4397  221.8355 H   0  0  0  0  0  0  0  0  0  0  0  0
  136.7330   71.5350  222.0030 C   0  0  0  0  0  0  0  0  0  0  0  0
  137.7287   71.5419  221.5356 H   0  0  0  0  0  0  0  0  0  0  0  0
  136.2190   72.4972  221.8619 H   0  0  0  0  0  0  0  0  0  0  0  0
  136.8970   71.3020  223.5200 C   0  0  0  0  0  0  0  0  0  0  0  0
  137.8777   71.6941  223.8276 H   0  0  0  0  0  0  0  0  0  0  0  0
  136.0633   71.8199  224.0168 H   0  0  0  0  0  0  0  0  0  0  0  0
  136.8150   69.8170  223.9320 C   0  0  0  0  0  0  0  0  0  0  0  0
  137.4386   69.6686  224.8259 H   0  0  0  0  0  0  0  0  0  0  0  0
  135.7551   69.5914  224.1211 H   0  0  0  0  0  0  0  0  0  0  0  0
  142.1450   72.7190  221.1610 C   0  0  0  0  0  0  0  0  0  0  0  0
  142.6970   73.9320  220.7280 C   0  0  0  0  0  0  0  0  0  0  0  0
  142.2037   74.8821  220.9811 H   0  0  0  0  0  0  0  0  0  0  0  0
  143.8720   73.9350  219.9760 C   0  0  0  0  0  0  0  0  0  0  0  0
  144.3166   74.8908  219.6618 H   0  0  0  0  0  0  0  0  0  0  0  0
  144.4950   72.7200  219.6150 C   0  0  0  0  0  0  0  0  0  0  0  0
  145.6600   72.6820  218.8330 O   0  0  0  0  0  0  0  0  0  0  0  0
  145.7080   73.0300  217.4520 C   0  0  0  0  0  0  0  0  0  0  0  0
  145.8576   74.1152  217.3523 H   0  0  0  0  0  0  0  0  0  0  0  0
  146.5414   72.4990  216.9688 H   0  0  0  0  0  0  0  0  0  0  0  0
  144.7620   72.7444  216.9688 H   0  0  0  0  0  0  0  0  0  0  0  0
  143.9340   71.5020  220.0330 C   0  0  0  0  0  0  0  0  0  0  0  0
  144.5450   70.3130  219.6120 O   0  0  0  0  0  0  0  0  0  0  0  0
  143.8500   69.0830  219.3970 C   0  0  0  0  0  0  0  0  0  0  0  0
  143.5949   68.6316  220.3671 H   0  0  0  0  0  0  0  0  0  0  0  0
  142.9281   69.2772  218.8292 H   0  0  0  0  0  0  0  0  0  0  0  0
  144.4920   68.3935  218.8292 H   0  0  0  0  0  0  0  0  0  0  0  0
  142.7790   71.5070  220.8350 C   0  0  0  0  0  0  0  0  0  0  0  0
  142.3691   70.5574  221.2095 H   0  0  0  0  0  0  0  0  0  0  0  0
  1  2  1  0
  2  3  2  0
  3  4  1  0
  3  5  1  0
  5  6  2  0
  6  7  1  0
  7  8  2  0
  8  9  1  0
  8 10  1  0
 10 11  1  0
 10 12  2  0
 12 13  1  0
 12 14  1  0
 14 15  1  0
 14 16  2  0
 16 17  1  0
 17 18  2  0
 17 19  1  0
 19 20  1  0
 20 21  1  0
 20 22  1  0
 20 23  1  0
 23 24  1  0
 23 25  1  0
 25 26  1  0
 25 27  1  0
 25 28  1  0
 28 29  1  0
 28 30  1  0
 28 31  1  0
 31 32  1  0
 31 33  1  0
 31 34  1  0
 34 35  1  0
 34 36  1  0
 34 37  1  0
 37 38  1  0
 37 39  1  0
  2 40  1  0
 40 41  2  0
 41 42  1  0
 41 43  1  0
 43 44  1  0
 43 45  2  0
 45 46  1  0
 46 47  1  0
 47 48  1  0
 47 49  1  0
 47 50  1  0
 45 51  1  0
 51 52  1  0
 52 53  1  0
 53 54  1  0
 53 55  1  0
 53 56  1  0
 51 57  2  0
 57 58  1  0
 19  5  1  0
 37 23  1  0
 57 40  1  0
 16  7  1  0
M  END
>  <UniqueID>  (11) 
65

>  <SMILES>  (11) 
COc1ccc(/C=C/c2nc3ccccc3c(=O)n2CC2CCCCC2)cc1OC

>  <Energy>  (11) 
74.25401405626954

>  <Genealogy>  (11) 
COc1ccc(/C=C/c2nc3ccccc3c(=O)n2CC2CCCCC2)cc1OC (cis-trans isomerization)
COc1ccc(/C=C/c2nc3ccccc3c(=O)n2CC2CCCCC2)cc1OC (3D coordinates assigned)
COc1ccc(/C=C/c2nc3ccccc3c(=O)n2CC2CCCCC2)cc1OC (nonaromatic ring conformer: 74.25401405626954 kcal/mol)

>  <smiles>  (11) 
COc1ccc(/C=C/c2nc3ccccc3c(=O)n2CC2CCCCC2)cc1OC

>  <score_type>  (11) 
oracle

>  <origin>  (11) 
autodockgpu

>  <m_score__min__energy>  (11) 
-7.5199999999999996

>  <m_primary>  (11) 
energy

>  <meeko>  (11) 
{"free_energy": -7.38, "intermolecular_energy": -9.47, "internal_energy": -1.69, "cluster_size": 7, "cluster_id": 1, "rank_in_cluster": 3}

>  <energy>  (11) 
-7.09

>  <cluster_rmsd>  (11) 
0.0

>  <rmsd>  (11) 
269.77

>  <cluster>  (11) 
3

$$$$
CHYZURNRBYISSB-FYWRMAATNA-N
     RDKit          3D

 58 61  0  0  0  0  0  0  0  0999 V2000
  136.6590   71.5030  221.6344 H   0  0  0  0  0  0  0  0  0  0  0  0
  137.0450   71.5990  222.6600 C   0  0  0  0  0  0  0  0  0  0  0  0
  138.3480   71.3970  222.8930 C   0  0  0  0  0  0  0  0  0  0  0  0
  139.0881   71.7885  222.1795 H   0  0  0  0  0  0  0  0  0  0  0  0
  138.8190   70.6550  224.0950 C   0  0  0  0  0  0  0  0  0  0  0  0
  139.4680   71.3770  225.0510 N   0  0  0  0  0  0  0  0  0  0  0  0
  140.0170   70.8030  226.1390 C   0  0  0  0  0  0  0  0  0  0  0  0
  140.6460   71.5960  227.1070 C   0  0  0  0  0  0  0  0  0  0  0  0
  140.6769   72.6891  226.9877 H   0  0  0  0  0  0  0  0  0  0  0  0
  141.2340   70.9980  228.2240 C   0  0  0  0  0  0  0  0  0  0  0  0
  141.7256   71.6215  228.9852 H   0  0  0  0  0  0  0  0  0  0  0  0
  141.1990   69.6060  228.3770 C   0  0  0  0  0  0  0  0  0  0  0  0
  141.6592   69.1378  229.2597 H   0  0  0  0  0  0  0  0  0  0  0  0
  140.5800   68.8130  227.4090 C   0  0  0  0  0  0  0  0  0  0  0  0
  140.5643   67.7192  227.5243 H   0  0  0  0  0  0  0  0  0  0  0  0
  139.9760   69.4090  226.2860 C   0  0  0  0  0  0  0  0  0  0  0  0
  139.3110   68.6590  225.3070 C   0  0  0  0  0  0  0  0  0  0  0  0
  139.2810   67.3980  225.4110 O   0  0  0  0  0  0  0  0  0  0  0  0
  138.6920   69.2820  224.2440 N   0  0  0  0  0  0  0  0  0  0  0  0
  137.8820   68.4420  223.3270 C   0  0  0  0  0  0  0  0  0  0  0  0
  137.2294   67.7897  223.9259 H   0  0  0  0  0  0  0  0  0  0  0  0
  137.2922   69.1118  222.6839 H   0  0  0  0  0  0  0  0  0  0  0  0
  138.7740   67.5550  222.4090 C   0  0  0  0  0  0  0  0  0  0  0  0
  139.6258   67.2311  223.0250 H   0  0  0  0  0  0  0  0  0  0  0  0
  139.3290   68.3670  221.2040 C   0  0  0  0  0  0  0  0  0  0  0  0
  139.2291   69.4376  221.4361 H   0  0  0  0  0  0  0  0  0  0  0  0
  140.3741   68.0515  221.0692 H   0  0  0  0  0  0  0  0  0  0  0  0
  138.6140   68.0960  219.8670 C   0  0  0  0  0  0  0  0  0  0  0  0
  138.7033   68.9883  219.2299 H   0  0  0  0  0  0  0  0  0  0  0  0
  139.0908   67.2219  219.3993 H   0  0  0  0  0  0  0  0  0  0  0  0
  137.1340   67.7760  220.0610 C   0  0  0  0  0  0  0  0  0  0  0  0
  136.6468   68.6330  220.5492 H   0  0  0  0  0  0  0  0  0  0  0  0
  136.6973   67.5796  219.0707 H   0  0  0  0  0  0  0  0  0  0  0  0
  136.9210   66.5200  220.9320 C   0  0  0  0  0  0  0  0  0  0  0  0
  135.9831   66.6420  221.4937 H   0  0  0  0  0  0  0  0  0  0  0  0
  136.8930   65.6572  220.2502 H   0  0  0  0  0  0  0  0  0  0  0  0
  138.0620   66.2620  221.9390 C   0  0  0  0  0  0  0  0  0  0  0  0
  137.6410   65.7561  222.8204 H   0  0  0  0  0  0  0  0  0  0  0  0
  138.8147   65.6461  221.4250 H   0  0  0  0  0  0  0  0  0  0  0  0
  136.1220   71.9460  223.7470 C   0  0  0  0  0  0  0  0  0  0  0  0
  135.5550   70.9540  224.5580 C   0  0  0  0  0  0  0  0  0  0  0  0
  135.8024   69.8959  224.3870 H   0  0  0  0  0  0  0  0  0  0  0  0
  134.6770   71.3080  225.5820 C   0  0  0  0  0  0  0  0  0  0  0  0
  134.2568   70.5284  226.2344 H   0  0  0  0  0  0  0  0  0  0  0  0
  134.3230   72.6600  225.7880 C   0  0  0  0  0  0  0  0  0  0  0  0
  133.4190   73.0510  226.7890 O   0  0  0  0  0  0  0  0  0  0  0  0
  132.3140   72.2620  227.2200 C   0  0  0  0  0  0  0  0  0  0  0  0
  132.2849   72.2413  228.3194 H   0  0  0  0  0  0  0  0  0  0  0  0
  131.3800   72.6987  226.8367 H   0  0  0  0  0  0  0  0  0  0  0  0
  132.4238   71.2368  226.8367 H   0  0  0  0  0  0  0  0  0  0  0  0
  134.8760   73.6540  224.9660 C   0  0  0  0  0  0  0  0  0  0  0  0
  134.4630   74.9800  225.1600 O   0  0  0  0  0  0  0  0  0  0  0  0
  134.4460   75.6400  226.4260 C   0  0  0  0  0  0  0  0  0  0  0  0
  134.4653   74.8902  227.2307 H   0  0  0  0  0  0  0  0  0  0  0  0
  135.3276   76.2922  226.5113 H   0  0  0  0  0  0  0  0  0  0  0  0
  133.5319   76.2460  226.5113 H   0  0  0  0  0  0  0  0  0  0  0  0
  135.8020   73.2970  223.9680 C   0  0  0  0  0  0  0  0  0  0  0  0
  136.2777   74.0790  223.3579 H   0  0  0  0  0  0  0  0  0  0  0  0
  1  2  1  0
  2  3  2  0
  3  4  1  0
  3  5  1  0
  5  6  2  0
  6  7  1  0
  7  8  2  0
  8  9  1  0
  8 10  1  0
 10 11  1  0
 10 12  2  0
 12 13  1  0
 12 14  1  0
 14 15  1  0
 14 16  2  0
 16 17  1  0
 17 18  2  0
 17 19  1  0
 19 20  1  0
 20 21  1  0
 20 22  1  0
 20 23  1  0
 23 24  1  0
 23 25  1  0
 25 26  1  0
 25 27  1  0
 25 28  1  0
 28 29  1  0
 28 30  1  0
 28 31  1  0
 31 32  1  0
 31 33  1  0
 31 34  1  0
 34 35  1  0
 34 36  1  0
 34 37  1  0
 37 38  1  0
 37 39  1  0
  2 40  1  0
 40 41  2  0
 41 42  1  0
 41 43  1  0
 43 44  1  0
 43 45  2  0
 45 46  1  0
 46 47  1  0
 47 48  1  0
 47 49  1  0
 47 50  1  0
 45 51  1  0
 51 52  1  0
 52 53  1  0
 53 54  1  0
 53 55  1  0
 53 56  1  0
 51 57  2  0
 57 58  1  0
 19  5  1  0
 37 23  1  0
 57 40  1  0
 16  7  1  0
M  END
>  <UniqueID>  (12) 
65

>  <SMILES>  (12) 
COc1ccc(/C=C/c2nc3ccccc3c(=O)n2CC2CCCCC2)cc1OC

>  <Energy>  (12) 
74.25401405626954

>  <Genealogy>  (12) 
COc1ccc(/C=C/c2nc3ccccc3c(=O)n2CC2CCCCC2)cc1OC (cis-trans isomerization)
COc1ccc(/C=C/c2nc3ccccc3c(=O)n2CC2CCCCC2)cc1OC (3D coordinates assigned)
COc1ccc(/C=C/c2nc3ccccc3c(=O)n2CC2CCCCC2)cc1OC (nonaromatic ring conformer: 74.25401405626954 kcal/mol)

>  <smiles>  (12) 
COc1ccc(/C=C/c2nc3ccccc3c(=O)n2CC2CCCCC2)cc1OC

>  <score_type>  (12) 
oracle

>  <origin>  (12) 
autodockgpu

>  <m_score__min__energy>  (12) 
-7.5199999999999996

>  <m_primary>  (12) 
energy

>  <meeko>  (12) 
{"free_energy": -7.02, "intermolecular_energy": -9.1, "internal_energy": -1.82, "cluster_size": 3, "cluster_id": 5, "rank_in_cluster": 1}

>  <energy>  (12) 
-7.06

>  <cluster_rmsd>  (12) 
1.24

>  <rmsd>  (12) 
269.71

>  <cluster>  (12) 
3

$$$$
CHYZURNRBYISSB-FYWRMAATNA-N
     RDKit          3D

 58 61  0  0  0  0  0  0  0  0999 V2000
  136.2941   76.1054  221.7819 H   0  0  0  0  0  0  0  0  0  0  0  0
  136.7120   75.9180  222.7820 C   0  0  0  0  0  0  0  0  0  0  0  0
  137.9200   76.4050  223.0900 C   0  0  0  0  0  0  0  0  0  0  0  0
  138.0152   77.1191  223.9213 H   0  0  0  0  0  0  0  0  0  0  0  0
  139.1380   76.0030  222.3340 C   0  0  0  0  0  0  0  0  0  0  0  0
  139.4000   74.6690  222.2510 N   0  0  0  0  0  0  0  0  0  0  0  0
  140.5170   74.1880  221.6700 C   0  0  0  0  0  0  0  0  0  0  0  0
  140.7220   72.8060  221.5850 C   0  0  0  0  0  0  0  0  0  0  0  0
  139.9639   72.1118  221.9766 H   0  0  0  0  0  0  0  0  0  0  0  0
  141.8910   72.3090  221.0020 C   0  0  0  0  0  0  0  0  0  0  0  0
  142.0508   71.2229  220.9331 H   0  0  0  0  0  0  0  0  0  0  0  0
  142.8600   73.1910  220.5050 C   0  0  0  0  0  0  0  0  0  0  0  0
  143.7768   72.7973  220.0419 H   0  0  0  0  0  0  0  0  0  0  0  0
  142.6610   74.5700  220.5980 C   0  0  0  0  0  0  0  0  0  0  0  0
  143.4285   75.2615  220.2201 H   0  0  0  0  0  0  0  0  0  0  0  0
  141.4810   75.0780  221.1740 C   0  0  0  0  0  0  0  0  0  0  0  0
  141.2190   76.4520  221.2560 C   0  0  0  0  0  0  0  0  0  0  0  0
  142.0850   77.2710  220.8310 O   0  0  0  0  0  0  0  0  0  0  0  0
  140.0320   76.9110  221.7860 N   0  0  0  0  0  0  0  0  0  0  0  0
  139.7570   78.3670  221.7060 C   0  0  0  0  0  0  0  0  0  0  0  0
  140.4062   78.8094  220.9360 H   0  0  0  0  0  0  0  0  0  0  0  0
  138.6945   78.4991  221.4539 H   0  0  0  0  0  0  0  0  0  0  0  0
  140.0230   79.0850  223.0610 C   0  0  0  0  0  0  0  0  0  0  0  0
  139.2834   78.6864  223.7710 H   0  0  0  0  0  0  0  0  0  0  0  0
  139.8020   80.6200  222.9420 C   0  0  0  0  0  0  0  0  0  0  0  0
  139.2138   80.8127  222.0327 H   0  0  0  0  0  0  0  0  0  0  0  0
  139.2877   80.9337  223.8624 H   0  0  0  0  0  0  0  0  0  0  0  0
  141.0980   81.4490  222.8610 C   0  0  0  0  0  0  0  0  0  0  0  0
  140.8897   82.3806  222.3144 H   0  0  0  0  0  0  0  0  0  0  0  0
  141.4330   81.6557  223.8882 H   0  0  0  0  0  0  0  0  0  0  0  0
  142.2160   80.6970  222.1440 C   0  0  0  0  0  0  0  0  0  0  0  0
  141.8866   80.4628  221.1210 H   0  0  0  0  0  0  0  0  0  0  0  0
  143.1079   81.3408  222.1385 H   0  0  0  0  0  0  0  0  0  0  0  0
  142.5840   79.3810  222.8620 C   0  0  0  0  0  0  0  0  0  0  0  0
  142.9148   78.6537  222.1059 H   0  0  0  0  0  0  0  0  0  0  0  0
  143.3748   79.6213  223.5878 H   0  0  0  0  0  0  0  0  0  0  0  0
  141.4160   78.7600  223.6570 C   0  0  0  0  0  0  0  0  0  0  0  0
  141.5440   77.6675  223.6682 H   0  0  0  0  0  0  0  0  0  0  0  0
  141.4453   79.1930  224.6678 H   0  0  0  0  0  0  0  0  0  0  0  0
  135.9340   75.1390  223.7520 C   0  0  0  0  0  0  0  0  0  0  0  0
  135.7260   73.7650  223.5750 C   0  0  0  0  0  0  0  0  0  0  0  0
  136.1506   73.2534  222.6986 H   0  0  0  0  0  0  0  0  0  0  0  0
  134.9810   73.0450  224.5090 C   0  0  0  0  0  0  0  0  0  0  0  0
  134.8458   71.9609  224.3809 H   0  0  0  0  0  0  0  0  0  0  0  0
  134.3990   73.6980  225.6180 C   0  0  0  0  0  0  0  0  0  0  0  0
  133.6170   73.0140  226.5610 O   0  0  0  0  0  0  0  0  0  0  0  0
  133.8460   71.6670  226.9630 C   0  0  0  0  0  0  0  0  0  0  0  0
  133.8559   71.6088  228.0614 H   0  0  0  0  0  0  0  0  0  0  0  0
  133.0440   71.0254  226.5690 H   0  0  0  0  0  0  0  0  0  0  0  0
  134.8149   71.3264  226.5690 H   0  0  0  0  0  0  0  0  0  0  0  0
  134.5910   75.0790  225.7890 C   0  0  0  0  0  0  0  0  0  0  0  0
  133.9550   75.7070  226.8690 O   0  0  0  0  0  0  0  0  0  0  0  0
  132.5400   75.8550  226.9950 C   0  0  0  0  0  0  0  0  0  0  0  0
  132.2677   75.8835  228.0604 H   0  0  0  0  0  0  0  0  0  0  0  0
  132.2247   76.7910  226.5108 H   0  0  0  0  0  0  0  0  0  0  0  0
  132.0378   75.0045  226.5108 H   0  0  0  0  0  0  0  0  0  0  0  0
  135.3870   75.7900  224.8730 C   0  0  0  0  0  0  0  0  0  0  0  0
  135.5829   76.8604  225.0338 H   0  0  0  0  0  0  0  0  0  0  0  0
  1  2  1  0
  2  3  2  0
  3  4  1  0
  3  5  1  0
  5  6  2  0
  6  7  1  0
  7  8  2  0
  8  9  1  0
  8 10  1  0
 10 11  1  0
 10 12  2  0
 12 13  1  0
 12 14  1  0
 14 15  1  0
 14 16  2  0
 16 17  1  0
 17 18  2  0
 17 19  1  0
 19 20  1  0
 20 21  1  0
 20 22  1  0
 20 23  1  0
 23 24  1  0
 23 25  1  0
 25 26  1  0
 25 27  1  0
 25 28  1  0
 28 29  1  0
 28 30  1  0
 28 31  1  0
 31 32  1  0
 31 33  1  0
 31 34  1  0
 34 35  1  0
 34 36  1  0
 34 37  1  0
 37 38  1  0
 37 39  1  0
  2 40  1  0
 40 41  2  0
 41 42  1  0
 41 43  1  0
 43 44  1  0
 43 45  2  0
 45 46  1  0
 46 47  1  0
 47 48  1  0
 47 49  1  0
 47 50  1  0
 45 51  1  0
 51 52  1  0
 52 53  1  0
 53 54  1  0
 53 55  1  0
 53 56  1  0
 51 57  2  0
 57 58  1  0
 19  5  1  0
 37 23  1  0
 57 40  1  0
 16  7  1  0
M  END
>  <UniqueID>  (13) 
65

>  <SMILES>  (13) 
COc1ccc(/C=C/c2nc3ccccc3c(=O)n2CC2CCCCC2)cc1OC

>  <Energy>  (13) 
74.25401405626954

>  <Genealogy>  (13) 
COc1ccc(/C=C/c2nc3ccccc3c(=O)n2CC2CCCCC2)cc1OC (cis-trans isomerization)
COc1ccc(/C=C/c2nc3ccccc3c(=O)n2CC2CCCCC2)cc1OC (3D coordinates assigned)
COc1ccc(/C=C/c2nc3ccccc3c(=O)n2CC2CCCCC2)cc1OC (nonaromatic ring conformer: 74.25401405626954 kcal/mol)

>  <smiles>  (13) 
COc1ccc(/C=C/c2nc3ccccc3c(=O)n2CC2CCCCC2)cc1OC

>  <score_type>  (13) 
oracle

>  <origin>  (13) 
autodockgpu

>  <m_score__min__energy>  (13) 
-7.5199999999999996

>  <m_primary>  (13) 
energy

>  <meeko>  (13) 
{"free_energy": -7.46, "intermolecular_energy": -9.55, "internal_energy": -1.54, "cluster_size": 3, "cluster_id": 2, "rank_in_cluster": 1}

>  <energy>  (13) 
-7.05

>  <cluster_rmsd>  (13) 
1.1

>  <rmsd>  (13) 
269.73

>  <cluster>  (13) 
3

$$$$
CHYZURNRBYISSB-FYWRMAATNA-N
     RDKit          3D

 58 61  0  0  0  0  0  0  0  0999 V2000
  136.3023   75.8404  221.7783 H   0  0  0  0  0  0  0  0  0  0  0  0
  136.6800   75.8110  222.8110 C   0  0  0  0  0  0  0  0  0  0  0  0
  137.8560   76.3820  223.0960 C   0  0  0  0  0  0  0  0  0  0  0  0
  137.9142   77.1089  223.9195 H   0  0  0  0  0  0  0  0  0  0  0  0
  139.0880   76.0570  222.3250 C   0  0  0  0  0  0  0  0  0  0  0  0
  139.4120   74.7390  222.2090 N   0  0  0  0  0  0  0  0  0  0  0  0
  140.5470   74.3250  221.6140 C   0  0  0  0  0  0  0  0  0  0  0  0
  140.8180   72.9570  221.4940 C   0  0  0  0  0  0  0  0  0  0  0  0
  140.0957   72.2181  221.8713 H   0  0  0  0  0  0  0  0  0  0  0  0
  142.0060   72.5300  220.8950 C   0  0  0  0  0  0  0  0  0  0  0  0
  142.2167   71.4546  220.7995 H   0  0  0  0  0  0  0  0  0  0  0  0
  142.9290   73.4680  220.4160 C   0  0  0  0  0  0  0  0  0  0  0  0
  143.8617   73.1292  219.9414 H   0  0  0  0  0  0  0  0  0  0  0  0
  142.6650   74.8330  220.5410 C   0  0  0  0  0  0  0  0  0  0  0  0
  143.3964   75.5687  220.1753 H   0  0  0  0  0  0  0  0  0  0  0  0
  141.4650   75.2710  221.1340 C   0  0  0  0  0  0  0  0  0  0  0  0
  141.1390   76.6290  221.2490 C   0  0  0  0  0  0  0  0  0  0  0  0
  141.9630   77.4980  220.8410 O   0  0  0  0  0  0  0  0  0  0  0  0
  139.9340   77.0190  221.7950 N   0  0  0  0  0  0  0  0  0  0  0  0
  139.5900   78.4620  221.7510 C   0  0  0  0  0  0  0  0  0  0  0  0
  140.1881   78.9460  220.9649 H   0  0  0  0  0  0  0  0  0  0  0  0
  138.5136   78.5488  221.5417 H   0  0  0  0  0  0  0  0  0  0  0  0
  139.8750   79.1700  223.1070 C   0  0  0  0  0  0  0  0  0  0  0  0
  139.1327   78.7817  223.8199 H   0  0  0  0  0  0  0  0  0  0  0  0
  139.6800   80.7090  222.9930 C   0  0  0  0  0  0  0  0  0  0  0  0
  139.0922   80.9143  222.0862 H   0  0  0  0  0  0  0  0  0  0  0  0
  139.1741   81.0289  223.9159 H   0  0  0  0  0  0  0  0  0  0  0  0
  140.9900   81.5160  222.9100 C   0  0  0  0  0  0  0  0  0  0  0  0
  140.7957   82.4533  222.3680 H   0  0  0  0  0  0  0  0  0  0  0  0
  141.3327   81.7129  223.9365 H   0  0  0  0  0  0  0  0  0  0  0  0
  142.0920   80.7470  222.1850 C   0  0  0  0  0  0  0  0  0  0  0  0
  141.7541   80.5222  221.1626 H   0  0  0  0  0  0  0  0  0  0  0  0
  142.9950   81.3751  222.1776 H   0  0  0  0  0  0  0  0  0  0  0  0
  142.4400   79.4220  222.8970 C   0  0  0  0  0  0  0  0  0  0  0  0
  142.7548   78.6916  222.1371 H   0  0  0  0  0  0  0  0  0  0  0  0
  143.2382   79.6456  223.6201 H   0  0  0  0  0  0  0  0  0  0  0  0
  141.2640   78.8190  223.6950 C   0  0  0  0  0  0  0  0  0  0  0  0
  141.3728   77.7244  223.7020 H   0  0  0  0  0  0  0  0  0  0  0  0
  141.3053   79.2485  224.7069 H   0  0  0  0  0  0  0  0  0  0  0  0
  135.8840   75.1460  223.8500 C   0  0  0  0  0  0  0  0  0  0  0  0
  135.5580   73.7870  223.7510 C   0  0  0  0  0  0  0  0  0  0  0  0
  135.9017   73.2003  222.8863 H   0  0  0  0  0  0  0  0  0  0  0  0
  134.7970   73.1780  224.7500 C   0  0  0  0  0  0  0  0  0  0  0  0
  134.5671   72.1044  224.6831 H   0  0  0  0  0  0  0  0  0  0  0  0
  134.3200   73.9300  225.8460 C   0  0  0  0  0  0  0  0  0  0  0  0
  133.5260   73.3590  226.8540 O   0  0  0  0  0  0  0  0  0  0  0  0
  132.1110   73.2170  226.7720 C   0  0  0  0  0  0  0  0  0  0  0  0
  131.6874   73.1745  227.7863 H   0  0  0  0  0  0  0  0  0  0  0  0
  131.6868   74.0771  226.2332 H   0  0  0  0  0  0  0  0  0  0  0  0
  131.8661   72.2898  226.2332 H   0  0  0  0  0  0  0  0  0  0  0  0
  134.6300   75.2960  225.9380 C   0  0  0  0  0  0  0  0  0  0  0  0
  134.0950   76.0260  227.0090 O   0  0  0  0  0  0  0  0  0  0  0  0
  132.7760   76.5740  227.0300 C   0  0  0  0  0  0  0  0  0  0  0  0
  132.4515   76.7088  228.0724 H   0  0  0  0  0  0  0  0  0  0  0  0
  132.7750   77.5470  226.5169 H   0  0  0  0  0  0  0  0  0  0  0  0
  132.0858   75.8882  226.5169 H   0  0  0  0  0  0  0  0  0  0  0  0
  135.4410   75.8930  224.9560 C   0  0  0  0  0  0  0  0  0  0  0  0
  135.7302   76.9498  225.0537 H   0  0  0  0  0  0  0  0  0  0  0  0
  1  2  1  0
  2  3  2  0
  3  4  1  0
  3  5  1  0
  5  6  2  0
  6  7  1  0
  7  8  2  0
  8  9  1  0
  8 10  1  0
 10 11  1  0
 10 12  2  0
 12 13  1  0
 12 14  1  0
 14 15  1  0
 14 16  2  0
 16 17  1  0
 17 18  2  0
 17 19  1  0
 19 20  1  0
 20 21  1  0
 20 22  1  0
 20 23  1  0
 23 24  1  0
 23 25  1  0
 25 26  1  0
 25 27  1  0
 25 28  1  0
 28 29  1  0
 28 30  1  0
 28 31  1  0
 31 32  1  0
 31 33  1  0
 31 34  1  0
 34 35  1  0
 34 36  1  0
 34 37  1  0
 37 38  1  0
 37 39  1  0
  2 40  1  0
 40 41  2  0
 41 42  1  0
 41 43  1  0
 43 44  1  0
 43 45  2  0
 45 46  1  0
 46 47  1  0
 47 48  1  0
 47 49  1  0
 47 50  1  0
 45 51  1  0
 51 52  1  0
 52 53  1  0
 53 54  1  0
 53 55  1  0
 53 56  1  0
 51 57  2  0
 57 58  1  0
 19  5  1  0
 37 23  1  0
 57 40  1  0
 16  7  1  0
M  END
>  <UniqueID>  (14) 
65

>  <SMILES>  (14) 
COc1ccc(/C=C/c2nc3ccccc3c(=O)n2CC2CCCCC2)cc1OC

>  <Energy>  (14) 
74.25401405626954

>  <Genealogy>  (14) 
COc1ccc(/C=C/c2nc3ccccc3c(=O)n2CC2CCCCC2)cc1OC (cis-trans isomerization)
COc1ccc(/C=C/c2nc3ccccc3c(=O)n2CC2CCCCC2)cc1OC (3D coordinates assigned)
COc1ccc(/C=C/c2nc3ccccc3c(=O)n2CC2CCCCC2)cc1OC (nonaromatic ring conformer: 74.25401405626954 kcal/mol)

>  <smiles>  (14) 
COc1ccc(/C=C/c2nc3ccccc3c(=O)n2CC2CCCCC2)cc1OC

>  <score_type>  (14) 
oracle

>  <origin>  (14) 
autodockgpu

>  <m_score__min__energy>  (14) 
-7.5199999999999996

>  <m_primary>  (14) 
energy

>  <meeko>  (14) 
{"free_energy": -7.45, "intermolecular_energy": -9.54, "internal_energy": -1.48, "cluster_size": 3, "cluster_id": 2, "rank_in_cluster": 3}

>  <energy>  (14) 
-6.92

>  <cluster_rmsd>  (14) 
1.02

>  <rmsd>  (14) 
269.75

>  <cluster>  (14) 
3

$$$$
CHYZURNRBYISSB-FYWRMAATNA-N
     RDKit          3D

 58 61  0  0  0  0  0  0  0  0999 V2000
  136.2775   76.0883  221.8033 H   0  0  0  0  0  0  0  0  0  0  0  0
  136.7090   75.9140  222.8000 C   0  0  0  0  0  0  0  0  0  0  0  0
  137.9120   76.4230  223.0920 C   0  0  0  0  0  0  0  0  0  0  0  0
  138.0019   77.1524  223.9105 H   0  0  0  0  0  0  0  0  0  0  0  0
  139.1310   76.0260  222.3360 C   0  0  0  0  0  0  0  0  0  0  0  0
  139.3970   74.6920  222.2500 N   0  0  0  0  0  0  0  0  0  0  0  0
  140.5150   74.2160  221.6700 C   0  0  0  0  0  0  0  0  0  0  0  0
  140.7240   72.8340  221.5820 C   0  0  0  0  0  0  0  0  0  0  0  0
  139.9677   72.1369  221.9719 H   0  0  0  0  0  0  0  0  0  0  0  0
  141.8950   72.3410  220.9980 C   0  0  0  0  0  0  0  0  0  0  0  0
  142.0579   71.2555  220.9264 H   0  0  0  0  0  0  0  0  0  0  0  0
  142.8610   73.2270  220.5040 C   0  0  0  0  0  0  0  0  0  0  0  0
  143.7798   72.8368  220.0418 H   0  0  0  0  0  0  0  0  0  0  0  0
  142.6580   74.6050  220.5980 C   0  0  0  0  0  0  0  0  0  0  0  0
  143.4233   75.2991  220.2204 H   0  0  0  0  0  0  0  0  0  0  0  0
  141.4760   75.1090  221.1750 C   0  0  0  0  0  0  0  0  0  0  0  0
  141.2110   76.4820  221.2590 C   0  0  0  0  0  0  0  0  0  0  0  0
  142.0750   77.3040  220.8360 O   0  0  0  0  0  0  0  0  0  0  0  0
  140.0220   76.9370  221.7890 N   0  0  0  0  0  0  0  0  0  0  0  0
  139.7440   78.3930  221.7120 C   0  0  0  0  0  0  0  0  0  0  0  0
  140.3871   78.8369  220.9378 H   0  0  0  0  0  0  0  0  0  0  0  0
  138.6794   78.5232  221.4677 H   0  0  0  0  0  0  0  0  0  0  0  0
  140.0180   79.1110  223.0650 C   0  0  0  0  0  0  0  0  0  0  0  0
  139.2855   78.7105  223.7812 H   0  0  0  0  0  0  0  0  0  0  0  0
  139.7920   80.6450  222.9470 C   0  0  0  0  0  0  0  0  0  0  0  0
  139.1971   80.8356  222.0416 H   0  0  0  0  0  0  0  0  0  0  0  0
  139.2834   80.9573  223.8710 H   0  0  0  0  0  0  0  0  0  0  0  0
  141.0840   81.4780  222.8570 C   0  0  0  0  0  0  0  0  0  0  0  0
  140.8687   82.4091  222.3122 H   0  0  0  0  0  0  0  0  0  0  0  0
  141.4257   81.6857  223.8817 H   0  0  0  0  0  0  0  0  0  0  0  0
  142.2000   80.7290  222.1310 C   0  0  0  0  0  0  0  0  0  0  0  0
  141.8641   80.4944  221.1101 H   0  0  0  0  0  0  0  0  0  0  0  0
  143.0902   81.3751  222.1192 H   0  0  0  0  0  0  0  0  0  0  0  0
  142.5760   79.4140  222.8460 C   0  0  0  0  0  0  0  0  0  0  0  0
  142.9031   78.6877  222.0874 H   0  0  0  0  0  0  0  0  0  0  0  0
  143.3713   79.6563  223.5663 H   0  0  0  0  0  0  0  0  0  0  0  0
  141.4160   78.7900  223.6490 C   0  0  0  0  0  0  0  0  0  0  0  0
  141.5470   77.6979  223.6586 H   0  0  0  0  0  0  0  0  0  0  0  0
  141.4520   79.2232  224.6595 H   0  0  0  0  0  0  0  0  0  0  0  0
  135.9540   75.1280  223.7830 C   0  0  0  0  0  0  0  0  0  0  0  0
  135.7800   73.7470  223.6250 C   0  0  0  0  0  0  0  0  0  0  0  0
  136.2147   73.2345  222.7541 H   0  0  0  0  0  0  0  0  0  0  0  0
  135.0560   73.0210  224.5710 C   0  0  0  0  0  0  0  0  0  0  0  0
  134.9456   71.9325  224.4568 H   0  0  0  0  0  0  0  0  0  0  0  0
  134.4640   73.6740  225.6740 C   0  0  0  0  0  0  0  0  0  0  0  0
  133.7020   72.9830  226.6300 O   0  0  0  0  0  0  0  0  0  0  0  0
  132.3010   73.1600  226.8170 C   0  0  0  0  0  0  0  0  0  0  0  0
  132.0754   73.1885  227.8933 H   0  0  0  0  0  0  0  0  0  0  0  0
  131.9854   74.1052  226.3511 H   0  0  0  0  0  0  0  0  0  0  0  0
  131.7603   72.3230  226.3511 H   0  0  0  0  0  0  0  0  0  0  0  0
  134.6220   75.0610  225.8270 C   0  0  0  0  0  0  0  0  0  0  0  0
  133.9760   75.6870  226.9020 O   0  0  0  0  0  0  0  0  0  0  0  0
  133.2020   76.8830  226.7900 C   0  0  0  0  0  0  0  0  0  0  0  0
  132.9592   77.2581  227.7952 H   0  0  0  0  0  0  0  0  0  0  0  0
  133.7795   77.6437  226.2443 H   0  0  0  0  0  0  0  0  0  0  0  0
  132.2715   76.6678  226.2443 H   0  0  0  0  0  0  0  0  0  0  0  0
  135.3970   75.7790  224.8980 C   0  0  0  0  0  0  0  0  0  0  0  0
  135.5682   76.8557  225.0447 H   0  0  0  0  0  0  0  0  0  0  0  0
  1  2  1  0
  2  3  2  0
  3  4  1  0
  3  5  1  0
  5  6  2  0
  6  7  1  0
  7  8  2  0
  8  9  1  0
  8 10  1  0
 10 11  1  0
 10 12  2  0
 12 13  1  0
 12 14  1  0
 14 15  1  0
 14 16  2  0
 16 17  1  0
 17 18  2  0
 17 19  1  0
 19 20  1  0
 20 21  1  0
 20 22  1  0
 20 23  1  0
 23 24  1  0
 23 25  1  0
 25 26  1  0
 25 27  1  0
 25 28  1  0
 28 29  1  0
 28 30  1  0
 28 31  1  0
 31 32  1  0
 31 33  1  0
 31 34  1  0
 34 35  1  0
 34 36  1  0
 34 37  1  0
 37 38  1  0
 37 39  1  0
  2 40  1  0
 40 41  2  0
 41 42  1  0
 41 43  1  0
 43 44  1  0
 43 45  2  0
 45 46  1  0
 46 47  1  0
 47 48  1  0
 47 49  1  0
 47 50  1  0
 45 51  1  0
 51 52  1  0
 52 53  1  0
 53 54  1  0
 53 55  1  0
 53 56  1  0
 51 57  2  0
 57 58  1  0
 19  5  1  0
 37 23  1  0
 57 40  1  0
 16  7  1  0
M  END
>  <UniqueID>  (15) 
65

>  <SMILES>  (15) 
COc1ccc(/C=C/c2nc3ccccc3c(=O)n2CC2CCCCC2)cc1OC

>  <Energy>  (15) 
74.25401405626954

>  <Genealogy>  (15) 
COc1ccc(/C=C/c2nc3ccccc3c(=O)n2CC2CCCCC2)cc1OC (cis-trans isomerization)
COc1ccc(/C=C/c2nc3ccccc3c(=O)n2CC2CCCCC2)cc1OC (3D coordinates assigned)
COc1ccc(/C=C/c2nc3ccccc3c(=O)n2CC2CCCCC2)cc1OC (nonaromatic ring conformer: 74.25401405626954 kcal/mol)

>  <smiles>  (15) 
COc1ccc(/C=C/c2nc3ccccc3c(=O)n2CC2CCCCC2)cc1OC

>  <score_type>  (15) 
oracle

>  <origin>  (15) 
autodockgpu

>  <m_score__min__energy>  (15) 
-7.5199999999999996

>  <m_primary>  (15) 
energy

>  <meeko>  (15) 
{"free_energy": -7.46, "intermolecular_energy": -9.54, "internal_energy": -1.53, "cluster_size": 3, "cluster_id": 2, "rank_in_cluster": 2}

>  <energy>  (15) 
-6.86

>  <cluster_rmsd>  (15) 
0.94

>  <rmsd>  (15) 
269.58

>  <cluster>  (15) 
3

$$$$
CHYZURNRBYISSB-FYWRMAATNA-N
     RDKit          3D

 58 61  0  0  0  0  0  0  0  0999 V2000
  138.8874   73.3957  222.1066 H   0  0  0  0  0  0  0  0  0  0  0  0
  139.5500   72.5270  221.9790 C   0  0  0  0  0  0  0  0  0  0  0  0
  139.0950   71.3050  222.2820 C   0  0  0  0  0  0  0  0  0  0  0  0
  138.5505   70.7299  221.5186 H   0  0  0  0  0  0  0  0  0  0  0  0
  139.3090   70.7060  223.6290 C   0  0  0  0  0  0  0  0  0  0  0  0
  139.9020   71.4950  224.5680 N   0  0  0  0  0  0  0  0  0  0  0  0
  140.2280   71.0380  225.7920 C   0  0  0  0  0  0  0  0  0  0  0  0
  140.8080   71.9000  226.7300 C   0  0  0  0  0  0  0  0  0  0  0  0
  140.9828   72.9553  226.4734 H   0  0  0  0  0  0  0  0  0  0  0  0
  141.1650   71.4190  227.9930 C   0  0  0  0  0  0  0  0  0  0  0  0
  141.6187   72.0972  228.7306 H   0  0  0  0  0  0  0  0  0  0  0  0
  140.9460   70.0750  228.3210 C   0  0  0  0  0  0  0  0  0  0  0  0
  141.2233   69.6997  229.3171 H   0  0  0  0  0  0  0  0  0  0  0  0
  140.3760   69.2120  227.3840 C   0  0  0  0  0  0  0  0  0  0  0  0
  140.2170   68.1538  227.6389 H   0  0  0  0  0  0  0  0  0  0  0  0
  140.0040   69.6910  226.1140 C   0  0  0  0  0  0  0  0  0  0  0  0
  139.3940   68.8730  225.1540 C   0  0  0  0  0  0  0  0  0  0  0  0
  139.2020   67.6500  225.4180 O   0  0  0  0  0  0  0  0  0  0  0  0
  139.0020   69.3890  223.9370 N   0  0  0  0  0  0  0  0  0  0  0  0
  138.2310   68.5050  223.0270 C   0  0  0  0  0  0  0  0  0  0  0  0
  137.5427   67.8913  223.6267 H   0  0  0  0  0  0  0  0  0  0  0  0
  137.6811   69.1423  222.3189 H   0  0  0  0  0  0  0  0  0  0  0  0
  139.1590   67.5630  222.2060 C   0  0  0  0  0  0  0  0  0  0  0  0
  140.0702   67.4271  222.8069 H   0  0  0  0  0  0  0  0  0  0  0  0
  139.5640   68.2090  220.8500 C   0  0  0  0  0  0  0  0  0  0  0  0
  139.3677   69.2896  220.9122 H   0  0  0  0  0  0  0  0  0  0  0  0
  140.6273   67.9726  220.6966 H   0  0  0  0  0  0  0  0  0  0  0  0
  138.8110   67.6530  219.6260 C   0  0  0  0  0  0  0  0  0  0  0  0
  138.7752   68.4301  218.8483 H   0  0  0  0  0  0  0  0  0  0  0  0
  139.3489   66.7607  219.2734 H   0  0  0  0  0  0  0  0  0  0  0  0
  137.3830   67.2360  219.9720 C   0  0  0  0  0  0  0  0  0  0  0  0
  136.8383   68.1142  220.3491 H   0  0  0  0  0  0  0  0  0  0  0  0
  136.9151   66.8385  219.0593 H   0  0  0  0  0  0  0  0  0  0  0  0
  137.3470   66.1280  221.0470 C   0  0  0  0  0  0  0  0  0  0  0  0
  136.4326   66.2542  221.6452 H   0  0  0  0  0  0  0  0  0  0  0  0
  137.3721   65.1647  220.5165 H   0  0  0  0  0  0  0  0  0  0  0  0
  138.5600   66.1490  222.0010 C   0  0  0  0  0  0  0  0  0  0  0  0
  138.2405   65.7608  222.9794 H   0  0  0  0  0  0  0  0  0  0  0  0
  139.3438   65.5283  221.5423 H   0  0  0  0  0  0  0  0  0  0  0  0
  140.9150   72.7310  221.4800 C   0  0  0  0  0  0  0  0  0  0  0  0
  141.4200   74.0190  221.2630 C   0  0  0  0  0  0  0  0  0  0  0  0
  140.7919   74.8981  221.4694 H   0  0  0  0  0  0  0  0  0  0  0  0
  142.7200   74.1870  220.7850 C   0  0  0  0  0  0  0  0  0  0  0  0
  143.1224   75.2009  220.6431 H   0  0  0  0  0  0  0  0  0  0  0  0
  143.5230   73.0660  220.4820 C   0  0  0  0  0  0  0  0  0  0  0  0
  144.8240   73.1950  219.9700 O   0  0  0  0  0  0  0  0  0  0  0  0
  145.9620   73.5340  220.7560 C   0  0  0  0  0  0  0  0  0  0  0  0
  145.7064   73.4579  221.8232 H   0  0  0  0  0  0  0  0  0  0  0  0
  146.7858   72.8422  220.5260 H   0  0  0  0  0  0  0  0  0  0  0  0
  146.2729   74.5638  220.5260 H   0  0  0  0  0  0  0  0  0  0  0  0
  143.0130   71.7730  220.6820 C   0  0  0  0  0  0  0  0  0  0  0  0
  143.8140   70.6810  220.3200 O   0  0  0  0  0  0  0  0  0  0  0  0
  143.4380   69.6890  219.3630 C   0  0  0  0  0  0  0  0  0  0  0  0
  143.0953   68.7848  219.8875 H   0  0  0  0  0  0  0  0  0  0  0  0
  142.6248   70.0775  218.7324 H   0  0  0  0  0  0  0  0  0  0  0  0
  144.3045   69.4409  218.7324 H   0  0  0  0  0  0  0  0  0  0  0  0
  141.7210   71.6090  221.2140 C   0  0  0  0  0  0  0  0  0  0  0  0
  141.3392   70.5988  221.4230 H   0  0  0  0  0  0  0  0  0  0  0  0
  1  2  1  0
  2  3  2  0
  3  4  1  0
  3  5  1  0
  5  6  2  0
  6  7  1  0
  7  8  2  0
  8  9  1  0
  8 10  1  0
 10 11  1  0
 10 12  2  0
 12 13  1  0
 12 14  1  0
 14 15  1  0
 14 16  2  0
 16 17  1  0
 17 18  2  0
 17 19  1  0
 19 20  1  0
 20 21  1  0
 20 22  1  0
 20 23  1  0
 23 24  1  0
 23 25  1  0
 25 26  1  0
 25 27  1  0
 25 28  1  0
 28 29  1  0
 28 30  1  0
 28 31  1  0
 31 32  1  0
 31 33  1  0
 31 34  1  0
 34 35  1  0
 34 36  1  0
 34 37  1  0
 37 38  1  0
 37 39  1  0
  2 40  1  0
 40 41  2  0
 41 42  1  0
 41 43  1  0
 43 44  1  0
 43 45  2  0
 45 46  1  0
 46 47  1  0
 47 48  1  0
 47 49  1  0
 47 50  1  0
 45 51  1  0
 51 52  1  0
 52 53  1  0
 53 54  1  0
 53 55  1  0
 53 56  1  0
 51 57  2  0
 57 58  1  0
 19  5  1  0
 37 23  1  0
 57 40  1  0
 16  7  1  0
M  END
>  <UniqueID>  (16) 
65

>  <SMILES>  (16) 
COc1ccc(/C=C/c2nc3ccccc3c(=O)n2CC2CCCCC2)cc1OC

>  <Energy>  (16) 
74.25401405626954

>  <Genealogy>  (16) 
COc1ccc(/C=C/c2nc3ccccc3c(=O)n2CC2CCCCC2)cc1OC (cis-trans isomerization)
COc1ccc(/C=C/c2nc3ccccc3c(=O)n2CC2CCCCC2)cc1OC (3D coordinates assigned)
COc1ccc(/C=C/c2nc3ccccc3c(=O)n2CC2CCCCC2)cc1OC (nonaromatic ring conformer: 74.25401405626954 kcal/mol)

>  <smiles>  (16) 
COc1ccc(/C=C/c2nc3ccccc3c(=O)n2CC2CCCCC2)cc1OC

>  <score_type>  (16) 
oracle

>  <origin>  (16) 
autodockgpu

>  <m_score__min__energy>  (16) 
-7.5199999999999996

>  <m_primary>  (16) 
energy

>  <meeko>  (16) 
{"free_energy": -7.05, "intermolecular_energy": -9.14, "internal_energy": -1.75, "cluster_size": 7, "cluster_id": 1, "rank_in_cluster": 6}

>  <energy>  (16) 
-7.03

>  <cluster_rmsd>  (16) 
0.0

>  <rmsd>  (16) 
269.93

>  <cluster>  (16) 
4

$$$$
CHYZURNRBYISSB-FYWRMAATNA-N
     RDKit          3D

 58 61  0  0  0  0  0  0  0  0999 V2000
  140.2240   70.4722  220.7425 H   0  0  0  0  0  0  0  0  0  0  0  0
  140.8710   71.2710  221.1340 C   0  0  0  0  0  0  0  0  0  0  0  0
  140.4970   71.9390  222.2320 C   0  0  0  0  0  0  0  0  0  0  0  0
  140.3932   73.0331  222.1856 H   0  0  0  0  0  0  0  0  0  0  0  0
  140.2180   71.2360  223.5150 C   0  0  0  0  0  0  0  0  0  0  0  0
  140.7430   71.7860  224.6460 N   0  0  0  0  0  0  0  0  0  0  0  0
  140.6360   71.1950  225.8520 C   0  0  0  0  0  0  0  0  0  0  0  0
  141.1670   71.8190  226.9870 C   0  0  0  0  0  0  0  0  0  0  0  0
  141.6577   72.7994  226.8975 H   0  0  0  0  0  0  0  0  0  0  0  0
  141.0730   71.1950  228.2340 C   0  0  0  0  0  0  0  0  0  0  0  0
  141.4888   71.6864  229.1260 H   0  0  0  0  0  0  0  0  0  0  0  0
  140.4510   69.9460  228.3510 C   0  0  0  0  0  0  0  0  0  0  0  0
  140.3744   69.4596  229.3346 H   0  0  0  0  0  0  0  0  0  0  0  0
  139.9280   69.3180  227.2190 C   0  0  0  0  0  0  0  0  0  0  0  0
  139.4513   68.3309  227.3104 H   0  0  0  0  0  0  0  0  0  0  0  0
  140.0090   69.9450  225.9600 C   0  0  0  0  0  0  0  0  0  0  0  0
  139.4660   69.3730  224.8020 C   0  0  0  0  0  0  0  0  0  0  0  0
  138.9140   68.2370  224.8760 O   0  0  0  0  0  0  0  0  0  0  0  0
  139.5250   70.0380  223.5960 N   0  0  0  0  0  0  0  0  0  0  0  0
  138.8020   69.4440  222.4440 C   0  0  0  0  0  0  0  0  0  0  0  0
  139.4547   69.4783  221.5592 H   0  0  0  0  0  0  0  0  0  0  0  0
  138.5397   68.4081  222.7051 H   0  0  0  0  0  0  0  0  0  0  0  0
  137.4840   70.2080  222.1260 C   0  0  0  0  0  0  0  0  0  0  0  0
  137.6631   70.7582  221.1905 H   0  0  0  0  0  0  0  0  0  0  0  0
  137.1470   71.2410  223.2390 C   0  0  0  0  0  0  0  0  0  0  0  0
  138.0585   71.4206  223.8280 H   0  0  0  0  0  0  0  0  0  0  0  0
  136.7800   72.1428  222.7271 H   0  0  0  0  0  0  0  0  0  0  0  0
  136.0300   70.8010  224.2040 C   0  0  0  0  0  0  0  0  0  0  0  0
  136.1822   71.2985  225.1732 H   0  0  0  0  0  0  0  0  0  0  0  0
  135.0654   71.0840  223.7574 H   0  0  0  0  0  0  0  0  0  0  0  0
  136.0220   69.2900  224.4220 C   0  0  0  0  0  0  0  0  0  0  0  0
  136.9900   68.9881  224.8484 H   0  0  0  0  0  0  0  0  0  0  0  0
  135.1931   69.0508  225.1044 H   0  0  0  0  0  0  0  0  0  0  0  0
  135.7940   68.5150  223.1080 C   0  0  0  0  0  0  0  0  0  0  0  0
  136.3291   67.5562  223.1734 H   0  0  0  0  0  0  0  0  0  0  0  0
  134.7075   68.3836  222.9975 H   0  0  0  0  0  0  0  0  0  0  0  0
  136.2870   69.2630  221.8510 C   0  0  0  0  0  0  0  0  0  0  0  0
  136.5952   68.5193  221.1013 H   0  0  0  0  0  0  0  0  0  0  0  0
  135.4540   69.8889  221.4984 H   0  0  0  0  0  0  0  0  0  0  0  0
  142.1270   71.5830  220.4420 C   0  0  0  0  0  0  0  0  0  0  0  0
  142.4890   70.9150  219.2660 C   0  0  0  0  0  0  0  0  0  0  0  0
  141.8272   70.1433  218.8459 H   0  0  0  0  0  0  0  0  0  0  0  0
  143.6890   71.2280  218.6270 C   0  0  0  0  0  0  0  0  0  0  0  0
  143.9551   70.7216  217.6874 H   0  0  0  0  0  0  0  0  0  0  0  0
  144.5650   72.1900  219.1770 C   0  0  0  0  0  0  0  0  0  0  0  0
  145.7950   72.5080  218.5800 O   0  0  0  0  0  0  0  0  0  0  0  0
  145.9370   73.3580  217.4460 C   0  0  0  0  0  0  0  0  0  0  0  0
  146.1096   74.3912  217.7816 H   0  0  0  0  0  0  0  0  0  0  0  0
  146.7914   73.0216  216.8403 H   0  0  0  0  0  0  0  0  0  0  0  0
  145.0197   73.3176  216.8403 H   0  0  0  0  0  0  0  0  0  0  0  0
  144.2120   72.8490  220.3660 C   0  0  0  0  0  0  0  0  0  0  0  0
  145.1260   73.7580  220.9160 O   0  0  0  0  0  0  0  0  0  0  0  0
  146.3240   73.3830  221.5980 C   0  0  0  0  0  0  0  0  0  0  0  0
  146.1590   73.4347  222.6843 H   0  0  0  0  0  0  0  0  0  0  0  0
  146.5994   72.3557  221.3174 H   0  0  0  0  0  0  0  0  0  0  0  0
  147.1360   74.0699  221.3174 H   0  0  0  0  0  0  0  0  0  0  0  0
  142.9760   72.5680  220.9770 C   0  0  0  0  0  0  0  0  0  0  0  0
  142.6724   73.1217  221.8777 H   0  0  0  0  0  0  0  0  0  0  0  0
  1  2  1  0
  2  3  2  0
  3  4  1  0
  3  5  1  0
  5  6  2  0
  6  7  1  0
  7  8  2  0
  8  9  1  0
  8 10  1  0
 10 11  1  0
 10 12  2  0
 12 13  1  0
 12 14  1  0
 14 15  1  0
 14 16  2  0
 16 17  1  0
 17 18  2  0
 17 19  1  0
 19 20  1  0
 20 21  1  0
 20 22  1  0
 20 23  1  0
 23 24  1  0
 23 25  1  0
 25 26  1  0
 25 27  1  0
 25 28  1  0
 28 29  1  0
 28 30  1  0
 28 31  1  0
 31 32  1  0
 31 33  1  0
 31 34  1  0
 34 35  1  0
 34 36  1  0
 34 37  1  0
 37 38  1  0
 37 39  1  0
  2 40  1  0
 40 41  2  0
 41 42  1  0
 41 43  1  0
 43 44  1  0
 43 45  2  0
 45 46  1  0
 46 47  1  0
 47 48  1  0
 47 49  1  0
 47 50  1  0
 45 51  1  0
 51 52  1  0
 52 53  1  0
 53 54  1  0
 53 55  1  0
 53 56  1  0
 51 57  2  0
 57 58  1  0
 19  5  1  0
 37 23  1  0
 57 40  1  0
 16  7  1  0
M  END
>  <UniqueID>  (17) 
65

>  <SMILES>  (17) 
COc1ccc(/C=C/c2nc3ccccc3c(=O)n2CC2CCCCC2)cc1OC

>  <Energy>  (17) 
74.25401405626954

>  <Genealogy>  (17) 
COc1ccc(/C=C/c2nc3ccccc3c(=O)n2CC2CCCCC2)cc1OC (cis-trans isomerization)
COc1ccc(/C=C/c2nc3ccccc3c(=O)n2CC2CCCCC2)cc1OC (3D coordinates assigned)
COc1ccc(/C=C/c2nc3ccccc3c(=O)n2CC2CCCCC2)cc1OC (nonaromatic ring conformer: 74.25401405626954 kcal/mol)

>  <smiles>  (17) 
COc1ccc(/C=C/c2nc3ccccc3c(=O)n2CC2CCCCC2)cc1OC

>  <score_type>  (17) 
oracle

>  <origin>  (17) 
autodockgpu

>  <m_score__min__energy>  (17) 
-7.5199999999999996

>  <m_primary>  (17) 
energy

>  <meeko>  (17) 
{"free_energy": -7.3, "intermolecular_energy": -9.39, "internal_energy": -1.69, "cluster_size": 7, "cluster_id": 1, "rank_in_cluster": 4}

>  <energy>  (17) 
-7.02

>  <cluster_rmsd>  (17) 
0.0

>  <rmsd>  (17) 
269.2

>  <cluster>  (17) 
5

$$$$
CHYZURNRBYISSB-FYWRMAATNA-N
     RDKit          3D

 58 61  0  0  0  0  0  0  0  0999 V2000
  140.8514   73.6990  222.4814 H   0  0  0  0  0  0  0  0  0  0  0  0
  141.1360   72.7830  221.9430 C   0  0  0  0  0  0  0  0  0  0  0  0
  140.3840   71.6840  222.0750 C   0  0  0  0  0  0  0  0  0  0  0  0
  139.9512   71.2185  221.1772 H   0  0  0  0  0  0  0  0  0  0  0  0
  140.1190   71.0760  223.4090 C   0  0  0  0  0  0  0  0  0  0  0  0
  140.6720   71.6960  224.4890 N   0  0  0  0  0  0  0  0  0  0  0  0
  140.5780   71.1930  225.7350 C   0  0  0  0  0  0  0  0  0  0  0  0
  141.1380   71.8870  226.8150 C   0  0  0  0  0  0  0  0  0  0  0  0
  141.6396   72.8517  226.6487 H   0  0  0  0  0  0  0  0  0  0  0  0
  141.0590   71.3530  228.1040 C   0  0  0  0  0  0  0  0  0  0  0  0
  141.4979   71.8988  228.9522 H   0  0  0  0  0  0  0  0  0  0  0  0
  140.4220   70.1240  228.3180 C   0  0  0  0  0  0  0  0  0  0  0  0
  140.3559   69.7087  229.3344 H   0  0  0  0  0  0  0  0  0  0  0  0
  139.8710   69.4260  227.2420 C   0  0  0  0  0  0  0  0  0  0  0  0
  139.3841   68.4541  227.4101 H   0  0  0  0  0  0  0  0  0  0  0  0
  139.9370   69.9630  225.9420 C   0  0  0  0  0  0  0  0  0  0  0  0
  139.3660   69.3190  224.8360 C   0  0  0  0  0  0  0  0  0  0  0  0
  138.8020   68.1980  224.9990 O   0  0  0  0  0  0  0  0  0  0  0  0
  139.4120   69.8960  223.5850 N   0  0  0  0  0  0  0  0  0  0  0  0
  138.6610   69.2340  222.4900 C   0  0  0  0  0  0  0  0  0  0  0  0
  139.3192   69.1411  221.6136 H   0  0  0  0  0  0  0  0  0  0  0  0
  138.3356   68.2467  222.8497 H   0  0  0  0  0  0  0  0  0  0  0  0
  137.3930   70.0390  222.0830 C   0  0  0  0  0  0  0  0  0  0  0  0
  137.6090   70.4773  221.0975 H   0  0  0  0  0  0  0  0  0  0  0  0
  137.1160   71.2000  223.0790 C   0  0  0  0  0  0  0  0  0  0  0  0
  138.0347   71.3845  223.6552 H   0  0  0  0  0  0  0  0  0  0  0  0
  136.8066   72.0642  222.4728 H   0  0  0  0  0  0  0  0  0  0  0  0
  135.9700   70.9310  224.0740 C   0  0  0  0  0  0  0  0  0  0  0  0
  136.1486   71.5166  224.9879 H   0  0  0  0  0  0  0  0  0  0  0  0
  135.0259   71.2238  223.5914 H   0  0  0  0  0  0  0  0  0  0  0  0
  135.8700   69.4540  224.4470 C   0  0  0  0  0  0  0  0  0  0  0  0
  136.8168   69.1404  224.9110 H   0  0  0  0  0  0  0  0  0  0  0  0
  135.0264   69.3367  225.1432 H   0  0  0  0  0  0  0  0  0  0  0  0
  135.5990   68.5620  223.2170 C   0  0  0  0  0  0  0  0  0  0  0  0
  136.0741   67.5844  223.3858 H   0  0  0  0  0  0  0  0  0  0  0  0
  134.5069   68.4857  223.1102 H   0  0  0  0  0  0  0  0  0  0  0  0
  136.1410   69.1450  221.8950 C   0  0  0  0  0  0  0  0  0  0  0  0
  136.4054   68.3107  221.2287 H   0  0  0  0  0  0  0  0  0  0  0  0
  135.3491   69.7807  221.4721 H   0  0  0  0  0  0  0  0  0  0  0  0
  142.3330   72.7900  221.0940 C   0  0  0  0  0  0  0  0  0  0  0  0
  142.8310   73.9840  220.5570 C   0  0  0  0  0  0  0  0  0  0  0  0
  142.3245   74.9367  220.7710 H   0  0  0  0  0  0  0  0  0  0  0  0
  143.9690   73.9650  219.7510 C   0  0  0  0  0  0  0  0  0  0  0  0
  144.3730   74.9084  219.3551 H   0  0  0  0  0  0  0  0  0  0  0  0
  144.6070   72.7440  219.4390 C   0  0  0  0  0  0  0  0  0  0  0  0
  145.7360   72.6820  218.6060 O   0  0  0  0  0  0  0  0  0  0  0  0
  145.8260   73.3170  217.3350 C   0  0  0  0  0  0  0  0  0  0  0  0
  145.9791   74.3973  217.4749 H   0  0  0  0  0  0  0  0  0  0  0  0
  146.6735   72.8961  216.7740 H   0  0  0  0  0  0  0  0  0  0  0  0
  144.8950   73.1482  216.7740 H   0  0  0  0  0  0  0  0  0  0  0  0
  144.1000   71.5440  219.9620 C   0  0  0  0  0  0  0  0  0  0  0  0
  144.7220   70.3440  219.5910 O   0  0  0  0  0  0  0  0  0  0  0  0
  144.1100   69.0570  219.6870 C   0  0  0  0  0  0  0  0  0  0  0  0
  143.9828   68.7896  220.7464 H   0  0  0  0  0  0  0  0  0  0  0  0
  143.1268   69.0808  219.1943 H   0  0  0  0  0  0  0  0  0  0  0  0
  144.7490   68.3094  219.1943 H   0  0  0  0  0  0  0  0  0  0  0  0
  142.9830   71.5740  220.8180 C   0  0  0  0  0  0  0  0  0  0  0  0
  142.6169   70.6419  221.2731 H   0  0  0  0  0  0  0  0  0  0  0  0
  1  2  1  0
  2  3  2  0
  3  4  1  0
  3  5  1  0
  5  6  2  0
  6  7  1  0
  7  8  2  0
  8  9  1  0
  8 10  1  0
 10 11  1  0
 10 12  2  0
 12 13  1  0
 12 14  1  0
 14 15  1  0
 14 16  2  0
 16 17  1  0
 17 18  2  0
 17 19  1  0
 19 20  1  0
 20 21  1  0
 20 22  1  0
 20 23  1  0
 23 24  1  0
 23 25  1  0
 25 26  1  0
 25 27  1  0
 25 28  1  0
 28 29  1  0
 28 30  1  0
 28 31  1  0
 31 32  1  0
 31 33  1  0
 31 34  1  0
 34 35  1  0
 34 36  1  0
 34 37  1  0
 37 38  1  0
 37 39  1  0
  2 40  1  0
 40 41  2  0
 41 42  1  0
 41 43  1  0
 43 44  1  0
 43 45  2  0
 45 46  1  0
 46 47  1  0
 47 48  1  0
 47 49  1  0
 47 50  1  0
 45 51  1  0
 51 52  1  0
 52 53  1  0
 53 54  1  0
 53 55  1  0
 53 56  1  0
 51 57  2  0
 57 58  1  0
 19  5  1  0
 37 23  1  0
 57 40  1  0
 16  7  1  0
M  END
>  <UniqueID>  (18) 
65

>  <SMILES>  (18) 
COc1ccc(/C=C/c2nc3ccccc3c(=O)n2CC2CCCCC2)cc1OC

>  <Energy>  (18) 
74.25401405626954

>  <Genealogy>  (18) 
COc1ccc(/C=C/c2nc3ccccc3c(=O)n2CC2CCCCC2)cc1OC (cis-trans isomerization)
COc1ccc(/C=C/c2nc3ccccc3c(=O)n2CC2CCCCC2)cc1OC (3D coordinates assigned)
COc1ccc(/C=C/c2nc3ccccc3c(=O)n2CC2CCCCC2)cc1OC (nonaromatic ring conformer: 74.25401405626954 kcal/mol)

>  <smiles>  (18) 
COc1ccc(/C=C/c2nc3ccccc3c(=O)n2CC2CCCCC2)cc1OC

>  <score_type>  (18) 
oracle

>  <origin>  (18) 
autodockgpu

>  <m_score__min__energy>  (18) 
-7.5199999999999996

>  <m_primary>  (18) 
energy

>  <meeko>  (18) 
{"free_energy": -7.46, "intermolecular_energy": -9.55, "internal_energy": -1.67, "cluster_size": 7, "cluster_id": 1, "rank_in_cluster": 2}

>  <energy>  (18) 
-6.99

>  <cluster_rmsd>  (18) 
0.57

>  <rmsd>  (18) 
269.2

>  <cluster>  (18) 
5

$$$$
CHYZURNRBYISSB-FYWRMAATNA-N
     RDKit          3D

 58 61  0  0  0  0  0  0  0  0999 V2000
  142.7155   77.3710  218.0849 H   0  0  0  0  0  0  0  0  0  0  0  0
  142.8410   76.7630  218.9930 C   0  0  0  0  0  0  0  0  0  0  0  0
  142.2460   77.1490  220.1290 C   0  0  0  0  0  0  0  0  0  0  0  0
  142.5386   78.1034  220.5911 H   0  0  0  0  0  0  0  0  0  0  0  0
  141.1980   76.3170  220.7810 C   0  0  0  0  0  0  0  0  0  0  0  0
  141.3450   74.9640  220.7000 N   0  0  0  0  0  0  0  0  0  0  0  0
  140.4180   74.1090  221.1730 C   0  0  0  0  0  0  0  0  0  0  0  0
  140.6340   72.7280  221.0910 C   0  0  0  0  0  0  0  0  0  0  0  0
  141.5674   72.3415  220.6557 H   0  0  0  0  0  0  0  0  0  0  0  0
  139.6620   71.8410  221.5630 C   0  0  0  0  0  0  0  0  0  0  0  0
  139.8331   70.7561  221.5014 H   0  0  0  0  0  0  0  0  0  0  0  0
  138.4710   72.3300  222.1140 C   0  0  0  0  0  0  0  0  0  0  0  0
  137.7092   71.6299  222.4875 H   0  0  0  0  0  0  0  0  0  0  0  0
  138.2510   73.7070  222.1890 C   0  0  0  0  0  0  0  0  0  0  0  0
  137.3101   74.0896  222.6114 H   0  0  0  0  0  0  0  0  0  0  0  0
  139.2290   74.6070  221.7260 C   0  0  0  0  0  0  0  0  0  0  0  0
  139.0700   75.9960  221.8120 C   0  0  0  0  0  0  0  0  0  0  0  0
  137.9960   76.4650  222.2900 O   0  0  0  0  0  0  0  0  0  0  0  0
  140.0700   76.8460  221.3900 N   0  0  0  0  0  0  0  0  0  0  0  0
  139.8970   78.2980  221.6470 C   0  0  0  0  0  0  0  0  0  0  0  0
  140.5614   78.8595  220.9737 H   0  0  0  0  0  0  0  0  0  0  0  0
  138.8419   78.5516  221.4672 H   0  0  0  0  0  0  0  0  0  0  0  0
  140.2380   78.6740  223.1180 C   0  0  0  0  0  0  0  0  0  0  0  0
  139.6569   77.9897  223.7536 H   0  0  0  0  0  0  0  0  0  0  0  0
  139.8000   80.1290  223.4470 C   0  0  0  0  0  0  0  0  0  0  0  0
  139.0784   80.4517  222.6821 H   0  0  0  0  0  0  0  0  0  0  0  0
  139.3718   80.1050  224.4599 H   0  0  0  0  0  0  0  0  0  0  0  0
  140.9520   81.1510  223.4830 C   0  0  0  0  0  0  0  0  0  0  0  0
  140.5518   82.1453  223.2358 H   0  0  0  0  0  0  0  0  0  0  0  0
  141.3869   81.1355  224.4932 H   0  0  0  0  0  0  0  0  0  0  0  0
  142.0580   80.8050  222.4900 C   0  0  0  0  0  0  0  0  0  0  0  0
  141.6331   80.7932  221.4755 H   0  0  0  0  0  0  0  0  0  0  0  0
  142.8472   81.5656  222.5828 H   0  0  0  0  0  0  0  0  0  0  0  0
  142.6890   79.4260  222.7820 C   0  0  0  0  0  0  0  0  0  0  0  0
  143.0134   78.9837  221.8285 H   0  0  0  0  0  0  0  0  0  0  0  0
  143.5278   79.5963  223.4729 H   0  0  0  0  0  0  0  0  0  0  0  0
  141.7280   78.4380  223.4750 C   0  0  0  0  0  0  0  0  0  0  0  0
  142.0011   77.4162  223.1728 H   0  0  0  0  0  0  0  0  0  0  0  0
  141.8301   78.5928  224.5593 H   0  0  0  0  0  0  0  0  0  0  0  0
  143.6570   75.5450  218.9360 C   0  0  0  0  0  0  0  0  0  0  0  0
  143.9180   74.9060  217.7180 C   0  0  0  0  0  0  0  0  0  0  0  0
  143.5103   75.3178  216.7830 H   0  0  0  0  0  0  0  0  0  0  0  0
  144.6950   73.7470  217.6890 C   0  0  0  0  0  0  0  0  0  0  0  0
  144.9211   73.2649  216.7265 H   0  0  0  0  0  0  0  0  0  0  0  0
  145.1930   73.1890  218.8870 C   0  0  0  0  0  0  0  0  0  0  0  0
  145.9510   72.0070  218.9010 O   0  0  0  0  0  0  0  0  0  0  0  0
  145.3900   70.6980  218.9340 C   0  0  0  0  0  0  0  0  0  0  0  0
  145.2551   70.3832  219.9793 H   0  0  0  0  0  0  0  0  0  0  0  0
  144.4153   70.7038  218.4241 H   0  0  0  0  0  0  0  0  0  0  0  0
  146.0664   69.9962  218.4241 H   0  0  0  0  0  0  0  0  0  0  0  0
  144.9180   73.8170  220.1120 C   0  0  0  0  0  0  0  0  0  0  0  0
  145.3800   73.2080  221.2870 O   0  0  0  0  0  0  0  0  0  0  0  0
  146.6900   73.3890  221.8260 C   0  0  0  0  0  0  0  0  0  0  0  0
  146.6386   73.3819  222.9248 H   0  0  0  0  0  0  0  0  0  0  0  0
  147.3432   72.5726  221.4842 H   0  0  0  0  0  0  0  0  0  0  0  0
  147.0973   74.3520  221.4842 H   0  0  0  0  0  0  0  0  0  0  0  0
  144.1790   75.0140  220.1300 C   0  0  0  0  0  0  0  0  0  0  0  0
  144.0084   75.5375  221.0823 H   0  0  0  0  0  0  0  0  0  0  0  0
  1  2  1  0
  2  3  2  0
  3  4  1  0
  3  5  1  0
  5  6  2  0
  6  7  1  0
  7  8  2  0
  8  9  1  0
  8 10  1  0
 10 11  1  0
 10 12  2  0
 12 13  1  0
 12 14  1  0
 14 15  1  0
 14 16  2  0
 16 17  1  0
 17 18  2  0
 17 19  1  0
 19 20  1  0
 20 21  1  0
 20 22  1  0
 20 23  1  0
 23 24  1  0
 23 25  1  0
 25 26  1  0
 25 27  1  0
 25 28  1  0
 28 29  1  0
 28 30  1  0
 28 31  1  0
 31 32  1  0
 31 33  1  0
 31 34  1  0
 34 35  1  0
 34 36  1  0
 34 37  1  0
 37 38  1  0
 37 39  1  0
  2 40  1  0
 40 41  2  0
 41 42  1  0
 41 43  1  0
 43 44  1  0
 43 45  2  0
 45 46  1  0
 46 47  1  0
 47 48  1  0
 47 49  1  0
 47 50  1  0
 45 51  1  0
 51 52  1  0
 52 53  1  0
 53 54  1  0
 53 55  1  0
 53 56  1  0
 51 57  2  0
 57 58  1  0
 19  5  1  0
 37 23  1  0
 57 40  1  0
 16  7  1  0
M  END
>  <UniqueID>  (19) 
65

>  <SMILES>  (19) 
COc1ccc(/C=C/c2nc3ccccc3c(=O)n2CC2CCCCC2)cc1OC

>  <Energy>  (19) 
74.25401405626954

>  <Genealogy>  (19) 
COc1ccc(/C=C/c2nc3ccccc3c(=O)n2CC2CCCCC2)cc1OC (cis-trans isomerization)
COc1ccc(/C=C/c2nc3ccccc3c(=O)n2CC2CCCCC2)cc1OC (3D coordinates assigned)
COc1ccc(/C=C/c2nc3ccccc3c(=O)n2CC2CCCCC2)cc1OC (nonaromatic ring conformer: 74.25401405626954 kcal/mol)

>  <smiles>  (19) 
COc1ccc(/C=C/c2nc3ccccc3c(=O)n2CC2CCCCC2)cc1OC

>  <score_type>  (19) 
oracle

>  <origin>  (19) 
autodockgpu

>  <m_score__min__energy>  (19) 
-7.5199999999999996

>  <m_primary>  (19) 
energy

>  <meeko>  (19) 
{"free_energy": -7.03, "intermolecular_energy": -9.12, "internal_energy": -1.8, "cluster_size": 1, "cluster_id": 4, "rank_in_cluster": 1}

>  <energy>  (19) 
-6.93

>  <cluster_rmsd>  (19) 
0.77

>  <rmsd>  (19) 
269.21

>  <cluster>  (19) 
5

$$$$
CHYZURNRBYISSB-FYWRMAATNA-N
     RDKit          3D

 58 61  0  0  0  0  0  0  0  0999 V2000
  138.6254   73.3475  222.1925 H   0  0  0  0  0  0  0  0  0  0  0  0
  139.3310   72.5130  222.0670 C   0  0  0  0  0  0  0  0  0  0  0  0
  138.9390   71.2710  222.3740 C   0  0  0  0  0  0  0  0  0  0  0  0
  138.4126   70.6712  221.6170 H   0  0  0  0  0  0  0  0  0  0  0  0
  139.1990   70.6820  223.7170 C   0  0  0  0  0  0  0  0  0  0  0  0
  139.8580   71.4650  224.6170 N   0  0  0  0  0  0  0  0  0  0  0  0
  140.2280   71.0130  225.8310 C   0  0  0  0  0  0  0  0  0  0  0  0
  140.8770   71.8690  226.7290 C   0  0  0  0  0  0  0  0  0  0  0  0
  141.0703   72.9152  226.4497 H   0  0  0  0  0  0  0  0  0  0  0  0
  141.2790   71.3940  227.9800 C   0  0  0  0  0  0  0  0  0  0  0  0
  141.7865   72.0679  228.6859 H   0  0  0  0  0  0  0  0  0  0  0  0
  141.0370   70.0610  228.3370 C   0  0  0  0  0  0  0  0  0  0  0  0
  141.3501   69.6903  229.3242 H   0  0  0  0  0  0  0  0  0  0  0  0
  140.3980   69.2030  227.4390 C   0  0  0  0  0  0  0  0  0  0  0  0
  140.2207   68.1531  227.7153 H   0  0  0  0  0  0  0  0  0  0  0  0
  139.9800   69.6780  226.1810 C   0  0  0  0  0  0  0  0  0  0  0  0
  139.3030   68.8660  225.2620 C   0  0  0  0  0  0  0  0  0  0  0  0
  139.0880   67.6530  225.5520 O   0  0  0  0  0  0  0  0  0  0  0  0
  138.8690   69.3790  224.0580 N   0  0  0  0  0  0  0  0  0  0  0  0
  138.0310   68.5070  223.1980 C   0  0  0  0  0  0  0  0  0  0  0  0
  137.3366   67.9408  223.8361 H   0  0  0  0  0  0  0  0  0  0  0  0
  137.4872   69.1499  222.4902 H   0  0  0  0  0  0  0  0  0  0  0  0
  138.8880   67.5030  222.3740 C   0  0  0  0  0  0  0  0  0  0  0  0
  139.6760   67.1420  223.0513 H   0  0  0  0  0  0  0  0  0  0  0  0
  139.5710   68.2020  221.1640 C   0  0  0  0  0  0  0  0  0  0  0  0
  139.5518   69.2878  221.3393 H   0  0  0  0  0  0  0  0  0  0  0  0
  140.5903   67.7931  221.1022 H   0  0  0  0  0  0  0  0  0  0  0  0
  138.9050   67.9230  219.8030 C   0  0  0  0  0  0  0  0  0  0  0  0
  139.1024   68.7711  219.1308 H   0  0  0  0  0  0  0  0  0  0  0  0
  139.3289   66.9902  219.4028 H   0  0  0  0  0  0  0  0  0  0  0  0
  137.3950   67.7370  219.9310 C   0  0  0  0  0  0  0  0  0  0  0  0
  136.9589   68.6552  220.3514 H   0  0  0  0  0  0  0  0  0  0  0  0
  136.9934   67.5270  218.9287 H   0  0  0  0  0  0  0  0  0  0  0  0
  137.0320   66.5490  220.8470 C   0  0  0  0  0  0  0  0  0  0  0  0
  136.0801   66.7762  221.3492 H   0  0  0  0  0  0  0  0  0  0  0  0
  136.9667   65.6576  220.2058 H   0  0  0  0  0  0  0  0  0  0  0  0
  138.0930   66.2500  221.9270 C   0  0  0  0  0  0  0  0  0  0  0  0
  137.5854   65.8273  222.8066 H   0  0  0  0  0  0  0  0  0  0  0  0
  138.8157   65.5478  221.4859 H   0  0  0  0  0  0  0  0  0  0  0  0
  140.6840   72.7840  221.5660 C   0  0  0  0  0  0  0  0  0  0  0  0
  141.1160   74.0940  221.3230 C   0  0  0  0  0  0  0  0  0  0  0  0
  140.4383   74.9401  221.5100 H   0  0  0  0  0  0  0  0  0  0  0  0
  142.4050   74.3260  220.8440 C   0  0  0  0  0  0  0  0  0  0  0  0
  142.7494   75.3581  220.6821 H   0  0  0  0  0  0  0  0  0  0  0  0
  143.2720   73.2460  220.5650 C   0  0  0  0  0  0  0  0  0  0  0  0
  144.5650   73.4400  220.0530 O   0  0  0  0  0  0  0  0  0  0  0  0
  145.7450   73.4610  220.8500 C   0  0  0  0  0  0  0  0  0  0  0  0
  145.4685   73.4561  221.9147 H   0  0  0  0  0  0  0  0  0  0  0  0
  146.3550   72.5736  220.6255 H   0  0  0  0  0  0  0  0  0  0  0  0
  146.3230   74.3696  220.6255 H   0  0  0  0  0  0  0  0  0  0  0  0
  142.8350   71.9310  220.7910 C   0  0  0  0  0  0  0  0  0  0  0  0
  143.6980   70.8800  220.4530 O   0  0  0  0  0  0  0  0  0  0  0  0
  143.3810   69.8470  219.5190 C   0  0  0  0  0  0  0  0  0  0  0  0
  143.1007   68.9335  220.0638 H   0  0  0  0  0  0  0  0  0  0  0  0
  142.5405   70.1695  218.8869 H   0  0  0  0  0  0  0  0  0  0  0  0
  144.2577   69.6425  218.8869 H   0  0  0  0  0  0  0  0  0  0  0  0
  141.5530   71.7050  221.3240 C   0  0  0  0  0  0  0  0  0  0  0  0
  141.2285   70.6791  221.5527 H   0  0  0  0  0  0  0  0  0  0  0  0
  1  2  1  0
  2  3  2  0
  3  4  1  0
  3  5  1  0
  5  6  2  0
  6  7  1  0
  7  8  2  0
  8  9  1  0
  8 10  1  0
 10 11  1  0
 10 12  2  0
 12 13  1  0
 12 14  1  0
 14 15  1  0
 14 16  2  0
 16 17  1  0
 17 18  2  0
 17 19  1  0
 19 20  1  0
 20 21  1  0
 20 22  1  0
 20 23  1  0
 23 24  1  0
 23 25  1  0
 25 26  1  0
 25 27  1  0
 25 28  1  0
 28 29  1  0
 28 30  1  0
 28 31  1  0
 31 32  1  0
 31 33  1  0
 31 34  1  0
 34 35  1  0
 34 36  1  0
 34 37  1  0
 37 38  1  0
 37 39  1  0
  2 40  1  0
 40 41  2  0
 41 42  1  0
 41 43  1  0
 43 44  1  0
 43 45  2  0
 45 46  1  0
 46 47  1  0
 47 48  1  0
 47 49  1  0
 47 50  1  0
 45 51  1  0
 51 52  1  0
 52 53  1  0
 53 54  1  0
 53 55  1  0
 53 56  1  0
 51 57  2  0
 57 58  1  0
 19  5  1  0
 37 23  1  0
 57 40  1  0
 16  7  1  0
M  END
>  <UniqueID>  (20) 
65

>  <SMILES>  (20) 
COc1ccc(/C=C/c2nc3ccccc3c(=O)n2CC2CCCCC2)cc1OC

>  <Energy>  (20) 
74.25401405626954

>  <Genealogy>  (20) 
COc1ccc(/C=C/c2nc3ccccc3c(=O)n2CC2CCCCC2)cc1OC (cis-trans isomerization)
COc1ccc(/C=C/c2nc3ccccc3c(=O)n2CC2CCCCC2)cc1OC (3D coordinates assigned)
COc1ccc(/C=C/c2nc3ccccc3c(=O)n2CC2CCCCC2)cc1OC (nonaromatic ring conformer: 74.25401405626954 kcal/mol)

>  <smiles>  (20) 
COc1ccc(/C=C/c2nc3ccccc3c(=O)n2CC2CCCCC2)cc1OC

>  <score_type>  (20) 
oracle

>  <origin>  (20) 
autodockgpu

>  <m_score__min__energy>  (20) 
-7.5199999999999996

>  <m_primary>  (20) 
energy

>  <meeko>  (20) 
{"free_energy": -6.98, "intermolecular_energy": -9.06, "internal_energy": -1.82, "cluster_size": 7, "cluster_id": 1, "rank_in_cluster": 7}

>  <energy>  (20) 
-6.81

>  <cluster_rmsd>  (20) 
0.0

>  <rmsd>  (20) 
269.42

>  <cluster>  (20) 
6

$$$$
CHYZURNRBYISSB-FYWRMAATNA-N
     RDKit          3D

 58 61  0  0  0  0  0  0  0  0999 V2000
  141.7791   72.0517  221.4447 H   0  0  0  0  0  0  0  0  0  0  0  0
  140.7500   72.3030  221.7410 C   0  0  0  0  0  0  0  0  0  0  0  0
  139.9060   71.3200  222.0800 C   0  0  0  0  0  0  0  0  0  0  0  0
  139.2237   70.9122  221.3196 H   0  0  0  0  0  0  0  0  0  0  0  0
  139.8690   70.7660  223.4610 C   0  0  0  0  0  0  0  0  0  0  0  0
  140.4080   71.5350  224.4490 N   0  0  0  0  0  0  0  0  0  0  0  0
  140.5140   71.1050  225.7210 C   0  0  0  0  0  0  0  0  0  0  0  0
  141.0480   71.9470  226.7030 C   0  0  0  0  0  0  0  0  0  0  0  0
  141.3668   72.9664  226.4399 H   0  0  0  0  0  0  0  0  0  0  0  0
  141.1760   71.4920  228.0180 C   0  0  0  0  0  0  0  0  0  0  0  0
  141.5928   72.1557  228.7899 H   0  0  0  0  0  0  0  0  0  0  0  0
  140.7750   70.1930  228.3560 C   0  0  0  0  0  0  0  0  0  0  0  0
  140.8737   69.8385  229.3926 H   0  0  0  0  0  0  0  0  0  0  0  0
  140.2500   69.3490  227.3760 C   0  0  0  0  0  0  0  0  0  0  0  0
  139.9468   68.3251  227.6400 H   0  0  0  0  0  0  0  0  0  0  0  0
  140.1070   69.8030  226.0510 C   0  0  0  0  0  0  0  0  0  0  0  0
  139.5520   69.0060  225.0410 C   0  0  0  0  0  0  0  0  0  0  0  0
  139.1980   67.8230  225.3150 O   0  0  0  0  0  0  0  0  0  0  0  0
  139.3870   69.5020  223.7660 N   0  0  0  0  0  0  0  0  0  0  0  0
  138.6590   68.6580  222.7850 C   0  0  0  0  0  0  0  0  0  0  0  0
  138.8121   69.0720  221.7775 H   0  0  0  0  0  0  0  0  0  0  0  0
  139.0539   67.6340  222.8582 H   0  0  0  0  0  0  0  0  0  0  0  0
  137.1310   68.6070  223.0810 C   0  0  0  0  0  0  0  0  0  0  0  0
  136.9274   67.6039  223.4838 H   0  0  0  0  0  0  0  0  0  0  0  0
  136.2970   68.7850  221.7810 C   0  0  0  0  0  0  0  0  0  0  0  0
  136.9561   68.5938  220.9214 H   0  0  0  0  0  0  0  0  0  0  0  0
  135.4593   68.0753  221.8478 H   0  0  0  0  0  0  0  0  0  0  0  0
  135.6730   70.1830  221.6070 C   0  0  0  0  0  0  0  0  0  0  0  0
  135.5420   70.3820  220.5331 H   0  0  0  0  0  0  0  0  0  0  0  0
  134.7078   70.1917  222.1346 H   0  0  0  0  0  0  0  0  0  0  0  0
  136.5480   71.2800  222.2080 C   0  0  0  0  0  0  0  0  0  0  0  0
  137.5263   71.2686  221.7053 H   0  0  0  0  0  0  0  0  0  0  0  0
  136.0345   72.2415  222.0605 H   0  0  0  0  0  0  0  0  0  0  0  0
  136.7650   71.0850  223.7230 C   0  0  0  0  0  0  0  0  0  0  0  0
  137.7575   71.4801  223.9853 H   0  0  0  0  0  0  0  0  0  0  0  0
  135.9515   71.6193  224.2355 H   0  0  0  0  0  0  0  0  0  0  0  0
  136.6920   69.6110  224.1760 C   0  0  0  0  0  0  0  0  0  0  0  0
  137.3476   69.4822  225.0499 H   0  0  0  0  0  0  0  0  0  0  0  0
  135.6390   69.3956  224.4099 H   0  0  0  0  0  0  0  0  0  0  0  0
  140.3290   73.7090  221.7570 C   0  0  0  0  0  0  0  0  0  0  0  0
  141.2540   74.7420  221.5620 C   0  0  0  0  0  0  0  0  0  0  0  0
  142.3145   74.5054  221.3906 H   0  0  0  0  0  0  0  0  0  0  0  0
  140.8310   76.0710  221.5850 C   0  0  0  0  0  0  0  0  0  0  0  0
  141.5559   76.8780  221.4024 H   0  0  0  0  0  0  0  0  0  0  0  0
  139.4790   76.3880  221.8410 C   0  0  0  0  0  0  0  0  0  0  0  0
  139.0220   77.7150  221.9030 O   0  0  0  0  0  0  0  0  0  0  0  0
  139.1670   78.5570  223.0420 C   0  0  0  0  0  0  0  0  0  0  0  0
  139.0635   77.9562  223.9576 H   0  0  0  0  0  0  0  0  0  0  0  0
  140.1599   79.0302  223.0242 H   0  0  0  0  0  0  0  0  0  0  0  0
  138.3896   79.3351  223.0242 H   0  0  0  0  0  0  0  0  0  0  0  0
  138.5530   75.3550  222.0540 C   0  0  0  0  0  0  0  0  0  0  0  0
  137.2300   75.7040  222.3600 O   0  0  0  0  0  0  0  0  0  0  0  0
  136.2300   74.7760  222.7840 C   0  0  0  0  0  0  0  0  0  0  0  0
  136.1990   74.7472  223.8832 H   0  0  0  0  0  0  0  0  0  0  0  0
  135.2496   75.0915  222.3976 H   0  0  0  0  0  0  0  0  0  0  0  0
  136.4715   73.7748  222.3976 H   0  0  0  0  0  0  0  0  0  0  0  0
  138.9740   74.0150  221.9780 C   0  0  0  0  0  0  0  0  0  0  0  0
  138.2406   73.2031  222.0918 H   0  0  0  0  0  0  0  0  0  0  0  0
  1  2  1  0
  2  3  2  0
  3  4  1  0
  3  5  1  0
  5  6  2  0
  6  7  1  0
  7  8  2  0
  8  9  1  0
  8 10  1  0
 10 11  1  0
 10 12  2  0
 12 13  1  0
 12 14  1  0
 14 15  1  0
 14 16  2  0
 16 17  1  0
 17 18  2  0
 17 19  1  0
 19 20  1  0
 20 21  1  0
 20 22  1  0
 20 23  1  0
 23 24  1  0
 23 25  1  0
 25 26  1  0
 25 27  1  0
 25 28  1  0
 28 29  1  0
 28 30  1  0
 28 31  1  0
 31 32  1  0
 31 33  1  0
 31 34  1  0
 34 35  1  0
 34 36  1  0
 34 37  1  0
 37 38  1  0
 37 39  1  0
  2 40  1  0
 40 41  2  0
 41 42  1  0
 41 43  1  0
 43 44  1  0
 43 45  2  0
 45 46  1  0
 46 47  1  0
 47 48  1  0
 47 49  1  0
 47 50  1  0
 45 51  1  0
 51 52  1  0
 52 53  1  0
 53 54  1  0
 53 55  1  0
 53 56  1  0
 51 57  2  0
 57 58  1  0
 19  5  1  0
 37 23  1  0
 57 40  1  0
 16  7  1  0
M  END
>  <UniqueID>  (21) 
66

>  <SMILES>  (21) 
COc1ccc(/C=C/c2nc3ccccc3c(=O)n2CC2CCCCC2)cc1OC

>  <Energy>  (21) 
74.35306140140834

>  <Genealogy>  (21) 
COc1ccc(/C=C/c2nc3ccccc3c(=O)n2CC2CCCCC2)cc1OC (cis-trans isomerization)
COc1ccc(/C=C/c2nc3ccccc3c(=O)n2CC2CCCCC2)cc1OC (3D coordinates assigned)
COc1ccc(/C=C/c2nc3ccccc3c(=O)n2CC2CCCCC2)cc1OC (nonaromatic ring conformer: 74.35306140140834 kcal/mol)

>  <smiles>  (21) 
COc1ccc(/C=C/c2nc3ccccc3c(=O)n2CC2CCCCC2)cc1OC

>  <score_type>  (21) 
oracle

>  <origin>  (21) 
autodockgpu

>  <m_score__min__energy>  (21) 
-7.5199999999999996

>  <m_primary>  (21) 
energy

>  <meeko>  (21) 
{"free_energy": -6.86, "intermolecular_energy": -8.95, "internal_energy": -2.04, "cluster_size": 5, "cluster_id": 3, "rank_in_cluster": 5}

>  <energy>  (21) 
-7.52

>  <cluster_rmsd>  (21) 
0.0

>  <rmsd>  (21) 
269.58

>  <cluster>  (21) 
1

$$$$
CHYZURNRBYISSB-FYWRMAATNA-N
     RDKit          3D

 58 61  0  0  0  0  0  0  0  0999 V2000
  139.0741   72.0463  220.5770 H   0  0  0  0  0  0  0  0  0  0  0  0
  139.7640   72.4030  221.3560 C   0  0  0  0  0  0  0  0  0  0  0  0
  140.5260   71.5200  222.0120 C   0  0  0  0  0  0  0  0  0  0  0  0
  141.4426   71.1427  221.5351 H   0  0  0  0  0  0  0  0  0  0  0  0
  140.1620   71.0360  223.3730 C   0  0  0  0  0  0  0  0  0  0  0  0
  140.7630   71.6540  224.4280 N   0  0  0  0  0  0  0  0  0  0  0  0
  140.5830   71.2470  225.6990 C   0  0  0  0  0  0  0  0  0  0  0  0
  141.2010   71.9360  226.7500 C   0  0  0  0  0  0  0  0  0  0  0  0
  141.8205   72.8201  226.5388 H   0  0  0  0  0  0  0  0  0  0  0  0
  141.0310   71.5010  228.0660 C   0  0  0  0  0  0  0  0  0  0  0  0
  141.5153   72.0445  228.8907 H   0  0  0  0  0  0  0  0  0  0  0  0
  140.2450   70.3740  228.3380 C   0  0  0  0  0  0  0  0  0  0  0  0
  140.1085   70.0360  229.3758 H   0  0  0  0  0  0  0  0  0  0  0  0
  139.6350   69.6800  227.2920 C   0  0  0  0  0  0  0  0  0  0  0  0
  139.0289   68.7874  227.5062 H   0  0  0  0  0  0  0  0  0  0  0  0
  139.7930   70.1190  225.9630 C   0  0  0  0  0  0  0  0  0  0  0  0
  139.1710   69.4780  224.8840 C   0  0  0  0  0  0  0  0  0  0  0  0
  138.4700   68.4470  225.1000 O   0  0  0  0  0  0  0  0  0  0  0  0
  139.3120   69.9640  223.6020 N   0  0  0  0  0  0  0  0  0  0  0  0
  138.5090   69.3270  222.5280 C   0  0  0  0  0  0  0  0  0  0  0  0
  139.1410   69.2062  221.6358 H   0  0  0  0  0  0  0  0  0  0  0  0
  138.1555   68.3536  222.8989 H   0  0  0  0  0  0  0  0  0  0  0  0
  137.2630   70.1800  222.1500 C   0  0  0  0  0  0  0  0  0  0  0  0
  137.4400   70.5490  221.1289 H   0  0  0  0  0  0  0  0  0  0  0  0
  137.1120   71.4100  223.0900 C   0  0  0  0  0  0  0  0  0  0  0  0
  138.0737   71.5739  223.5982 H   0  0  0  0  0  0  0  0  0  0  0  0
  136.8121   72.2551  222.4530 H   0  0  0  0  0  0  0  0  0  0  0  0
  136.0190   71.2630  224.1650 C   0  0  0  0  0  0  0  0  0  0  0  0
  136.2857   71.8883  225.0298 H   0  0  0  0  0  0  0  0  0  0  0  0
  135.0636   71.5807  223.7220 H   0  0  0  0  0  0  0  0  0  0  0  0
  135.8630   69.8180  224.6320 C   0  0  0  0  0  0  0  0  0  0  0  0
  136.8189   69.4774  225.0566 H   0  0  0  0  0  0  0  0  0  0  0  0
  135.0599   69.7896  225.3831 H   0  0  0  0  0  0  0  0  0  0  0  0
  135.4670   68.8740  223.4770 C   0  0  0  0  0  0  0  0  0  0  0  0
  135.8990   67.8820  223.6755 H   0  0  0  0  0  0  0  0  0  0  0  0
  134.3678   68.8532  223.4411 H   0  0  0  0  0  0  0  0  0  0  0  0
  135.9550   69.3500  222.0920 C   0  0  0  0  0  0  0  0  0  0  0  0
  136.1312   68.4657  221.4619 H   0  0  0  0  0  0  0  0  0  0  0  0
  135.1733   70.0056  221.6808 H   0  0  0  0  0  0  0  0  0  0  0  0
  139.8310   73.8390  221.6560 C   0  0  0  0  0  0  0  0  0  0  0  0
  141.0470   74.5320  221.6040 C   0  0  0  0  0  0  0  0  0  0  0  0
  141.9714   74.0010  221.3328 H   0  0  0  0  0  0  0  0  0  0  0  0
  141.0860   75.8950  221.8960 C   0  0  0  0  0  0  0  0  0  0  0  0
  142.0383   76.4411  221.8260 H   0  0  0  0  0  0  0  0  0  0  0  0
  139.9120   76.5800  222.2810 C   0  0  0  0  0  0  0  0  0  0  0  0
  139.9180   77.9440  222.6120 O   0  0  0  0  0  0  0  0  0  0  0  0
  141.0680   78.6500  223.0700 C   0  0  0  0  0  0  0  0  0  0  0  0
  141.0798   78.6573  224.1699 H   0  0  0  0  0  0  0  0  0  0  0  0
  141.9758   78.1534  222.6968 H   0  0  0  0  0  0  0  0  0  0  0  0
  141.0360   79.6843  222.6968 H   0  0  0  0  0  0  0  0  0  0  0  0
  138.6950   75.8840  222.3500 C   0  0  0  0  0  0  0  0  0  0  0  0
  137.5590   76.5780  222.7880 O   0  0  0  0  0  0  0  0  0  0  0  0
  136.3480   75.9530  223.2170 C   0  0  0  0  0  0  0  0  0  0  0  0
  136.3139   75.9354  224.3163 H   0  0  0  0  0  0  0  0  0  0  0  0
  135.4869   76.5193  222.8325 H   0  0  0  0  0  0  0  0  0  0  0  0
  136.3108   74.9231  222.8325 H   0  0  0  0  0  0  0  0  0  0  0  0
  138.6510   74.5210  222.0030 C   0  0  0  0  0  0  0  0  0  0  0  0
  137.6895   73.9866  222.0032 H   0  0  0  0  0  0  0  0  0  0  0  0
  1  2  1  0
  2  3  2  0
  3  4  1  0
  3  5  1  0
  5  6  2  0
  6  7  1  0
  7  8  2  0
  8  9  1  0
  8 10  1  0
 10 11  1  0
 10 12  2  0
 12 13  1  0
 12 14  1  0
 14 15  1  0
 14 16  2  0
 16 17  1  0
 17 18  2  0
 17 19  1  0
 19 20  1  0
 20 21  1  0
 20 22  1  0
 20 23  1  0
 23 24  1  0
 23 25  1  0
 25 26  1  0
 25 27  1  0
 25 28  1  0
 28 29  1  0
 28 30  1  0
 28 31  1  0
 31 32  1  0
 31 33  1  0
 31 34  1  0
 34 35  1  0
 34 36  1  0
 34 37  1  0
 37 38  1  0
 37 39  1  0
  2 40  1  0
 40 41  2  0
 41 42  1  0
 41 43  1  0
 43 44  1  0
 43 45  2  0
 45 46  1  0
 46 47  1  0
 47 48  1  0
 47 49  1  0
 47 50  1  0
 45 51  1  0
 51 52  1  0
 52 53  1  0
 53 54  1  0
 53 55  1  0
 53 56  1  0
 51 57  2  0
 57 58  1  0
 19  5  1  0
 37 23  1  0
 57 40  1  0
 16  7  1  0
M  END
>  <UniqueID>  (22) 
66

>  <SMILES>  (22) 
COc1ccc(/C=C/c2nc3ccccc3c(=O)n2CC2CCCCC2)cc1OC

>  <Energy>  (22) 
74.35306140140834

>  <Genealogy>  (22) 
COc1ccc(/C=C/c2nc3ccccc3c(=O)n2CC2CCCCC2)cc1OC (cis-trans isomerization)
COc1ccc(/C=C/c2nc3ccccc3c(=O)n2CC2CCCCC2)cc1OC (3D coordinates assigned)
COc1ccc(/C=C/c2nc3ccccc3c(=O)n2CC2CCCCC2)cc1OC (nonaromatic ring conformer: 74.35306140140834 kcal/mol)

>  <smiles>  (22) 
COc1ccc(/C=C/c2nc3ccccc3c(=O)n2CC2CCCCC2)cc1OC

>  <score_type>  (22) 
oracle

>  <origin>  (22) 
autodockgpu

>  <m_score__min__energy>  (22) 
-7.5199999999999996

>  <m_primary>  (22) 
energy

>  <meeko>  (22) 
{"free_energy": -6.92, "intermolecular_energy": -9.01, "internal_energy": -2.09, "cluster_size": 5, "cluster_id": 3, "rank_in_cluster": 4}

>  <energy>  (22) 
-7.46

>  <cluster_rmsd>  (22) 
0.29

>  <rmsd>  (22) 
269.56

>  <cluster>  (22) 
1

$$$$
CHYZURNRBYISSB-FYWRMAATNA-N
     RDKit          3D

 58 61  0  0  0  0  0  0  0  0999 V2000
  136.4548   71.3590  221.7250 H   0  0  0  0  0  0  0  0  0  0  0  0
  136.8680   71.6400  222.7050 C   0  0  0  0  0  0  0  0  0  0  0  0
  138.1750   71.4680  222.9400 C   0  0  0  0  0  0  0  0  0  0  0  0
  138.9069   71.8767  222.2278 H   0  0  0  0  0  0  0  0  0  0  0  0
  138.6610   70.7370  224.1420 C   0  0  0  0  0  0  0  0  0  0  0  0
  139.3680   71.4560  225.0580 N   0  0  0  0  0  0  0  0  0  0  0  0
  139.9340   70.8880  226.1400 C   0  0  0  0  0  0  0  0  0  0  0  0
  140.6240   71.6780  227.0670 C   0  0  0  0  0  0  0  0  0  0  0  0
  140.6900   72.7663  226.9210 H   0  0  0  0  0  0  0  0  0  0  0  0
  141.2290   71.0840  228.1780 C   0  0  0  0  0  0  0  0  0  0  0  0
  141.7685   71.7063  228.9072 H   0  0  0  0  0  0  0  0  0  0  0  0
  141.1500   69.6990  228.3650 C   0  0  0  0  0  0  0  0  0  0  0  0
  141.6228   69.2346  229.2430 H   0  0  0  0  0  0  0  0  0  0  0  0
  140.4710   68.9070  227.4370 C   0  0  0  0  0  0  0  0  0  0  0  0
  140.4218   67.8172  227.5781 H   0  0  0  0  0  0  0  0  0  0  0  0
  139.8490   69.4990  226.3210 C   0  0  0  0  0  0  0  0  0  0  0  0
  139.1240   68.7520  225.3830 C   0  0  0  0  0  0  0  0  0  0  0  0
  139.0520   67.4960  225.5190 O   0  0  0  0  0  0  0  0  0  0  0  0
  138.4900   69.3730  224.3280 N   0  0  0  0  0  0  0  0  0  0  0  0
  137.6200   68.5420  223.4590 C   0  0  0  0  0  0  0  0  0  0  0  0
  137.0070   67.8855  224.0940 H   0  0  0  0  0  0  0  0  0  0  0  0
  136.9909   69.2183  222.8617 H   0  0  0  0  0  0  0  0  0  0  0  0
  138.4470   67.6620  222.4770 C   0  0  0  0  0  0  0  0  0  0  0  0
  139.0821   67.0158  223.1007 H   0  0  0  0  0  0  0  0  0  0  0  0
  139.3730   68.5320  221.5810 C   0  0  0  0  0  0  0  0  0  0  0  0
  139.4693   69.5234  222.0477 H   0  0  0  0  0  0  0  0  0  0  0  0
  140.3302   67.9949  221.5077 H   0  0  0  0  0  0  0  0  0  0  0  0
  138.8700   68.7270  220.1380 C   0  0  0  0  0  0  0  0  0  0  0  0
  139.2654   69.6772  219.7497 H   0  0  0  0  0  0  0  0  0  0  0  0
  139.2212   67.8744  219.5382 H   0  0  0  0  0  0  0  0  0  0  0  0
  137.3460   68.7600  220.0620 C   0  0  0  0  0  0  0  0  0  0  0  0
  136.9784   69.5956  220.6758 H   0  0  0  0  0  0  0  0  0  0  0  0
  137.0624   68.8846  219.0065 H   0  0  0  0  0  0  0  0  0  0  0  0
  136.7100   67.4500  220.5730 C   0  0  0  0  0  0  0  0  0  0  0  0
  135.7358   67.6898  221.0241 H   0  0  0  0  0  0  0  0  0  0  0  0
  136.6175   66.7783  219.7068 H   0  0  0  0  0  0  0  0  0  0  0  0
  137.5660   66.7140  221.6250 C   0  0  0  0  0  0  0  0  0  0  0  0
  136.8927   66.1645  222.2993 H   0  0  0  0  0  0  0  0  0  0  0  0
  138.2460   66.0443  221.0781 H   0  0  0  0  0  0  0  0  0  0  0  0
  135.9760   72.1960  223.7290 C   0  0  0  0  0  0  0  0  0  0  0  0
  135.7960   73.5800  223.8560 C   0  0  0  0  0  0  0  0  0  0  0  0
  136.3257   74.2679  223.1806 H   0  0  0  0  0  0  0  0  0  0  0  0
  134.9450   74.0850  224.8390 C   0  0  0  0  0  0  0  0  0  0  0  0
  134.7837   75.1704  224.9160 H   0  0  0  0  0  0  0  0  0  0  0  0
  134.2890   73.2140  225.7360 C   0  0  0  0  0  0  0  0  0  0  0  0
  133.4510   73.6880  226.7580 O   0  0  0  0  0  0  0  0  0  0  0  0
  132.0590   73.3990  226.8480 C   0  0  0  0  0  0  0  0  0  0  0  0
  131.7649   73.3379  227.9062 H   0  0  0  0  0  0  0  0  0  0  0  0
  131.4861   74.1973  226.3537 H   0  0  0  0  0  0  0  0  0  0  0  0
  131.8512   72.4386  226.3537 H   0  0  0  0  0  0  0  0  0  0  0  0
  134.4820   71.8280  225.6240 C   0  0  0  0  0  0  0  0  0  0  0  0
  133.8610   70.9940  226.5630 O   0  0  0  0  0  0  0  0  0  0  0  0
  134.3120   70.8190  227.9070 C   0  0  0  0  0  0  0  0  0  0  0  0
  133.5180   71.1271  228.6032 H   0  0  0  0  0  0  0  0  0  0  0  0
  134.5577   69.7603  228.0764 H   0  0  0  0  0  0  0  0  0  0  0  0
  135.2075   71.4349  228.0764 H   0  0  0  0  0  0  0  0  0  0  0  0
  135.2990   71.3210  224.5970 C   0  0  0  0  0  0  0  0  0  0  0  0
  135.4089   70.2336  224.4723 H   0  0  0  0  0  0  0  0  0  0  0  0
  1  2  1  0
  2  3  2  0
  3  4  1  0
  3  5  1  0
  5  6  2  0
  6  7  1  0
  7  8  2  0
  8  9  1  0
  8 10  1  0
 10 11  1  0
 10 12  2  0
 12 13  1  0
 12 14  1  0
 14 15  1  0
 14 16  2  0
 16 17  1  0
 17 18  2  0
 17 19  1  0
 19 20  1  0
 20 21  1  0
 20 22  1  0
 20 23  1  0
 23 24  1  0
 23 25  1  0
 25 26  1  0
 25 27  1  0
 25 28  1  0
 28 29  1  0
 28 30  1  0
 28 31  1  0
 31 32  1  0
 31 33  1  0
 31 34  1  0
 34 35  1  0
 34 36  1  0
 34 37  1  0
 37 38  1  0
 37 39  1  0
  2 40  1  0
 40 41  2  0
 41 42  1  0
 41 43  1  0
 43 44  1  0
 43 45  2  0
 45 46  1  0
 46 47  1  0
 47 48  1  0
 47 49  1  0
 47 50  1  0
 45 51  1  0
 51 52  1  0
 52 53  1  0
 53 54  1  0
 53 55  1  0
 53 56  1  0
 51 57  2  0
 57 58  1  0
 19  5  1  0
 37 23  1  0
 57 40  1  0
 16  7  1  0
M  END
>  <UniqueID>  (23) 
66

>  <SMILES>  (23) 
COc1ccc(/C=C/c2nc3ccccc3c(=O)n2CC2CCCCC2)cc1OC

>  <Energy>  (23) 
74.35306140140834

>  <Genealogy>  (23) 
COc1ccc(/C=C/c2nc3ccccc3c(=O)n2CC2CCCCC2)cc1OC (cis-trans isomerization)
COc1ccc(/C=C/c2nc3ccccc3c(=O)n2CC2CCCCC2)cc1OC (3D coordinates assigned)
COc1ccc(/C=C/c2nc3ccccc3c(=O)n2CC2CCCCC2)cc1OC (nonaromatic ring conformer: 74.35306140140834 kcal/mol)

>  <smiles>  (23) 
COc1ccc(/C=C/c2nc3ccccc3c(=O)n2CC2CCCCC2)cc1OC

>  <score_type>  (23) 
oracle

>  <origin>  (23) 
autodockgpu

>  <m_score__min__energy>  (23) 
-7.5199999999999996

>  <m_primary>  (23) 
energy

>  <meeko>  (23) 
{"free_energy": -6.93, "intermolecular_energy": -9.02, "internal_energy": -1.99, "cluster_size": 3, "cluster_id": 5, "rank_in_cluster": 3}

>  <energy>  (23) 
-7.38

>  <cluster_rmsd>  (23) 
0.59

>  <rmsd>  (23) 
269.52

>  <cluster>  (23) 
1

$$$$
CHYZURNRBYISSB-FYWRMAATNA-N
     RDKit          3D

 58 61  0  0  0  0  0  0  0  0999 V2000
  134.6135   68.3606  224.1597 H   0  0  0  0  0  0  0  0  0  0  0  0
  135.2750   69.2390  224.1870 C   0  0  0  0  0  0  0  0  0  0  0  0
  136.4580   69.1890  223.5640 C   0  0  0  0  0  0  0  0  0  0  0  0
  136.4890   68.9584  222.4889 H   0  0  0  0  0  0  0  0  0  0  0  0
  137.7340   69.4380  224.2910 C   0  0  0  0  0  0  0  0  0  0  0  0
  138.1300   68.4890  225.1850 N   0  0  0  0  0  0  0  0  0  0  0  0
  139.2160   68.6430  225.9660 C   0  0  0  0  0  0  0  0  0  0  0  0
  139.5960   67.6230  226.8460 C   0  0  0  0  0  0  0  0  0  0  0  0
  139.0172   66.6886  226.8885 H   0  0  0  0  0  0  0  0  0  0  0  0
  140.7120   67.7930  227.6710 C   0  0  0  0  0  0  0  0  0  0  0  0
  141.0120   66.9900  228.3604 H   0  0  0  0  0  0  0  0  0  0  0  0
  141.4490   68.9830  227.6220 C   0  0  0  0  0  0  0  0  0  0  0  0
  142.3290   69.1124  228.2692 H   0  0  0  0  0  0  0  0  0  0  0  0
  141.0660   70.0050  226.7510 C   0  0  0  0  0  0  0  0  0  0  0  0
  141.6379   70.9442  226.7226 H   0  0  0  0  0  0  0  0  0  0  0  0
  139.9500   69.8370  225.9090 C   0  0  0  0  0  0  0  0  0  0  0  0
  139.5490   70.8180  224.9920 C   0  0  0  0  0  0  0  0  0  0  0  0
  140.1870   71.9100  224.9400 O   0  0  0  0  0  0  0  0  0  0  0  0
  138.4790   70.6000  224.1520 N   0  0  0  0  0  0  0  0  0  0  0  0
  138.2010   71.6160  223.1070 C   0  0  0  0  0  0  0  0  0  0  0  0
  137.1149   71.6653  222.9396 H   0  0  0  0  0  0  0  0  0  0  0  0
  138.5937   72.5814  223.4588 H   0  0  0  0  0  0  0  0  0  0  0  0
  138.9020   71.2740  221.7600 C   0  0  0  0  0  0  0  0  0  0  0  0
  138.5137   70.2923  221.4509 H   0  0  0  0  0  0  0  0  0  0  0  0
  140.4420   71.1510  221.9380 C   0  0  0  0  0  0  0  0  0  0  0  0
  140.6545   71.0226  223.0096 H   0  0  0  0  0  0  0  0  0  0  0  0
  140.7588   70.2910  221.3297 H   0  0  0  0  0  0  0  0  0  0  0  0
  141.2440   72.3640  221.4310 C   0  0  0  0  0  0  0  0  0  0  0  0
  142.1841   72.4299  221.9984 H   0  0  0  0  0  0  0  0  0  0  0  0
  141.4350   72.2189  220.3575 H   0  0  0  0  0  0  0  0  0  0  0  0
  140.4750   73.6720  221.5990 C   0  0  0  0  0  0  0  0  0  0  0  0
  140.2568   73.8205  222.6669 H   0  0  0  0  0  0  0  0  0  0  0  0
  141.1001   74.4856  221.2023 H   0  0  0  0  0  0  0  0  0  0  0  0
  139.1450   73.6690  220.8150 C   0  0  0  0  0  0  0  0  0  0  0  0
  138.4175   74.2858  221.3630 H   0  0  0  0  0  0  0  0  0  0  0  0
  139.3619   74.0667  219.8126 H   0  0  0  0  0  0  0  0  0  0  0  0
  138.5420   72.2610  220.6210 C   0  0  0  0  0  0  0  0  0  0  0  0
  137.4470   72.3543  220.5739 H   0  0  0  0  0  0  0  0  0  0  0  0
  138.9654   71.8521  219.6917 H   0  0  0  0  0  0  0  0  0  0  0  0
  134.8430   70.4430  224.9060 C   0  0  0  0  0  0  0  0  0  0  0  0
  134.1350   70.3510  226.1110 C   0  0  0  0  0  0  0  0  0  0  0  0
  133.8958   69.3642  226.5340 H   0  0  0  0  0  0  0  0  0  0  0  0
  133.7330   71.5100  226.7750 C   0  0  0  0  0  0  0  0  0  0  0  0
  133.2032   71.4326  227.7359 H   0  0  0  0  0  0  0  0  0  0  0  0
  134.0010   72.7820  226.2230 C   0  0  0  0  0  0  0  0  0  0  0  0
  133.5830   73.9690  226.8460 O   0  0  0  0  0  0  0  0  0  0  0  0
  132.2430   74.2320  227.2490 C   0  0  0  0  0  0  0  0  0  0  0  0
  132.1860   74.2432  228.3475 H   0  0  0  0  0  0  0  0  0  0  0  0
  131.9269   75.2093  226.8554 H   0  0  0  0  0  0  0  0  0  0  0  0
  131.5809   73.4467  226.8554 H   0  0  0  0  0  0  0  0  0  0  0  0
  134.6940   72.8770  225.0060 C   0  0  0  0  0  0  0  0  0  0  0  0
  134.8960   74.1510  224.4570 O   0  0  0  0  0  0  0  0  0  0  0  0
  135.8050   74.4330  223.3920 C   0  0  0  0  0  0  0  0  0  0  0  0
  136.7769   74.7345  223.8097 H   0  0  0  0  0  0  0  0  0  0  0  0
  135.9352   73.5330  222.7731 H   0  0  0  0  0  0  0  0  0  0  0  0
  135.4029   75.2486  222.7731 H   0  0  0  0  0  0  0  0  0  0  0  0
  135.1440   71.7070  224.3680 C   0  0  0  0  0  0  0  0  0  0  0  0
  135.7347   71.7811  223.4430 H   0  0  0  0  0  0  0  0  0  0  0  0
  1  2  1  0
  2  3  2  0
  3  4  1  0
  3  5  1  0
  5  6  2  0
  6  7  1  0
  7  8  2  0
  8  9  1  0
  8 10  1  0
 10 11  1  0
 10 12  2  0
 12 13  1  0
 12 14  1  0
 14 15  1  0
 14 16  2  0
 16 17  1  0
 17 18  2  0
 17 19  1  0
 19 20  1  0
 20 21  1  0
 20 22  1  0
 20 23  1  0
 23 24  1  0
 23 25  1  0
 25 26  1  0
 25 27  1  0
 25 28  1  0
 28 29  1  0
 28 30  1  0
 28 31  1  0
 31 32  1  0
 31 33  1  0
 31 34  1  0
 34 35  1  0
 34 36  1  0
 34 37  1  0
 37 38  1  0
 37 39  1  0
  2 40  1  0
 40 41  2  0
 41 42  1  0
 41 43  1  0
 43 44  1  0
 43 45  2  0
 45 46  1  0
 46 47  1  0
 47 48  1  0
 47 49  1  0
 47 50  1  0
 45 51  1  0
 51 52  1  0
 52 53  1  0
 53 54  1  0
 53 55  1  0
 53 56  1  0
 51 57  2  0
 57 58  1  0
 19  5  1  0
 37 23  1  0
 57 40  1  0
 16  7  1  0
M  END
>  <UniqueID>  (24) 
66

>  <SMILES>  (24) 
COc1ccc(/C=C/c2nc3ccccc3c(=O)n2CC2CCCCC2)cc1OC

>  <Energy>  (24) 
74.35306140140834

>  <Genealogy>  (24) 
COc1ccc(/C=C/c2nc3ccccc3c(=O)n2CC2CCCCC2)cc1OC (cis-trans isomerization)
COc1ccc(/C=C/c2nc3ccccc3c(=O)n2CC2CCCCC2)cc1OC (3D coordinates assigned)
COc1ccc(/C=C/c2nc3ccccc3c(=O)n2CC2CCCCC2)cc1OC (nonaromatic ring conformer: 74.35306140140834 kcal/mol)

>  <smiles>  (24) 
COc1ccc(/C=C/c2nc3ccccc3c(=O)n2CC2CCCCC2)cc1OC

>  <score_type>  (24) 
oracle

>  <origin>  (24) 
autodockgpu

>  <m_score__min__energy>  (24) 
-7.5199999999999996

>  <m_primary>  (24) 
energy

>  <meeko>  (24) 
{"free_energy": -6.81, "intermolecular_energy": -8.9, "internal_energy": -1.97, "cluster_size": 1, "cluster_id": 6, "rank_in_cluster": 1}

>  <energy>  (24) 
-7.3

>  <cluster_rmsd>  (24) 
1.13

>  <rmsd>  (24) 
269.64

>  <cluster>  (24) 
1

$$$$
CHYZURNRBYISSB-FYWRMAATNA-N
     RDKit          3D

 58 61  0  0  0  0  0  0  0  0999 V2000
  137.9275   72.5342  221.8636 H   0  0  0  0  0  0  0  0  0  0  0  0
  139.0100   72.6630  222.0110 C   0  0  0  0  0  0  0  0  0  0  0  0
  139.7740   71.5870  222.2370 C   0  0  0  0  0  0  0  0  0  0  0  0
  140.4137   71.2030  221.4287 H   0  0  0  0  0  0  0  0  0  0  0  0
  139.7780   70.8980  223.5570 C   0  0  0  0  0  0  0  0  0  0  0  0
  140.3140   71.5810  224.6070 N   0  0  0  0  0  0  0  0  0  0  0  0
  140.4540   71.0300  225.8280 C   0  0  0  0  0  0  0  0  0  0  0  0
  140.9830   71.7860  226.8810 C   0  0  0  0  0  0  0  0  0  0  0  0
  141.2679   72.8355  226.7158 H   0  0  0  0  0  0  0  0  0  0  0  0
  141.1490   71.2070  228.1420 C   0  0  0  0  0  0  0  0  0  0  0  0
  141.5632   71.8023  228.9691 H   0  0  0  0  0  0  0  0  0  0  0  0
  140.7890   69.8700  228.3550 C   0  0  0  0  0  0  0  0  0  0  0  0
  140.9152   69.4178  229.3498 H   0  0  0  0  0  0  0  0  0  0  0  0
  140.2700   69.1120  227.3040 C   0  0  0  0  0  0  0  0  0  0  0  0
  140.0007   68.0583  227.4691 H   0  0  0  0  0  0  0  0  0  0  0  0
  140.0900   69.6910  226.0340 C   0  0  0  0  0  0  0  0  0  0  0  0
  139.5380   68.9820  224.9580 C   0  0  0  0  0  0  0  0  0  0  0  0
  139.2220   67.7670  225.1190 O   0  0  0  0  0  0  0  0  0  0  0  0
  139.3350   69.5970  223.7410 N   0  0  0  0  0  0  0  0  0  0  0  0
  138.6130   68.8330  222.6940 C   0  0  0  0  0  0  0  0  0  0  0  0
  138.6413   69.4042  221.7543 H   0  0  0  0  0  0  0  0  0  0  0  0
  139.1093   67.8578  222.5817 H   0  0  0  0  0  0  0  0  0  0  0  0
  137.1270   68.5750  223.0810 C   0  0  0  0  0  0  0  0  0  0  0  0
  137.0828   67.5477  223.4718 H   0  0  0  0  0  0  0  0  0  0  0  0
  136.1960   68.6610  221.8380 C   0  0  0  0  0  0  0  0  0  0  0  0
  136.8191   68.5735  220.9357 H   0  0  0  0  0  0  0  0  0  0  0  0
  135.4655   67.8447  221.9381 H   0  0  0  0  0  0  0  0  0  0  0  0
  135.3830   69.9650  221.7360 C   0  0  0  0  0  0  0  0  0  0  0  0
  135.1576   70.1608  220.6773 H   0  0  0  0  0  0  0  0  0  0  0  0
  134.4614   69.8368  222.3227 H   0  0  0  0  0  0  0  0  0  0  0  0
  136.1420   71.1600  222.3070 C   0  0  0  0  0  0  0  0  0  0  0  0
  137.0789   71.2867  221.7447 H   0  0  0  0  0  0  0  0  0  0  0  0
  135.4975   72.0466  222.2138 H   0  0  0  0  0  0  0  0  0  0  0  0
  136.4800   70.9730  223.8020 C   0  0  0  0  0  0  0  0  0  0  0  0
  137.4270   71.4920  224.0115 H   0  0  0  0  0  0  0  0  0  0  0  0
  135.6383   71.3876  224.3762 H   0  0  0  0  0  0  0  0  0  0  0  0
  136.6300   69.4960  224.2240 C   0  0  0  0  0  0  0  0  0  0  0  0
  137.3508   69.4421  225.0532 H   0  0  0  0  0  0  0  0  0  0  0  0
  135.6313   69.1395  224.5163 H   0  0  0  0  0  0  0  0  0  0  0  0
  139.5880   74.0110  221.9560 C   0  0  0  0  0  0  0  0  0  0  0  0
  140.9170   74.2110  221.5630 C   0  0  0  0  0  0  0  0  0  0  0  0
  141.5442   73.3506  221.2866 H   0  0  0  0  0  0  0  0  0  0  0  0
  141.4460   75.5020  221.5220 C   0  0  0  0  0  0  0  0  0  0  0  0
  142.4815   75.6572  221.1849 H   0  0  0  0  0  0  0  0  0  0  0  0
  140.6620   76.6100  221.9100 C   0  0  0  0  0  0  0  0  0  0  0  0
  141.1690   77.9200  221.9120 O   0  0  0  0  0  0  0  0  0  0  0  0
  141.5050   78.6450  223.0910 C   0  0  0  0  0  0  0  0  0  0  0  0
  141.2305   78.0527  223.9764 H   0  0  0  0  0  0  0  0  0  0  0  0
  142.5869   78.8434  223.1036 H   0  0  0  0  0  0  0  0  0  0  0  0
  140.9571   79.5988  223.1036 H   0  0  0  0  0  0  0  0  0  0  0  0
  139.3350   76.4110  222.3220 C   0  0  0  0  0  0  0  0  0  0  0  0
  138.6000   77.5240  222.7540 O   0  0  0  0  0  0  0  0  0  0  0  0
  138.1180   78.5540  221.8900 C   0  0  0  0  0  0  0  0  0  0  0  0
  137.7283   79.3867  222.4940 H   0  0  0  0  0  0  0  0  0  0  0  0
  138.9407   78.9150  221.2553 H   0  0  0  0  0  0  0  0  0  0  0  0
  137.3137   78.1536  221.2553 H   0  0  0  0  0  0  0  0  0  0  0  0
  138.7900   75.1130  222.3110 C   0  0  0  0  0  0  0  0  0  0  0  0
  137.7348   74.9601  222.5814 H   0  0  0  0  0  0  0  0  0  0  0  0
  1  2  1  0
  2  3  2  0
  3  4  1  0
  3  5  1  0
  5  6  2  0
  6  7  1  0
  7  8  2  0
  8  9  1  0
  8 10  1  0
 10 11  1  0
 10 12  2  0
 12 13  1  0
 12 14  1  0
 14 15  1  0
 14 16  2  0
 16 17  1  0
 17 18  2  0
 17 19  1  0
 19 20  1  0
 20 21  1  0
 20 22  1  0
 20 23  1  0
 23 24  1  0
 23 25  1  0
 25 26  1  0
 25 27  1  0
 25 28  1  0
 28 29  1  0
 28 30  1  0
 28 31  1  0
 31 32  1  0
 31 33  1  0
 31 34  1  0
 34 35  1  0
 34 36  1  0
 34 37  1  0
 37 38  1  0
 37 39  1  0
  2 40  1  0
 40 41  2  0
 41 42  1  0
 41 43  1  0
 43 44  1  0
 43 45  2  0
 45 46  1  0
 46 47  1  0
 47 48  1  0
 47 49  1  0
 47 50  1  0
 45 51  1  0
 51 52  1  0
 52 53  1  0
 53 54  1  0
 53 55  1  0
 53 56  1  0
 51 57  2  0
 57 58  1  0
 19  5  1  0
 37 23  1  0
 57 40  1  0
 16  7  1  0
M  END
>  <UniqueID>  (25) 
66

>  <SMILES>  (25) 
COc1ccc(/C=C/c2nc3ccccc3c(=O)n2CC2CCCCC2)cc1OC

>  <Energy>  (25) 
74.35306140140834

>  <Genealogy>  (25) 
COc1ccc(/C=C/c2nc3ccccc3c(=O)n2CC2CCCCC2)cc1OC (cis-trans isomerization)
COc1ccc(/C=C/c2nc3ccccc3c(=O)n2CC2CCCCC2)cc1OC (3D coordinates assigned)
COc1ccc(/C=C/c2nc3ccccc3c(=O)n2CC2CCCCC2)cc1OC (nonaromatic ring conformer: 74.35306140140834 kcal/mol)

>  <smiles>  (25) 
COc1ccc(/C=C/c2nc3ccccc3c(=O)n2CC2CCCCC2)cc1OC

>  <score_type>  (25) 
oracle

>  <origin>  (25) 
autodockgpu

>  <m_score__min__energy>  (25) 
-7.5199999999999996

>  <m_primary>  (25) 
energy

>  <meeko>  (25) 
{"free_energy": -7.09, "intermolecular_energy": -9.18, "internal_energy": -1.88, "cluster_size": 5, "cluster_id": 3, "rank_in_cluster": 1}

>  <energy>  (25) 
-7.13

>  <cluster_rmsd>  (25) 
1.35

>  <rmsd>  (25) 
269.69

>  <cluster>  (25) 
1

$$$$
CHYZURNRBYISSB-FYWRMAATNA-N
     RDKit          3D

 58 61  0  0  0  0  0  0  0  0999 V2000
  140.7906   73.5919  222.2551 H   0  0  0  0  0  0  0  0  0  0  0  0
  141.2050   72.6920  221.7770 C   0  0  0  0  0  0  0  0  0  0  0  0
  140.5840   71.5170  221.9390 C   0  0  0  0  0  0  0  0  0  0  0  0
  140.3067   70.9289  221.0517 H   0  0  0  0  0  0  0  0  0  0  0  0
  140.2600   70.9880  223.2930 C   0  0  0  0  0  0  0  0  0  0  0  0
  140.8000   71.6450  224.3580 N   0  0  0  0  0  0  0  0  0  0  0  0
  140.6520   71.2100  225.6230 C   0  0  0  0  0  0  0  0  0  0  0  0
  141.2010   71.9400  226.6840 C   0  0  0  0  0  0  0  0  0  0  0  0
  141.7387   72.8789  226.4855 H   0  0  0  0  0  0  0  0  0  0  0  0
  141.0660   71.4760  227.9950 C   0  0  0  0  0  0  0  0  0  0  0  0
  141.4958   72.0518  228.8279 H   0  0  0  0  0  0  0  0  0  0  0  0
  140.3850   70.2800  228.2510 C   0  0  0  0  0  0  0  0  0  0  0  0
  140.2762   69.9195  229.2845 H   0  0  0  0  0  0  0  0  0  0  0  0
  139.8440   69.5450  227.1950 C   0  0  0  0  0  0  0  0  0  0  0  0
  139.3207   68.5988  227.3970 H   0  0  0  0  0  0  0  0  0  0  0  0
  139.9660   70.0110  225.8720 C   0  0  0  0  0  0  0  0  0  0  0  0
  139.4090   69.3290  224.7820 C   0  0  0  0  0  0  0  0  0  0  0  0
  138.8040   68.2360  224.9840 O   0  0  0  0  0  0  0  0  0  0  0  0
  139.5110   69.8400  223.5060 N   0  0  0  0  0  0  0  0  0  0  0  0
  138.7720   69.1450  222.4220 C   0  0  0  0  0  0  0  0  0  0  0  0
  139.4420   69.0204  221.5585 H   0  0  0  0  0  0  0  0  0  0  0  0
  138.4369   68.1714  222.8090 H   0  0  0  0  0  0  0  0  0  0  0  0
  137.5140   69.9420  221.9710 C   0  0  0  0  0  0  0  0  0  0  0  0
  137.6474   70.1468  220.8985 H   0  0  0  0  0  0  0  0  0  0  0  0
  137.4090   71.3040  222.7140 C   0  0  0  0  0  0  0  0  0  0  0  0
  138.3931   71.5352  223.1478 H   0  0  0  0  0  0  0  0  0  0  0  0
  137.0830   72.0427  221.9670 H   0  0  0  0  0  0  0  0  0  0  0  0
  136.3650   71.3370  223.8460 C   0  0  0  0  0  0  0  0  0  0  0  0
  136.6734   72.0851  224.5912 H   0  0  0  0  0  0  0  0  0  0  0  0
  135.3919   71.5935  223.4019 H   0  0  0  0  0  0  0  0  0  0  0  0
  136.2240   69.9830  224.5370 C   0  0  0  0  0  0  0  0  0  0  0  0
  137.1962   69.7019  224.9680 H   0  0  0  0  0  0  0  0  0  0  0  0
  135.4543   70.0795  225.3169 H   0  0  0  0  0  0  0  0  0  0  0  0
  135.7740   68.8760  223.5600 C   0  0  0  0  0  0  0  0  0  0  0  0
  136.2108   67.9222  223.8909 H   0  0  0  0  0  0  0  0  0  0  0  0
  134.6742   68.8616  223.5750 H   0  0  0  0  0  0  0  0  0  0  0  0
  136.2020   69.1270  222.0980 C   0  0  0  0  0  0  0  0  0  0  0  0
  136.3470   68.1542  221.6054 H   0  0  0  0  0  0  0  0  0  0  0  0
  135.4053   69.7191  221.6240 H   0  0  0  0  0  0  0  0  0  0  0  0
  142.4290   72.8020  220.9730 C   0  0  0  0  0  0  0  0  0  0  0  0
  142.8870   74.0460  220.5220 C   0  0  0  0  0  0  0  0  0  0  0  0
  142.3290   74.9606  220.7713 H   0  0  0  0  0  0  0  0  0  0  0  0
  144.0500   74.1260  219.7570 C   0  0  0  0  0  0  0  0  0  0  0  0
  144.4213   75.1081  219.4291 H   0  0  0  0  0  0  0  0  0  0  0  0
  144.7550   72.9550  219.4000 C   0  0  0  0  0  0  0  0  0  0  0  0
  145.9120   72.9930  218.6050 O   0  0  0  0  0  0  0  0  0  0  0  0
  145.9310   73.4030  217.2410 C   0  0  0  0  0  0  0  0  0  0  0  0
  145.9819   74.5006  217.1887 H   0  0  0  0  0  0  0  0  0  0  0  0
  146.8101   72.9710  216.7405 H   0  0  0  0  0  0  0  0  0  0  0  0
  145.0157   73.0541  216.7405 H   0  0  0  0  0  0  0  0  0  0  0  0
  144.2880   71.7050  219.8360 C   0  0  0  0  0  0  0  0  0  0  0  0
  144.9780   70.5580  219.4190 O   0  0  0  0  0  0  0  0  0  0  0  0
  144.3920   69.2600  219.3110 C   0  0  0  0  0  0  0  0  0  0  0  0
  144.2093   68.8553  220.3174 H   0  0  0  0  0  0  0  0  0  0  0  0
  143.4391   69.3321  218.7662 H   0  0  0  0  0  0  0  0  0  0  0  0
  145.0763   68.5929  218.7662 H   0  0  0  0  0  0  0  0  0  0  0  0
  143.1440   71.6350  220.6520 C   0  0  0  0  0  0  0  0  0  0  0  0
  142.8075   70.6625  221.0406 H   0  0  0  0  0  0  0  0  0  0  0  0
  1  2  1  0
  2  3  2  0
  3  4  1  0
  3  5  1  0
  5  6  2  0
  6  7  1  0
  7  8  2  0
  8  9  1  0
  8 10  1  0
 10 11  1  0
 10 12  2  0
 12 13  1  0
 12 14  1  0
 14 15  1  0
 14 16  2  0
 16 17  1  0
 17 18  2  0
 17 19  1  0
 19 20  1  0
 20 21  1  0
 20 22  1  0
 20 23  1  0
 23 24  1  0
 23 25  1  0
 25 26  1  0
 25 27  1  0
 25 28  1  0
 28 29  1  0
 28 30  1  0
 28 31  1  0
 31 32  1  0
 31 33  1  0
 31 34  1  0
 34 35  1  0
 34 36  1  0
 34 37  1  0
 37 38  1  0
 37 39  1  0
  2 40  1  0
 40 41  2  0
 41 42  1  0
 41 43  1  0
 43 44  1  0
 43 45  2  0
 45 46  1  0
 46 47  1  0
 47 48  1  0
 47 49  1  0
 47 50  1  0
 45 51  1  0
 51 52  1  0
 52 53  1  0
 53 54  1  0
 53 55  1  0
 53 56  1  0
 51 57  2  0
 57 58  1  0
 19  5  1  0
 37 23  1  0
 57 40  1  0
 16  7  1  0
M  END
>  <UniqueID>  (26) 
66

>  <SMILES>  (26) 
COc1ccc(/C=C/c2nc3ccccc3c(=O)n2CC2CCCCC2)cc1OC

>  <Energy>  (26) 
74.35306140140834

>  <Genealogy>  (26) 
COc1ccc(/C=C/c2nc3ccccc3c(=O)n2CC2CCCCC2)cc1OC (cis-trans isomerization)
COc1ccc(/C=C/c2nc3ccccc3c(=O)n2CC2CCCCC2)cc1OC (3D coordinates assigned)
COc1ccc(/C=C/c2nc3ccccc3c(=O)n2CC2CCCCC2)cc1OC (nonaromatic ring conformer: 74.35306140140834 kcal/mol)

>  <smiles>  (26) 
COc1ccc(/C=C/c2nc3ccccc3c(=O)n2CC2CCCCC2)cc1OC

>  <score_type>  (26) 
oracle

>  <origin>  (26) 
autodockgpu

>  <m_score__min__energy>  (26) 
-7.5199999999999996

>  <m_primary>  (26) 
energy

>  <meeko>  (26) 
{"free_energy": -7.52, "intermolecular_energy": -9.61, "internal_energy": -1.64, "cluster_size": 7, "cluster_id": 1, "rank_in_cluster": 1}

>  <energy>  (26) 
-7.05

>  <cluster_rmsd>  (26) 
1.68

>  <rmsd>  (26) 
269.35

>  <cluster>  (26) 
1

$$$$
CHYZURNRBYISSB-FYWRMAATNA-N
     RDKit          3D

 58 61  0  0  0  0  0  0  0  0999 V2000
  138.4552   73.0729  222.5333 H   0  0  0  0  0  0  0  0  0  0  0  0
  139.4860   72.8720  222.2060 C   0  0  0  0  0  0  0  0  0  0  0  0
  139.9880   71.6380  222.3390 C   0  0  0  0  0  0  0  0  0  0  0  0
  140.4586   71.1529  221.4711 H   0  0  0  0  0  0  0  0  0  0  0  0
  139.9240   70.9070  223.6350 C   0  0  0  0  0  0  0  0  0  0  0  0
  140.4520   71.5330  224.7240 N   0  0  0  0  0  0  0  0  0  0  0  0
  140.5330   70.9380  225.9290 C   0  0  0  0  0  0  0  0  0  0  0  0
  141.0560   71.6390  227.0230 C   0  0  0  0  0  0  0  0  0  0  0  0
  141.3854   72.6815  226.9022 H   0  0  0  0  0  0  0  0  0  0  0  0
  141.1590   71.0130  228.2680 C   0  0  0  0  0  0  0  0  0  0  0  0
  141.5678   71.5646  229.1275 H   0  0  0  0  0  0  0  0  0  0  0  0
  140.7430   69.6850  228.4240 C   0  0  0  0  0  0  0  0  0  0  0  0
  140.8212   69.1958  229.4061 H   0  0  0  0  0  0  0  0  0  0  0  0
  140.2290   68.9820  227.3330 C   0  0  0  0  0  0  0  0  0  0  0  0
  139.9152   67.9347  227.4542 H   0  0  0  0  0  0  0  0  0  0  0  0
  140.1110   69.6090  226.0780 C   0  0  0  0  0  0  0  0  0  0  0  0
  139.5680   68.9570  224.9630 C   0  0  0  0  0  0  0  0  0  0  0  0
  139.2000   67.7510  225.0730 O   0  0  0  0  0  0  0  0  0  0  0  0
  139.4270   69.6180  223.7620 N   0  0  0  0  0  0  0  0  0  0  0  0
  138.7100   68.9180  222.6670 C   0  0  0  0  0  0  0  0  0  0  0  0
  138.8226   69.4992  221.7399 H   0  0  0  0  0  0  0  0  0  0  0  0
  139.1465   67.9138  222.5615 H   0  0  0  0  0  0  0  0  0  0  0  0
  137.1930   68.7540  222.9770 C   0  0  0  0  0  0  0  0  0  0  0  0
  137.0577   67.7168  223.3174 H   0  0  0  0  0  0  0  0  0  0  0  0
  136.3290   68.9620  221.7000 C   0  0  0  0  0  0  0  0  0  0  0  0
  136.9851   68.8665  220.8223 H   0  0  0  0  0  0  0  0  0  0  0  0
  135.5371   68.1991  221.7311 H   0  0  0  0  0  0  0  0  0  0  0  0
  135.6190   70.3260  221.6230 C   0  0  0  0  0  0  0  0  0  0  0  0
  135.4597   70.5838  220.5656 H   0  0  0  0  0  0  0  0  0  0  0  0
  134.6636   70.2414  222.1615 H   0  0  0  0  0  0  0  0  0  0  0  0
  136.4340   71.4360  222.2830 C   0  0  0  0  0  0  0  0  0  0  0  0
  137.4032   71.5178  221.7693 H   0  0  0  0  0  0  0  0  0  0  0  0
  135.8600   72.3710  222.2033 H   0  0  0  0  0  0  0  0  0  0  0  0
  136.6860   71.1590  223.7800 C   0  0  0  0  0  0  0  0  0  0  0  0
  137.6566   71.5973  224.0555 H   0  0  0  0  0  0  0  0  0  0  0  0
  135.8492   71.6084  224.3349 H   0  0  0  0  0  0  0  0  0  0  0  0
  136.7100   69.6580  224.1390 C   0  0  0  0  0  0  0  0  0  0  0  0
  137.3854   69.5153  224.9955 H   0  0  0  0  0  0  0  0  0  0  0  0
  135.6758   69.3634  224.3708 H   0  0  0  0  0  0  0  0  0  0  0  0
  140.2840   73.9620  221.6320 C   0  0  0  0  0  0  0  0  0  0  0  0
  141.3480   73.6960  220.7610 C   0  0  0  0  0  0  0  0  0  0  0  0
  141.5950   72.6575  220.4954 H   0  0  0  0  0  0  0  0  0  0  0  0
  142.0950   74.7490  220.2300 C   0  0  0  0  0  0  0  0  0  0  0  0
  142.9114   74.5376  219.5238 H   0  0  0  0  0  0  0  0  0  0  0  0
  141.8100   76.0840  220.5930 C   0  0  0  0  0  0  0  0  0  0  0  0
  142.5590   77.1660  220.1040 O   0  0  0  0  0  0  0  0  0  0  0  0
  142.6000   77.5560  218.7350 C   0  0  0  0  0  0  0  0  0  0  0  0
  142.7148   78.6479  218.6681 H   0  0  0  0  0  0  0  0  0  0  0  0
  143.4517   77.0667  218.2397 H   0  0  0  0  0  0  0  0  0  0  0  0
  141.6652   77.2546  218.2397 H   0  0  0  0  0  0  0  0  0  0  0  0
  140.7550   76.3510  221.4800 C   0  0  0  0  0  0  0  0  0  0  0  0
  140.5330   77.6810  221.8630 O   0  0  0  0  0  0  0  0  0  0  0  0
  141.3800   78.4170  222.7470 C   0  0  0  0  0  0  0  0  0  0  0  0
  141.1130   78.1850  223.7886 H   0  0  0  0  0  0  0  0  0  0  0  0
  142.4287   78.1384  222.5666 H   0  0  0  0  0  0  0  0  0  0  0  0
  141.2505   79.4944  222.5666 H   0  0  0  0  0  0  0  0  0  0  0  0
  139.9720   75.2900  221.9700 C   0  0  0  0  0  0  0  0  0  0  0  0
  139.1109   75.5009  222.6212 H   0  0  0  0  0  0  0  0  0  0  0  0
  1  2  1  0
  2  3  2  0
  3  4  1  0
  3  5  1  0
  5  6  2  0
  6  7  1  0
  7  8  2  0
  8  9  1  0
  8 10  1  0
 10 11  1  0
 10 12  2  0
 12 13  1  0
 12 14  1  0
 14 15  1  0
 14 16  2  0
 16 17  1  0
 17 18  2  0
 17 19  1  0
 19 20  1  0
 20 21  1  0
 20 22  1  0
 20 23  1  0
 23 24  1  0
 23 25  1  0
 25 26  1  0
 25 27  1  0
 25 28  1  0
 28 29  1  0
 28 30  1  0
 28 31  1  0
 31 32  1  0
 31 33  1  0
 31 34  1  0
 34 35  1  0
 34 36  1  0
 34 37  1  0
 37 38  1  0
 37 39  1  0
  2 40  1  0
 40 41  2  0
 41 42  1  0
 41 43  1  0
 43 44  1  0
 43 45  2  0
 45 46  1  0
 46 47  1  0
 47 48  1  0
 47 49  1  0
 47 50  1  0
 45 51  1  0
 51 52  1  0
 52 53  1  0
 53 54  1  0
 53 55  1  0
 53 56  1  0
 51 57  2  0
 57 58  1  0
 19  5  1  0
 37 23  1  0
 57 40  1  0
 16  7  1  0
M  END
>  <UniqueID>  (27) 
66

>  <SMILES>  (27) 
COc1ccc(/C=C/c2nc3ccccc3c(=O)n2CC2CCCCC2)cc1OC

>  <Energy>  (27) 
74.35306140140834

>  <Genealogy>  (27) 
COc1ccc(/C=C/c2nc3ccccc3c(=O)n2CC2CCCCC2)cc1OC (cis-trans isomerization)
COc1ccc(/C=C/c2nc3ccccc3c(=O)n2CC2CCCCC2)cc1OC (3D coordinates assigned)
COc1ccc(/C=C/c2nc3ccccc3c(=O)n2CC2CCCCC2)cc1OC (nonaromatic ring conformer: 74.35306140140834 kcal/mol)

>  <smiles>  (27) 
COc1ccc(/C=C/c2nc3ccccc3c(=O)n2CC2CCCCC2)cc1OC

>  <score_type>  (27) 
oracle

>  <origin>  (27) 
autodockgpu

>  <m_score__min__energy>  (27) 
-7.5199999999999996

>  <m_primary>  (27) 
energy

>  <meeko>  (27) 
{"free_energy": -7.05, "intermolecular_energy": -9.14, "internal_energy": -1.78, "cluster_size": 5, "cluster_id": 3, "rank_in_cluster": 3}

>  <energy>  (27) 
-6.98

>  <cluster_rmsd>  (27) 
1.68

>  <rmsd>  (27) 
269.36

>  <cluster>  (27) 
1

$$$$
CHYZURNRBYISSB-FYWRMAATNA-N
     RDKit          3D

 58 61  0  0  0  0  0  0  0  0999 V2000
  138.7544   73.3093  222.8207 H   0  0  0  0  0  0  0  0  0  0  0  0
  139.6750   72.9520  222.3360 C   0  0  0  0  0  0  0  0  0  0  0  0
  139.9850   71.6510  222.3940 C   0  0  0  0  0  0  0  0  0  0  0  0
  140.2966   71.1318  221.4757 H   0  0  0  0  0  0  0  0  0  0  0  0
  139.9180   70.8900  223.6720 C   0  0  0  0  0  0  0  0  0  0  0  0
  140.4360   71.4950  224.7780 N   0  0  0  0  0  0  0  0  0  0  0  0
  140.5130   70.8740  225.9700 C   0  0  0  0  0  0  0  0  0  0  0  0
  141.0260   71.5520  227.0820 C   0  0  0  0  0  0  0  0  0  0  0  0
  141.3512   72.5985  226.9864 H   0  0  0  0  0  0  0  0  0  0  0  0
  141.1250   70.8990  228.3140 C   0  0  0  0  0  0  0  0  0  0  0  0
  141.5256   71.4336  229.1879 H   0  0  0  0  0  0  0  0  0  0  0  0
  140.7150   69.5650  228.4380 C   0  0  0  0  0  0  0  0  0  0  0  0
  140.7896   69.0546  229.4096 H   0  0  0  0  0  0  0  0  0  0  0  0
  140.2120   68.8840  227.3290 C   0  0  0  0  0  0  0  0  0  0  0  0
  139.9035   67.8325  227.4247 H   0  0  0  0  0  0  0  0  0  0  0  0
  140.0980   69.5390  226.0870 C   0  0  0  0  0  0  0  0  0  0  0  0
  139.5640   68.9090  224.9540 C   0  0  0  0  0  0  0  0  0  0  0  0
  139.2030   67.6990  225.0350 O   0  0  0  0  0  0  0  0  0  0  0  0
  139.4270   69.5960  223.7680 N   0  0  0  0  0  0  0  0  0  0  0  0
  138.7200   68.9170  222.6530 C   0  0  0  0  0  0  0  0  0  0  0  0
  138.8591   69.5047  221.7336 H   0  0  0  0  0  0  0  0  0  0  0  0
  139.1429   67.9071  222.5463 H   0  0  0  0  0  0  0  0  0  0  0  0
  137.1950   68.7740  222.9330 C   0  0  0  0  0  0  0  0  0  0  0  0
  137.0323   67.7283  223.2330 H   0  0  0  0  0  0  0  0  0  0  0  0
  136.3570   69.0460  221.6510 C   0  0  0  0  0  0  0  0  0  0  0  0
  137.0255   68.9692  220.7808 H   0  0  0  0  0  0  0  0  0  0  0  0
  135.5498   68.2988  221.6406 H   0  0  0  0  0  0  0  0  0  0  0  0
  135.6760   70.4270  221.6140 C   0  0  0  0  0  0  0  0  0  0  0  0
  135.5392   70.7269  220.5646 H   0  0  0  0  0  0  0  0  0  0  0  0
  134.7105   70.3425  222.1342 H   0  0  0  0  0  0  0  0  0  0  0  0
  136.5020   71.4940  222.3270 C   0  0  0  0  0  0  0  0  0  0  0  0
  137.4810   71.5744  221.8318 H   0  0  0  0  0  0  0  0  0  0  0  0
  135.9484   72.4430  222.2732 H   0  0  0  0  0  0  0  0  0  0  0  0
  136.7240   71.1570  223.8170 C   0  0  0  0  0  0  0  0  0  0  0  0
  137.6985   71.5647  224.1237 H   0  0  0  0  0  0  0  0  0  0  0  0
  135.8876   71.6029  224.3752 H   0  0  0  0  0  0  0  0  0  0  0  0
  136.7120   69.6440  224.1200 C   0  0  0  0  0  0  0  0  0  0  0  0
  137.3706   69.4557  224.9807 H   0  0  0  0  0  0  0  0  0  0  0  0
  135.6685   69.3626  224.3248 H   0  0  0  0  0  0  0  0  0  0  0  0
  140.5400   73.9110  221.6380 C   0  0  0  0  0  0  0  0  0  0  0  0
  141.6690   73.4830  220.9300 C   0  0  0  0  0  0  0  0  0  0  0  0
  141.9185   72.4125  220.8885 H   0  0  0  0  0  0  0  0  0  0  0  0
  142.4780   74.4130  220.2770 C   0  0  0  0  0  0  0  0  0  0  0  0
  143.3478   74.0690  219.6980 H   0  0  0  0  0  0  0  0  0  0  0  0
  142.1880   75.7940  220.3540 C   0  0  0  0  0  0  0  0  0  0  0  0
  142.9970   76.7620  219.7370 O   0  0  0  0  0  0  0  0  0  0  0  0
  142.6030   77.5250  218.6010 C   0  0  0  0  0  0  0  0  0  0  0  0
  142.1220   78.4566  218.9339 H   0  0  0  0  0  0  0  0  0  0  0  0
  143.4894   77.7660  217.9958 H   0  0  0  0  0  0  0  0  0  0  0  0
  141.8933   76.9418  217.9958 H   0  0  0  0  0  0  0  0  0  0  0  0
  141.0670   76.2270  221.0790 C   0  0  0  0  0  0  0  0  0  0  0  0
  140.8370   77.6060  221.1820 O   0  0  0  0  0  0  0  0  0  0  0  0
  141.4210   78.4470  222.1780 C   0  0  0  0  0  0  0  0  0  0  0  0
  141.1585   78.0689  223.1770 H   0  0  0  0  0  0  0  0  0  0  0  0
  142.5149   78.4476  222.0620 H   0  0  0  0  0  0  0  0  0  0  0  0
  141.0394   79.4722  222.0620 H   0  0  0  0  0  0  0  0  0  0  0  0
  140.2250   75.2810  221.6910 C   0  0  0  0  0  0  0  0  0  0  0  0
  139.3161   75.6140  222.2134 H   0  0  0  0  0  0  0  0  0  0  0  0
  1  2  1  0
  2  3  2  0
  3  4  1  0
  3  5  1  0
  5  6  2  0
  6  7  1  0
  7  8  2  0
  8  9  1  0
  8 10  1  0
 10 11  1  0
 10 12  2  0
 12 13  1  0
 12 14  1  0
 14 15  1  0
 14 16  2  0
 16 17  1  0
 17 18  2  0
 17 19  1  0
 19 20  1  0
 20 21  1  0
 20 22  1  0
 20 23  1  0
 23 24  1  0
 23 25  1  0
 25 26  1  0
 25 27  1  0
 25 28  1  0
 28 29  1  0
 28 30  1  0
 28 31  1  0
 31 32  1  0
 31 33  1  0
 31 34  1  0
 34 35  1  0
 34 36  1  0
 34 37  1  0
 37 38  1  0
 37 39  1  0
  2 40  1  0
 40 41  2  0
 41 42  1  0
 41 43  1  0
 43 44  1  0
 43 45  2  0
 45 46  1  0
 46 47  1  0
 47 48  1  0
 47 49  1  0
 47 50  1  0
 45 51  1  0
 51 52  1  0
 52 53  1  0
 53 54  1  0
 53 55  1  0
 53 56  1  0
 51 57  2  0
 57 58  1  0
 19  5  1  0
 37 23  1  0
 57 40  1  0
 16  7  1  0
M  END
>  <UniqueID>  (28) 
66

>  <SMILES>  (28) 
COc1ccc(/C=C/c2nc3ccccc3c(=O)n2CC2CCCCC2)cc1OC

>  <Energy>  (28) 
74.35306140140834

>  <Genealogy>  (28) 
COc1ccc(/C=C/c2nc3ccccc3c(=O)n2CC2CCCCC2)cc1OC (cis-trans isomerization)
COc1ccc(/C=C/c2nc3ccccc3c(=O)n2CC2CCCCC2)cc1OC (3D coordinates assigned)
COc1ccc(/C=C/c2nc3ccccc3c(=O)n2CC2CCCCC2)cc1OC (nonaromatic ring conformer: 74.35306140140834 kcal/mol)

>  <smiles>  (28) 
COc1ccc(/C=C/c2nc3ccccc3c(=O)n2CC2CCCCC2)cc1OC

>  <score_type>  (28) 
oracle

>  <origin>  (28) 
autodockgpu

>  <m_score__min__energy>  (28) 
-7.5199999999999996

>  <m_primary>  (28) 
energy

>  <meeko>  (28) 
{"free_energy": -7.06, "intermolecular_energy": -9.15, "internal_energy": -1.77, "cluster_size": 5, "cluster_id": 3, "rank_in_cluster": 2}

>  <energy>  (28) 
-7.46

>  <cluster_rmsd>  (28) 
0.0

>  <rmsd>  (28) 
270.02

>  <cluster>  (28) 
2

$$$$
CHYZURNRBYISSB-FYWRMAATNA-N
     RDKit          3D

 58 61  0  0  0  0  0  0  0  0999 V2000
  136.4190   71.8337  221.8665 H   0  0  0  0  0  0  0  0  0  0  0  0
  136.8130   71.6620  222.8790 C   0  0  0  0  0  0  0  0  0  0  0  0
  138.1250   71.4560  223.0470 C   0  0  0  0  0  0  0  0  0  0  0  0
  138.8308   71.8587  222.3056 H   0  0  0  0  0  0  0  0  0  0  0  0
  138.6520   70.6950  224.2130 C   0  0  0  0  0  0  0  0  0  0  0  0
  139.3300   71.4050  225.1570 N   0  0  0  0  0  0  0  0  0  0  0  0
  139.9290   70.8170  226.2100 C   0  0  0  0  0  0  0  0  0  0  0  0
  140.5870   71.5970  227.1680 C   0  0  0  0  0  0  0  0  0  0  0  0
  140.6013   72.6926  227.0702 H   0  0  0  0  0  0  0  0  0  0  0  0
  141.2260   70.9830  228.2490 C   0  0  0  0  0  0  0  0  0  0  0  0
  141.7411   71.5968  229.0026 H   0  0  0  0  0  0  0  0  0  0  0  0
  141.2120   69.5880  228.3750 C   0  0  0  0  0  0  0  0  0  0  0  0
  141.7120   69.1074  229.2289 H   0  0  0  0  0  0  0  0  0  0  0  0
  140.5630   68.8080  227.4160 C   0  0  0  0  0  0  0  0  0  0  0  0
  140.5635   67.7120  227.5094 H   0  0  0  0  0  0  0  0  0  0  0  0
  139.9080   69.4190  226.3300 C   0  0  0  0  0  0  0  0  0  0  0  0
  139.2120   68.6810  225.3630 C   0  0  0  0  0  0  0  0  0  0  0  0
  139.1990   67.4180  225.4440 O   0  0  0  0  0  0  0  0  0  0  0  0
  138.5450   69.3180  224.3390 N   0  0  0  0  0  0  0  0  0  0  0  0
  137.7080   68.4870  223.4380 C   0  0  0  0  0  0  0  0  0  0  0  0
  137.1177   67.7866  224.0472 H   0  0  0  0  0  0  0  0  0  0  0  0
  137.0560   69.1606  222.8625 H   0  0  0  0  0  0  0  0  0  0  0  0
  138.5690   67.6730  222.4290 C   0  0  0  0  0  0  0  0  0  0  0  0
  139.3044   67.1169  223.0289 H   0  0  0  0  0  0  0  0  0  0  0  0
  139.3430   68.6120  221.4600 C   0  0  0  0  0  0  0  0  0  0  0  0
  139.3564   69.6210  221.8978 H   0  0  0  0  0  0  0  0  0  0  0  0
  140.3474   68.1792  221.3425 H   0  0  0  0  0  0  0  0  0  0  0  0
  138.7420   68.7100  220.0460 C   0  0  0  0  0  0  0  0  0  0  0  0
  139.0093   69.6855  219.6136 H   0  0  0  0  0  0  0  0  0  0  0  0
  139.1497   67.8830  219.4461 H   0  0  0  0  0  0  0  0  0  0  0  0
  137.2210   68.5770  220.0590 C   0  0  0  0  0  0  0  0  0  0  0  0
  136.7995   69.3848  220.6753 H   0  0  0  0  0  0  0  0  0  0  0  0
  136.8662   68.6415  219.0198 H   0  0  0  0  0  0  0  0  0  0  0  0
  136.7620   67.2200  220.6350 C   0  0  0  0  0  0  0  0  0  0  0  0
  135.7937   67.3652  221.1364 H   0  0  0  0  0  0  0  0  0  0  0  0
  136.6963   66.5181  219.7906 H   0  0  0  0  0  0  0  0  0  0  0  0
  137.7510   66.6110  221.6520 C   0  0  0  0  0  0  0  0  0  0  0  0
  137.1805   66.0118  222.3769 H   0  0  0  0  0  0  0  0  0  0  0  0
  138.4686   66.0027  221.0818 H   0  0  0  0  0  0  0  0  0  0  0  0
  135.8900   71.6630  224.0210 C   0  0  0  0  0  0  0  0  0  0  0  0
  135.4350   70.4640  224.5830 C   0  0  0  0  0  0  0  0  0  0  0  0
  135.7708   69.5012  224.1704 H   0  0  0  0  0  0  0  0  0  0  0  0
  134.5560   70.4900  225.6660 C   0  0  0  0  0  0  0  0  0  0  0  0
  134.2248   69.5459  226.1231 H   0  0  0  0  0  0  0  0  0  0  0  0
  134.0880   71.7200  226.1800 C   0  0  0  0  0  0  0  0  0  0  0  0
  133.1780   71.7850  227.2470 O   0  0  0  0  0  0  0  0  0  0  0  0
  131.8610   72.3170  227.1430 C   0  0  0  0  0  0  0  0  0  0  0  0
  131.4517   72.4823  228.1506 H   0  0  0  0  0  0  0  0  0  0  0  0
  131.8934   73.2726  226.5991 H   0  0  0  0  0  0  0  0  0  0  0  0
  131.2206   71.6070  226.5991 H   0  0  0  0  0  0  0  0  0  0  0  0
  134.5280   72.9230  225.6060 C   0  0  0  0  0  0  0  0  0  0  0  0
  134.0040   74.1240  226.1030 O   0  0  0  0  0  0  0  0  0  0  0  0
  134.4580   75.4220  225.7150 C   0  0  0  0  0  0  0  0  0  0  0  0
  134.6675   76.0209  226.6135 H   0  0  0  0  0  0  0  0  0  0  0  0
  135.3758   75.3257  225.1164 H   0  0  0  0  0  0  0  0  0  0  0  0
  133.6802   75.9187  225.1164 H   0  0  0  0  0  0  0  0  0  0  0  0
  135.4560   72.8920  224.5490 C   0  0  0  0  0  0  0  0  0  0  0  0
  135.8440   73.8337  224.1335 H   0  0  0  0  0  0  0  0  0  0  0  0
  1  2  1  0
  2  3  2  0
  3  4  1  0
  3  5  1  0
  5  6  2  0
  6  7  1  0
  7  8  2  0
  8  9  1  0
  8 10  1  0
 10 11  1  0
 10 12  2  0
 12 13  1  0
 12 14  1  0
 14 15  1  0
 14 16  2  0
 16 17  1  0
 17 18  2  0
 17 19  1  0
 19 20  1  0
 20 21  1  0
 20 22  1  0
 20 23  1  0
 23 24  1  0
 23 25  1  0
 25 26  1  0
 25 27  1  0
 25 28  1  0
 28 29  1  0
 28 30  1  0
 28 31  1  0
 31 32  1  0
 31 33  1  0
 31 34  1  0
 34 35  1  0
 34 36  1  0
 34 37  1  0
 37 38  1  0
 37 39  1  0
  2 40  1  0
 40 41  2  0
 41 42  1  0
 41 43  1  0
 43 44  1  0
 43 45  2  0
 45 46  1  0
 46 47  1  0
 47 48  1  0
 47 49  1  0
 47 50  1  0
 45 51  1  0
 51 52  1  0
 52 53  1  0
 53 54  1  0
 53 55  1  0
 53 56  1  0
 51 57  2  0
 57 58  1  0
 19  5  1  0
 37 23  1  0
 57 40  1  0
 16  7  1  0
M  END
>  <UniqueID>  (29) 
66

>  <SMILES>  (29) 
COc1ccc(/C=C/c2nc3ccccc3c(=O)n2CC2CCCCC2)cc1OC

>  <Energy>  (29) 
74.35306140140834

>  <Genealogy>  (29) 
COc1ccc(/C=C/c2nc3ccccc3c(=O)n2CC2CCCCC2)cc1OC (cis-trans isomerization)
COc1ccc(/C=C/c2nc3ccccc3c(=O)n2CC2CCCCC2)cc1OC (3D coordinates assigned)
COc1ccc(/C=C/c2nc3ccccc3c(=O)n2CC2CCCCC2)cc1OC (nonaromatic ring conformer: 74.35306140140834 kcal/mol)

>  <smiles>  (29) 
COc1ccc(/C=C/c2nc3ccccc3c(=O)n2CC2CCCCC2)cc1OC

>  <score_type>  (29) 
oracle

>  <origin>  (29) 
autodockgpu

>  <m_score__min__energy>  (29) 
-7.5199999999999996

>  <m_primary>  (29) 
energy

>  <meeko>  (29) 
{"free_energy": -6.99, "intermolecular_energy": -9.08, "internal_energy": -2.0, "cluster_size": 3, "cluster_id": 5, "rank_in_cluster": 2}

>  <energy>  (29) 
-7.46

>  <cluster_rmsd>  (29) 
0.46

>  <rmsd>  (29) 
270.03

>  <cluster>  (29) 
2

$$$$
CHYZURNRBYISSB-FYWRMAATNA-N
     RDKit          3D

 58 61  0  0  0  0  0  0  0  0999 V2000
  140.0738   70.5733  220.6148 H   0  0  0  0  0  0  0  0  0  0  0  0
  140.6230   71.3310  221.1930 C   0  0  0  0  0  0  0  0  0  0  0  0
  140.0540   71.8660  222.2800 C   0  0  0  0  0  0  0  0  0  0  0  0
  139.6348   72.8814  222.2221 H   0  0  0  0  0  0  0  0  0  0  0  0
  139.9750   71.1190  223.5660 C   0  0  0  0  0  0  0  0  0  0  0  0
  140.4860   71.7340  224.6690 N   0  0  0  0  0  0  0  0  0  0  0  0
  140.5520   71.1250  225.8680 C   0  0  0  0  0  0  0  0  0  0  0  0
  141.0580   71.8150  226.9770 C   0  0  0  0  0  0  0  0  0  0  0  0
  141.3857   72.8599  226.8730 H   0  0  0  0  0  0  0  0  0  0  0  0
  141.1460   71.1740  228.2160 C   0  0  0  0  0  0  0  0  0  0  0  0
  141.5415   71.7165  229.0874 H   0  0  0  0  0  0  0  0  0  0  0  0
  140.7320   69.8430  228.3510 C   0  0  0  0  0  0  0  0  0  0  0  0
  140.7977   69.3430  229.3286 H   0  0  0  0  0  0  0  0  0  0  0  0
  140.2360   69.1510  227.2450 C   0  0  0  0  0  0  0  0  0  0  0  0
  139.9247   68.1011  227.3493 H   0  0  0  0  0  0  0  0  0  0  0  0
  140.1330   69.7930  225.9960 C   0  0  0  0  0  0  0  0  0  0  0  0
  139.6070   69.1530  224.8660 C   0  0  0  0  0  0  0  0  0  0  0  0
  139.2430   67.9440  224.9560 O   0  0  0  0  0  0  0  0  0  0  0  0
  139.4810   69.8270  223.6710 N   0  0  0  0  0  0  0  0  0  0  0  0
  138.7810   69.1380  222.5580 C   0  0  0  0  0  0  0  0  0  0  0  0
  138.9194   69.7216  221.6359 H   0  0  0  0  0  0  0  0  0  0  0  0
  139.2100   68.1300  222.4589 H   0  0  0  0  0  0  0  0  0  0  0  0
  137.2570   68.9870  222.8330 C   0  0  0  0  0  0  0  0  0  0  0  0
  137.1075   67.9550  223.1832 H   0  0  0  0  0  0  0  0  0  0  0  0
  136.4250   69.1830  221.5340 C   0  0  0  0  0  0  0  0  0  0  0  0
  137.1011   69.0716  220.6735 H   0  0  0  0  0  0  0  0  0  0  0  0
  135.6277   68.4255  221.5573 H   0  0  0  0  0  0  0  0  0  0  0  0
  135.7250   70.5500  221.4210 C   0  0  0  0  0  0  0  0  0  0  0  0
  135.5917   70.7936  220.3566 H   0  0  0  0  0  0  0  0  0  0  0  0
  134.7566   70.4789  221.9379 H   0  0  0  0  0  0  0  0  0  0  0  0
  136.5320   71.6640  222.0840 C   0  0  0  0  0  0  0  0  0  0  0  0
  137.5138   71.7319  221.5925 H   0  0  0  0  0  0  0  0  0  0  0  0
  135.9673   72.6019  221.9771 H   0  0  0  0  0  0  0  0  0  0  0  0
  136.7460   71.4060  223.5910 C   0  0  0  0  0  0  0  0  0  0  0  0
  137.7123   71.8423  223.8840 H   0  0  0  0  0  0  0  0  0  0  0  0
  135.8988   71.8678  224.1191 H   0  0  0  0  0  0  0  0  0  0  0  0
  136.7520   69.9100  223.9710 C   0  0  0  0  0  0  0  0  0  0  0  0
  137.4059   69.7751  224.8452 H   0  0  0  0  0  0  0  0  0  0  0  0
  135.7108   69.6248  224.1820 H   0  0  0  0  0  0  0  0  0  0  0  0
  141.9650   71.7350  220.7570 C   0  0  0  0  0  0  0  0  0  0  0  0
  142.9080   70.7850  220.3460 C   0  0  0  0  0  0  0  0  0  0  0  0
  142.6474   69.7163  220.3441 H   0  0  0  0  0  0  0  0  0  0  0  0
  144.1780   71.1940  219.9390 C   0  0  0  0  0  0  0  0  0  0  0  0
  144.9057   70.4469  219.5895 H   0  0  0  0  0  0  0  0  0  0  0  0
  144.5370   72.5590  219.9720 C   0  0  0  0  0  0  0  0  0  0  0  0
  145.8160   73.0050  219.6000 O   0  0  0  0  0  0  0  0  0  0  0  0
  146.6770   73.7590  220.4470 C   0  0  0  0  0  0  0  0  0  0  0  0
  146.4346   73.5467  221.4988 H   0  0  0  0  0  0  0  0  0  0  0  0
  147.7225   73.4807  220.2483 H   0  0  0  0  0  0  0  0  0  0  0  0
  146.5391   74.8321  220.2483 H   0  0  0  0  0  0  0  0  0  0  0  0
  143.5990   73.5120  220.4000 C   0  0  0  0  0  0  0  0  0  0  0  0
  144.0030   74.8530  220.4740 O   0  0  0  0  0  0  0  0  0  0  0  0
  143.4340   75.9090  219.6980 C   0  0  0  0  0  0  0  0  0  0  0  0
  143.0208   76.6759  220.3696 H   0  0  0  0  0  0  0  0  0  0  0  0
  144.2122   76.3581  219.0635 H   0  0  0  0  0  0  0  0  0  0  0  0
  142.6309   75.5060  219.0635 H   0  0  0  0  0  0  0  0  0  0  0  0
  142.3030   73.1010  220.7590 C   0  0  0  0  0  0  0  0  0  0  0  0
  141.5498   73.8508  221.0427 H   0  0  0  0  0  0  0  0  0  0  0  0
  1  2  1  0
  2  3  2  0
  3  4  1  0
  3  5  1  0
  5  6  2  0
  6  7  1  0
  7  8  2  0
  8  9  1  0
  8 10  1  0
 10 11  1  0
 10 12  2  0
 12 13  1  0
 12 14  1  0
 14 15  1  0
 14 16  2  0
 16 17  1  0
 17 18  2  0
 17 19  1  0
 19 20  1  0
 20 21  1  0
 20 22  1  0
 20 23  1  0
 23 24  1  0
 23 25  1  0
 25 26  1  0
 25 27  1  0
 25 28  1  0
 28 29  1  0
 28 30  1  0
 28 31  1  0
 31 32  1  0
 31 33  1  0
 31 34  1  0
 34 35  1  0
 34 36  1  0
 34 37  1  0
 37 38  1  0
 37 39  1  0
  2 40  1  0
 40 41  2  0
 41 42  1  0
 41 43  1  0
 43 44  1  0
 43 45  2  0
 45 46  1  0
 46 47  1  0
 47 48  1  0
 47 49  1  0
 47 50  1  0
 45 51  1  0
 51 52  1  0
 52 53  1  0
 53 54  1  0
 53 55  1  0
 53 56  1  0
 51 57  2  0
 57 58  1  0
 19  5  1  0
 37 23  1  0
 57 40  1  0
 16  7  1  0
M  END
>  <UniqueID>  (30) 
66

>  <SMILES>  (30) 
COc1ccc(/C=C/c2nc3ccccc3c(=O)n2CC2CCCCC2)cc1OC

>  <Energy>  (30) 
74.35306140140834

>  <Genealogy>  (30) 
COc1ccc(/C=C/c2nc3ccccc3c(=O)n2CC2CCCCC2)cc1OC (cis-trans isomerization)
COc1ccc(/C=C/c2nc3ccccc3c(=O)n2CC2CCCCC2)cc1OC (3D coordinates assigned)
COc1ccc(/C=C/c2nc3ccccc3c(=O)n2CC2CCCCC2)cc1OC (nonaromatic ring conformer: 74.35306140140834 kcal/mol)

>  <smiles>  (30) 
COc1ccc(/C=C/c2nc3ccccc3c(=O)n2CC2CCCCC2)cc1OC

>  <score_type>  (30) 
oracle

>  <origin>  (30) 
autodockgpu

>  <m_score__min__energy>  (30) 
-7.5199999999999996

>  <m_primary>  (30) 
energy

>  <meeko>  (30) 
{"free_energy": -7.13, "intermolecular_energy": -9.21, "internal_energy": -1.74, "cluster_size": 7, "cluster_id": 1, "rank_in_cluster": 5}

>  <energy>  (30) 
-7.45

>  <cluster_rmsd>  (30) 
0.5

>  <rmsd>  (30) 
270.05

>  <cluster>  (30) 
2

$$$$
CHYZURNRBYISSB-FYWRMAATNA-N
     RDKit          3D

 58 61  0  0  0  0  0  0  0  0999 V2000
  140.5391   73.6188  222.4095 H   0  0  0  0  0  0  0  0  0  0  0  0
  140.9080   72.6900  221.9500 C   0  0  0  0  0  0  0  0  0  0  0  0
  140.2200   71.5540  222.1210 C   0  0  0  0  0  0  0  0  0  0  0  0
  139.7477   71.0762  221.2500 H   0  0  0  0  0  0  0  0  0  0  0  0
  140.0790   70.9220  223.4620 C   0  0  0  0  0  0  0  0  0  0  0  0
  140.5840   71.6100  224.5240 N   0  0  0  0  0  0  0  0  0  0  0  0
  140.5960   71.1030  225.7720 C   0  0  0  0  0  0  0  0  0  0  0  0
  141.0990   71.8650  226.8330 C   0  0  0  0  0  0  0  0  0  0  0  0
  141.4690   72.8848  226.6510 H   0  0  0  0  0  0  0  0  0  0  0  0
  141.1310   71.3300  228.1230 C   0  0  0  0  0  0  0  0  0  0  0  0
  141.5254   71.9301  228.9563 H   0  0  0  0  0  0  0  0  0  0  0  0
  140.6620   70.0310  228.3580 C   0  0  0  0  0  0  0  0  0  0  0  0
  140.6828   69.6139  229.3756 H   0  0  0  0  0  0  0  0  0  0  0  0
  140.1680   69.2660  227.2990 C   0  0  0  0  0  0  0  0  0  0  0  0
  139.8129   68.2411  227.4821 H   0  0  0  0  0  0  0  0  0  0  0  0
  140.1230   69.8020  225.9980 C   0  0  0  0  0  0  0  0  0  0  0  0
  139.6020   69.0880  224.9110 C   0  0  0  0  0  0  0  0  0  0  0  0
  139.1890   67.9060  225.0920 O   0  0  0  0  0  0  0  0  0  0  0  0
  139.5320   69.6630  223.6600 N   0  0  0  0  0  0  0  0  0  0  0  0
  138.8350   68.9080  222.5900 C   0  0  0  0  0  0  0  0  0  0  0  0
  139.0239   69.4024  221.6257 H   0  0  0  0  0  0  0  0  0  0  0  0
  139.2232   67.8788  222.5920 H   0  0  0  0  0  0  0  0  0  0  0  0
  137.2990   68.8430  222.8290 C   0  0  0  0  0  0  0  0  0  0  0  0
  137.0869   67.8290  223.1988 H   0  0  0  0  0  0  0  0  0  0  0  0
  136.5110   69.0510  221.5040 C   0  0  0  0  0  0  0  0  0  0  0  0
  137.2017   68.8846  220.6642 H   0  0  0  0  0  0  0  0  0  0  0  0
  135.6750   68.3364  221.5227 H   0  0  0  0  0  0  0  0  0  0  0  0
  135.8870   70.4490  221.3430 C   0  0  0  0  0  0  0  0  0  0  0  0
  135.7941   70.6746  220.2704 H   0  0  0  0  0  0  0  0  0  0  0  0
  134.9035   70.4397  221.8355 H   0  0  0  0  0  0  0  0  0  0  0  0
  136.7330   71.5350  222.0030 C   0  0  0  0  0  0  0  0  0  0  0  0
  137.7287   71.5419  221.5356 H   0  0  0  0  0  0  0  0  0  0  0  0
  136.2190   72.4972  221.8619 H   0  0  0  0  0  0  0  0  0  0  0  0
  136.8970   71.3020  223.5200 C   0  0  0  0  0  0  0  0  0  0  0  0
  137.8777   71.6941  223.8276 H   0  0  0  0  0  0  0  0  0  0  0  0
  136.0633   71.8199  224.0168 H   0  0  0  0  0  0  0  0  0  0  0  0
  136.8150   69.8170  223.9320 C   0  0  0  0  0  0  0  0  0  0  0  0
  137.4386   69.6686  224.8259 H   0  0  0  0  0  0  0  0  0  0  0  0
  135.7551   69.5914  224.1211 H   0  0  0  0  0  0  0  0  0  0  0  0
  142.1450   72.7190  221.1610 C   0  0  0  0  0  0  0  0  0  0  0  0
  142.6970   73.9320  220.7280 C   0  0  0  0  0  0  0  0  0  0  0  0
  142.2037   74.8821  220.9811 H   0  0  0  0  0  0  0  0  0  0  0  0
  143.8720   73.9350  219.9760 C   0  0  0  0  0  0  0  0  0  0  0  0
  144.3166   74.8908  219.6618 H   0  0  0  0  0  0  0  0  0  0  0  0
  144.4950   72.7200  219.6150 C   0  0  0  0  0  0  0  0  0  0  0  0
  145.6600   72.6820  218.8330 O   0  0  0  0  0  0  0  0  0  0  0  0
  145.7080   73.0300  217.4520 C   0  0  0  0  0  0  0  0  0  0  0  0
  145.8576   74.1152  217.3523 H   0  0  0  0  0  0  0  0  0  0  0  0
  146.5414   72.4990  216.9688 H   0  0  0  0  0  0  0  0  0  0  0  0
  144.7620   72.7444  216.9688 H   0  0  0  0  0  0  0  0  0  0  0  0
  143.9340   71.5020  220.0330 C   0  0  0  0  0  0  0  0  0  0  0  0
  144.5450   70.3130  219.6120 O   0  0  0  0  0  0  0  0  0  0  0  0
  143.8500   69.0830  219.3970 C   0  0  0  0  0  0  0  0  0  0  0  0
  143.5949   68.6316  220.3671 H   0  0  0  0  0  0  0  0  0  0  0  0
  142.9281   69.2772  218.8292 H   0  0  0  0  0  0  0  0  0  0  0  0
  144.4920   68.3935  218.8292 H   0  0  0  0  0  0  0  0  0  0  0  0
  142.7790   71.5070  220.8350 C   0  0  0  0  0  0  0  0  0  0  0  0
  142.3691   70.5574  221.2095 H   0  0  0  0  0  0  0  0  0  0  0  0
  1  2  1  0
  2  3  2  0
  3  4  1  0
  3  5  1  0
  5  6  2  0
  6  7  1  0
  7  8  2  0
  8  9  1  0
  8 10  1  0
 10 11  1  0
 10 12  2  0
 12 13  1  0
 12 14  1  0
 14 15  1  0
 14 16  2  0
 16 17  1  0
 17 18  2  0
 17 19  1  0
 19 20  1  0
 20 21  1  0
 20 22  1  0
 20 23  1  0
 23 24  1  0
 23 25  1  0
 25 26  1  0
 25 27  1  0
 25 28  1  0
 28 29  1  0
 28 30  1  0
 28 31  1  0
 31 32  1  0
 31 33  1  0
 31 34  1  0
 34 35  1  0
 34 36  1  0
 34 37  1  0
 37 38  1  0
 37 39  1  0
  2 40  1  0
 40 41  2  0
 41 42  1  0
 41 43  1  0
 43 44  1  0
 43 45  2  0
 45 46  1  0
 46 47  1  0
 47 48  1  0
 47 49  1  0
 47 50  1  0
 45 51  1  0
 51 52  1  0
 52 53  1  0
 53 54  1  0
 53 55  1  0
 53 56  1  0
 51 57  2  0
 57 58  1  0
 19  5  1  0
 37 23  1  0
 57 40  1  0
 16  7  1  0
M  END
>  <UniqueID>  (31) 
66

>  <SMILES>  (31) 
COc1ccc(/C=C/c2nc3ccccc3c(=O)n2CC2CCCCC2)cc1OC

>  <Energy>  (31) 
74.35306140140834

>  <Genealogy>  (31) 
COc1ccc(/C=C/c2nc3ccccc3c(=O)n2CC2CCCCC2)cc1OC (cis-trans isomerization)
COc1ccc(/C=C/c2nc3ccccc3c(=O)n2CC2CCCCC2)cc1OC (3D coordinates assigned)
COc1ccc(/C=C/c2nc3ccccc3c(=O)n2CC2CCCCC2)cc1OC (nonaromatic ring conformer: 74.35306140140834 kcal/mol)

>  <smiles>  (31) 
COc1ccc(/C=C/c2nc3ccccc3c(=O)n2CC2CCCCC2)cc1OC

>  <score_type>  (31) 
oracle

>  <origin>  (31) 
autodockgpu

>  <m_score__min__energy>  (31) 
-7.5199999999999996

>  <m_primary>  (31) 
energy

>  <meeko>  (31) 
{"free_energy": -7.38, "intermolecular_energy": -9.47, "internal_energy": -1.69, "cluster_size": 7, "cluster_id": 1, "rank_in_cluster": 3}

>  <energy>  (31) 
-7.09

>  <cluster_rmsd>  (31) 
0.0

>  <rmsd>  (31) 
269.77

>  <cluster>  (31) 
3

$$$$
CHYZURNRBYISSB-FYWRMAATNA-N
     RDKit          3D

 58 61  0  0  0  0  0  0  0  0999 V2000
  136.6590   71.5030  221.6344 H   0  0  0  0  0  0  0  0  0  0  0  0
  137.0450   71.5990  222.6600 C   0  0  0  0  0  0  0  0  0  0  0  0
  138.3480   71.3970  222.8930 C   0  0  0  0  0  0  0  0  0  0  0  0
  139.0881   71.7885  222.1795 H   0  0  0  0  0  0  0  0  0  0  0  0
  138.8190   70.6550  224.0950 C   0  0  0  0  0  0  0  0  0  0  0  0
  139.4680   71.3770  225.0510 N   0  0  0  0  0  0  0  0  0  0  0  0
  140.0170   70.8030  226.1390 C   0  0  0  0  0  0  0  0  0  0  0  0
  140.6460   71.5960  227.1070 C   0  0  0  0  0  0  0  0  0  0  0  0
  140.6769   72.6891  226.9877 H   0  0  0  0  0  0  0  0  0  0  0  0
  141.2340   70.9980  228.2240 C   0  0  0  0  0  0  0  0  0  0  0  0
  141.7256   71.6215  228.9852 H   0  0  0  0  0  0  0  0  0  0  0  0
  141.1990   69.6060  228.3770 C   0  0  0  0  0  0  0  0  0  0  0  0
  141.6592   69.1378  229.2597 H   0  0  0  0  0  0  0  0  0  0  0  0
  140.5800   68.8130  227.4090 C   0  0  0  0  0  0  0  0  0  0  0  0
  140.5643   67.7192  227.5243 H   0  0  0  0  0  0  0  0  0  0  0  0
  139.9760   69.4090  226.2860 C   0  0  0  0  0  0  0  0  0  0  0  0
  139.3110   68.6590  225.3070 C   0  0  0  0  0  0  0  0  0  0  0  0
  139.2810   67.3980  225.4110 O   0  0  0  0  0  0  0  0  0  0  0  0
  138.6920   69.2820  224.2440 N   0  0  0  0  0  0  0  0  0  0  0  0
  137.8820   68.4420  223.3270 C   0  0  0  0  0  0  0  0  0  0  0  0
  137.2294   67.7897  223.9259 H   0  0  0  0  0  0  0  0  0  0  0  0
  137.2922   69.1118  222.6839 H   0  0  0  0  0  0  0  0  0  0  0  0
  138.7740   67.5550  222.4090 C   0  0  0  0  0  0  0  0  0  0  0  0
  139.6258   67.2311  223.0250 H   0  0  0  0  0  0  0  0  0  0  0  0
  139.3290   68.3670  221.2040 C   0  0  0  0  0  0  0  0  0  0  0  0
  139.2291   69.4376  221.4361 H   0  0  0  0  0  0  0  0  0  0  0  0
  140.3741   68.0515  221.0692 H   0  0  0  0  0  0  0  0  0  0  0  0
  138.6140   68.0960  219.8670 C   0  0  0  0  0  0  0  0  0  0  0  0
  138.7033   68.9883  219.2299 H   0  0  0  0  0  0  0  0  0  0  0  0
  139.0908   67.2219  219.3993 H   0  0  0  0  0  0  0  0  0  0  0  0
  137.1340   67.7760  220.0610 C   0  0  0  0  0  0  0  0  0  0  0  0
  136.6468   68.6330  220.5492 H   0  0  0  0  0  0  0  0  0  0  0  0
  136.6973   67.5796  219.0707 H   0  0  0  0  0  0  0  0  0  0  0  0
  136.9210   66.5200  220.9320 C   0  0  0  0  0  0  0  0  0  0  0  0
  135.9831   66.6420  221.4937 H   0  0  0  0  0  0  0  0  0  0  0  0
  136.8930   65.6572  220.2502 H   0  0  0  0  0  0  0  0  0  0  0  0
  138.0620   66.2620  221.9390 C   0  0  0  0  0  0  0  0  0  0  0  0
  137.6410   65.7561  222.8204 H   0  0  0  0  0  0  0  0  0  0  0  0
  138.8147   65.6461  221.4250 H   0  0  0  0  0  0  0  0  0  0  0  0
  136.1220   71.9460  223.7470 C   0  0  0  0  0  0  0  0  0  0  0  0
  135.5550   70.9540  224.5580 C   0  0  0  0  0  0  0  0  0  0  0  0
  135.8024   69.8959  224.3870 H   0  0  0  0  0  0  0  0  0  0  0  0
  134.6770   71.3080  225.5820 C   0  0  0  0  0  0  0  0  0  0  0  0
  134.2568   70.5284  226.2344 H   0  0  0  0  0  0  0  0  0  0  0  0
  134.3230   72.6600  225.7880 C   0  0  0  0  0  0  0  0  0  0  0  0
  133.4190   73.0510  226.7890 O   0  0  0  0  0  0  0  0  0  0  0  0
  132.3140   72.2620  227.2200 C   0  0  0  0  0  0  0  0  0  0  0  0
  132.2849   72.2413  228.3194 H   0  0  0  0  0  0  0  0  0  0  0  0
  131.3800   72.6987  226.8367 H   0  0  0  0  0  0  0  0  0  0  0  0
  132.4238   71.2368  226.8367 H   0  0  0  0  0  0  0  0  0  0  0  0
  134.8760   73.6540  224.9660 C   0  0  0  0  0  0  0  0  0  0  0  0
  134.4630   74.9800  225.1600 O   0  0  0  0  0  0  0  0  0  0  0  0
  134.4460   75.6400  226.4260 C   0  0  0  0  0  0  0  0  0  0  0  0
  134.4653   74.8902  227.2307 H   0  0  0  0  0  0  0  0  0  0  0  0
  135.3276   76.2922  226.5113 H   0  0  0  0  0  0  0  0  0  0  0  0
  133.5319   76.2460  226.5113 H   0  0  0  0  0  0  0  0  0  0  0  0
  135.8020   73.2970  223.9680 C   0  0  0  0  0  0  0  0  0  0  0  0
  136.2777   74.0790  223.3579 H   0  0  0  0  0  0  0  0  0  0  0  0
  1  2  1  0
  2  3  2  0
  3  4  1  0
  3  5  1  0
  5  6  2  0
  6  7  1  0
  7  8  2  0
  8  9  1  0
  8 10  1  0
 10 11  1  0
 10 12  2  0
 12 13  1  0
 12 14  1  0
 14 15  1  0
 14 16  2  0
 16 17  1  0
 17 18  2  0
 17 19  1  0
 19 20  1  0
 20 21  1  0
 20 22  1  0
 20 23  1  0
 23 24  1  0
 23 25  1  0
 25 26  1  0
 25 27  1  0
 25 28  1  0
 28 29  1  0
 28 30  1  0
 28 31  1  0
 31 32  1  0
 31 33  1  0
 31 34  1  0
 34 35  1  0
 34 36  1  0
 34 37  1  0
 37 38  1  0
 37 39  1  0
  2 40  1  0
 40 41  2  0
 41 42  1  0
 41 43  1  0
 43 44  1  0
 43 45  2  0
 45 46  1  0
 46 47  1  0
 47 48  1  0
 47 49  1  0
 47 50  1  0
 45 51  1  0
 51 52  1  0
 52 53  1  0
 53 54  1  0
 53 55  1  0
 53 56  1  0
 51 57  2  0
 57 58  1  0
 19  5  1  0
 37 23  1  0
 57 40  1  0
 16  7  1  0
M  END
>  <UniqueID>  (32) 
66

>  <SMILES>  (32) 
COc1ccc(/C=C/c2nc3ccccc3c(=O)n2CC2CCCCC2)cc1OC

>  <Energy>  (32) 
74.35306140140834

>  <Genealogy>  (32) 
COc1ccc(/C=C/c2nc3ccccc3c(=O)n2CC2CCCCC2)cc1OC (cis-trans isomerization)
COc1ccc(/C=C/c2nc3ccccc3c(=O)n2CC2CCCCC2)cc1OC (3D coordinates assigned)
COc1ccc(/C=C/c2nc3ccccc3c(=O)n2CC2CCCCC2)cc1OC (nonaromatic ring conformer: 74.35306140140834 kcal/mol)

>  <smiles>  (32) 
COc1ccc(/C=C/c2nc3ccccc3c(=O)n2CC2CCCCC2)cc1OC

>  <score_type>  (32) 
oracle

>  <origin>  (32) 
autodockgpu

>  <m_score__min__energy>  (32) 
-7.5199999999999996

>  <m_primary>  (32) 
energy

>  <meeko>  (32) 
{"free_energy": -7.02, "intermolecular_energy": -9.1, "internal_energy": -1.82, "cluster_size": 3, "cluster_id": 5, "rank_in_cluster": 1}

>  <energy>  (32) 
-7.06

>  <cluster_rmsd>  (32) 
1.24

>  <rmsd>  (32) 
269.71

>  <cluster>  (32) 
3

$$$$
CHYZURNRBYISSB-FYWRMAATNA-N
     RDKit          3D

 58 61  0  0  0  0  0  0  0  0999 V2000
  136.2941   76.1054  221.7819 H   0  0  0  0  0  0  0  0  0  0  0  0
  136.7120   75.9180  222.7820 C   0  0  0  0  0  0  0  0  0  0  0  0
  137.9200   76.4050  223.0900 C   0  0  0  0  0  0  0  0  0  0  0  0
  138.0152   77.1191  223.9213 H   0  0  0  0  0  0  0  0  0  0  0  0
  139.1380   76.0030  222.3340 C   0  0  0  0  0  0  0  0  0  0  0  0
  139.4000   74.6690  222.2510 N   0  0  0  0  0  0  0  0  0  0  0  0
  140.5170   74.1880  221.6700 C   0  0  0  0  0  0  0  0  0  0  0  0
  140.7220   72.8060  221.5850 C   0  0  0  0  0  0  0  0  0  0  0  0
  139.9639   72.1118  221.9766 H   0  0  0  0  0  0  0  0  0  0  0  0
  141.8910   72.3090  221.0020 C   0  0  0  0  0  0  0  0  0  0  0  0
  142.0508   71.2229  220.9331 H   0  0  0  0  0  0  0  0  0  0  0  0
  142.8600   73.1910  220.5050 C   0  0  0  0  0  0  0  0  0  0  0  0
  143.7768   72.7973  220.0419 H   0  0  0  0  0  0  0  0  0  0  0  0
  142.6610   74.5700  220.5980 C   0  0  0  0  0  0  0  0  0  0  0  0
  143.4285   75.2615  220.2201 H   0  0  0  0  0  0  0  0  0  0  0  0
  141.4810   75.0780  221.1740 C   0  0  0  0  0  0  0  0  0  0  0  0
  141.2190   76.4520  221.2560 C   0  0  0  0  0  0  0  0  0  0  0  0
  142.0850   77.2710  220.8310 O   0  0  0  0  0  0  0  0  0  0  0  0
  140.0320   76.9110  221.7860 N   0  0  0  0  0  0  0  0  0  0  0  0
  139.7570   78.3670  221.7060 C   0  0  0  0  0  0  0  0  0  0  0  0
  140.4062   78.8094  220.9360 H   0  0  0  0  0  0  0  0  0  0  0  0
  138.6945   78.4991  221.4539 H   0  0  0  0  0  0  0  0  0  0  0  0
  140.0230   79.0850  223.0610 C   0  0  0  0  0  0  0  0  0  0  0  0
  139.2834   78.6864  223.7710 H   0  0  0  0  0  0  0  0  0  0  0  0
  139.8020   80.6200  222.9420 C   0  0  0  0  0  0  0  0  0  0  0  0
  139.2138   80.8127  222.0327 H   0  0  0  0  0  0  0  0  0  0  0  0
  139.2877   80.9337  223.8624 H   0  0  0  0  0  0  0  0  0  0  0  0
  141.0980   81.4490  222.8610 C   0  0  0  0  0  0  0  0  0  0  0  0
  140.8897   82.3806  222.3144 H   0  0  0  0  0  0  0  0  0  0  0  0
  141.4330   81.6557  223.8882 H   0  0  0  0  0  0  0  0  0  0  0  0
  142.2160   80.6970  222.1440 C   0  0  0  0  0  0  0  0  0  0  0  0
  141.8866   80.4628  221.1210 H   0  0  0  0  0  0  0  0  0  0  0  0
  143.1079   81.3408  222.1385 H   0  0  0  0  0  0  0  0  0  0  0  0
  142.5840   79.3810  222.8620 C   0  0  0  0  0  0  0  0  0  0  0  0
  142.9148   78.6537  222.1059 H   0  0  0  0  0  0  0  0  0  0  0  0
  143.3748   79.6213  223.5878 H   0  0  0  0  0  0  0  0  0  0  0  0
  141.4160   78.7600  223.6570 C   0  0  0  0  0  0  0  0  0  0  0  0
  141.5440   77.6675  223.6682 H   0  0  0  0  0  0  0  0  0  0  0  0
  141.4453   79.1930  224.6678 H   0  0  0  0  0  0  0  0  0  0  0  0
  135.9340   75.1390  223.7520 C   0  0  0  0  0  0  0  0  0  0  0  0
  135.7260   73.7650  223.5750 C   0  0  0  0  0  0  0  0  0  0  0  0
  136.1506   73.2534  222.6986 H   0  0  0  0  0  0  0  0  0  0  0  0
  134.9810   73.0450  224.5090 C   0  0  0  0  0  0  0  0  0  0  0  0
  134.8458   71.9609  224.3809 H   0  0  0  0  0  0  0  0  0  0  0  0
  134.3990   73.6980  225.6180 C   0  0  0  0  0  0  0  0  0  0  0  0
  133.6170   73.0140  226.5610 O   0  0  0  0  0  0  0  0  0  0  0  0
  133.8460   71.6670  226.9630 C   0  0  0  0  0  0  0  0  0  0  0  0
  133.8559   71.6088  228.0614 H   0  0  0  0  0  0  0  0  0  0  0  0
  133.0440   71.0254  226.5690 H   0  0  0  0  0  0  0  0  0  0  0  0
  134.8149   71.3264  226.5690 H   0  0  0  0  0  0  0  0  0  0  0  0
  134.5910   75.0790  225.7890 C   0  0  0  0  0  0  0  0  0  0  0  0
  133.9550   75.7070  226.8690 O   0  0  0  0  0  0  0  0  0  0  0  0
  132.5400   75.8550  226.9950 C   0  0  0  0  0  0  0  0  0  0  0  0
  132.2677   75.8835  228.0604 H   0  0  0  0  0  0  0  0  0  0  0  0
  132.2247   76.7910  226.5108 H   0  0  0  0  0  0  0  0  0  0  0  0
  132.0378   75.0045  226.5108 H   0  0  0  0  0  0  0  0  0  0  0  0
  135.3870   75.7900  224.8730 C   0  0  0  0  0  0  0  0  0  0  0  0
  135.5829   76.8604  225.0338 H   0  0  0  0  0  0  0  0  0  0  0  0
  1  2  1  0
  2  3  2  0
  3  4  1  0
  3  5  1  0
  5  6  2  0
  6  7  1  0
  7  8  2  0
  8  9  1  0
  8 10  1  0
 10 11  1  0
 10 12  2  0
 12 13  1  0
 12 14  1  0
 14 15  1  0
 14 16  2  0
 16 17  1  0
 17 18  2  0
 17 19  1  0
 19 20  1  0
 20 21  1  0
 20 22  1  0
 20 23  1  0
 23 24  1  0
 23 25  1  0
 25 26  1  0
 25 27  1  0
 25 28  1  0
 28 29  1  0
 28 30  1  0
 28 31  1  0
 31 32  1  0
 31 33  1  0
 31 34  1  0
 34 35  1  0
 34 36  1  0
 34 37  1  0
 37 38  1  0
 37 39  1  0
  2 40  1  0
 40 41  2  0
 41 42  1  0
 41 43  1  0
 43 44  1  0
 43 45  2  0
 45 46  1  0
 46 47  1  0
 47 48  1  0
 47 49  1  0
 47 50  1  0
 45 51  1  0
 51 52  1  0
 52 53  1  0
 53 54  1  0
 53 55  1  0
 53 56  1  0
 51 57  2  0
 57 58  1  0
 19  5  1  0
 37 23  1  0
 57 40  1  0
 16  7  1  0
M  END
>  <UniqueID>  (33) 
66

>  <SMILES>  (33) 
COc1ccc(/C=C/c2nc3ccccc3c(=O)n2CC2CCCCC2)cc1OC

>  <Energy>  (33) 
74.35306140140834

>  <Genealogy>  (33) 
COc1ccc(/C=C/c2nc3ccccc3c(=O)n2CC2CCCCC2)cc1OC (cis-trans isomerization)
COc1ccc(/C=C/c2nc3ccccc3c(=O)n2CC2CCCCC2)cc1OC (3D coordinates assigned)
COc1ccc(/C=C/c2nc3ccccc3c(=O)n2CC2CCCCC2)cc1OC (nonaromatic ring conformer: 74.35306140140834 kcal/mol)

>  <smiles>  (33) 
COc1ccc(/C=C/c2nc3ccccc3c(=O)n2CC2CCCCC2)cc1OC

>  <score_type>  (33) 
oracle

>  <origin>  (33) 
autodockgpu

>  <m_score__min__energy>  (33) 
-7.5199999999999996

>  <m_primary>  (33) 
energy

>  <meeko>  (33) 
{"free_energy": -7.46, "intermolecular_energy": -9.55, "internal_energy": -1.54, "cluster_size": 3, "cluster_id": 2, "rank_in_cluster": 1}

>  <energy>  (33) 
-7.05

>  <cluster_rmsd>  (33) 
1.1

>  <rmsd>  (33) 
269.73

>  <cluster>  (33) 
3

$$$$
CHYZURNRBYISSB-FYWRMAATNA-N
     RDKit          3D

 58 61  0  0  0  0  0  0  0  0999 V2000
  136.3023   75.8404  221.7783 H   0  0  0  0  0  0  0  0  0  0  0  0
  136.6800   75.8110  222.8110 C   0  0  0  0  0  0  0  0  0  0  0  0
  137.8560   76.3820  223.0960 C   0  0  0  0  0  0  0  0  0  0  0  0
  137.9142   77.1089  223.9195 H   0  0  0  0  0  0  0  0  0  0  0  0
  139.0880   76.0570  222.3250 C   0  0  0  0  0  0  0  0  0  0  0  0
  139.4120   74.7390  222.2090 N   0  0  0  0  0  0  0  0  0  0  0  0
  140.5470   74.3250  221.6140 C   0  0  0  0  0  0  0  0  0  0  0  0
  140.8180   72.9570  221.4940 C   0  0  0  0  0  0  0  0  0  0  0  0
  140.0957   72.2181  221.8713 H   0  0  0  0  0  0  0  0  0  0  0  0
  142.0060   72.5300  220.8950 C   0  0  0  0  0  0  0  0  0  0  0  0
  142.2167   71.4546  220.7995 H   0  0  0  0  0  0  0  0  0  0  0  0
  142.9290   73.4680  220.4160 C   0  0  0  0  0  0  0  0  0  0  0  0
  143.8617   73.1292  219.9414 H   0  0  0  0  0  0  0  0  0  0  0  0
  142.6650   74.8330  220.5410 C   0  0  0  0  0  0  0  0  0  0  0  0
  143.3964   75.5687  220.1753 H   0  0  0  0  0  0  0  0  0  0  0  0
  141.4650   75.2710  221.1340 C   0  0  0  0  0  0  0  0  0  0  0  0
  141.1390   76.6290  221.2490 C   0  0  0  0  0  0  0  0  0  0  0  0
  141.9630   77.4980  220.8410 O   0  0  0  0  0  0  0  0  0  0  0  0
  139.9340   77.0190  221.7950 N   0  0  0  0  0  0  0  0  0  0  0  0
  139.5900   78.4620  221.7510 C   0  0  0  0  0  0  0  0  0  0  0  0
  140.1881   78.9460  220.9649 H   0  0  0  0  0  0  0  0  0  0  0  0
  138.5136   78.5488  221.5417 H   0  0  0  0  0  0  0  0  0  0  0  0
  139.8750   79.1700  223.1070 C   0  0  0  0  0  0  0  0  0  0  0  0
  139.1327   78.7817  223.8199 H   0  0  0  0  0  0  0  0  0  0  0  0
  139.6800   80.7090  222.9930 C   0  0  0  0  0  0  0  0  0  0  0  0
  139.0922   80.9143  222.0862 H   0  0  0  0  0  0  0  0  0  0  0  0
  139.1741   81.0289  223.9159 H   0  0  0  0  0  0  0  0  0  0  0  0
  140.9900   81.5160  222.9100 C   0  0  0  0  0  0  0  0  0  0  0  0
  140.7957   82.4533  222.3680 H   0  0  0  0  0  0  0  0  0  0  0  0
  141.3327   81.7129  223.9365 H   0  0  0  0  0  0  0  0  0  0  0  0
  142.0920   80.7470  222.1850 C   0  0  0  0  0  0  0  0  0  0  0  0
  141.7541   80.5222  221.1626 H   0  0  0  0  0  0  0  0  0  0  0  0
  142.9950   81.3751  222.1776 H   0  0  0  0  0  0  0  0  0  0  0  0
  142.4400   79.4220  222.8970 C   0  0  0  0  0  0  0  0  0  0  0  0
  142.7548   78.6916  222.1371 H   0  0  0  0  0  0  0  0  0  0  0  0
  143.2382   79.6456  223.6201 H   0  0  0  0  0  0  0  0  0  0  0  0
  141.2640   78.8190  223.6950 C   0  0  0  0  0  0  0  0  0  0  0  0
  141.3728   77.7244  223.7020 H   0  0  0  0  0  0  0  0  0  0  0  0
  141.3053   79.2485  224.7069 H   0  0  0  0  0  0  0  0  0  0  0  0
  135.8840   75.1460  223.8500 C   0  0  0  0  0  0  0  0  0  0  0  0
  135.5580   73.7870  223.7510 C   0  0  0  0  0  0  0  0  0  0  0  0
  135.9017   73.2003  222.8863 H   0  0  0  0  0  0  0  0  0  0  0  0
  134.7970   73.1780  224.7500 C   0  0  0  0  0  0  0  0  0  0  0  0
  134.5671   72.1044  224.6831 H   0  0  0  0  0  0  0  0  0  0  0  0
  134.3200   73.9300  225.8460 C   0  0  0  0  0  0  0  0  0  0  0  0
  133.5260   73.3590  226.8540 O   0  0  0  0  0  0  0  0  0  0  0  0
  132.1110   73.2170  226.7720 C   0  0  0  0  0  0  0  0  0  0  0  0
  131.6874   73.1745  227.7863 H   0  0  0  0  0  0  0  0  0  0  0  0
  131.6868   74.0771  226.2332 H   0  0  0  0  0  0  0  0  0  0  0  0
  131.8661   72.2898  226.2332 H   0  0  0  0  0  0  0  0  0  0  0  0
  134.6300   75.2960  225.9380 C   0  0  0  0  0  0  0  0  0  0  0  0
  134.0950   76.0260  227.0090 O   0  0  0  0  0  0  0  0  0  0  0  0
  132.7760   76.5740  227.0300 C   0  0  0  0  0  0  0  0  0  0  0  0
  132.4515   76.7088  228.0724 H   0  0  0  0  0  0  0  0  0  0  0  0
  132.7750   77.5470  226.5169 H   0  0  0  0  0  0  0  0  0  0  0  0
  132.0858   75.8882  226.5169 H   0  0  0  0  0  0  0  0  0  0  0  0
  135.4410   75.8930  224.9560 C   0  0  0  0  0  0  0  0  0  0  0  0
  135.7302   76.9498  225.0537 H   0  0  0  0  0  0  0  0  0  0  0  0
  1  2  1  0
  2  3  2  0
  3  4  1  0
  3  5  1  0
  5  6  2  0
  6  7  1  0
  7  8  2  0
  8  9  1  0
  8 10  1  0
 10 11  1  0
 10 12  2  0
 12 13  1  0
 12 14  1  0
 14 15  1  0
 14 16  2  0
 16 17  1  0
 17 18  2  0
 17 19  1  0
 19 20  1  0
 20 21  1  0
 20 22  1  0
 20 23  1  0
 23 24  1  0
 23 25  1  0
 25 26  1  0
 25 27  1  0
 25 28  1  0
 28 29  1  0
 28 30  1  0
 28 31  1  0
 31 32  1  0
 31 33  1  0
 31 34  1  0
 34 35  1  0
 34 36  1  0
 34 37  1  0
 37 38  1  0
 37 39  1  0
  2 40  1  0
 40 41  2  0
 41 42  1  0
 41 43  1  0
 43 44  1  0
 43 45  2  0
 45 46  1  0
 46 47  1  0
 47 48  1  0
 47 49  1  0
 47 50  1  0
 45 51  1  0
 51 52  1  0
 52 53  1  0
 53 54  1  0
 53 55  1  0
 53 56  1  0
 51 57  2  0
 57 58  1  0
 19  5  1  0
 37 23  1  0
 57 40  1  0
 16  7  1  0
M  END
>  <UniqueID>  (34) 
66

>  <SMILES>  (34) 
COc1ccc(/C=C/c2nc3ccccc3c(=O)n2CC2CCCCC2)cc1OC

>  <Energy>  (34) 
74.35306140140834

>  <Genealogy>  (34) 
COc1ccc(/C=C/c2nc3ccccc3c(=O)n2CC2CCCCC2)cc1OC (cis-trans isomerization)
COc1ccc(/C=C/c2nc3ccccc3c(=O)n2CC2CCCCC2)cc1OC (3D coordinates assigned)
COc1ccc(/C=C/c2nc3ccccc3c(=O)n2CC2CCCCC2)cc1OC (nonaromatic ring conformer: 74.35306140140834 kcal/mol)

>  <smiles>  (34) 
COc1ccc(/C=C/c2nc3ccccc3c(=O)n2CC2CCCCC2)cc1OC

>  <score_type>  (34) 
oracle

>  <origin>  (34) 
autodockgpu

>  <m_score__min__energy>  (34) 
-7.5199999999999996

>  <m_primary>  (34) 
energy

>  <meeko>  (34) 
{"free_energy": -7.45, "intermolecular_energy": -9.54, "internal_energy": -1.48, "cluster_size": 3, "cluster_id": 2, "rank_in_cluster": 3}

>  <energy>  (34) 
-6.92

>  <cluster_rmsd>  (34) 
1.02

>  <rmsd>  (34) 
269.75

>  <cluster>  (34) 
3

$$$$
CHYZURNRBYISSB-FYWRMAATNA-N
     RDKit          3D

 58 61  0  0  0  0  0  0  0  0999 V2000
  136.2775   76.0883  221.8033 H   0  0  0  0  0  0  0  0  0  0  0  0
  136.7090   75.9140  222.8000 C   0  0  0  0  0  0  0  0  0  0  0  0
  137.9120   76.4230  223.0920 C   0  0  0  0  0  0  0  0  0  0  0  0
  138.0019   77.1524  223.9105 H   0  0  0  0  0  0  0  0  0  0  0  0
  139.1310   76.0260  222.3360 C   0  0  0  0  0  0  0  0  0  0  0  0
  139.3970   74.6920  222.2500 N   0  0  0  0  0  0  0  0  0  0  0  0
  140.5150   74.2160  221.6700 C   0  0  0  0  0  0  0  0  0  0  0  0
  140.7240   72.8340  221.5820 C   0  0  0  0  0  0  0  0  0  0  0  0
  139.9677   72.1369  221.9719 H   0  0  0  0  0  0  0  0  0  0  0  0
  141.8950   72.3410  220.9980 C   0  0  0  0  0  0  0  0  0  0  0  0
  142.0579   71.2555  220.9264 H   0  0  0  0  0  0  0  0  0  0  0  0
  142.8610   73.2270  220.5040 C   0  0  0  0  0  0  0  0  0  0  0  0
  143.7798   72.8368  220.0418 H   0  0  0  0  0  0  0  0  0  0  0  0
  142.6580   74.6050  220.5980 C   0  0  0  0  0  0  0  0  0  0  0  0
  143.4233   75.2991  220.2204 H   0  0  0  0  0  0  0  0  0  0  0  0
  141.4760   75.1090  221.1750 C   0  0  0  0  0  0  0  0  0  0  0  0
  141.2110   76.4820  221.2590 C   0  0  0  0  0  0  0  0  0  0  0  0
  142.0750   77.3040  220.8360 O   0  0  0  0  0  0  0  0  0  0  0  0
  140.0220   76.9370  221.7890 N   0  0  0  0  0  0  0  0  0  0  0  0
  139.7440   78.3930  221.7120 C   0  0  0  0  0  0  0  0  0  0  0  0
  140.3871   78.8369  220.9378 H   0  0  0  0  0  0  0  0  0  0  0  0
  138.6794   78.5232  221.4677 H   0  0  0  0  0  0  0  0  0  0  0  0
  140.0180   79.1110  223.0650 C   0  0  0  0  0  0  0  0  0  0  0  0
  139.2855   78.7105  223.7812 H   0  0  0  0  0  0  0  0  0  0  0  0
  139.7920   80.6450  222.9470 C   0  0  0  0  0  0  0  0  0  0  0  0
  139.1971   80.8356  222.0416 H   0  0  0  0  0  0  0  0  0  0  0  0
  139.2834   80.9573  223.8710 H   0  0  0  0  0  0  0  0  0  0  0  0
  141.0840   81.4780  222.8570 C   0  0  0  0  0  0  0  0  0  0  0  0
  140.8687   82.4091  222.3122 H   0  0  0  0  0  0  0  0  0  0  0  0
  141.4257   81.6857  223.8817 H   0  0  0  0  0  0  0  0  0  0  0  0
  142.2000   80.7290  222.1310 C   0  0  0  0  0  0  0  0  0  0  0  0
  141.8641   80.4944  221.1101 H   0  0  0  0  0  0  0  0  0  0  0  0
  143.0902   81.3751  222.1192 H   0  0  0  0  0  0  0  0  0  0  0  0
  142.5760   79.4140  222.8460 C   0  0  0  0  0  0  0  0  0  0  0  0
  142.9031   78.6877  222.0874 H   0  0  0  0  0  0  0  0  0  0  0  0
  143.3713   79.6563  223.5663 H   0  0  0  0  0  0  0  0  0  0  0  0
  141.4160   78.7900  223.6490 C   0  0  0  0  0  0  0  0  0  0  0  0
  141.5470   77.6979  223.6586 H   0  0  0  0  0  0  0  0  0  0  0  0
  141.4520   79.2232  224.6595 H   0  0  0  0  0  0  0  0  0  0  0  0
  135.9540   75.1280  223.7830 C   0  0  0  0  0  0  0  0  0  0  0  0
  135.7800   73.7470  223.6250 C   0  0  0  0  0  0  0  0  0  0  0  0
  136.2147   73.2345  222.7541 H   0  0  0  0  0  0  0  0  0  0  0  0
  135.0560   73.0210  224.5710 C   0  0  0  0  0  0  0  0  0  0  0  0
  134.9456   71.9325  224.4568 H   0  0  0  0  0  0  0  0  0  0  0  0
  134.4640   73.6740  225.6740 C   0  0  0  0  0  0  0  0  0  0  0  0
  133.7020   72.9830  226.6300 O   0  0  0  0  0  0  0  0  0  0  0  0
  132.3010   73.1600  226.8170 C   0  0  0  0  0  0  0  0  0  0  0  0
  132.0754   73.1885  227.8933 H   0  0  0  0  0  0  0  0  0  0  0  0
  131.9854   74.1052  226.3511 H   0  0  0  0  0  0  0  0  0  0  0  0
  131.7603   72.3230  226.3511 H   0  0  0  0  0  0  0  0  0  0  0  0
  134.6220   75.0610  225.8270 C   0  0  0  0  0  0  0  0  0  0  0  0
  133.9760   75.6870  226.9020 O   0  0  0  0  0  0  0  0  0  0  0  0
  133.2020   76.8830  226.7900 C   0  0  0  0  0  0  0  0  0  0  0  0
  132.9592   77.2581  227.7952 H   0  0  0  0  0  0  0  0  0  0  0  0
  133.7795   77.6437  226.2443 H   0  0  0  0  0  0  0  0  0  0  0  0
  132.2715   76.6678  226.2443 H   0  0  0  0  0  0  0  0  0  0  0  0
  135.3970   75.7790  224.8980 C   0  0  0  0  0  0  0  0  0  0  0  0
  135.5682   76.8557  225.0447 H   0  0  0  0  0  0  0  0  0  0  0  0
  1  2  1  0
  2  3  2  0
  3  4  1  0
  3  5  1  0
  5  6  2  0
  6  7  1  0
  7  8  2  0
  8  9  1  0
  8 10  1  0
 10 11  1  0
 10 12  2  0
 12 13  1  0
 12 14  1  0
 14 15  1  0
 14 16  2  0
 16 17  1  0
 17 18  2  0
 17 19  1  0
 19 20  1  0
 20 21  1  0
 20 22  1  0
 20 23  1  0
 23 24  1  0
 23 25  1  0
 25 26  1  0
 25 27  1  0
 25 28  1  0
 28 29  1  0
 28 30  1  0
 28 31  1  0
 31 32  1  0
 31 33  1  0
 31 34  1  0
 34 35  1  0
 34 36  1  0
 34 37  1  0
 37 38  1  0
 37 39  1  0
  2 40  1  0
 40 41  2  0
 41 42  1  0
 41 43  1  0
 43 44  1  0
 43 45  2  0
 45 46  1  0
 46 47  1  0
 47 48  1  0
 47 49  1  0
 47 50  1  0
 45 51  1  0
 51 52  1  0
 52 53  1  0
 53 54  1  0
 53 55  1  0
 53 56  1  0
 51 57  2  0
 57 58  1  0
 19  5  1  0
 37 23  1  0
 57 40  1  0
 16  7  1  0
M  END
>  <UniqueID>  (35) 
66

>  <SMILES>  (35) 
COc1ccc(/C=C/c2nc3ccccc3c(=O)n2CC2CCCCC2)cc1OC

>  <Energy>  (35) 
74.35306140140834

>  <Genealogy>  (35) 
COc1ccc(/C=C/c2nc3ccccc3c(=O)n2CC2CCCCC2)cc1OC (cis-trans isomerization)
COc1ccc(/C=C/c2nc3ccccc3c(=O)n2CC2CCCCC2)cc1OC (3D coordinates assigned)
COc1ccc(/C=C/c2nc3ccccc3c(=O)n2CC2CCCCC2)cc1OC (nonaromatic ring conformer: 74.35306140140834 kcal/mol)

>  <smiles>  (35) 
COc1ccc(/C=C/c2nc3ccccc3c(=O)n2CC2CCCCC2)cc1OC

>  <score_type>  (35) 
oracle

>  <origin>  (35) 
autodockgpu

>  <m_score__min__energy>  (35) 
-7.5199999999999996

>  <m_primary>  (35) 
energy

>  <meeko>  (35) 
{"free_energy": -7.46, "intermolecular_energy": -9.54, "internal_energy": -1.53, "cluster_size": 3, "cluster_id": 2, "rank_in_cluster": 2}

>  <energy>  (35) 
-6.86

>  <cluster_rmsd>  (35) 
0.94

>  <rmsd>  (35) 
269.58

>  <cluster>  (35) 
3

$$$$
CHYZURNRBYISSB-FYWRMAATNA-N
     RDKit          3D

 58 61  0  0  0  0  0  0  0  0999 V2000
  138.8874   73.3957  222.1066 H   0  0  0  0  0  0  0  0  0  0  0  0
  139.5500   72.5270  221.9790 C   0  0  0  0  0  0  0  0  0  0  0  0
  139.0950   71.3050  222.2820 C   0  0  0  0  0  0  0  0  0  0  0  0
  138.5505   70.7299  221.5186 H   0  0  0  0  0  0  0  0  0  0  0  0
  139.3090   70.7060  223.6290 C   0  0  0  0  0  0  0  0  0  0  0  0
  139.9020   71.4950  224.5680 N   0  0  0  0  0  0  0  0  0  0  0  0
  140.2280   71.0380  225.7920 C   0  0  0  0  0  0  0  0  0  0  0  0
  140.8080   71.9000  226.7300 C   0  0  0  0  0  0  0  0  0  0  0  0
  140.9828   72.9553  226.4734 H   0  0  0  0  0  0  0  0  0  0  0  0
  141.1650   71.4190  227.9930 C   0  0  0  0  0  0  0  0  0  0  0  0
  141.6187   72.0972  228.7306 H   0  0  0  0  0  0  0  0  0  0  0  0
  140.9460   70.0750  228.3210 C   0  0  0  0  0  0  0  0  0  0  0  0
  141.2233   69.6997  229.3171 H   0  0  0  0  0  0  0  0  0  0  0  0
  140.3760   69.2120  227.3840 C   0  0  0  0  0  0  0  0  0  0  0  0
  140.2170   68.1538  227.6389 H   0  0  0  0  0  0  0  0  0  0  0  0
  140.0040   69.6910  226.1140 C   0  0  0  0  0  0  0  0  0  0  0  0
  139.3940   68.8730  225.1540 C   0  0  0  0  0  0  0  0  0  0  0  0
  139.2020   67.6500  225.4180 O   0  0  0  0  0  0  0  0  0  0  0  0
  139.0020   69.3890  223.9370 N   0  0  0  0  0  0  0  0  0  0  0  0
  138.2310   68.5050  223.0270 C   0  0  0  0  0  0  0  0  0  0  0  0
  137.5427   67.8913  223.6267 H   0  0  0  0  0  0  0  0  0  0  0  0
  137.6811   69.1423  222.3189 H   0  0  0  0  0  0  0  0  0  0  0  0
  139.1590   67.5630  222.2060 C   0  0  0  0  0  0  0  0  0  0  0  0
  140.0702   67.4271  222.8069 H   0  0  0  0  0  0  0  0  0  0  0  0
  139.5640   68.2090  220.8500 C   0  0  0  0  0  0  0  0  0  0  0  0
  139.3677   69.2896  220.9122 H   0  0  0  0  0  0  0  0  0  0  0  0
  140.6273   67.9726  220.6966 H   0  0  0  0  0  0  0  0  0  0  0  0
  138.8110   67.6530  219.6260 C   0  0  0  0  0  0  0  0  0  0  0  0
  138.7752   68.4301  218.8483 H   0  0  0  0  0  0  0  0  0  0  0  0
  139.3489   66.7607  219.2734 H   0  0  0  0  0  0  0  0  0  0  0  0
  137.3830   67.2360  219.9720 C   0  0  0  0  0  0  0  0  0  0  0  0
  136.8383   68.1142  220.3491 H   0  0  0  0  0  0  0  0  0  0  0  0
  136.9151   66.8385  219.0593 H   0  0  0  0  0  0  0  0  0  0  0  0
  137.3470   66.1280  221.0470 C   0  0  0  0  0  0  0  0  0  0  0  0
  136.4326   66.2542  221.6452 H   0  0  0  0  0  0  0  0  0  0  0  0
  137.3721   65.1647  220.5165 H   0  0  0  0  0  0  0  0  0  0  0  0
  138.5600   66.1490  222.0010 C   0  0  0  0  0  0  0  0  0  0  0  0
  138.2405   65.7608  222.9794 H   0  0  0  0  0  0  0  0  0  0  0  0
  139.3438   65.5283  221.5423 H   0  0  0  0  0  0  0  0  0  0  0  0
  140.9150   72.7310  221.4800 C   0  0  0  0  0  0  0  0  0  0  0  0
  141.4200   74.0190  221.2630 C   0  0  0  0  0  0  0  0  0  0  0  0
  140.7919   74.8981  221.4694 H   0  0  0  0  0  0  0  0  0  0  0  0
  142.7200   74.1870  220.7850 C   0  0  0  0  0  0  0  0  0  0  0  0
  143.1224   75.2009  220.6431 H   0  0  0  0  0  0  0  0  0  0  0  0
  143.5230   73.0660  220.4820 C   0  0  0  0  0  0  0  0  0  0  0  0
  144.8240   73.1950  219.9700 O   0  0  0  0  0  0  0  0  0  0  0  0
  145.9620   73.5340  220.7560 C   0  0  0  0  0  0  0  0  0  0  0  0
  145.7064   73.4579  221.8232 H   0  0  0  0  0  0  0  0  0  0  0  0
  146.7858   72.8422  220.5260 H   0  0  0  0  0  0  0  0  0  0  0  0
  146.2729   74.5638  220.5260 H   0  0  0  0  0  0  0  0  0  0  0  0
  143.0130   71.7730  220.6820 C   0  0  0  0  0  0  0  0  0  0  0  0
  143.8140   70.6810  220.3200 O   0  0  0  0  0  0  0  0  0  0  0  0
  143.4380   69.6890  219.3630 C   0  0  0  0  0  0  0  0  0  0  0  0
  143.0953   68.7848  219.8875 H   0  0  0  0  0  0  0  0  0  0  0  0
  142.6248   70.0775  218.7324 H   0  0  0  0  0  0  0  0  0  0  0  0
  144.3045   69.4409  218.7324 H   0  0  0  0  0  0  0  0  0  0  0  0
  141.7210   71.6090  221.2140 C   0  0  0  0  0  0  0  0  0  0  0  0
  141.3392   70.5988  221.4230 H   0  0  0  0  0  0  0  0  0  0  0  0
  1  2  1  0
  2  3  2  0
  3  4  1  0
  3  5  1  0
  5  6  2  0
  6  7  1  0
  7  8  2  0
  8  9  1  0
  8 10  1  0
 10 11  1  0
 10 12  2  0
 12 13  1  0
 12 14  1  0
 14 15  1  0
 14 16  2  0
 16 17  1  0
 17 18  2  0
 17 19  1  0
 19 20  1  0
 20 21  1  0
 20 22  1  0
 20 23  1  0
 23 24  1  0
 23 25  1  0
 25 26  1  0
 25 27  1  0
 25 28  1  0
 28 29  1  0
 28 30  1  0
 28 31  1  0
 31 32  1  0
 31 33  1  0
 31 34  1  0
 34 35  1  0
 34 36  1  0
 34 37  1  0
 37 38  1  0
 37 39  1  0
  2 40  1  0
 40 41  2  0
 41 42  1  0
 41 43  1  0
 43 44  1  0
 43 45  2  0
 45 46  1  0
 46 47  1  0
 47 48  1  0
 47 49  1  0
 47 50  1  0
 45 51  1  0
 51 52  1  0
 52 53  1  0
 53 54  1  0
 53 55  1  0
 53 56  1  0
 51 57  2  0
 57 58  1  0
 19  5  1  0
 37 23  1  0
 57 40  1  0
 16  7  1  0
M  END
>  <UniqueID>  (36) 
66

>  <SMILES>  (36) 
COc1ccc(/C=C/c2nc3ccccc3c(=O)n2CC2CCCCC2)cc1OC

>  <Energy>  (36) 
74.35306140140834

>  <Genealogy>  (36) 
COc1ccc(/C=C/c2nc3ccccc3c(=O)n2CC2CCCCC2)cc1OC (cis-trans isomerization)
COc1ccc(/C=C/c2nc3ccccc3c(=O)n2CC2CCCCC2)cc1OC (3D coordinates assigned)
COc1ccc(/C=C/c2nc3ccccc3c(=O)n2CC2CCCCC2)cc1OC (nonaromatic ring conformer: 74.35306140140834 kcal/mol)

>  <smiles>  (36) 
COc1ccc(/C=C/c2nc3ccccc3c(=O)n2CC2CCCCC2)cc1OC

>  <score_type>  (36) 
oracle

>  <origin>  (36) 
autodockgpu

>  <m_score__min__energy>  (36) 
-7.5199999999999996

>  <m_primary>  (36) 
energy

>  <meeko>  (36) 
{"free_energy": -7.05, "intermolecular_energy": -9.14, "internal_energy": -1.75, "cluster_size": 7, "cluster_id": 1, "rank_in_cluster": 6}

>  <energy>  (36) 
-7.03

>  <cluster_rmsd>  (36) 
0.0

>  <rmsd>  (36) 
269.93

>  <cluster>  (36) 
4

$$$$
CHYZURNRBYISSB-FYWRMAATNA-N
     RDKit          3D

 58 61  0  0  0  0  0  0  0  0999 V2000
  140.2240   70.4722  220.7425 H   0  0  0  0  0  0  0  0  0  0  0  0
  140.8710   71.2710  221.1340 C   0  0  0  0  0  0  0  0  0  0  0  0
  140.4970   71.9390  222.2320 C   0  0  0  0  0  0  0  0  0  0  0  0
  140.3932   73.0331  222.1856 H   0  0  0  0  0  0  0  0  0  0  0  0
  140.2180   71.2360  223.5150 C   0  0  0  0  0  0  0  0  0  0  0  0
  140.7430   71.7860  224.6460 N   0  0  0  0  0  0  0  0  0  0  0  0
  140.6360   71.1950  225.8520 C   0  0  0  0  0  0  0  0  0  0  0  0
  141.1670   71.8190  226.9870 C   0  0  0  0  0  0  0  0  0  0  0  0
  141.6577   72.7994  226.8975 H   0  0  0  0  0  0  0  0  0  0  0  0
  141.0730   71.1950  228.2340 C   0  0  0  0  0  0  0  0  0  0  0  0
  141.4888   71.6864  229.1260 H   0  0  0  0  0  0  0  0  0  0  0  0
  140.4510   69.9460  228.3510 C   0  0  0  0  0  0  0  0  0  0  0  0
  140.3744   69.4596  229.3346 H   0  0  0  0  0  0  0  0  0  0  0  0
  139.9280   69.3180  227.2190 C   0  0  0  0  0  0  0  0  0  0  0  0
  139.4513   68.3309  227.3104 H   0  0  0  0  0  0  0  0  0  0  0  0
  140.0090   69.9450  225.9600 C   0  0  0  0  0  0  0  0  0  0  0  0
  139.4660   69.3730  224.8020 C   0  0  0  0  0  0  0  0  0  0  0  0
  138.9140   68.2370  224.8760 O   0  0  0  0  0  0  0  0  0  0  0  0
  139.5250   70.0380  223.5960 N   0  0  0  0  0  0  0  0  0  0  0  0
  138.8020   69.4440  222.4440 C   0  0  0  0  0  0  0  0  0  0  0  0
  139.4547   69.4783  221.5592 H   0  0  0  0  0  0  0  0  0  0  0  0
  138.5397   68.4081  222.7051 H   0  0  0  0  0  0  0  0  0  0  0  0
  137.4840   70.2080  222.1260 C   0  0  0  0  0  0  0  0  0  0  0  0
  137.6631   70.7582  221.1905 H   0  0  0  0  0  0  0  0  0  0  0  0
  137.1470   71.2410  223.2390 C   0  0  0  0  0  0  0  0  0  0  0  0
  138.0585   71.4206  223.8280 H   0  0  0  0  0  0  0  0  0  0  0  0
  136.7800   72.1428  222.7271 H   0  0  0  0  0  0  0  0  0  0  0  0
  136.0300   70.8010  224.2040 C   0  0  0  0  0  0  0  0  0  0  0  0
  136.1822   71.2985  225.1732 H   0  0  0  0  0  0  0  0  0  0  0  0
  135.0654   71.0840  223.7574 H   0  0  0  0  0  0  0  0  0  0  0  0
  136.0220   69.2900  224.4220 C   0  0  0  0  0  0  0  0  0  0  0  0
  136.9900   68.9881  224.8484 H   0  0  0  0  0  0  0  0  0  0  0  0
  135.1931   69.0508  225.1044 H   0  0  0  0  0  0  0  0  0  0  0  0
  135.7940   68.5150  223.1080 C   0  0  0  0  0  0  0  0  0  0  0  0
  136.3291   67.5562  223.1734 H   0  0  0  0  0  0  0  0  0  0  0  0
  134.7075   68.3836  222.9975 H   0  0  0  0  0  0  0  0  0  0  0  0
  136.2870   69.2630  221.8510 C   0  0  0  0  0  0  0  0  0  0  0  0
  136.5952   68.5193  221.1013 H   0  0  0  0  0  0  0  0  0  0  0  0
  135.4540   69.8889  221.4984 H   0  0  0  0  0  0  0  0  0  0  0  0
  142.1270   71.5830  220.4420 C   0  0  0  0  0  0  0  0  0  0  0  0
  142.4890   70.9150  219.2660 C   0  0  0  0  0  0  0  0  0  0  0  0
  141.8272   70.1433  218.8459 H   0  0  0  0  0  0  0  0  0  0  0  0
  143.6890   71.2280  218.6270 C   0  0  0  0  0  0  0  0  0  0  0  0
  143.9551   70.7216  217.6874 H   0  0  0  0  0  0  0  0  0  0  0  0
  144.5650   72.1900  219.1770 C   0  0  0  0  0  0  0  0  0  0  0  0
  145.7950   72.5080  218.5800 O   0  0  0  0  0  0  0  0  0  0  0  0
  145.9370   73.3580  217.4460 C   0  0  0  0  0  0  0  0  0  0  0  0
  146.1096   74.3912  217.7816 H   0  0  0  0  0  0  0  0  0  0  0  0
  146.7914   73.0216  216.8403 H   0  0  0  0  0  0  0  0  0  0  0  0
  145.0197   73.3176  216.8403 H   0  0  0  0  0  0  0  0  0  0  0  0
  144.2120   72.8490  220.3660 C   0  0  0  0  0  0  0  0  0  0  0  0
  145.1260   73.7580  220.9160 O   0  0  0  0  0  0  0  0  0  0  0  0
  146.3240   73.3830  221.5980 C   0  0  0  0  0  0  0  0  0  0  0  0
  146.1590   73.4347  222.6843 H   0  0  0  0  0  0  0  0  0  0  0  0
  146.5994   72.3557  221.3174 H   0  0  0  0  0  0  0  0  0  0  0  0
  147.1360   74.0699  221.3174 H   0  0  0  0  0  0  0  0  0  0  0  0
  142.9760   72.5680  220.9770 C   0  0  0  0  0  0  0  0  0  0  0  0
  142.6724   73.1217  221.8777 H   0  0  0  0  0  0  0  0  0  0  0  0
  1  2  1  0
  2  3  2  0
  3  4  1  0
  3  5  1  0
  5  6  2  0
  6  7  1  0
  7  8  2  0
  8  9  1  0
  8 10  1  0
 10 11  1  0
 10 12  2  0
 12 13  1  0
 12 14  1  0
 14 15  1  0
 14 16  2  0
 16 17  1  0
 17 18  2  0
 17 19  1  0
 19 20  1  0
 20 21  1  0
 20 22  1  0
 20 23  1  0
 23 24  1  0
 23 25  1  0
 25 26  1  0
 25 27  1  0
 25 28  1  0
 28 29  1  0
 28 30  1  0
 28 31  1  0
 31 32  1  0
 31 33  1  0
 31 34  1  0
 34 35  1  0
 34 36  1  0
 34 37  1  0
 37 38  1  0
 37 39  1  0
  2 40  1  0
 40 41  2  0
 41 42  1  0
 41 43  1  0
 43 44  1  0
 43 45  2  0
 45 46  1  0
 46 47  1  0
 47 48  1  0
 47 49  1  0
 47 50  1  0
 45 51  1  0
 51 52  1  0
 52 53  1  0
 53 54  1  0
 53 55  1  0
 53 56  1  0
 51 57  2  0
 57 58  1  0
 19  5  1  0
 37 23  1  0
 57 40  1  0
 16  7  1  0
M  END
>  <UniqueID>  (37) 
66

>  <SMILES>  (37) 
COc1ccc(/C=C/c2nc3ccccc3c(=O)n2CC2CCCCC2)cc1OC

>  <Energy>  (37) 
74.35306140140834

>  <Genealogy>  (37) 
COc1ccc(/C=C/c2nc3ccccc3c(=O)n2CC2CCCCC2)cc1OC (cis-trans isomerization)
COc1ccc(/C=C/c2nc3ccccc3c(=O)n2CC2CCCCC2)cc1OC (3D coordinates assigned)
COc1ccc(/C=C/c2nc3ccccc3c(=O)n2CC2CCCCC2)cc1OC (nonaromatic ring conformer: 74.35306140140834 kcal/mol)

>  <smiles>  (37) 
COc1ccc(/C=C/c2nc3ccccc3c(=O)n2CC2CCCCC2)cc1OC

>  <score_type>  (37) 
oracle

>  <origin>  (37) 
autodockgpu

>  <m_score__min__energy>  (37) 
-7.5199999999999996

>  <m_primary>  (37) 
energy

>  <meeko>  (37) 
{"free_energy": -7.3, "intermolecular_energy": -9.39, "internal_energy": -1.69, "cluster_size": 7, "cluster_id": 1, "rank_in_cluster": 4}

>  <energy>  (37) 
-7.02

>  <cluster_rmsd>  (37) 
0.0

>  <rmsd>  (37) 
269.2

>  <cluster>  (37) 
5

$$$$
CHYZURNRBYISSB-FYWRMAATNA-N
     RDKit          3D

 58 61  0  0  0  0  0  0  0  0999 V2000
  140.8514   73.6990  222.4814 H   0  0  0  0  0  0  0  0  0  0  0  0
  141.1360   72.7830  221.9430 C   0  0  0  0  0  0  0  0  0  0  0  0
  140.3840   71.6840  222.0750 C   0  0  0  0  0  0  0  0  0  0  0  0
  139.9512   71.2185  221.1772 H   0  0  0  0  0  0  0  0  0  0  0  0
  140.1190   71.0760  223.4090 C   0  0  0  0  0  0  0  0  0  0  0  0
  140.6720   71.6960  224.4890 N   0  0  0  0  0  0  0  0  0  0  0  0
  140.5780   71.1930  225.7350 C   0  0  0  0  0  0  0  0  0  0  0  0
  141.1380   71.8870  226.8150 C   0  0  0  0  0  0  0  0  0  0  0  0
  141.6396   72.8517  226.6487 H   0  0  0  0  0  0  0  0  0  0  0  0
  141.0590   71.3530  228.1040 C   0  0  0  0  0  0  0  0  0  0  0  0
  141.4979   71.8988  228.9522 H   0  0  0  0  0  0  0  0  0  0  0  0
  140.4220   70.1240  228.3180 C   0  0  0  0  0  0  0  0  0  0  0  0
  140.3559   69.7087  229.3344 H   0  0  0  0  0  0  0  0  0  0  0  0
  139.8710   69.4260  227.2420 C   0  0  0  0  0  0  0  0  0  0  0  0
  139.3841   68.4541  227.4101 H   0  0  0  0  0  0  0  0  0  0  0  0
  139.9370   69.9630  225.9420 C   0  0  0  0  0  0  0  0  0  0  0  0
  139.3660   69.3190  224.8360 C   0  0  0  0  0  0  0  0  0  0  0  0
  138.8020   68.1980  224.9990 O   0  0  0  0  0  0  0  0  0  0  0  0
  139.4120   69.8960  223.5850 N   0  0  0  0  0  0  0  0  0  0  0  0
  138.6610   69.2340  222.4900 C   0  0  0  0  0  0  0  0  0  0  0  0
  139.3192   69.1411  221.6136 H   0  0  0  0  0  0  0  0  0  0  0  0
  138.3356   68.2467  222.8497 H   0  0  0  0  0  0  0  0  0  0  0  0
  137.3930   70.0390  222.0830 C   0  0  0  0  0  0  0  0  0  0  0  0
  137.6090   70.4773  221.0975 H   0  0  0  0  0  0  0  0  0  0  0  0
  137.1160   71.2000  223.0790 C   0  0  0  0  0  0  0  0  0  0  0  0
  138.0347   71.3845  223.6552 H   0  0  0  0  0  0  0  0  0  0  0  0
  136.8066   72.0642  222.4728 H   0  0  0  0  0  0  0  0  0  0  0  0
  135.9700   70.9310  224.0740 C   0  0  0  0  0  0  0  0  0  0  0  0
  136.1486   71.5166  224.9879 H   0  0  0  0  0  0  0  0  0  0  0  0
  135.0259   71.2238  223.5914 H   0  0  0  0  0  0  0  0  0  0  0  0
  135.8700   69.4540  224.4470 C   0  0  0  0  0  0  0  0  0  0  0  0
  136.8168   69.1404  224.9110 H   0  0  0  0  0  0  0  0  0  0  0  0
  135.0264   69.3367  225.1432 H   0  0  0  0  0  0  0  0  0  0  0  0
  135.5990   68.5620  223.2170 C   0  0  0  0  0  0  0  0  0  0  0  0
  136.0741   67.5844  223.3858 H   0  0  0  0  0  0  0  0  0  0  0  0
  134.5069   68.4857  223.1102 H   0  0  0  0  0  0  0  0  0  0  0  0
  136.1410   69.1450  221.8950 C   0  0  0  0  0  0  0  0  0  0  0  0
  136.4054   68.3107  221.2287 H   0  0  0  0  0  0  0  0  0  0  0  0
  135.3491   69.7807  221.4721 H   0  0  0  0  0  0  0  0  0  0  0  0
  142.3330   72.7900  221.0940 C   0  0  0  0  0  0  0  0  0  0  0  0
  142.8310   73.9840  220.5570 C   0  0  0  0  0  0  0  0  0  0  0  0
  142.3245   74.9367  220.7710 H   0  0  0  0  0  0  0  0  0  0  0  0
  143.9690   73.9650  219.7510 C   0  0  0  0  0  0  0  0  0  0  0  0
  144.3730   74.9084  219.3551 H   0  0  0  0  0  0  0  0  0  0  0  0
  144.6070   72.7440  219.4390 C   0  0  0  0  0  0  0  0  0  0  0  0
  145.7360   72.6820  218.6060 O   0  0  0  0  0  0  0  0  0  0  0  0
  145.8260   73.3170  217.3350 C   0  0  0  0  0  0  0  0  0  0  0  0
  145.9791   74.3973  217.4749 H   0  0  0  0  0  0  0  0  0  0  0  0
  146.6735   72.8961  216.7740 H   0  0  0  0  0  0  0  0  0  0  0  0
  144.8950   73.1482  216.7740 H   0  0  0  0  0  0  0  0  0  0  0  0
  144.1000   71.5440  219.9620 C   0  0  0  0  0  0  0  0  0  0  0  0
  144.7220   70.3440  219.5910 O   0  0  0  0  0  0  0  0  0  0  0  0
  144.1100   69.0570  219.6870 C   0  0  0  0  0  0  0  0  0  0  0  0
  143.9828   68.7896  220.7464 H   0  0  0  0  0  0  0  0  0  0  0  0
  143.1268   69.0808  219.1943 H   0  0  0  0  0  0  0  0  0  0  0  0
  144.7490   68.3094  219.1943 H   0  0  0  0  0  0  0  0  0  0  0  0
  142.9830   71.5740  220.8180 C   0  0  0  0  0  0  0  0  0  0  0  0
  142.6169   70.6419  221.2731 H   0  0  0  0  0  0  0  0  0  0  0  0
  1  2  1  0
  2  3  2  0
  3  4  1  0
  3  5  1  0
  5  6  2  0
  6  7  1  0
  7  8  2  0
  8  9  1  0
  8 10  1  0
 10 11  1  0
 10 12  2  0
 12 13  1  0
 12 14  1  0
 14 15  1  0
 14 16  2  0
 16 17  1  0
 17 18  2  0
 17 19  1  0
 19 20  1  0
 20 21  1  0
 20 22  1  0
 20 23  1  0
 23 24  1  0
 23 25  1  0
 25 26  1  0
 25 27  1  0
 25 28  1  0
 28 29  1  0
 28 30  1  0
 28 31  1  0
 31 32  1  0
 31 33  1  0
 31 34  1  0
 34 35  1  0
 34 36  1  0
 34 37  1  0
 37 38  1  0
 37 39  1  0
  2 40  1  0
 40 41  2  0
 41 42  1  0
 41 43  1  0
 43 44  1  0
 43 45  2  0
 45 46  1  0
 46 47  1  0
 47 48  1  0
 47 49  1  0
 47 50  1  0
 45 51  1  0
 51 52  1  0
 52 53  1  0
 53 54  1  0
 53 55  1  0
 53 56  1  0
 51 57  2  0
 57 58  1  0
 19  5  1  0
 37 23  1  0
 57 40  1  0
 16  7  1  0
M  END
>  <UniqueID>  (38) 
66

>  <SMILES>  (38) 
COc1ccc(/C=C/c2nc3ccccc3c(=O)n2CC2CCCCC2)cc1OC

>  <Energy>  (38) 
74.35306140140834

>  <Genealogy>  (38) 
COc1ccc(/C=C/c2nc3ccccc3c(=O)n2CC2CCCCC2)cc1OC (cis-trans isomerization)
COc1ccc(/C=C/c2nc3ccccc3c(=O)n2CC2CCCCC2)cc1OC (3D coordinates assigned)
COc1ccc(/C=C/c2nc3ccccc3c(=O)n2CC2CCCCC2)cc1OC (nonaromatic ring conformer: 74.35306140140834 kcal/mol)

>  <smiles>  (38) 
COc1ccc(/C=C/c2nc3ccccc3c(=O)n2CC2CCCCC2)cc1OC

>  <score_type>  (38) 
oracle

>  <origin>  (38) 
autodockgpu

>  <m_score__min__energy>  (38) 
-7.5199999999999996

>  <m_primary>  (38) 
energy

>  <meeko>  (38) 
{"free_energy": -7.46, "intermolecular_energy": -9.55, "internal_energy": -1.67, "cluster_size": 7, "cluster_id": 1, "rank_in_cluster": 2}

>  <energy>  (38) 
-6.99

>  <cluster_rmsd>  (38) 
0.57

>  <rmsd>  (38) 
269.2

>  <cluster>  (38) 
5

$$$$
CHYZURNRBYISSB-FYWRMAATNA-N
     RDKit          3D

 58 61  0  0  0  0  0  0  0  0999 V2000
  142.7155   77.3710  218.0849 H   0  0  0  0  0  0  0  0  0  0  0  0
  142.8410   76.7630  218.9930 C   0  0  0  0  0  0  0  0  0  0  0  0
  142.2460   77.1490  220.1290 C   0  0  0  0  0  0  0  0  0  0  0  0
  142.5386   78.1034  220.5911 H   0  0  0  0  0  0  0  0  0  0  0  0
  141.1980   76.3170  220.7810 C   0  0  0  0  0  0  0  0  0  0  0  0
  141.3450   74.9640  220.7000 N   0  0  0  0  0  0  0  0  0  0  0  0
  140.4180   74.1090  221.1730 C   0  0  0  0  0  0  0  0  0  0  0  0
  140.6340   72.7280  221.0910 C   0  0  0  0  0  0  0  0  0  0  0  0
  141.5674   72.3415  220.6557 H   0  0  0  0  0  0  0  0  0  0  0  0
  139.6620   71.8410  221.5630 C   0  0  0  0  0  0  0  0  0  0  0  0
  139.8331   70.7561  221.5014 H   0  0  0  0  0  0  0  0  0  0  0  0
  138.4710   72.3300  222.1140 C   0  0  0  0  0  0  0  0  0  0  0  0
  137.7092   71.6299  222.4875 H   0  0  0  0  0  0  0  0  0  0  0  0
  138.2510   73.7070  222.1890 C   0  0  0  0  0  0  0  0  0  0  0  0
  137.3101   74.0896  222.6114 H   0  0  0  0  0  0  0  0  0  0  0  0
  139.2290   74.6070  221.7260 C   0  0  0  0  0  0  0  0  0  0  0  0
  139.0700   75.9960  221.8120 C   0  0  0  0  0  0  0  0  0  0  0  0
  137.9960   76.4650  222.2900 O   0  0  0  0  0  0  0  0  0  0  0  0
  140.0700   76.8460  221.3900 N   0  0  0  0  0  0  0  0  0  0  0  0
  139.8970   78.2980  221.6470 C   0  0  0  0  0  0  0  0  0  0  0  0
  140.5614   78.8595  220.9737 H   0  0  0  0  0  0  0  0  0  0  0  0
  138.8419   78.5516  221.4672 H   0  0  0  0  0  0  0  0  0  0  0  0
  140.2380   78.6740  223.1180 C   0  0  0  0  0  0  0  0  0  0  0  0
  139.6569   77.9897  223.7536 H   0  0  0  0  0  0  0  0  0  0  0  0
  139.8000   80.1290  223.4470 C   0  0  0  0  0  0  0  0  0  0  0  0
  139.0784   80.4517  222.6821 H   0  0  0  0  0  0  0  0  0  0  0  0
  139.3718   80.1050  224.4599 H   0  0  0  0  0  0  0  0  0  0  0  0
  140.9520   81.1510  223.4830 C   0  0  0  0  0  0  0  0  0  0  0  0
  140.5518   82.1453  223.2358 H   0  0  0  0  0  0  0  0  0  0  0  0
  141.3869   81.1355  224.4932 H   0  0  0  0  0  0  0  0  0  0  0  0
  142.0580   80.8050  222.4900 C   0  0  0  0  0  0  0  0  0  0  0  0
  141.6331   80.7932  221.4755 H   0  0  0  0  0  0  0  0  0  0  0  0
  142.8472   81.5656  222.5828 H   0  0  0  0  0  0  0  0  0  0  0  0
  142.6890   79.4260  222.7820 C   0  0  0  0  0  0  0  0  0  0  0  0
  143.0134   78.9837  221.8285 H   0  0  0  0  0  0  0  0  0  0  0  0
  143.5278   79.5963  223.4729 H   0  0  0  0  0  0  0  0  0  0  0  0
  141.7280   78.4380  223.4750 C   0  0  0  0  0  0  0  0  0  0  0  0
  142.0011   77.4162  223.1728 H   0  0  0  0  0  0  0  0  0  0  0  0
  141.8301   78.5928  224.5593 H   0  0  0  0  0  0  0  0  0  0  0  0
  143.6570   75.5450  218.9360 C   0  0  0  0  0  0  0  0  0  0  0  0
  143.9180   74.9060  217.7180 C   0  0  0  0  0  0  0  0  0  0  0  0
  143.5103   75.3178  216.7830 H   0  0  0  0  0  0  0  0  0  0  0  0
  144.6950   73.7470  217.6890 C   0  0  0  0  0  0  0  0  0  0  0  0
  144.9211   73.2649  216.7265 H   0  0  0  0  0  0  0  0  0  0  0  0
  145.1930   73.1890  218.8870 C   0  0  0  0  0  0  0  0  0  0  0  0
  145.9510   72.0070  218.9010 O   0  0  0  0  0  0  0  0  0  0  0  0
  145.3900   70.6980  218.9340 C   0  0  0  0  0  0  0  0  0  0  0  0
  145.2551   70.3832  219.9793 H   0  0  0  0  0  0  0  0  0  0  0  0
  144.4153   70.7038  218.4241 H   0  0  0  0  0  0  0  0  0  0  0  0
  146.0664   69.9962  218.4241 H   0  0  0  0  0  0  0  0  0  0  0  0
  144.9180   73.8170  220.1120 C   0  0  0  0  0  0  0  0  0  0  0  0
  145.3800   73.2080  221.2870 O   0  0  0  0  0  0  0  0  0  0  0  0
  146.6900   73.3890  221.8260 C   0  0  0  0  0  0  0  0  0  0  0  0
  146.6386   73.3819  222.9248 H   0  0  0  0  0  0  0  0  0  0  0  0
  147.3432   72.5726  221.4842 H   0  0  0  0  0  0  0  0  0  0  0  0
  147.0973   74.3520  221.4842 H   0  0  0  0  0  0  0  0  0  0  0  0
  144.1790   75.0140  220.1300 C   0  0  0  0  0  0  0  0  0  0  0  0
  144.0084   75.5375  221.0823 H   0  0  0  0  0  0  0  0  0  0  0  0
  1  2  1  0
  2  3  2  0
  3  4  1  0
  3  5  1  0
  5  6  2  0
  6  7  1  0
  7  8  2  0
  8  9  1  0
  8 10  1  0
 10 11  1  0
 10 12  2  0
 12 13  1  0
 12 14  1  0
 14 15  1  0
 14 16  2  0
 16 17  1  0
 17 18  2  0
 17 19  1  0
 19 20  1  0
 20 21  1  0
 20 22  1  0
 20 23  1  0
 23 24  1  0
 23 25  1  0
 25 26  1  0
 25 27  1  0
 25 28  1  0
 28 29  1  0
 28 30  1  0
 28 31  1  0
 31 32  1  0
 31 33  1  0
 31 34  1  0
 34 35  1  0
 34 36  1  0
 34 37  1  0
 37 38  1  0
 37 39  1  0
  2 40  1  0
 40 41  2  0
 41 42  1  0
 41 43  1  0
 43 44  1  0
 43 45  2  0
 45 46  1  0
 46 47  1  0
 47 48  1  0
 47 49  1  0
 47 50  1  0
 45 51  1  0
 51 52  1  0
 52 53  1  0
 53 54  1  0
 53 55  1  0
 53 56  1  0
 51 57  2  0
 57 58  1  0
 19  5  1  0
 37 23  1  0
 57 40  1  0
 16  7  1  0
M  END
>  <UniqueID>  (39) 
66

>  <SMILES>  (39) 
COc1ccc(/C=C/c2nc3ccccc3c(=O)n2CC2CCCCC2)cc1OC

>  <Energy>  (39) 
74.35306140140834

>  <Genealogy>  (39) 
COc1ccc(/C=C/c2nc3ccccc3c(=O)n2CC2CCCCC2)cc1OC (cis-trans isomerization)
COc1ccc(/C=C/c2nc3ccccc3c(=O)n2CC2CCCCC2)cc1OC (3D coordinates assigned)
COc1ccc(/C=C/c2nc3ccccc3c(=O)n2CC2CCCCC2)cc1OC (nonaromatic ring conformer: 74.35306140140834 kcal/mol)

>  <smiles>  (39) 
COc1ccc(/C=C/c2nc3ccccc3c(=O)n2CC2CCCCC2)cc1OC

>  <score_type>  (39) 
oracle

>  <origin>  (39) 
autodockgpu

>  <m_score__min__energy>  (39) 
-7.5199999999999996

>  <m_primary>  (39) 
energy

>  <meeko>  (39) 
{"free_energy": -7.03, "intermolecular_energy": -9.12, "internal_energy": -1.8, "cluster_size": 1, "cluster_id": 4, "rank_in_cluster": 1}

>  <energy>  (39) 
-6.93

>  <cluster_rmsd>  (39) 
0.77

>  <rmsd>  (39) 
269.21

>  <cluster>  (39) 
5

$$$$
CHYZURNRBYISSB-FYWRMAATNA-N
     RDKit          3D

 58 61  0  0  0  0  0  0  0  0999 V2000
  138.6254   73.3475  222.1925 H   0  0  0  0  0  0  0  0  0  0  0  0
  139.3310   72.5130  222.0670 C   0  0  0  0  0  0  0  0  0  0  0  0
  138.9390   71.2710  222.3740 C   0  0  0  0  0  0  0  0  0  0  0  0
  138.4126   70.6712  221.6170 H   0  0  0  0  0  0  0  0  0  0  0  0
  139.1990   70.6820  223.7170 C   0  0  0  0  0  0  0  0  0  0  0  0
  139.8580   71.4650  224.6170 N   0  0  0  0  0  0  0  0  0  0  0  0
  140.2280   71.0130  225.8310 C   0  0  0  0  0  0  0  0  0  0  0  0
  140.8770   71.8690  226.7290 C   0  0  0  0  0  0  0  0  0  0  0  0
  141.0703   72.9152  226.4497 H   0  0  0  0  0  0  0  0  0  0  0  0
  141.2790   71.3940  227.9800 C   0  0  0  0  0  0  0  0  0  0  0  0
  141.7865   72.0679  228.6859 H   0  0  0  0  0  0  0  0  0  0  0  0
  141.0370   70.0610  228.3370 C   0  0  0  0  0  0  0  0  0  0  0  0
  141.3501   69.6903  229.3242 H   0  0  0  0  0  0  0  0  0  0  0  0
  140.3980   69.2030  227.4390 C   0  0  0  0  0  0  0  0  0  0  0  0
  140.2207   68.1531  227.7153 H   0  0  0  0  0  0  0  0  0  0  0  0
  139.9800   69.6780  226.1810 C   0  0  0  0  0  0  0  0  0  0  0  0
  139.3030   68.8660  225.2620 C   0  0  0  0  0  0  0  0  0  0  0  0
  139.0880   67.6530  225.5520 O   0  0  0  0  0  0  0  0  0  0  0  0
  138.8690   69.3790  224.0580 N   0  0  0  0  0  0  0  0  0  0  0  0
  138.0310   68.5070  223.1980 C   0  0  0  0  0  0  0  0  0  0  0  0
  137.3366   67.9408  223.8361 H   0  0  0  0  0  0  0  0  0  0  0  0
  137.4872   69.1499  222.4902 H   0  0  0  0  0  0  0  0  0  0  0  0
  138.8880   67.5030  222.3740 C   0  0  0  0  0  0  0  0  0  0  0  0
  139.6760   67.1420  223.0513 H   0  0  0  0  0  0  0  0  0  0  0  0
  139.5710   68.2020  221.1640 C   0  0  0  0  0  0  0  0  0  0  0  0
  139.5518   69.2878  221.3393 H   0  0  0  0  0  0  0  0  0  0  0  0
  140.5903   67.7931  221.1022 H   0  0  0  0  0  0  0  0  0  0  0  0
  138.9050   67.9230  219.8030 C   0  0  0  0  0  0  0  0  0  0  0  0
  139.1024   68.7711  219.1308 H   0  0  0  0  0  0  0  0  0  0  0  0
  139.3289   66.9902  219.4028 H   0  0  0  0  0  0  0  0  0  0  0  0
  137.3950   67.7370  219.9310 C   0  0  0  0  0  0  0  0  0  0  0  0
  136.9589   68.6552  220.3514 H   0  0  0  0  0  0  0  0  0  0  0  0
  136.9934   67.5270  218.9287 H   0  0  0  0  0  0  0  0  0  0  0  0
  137.0320   66.5490  220.8470 C   0  0  0  0  0  0  0  0  0  0  0  0
  136.0801   66.7762  221.3492 H   0  0  0  0  0  0  0  0  0  0  0  0
  136.9667   65.6576  220.2058 H   0  0  0  0  0  0  0  0  0  0  0  0
  138.0930   66.2500  221.9270 C   0  0  0  0  0  0  0  0  0  0  0  0
  137.5854   65.8273  222.8066 H   0  0  0  0  0  0  0  0  0  0  0  0
  138.8157   65.5478  221.4859 H   0  0  0  0  0  0  0  0  0  0  0  0
  140.6840   72.7840  221.5660 C   0  0  0  0  0  0  0  0  0  0  0  0
  141.1160   74.0940  221.3230 C   0  0  0  0  0  0  0  0  0  0  0  0
  140.4383   74.9401  221.5100 H   0  0  0  0  0  0  0  0  0  0  0  0
  142.4050   74.3260  220.8440 C   0  0  0  0  0  0  0  0  0  0  0  0
  142.7494   75.3581  220.6821 H   0  0  0  0  0  0  0  0  0  0  0  0
  143.2720   73.2460  220.5650 C   0  0  0  0  0  0  0  0  0  0  0  0
  144.5650   73.4400  220.0530 O   0  0  0  0  0  0  0  0  0  0  0  0
  145.7450   73.4610  220.8500 C   0  0  0  0  0  0  0  0  0  0  0  0
  145.4685   73.4561  221.9147 H   0  0  0  0  0  0  0  0  0  0  0  0
  146.3550   72.5736  220.6255 H   0  0  0  0  0  0  0  0  0  0  0  0
  146.3230   74.3696  220.6255 H   0  0  0  0  0  0  0  0  0  0  0  0
  142.8350   71.9310  220.7910 C   0  0  0  0  0  0  0  0  0  0  0  0
  143.6980   70.8800  220.4530 O   0  0  0  0  0  0  0  0  0  0  0  0
  143.3810   69.8470  219.5190 C   0  0  0  0  0  0  0  0  0  0  0  0
  143.1007   68.9335  220.0638 H   0  0  0  0  0  0  0  0  0  0  0  0
  142.5405   70.1695  218.8869 H   0  0  0  0  0  0  0  0  0  0  0  0
  144.2577   69.6425  218.8869 H   0  0  0  0  0  0  0  0  0  0  0  0
  141.5530   71.7050  221.3240 C   0  0  0  0  0  0  0  0  0  0  0  0
  141.2285   70.6791  221.5527 H   0  0  0  0  0  0  0  0  0  0  0  0
  1  2  1  0
  2  3  2  0
  3  4  1  0
  3  5  1  0
  5  6  2  0
  6  7  1  0
  7  8  2  0
  8  9  1  0
  8 10  1  0
 10 11  1  0
 10 12  2  0
 12 13  1  0
 12 14  1  0
 14 15  1  0
 14 16  2  0
 16 17  1  0
 17 18  2  0
 17 19  1  0
 19 20  1  0
 20 21  1  0
 20 22  1  0
 20 23  1  0
 23 24  1  0
 23 25  1  0
 25 26  1  0
 25 27  1  0
 25 28  1  0
 28 29  1  0
 28 30  1  0
 28 31  1  0
 31 32  1  0
 31 33  1  0
 31 34  1  0
 34 35  1  0
 34 36  1  0
 34 37  1  0
 37 38  1  0
 37 39  1  0
  2 40  1  0
 40 41  2  0
 41 42  1  0
 41 43  1  0
 43 44  1  0
 43 45  2  0
 45 46  1  0
 46 47  1  0
 47 48  1  0
 47 49  1  0
 47 50  1  0
 45 51  1  0
 51 52  1  0
 52 53  1  0
 53 54  1  0
 53 55  1  0
 53 56  1  0
 51 57  2  0
 57 58  1  0
 19  5  1  0
 37 23  1  0
 57 40  1  0
 16  7  1  0
M  END
>  <UniqueID>  (40) 
66

>  <SMILES>  (40) 
COc1ccc(/C=C/c2nc3ccccc3c(=O)n2CC2CCCCC2)cc1OC

>  <Energy>  (40) 
74.35306140140834

>  <Genealogy>  (40) 
COc1ccc(/C=C/c2nc3ccccc3c(=O)n2CC2CCCCC2)cc1OC (cis-trans isomerization)
COc1ccc(/C=C/c2nc3ccccc3c(=O)n2CC2CCCCC2)cc1OC (3D coordinates assigned)
COc1ccc(/C=C/c2nc3ccccc3c(=O)n2CC2CCCCC2)cc1OC (nonaromatic ring conformer: 74.35306140140834 kcal/mol)

>  <smiles>  (40) 
COc1ccc(/C=C/c2nc3ccccc3c(=O)n2CC2CCCCC2)cc1OC

>  <score_type>  (40) 
oracle

>  <origin>  (40) 
autodockgpu

>  <m_score__min__energy>  (40) 
-7.5199999999999996

>  <m_primary>  (40) 
energy

>  <meeko>  (40) 
{"free_energy": -6.98, "intermolecular_energy": -9.06, "internal_energy": -1.82, "cluster_size": 7, "cluster_id": 1, "rank_in_cluster": 7}

>  <energy>  (40) 
-6.81

>  <cluster_rmsd>  (40) 
0.0

>  <rmsd>  (40) 
269.42

>  <cluster>  (40) 
6

$$$$
CHYZURNRBYISSB-FYWRMAATNA-N
     RDKit          3D

 58 61  0  0  0  0  0  0  0  0999 V2000
  141.7791   72.0517  221.4447 H   0  0  0  0  0  0  0  0  0  0  0  0
  140.7500   72.3030  221.7410 C   0  0  0  0  0  0  0  0  0  0  0  0
  139.9060   71.3200  222.0800 C   0  0  0  0  0  0  0  0  0  0  0  0
  139.2237   70.9122  221.3196 H   0  0  0  0  0  0  0  0  0  0  0  0
  139.8690   70.7660  223.4610 C   0  0  0  0  0  0  0  0  0  0  0  0
  140.4080   71.5350  224.4490 N   0  0  0  0  0  0  0  0  0  0  0  0
  140.5140   71.1050  225.7210 C   0  0  0  0  0  0  0  0  0  0  0  0
  141.0480   71.9470  226.7030 C   0  0  0  0  0  0  0  0  0  0  0  0
  141.3668   72.9664  226.4399 H   0  0  0  0  0  0  0  0  0  0  0  0
  141.1760   71.4920  228.0180 C   0  0  0  0  0  0  0  0  0  0  0  0
  141.5928   72.1557  228.7899 H   0  0  0  0  0  0  0  0  0  0  0  0
  140.7750   70.1930  228.3560 C   0  0  0  0  0  0  0  0  0  0  0  0
  140.8737   69.8385  229.3926 H   0  0  0  0  0  0  0  0  0  0  0  0
  140.2500   69.3490  227.3760 C   0  0  0  0  0  0  0  0  0  0  0  0
  139.9468   68.3251  227.6400 H   0  0  0  0  0  0  0  0  0  0  0  0
  140.1070   69.8030  226.0510 C   0  0  0  0  0  0  0  0  0  0  0  0
  139.5520   69.0060  225.0410 C   0  0  0  0  0  0  0  0  0  0  0  0
  139.1980   67.8230  225.3150 O   0  0  0  0  0  0  0  0  0  0  0  0
  139.3870   69.5020  223.7660 N   0  0  0  0  0  0  0  0  0  0  0  0
  138.6590   68.6580  222.7850 C   0  0  0  0  0  0  0  0  0  0  0  0
  138.8121   69.0720  221.7775 H   0  0  0  0  0  0  0  0  0  0  0  0
  139.0539   67.6340  222.8582 H   0  0  0  0  0  0  0  0  0  0  0  0
  137.1310   68.6070  223.0810 C   0  0  0  0  0  0  0  0  0  0  0  0
  136.9274   67.6039  223.4838 H   0  0  0  0  0  0  0  0  0  0  0  0
  136.2970   68.7850  221.7810 C   0  0  0  0  0  0  0  0  0  0  0  0
  136.9561   68.5938  220.9214 H   0  0  0  0  0  0  0  0  0  0  0  0
  135.4593   68.0753  221.8478 H   0  0  0  0  0  0  0  0  0  0  0  0
  135.6730   70.1830  221.6070 C   0  0  0  0  0  0  0  0  0  0  0  0
  135.5420   70.3820  220.5331 H   0  0  0  0  0  0  0  0  0  0  0  0
  134.7078   70.1917  222.1346 H   0  0  0  0  0  0  0  0  0  0  0  0
  136.5480   71.2800  222.2080 C   0  0  0  0  0  0  0  0  0  0  0  0
  137.5263   71.2686  221.7053 H   0  0  0  0  0  0  0  0  0  0  0  0
  136.0345   72.2415  222.0605 H   0  0  0  0  0  0  0  0  0  0  0  0
  136.7650   71.0850  223.7230 C   0  0  0  0  0  0  0  0  0  0  0  0
  137.7575   71.4801  223.9853 H   0  0  0  0  0  0  0  0  0  0  0  0
  135.9515   71.6193  224.2355 H   0  0  0  0  0  0  0  0  0  0  0  0
  136.6920   69.6110  224.1760 C   0  0  0  0  0  0  0  0  0  0  0  0
  137.3476   69.4822  225.0499 H   0  0  0  0  0  0  0  0  0  0  0  0
  135.6390   69.3956  224.4099 H   0  0  0  0  0  0  0  0  0  0  0  0
  140.3290   73.7090  221.7570 C   0  0  0  0  0  0  0  0  0  0  0  0
  141.2540   74.7420  221.5620 C   0  0  0  0  0  0  0  0  0  0  0  0
  142.3145   74.5054  221.3906 H   0  0  0  0  0  0  0  0  0  0  0  0
  140.8310   76.0710  221.5850 C   0  0  0  0  0  0  0  0  0  0  0  0
  141.5559   76.8780  221.4024 H   0  0  0  0  0  0  0  0  0  0  0  0
  139.4790   76.3880  221.8410 C   0  0  0  0  0  0  0  0  0  0  0  0
  139.0220   77.7150  221.9030 O   0  0  0  0  0  0  0  0  0  0  0  0
  139.1670   78.5570  223.0420 C   0  0  0  0  0  0  0  0  0  0  0  0
  139.0635   77.9562  223.9576 H   0  0  0  0  0  0  0  0  0  0  0  0
  140.1599   79.0302  223.0242 H   0  0  0  0  0  0  0  0  0  0  0  0
  138.3896   79.3351  223.0242 H   0  0  0  0  0  0  0  0  0  0  0  0
  138.5530   75.3550  222.0540 C   0  0  0  0  0  0  0  0  0  0  0  0
  137.2300   75.7040  222.3600 O   0  0  0  0  0  0  0  0  0  0  0  0
  136.2300   74.7760  222.7840 C   0  0  0  0  0  0  0  0  0  0  0  0
  136.1990   74.7472  223.8832 H   0  0  0  0  0  0  0  0  0  0  0  0
  135.2496   75.0915  222.3976 H   0  0  0  0  0  0  0  0  0  0  0  0
  136.4715   73.7748  222.3976 H   0  0  0  0  0  0  0  0  0  0  0  0
  138.9740   74.0150  221.9780 C   0  0  0  0  0  0  0  0  0  0  0  0
  138.2406   73.2031  222.0918 H   0  0  0  0  0  0  0  0  0  0  0  0
  1  2  1  0
  2  3  2  0
  3  4  1  0
  3  5  1  0
  5  6  2  0
  6  7  1  0
  7  8  2  0
  8  9  1  0
  8 10  1  0
 10 11  1  0
 10 12  2  0
 12 13  1  0
 12 14  1  0
 14 15  1  0
 14 16  2  0
 16 17  1  0
 17 18  2  0
 17 19  1  0
 19 20  1  0
 20 21  1  0
 20 22  1  0
 20 23  1  0
 23 24  1  0
 23 25  1  0
 25 26  1  0
 25 27  1  0
 25 28  1  0
 28 29  1  0
 28 30  1  0
 28 31  1  0
 31 32  1  0
 31 33  1  0
 31 34  1  0
 34 35  1  0
 34 36  1  0
 34 37  1  0
 37 38  1  0
 37 39  1  0
  2 40  1  0
 40 41  2  0
 41 42  1  0
 41 43  1  0
 43 44  1  0
 43 45  2  0
 45 46  1  0
 46 47  1  0
 47 48  1  0
 47 49  1  0
 47 50  1  0
 45 51  1  0
 51 52  1  0
 52 53  1  0
 53 54  1  0
 53 55  1  0
 53 56  1  0
 51 57  2  0
 57 58  1  0
 19  5  1  0
 37 23  1  0
 57 40  1  0
 16  7  1  0
M  END
>  <UniqueID>  (41) 
67

>  <SMILES>  (41) 
COc1ccc(/C=C/c2nc3ccccc3c(=O)n2CC2CCCCC2)cc1OC

>  <Energy>  (41) 
76.31808002395869

>  <Genealogy>  (41) 
COc1ccc(/C=C/c2nc3ccccc3c(=O)n2CC2CCCCC2)cc1OC (cis-trans isomerization)
COc1ccc(/C=C/c2nc3ccccc3c(=O)n2CC2CCCCC2)cc1OC (3D coordinates assigned)
COc1ccc(/C=C/c2nc3ccccc3c(=O)n2CC2CCCCC2)cc1OC (nonaromatic ring conformer: 76.31808002395869 kcal/mol)

>  <smiles>  (41) 
COc1ccc(/C=C/c2nc3ccccc3c(=O)n2CC2CCCCC2)cc1OC

>  <score_type>  (41) 
oracle

>  <origin>  (41) 
autodockgpu

>  <m_score__min__energy>  (41) 
-7.5199999999999996

>  <m_primary>  (41) 
energy

>  <meeko>  (41) 
{"free_energy": -6.86, "intermolecular_energy": -8.95, "internal_energy": -2.04, "cluster_size": 5, "cluster_id": 3, "rank_in_cluster": 5}

>  <energy>  (41) 
-7.52

>  <cluster_rmsd>  (41) 
0.0

>  <rmsd>  (41) 
269.58

>  <cluster>  (41) 
1

$$$$
CHYZURNRBYISSB-FYWRMAATNA-N
     RDKit          3D

 58 61  0  0  0  0  0  0  0  0999 V2000
  139.0741   72.0463  220.5770 H   0  0  0  0  0  0  0  0  0  0  0  0
  139.7640   72.4030  221.3560 C   0  0  0  0  0  0  0  0  0  0  0  0
  140.5260   71.5200  222.0120 C   0  0  0  0  0  0  0  0  0  0  0  0
  141.4426   71.1427  221.5351 H   0  0  0  0  0  0  0  0  0  0  0  0
  140.1620   71.0360  223.3730 C   0  0  0  0  0  0  0  0  0  0  0  0
  140.7630   71.6540  224.4280 N   0  0  0  0  0  0  0  0  0  0  0  0
  140.5830   71.2470  225.6990 C   0  0  0  0  0  0  0  0  0  0  0  0
  141.2010   71.9360  226.7500 C   0  0  0  0  0  0  0  0  0  0  0  0
  141.8205   72.8201  226.5388 H   0  0  0  0  0  0  0  0  0  0  0  0
  141.0310   71.5010  228.0660 C   0  0  0  0  0  0  0  0  0  0  0  0
  141.5153   72.0445  228.8907 H   0  0  0  0  0  0  0  0  0  0  0  0
  140.2450   70.3740  228.3380 C   0  0  0  0  0  0  0  0  0  0  0  0
  140.1085   70.0360  229.3758 H   0  0  0  0  0  0  0  0  0  0  0  0
  139.6350   69.6800  227.2920 C   0  0  0  0  0  0  0  0  0  0  0  0
  139.0289   68.7874  227.5062 H   0  0  0  0  0  0  0  0  0  0  0  0
  139.7930   70.1190  225.9630 C   0  0  0  0  0  0  0  0  0  0  0  0
  139.1710   69.4780  224.8840 C   0  0  0  0  0  0  0  0  0  0  0  0
  138.4700   68.4470  225.1000 O   0  0  0  0  0  0  0  0  0  0  0  0
  139.3120   69.9640  223.6020 N   0  0  0  0  0  0  0  0  0  0  0  0
  138.5090   69.3270  222.5280 C   0  0  0  0  0  0  0  0  0  0  0  0
  139.1410   69.2062  221.6358 H   0  0  0  0  0  0  0  0  0  0  0  0
  138.1555   68.3536  222.8989 H   0  0  0  0  0  0  0  0  0  0  0  0
  137.2630   70.1800  222.1500 C   0  0  0  0  0  0  0  0  0  0  0  0
  137.4400   70.5490  221.1289 H   0  0  0  0  0  0  0  0  0  0  0  0
  137.1120   71.4100  223.0900 C   0  0  0  0  0  0  0  0  0  0  0  0
  138.0737   71.5739  223.5982 H   0  0  0  0  0  0  0  0  0  0  0  0
  136.8121   72.2551  222.4530 H   0  0  0  0  0  0  0  0  0  0  0  0
  136.0190   71.2630  224.1650 C   0  0  0  0  0  0  0  0  0  0  0  0
  136.2857   71.8883  225.0298 H   0  0  0  0  0  0  0  0  0  0  0  0
  135.0636   71.5807  223.7220 H   0  0  0  0  0  0  0  0  0  0  0  0
  135.8630   69.8180  224.6320 C   0  0  0  0  0  0  0  0  0  0  0  0
  136.8189   69.4774  225.0566 H   0  0  0  0  0  0  0  0  0  0  0  0
  135.0599   69.7896  225.3831 H   0  0  0  0  0  0  0  0  0  0  0  0
  135.4670   68.8740  223.4770 C   0  0  0  0  0  0  0  0  0  0  0  0
  135.8990   67.8820  223.6755 H   0  0  0  0  0  0  0  0  0  0  0  0
  134.3678   68.8532  223.4411 H   0  0  0  0  0  0  0  0  0  0  0  0
  135.9550   69.3500  222.0920 C   0  0  0  0  0  0  0  0  0  0  0  0
  136.1312   68.4657  221.4619 H   0  0  0  0  0  0  0  0  0  0  0  0
  135.1733   70.0056  221.6808 H   0  0  0  0  0  0  0  0  0  0  0  0
  139.8310   73.8390  221.6560 C   0  0  0  0  0  0  0  0  0  0  0  0
  141.0470   74.5320  221.6040 C   0  0  0  0  0  0  0  0  0  0  0  0
  141.9714   74.0010  221.3328 H   0  0  0  0  0  0  0  0  0  0  0  0
  141.0860   75.8950  221.8960 C   0  0  0  0  0  0  0  0  0  0  0  0
  142.0383   76.4411  221.8260 H   0  0  0  0  0  0  0  0  0  0  0  0
  139.9120   76.5800  222.2810 C   0  0  0  0  0  0  0  0  0  0  0  0
  139.9180   77.9440  222.6120 O   0  0  0  0  0  0  0  0  0  0  0  0
  141.0680   78.6500  223.0700 C   0  0  0  0  0  0  0  0  0  0  0  0
  141.0798   78.6573  224.1699 H   0  0  0  0  0  0  0  0  0  0  0  0
  141.9758   78.1534  222.6968 H   0  0  0  0  0  0  0  0  0  0  0  0
  141.0360   79.6843  222.6968 H   0  0  0  0  0  0  0  0  0  0  0  0
  138.6950   75.8840  222.3500 C   0  0  0  0  0  0  0  0  0  0  0  0
  137.5590   76.5780  222.7880 O   0  0  0  0  0  0  0  0  0  0  0  0
  136.3480   75.9530  223.2170 C   0  0  0  0  0  0  0  0  0  0  0  0
  136.3139   75.9354  224.3163 H   0  0  0  0  0  0  0  0  0  0  0  0
  135.4869   76.5193  222.8325 H   0  0  0  0  0  0  0  0  0  0  0  0
  136.3108   74.9231  222.8325 H   0  0  0  0  0  0  0  0  0  0  0  0
  138.6510   74.5210  222.0030 C   0  0  0  0  0  0  0  0  0  0  0  0
  137.6895   73.9866  222.0032 H   0  0  0  0  0  0  0  0  0  0  0  0
  1  2  1  0
  2  3  2  0
  3  4  1  0
  3  5  1  0
  5  6  2  0
  6  7  1  0
  7  8  2  0
  8  9  1  0
  8 10  1  0
 10 11  1  0
 10 12  2  0
 12 13  1  0
 12 14  1  0
 14 15  1  0
 14 16  2  0
 16 17  1  0
 17 18  2  0
 17 19  1  0
 19 20  1  0
 20 21  1  0
 20 22  1  0
 20 23  1  0
 23 24  1  0
 23 25  1  0
 25 26  1  0
 25 27  1  0
 25 28  1  0
 28 29  1  0
 28 30  1  0
 28 31  1  0
 31 32  1  0
 31 33  1  0
 31 34  1  0
 34 35  1  0
 34 36  1  0
 34 37  1  0
 37 38  1  0
 37 39  1  0
  2 40  1  0
 40 41  2  0
 41 42  1  0
 41 43  1  0
 43 44  1  0
 43 45  2  0
 45 46  1  0
 46 47  1  0
 47 48  1  0
 47 49  1  0
 47 50  1  0
 45 51  1  0
 51 52  1  0
 52 53  1  0
 53 54  1  0
 53 55  1  0
 53 56  1  0
 51 57  2  0
 57 58  1  0
 19  5  1  0
 37 23  1  0
 57 40  1  0
 16  7  1  0
M  END
>  <UniqueID>  (42) 
67

>  <SMILES>  (42) 
COc1ccc(/C=C/c2nc3ccccc3c(=O)n2CC2CCCCC2)cc1OC

>  <Energy>  (42) 
76.31808002395869

>  <Genealogy>  (42) 
COc1ccc(/C=C/c2nc3ccccc3c(=O)n2CC2CCCCC2)cc1OC (cis-trans isomerization)
COc1ccc(/C=C/c2nc3ccccc3c(=O)n2CC2CCCCC2)cc1OC (3D coordinates assigned)
COc1ccc(/C=C/c2nc3ccccc3c(=O)n2CC2CCCCC2)cc1OC (nonaromatic ring conformer: 76.31808002395869 kcal/mol)

>  <smiles>  (42) 
COc1ccc(/C=C/c2nc3ccccc3c(=O)n2CC2CCCCC2)cc1OC

>  <score_type>  (42) 
oracle

>  <origin>  (42) 
autodockgpu

>  <m_score__min__energy>  (42) 
-7.5199999999999996

>  <m_primary>  (42) 
energy

>  <meeko>  (42) 
{"free_energy": -6.92, "intermolecular_energy": -9.01, "internal_energy": -2.09, "cluster_size": 5, "cluster_id": 3, "rank_in_cluster": 4}

>  <energy>  (42) 
-7.46

>  <cluster_rmsd>  (42) 
0.29

>  <rmsd>  (42) 
269.56

>  <cluster>  (42) 
1

$$$$
CHYZURNRBYISSB-FYWRMAATNA-N
     RDKit          3D

 58 61  0  0  0  0  0  0  0  0999 V2000
  136.4548   71.3590  221.7250 H   0  0  0  0  0  0  0  0  0  0  0  0
  136.8680   71.6400  222.7050 C   0  0  0  0  0  0  0  0  0  0  0  0
  138.1750   71.4680  222.9400 C   0  0  0  0  0  0  0  0  0  0  0  0
  138.9069   71.8767  222.2278 H   0  0  0  0  0  0  0  0  0  0  0  0
  138.6610   70.7370  224.1420 C   0  0  0  0  0  0  0  0  0  0  0  0
  139.3680   71.4560  225.0580 N   0  0  0  0  0  0  0  0  0  0  0  0
  139.9340   70.8880  226.1400 C   0  0  0  0  0  0  0  0  0  0  0  0
  140.6240   71.6780  227.0670 C   0  0  0  0  0  0  0  0  0  0  0  0
  140.6900   72.7663  226.9210 H   0  0  0  0  0  0  0  0  0  0  0  0
  141.2290   71.0840  228.1780 C   0  0  0  0  0  0  0  0  0  0  0  0
  141.7685   71.7063  228.9072 H   0  0  0  0  0  0  0  0  0  0  0  0
  141.1500   69.6990  228.3650 C   0  0  0  0  0  0  0  0  0  0  0  0
  141.6228   69.2346  229.2430 H   0  0  0  0  0  0  0  0  0  0  0  0
  140.4710   68.9070  227.4370 C   0  0  0  0  0  0  0  0  0  0  0  0
  140.4218   67.8172  227.5781 H   0  0  0  0  0  0  0  0  0  0  0  0
  139.8490   69.4990  226.3210 C   0  0  0  0  0  0  0  0  0  0  0  0
  139.1240   68.7520  225.3830 C   0  0  0  0  0  0  0  0  0  0  0  0
  139.0520   67.4960  225.5190 O   0  0  0  0  0  0  0  0  0  0  0  0
  138.4900   69.3730  224.3280 N   0  0  0  0  0  0  0  0  0  0  0  0
  137.6200   68.5420  223.4590 C   0  0  0  0  0  0  0  0  0  0  0  0
  137.0070   67.8855  224.0940 H   0  0  0  0  0  0  0  0  0  0  0  0
  136.9909   69.2183  222.8617 H   0  0  0  0  0  0  0  0  0  0  0  0
  138.4470   67.6620  222.4770 C   0  0  0  0  0  0  0  0  0  0  0  0
  139.0821   67.0158  223.1007 H   0  0  0  0  0  0  0  0  0  0  0  0
  139.3730   68.5320  221.5810 C   0  0  0  0  0  0  0  0  0  0  0  0
  139.4693   69.5234  222.0477 H   0  0  0  0  0  0  0  0  0  0  0  0
  140.3302   67.9949  221.5077 H   0  0  0  0  0  0  0  0  0  0  0  0
  138.8700   68.7270  220.1380 C   0  0  0  0  0  0  0  0  0  0  0  0
  139.2654   69.6772  219.7497 H   0  0  0  0  0  0  0  0  0  0  0  0
  139.2212   67.8744  219.5382 H   0  0  0  0  0  0  0  0  0  0  0  0
  137.3460   68.7600  220.0620 C   0  0  0  0  0  0  0  0  0  0  0  0
  136.9784   69.5956  220.6758 H   0  0  0  0  0  0  0  0  0  0  0  0
  137.0624   68.8846  219.0065 H   0  0  0  0  0  0  0  0  0  0  0  0
  136.7100   67.4500  220.5730 C   0  0  0  0  0  0  0  0  0  0  0  0
  135.7358   67.6898  221.0241 H   0  0  0  0  0  0  0  0  0  0  0  0
  136.6175   66.7783  219.7068 H   0  0  0  0  0  0  0  0  0  0  0  0
  137.5660   66.7140  221.6250 C   0  0  0  0  0  0  0  0  0  0  0  0
  136.8927   66.1645  222.2993 H   0  0  0  0  0  0  0  0  0  0  0  0
  138.2460   66.0443  221.0781 H   0  0  0  0  0  0  0  0  0  0  0  0
  135.9760   72.1960  223.7290 C   0  0  0  0  0  0  0  0  0  0  0  0
  135.7960   73.5800  223.8560 C   0  0  0  0  0  0  0  0  0  0  0  0
  136.3257   74.2679  223.1806 H   0  0  0  0  0  0  0  0  0  0  0  0
  134.9450   74.0850  224.8390 C   0  0  0  0  0  0  0  0  0  0  0  0
  134.7837   75.1704  224.9160 H   0  0  0  0  0  0  0  0  0  0  0  0
  134.2890   73.2140  225.7360 C   0  0  0  0  0  0  0  0  0  0  0  0
  133.4510   73.6880  226.7580 O   0  0  0  0  0  0  0  0  0  0  0  0
  132.0590   73.3990  226.8480 C   0  0  0  0  0  0  0  0  0  0  0  0
  131.7649   73.3379  227.9062 H   0  0  0  0  0  0  0  0  0  0  0  0
  131.4861   74.1973  226.3537 H   0  0  0  0  0  0  0  0  0  0  0  0
  131.8512   72.4386  226.3537 H   0  0  0  0  0  0  0  0  0  0  0  0
  134.4820   71.8280  225.6240 C   0  0  0  0  0  0  0  0  0  0  0  0
  133.8610   70.9940  226.5630 O   0  0  0  0  0  0  0  0  0  0  0  0
  134.3120   70.8190  227.9070 C   0  0  0  0  0  0  0  0  0  0  0  0
  133.5180   71.1271  228.6032 H   0  0  0  0  0  0  0  0  0  0  0  0
  134.5577   69.7603  228.0764 H   0  0  0  0  0  0  0  0  0  0  0  0
  135.2075   71.4349  228.0764 H   0  0  0  0  0  0  0  0  0  0  0  0
  135.2990   71.3210  224.5970 C   0  0  0  0  0  0  0  0  0  0  0  0
  135.4089   70.2336  224.4723 H   0  0  0  0  0  0  0  0  0  0  0  0
  1  2  1  0
  2  3  2  0
  3  4  1  0
  3  5  1  0
  5  6  2  0
  6  7  1  0
  7  8  2  0
  8  9  1  0
  8 10  1  0
 10 11  1  0
 10 12  2  0
 12 13  1  0
 12 14  1  0
 14 15  1  0
 14 16  2  0
 16 17  1  0
 17 18  2  0
 17 19  1  0
 19 20  1  0
 20 21  1  0
 20 22  1  0
 20 23  1  0
 23 24  1  0
 23 25  1  0
 25 26  1  0
 25 27  1  0
 25 28  1  0
 28 29  1  0
 28 30  1  0
 28 31  1  0
 31 32  1  0
 31 33  1  0
 31 34  1  0
 34 35  1  0
 34 36  1  0
 34 37  1  0
 37 38  1  0
 37 39  1  0
  2 40  1  0
 40 41  2  0
 41 42  1  0
 41 43  1  0
 43 44  1  0
 43 45  2  0
 45 46  1  0
 46 47  1  0
 47 48  1  0
 47 49  1  0
 47 50  1  0
 45 51  1  0
 51 52  1  0
 52 53  1  0
 53 54  1  0
 53 55  1  0
 53 56  1  0
 51 57  2  0
 57 58  1  0
 19  5  1  0
 37 23  1  0
 57 40  1  0
 16  7  1  0
M  END
>  <UniqueID>  (43) 
67

>  <SMILES>  (43) 
COc1ccc(/C=C/c2nc3ccccc3c(=O)n2CC2CCCCC2)cc1OC

>  <Energy>  (43) 
76.31808002395869

>  <Genealogy>  (43) 
COc1ccc(/C=C/c2nc3ccccc3c(=O)n2CC2CCCCC2)cc1OC (cis-trans isomerization)
COc1ccc(/C=C/c2nc3ccccc3c(=O)n2CC2CCCCC2)cc1OC (3D coordinates assigned)
COc1ccc(/C=C/c2nc3ccccc3c(=O)n2CC2CCCCC2)cc1OC (nonaromatic ring conformer: 76.31808002395869 kcal/mol)

>  <smiles>  (43) 
COc1ccc(/C=C/c2nc3ccccc3c(=O)n2CC2CCCCC2)cc1OC

>  <score_type>  (43) 
oracle

>  <origin>  (43) 
autodockgpu

>  <m_score__min__energy>  (43) 
-7.5199999999999996

>  <m_primary>  (43) 
energy

>  <meeko>  (43) 
{"free_energy": -6.93, "intermolecular_energy": -9.02, "internal_energy": -1.99, "cluster_size": 3, "cluster_id": 5, "rank_in_cluster": 3}

>  <energy>  (43) 
-7.38

>  <cluster_rmsd>  (43) 
0.59

>  <rmsd>  (43) 
269.52

>  <cluster>  (43) 
1

$$$$
CHYZURNRBYISSB-FYWRMAATNA-N
     RDKit          3D

 58 61  0  0  0  0  0  0  0  0999 V2000
  134.6135   68.3606  224.1597 H   0  0  0  0  0  0  0  0  0  0  0  0
  135.2750   69.2390  224.1870 C   0  0  0  0  0  0  0  0  0  0  0  0
  136.4580   69.1890  223.5640 C   0  0  0  0  0  0  0  0  0  0  0  0
  136.4890   68.9584  222.4889 H   0  0  0  0  0  0  0  0  0  0  0  0
  137.7340   69.4380  224.2910 C   0  0  0  0  0  0  0  0  0  0  0  0
  138.1300   68.4890  225.1850 N   0  0  0  0  0  0  0  0  0  0  0  0
  139.2160   68.6430  225.9660 C   0  0  0  0  0  0  0  0  0  0  0  0
  139.5960   67.6230  226.8460 C   0  0  0  0  0  0  0  0  0  0  0  0
  139.0172   66.6886  226.8885 H   0  0  0  0  0  0  0  0  0  0  0  0
  140.7120   67.7930  227.6710 C   0  0  0  0  0  0  0  0  0  0  0  0
  141.0120   66.9900  228.3604 H   0  0  0  0  0  0  0  0  0  0  0  0
  141.4490   68.9830  227.6220 C   0  0  0  0  0  0  0  0  0  0  0  0
  142.3290   69.1124  228.2692 H   0  0  0  0  0  0  0  0  0  0  0  0
  141.0660   70.0050  226.7510 C   0  0  0  0  0  0  0  0  0  0  0  0
  141.6379   70.9442  226.7226 H   0  0  0  0  0  0  0  0  0  0  0  0
  139.9500   69.8370  225.9090 C   0  0  0  0  0  0  0  0  0  0  0  0
  139.5490   70.8180  224.9920 C   0  0  0  0  0  0  0  0  0  0  0  0
  140.1870   71.9100  224.9400 O   0  0  0  0  0  0  0  0  0  0  0  0
  138.4790   70.6000  224.1520 N   0  0  0  0  0  0  0  0  0  0  0  0
  138.2010   71.6160  223.1070 C   0  0  0  0  0  0  0  0  0  0  0  0
  137.1149   71.6653  222.9396 H   0  0  0  0  0  0  0  0  0  0  0  0
  138.5937   72.5814  223.4588 H   0  0  0  0  0  0  0  0  0  0  0  0
  138.9020   71.2740  221.7600 C   0  0  0  0  0  0  0  0  0  0  0  0
  138.5137   70.2923  221.4509 H   0  0  0  0  0  0  0  0  0  0  0  0
  140.4420   71.1510  221.9380 C   0  0  0  0  0  0  0  0  0  0  0  0
  140.6545   71.0226  223.0096 H   0  0  0  0  0  0  0  0  0  0  0  0
  140.7588   70.2910  221.3297 H   0  0  0  0  0  0  0  0  0  0  0  0
  141.2440   72.3640  221.4310 C   0  0  0  0  0  0  0  0  0  0  0  0
  142.1841   72.4299  221.9984 H   0  0  0  0  0  0  0  0  0  0  0  0
  141.4350   72.2189  220.3575 H   0  0  0  0  0  0  0  0  0  0  0  0
  140.4750   73.6720  221.5990 C   0  0  0  0  0  0  0  0  0  0  0  0
  140.2568   73.8205  222.6669 H   0  0  0  0  0  0  0  0  0  0  0  0
  141.1001   74.4856  221.2023 H   0  0  0  0  0  0  0  0  0  0  0  0
  139.1450   73.6690  220.8150 C   0  0  0  0  0  0  0  0  0  0  0  0
  138.4175   74.2858  221.3630 H   0  0  0  0  0  0  0  0  0  0  0  0
  139.3619   74.0667  219.8126 H   0  0  0  0  0  0  0  0  0  0  0  0
  138.5420   72.2610  220.6210 C   0  0  0  0  0  0  0  0  0  0  0  0
  137.4470   72.3543  220.5739 H   0  0  0  0  0  0  0  0  0  0  0  0
  138.9654   71.8521  219.6917 H   0  0  0  0  0  0  0  0  0  0  0  0
  134.8430   70.4430  224.9060 C   0  0  0  0  0  0  0  0  0  0  0  0
  134.1350   70.3510  226.1110 C   0  0  0  0  0  0  0  0  0  0  0  0
  133.8958   69.3642  226.5340 H   0  0  0  0  0  0  0  0  0  0  0  0
  133.7330   71.5100  226.7750 C   0  0  0  0  0  0  0  0  0  0  0  0
  133.2032   71.4326  227.7359 H   0  0  0  0  0  0  0  0  0  0  0  0
  134.0010   72.7820  226.2230 C   0  0  0  0  0  0  0  0  0  0  0  0
  133.5830   73.9690  226.8460 O   0  0  0  0  0  0  0  0  0  0  0  0
  132.2430   74.2320  227.2490 C   0  0  0  0  0  0  0  0  0  0  0  0
  132.1860   74.2432  228.3475 H   0  0  0  0  0  0  0  0  0  0  0  0
  131.9269   75.2093  226.8554 H   0  0  0  0  0  0  0  0  0  0  0  0
  131.5809   73.4467  226.8554 H   0  0  0  0  0  0  0  0  0  0  0  0
  134.6940   72.8770  225.0060 C   0  0  0  0  0  0  0  0  0  0  0  0
  134.8960   74.1510  224.4570 O   0  0  0  0  0  0  0  0  0  0  0  0
  135.8050   74.4330  223.3920 C   0  0  0  0  0  0  0  0  0  0  0  0
  136.7769   74.7345  223.8097 H   0  0  0  0  0  0  0  0  0  0  0  0
  135.9352   73.5330  222.7731 H   0  0  0  0  0  0  0  0  0  0  0  0
  135.4029   75.2486  222.7731 H   0  0  0  0  0  0  0  0  0  0  0  0
  135.1440   71.7070  224.3680 C   0  0  0  0  0  0  0  0  0  0  0  0
  135.7347   71.7811  223.4430 H   0  0  0  0  0  0  0  0  0  0  0  0
  1  2  1  0
  2  3  2  0
  3  4  1  0
  3  5  1  0
  5  6  2  0
  6  7  1  0
  7  8  2  0
  8  9  1  0
  8 10  1  0
 10 11  1  0
 10 12  2  0
 12 13  1  0
 12 14  1  0
 14 15  1  0
 14 16  2  0
 16 17  1  0
 17 18  2  0
 17 19  1  0
 19 20  1  0
 20 21  1  0
 20 22  1  0
 20 23  1  0
 23 24  1  0
 23 25  1  0
 25 26  1  0
 25 27  1  0
 25 28  1  0
 28 29  1  0
 28 30  1  0
 28 31  1  0
 31 32  1  0
 31 33  1  0
 31 34  1  0
 34 35  1  0
 34 36  1  0
 34 37  1  0
 37 38  1  0
 37 39  1  0
  2 40  1  0
 40 41  2  0
 41 42  1  0
 41 43  1  0
 43 44  1  0
 43 45  2  0
 45 46  1  0
 46 47  1  0
 47 48  1  0
 47 49  1  0
 47 50  1  0
 45 51  1  0
 51 52  1  0
 52 53  1  0
 53 54  1  0
 53 55  1  0
 53 56  1  0
 51 57  2  0
 57 58  1  0
 19  5  1  0
 37 23  1  0
 57 40  1  0
 16  7  1  0
M  END
>  <UniqueID>  (44) 
67

>  <SMILES>  (44) 
COc1ccc(/C=C/c2nc3ccccc3c(=O)n2CC2CCCCC2)cc1OC

>  <Energy>  (44) 
76.31808002395869

>  <Genealogy>  (44) 
COc1ccc(/C=C/c2nc3ccccc3c(=O)n2CC2CCCCC2)cc1OC (cis-trans isomerization)
COc1ccc(/C=C/c2nc3ccccc3c(=O)n2CC2CCCCC2)cc1OC (3D coordinates assigned)
COc1ccc(/C=C/c2nc3ccccc3c(=O)n2CC2CCCCC2)cc1OC (nonaromatic ring conformer: 76.31808002395869 kcal/mol)

>  <smiles>  (44) 
COc1ccc(/C=C/c2nc3ccccc3c(=O)n2CC2CCCCC2)cc1OC

>  <score_type>  (44) 
oracle

>  <origin>  (44) 
autodockgpu

>  <m_score__min__energy>  (44) 
-7.5199999999999996

>  <m_primary>  (44) 
energy

>  <meeko>  (44) 
{"free_energy": -6.81, "intermolecular_energy": -8.9, "internal_energy": -1.97, "cluster_size": 1, "cluster_id": 6, "rank_in_cluster": 1}

>  <energy>  (44) 
-7.3

>  <cluster_rmsd>  (44) 
1.13

>  <rmsd>  (44) 
269.64

>  <cluster>  (44) 
1

$$$$
CHYZURNRBYISSB-FYWRMAATNA-N
     RDKit          3D

 58 61  0  0  0  0  0  0  0  0999 V2000
  137.9275   72.5342  221.8636 H   0  0  0  0  0  0  0  0  0  0  0  0
  139.0100   72.6630  222.0110 C   0  0  0  0  0  0  0  0  0  0  0  0
  139.7740   71.5870  222.2370 C   0  0  0  0  0  0  0  0  0  0  0  0
  140.4137   71.2030  221.4287 H   0  0  0  0  0  0  0  0  0  0  0  0
  139.7780   70.8980  223.5570 C   0  0  0  0  0  0  0  0  0  0  0  0
  140.3140   71.5810  224.6070 N   0  0  0  0  0  0  0  0  0  0  0  0
  140.4540   71.0300  225.8280 C   0  0  0  0  0  0  0  0  0  0  0  0
  140.9830   71.7860  226.8810 C   0  0  0  0  0  0  0  0  0  0  0  0
  141.2679   72.8355  226.7158 H   0  0  0  0  0  0  0  0  0  0  0  0
  141.1490   71.2070  228.1420 C   0  0  0  0  0  0  0  0  0  0  0  0
  141.5632   71.8023  228.9691 H   0  0  0  0  0  0  0  0  0  0  0  0
  140.7890   69.8700  228.3550 C   0  0  0  0  0  0  0  0  0  0  0  0
  140.9152   69.4178  229.3498 H   0  0  0  0  0  0  0  0  0  0  0  0
  140.2700   69.1120  227.3040 C   0  0  0  0  0  0  0  0  0  0  0  0
  140.0007   68.0583  227.4691 H   0  0  0  0  0  0  0  0  0  0  0  0
  140.0900   69.6910  226.0340 C   0  0  0  0  0  0  0  0  0  0  0  0
  139.5380   68.9820  224.9580 C   0  0  0  0  0  0  0  0  0  0  0  0
  139.2220   67.7670  225.1190 O   0  0  0  0  0  0  0  0  0  0  0  0
  139.3350   69.5970  223.7410 N   0  0  0  0  0  0  0  0  0  0  0  0
  138.6130   68.8330  222.6940 C   0  0  0  0  0  0  0  0  0  0  0  0
  138.6413   69.4042  221.7543 H   0  0  0  0  0  0  0  0  0  0  0  0
  139.1093   67.8578  222.5817 H   0  0  0  0  0  0  0  0  0  0  0  0
  137.1270   68.5750  223.0810 C   0  0  0  0  0  0  0  0  0  0  0  0
  137.0828   67.5477  223.4718 H   0  0  0  0  0  0  0  0  0  0  0  0
  136.1960   68.6610  221.8380 C   0  0  0  0  0  0  0  0  0  0  0  0
  136.8191   68.5735  220.9357 H   0  0  0  0  0  0  0  0  0  0  0  0
  135.4655   67.8447  221.9381 H   0  0  0  0  0  0  0  0  0  0  0  0
  135.3830   69.9650  221.7360 C   0  0  0  0  0  0  0  0  0  0  0  0
  135.1576   70.1608  220.6773 H   0  0  0  0  0  0  0  0  0  0  0  0
  134.4614   69.8368  222.3227 H   0  0  0  0  0  0  0  0  0  0  0  0
  136.1420   71.1600  222.3070 C   0  0  0  0  0  0  0  0  0  0  0  0
  137.0789   71.2867  221.7447 H   0  0  0  0  0  0  0  0  0  0  0  0
  135.4975   72.0466  222.2138 H   0  0  0  0  0  0  0  0  0  0  0  0
  136.4800   70.9730  223.8020 C   0  0  0  0  0  0  0  0  0  0  0  0
  137.4270   71.4920  224.0115 H   0  0  0  0  0  0  0  0  0  0  0  0
  135.6383   71.3876  224.3762 H   0  0  0  0  0  0  0  0  0  0  0  0
  136.6300   69.4960  224.2240 C   0  0  0  0  0  0  0  0  0  0  0  0
  137.3508   69.4421  225.0532 H   0  0  0  0  0  0  0  0  0  0  0  0
  135.6313   69.1395  224.5163 H   0  0  0  0  0  0  0  0  0  0  0  0
  139.5880   74.0110  221.9560 C   0  0  0  0  0  0  0  0  0  0  0  0
  140.9170   74.2110  221.5630 C   0  0  0  0  0  0  0  0  0  0  0  0
  141.5442   73.3506  221.2866 H   0  0  0  0  0  0  0  0  0  0  0  0
  141.4460   75.5020  221.5220 C   0  0  0  0  0  0  0  0  0  0  0  0
  142.4815   75.6572  221.1849 H   0  0  0  0  0  0  0  0  0  0  0  0
  140.6620   76.6100  221.9100 C   0  0  0  0  0  0  0  0  0  0  0  0
  141.1690   77.9200  221.9120 O   0  0  0  0  0  0  0  0  0  0  0  0
  141.5050   78.6450  223.0910 C   0  0  0  0  0  0  0  0  0  0  0  0
  141.2305   78.0527  223.9764 H   0  0  0  0  0  0  0  0  0  0  0  0
  142.5869   78.8434  223.1036 H   0  0  0  0  0  0  0  0  0  0  0  0
  140.9571   79.5988  223.1036 H   0  0  0  0  0  0  0  0  0  0  0  0
  139.3350   76.4110  222.3220 C   0  0  0  0  0  0  0  0  0  0  0  0
  138.6000   77.5240  222.7540 O   0  0  0  0  0  0  0  0  0  0  0  0
  138.1180   78.5540  221.8900 C   0  0  0  0  0  0  0  0  0  0  0  0
  137.7283   79.3867  222.4940 H   0  0  0  0  0  0  0  0  0  0  0  0
  138.9407   78.9150  221.2553 H   0  0  0  0  0  0  0  0  0  0  0  0
  137.3137   78.1536  221.2553 H   0  0  0  0  0  0  0  0  0  0  0  0
  138.7900   75.1130  222.3110 C   0  0  0  0  0  0  0  0  0  0  0  0
  137.7348   74.9601  222.5814 H   0  0  0  0  0  0  0  0  0  0  0  0
  1  2  1  0
  2  3  2  0
  3  4  1  0
  3  5  1  0
  5  6  2  0
  6  7  1  0
  7  8  2  0
  8  9  1  0
  8 10  1  0
 10 11  1  0
 10 12  2  0
 12 13  1  0
 12 14  1  0
 14 15  1  0
 14 16  2  0
 16 17  1  0
 17 18  2  0
 17 19  1  0
 19 20  1  0
 20 21  1  0
 20 22  1  0
 20 23  1  0
 23 24  1  0
 23 25  1  0
 25 26  1  0
 25 27  1  0
 25 28  1  0
 28 29  1  0
 28 30  1  0
 28 31  1  0
 31 32  1  0
 31 33  1  0
 31 34  1  0
 34 35  1  0
 34 36  1  0
 34 37  1  0
 37 38  1  0
 37 39  1  0
  2 40  1  0
 40 41  2  0
 41 42  1  0
 41 43  1  0
 43 44  1  0
 43 45  2  0
 45 46  1  0
 46 47  1  0
 47 48  1  0
 47 49  1  0
 47 50  1  0
 45 51  1  0
 51 52  1  0
 52 53  1  0
 53 54  1  0
 53 55  1  0
 53 56  1  0
 51 57  2  0
 57 58  1  0
 19  5  1  0
 37 23  1  0
 57 40  1  0
 16  7  1  0
M  END
>  <UniqueID>  (45) 
67

>  <SMILES>  (45) 
COc1ccc(/C=C/c2nc3ccccc3c(=O)n2CC2CCCCC2)cc1OC

>  <Energy>  (45) 
76.31808002395869

>  <Genealogy>  (45) 
COc1ccc(/C=C/c2nc3ccccc3c(=O)n2CC2CCCCC2)cc1OC (cis-trans isomerization)
COc1ccc(/C=C/c2nc3ccccc3c(=O)n2CC2CCCCC2)cc1OC (3D coordinates assigned)
COc1ccc(/C=C/c2nc3ccccc3c(=O)n2CC2CCCCC2)cc1OC (nonaromatic ring conformer: 76.31808002395869 kcal/mol)

>  <smiles>  (45) 
COc1ccc(/C=C/c2nc3ccccc3c(=O)n2CC2CCCCC2)cc1OC

>  <score_type>  (45) 
oracle

>  <origin>  (45) 
autodockgpu

>  <m_score__min__energy>  (45) 
-7.5199999999999996

>  <m_primary>  (45) 
energy

>  <meeko>  (45) 
{"free_energy": -7.09, "intermolecular_energy": -9.18, "internal_energy": -1.88, "cluster_size": 5, "cluster_id": 3, "rank_in_cluster": 1}

>  <energy>  (45) 
-7.13

>  <cluster_rmsd>  (45) 
1.35

>  <rmsd>  (45) 
269.69

>  <cluster>  (45) 
1

$$$$
CHYZURNRBYISSB-FYWRMAATNA-N
     RDKit          3D

 58 61  0  0  0  0  0  0  0  0999 V2000
  140.7906   73.5919  222.2551 H   0  0  0  0  0  0  0  0  0  0  0  0
  141.2050   72.6920  221.7770 C   0  0  0  0  0  0  0  0  0  0  0  0
  140.5840   71.5170  221.9390 C   0  0  0  0  0  0  0  0  0  0  0  0
  140.3067   70.9289  221.0517 H   0  0  0  0  0  0  0  0  0  0  0  0
  140.2600   70.9880  223.2930 C   0  0  0  0  0  0  0  0  0  0  0  0
  140.8000   71.6450  224.3580 N   0  0  0  0  0  0  0  0  0  0  0  0
  140.6520   71.2100  225.6230 C   0  0  0  0  0  0  0  0  0  0  0  0
  141.2010   71.9400  226.6840 C   0  0  0  0  0  0  0  0  0  0  0  0
  141.7387   72.8789  226.4855 H   0  0  0  0  0  0  0  0  0  0  0  0
  141.0660   71.4760  227.9950 C   0  0  0  0  0  0  0  0  0  0  0  0
  141.4958   72.0518  228.8279 H   0  0  0  0  0  0  0  0  0  0  0  0
  140.3850   70.2800  228.2510 C   0  0  0  0  0  0  0  0  0  0  0  0
  140.2762   69.9195  229.2845 H   0  0  0  0  0  0  0  0  0  0  0  0
  139.8440   69.5450  227.1950 C   0  0  0  0  0  0  0  0  0  0  0  0
  139.3207   68.5988  227.3970 H   0  0  0  0  0  0  0  0  0  0  0  0
  139.9660   70.0110  225.8720 C   0  0  0  0  0  0  0  0  0  0  0  0
  139.4090   69.3290  224.7820 C   0  0  0  0  0  0  0  0  0  0  0  0
  138.8040   68.2360  224.9840 O   0  0  0  0  0  0  0  0  0  0  0  0
  139.5110   69.8400  223.5060 N   0  0  0  0  0  0  0  0  0  0  0  0
  138.7720   69.1450  222.4220 C   0  0  0  0  0  0  0  0  0  0  0  0
  139.4420   69.0204  221.5585 H   0  0  0  0  0  0  0  0  0  0  0  0
  138.4369   68.1714  222.8090 H   0  0  0  0  0  0  0  0  0  0  0  0
  137.5140   69.9420  221.9710 C   0  0  0  0  0  0  0  0  0  0  0  0
  137.6474   70.1468  220.8985 H   0  0  0  0  0  0  0  0  0  0  0  0
  137.4090   71.3040  222.7140 C   0  0  0  0  0  0  0  0  0  0  0  0
  138.3931   71.5352  223.1478 H   0  0  0  0  0  0  0  0  0  0  0  0
  137.0830   72.0427  221.9670 H   0  0  0  0  0  0  0  0  0  0  0  0
  136.3650   71.3370  223.8460 C   0  0  0  0  0  0  0  0  0  0  0  0
  136.6734   72.0851  224.5912 H   0  0  0  0  0  0  0  0  0  0  0  0
  135.3919   71.5935  223.4019 H   0  0  0  0  0  0  0  0  0  0  0  0
  136.2240   69.9830  224.5370 C   0  0  0  0  0  0  0  0  0  0  0  0
  137.1962   69.7019  224.9680 H   0  0  0  0  0  0  0  0  0  0  0  0
  135.4543   70.0795  225.3169 H   0  0  0  0  0  0  0  0  0  0  0  0
  135.7740   68.8760  223.5600 C   0  0  0  0  0  0  0  0  0  0  0  0
  136.2108   67.9222  223.8909 H   0  0  0  0  0  0  0  0  0  0  0  0
  134.6742   68.8616  223.5750 H   0  0  0  0  0  0  0  0  0  0  0  0
  136.2020   69.1270  222.0980 C   0  0  0  0  0  0  0  0  0  0  0  0
  136.3470   68.1542  221.6054 H   0  0  0  0  0  0  0  0  0  0  0  0
  135.4053   69.7191  221.6240 H   0  0  0  0  0  0  0  0  0  0  0  0
  142.4290   72.8020  220.9730 C   0  0  0  0  0  0  0  0  0  0  0  0
  142.8870   74.0460  220.5220 C   0  0  0  0  0  0  0  0  0  0  0  0
  142.3290   74.9606  220.7713 H   0  0  0  0  0  0  0  0  0  0  0  0
  144.0500   74.1260  219.7570 C   0  0  0  0  0  0  0  0  0  0  0  0
  144.4213   75.1081  219.4291 H   0  0  0  0  0  0  0  0  0  0  0  0
  144.7550   72.9550  219.4000 C   0  0  0  0  0  0  0  0  0  0  0  0
  145.9120   72.9930  218.6050 O   0  0  0  0  0  0  0  0  0  0  0  0
  145.9310   73.4030  217.2410 C   0  0  0  0  0  0  0  0  0  0  0  0
  145.9819   74.5006  217.1887 H   0  0  0  0  0  0  0  0  0  0  0  0
  146.8101   72.9710  216.7405 H   0  0  0  0  0  0  0  0  0  0  0  0
  145.0157   73.0541  216.7405 H   0  0  0  0  0  0  0  0  0  0  0  0
  144.2880   71.7050  219.8360 C   0  0  0  0  0  0  0  0  0  0  0  0
  144.9780   70.5580  219.4190 O   0  0  0  0  0  0  0  0  0  0  0  0
  144.3920   69.2600  219.3110 C   0  0  0  0  0  0  0  0  0  0  0  0
  144.2093   68.8553  220.3174 H   0  0  0  0  0  0  0  0  0  0  0  0
  143.4391   69.3321  218.7662 H   0  0  0  0  0  0  0  0  0  0  0  0
  145.0763   68.5929  218.7662 H   0  0  0  0  0  0  0  0  0  0  0  0
  143.1440   71.6350  220.6520 C   0  0  0  0  0  0  0  0  0  0  0  0
  142.8075   70.6625  221.0406 H   0  0  0  0  0  0  0  0  0  0  0  0
  1  2  1  0
  2  3  2  0
  3  4  1  0
  3  5  1  0
  5  6  2  0
  6  7  1  0
  7  8  2  0
  8  9  1  0
  8 10  1  0
 10 11  1  0
 10 12  2  0
 12 13  1  0
 12 14  1  0
 14 15  1  0
 14 16  2  0
 16 17  1  0
 17 18  2  0
 17 19  1  0
 19 20  1  0
 20 21  1  0
 20 22  1  0
 20 23  1  0
 23 24  1  0
 23 25  1  0
 25 26  1  0
 25 27  1  0
 25 28  1  0
 28 29  1  0
 28 30  1  0
 28 31  1  0
 31 32  1  0
 31 33  1  0
 31 34  1  0
 34 35  1  0
 34 36  1  0
 34 37  1  0
 37 38  1  0
 37 39  1  0
  2 40  1  0
 40 41  2  0
 41 42  1  0
 41 43  1  0
 43 44  1  0
 43 45  2  0
 45 46  1  0
 46 47  1  0
 47 48  1  0
 47 49  1  0
 47 50  1  0
 45 51  1  0
 51 52  1  0
 52 53  1  0
 53 54  1  0
 53 55  1  0
 53 56  1  0
 51 57  2  0
 57 58  1  0
 19  5  1  0
 37 23  1  0
 57 40  1  0
 16  7  1  0
M  END
>  <UniqueID>  (46) 
67

>  <SMILES>  (46) 
COc1ccc(/C=C/c2nc3ccccc3c(=O)n2CC2CCCCC2)cc1OC

>  <Energy>  (46) 
76.31808002395869

>  <Genealogy>  (46) 
COc1ccc(/C=C/c2nc3ccccc3c(=O)n2CC2CCCCC2)cc1OC (cis-trans isomerization)
COc1ccc(/C=C/c2nc3ccccc3c(=O)n2CC2CCCCC2)cc1OC (3D coordinates assigned)
COc1ccc(/C=C/c2nc3ccccc3c(=O)n2CC2CCCCC2)cc1OC (nonaromatic ring conformer: 76.31808002395869 kcal/mol)

>  <smiles>  (46) 
COc1ccc(/C=C/c2nc3ccccc3c(=O)n2CC2CCCCC2)cc1OC

>  <score_type>  (46) 
oracle

>  <origin>  (46) 
autodockgpu

>  <m_score__min__energy>  (46) 
-7.5199999999999996

>  <m_primary>  (46) 
energy

>  <meeko>  (46) 
{"free_energy": -7.52, "intermolecular_energy": -9.61, "internal_energy": -1.64, "cluster_size": 7, "cluster_id": 1, "rank_in_cluster": 1}

>  <energy>  (46) 
-7.05

>  <cluster_rmsd>  (46) 
1.68

>  <rmsd>  (46) 
269.35

>  <cluster>  (46) 
1

$$$$
CHYZURNRBYISSB-FYWRMAATNA-N
     RDKit          3D

 58 61  0  0  0  0  0  0  0  0999 V2000
  138.4552   73.0729  222.5333 H   0  0  0  0  0  0  0  0  0  0  0  0
  139.4860   72.8720  222.2060 C   0  0  0  0  0  0  0  0  0  0  0  0
  139.9880   71.6380  222.3390 C   0  0  0  0  0  0  0  0  0  0  0  0
  140.4586   71.1529  221.4711 H   0  0  0  0  0  0  0  0  0  0  0  0
  139.9240   70.9070  223.6350 C   0  0  0  0  0  0  0  0  0  0  0  0
  140.4520   71.5330  224.7240 N   0  0  0  0  0  0  0  0  0  0  0  0
  140.5330   70.9380  225.9290 C   0  0  0  0  0  0  0  0  0  0  0  0
  141.0560   71.6390  227.0230 C   0  0  0  0  0  0  0  0  0  0  0  0
  141.3854   72.6815  226.9022 H   0  0  0  0  0  0  0  0  0  0  0  0
  141.1590   71.0130  228.2680 C   0  0  0  0  0  0  0  0  0  0  0  0
  141.5678   71.5646  229.1275 H   0  0  0  0  0  0  0  0  0  0  0  0
  140.7430   69.6850  228.4240 C   0  0  0  0  0  0  0  0  0  0  0  0
  140.8212   69.1958  229.4061 H   0  0  0  0  0  0  0  0  0  0  0  0
  140.2290   68.9820  227.3330 C   0  0  0  0  0  0  0  0  0  0  0  0
  139.9152   67.9347  227.4542 H   0  0  0  0  0  0  0  0  0  0  0  0
  140.1110   69.6090  226.0780 C   0  0  0  0  0  0  0  0  0  0  0  0
  139.5680   68.9570  224.9630 C   0  0  0  0  0  0  0  0  0  0  0  0
  139.2000   67.7510  225.0730 O   0  0  0  0  0  0  0  0  0  0  0  0
  139.4270   69.6180  223.7620 N   0  0  0  0  0  0  0  0  0  0  0  0
  138.7100   68.9180  222.6670 C   0  0  0  0  0  0  0  0  0  0  0  0
  138.8226   69.4992  221.7399 H   0  0  0  0  0  0  0  0  0  0  0  0
  139.1465   67.9138  222.5615 H   0  0  0  0  0  0  0  0  0  0  0  0
  137.1930   68.7540  222.9770 C   0  0  0  0  0  0  0  0  0  0  0  0
  137.0577   67.7168  223.3174 H   0  0  0  0  0  0  0  0  0  0  0  0
  136.3290   68.9620  221.7000 C   0  0  0  0  0  0  0  0  0  0  0  0
  136.9851   68.8665  220.8223 H   0  0  0  0  0  0  0  0  0  0  0  0
  135.5371   68.1991  221.7311 H   0  0  0  0  0  0  0  0  0  0  0  0
  135.6190   70.3260  221.6230 C   0  0  0  0  0  0  0  0  0  0  0  0
  135.4597   70.5838  220.5656 H   0  0  0  0  0  0  0  0  0  0  0  0
  134.6636   70.2414  222.1615 H   0  0  0  0  0  0  0  0  0  0  0  0
  136.4340   71.4360  222.2830 C   0  0  0  0  0  0  0  0  0  0  0  0
  137.4032   71.5178  221.7693 H   0  0  0  0  0  0  0  0  0  0  0  0
  135.8600   72.3710  222.2033 H   0  0  0  0  0  0  0  0  0  0  0  0
  136.6860   71.1590  223.7800 C   0  0  0  0  0  0  0  0  0  0  0  0
  137.6566   71.5973  224.0555 H   0  0  0  0  0  0  0  0  0  0  0  0
  135.8492   71.6084  224.3349 H   0  0  0  0  0  0  0  0  0  0  0  0
  136.7100   69.6580  224.1390 C   0  0  0  0  0  0  0  0  0  0  0  0
  137.3854   69.5153  224.9955 H   0  0  0  0  0  0  0  0  0  0  0  0
  135.6758   69.3634  224.3708 H   0  0  0  0  0  0  0  0  0  0  0  0
  140.2840   73.9620  221.6320 C   0  0  0  0  0  0  0  0  0  0  0  0
  141.3480   73.6960  220.7610 C   0  0  0  0  0  0  0  0  0  0  0  0
  141.5950   72.6575  220.4954 H   0  0  0  0  0  0  0  0  0  0  0  0
  142.0950   74.7490  220.2300 C   0  0  0  0  0  0  0  0  0  0  0  0
  142.9114   74.5376  219.5238 H   0  0  0  0  0  0  0  0  0  0  0  0
  141.8100   76.0840  220.5930 C   0  0  0  0  0  0  0  0  0  0  0  0
  142.5590   77.1660  220.1040 O   0  0  0  0  0  0  0  0  0  0  0  0
  142.6000   77.5560  218.7350 C   0  0  0  0  0  0  0  0  0  0  0  0
  142.7148   78.6479  218.6681 H   0  0  0  0  0  0  0  0  0  0  0  0
  143.4517   77.0667  218.2397 H   0  0  0  0  0  0  0  0  0  0  0  0
  141.6652   77.2546  218.2397 H   0  0  0  0  0  0  0  0  0  0  0  0
  140.7550   76.3510  221.4800 C   0  0  0  0  0  0  0  0  0  0  0  0
  140.5330   77.6810  221.8630 O   0  0  0  0  0  0  0  0  0  0  0  0
  141.3800   78.4170  222.7470 C   0  0  0  0  0  0  0  0  0  0  0  0
  141.1130   78.1850  223.7886 H   0  0  0  0  0  0  0  0  0  0  0  0
  142.4287   78.1384  222.5666 H   0  0  0  0  0  0  0  0  0  0  0  0
  141.2505   79.4944  222.5666 H   0  0  0  0  0  0  0  0  0  0  0  0
  139.9720   75.2900  221.9700 C   0  0  0  0  0  0  0  0  0  0  0  0
  139.1109   75.5009  222.6212 H   0  0  0  0  0  0  0  0  0  0  0  0
  1  2  1  0
  2  3  2  0
  3  4  1  0
  3  5  1  0
  5  6  2  0
  6  7  1  0
  7  8  2  0
  8  9  1  0
  8 10  1  0
 10 11  1  0
 10 12  2  0
 12 13  1  0
 12 14  1  0
 14 15  1  0
 14 16  2  0
 16 17  1  0
 17 18  2  0
 17 19  1  0
 19 20  1  0
 20 21  1  0
 20 22  1  0
 20 23  1  0
 23 24  1  0
 23 25  1  0
 25 26  1  0
 25 27  1  0
 25 28  1  0
 28 29  1  0
 28 30  1  0
 28 31  1  0
 31 32  1  0
 31 33  1  0
 31 34  1  0
 34 35  1  0
 34 36  1  0
 34 37  1  0
 37 38  1  0
 37 39  1  0
  2 40  1  0
 40 41  2  0
 41 42  1  0
 41 43  1  0
 43 44  1  0
 43 45  2  0
 45 46  1  0
 46 47  1  0
 47 48  1  0
 47 49  1  0
 47 50  1  0
 45 51  1  0
 51 52  1  0
 52 53  1  0
 53 54  1  0
 53 55  1  0
 53 56  1  0
 51 57  2  0
 57 58  1  0
 19  5  1  0
 37 23  1  0
 57 40  1  0
 16  7  1  0
M  END
>  <UniqueID>  (47) 
67

>  <SMILES>  (47) 
COc1ccc(/C=C/c2nc3ccccc3c(=O)n2CC2CCCCC2)cc1OC

>  <Energy>  (47) 
76.31808002395869

>  <Genealogy>  (47) 
COc1ccc(/C=C/c2nc3ccccc3c(=O)n2CC2CCCCC2)cc1OC (cis-trans isomerization)
COc1ccc(/C=C/c2nc3ccccc3c(=O)n2CC2CCCCC2)cc1OC (3D coordinates assigned)
COc1ccc(/C=C/c2nc3ccccc3c(=O)n2CC2CCCCC2)cc1OC (nonaromatic ring conformer: 76.31808002395869 kcal/mol)

>  <smiles>  (47) 
COc1ccc(/C=C/c2nc3ccccc3c(=O)n2CC2CCCCC2)cc1OC

>  <score_type>  (47) 
oracle

>  <origin>  (47) 
autodockgpu

>  <m_score__min__energy>  (47) 
-7.5199999999999996

>  <m_primary>  (47) 
energy

>  <meeko>  (47) 
{"free_energy": -7.05, "intermolecular_energy": -9.14, "internal_energy": -1.78, "cluster_size": 5, "cluster_id": 3, "rank_in_cluster": 3}

>  <energy>  (47) 
-6.98

>  <cluster_rmsd>  (47) 
1.68

>  <rmsd>  (47) 
269.36

>  <cluster>  (47) 
1

$$$$
CHYZURNRBYISSB-FYWRMAATNA-N
     RDKit          3D

 58 61  0  0  0  0  0  0  0  0999 V2000
  138.7544   73.3093  222.8207 H   0  0  0  0  0  0  0  0  0  0  0  0
  139.6750   72.9520  222.3360 C   0  0  0  0  0  0  0  0  0  0  0  0
  139.9850   71.6510  222.3940 C   0  0  0  0  0  0  0  0  0  0  0  0
  140.2966   71.1318  221.4757 H   0  0  0  0  0  0  0  0  0  0  0  0
  139.9180   70.8900  223.6720 C   0  0  0  0  0  0  0  0  0  0  0  0
  140.4360   71.4950  224.7780 N   0  0  0  0  0  0  0  0  0  0  0  0
  140.5130   70.8740  225.9700 C   0  0  0  0  0  0  0  0  0  0  0  0
  141.0260   71.5520  227.0820 C   0  0  0  0  0  0  0  0  0  0  0  0
  141.3512   72.5985  226.9864 H   0  0  0  0  0  0  0  0  0  0  0  0
  141.1250   70.8990  228.3140 C   0  0  0  0  0  0  0  0  0  0  0  0
  141.5256   71.4336  229.1879 H   0  0  0  0  0  0  0  0  0  0  0  0
  140.7150   69.5650  228.4380 C   0  0  0  0  0  0  0  0  0  0  0  0
  140.7896   69.0546  229.4096 H   0  0  0  0  0  0  0  0  0  0  0  0
  140.2120   68.8840  227.3290 C   0  0  0  0  0  0  0  0  0  0  0  0
  139.9035   67.8325  227.4247 H   0  0  0  0  0  0  0  0  0  0  0  0
  140.0980   69.5390  226.0870 C   0  0  0  0  0  0  0  0  0  0  0  0
  139.5640   68.9090  224.9540 C   0  0  0  0  0  0  0  0  0  0  0  0
  139.2030   67.6990  225.0350 O   0  0  0  0  0  0  0  0  0  0  0  0
  139.4270   69.5960  223.7680 N   0  0  0  0  0  0  0  0  0  0  0  0
  138.7200   68.9170  222.6530 C   0  0  0  0  0  0  0  0  0  0  0  0
  138.8591   69.5047  221.7336 H   0  0  0  0  0  0  0  0  0  0  0  0
  139.1429   67.9071  222.5463 H   0  0  0  0  0  0  0  0  0  0  0  0
  137.1950   68.7740  222.9330 C   0  0  0  0  0  0  0  0  0  0  0  0
  137.0323   67.7283  223.2330 H   0  0  0  0  0  0  0  0  0  0  0  0
  136.3570   69.0460  221.6510 C   0  0  0  0  0  0  0  0  0  0  0  0
  137.0255   68.9692  220.7808 H   0  0  0  0  0  0  0  0  0  0  0  0
  135.5498   68.2988  221.6406 H   0  0  0  0  0  0  0  0  0  0  0  0
  135.6760   70.4270  221.6140 C   0  0  0  0  0  0  0  0  0  0  0  0
  135.5392   70.7269  220.5646 H   0  0  0  0  0  0  0  0  0  0  0  0
  134.7105   70.3425  222.1342 H   0  0  0  0  0  0  0  0  0  0  0  0
  136.5020   71.4940  222.3270 C   0  0  0  0  0  0  0  0  0  0  0  0
  137.4810   71.5744  221.8318 H   0  0  0  0  0  0  0  0  0  0  0  0
  135.9484   72.4430  222.2732 H   0  0  0  0  0  0  0  0  0  0  0  0
  136.7240   71.1570  223.8170 C   0  0  0  0  0  0  0  0  0  0  0  0
  137.6985   71.5647  224.1237 H   0  0  0  0  0  0  0  0  0  0  0  0
  135.8876   71.6029  224.3752 H   0  0  0  0  0  0  0  0  0  0  0  0
  136.7120   69.6440  224.1200 C   0  0  0  0  0  0  0  0  0  0  0  0
  137.3706   69.4557  224.9807 H   0  0  0  0  0  0  0  0  0  0  0  0
  135.6685   69.3626  224.3248 H   0  0  0  0  0  0  0  0  0  0  0  0
  140.5400   73.9110  221.6380 C   0  0  0  0  0  0  0  0  0  0  0  0
  141.6690   73.4830  220.9300 C   0  0  0  0  0  0  0  0  0  0  0  0
  141.9185   72.4125  220.8885 H   0  0  0  0  0  0  0  0  0  0  0  0
  142.4780   74.4130  220.2770 C   0  0  0  0  0  0  0  0  0  0  0  0
  143.3478   74.0690  219.6980 H   0  0  0  0  0  0  0  0  0  0  0  0
  142.1880   75.7940  220.3540 C   0  0  0  0  0  0  0  0  0  0  0  0
  142.9970   76.7620  219.7370 O   0  0  0  0  0  0  0  0  0  0  0  0
  142.6030   77.5250  218.6010 C   0  0  0  0  0  0  0  0  0  0  0  0
  142.1220   78.4566  218.9339 H   0  0  0  0  0  0  0  0  0  0  0  0
  143.4894   77.7660  217.9958 H   0  0  0  0  0  0  0  0  0  0  0  0
  141.8933   76.9418  217.9958 H   0  0  0  0  0  0  0  0  0  0  0  0
  141.0670   76.2270  221.0790 C   0  0  0  0  0  0  0  0  0  0  0  0
  140.8370   77.6060  221.1820 O   0  0  0  0  0  0  0  0  0  0  0  0
  141.4210   78.4470  222.1780 C   0  0  0  0  0  0  0  0  0  0  0  0
  141.1585   78.0689  223.1770 H   0  0  0  0  0  0  0  0  0  0  0  0
  142.5149   78.4476  222.0620 H   0  0  0  0  0  0  0  0  0  0  0  0
  141.0394   79.4722  222.0620 H   0  0  0  0  0  0  0  0  0  0  0  0
  140.2250   75.2810  221.6910 C   0  0  0  0  0  0  0  0  0  0  0  0
  139.3161   75.6140  222.2134 H   0  0  0  0  0  0  0  0  0  0  0  0
  1  2  1  0
  2  3  2  0
  3  4  1  0
  3  5  1  0
  5  6  2  0
  6  7  1  0
  7  8  2  0
  8  9  1  0
  8 10  1  0
 10 11  1  0
 10 12  2  0
 12 13  1  0
 12 14  1  0
 14 15  1  0
 14 16  2  0
 16 17  1  0
 17 18  2  0
 17 19  1  0
 19 20  1  0
 20 21  1  0
 20 22  1  0
 20 23  1  0
 23 24  1  0
 23 25  1  0
 25 26  1  0
 25 27  1  0
 25 28  1  0
 28 29  1  0
 28 30  1  0
 28 31  1  0
 31 32  1  0
 31 33  1  0
 31 34  1  0
 34 35  1  0
 34 36  1  0
 34 37  1  0
 37 38  1  0
 37 39  1  0
  2 40  1  0
 40 41  2  0
 41 42  1  0
 41 43  1  0
 43 44  1  0
 43 45  2  0
 45 46  1  0
 46 47  1  0
 47 48  1  0
 47 49  1  0
 47 50  1  0
 45 51  1  0
 51 52  1  0
 52 53  1  0
 53 54  1  0
 53 55  1  0
 53 56  1  0
 51 57  2  0
 57 58  1  0
 19  5  1  0
 37 23  1  0
 57 40  1  0
 16  7  1  0
M  END
>  <UniqueID>  (48) 
67

>  <SMILES>  (48) 
COc1ccc(/C=C/c2nc3ccccc3c(=O)n2CC2CCCCC2)cc1OC

>  <Energy>  (48) 
76.31808002395869

>  <Genealogy>  (48) 
COc1ccc(/C=C/c2nc3ccccc3c(=O)n2CC2CCCCC2)cc1OC (cis-trans isomerization)
COc1ccc(/C=C/c2nc3ccccc3c(=O)n2CC2CCCCC2)cc1OC (3D coordinates assigned)
COc1ccc(/C=C/c2nc3ccccc3c(=O)n2CC2CCCCC2)cc1OC (nonaromatic ring conformer: 76.31808002395869 kcal/mol)

>  <smiles>  (48) 
COc1ccc(/C=C/c2nc3ccccc3c(=O)n2CC2CCCCC2)cc1OC

>  <score_type>  (48) 
oracle

>  <origin>  (48) 
autodockgpu

>  <m_score__min__energy>  (48) 
-7.5199999999999996

>  <m_primary>  (48) 
energy

>  <meeko>  (48) 
{"free_energy": -7.06, "intermolecular_energy": -9.15, "internal_energy": -1.77, "cluster_size": 5, "cluster_id": 3, "rank_in_cluster": 2}

>  <energy>  (48) 
-7.46

>  <cluster_rmsd>  (48) 
0.0

>  <rmsd>  (48) 
270.02

>  <cluster>  (48) 
2

$$$$
CHYZURNRBYISSB-FYWRMAATNA-N
     RDKit          3D

 58 61  0  0  0  0  0  0  0  0999 V2000
  136.4190   71.8337  221.8665 H   0  0  0  0  0  0  0  0  0  0  0  0
  136.8130   71.6620  222.8790 C   0  0  0  0  0  0  0  0  0  0  0  0
  138.1250   71.4560  223.0470 C   0  0  0  0  0  0  0  0  0  0  0  0
  138.8308   71.8587  222.3056 H   0  0  0  0  0  0  0  0  0  0  0  0
  138.6520   70.6950  224.2130 C   0  0  0  0  0  0  0  0  0  0  0  0
  139.3300   71.4050  225.1570 N   0  0  0  0  0  0  0  0  0  0  0  0
  139.9290   70.8170  226.2100 C   0  0  0  0  0  0  0  0  0  0  0  0
  140.5870   71.5970  227.1680 C   0  0  0  0  0  0  0  0  0  0  0  0
  140.6013   72.6926  227.0702 H   0  0  0  0  0  0  0  0  0  0  0  0
  141.2260   70.9830  228.2490 C   0  0  0  0  0  0  0  0  0  0  0  0
  141.7411   71.5968  229.0026 H   0  0  0  0  0  0  0  0  0  0  0  0
  141.2120   69.5880  228.3750 C   0  0  0  0  0  0  0  0  0  0  0  0
  141.7120   69.1074  229.2289 H   0  0  0  0  0  0  0  0  0  0  0  0
  140.5630   68.8080  227.4160 C   0  0  0  0  0  0  0  0  0  0  0  0
  140.5635   67.7120  227.5094 H   0  0  0  0  0  0  0  0  0  0  0  0
  139.9080   69.4190  226.3300 C   0  0  0  0  0  0  0  0  0  0  0  0
  139.2120   68.6810  225.3630 C   0  0  0  0  0  0  0  0  0  0  0  0
  139.1990   67.4180  225.4440 O   0  0  0  0  0  0  0  0  0  0  0  0
  138.5450   69.3180  224.3390 N   0  0  0  0  0  0  0  0  0  0  0  0
  137.7080   68.4870  223.4380 C   0  0  0  0  0  0  0  0  0  0  0  0
  137.1177   67.7866  224.0472 H   0  0  0  0  0  0  0  0  0  0  0  0
  137.0560   69.1606  222.8625 H   0  0  0  0  0  0  0  0  0  0  0  0
  138.5690   67.6730  222.4290 C   0  0  0  0  0  0  0  0  0  0  0  0
  139.3044   67.1169  223.0289 H   0  0  0  0  0  0  0  0  0  0  0  0
  139.3430   68.6120  221.4600 C   0  0  0  0  0  0  0  0  0  0  0  0
  139.3564   69.6210  221.8978 H   0  0  0  0  0  0  0  0  0  0  0  0
  140.3474   68.1792  221.3425 H   0  0  0  0  0  0  0  0  0  0  0  0
  138.7420   68.7100  220.0460 C   0  0  0  0  0  0  0  0  0  0  0  0
  139.0093   69.6855  219.6136 H   0  0  0  0  0  0  0  0  0  0  0  0
  139.1497   67.8830  219.4461 H   0  0  0  0  0  0  0  0  0  0  0  0
  137.2210   68.5770  220.0590 C   0  0  0  0  0  0  0  0  0  0  0  0
  136.7995   69.3848  220.6753 H   0  0  0  0  0  0  0  0  0  0  0  0
  136.8662   68.6415  219.0198 H   0  0  0  0  0  0  0  0  0  0  0  0
  136.7620   67.2200  220.6350 C   0  0  0  0  0  0  0  0  0  0  0  0
  135.7937   67.3652  221.1364 H   0  0  0  0  0  0  0  0  0  0  0  0
  136.6963   66.5181  219.7906 H   0  0  0  0  0  0  0  0  0  0  0  0
  137.7510   66.6110  221.6520 C   0  0  0  0  0  0  0  0  0  0  0  0
  137.1805   66.0118  222.3769 H   0  0  0  0  0  0  0  0  0  0  0  0
  138.4686   66.0027  221.0818 H   0  0  0  0  0  0  0  0  0  0  0  0
  135.8900   71.6630  224.0210 C   0  0  0  0  0  0  0  0  0  0  0  0
  135.4350   70.4640  224.5830 C   0  0  0  0  0  0  0  0  0  0  0  0
  135.7708   69.5012  224.1704 H   0  0  0  0  0  0  0  0  0  0  0  0
  134.5560   70.4900  225.6660 C   0  0  0  0  0  0  0  0  0  0  0  0
  134.2248   69.5459  226.1231 H   0  0  0  0  0  0  0  0  0  0  0  0
  134.0880   71.7200  226.1800 C   0  0  0  0  0  0  0  0  0  0  0  0
  133.1780   71.7850  227.2470 O   0  0  0  0  0  0  0  0  0  0  0  0
  131.8610   72.3170  227.1430 C   0  0  0  0  0  0  0  0  0  0  0  0
  131.4517   72.4823  228.1506 H   0  0  0  0  0  0  0  0  0  0  0  0
  131.8934   73.2726  226.5991 H   0  0  0  0  0  0  0  0  0  0  0  0
  131.2206   71.6070  226.5991 H   0  0  0  0  0  0  0  0  0  0  0  0
  134.5280   72.9230  225.6060 C   0  0  0  0  0  0  0  0  0  0  0  0
  134.0040   74.1240  226.1030 O   0  0  0  0  0  0  0  0  0  0  0  0
  134.4580   75.4220  225.7150 C   0  0  0  0  0  0  0  0  0  0  0  0
  134.6675   76.0209  226.6135 H   0  0  0  0  0  0  0  0  0  0  0  0
  135.3758   75.3257  225.1164 H   0  0  0  0  0  0  0  0  0  0  0  0
  133.6802   75.9187  225.1164 H   0  0  0  0  0  0  0  0  0  0  0  0
  135.4560   72.8920  224.5490 C   0  0  0  0  0  0  0  0  0  0  0  0
  135.8440   73.8337  224.1335 H   0  0  0  0  0  0  0  0  0  0  0  0
  1  2  1  0
  2  3  2  0
  3  4  1  0
  3  5  1  0
  5  6  2  0
  6  7  1  0
  7  8  2  0
  8  9  1  0
  8 10  1  0
 10 11  1  0
 10 12  2  0
 12 13  1  0
 12 14  1  0
 14 15  1  0
 14 16  2  0
 16 17  1  0
 17 18  2  0
 17 19  1  0
 19 20  1  0
 20 21  1  0
 20 22  1  0
 20 23  1  0
 23 24  1  0
 23 25  1  0
 25 26  1  0
 25 27  1  0
 25 28  1  0
 28 29  1  0
 28 30  1  0
 28 31  1  0
 31 32  1  0
 31 33  1  0
 31 34  1  0
 34 35  1  0
 34 36  1  0
 34 37  1  0
 37 38  1  0
 37 39  1  0
  2 40  1  0
 40 41  2  0
 41 42  1  0
 41 43  1  0
 43 44  1  0
 43 45  2  0
 45 46  1  0
 46 47  1  0
 47 48  1  0
 47 49  1  0
 47 50  1  0
 45 51  1  0
 51 52  1  0
 52 53  1  0
 53 54  1  0
 53 55  1  0
 53 56  1  0
 51 57  2  0
 57 58  1  0
 19  5  1  0
 37 23  1  0
 57 40  1  0
 16  7  1  0
M  END
>  <UniqueID>  (49) 
67

>  <SMILES>  (49) 
COc1ccc(/C=C/c2nc3ccccc3c(=O)n2CC2CCCCC2)cc1OC

>  <Energy>  (49) 
76.31808002395869

>  <Genealogy>  (49) 
COc1ccc(/C=C/c2nc3ccccc3c(=O)n2CC2CCCCC2)cc1OC (cis-trans isomerization)
COc1ccc(/C=C/c2nc3ccccc3c(=O)n2CC2CCCCC2)cc1OC (3D coordinates assigned)
COc1ccc(/C=C/c2nc3ccccc3c(=O)n2CC2CCCCC2)cc1OC (nonaromatic ring conformer: 76.31808002395869 kcal/mol)

>  <smiles>  (49) 
COc1ccc(/C=C/c2nc3ccccc3c(=O)n2CC2CCCCC2)cc1OC

>  <score_type>  (49) 
oracle

>  <origin>  (49) 
autodockgpu

>  <m_score__min__energy>  (49) 
-7.5199999999999996

>  <m_primary>  (49) 
energy

>  <meeko>  (49) 
{"free_energy": -6.99, "intermolecular_energy": -9.08, "internal_energy": -2.0, "cluster_size": 3, "cluster_id": 5, "rank_in_cluster": 2}

>  <energy>  (49) 
-7.46

>  <cluster_rmsd>  (49) 
0.46

>  <rmsd>  (49) 
270.03

>  <cluster>  (49) 
2

$$$$
CHYZURNRBYISSB-FYWRMAATNA-N
     RDKit          3D

 58 61  0  0  0  0  0  0  0  0999 V2000
  140.0738   70.5733  220.6148 H   0  0  0  0  0  0  0  0  0  0  0  0
  140.6230   71.3310  221.1930 C   0  0  0  0  0  0  0  0  0  0  0  0
  140.0540   71.8660  222.2800 C   0  0  0  0  0  0  0  0  0  0  0  0
  139.6348   72.8814  222.2221 H   0  0  0  0  0  0  0  0  0  0  0  0
  139.9750   71.1190  223.5660 C   0  0  0  0  0  0  0  0  0  0  0  0
  140.4860   71.7340  224.6690 N   0  0  0  0  0  0  0  0  0  0  0  0
  140.5520   71.1250  225.8680 C   0  0  0  0  0  0  0  0  0  0  0  0
  141.0580   71.8150  226.9770 C   0  0  0  0  0  0  0  0  0  0  0  0
  141.3857   72.8599  226.8730 H   0  0  0  0  0  0  0  0  0  0  0  0
  141.1460   71.1740  228.2160 C   0  0  0  0  0  0  0  0  0  0  0  0
  141.5415   71.7165  229.0874 H   0  0  0  0  0  0  0  0  0  0  0  0
  140.7320   69.8430  228.3510 C   0  0  0  0  0  0  0  0  0  0  0  0
  140.7977   69.3430  229.3286 H   0  0  0  0  0  0  0  0  0  0  0  0
  140.2360   69.1510  227.2450 C   0  0  0  0  0  0  0  0  0  0  0  0
  139.9247   68.1011  227.3493 H   0  0  0  0  0  0  0  0  0  0  0  0
  140.1330   69.7930  225.9960 C   0  0  0  0  0  0  0  0  0  0  0  0
  139.6070   69.1530  224.8660 C   0  0  0  0  0  0  0  0  0  0  0  0
  139.2430   67.9440  224.9560 O   0  0  0  0  0  0  0  0  0  0  0  0
  139.4810   69.8270  223.6710 N   0  0  0  0  0  0  0  0  0  0  0  0
  138.7810   69.1380  222.5580 C   0  0  0  0  0  0  0  0  0  0  0  0
  138.9194   69.7216  221.6359 H   0  0  0  0  0  0  0  0  0  0  0  0
  139.2100   68.1300  222.4589 H   0  0  0  0  0  0  0  0  0  0  0  0
  137.2570   68.9870  222.8330 C   0  0  0  0  0  0  0  0  0  0  0  0
  137.1075   67.9550  223.1832 H   0  0  0  0  0  0  0  0  0  0  0  0
  136.4250   69.1830  221.5340 C   0  0  0  0  0  0  0  0  0  0  0  0
  137.1011   69.0716  220.6735 H   0  0  0  0  0  0  0  0  0  0  0  0
  135.6277   68.4255  221.5573 H   0  0  0  0  0  0  0  0  0  0  0  0
  135.7250   70.5500  221.4210 C   0  0  0  0  0  0  0  0  0  0  0  0
  135.5917   70.7936  220.3566 H   0  0  0  0  0  0  0  0  0  0  0  0
  134.7566   70.4789  221.9379 H   0  0  0  0  0  0  0  0  0  0  0  0
  136.5320   71.6640  222.0840 C   0  0  0  0  0  0  0  0  0  0  0  0
  137.5138   71.7319  221.5925 H   0  0  0  0  0  0  0  0  0  0  0  0
  135.9673   72.6019  221.9771 H   0  0  0  0  0  0  0  0  0  0  0  0
  136.7460   71.4060  223.5910 C   0  0  0  0  0  0  0  0  0  0  0  0
  137.7123   71.8423  223.8840 H   0  0  0  0  0  0  0  0  0  0  0  0
  135.8988   71.8678  224.1191 H   0  0  0  0  0  0  0  0  0  0  0  0
  136.7520   69.9100  223.9710 C   0  0  0  0  0  0  0  0  0  0  0  0
  137.4059   69.7751  224.8452 H   0  0  0  0  0  0  0  0  0  0  0  0
  135.7108   69.6248  224.1820 H   0  0  0  0  0  0  0  0  0  0  0  0
  141.9650   71.7350  220.7570 C   0  0  0  0  0  0  0  0  0  0  0  0
  142.9080   70.7850  220.3460 C   0  0  0  0  0  0  0  0  0  0  0  0
  142.6474   69.7163  220.3441 H   0  0  0  0  0  0  0  0  0  0  0  0
  144.1780   71.1940  219.9390 C   0  0  0  0  0  0  0  0  0  0  0  0
  144.9057   70.4469  219.5895 H   0  0  0  0  0  0  0  0  0  0  0  0
  144.5370   72.5590  219.9720 C   0  0  0  0  0  0  0  0  0  0  0  0
  145.8160   73.0050  219.6000 O   0  0  0  0  0  0  0  0  0  0  0  0
  146.6770   73.7590  220.4470 C   0  0  0  0  0  0  0  0  0  0  0  0
  146.4346   73.5467  221.4988 H   0  0  0  0  0  0  0  0  0  0  0  0
  147.7225   73.4807  220.2483 H   0  0  0  0  0  0  0  0  0  0  0  0
  146.5391   74.8321  220.2483 H   0  0  0  0  0  0  0  0  0  0  0  0
  143.5990   73.5120  220.4000 C   0  0  0  0  0  0  0  0  0  0  0  0
  144.0030   74.8530  220.4740 O   0  0  0  0  0  0  0  0  0  0  0  0
  143.4340   75.9090  219.6980 C   0  0  0  0  0  0  0  0  0  0  0  0
  143.0208   76.6759  220.3696 H   0  0  0  0  0  0  0  0  0  0  0  0
  144.2122   76.3581  219.0635 H   0  0  0  0  0  0  0  0  0  0  0  0
  142.6309   75.5060  219.0635 H   0  0  0  0  0  0  0  0  0  0  0  0
  142.3030   73.1010  220.7590 C   0  0  0  0  0  0  0  0  0  0  0  0
  141.5498   73.8508  221.0427 H   0  0  0  0  0  0  0  0  0  0  0  0
  1  2  1  0
  2  3  2  0
  3  4  1  0
  3  5  1  0
  5  6  2  0
  6  7  1  0
  7  8  2  0
  8  9  1  0
  8 10  1  0
 10 11  1  0
 10 12  2  0
 12 13  1  0
 12 14  1  0
 14 15  1  0
 14 16  2  0
 16 17  1  0
 17 18  2  0
 17 19  1  0
 19 20  1  0
 20 21  1  0
 20 22  1  0
 20 23  1  0
 23 24  1  0
 23 25  1  0
 25 26  1  0
 25 27  1  0
 25 28  1  0
 28 29  1  0
 28 30  1  0
 28 31  1  0
 31 32  1  0
 31 33  1  0
 31 34  1  0
 34 35  1  0
 34 36  1  0
 34 37  1  0
 37 38  1  0
 37 39  1  0
  2 40  1  0
 40 41  2  0
 41 42  1  0
 41 43  1  0
 43 44  1  0
 43 45  2  0
 45 46  1  0
 46 47  1  0
 47 48  1  0
 47 49  1  0
 47 50  1  0
 45 51  1  0
 51 52  1  0
 52 53  1  0
 53 54  1  0
 53 55  1  0
 53 56  1  0
 51 57  2  0
 57 58  1  0
 19  5  1  0
 37 23  1  0
 57 40  1  0
 16  7  1  0
M  END
>  <UniqueID>  (50) 
67

>  <SMILES>  (50) 
COc1ccc(/C=C/c2nc3ccccc3c(=O)n2CC2CCCCC2)cc1OC

>  <Energy>  (50) 
76.31808002395869

>  <Genealogy>  (50) 
COc1ccc(/C=C/c2nc3ccccc3c(=O)n2CC2CCCCC2)cc1OC (cis-trans isomerization)
COc1ccc(/C=C/c2nc3ccccc3c(=O)n2CC2CCCCC2)cc1OC (3D coordinates assigned)
COc1ccc(/C=C/c2nc3ccccc3c(=O)n2CC2CCCCC2)cc1OC (nonaromatic ring conformer: 76.31808002395869 kcal/mol)

>  <smiles>  (50) 
COc1ccc(/C=C/c2nc3ccccc3c(=O)n2CC2CCCCC2)cc1OC

>  <score_type>  (50) 
oracle

>  <origin>  (50) 
autodockgpu

>  <m_score__min__energy>  (50) 
-7.5199999999999996

>  <m_primary>  (50) 
energy

>  <meeko>  (50) 
{"free_energy": -7.13, "intermolecular_energy": -9.21, "internal_energy": -1.74, "cluster_size": 7, "cluster_id": 1, "rank_in_cluster": 5}

>  <energy>  (50) 
-7.45

>  <cluster_rmsd>  (50) 
0.5

>  <rmsd>  (50) 
270.05

>  <cluster>  (50) 
2

$$$$
CHYZURNRBYISSB-FYWRMAATNA-N
     RDKit          3D

 58 61  0  0  0  0  0  0  0  0999 V2000
  140.5391   73.6188  222.4095 H   0  0  0  0  0  0  0  0  0  0  0  0
  140.9080   72.6900  221.9500 C   0  0  0  0  0  0  0  0  0  0  0  0
  140.2200   71.5540  222.1210 C   0  0  0  0  0  0  0  0  0  0  0  0
  139.7477   71.0762  221.2500 H   0  0  0  0  0  0  0  0  0  0  0  0
  140.0790   70.9220  223.4620 C   0  0  0  0  0  0  0  0  0  0  0  0
  140.5840   71.6100  224.5240 N   0  0  0  0  0  0  0  0  0  0  0  0
  140.5960   71.1030  225.7720 C   0  0  0  0  0  0  0  0  0  0  0  0
  141.0990   71.8650  226.8330 C   0  0  0  0  0  0  0  0  0  0  0  0
  141.4690   72.8848  226.6510 H   0  0  0  0  0  0  0  0  0  0  0  0
  141.1310   71.3300  228.1230 C   0  0  0  0  0  0  0  0  0  0  0  0
  141.5254   71.9301  228.9563 H   0  0  0  0  0  0  0  0  0  0  0  0
  140.6620   70.0310  228.3580 C   0  0  0  0  0  0  0  0  0  0  0  0
  140.6828   69.6139  229.3756 H   0  0  0  0  0  0  0  0  0  0  0  0
  140.1680   69.2660  227.2990 C   0  0  0  0  0  0  0  0  0  0  0  0
  139.8129   68.2411  227.4821 H   0  0  0  0  0  0  0  0  0  0  0  0
  140.1230   69.8020  225.9980 C   0  0  0  0  0  0  0  0  0  0  0  0
  139.6020   69.0880  224.9110 C   0  0  0  0  0  0  0  0  0  0  0  0
  139.1890   67.9060  225.0920 O   0  0  0  0  0  0  0  0  0  0  0  0
  139.5320   69.6630  223.6600 N   0  0  0  0  0  0  0  0  0  0  0  0
  138.8350   68.9080  222.5900 C   0  0  0  0  0  0  0  0  0  0  0  0
  139.0239   69.4024  221.6257 H   0  0  0  0  0  0  0  0  0  0  0  0
  139.2232   67.8788  222.5920 H   0  0  0  0  0  0  0  0  0  0  0  0
  137.2990   68.8430  222.8290 C   0  0  0  0  0  0  0  0  0  0  0  0
  137.0869   67.8290  223.1988 H   0  0  0  0  0  0  0  0  0  0  0  0
  136.5110   69.0510  221.5040 C   0  0  0  0  0  0  0  0  0  0  0  0
  137.2017   68.8846  220.6642 H   0  0  0  0  0  0  0  0  0  0  0  0
  135.6750   68.3364  221.5227 H   0  0  0  0  0  0  0  0  0  0  0  0
  135.8870   70.4490  221.3430 C   0  0  0  0  0  0  0  0  0  0  0  0
  135.7941   70.6746  220.2704 H   0  0  0  0  0  0  0  0  0  0  0  0
  134.9035   70.4397  221.8355 H   0  0  0  0  0  0  0  0  0  0  0  0
  136.7330   71.5350  222.0030 C   0  0  0  0  0  0  0  0  0  0  0  0
  137.7287   71.5419  221.5356 H   0  0  0  0  0  0  0  0  0  0  0  0
  136.2190   72.4972  221.8619 H   0  0  0  0  0  0  0  0  0  0  0  0
  136.8970   71.3020  223.5200 C   0  0  0  0  0  0  0  0  0  0  0  0
  137.8777   71.6941  223.8276 H   0  0  0  0  0  0  0  0  0  0  0  0
  136.0633   71.8199  224.0168 H   0  0  0  0  0  0  0  0  0  0  0  0
  136.8150   69.8170  223.9320 C   0  0  0  0  0  0  0  0  0  0  0  0
  137.4386   69.6686  224.8259 H   0  0  0  0  0  0  0  0  0  0  0  0
  135.7551   69.5914  224.1211 H   0  0  0  0  0  0  0  0  0  0  0  0
  142.1450   72.7190  221.1610 C   0  0  0  0  0  0  0  0  0  0  0  0
  142.6970   73.9320  220.7280 C   0  0  0  0  0  0  0  0  0  0  0  0
  142.2037   74.8821  220.9811 H   0  0  0  0  0  0  0  0  0  0  0  0
  143.8720   73.9350  219.9760 C   0  0  0  0  0  0  0  0  0  0  0  0
  144.3166   74.8908  219.6618 H   0  0  0  0  0  0  0  0  0  0  0  0
  144.4950   72.7200  219.6150 C   0  0  0  0  0  0  0  0  0  0  0  0
  145.6600   72.6820  218.8330 O   0  0  0  0  0  0  0  0  0  0  0  0
  145.7080   73.0300  217.4520 C   0  0  0  0  0  0  0  0  0  0  0  0
  145.8576   74.1152  217.3523 H   0  0  0  0  0  0  0  0  0  0  0  0
  146.5414   72.4990  216.9688 H   0  0  0  0  0  0  0  0  0  0  0  0
  144.7620   72.7444  216.9688 H   0  0  0  0  0  0  0  0  0  0  0  0
  143.9340   71.5020  220.0330 C   0  0  0  0  0  0  0  0  0  0  0  0
  144.5450   70.3130  219.6120 O   0  0  0  0  0  0  0  0  0  0  0  0
  143.8500   69.0830  219.3970 C   0  0  0  0  0  0  0  0  0  0  0  0
  143.5949   68.6316  220.3671 H   0  0  0  0  0  0  0  0  0  0  0  0
  142.9281   69.2772  218.8292 H   0  0  0  0  0  0  0  0  0  0  0  0
  144.4920   68.3935  218.8292 H   0  0  0  0  0  0  0  0  0  0  0  0
  142.7790   71.5070  220.8350 C   0  0  0  0  0  0  0  0  0  0  0  0
  142.3691   70.5574  221.2095 H   0  0  0  0  0  0  0  0  0  0  0  0
  1  2  1  0
  2  3  2  0
  3  4  1  0
  3  5  1  0
  5  6  2  0
  6  7  1  0
  7  8  2  0
  8  9  1  0
  8 10  1  0
 10 11  1  0
 10 12  2  0
 12 13  1  0
 12 14  1  0
 14 15  1  0
 14 16  2  0
 16 17  1  0
 17 18  2  0
 17 19  1  0
 19 20  1  0
 20 21  1  0
 20 22  1  0
 20 23  1  0
 23 24  1  0
 23 25  1  0
 25 26  1  0
 25 27  1  0
 25 28  1  0
 28 29  1  0
 28 30  1  0
 28 31  1  0
 31 32  1  0
 31 33  1  0
 31 34  1  0
 34 35  1  0
 34 36  1  0
 34 37  1  0
 37 38  1  0
 37 39  1  0
  2 40  1  0
 40 41  2  0
 41 42  1  0
 41 43  1  0
 43 44  1  0
 43 45  2  0
 45 46  1  0
 46 47  1  0
 47 48  1  0
 47 49  1  0
 47 50  1  0
 45 51  1  0
 51 52  1  0
 52 53  1  0
 53 54  1  0
 53 55  1  0
 53 56  1  0
 51 57  2  0
 57 58  1  0
 19  5  1  0
 37 23  1  0
 57 40  1  0
 16  7  1  0
M  END
>  <UniqueID>  (51) 
67

>  <SMILES>  (51) 
COc1ccc(/C=C/c2nc3ccccc3c(=O)n2CC2CCCCC2)cc1OC

>  <Energy>  (51) 
76.31808002395869

>  <Genealogy>  (51) 
COc1ccc(/C=C/c2nc3ccccc3c(=O)n2CC2CCCCC2)cc1OC (cis-trans isomerization)
COc1ccc(/C=C/c2nc3ccccc3c(=O)n2CC2CCCCC2)cc1OC (3D coordinates assigned)
COc1ccc(/C=C/c2nc3ccccc3c(=O)n2CC2CCCCC2)cc1OC (nonaromatic ring conformer: 76.31808002395869 kcal/mol)

>  <smiles>  (51) 
COc1ccc(/C=C/c2nc3ccccc3c(=O)n2CC2CCCCC2)cc1OC

>  <score_type>  (51) 
oracle

>  <origin>  (51) 
autodockgpu

>  <m_score__min__energy>  (51) 
-7.5199999999999996

>  <m_primary>  (51) 
energy

>  <meeko>  (51) 
{"free_energy": -7.38, "intermolecular_energy": -9.47, "internal_energy": -1.69, "cluster_size": 7, "cluster_id": 1, "rank_in_cluster": 3}

>  <energy>  (51) 
-7.09

>  <cluster_rmsd>  (51) 
0.0

>  <rmsd>  (51) 
269.77

>  <cluster>  (51) 
3

$$$$
CHYZURNRBYISSB-FYWRMAATNA-N
     RDKit          3D

 58 61  0  0  0  0  0  0  0  0999 V2000
  136.6590   71.5030  221.6344 H   0  0  0  0  0  0  0  0  0  0  0  0
  137.0450   71.5990  222.6600 C   0  0  0  0  0  0  0  0  0  0  0  0
  138.3480   71.3970  222.8930 C   0  0  0  0  0  0  0  0  0  0  0  0
  139.0881   71.7885  222.1795 H   0  0  0  0  0  0  0  0  0  0  0  0
  138.8190   70.6550  224.0950 C   0  0  0  0  0  0  0  0  0  0  0  0
  139.4680   71.3770  225.0510 N   0  0  0  0  0  0  0  0  0  0  0  0
  140.0170   70.8030  226.1390 C   0  0  0  0  0  0  0  0  0  0  0  0
  140.6460   71.5960  227.1070 C   0  0  0  0  0  0  0  0  0  0  0  0
  140.6769   72.6891  226.9877 H   0  0  0  0  0  0  0  0  0  0  0  0
  141.2340   70.9980  228.2240 C   0  0  0  0  0  0  0  0  0  0  0  0
  141.7256   71.6215  228.9852 H   0  0  0  0  0  0  0  0  0  0  0  0
  141.1990   69.6060  228.3770 C   0  0  0  0  0  0  0  0  0  0  0  0
  141.6592   69.1378  229.2597 H   0  0  0  0  0  0  0  0  0  0  0  0
  140.5800   68.8130  227.4090 C   0  0  0  0  0  0  0  0  0  0  0  0
  140.5643   67.7192  227.5243 H   0  0  0  0  0  0  0  0  0  0  0  0
  139.9760   69.4090  226.2860 C   0  0  0  0  0  0  0  0  0  0  0  0
  139.3110   68.6590  225.3070 C   0  0  0  0  0  0  0  0  0  0  0  0
  139.2810   67.3980  225.4110 O   0  0  0  0  0  0  0  0  0  0  0  0
  138.6920   69.2820  224.2440 N   0  0  0  0  0  0  0  0  0  0  0  0
  137.8820   68.4420  223.3270 C   0  0  0  0  0  0  0  0  0  0  0  0
  137.2294   67.7897  223.9259 H   0  0  0  0  0  0  0  0  0  0  0  0
  137.2922   69.1118  222.6839 H   0  0  0  0  0  0  0  0  0  0  0  0
  138.7740   67.5550  222.4090 C   0  0  0  0  0  0  0  0  0  0  0  0
  139.6258   67.2311  223.0250 H   0  0  0  0  0  0  0  0  0  0  0  0
  139.3290   68.3670  221.2040 C   0  0  0  0  0  0  0  0  0  0  0  0
  139.2291   69.4376  221.4361 H   0  0  0  0  0  0  0  0  0  0  0  0
  140.3741   68.0515  221.0692 H   0  0  0  0  0  0  0  0  0  0  0  0
  138.6140   68.0960  219.8670 C   0  0  0  0  0  0  0  0  0  0  0  0
  138.7033   68.9883  219.2299 H   0  0  0  0  0  0  0  0  0  0  0  0
  139.0908   67.2219  219.3993 H   0  0  0  0  0  0  0  0  0  0  0  0
  137.1340   67.7760  220.0610 C   0  0  0  0  0  0  0  0  0  0  0  0
  136.6468   68.6330  220.5492 H   0  0  0  0  0  0  0  0  0  0  0  0
  136.6973   67.5796  219.0707 H   0  0  0  0  0  0  0  0  0  0  0  0
  136.9210   66.5200  220.9320 C   0  0  0  0  0  0  0  0  0  0  0  0
  135.9831   66.6420  221.4937 H   0  0  0  0  0  0  0  0  0  0  0  0
  136.8930   65.6572  220.2502 H   0  0  0  0  0  0  0  0  0  0  0  0
  138.0620   66.2620  221.9390 C   0  0  0  0  0  0  0  0  0  0  0  0
  137.6410   65.7561  222.8204 H   0  0  0  0  0  0  0  0  0  0  0  0
  138.8147   65.6461  221.4250 H   0  0  0  0  0  0  0  0  0  0  0  0
  136.1220   71.9460  223.7470 C   0  0  0  0  0  0  0  0  0  0  0  0
  135.5550   70.9540  224.5580 C   0  0  0  0  0  0  0  0  0  0  0  0
  135.8024   69.8959  224.3870 H   0  0  0  0  0  0  0  0  0  0  0  0
  134.6770   71.3080  225.5820 C   0  0  0  0  0  0  0  0  0  0  0  0
  134.2568   70.5284  226.2344 H   0  0  0  0  0  0  0  0  0  0  0  0
  134.3230   72.6600  225.7880 C   0  0  0  0  0  0  0  0  0  0  0  0
  133.4190   73.0510  226.7890 O   0  0  0  0  0  0  0  0  0  0  0  0
  132.3140   72.2620  227.2200 C   0  0  0  0  0  0  0  0  0  0  0  0
  132.2849   72.2413  228.3194 H   0  0  0  0  0  0  0  0  0  0  0  0
  131.3800   72.6987  226.8367 H   0  0  0  0  0  0  0  0  0  0  0  0
  132.4238   71.2368  226.8367 H   0  0  0  0  0  0  0  0  0  0  0  0
  134.8760   73.6540  224.9660 C   0  0  0  0  0  0  0  0  0  0  0  0
  134.4630   74.9800  225.1600 O   0  0  0  0  0  0  0  0  0  0  0  0
  134.4460   75.6400  226.4260 C   0  0  0  0  0  0  0  0  0  0  0  0
  134.4653   74.8902  227.2307 H   0  0  0  0  0  0  0  0  0  0  0  0
  135.3276   76.2922  226.5113 H   0  0  0  0  0  0  0  0  0  0  0  0
  133.5319   76.2460  226.5113 H   0  0  0  0  0  0  0  0  0  0  0  0
  135.8020   73.2970  223.9680 C   0  0  0  0  0  0  0  0  0  0  0  0
  136.2777   74.0790  223.3579 H   0  0  0  0  0  0  0  0  0  0  0  0
  1  2  1  0
  2  3  2  0
  3  4  1  0
  3  5  1  0
  5  6  2  0
  6  7  1  0
  7  8  2  0
  8  9  1  0
  8 10  1  0
 10 11  1  0
 10 12  2  0
 12 13  1  0
 12 14  1  0
 14 15  1  0
 14 16  2  0
 16 17  1  0
 17 18  2  0
 17 19  1  0
 19 20  1  0
 20 21  1  0
 20 22  1  0
 20 23  1  0
 23 24  1  0
 23 25  1  0
 25 26  1  0
 25 27  1  0
 25 28  1  0
 28 29  1  0
 28 30  1  0
 28 31  1  0
 31 32  1  0
 31 33  1  0
 31 34  1  0
 34 35  1  0
 34 36  1  0
 34 37  1  0
 37 38  1  0
 37 39  1  0
  2 40  1  0
 40 41  2  0
 41 42  1  0
 41 43  1  0
 43 44  1  0
 43 45  2  0
 45 46  1  0
 46 47  1  0
 47 48  1  0
 47 49  1  0
 47 50  1  0
 45 51  1  0
 51 52  1  0
 52 53  1  0
 53 54  1  0
 53 55  1  0
 53 56  1  0
 51 57  2  0
 57 58  1  0
 19  5  1  0
 37 23  1  0
 57 40  1  0
 16  7  1  0
M  END
>  <UniqueID>  (52) 
67

>  <SMILES>  (52) 
COc1ccc(/C=C/c2nc3ccccc3c(=O)n2CC2CCCCC2)cc1OC

>  <Energy>  (52) 
76.31808002395869

>  <Genealogy>  (52) 
COc1ccc(/C=C/c2nc3ccccc3c(=O)n2CC2CCCCC2)cc1OC (cis-trans isomerization)
COc1ccc(/C=C/c2nc3ccccc3c(=O)n2CC2CCCCC2)cc1OC (3D coordinates assigned)
COc1ccc(/C=C/c2nc3ccccc3c(=O)n2CC2CCCCC2)cc1OC (nonaromatic ring conformer: 76.31808002395869 kcal/mol)

>  <smiles>  (52) 
COc1ccc(/C=C/c2nc3ccccc3c(=O)n2CC2CCCCC2)cc1OC

>  <score_type>  (52) 
oracle

>  <origin>  (52) 
autodockgpu

>  <m_score__min__energy>  (52) 
-7.5199999999999996

>  <m_primary>  (52) 
energy

>  <meeko>  (52) 
{"free_energy": -7.02, "intermolecular_energy": -9.1, "internal_energy": -1.82, "cluster_size": 3, "cluster_id": 5, "rank_in_cluster": 1}

>  <energy>  (52) 
-7.06

>  <cluster_rmsd>  (52) 
1.24

>  <rmsd>  (52) 
269.71

>  <cluster>  (52) 
3

$$$$
CHYZURNRBYISSB-FYWRMAATNA-N
     RDKit          3D

 58 61  0  0  0  0  0  0  0  0999 V2000
  136.2941   76.1054  221.7819 H   0  0  0  0  0  0  0  0  0  0  0  0
  136.7120   75.9180  222.7820 C   0  0  0  0  0  0  0  0  0  0  0  0
  137.9200   76.4050  223.0900 C   0  0  0  0  0  0  0  0  0  0  0  0
  138.0152   77.1191  223.9213 H   0  0  0  0  0  0  0  0  0  0  0  0
  139.1380   76.0030  222.3340 C   0  0  0  0  0  0  0  0  0  0  0  0
  139.4000   74.6690  222.2510 N   0  0  0  0  0  0  0  0  0  0  0  0
  140.5170   74.1880  221.6700 C   0  0  0  0  0  0  0  0  0  0  0  0
  140.7220   72.8060  221.5850 C   0  0  0  0  0  0  0  0  0  0  0  0
  139.9639   72.1118  221.9766 H   0  0  0  0  0  0  0  0  0  0  0  0
  141.8910   72.3090  221.0020 C   0  0  0  0  0  0  0  0  0  0  0  0
  142.0508   71.2229  220.9331 H   0  0  0  0  0  0  0  0  0  0  0  0
  142.8600   73.1910  220.5050 C   0  0  0  0  0  0  0  0  0  0  0  0
  143.7768   72.7973  220.0419 H   0  0  0  0  0  0  0  0  0  0  0  0
  142.6610   74.5700  220.5980 C   0  0  0  0  0  0  0  0  0  0  0  0
  143.4285   75.2615  220.2201 H   0  0  0  0  0  0  0  0  0  0  0  0
  141.4810   75.0780  221.1740 C   0  0  0  0  0  0  0  0  0  0  0  0
  141.2190   76.4520  221.2560 C   0  0  0  0  0  0  0  0  0  0  0  0
  142.0850   77.2710  220.8310 O   0  0  0  0  0  0  0  0  0  0  0  0
  140.0320   76.9110  221.7860 N   0  0  0  0  0  0  0  0  0  0  0  0
  139.7570   78.3670  221.7060 C   0  0  0  0  0  0  0  0  0  0  0  0
  140.4062   78.8094  220.9360 H   0  0  0  0  0  0  0  0  0  0  0  0
  138.6945   78.4991  221.4539 H   0  0  0  0  0  0  0  0  0  0  0  0
  140.0230   79.0850  223.0610 C   0  0  0  0  0  0  0  0  0  0  0  0
  139.2834   78.6864  223.7710 H   0  0  0  0  0  0  0  0  0  0  0  0
  139.8020   80.6200  222.9420 C   0  0  0  0  0  0  0  0  0  0  0  0
  139.2138   80.8127  222.0327 H   0  0  0  0  0  0  0  0  0  0  0  0
  139.2877   80.9337  223.8624 H   0  0  0  0  0  0  0  0  0  0  0  0
  141.0980   81.4490  222.8610 C   0  0  0  0  0  0  0  0  0  0  0  0
  140.8897   82.3806  222.3144 H   0  0  0  0  0  0  0  0  0  0  0  0
  141.4330   81.6557  223.8882 H   0  0  0  0  0  0  0  0  0  0  0  0
  142.2160   80.6970  222.1440 C   0  0  0  0  0  0  0  0  0  0  0  0
  141.8866   80.4628  221.1210 H   0  0  0  0  0  0  0  0  0  0  0  0
  143.1079   81.3408  222.1385 H   0  0  0  0  0  0  0  0  0  0  0  0
  142.5840   79.3810  222.8620 C   0  0  0  0  0  0  0  0  0  0  0  0
  142.9148   78.6537  222.1059 H   0  0  0  0  0  0  0  0  0  0  0  0
  143.3748   79.6213  223.5878 H   0  0  0  0  0  0  0  0  0  0  0  0
  141.4160   78.7600  223.6570 C   0  0  0  0  0  0  0  0  0  0  0  0
  141.5440   77.6675  223.6682 H   0  0  0  0  0  0  0  0  0  0  0  0
  141.4453   79.1930  224.6678 H   0  0  0  0  0  0  0  0  0  0  0  0
  135.9340   75.1390  223.7520 C   0  0  0  0  0  0  0  0  0  0  0  0
  135.7260   73.7650  223.5750 C   0  0  0  0  0  0  0  0  0  0  0  0
  136.1506   73.2534  222.6986 H   0  0  0  0  0  0  0  0  0  0  0  0
  134.9810   73.0450  224.5090 C   0  0  0  0  0  0  0  0  0  0  0  0
  134.8458   71.9609  224.3809 H   0  0  0  0  0  0  0  0  0  0  0  0
  134.3990   73.6980  225.6180 C   0  0  0  0  0  0  0  0  0  0  0  0
  133.6170   73.0140  226.5610 O   0  0  0  0  0  0  0  0  0  0  0  0
  133.8460   71.6670  226.9630 C   0  0  0  0  0  0  0  0  0  0  0  0
  133.8559   71.6088  228.0614 H   0  0  0  0  0  0  0  0  0  0  0  0
  133.0440   71.0254  226.5690 H   0  0  0  0  0  0  0  0  0  0  0  0
  134.8149   71.3264  226.5690 H   0  0  0  0  0  0  0  0  0  0  0  0
  134.5910   75.0790  225.7890 C   0  0  0  0  0  0  0  0  0  0  0  0
  133.9550   75.7070  226.8690 O   0  0  0  0  0  0  0  0  0  0  0  0
  132.5400   75.8550  226.9950 C   0  0  0  0  0  0  0  0  0  0  0  0
  132.2677   75.8835  228.0604 H   0  0  0  0  0  0  0  0  0  0  0  0
  132.2247   76.7910  226.5108 H   0  0  0  0  0  0  0  0  0  0  0  0
  132.0378   75.0045  226.5108 H   0  0  0  0  0  0  0  0  0  0  0  0
  135.3870   75.7900  224.8730 C   0  0  0  0  0  0  0  0  0  0  0  0
  135.5829   76.8604  225.0338 H   0  0  0  0  0  0  0  0  0  0  0  0
  1  2  1  0
  2  3  2  0
  3  4  1  0
  3  5  1  0
  5  6  2  0
  6  7  1  0
  7  8  2  0
  8  9  1  0
  8 10  1  0
 10 11  1  0
 10 12  2  0
 12 13  1  0
 12 14  1  0
 14 15  1  0
 14 16  2  0
 16 17  1  0
 17 18  2  0
 17 19  1  0
 19 20  1  0
 20 21  1  0
 20 22  1  0
 20 23  1  0
 23 24  1  0
 23 25  1  0
 25 26  1  0
 25 27  1  0
 25 28  1  0
 28 29  1  0
 28 30  1  0
 28 31  1  0
 31 32  1  0
 31 33  1  0
 31 34  1  0
 34 35  1  0
 34 36  1  0
 34 37  1  0
 37 38  1  0
 37 39  1  0
  2 40  1  0
 40 41  2  0
 41 42  1  0
 41 43  1  0
 43 44  1  0
 43 45  2  0
 45 46  1  0
 46 47  1  0
 47 48  1  0
 47 49  1  0
 47 50  1  0
 45 51  1  0
 51 52  1  0
 52 53  1  0
 53 54  1  0
 53 55  1  0
 53 56  1  0
 51 57  2  0
 57 58  1  0
 19  5  1  0
 37 23  1  0
 57 40  1  0
 16  7  1  0
M  END
>  <UniqueID>  (53) 
67

>  <SMILES>  (53) 
COc1ccc(/C=C/c2nc3ccccc3c(=O)n2CC2CCCCC2)cc1OC

>  <Energy>  (53) 
76.31808002395869

>  <Genealogy>  (53) 
COc1ccc(/C=C/c2nc3ccccc3c(=O)n2CC2CCCCC2)cc1OC (cis-trans isomerization)
COc1ccc(/C=C/c2nc3ccccc3c(=O)n2CC2CCCCC2)cc1OC (3D coordinates assigned)
COc1ccc(/C=C/c2nc3ccccc3c(=O)n2CC2CCCCC2)cc1OC (nonaromatic ring conformer: 76.31808002395869 kcal/mol)

>  <smiles>  (53) 
COc1ccc(/C=C/c2nc3ccccc3c(=O)n2CC2CCCCC2)cc1OC

>  <score_type>  (53) 
oracle

>  <origin>  (53) 
autodockgpu

>  <m_score__min__energy>  (53) 
-7.5199999999999996

>  <m_primary>  (53) 
energy

>  <meeko>  (53) 
{"free_energy": -7.46, "intermolecular_energy": -9.55, "internal_energy": -1.54, "cluster_size": 3, "cluster_id": 2, "rank_in_cluster": 1}

>  <energy>  (53) 
-7.05

>  <cluster_rmsd>  (53) 
1.1

>  <rmsd>  (53) 
269.73

>  <cluster>  (53) 
3

$$$$
CHYZURNRBYISSB-FYWRMAATNA-N
     RDKit          3D

 58 61  0  0  0  0  0  0  0  0999 V2000
  136.3023   75.8404  221.7783 H   0  0  0  0  0  0  0  0  0  0  0  0
  136.6800   75.8110  222.8110 C   0  0  0  0  0  0  0  0  0  0  0  0
  137.8560   76.3820  223.0960 C   0  0  0  0  0  0  0  0  0  0  0  0
  137.9142   77.1089  223.9195 H   0  0  0  0  0  0  0  0  0  0  0  0
  139.0880   76.0570  222.3250 C   0  0  0  0  0  0  0  0  0  0  0  0
  139.4120   74.7390  222.2090 N   0  0  0  0  0  0  0  0  0  0  0  0
  140.5470   74.3250  221.6140 C   0  0  0  0  0  0  0  0  0  0  0  0
  140.8180   72.9570  221.4940 C   0  0  0  0  0  0  0  0  0  0  0  0
  140.0957   72.2181  221.8713 H   0  0  0  0  0  0  0  0  0  0  0  0
  142.0060   72.5300  220.8950 C   0  0  0  0  0  0  0  0  0  0  0  0
  142.2167   71.4546  220.7995 H   0  0  0  0  0  0  0  0  0  0  0  0
  142.9290   73.4680  220.4160 C   0  0  0  0  0  0  0  0  0  0  0  0
  143.8617   73.1292  219.9414 H   0  0  0  0  0  0  0  0  0  0  0  0
  142.6650   74.8330  220.5410 C   0  0  0  0  0  0  0  0  0  0  0  0
  143.3964   75.5687  220.1753 H   0  0  0  0  0  0  0  0  0  0  0  0
  141.4650   75.2710  221.1340 C   0  0  0  0  0  0  0  0  0  0  0  0
  141.1390   76.6290  221.2490 C   0  0  0  0  0  0  0  0  0  0  0  0
  141.9630   77.4980  220.8410 O   0  0  0  0  0  0  0  0  0  0  0  0
  139.9340   77.0190  221.7950 N   0  0  0  0  0  0  0  0  0  0  0  0
  139.5900   78.4620  221.7510 C   0  0  0  0  0  0  0  0  0  0  0  0
  140.1881   78.9460  220.9649 H   0  0  0  0  0  0  0  0  0  0  0  0
  138.5136   78.5488  221.5417 H   0  0  0  0  0  0  0  0  0  0  0  0
  139.8750   79.1700  223.1070 C   0  0  0  0  0  0  0  0  0  0  0  0
  139.1327   78.7817  223.8199 H   0  0  0  0  0  0  0  0  0  0  0  0
  139.6800   80.7090  222.9930 C   0  0  0  0  0  0  0  0  0  0  0  0
  139.0922   80.9143  222.0862 H   0  0  0  0  0  0  0  0  0  0  0  0
  139.1741   81.0289  223.9159 H   0  0  0  0  0  0  0  0  0  0  0  0
  140.9900   81.5160  222.9100 C   0  0  0  0  0  0  0  0  0  0  0  0
  140.7957   82.4533  222.3680 H   0  0  0  0  0  0  0  0  0  0  0  0
  141.3327   81.7129  223.9365 H   0  0  0  0  0  0  0  0  0  0  0  0
  142.0920   80.7470  222.1850 C   0  0  0  0  0  0  0  0  0  0  0  0
  141.7541   80.5222  221.1626 H   0  0  0  0  0  0  0  0  0  0  0  0
  142.9950   81.3751  222.1776 H   0  0  0  0  0  0  0  0  0  0  0  0
  142.4400   79.4220  222.8970 C   0  0  0  0  0  0  0  0  0  0  0  0
  142.7548   78.6916  222.1371 H   0  0  0  0  0  0  0  0  0  0  0  0
  143.2382   79.6456  223.6201 H   0  0  0  0  0  0  0  0  0  0  0  0
  141.2640   78.8190  223.6950 C   0  0  0  0  0  0  0  0  0  0  0  0
  141.3728   77.7244  223.7020 H   0  0  0  0  0  0  0  0  0  0  0  0
  141.3053   79.2485  224.7069 H   0  0  0  0  0  0  0  0  0  0  0  0
  135.8840   75.1460  223.8500 C   0  0  0  0  0  0  0  0  0  0  0  0
  135.5580   73.7870  223.7510 C   0  0  0  0  0  0  0  0  0  0  0  0
  135.9017   73.2003  222.8863 H   0  0  0  0  0  0  0  0  0  0  0  0
  134.7970   73.1780  224.7500 C   0  0  0  0  0  0  0  0  0  0  0  0
  134.5671   72.1044  224.6831 H   0  0  0  0  0  0  0  0  0  0  0  0
  134.3200   73.9300  225.8460 C   0  0  0  0  0  0  0  0  0  0  0  0
  133.5260   73.3590  226.8540 O   0  0  0  0  0  0  0  0  0  0  0  0
  132.1110   73.2170  226.7720 C   0  0  0  0  0  0  0  0  0  0  0  0
  131.6874   73.1745  227.7863 H   0  0  0  0  0  0  0  0  0  0  0  0
  131.6868   74.0771  226.2332 H   0  0  0  0  0  0  0  0  0  0  0  0
  131.8661   72.2898  226.2332 H   0  0  0  0  0  0  0  0  0  0  0  0
  134.6300   75.2960  225.9380 C   0  0  0  0  0  0  0  0  0  0  0  0
  134.0950   76.0260  227.0090 O   0  0  0  0  0  0  0  0  0  0  0  0
  132.7760   76.5740  227.0300 C   0  0  0  0  0  0  0  0  0  0  0  0
  132.4515   76.7088  228.0724 H   0  0  0  0  0  0  0  0  0  0  0  0
  132.7750   77.5470  226.5169 H   0  0  0  0  0  0  0  0  0  0  0  0
  132.0858   75.8882  226.5169 H   0  0  0  0  0  0  0  0  0  0  0  0
  135.4410   75.8930  224.9560 C   0  0  0  0  0  0  0  0  0  0  0  0
  135.7302   76.9498  225.0537 H   0  0  0  0  0  0  0  0  0  0  0  0
  1  2  1  0
  2  3  2  0
  3  4  1  0
  3  5  1  0
  5  6  2  0
  6  7  1  0
  7  8  2  0
  8  9  1  0
  8 10  1  0
 10 11  1  0
 10 12  2  0
 12 13  1  0
 12 14  1  0
 14 15  1  0
 14 16  2  0
 16 17  1  0
 17 18  2  0
 17 19  1  0
 19 20  1  0
 20 21  1  0
 20 22  1  0
 20 23  1  0
 23 24  1  0
 23 25  1  0
 25 26  1  0
 25 27  1  0
 25 28  1  0
 28 29  1  0
 28 30  1  0
 28 31  1  0
 31 32  1  0
 31 33  1  0
 31 34  1  0
 34 35  1  0
 34 36  1  0
 34 37  1  0
 37 38  1  0
 37 39  1  0
  2 40  1  0
 40 41  2  0
 41 42  1  0
 41 43  1  0
 43 44  1  0
 43 45  2  0
 45 46  1  0
 46 47  1  0
 47 48  1  0
 47 49  1  0
 47 50  1  0
 45 51  1  0
 51 52  1  0
 52 53  1  0
 53 54  1  0
 53 55  1  0
 53 56  1  0
 51 57  2  0
 57 58  1  0
 19  5  1  0
 37 23  1  0
 57 40  1  0
 16  7  1  0
M  END
>  <UniqueID>  (54) 
67

>  <SMILES>  (54) 
COc1ccc(/C=C/c2nc3ccccc3c(=O)n2CC2CCCCC2)cc1OC

>  <Energy>  (54) 
76.31808002395869

>  <Genealogy>  (54) 
COc1ccc(/C=C/c2nc3ccccc3c(=O)n2CC2CCCCC2)cc1OC (cis-trans isomerization)
COc1ccc(/C=C/c2nc3ccccc3c(=O)n2CC2CCCCC2)cc1OC (3D coordinates assigned)
COc1ccc(/C=C/c2nc3ccccc3c(=O)n2CC2CCCCC2)cc1OC (nonaromatic ring conformer: 76.31808002395869 kcal/mol)

>  <smiles>  (54) 
COc1ccc(/C=C/c2nc3ccccc3c(=O)n2CC2CCCCC2)cc1OC

>  <score_type>  (54) 
oracle

>  <origin>  (54) 
autodockgpu

>  <m_score__min__energy>  (54) 
-7.5199999999999996

>  <m_primary>  (54) 
energy

>  <meeko>  (54) 
{"free_energy": -7.45, "intermolecular_energy": -9.54, "internal_energy": -1.48, "cluster_size": 3, "cluster_id": 2, "rank_in_cluster": 3}

>  <energy>  (54) 
-6.92

>  <cluster_rmsd>  (54) 
1.02

>  <rmsd>  (54) 
269.75

>  <cluster>  (54) 
3

$$$$
CHYZURNRBYISSB-FYWRMAATNA-N
     RDKit          3D

 58 61  0  0  0  0  0  0  0  0999 V2000
  136.2775   76.0883  221.8033 H   0  0  0  0  0  0  0  0  0  0  0  0
  136.7090   75.9140  222.8000 C   0  0  0  0  0  0  0  0  0  0  0  0
  137.9120   76.4230  223.0920 C   0  0  0  0  0  0  0  0  0  0  0  0
  138.0019   77.1524  223.9105 H   0  0  0  0  0  0  0  0  0  0  0  0
  139.1310   76.0260  222.3360 C   0  0  0  0  0  0  0  0  0  0  0  0
  139.3970   74.6920  222.2500 N   0  0  0  0  0  0  0  0  0  0  0  0
  140.5150   74.2160  221.6700 C   0  0  0  0  0  0  0  0  0  0  0  0
  140.7240   72.8340  221.5820 C   0  0  0  0  0  0  0  0  0  0  0  0
  139.9677   72.1369  221.9719 H   0  0  0  0  0  0  0  0  0  0  0  0
  141.8950   72.3410  220.9980 C   0  0  0  0  0  0  0  0  0  0  0  0
  142.0579   71.2555  220.9264 H   0  0  0  0  0  0  0  0  0  0  0  0
  142.8610   73.2270  220.5040 C   0  0  0  0  0  0  0  0  0  0  0  0
  143.7798   72.8368  220.0418 H   0  0  0  0  0  0  0  0  0  0  0  0
  142.6580   74.6050  220.5980 C   0  0  0  0  0  0  0  0  0  0  0  0
  143.4233   75.2991  220.2204 H   0  0  0  0  0  0  0  0  0  0  0  0
  141.4760   75.1090  221.1750 C   0  0  0  0  0  0  0  0  0  0  0  0
  141.2110   76.4820  221.2590 C   0  0  0  0  0  0  0  0  0  0  0  0
  142.0750   77.3040  220.8360 O   0  0  0  0  0  0  0  0  0  0  0  0
  140.0220   76.9370  221.7890 N   0  0  0  0  0  0  0  0  0  0  0  0
  139.7440   78.3930  221.7120 C   0  0  0  0  0  0  0  0  0  0  0  0
  140.3871   78.8369  220.9378 H   0  0  0  0  0  0  0  0  0  0  0  0
  138.6794   78.5232  221.4677 H   0  0  0  0  0  0  0  0  0  0  0  0
  140.0180   79.1110  223.0650 C   0  0  0  0  0  0  0  0  0  0  0  0
  139.2855   78.7105  223.7812 H   0  0  0  0  0  0  0  0  0  0  0  0
  139.7920   80.6450  222.9470 C   0  0  0  0  0  0  0  0  0  0  0  0
  139.1971   80.8356  222.0416 H   0  0  0  0  0  0  0  0  0  0  0  0
  139.2834   80.9573  223.8710 H   0  0  0  0  0  0  0  0  0  0  0  0
  141.0840   81.4780  222.8570 C   0  0  0  0  0  0  0  0  0  0  0  0
  140.8687   82.4091  222.3122 H   0  0  0  0  0  0  0  0  0  0  0  0
  141.4257   81.6857  223.8817 H   0  0  0  0  0  0  0  0  0  0  0  0
  142.2000   80.7290  222.1310 C   0  0  0  0  0  0  0  0  0  0  0  0
  141.8641   80.4944  221.1101 H   0  0  0  0  0  0  0  0  0  0  0  0
  143.0902   81.3751  222.1192 H   0  0  0  0  0  0  0  0  0  0  0  0
  142.5760   79.4140  222.8460 C   0  0  0  0  0  0  0  0  0  0  0  0
  142.9031   78.6877  222.0874 H   0  0  0  0  0  0  0  0  0  0  0  0
  143.3713   79.6563  223.5663 H   0  0  0  0  0  0  0  0  0  0  0  0
  141.4160   78.7900  223.6490 C   0  0  0  0  0  0  0  0  0  0  0  0
  141.5470   77.6979  223.6586 H   0  0  0  0  0  0  0  0  0  0  0  0
  141.4520   79.2232  224.6595 H   0  0  0  0  0  0  0  0  0  0  0  0
  135.9540   75.1280  223.7830 C   0  0  0  0  0  0  0  0  0  0  0  0
  135.7800   73.7470  223.6250 C   0  0  0  0  0  0  0  0  0  0  0  0
  136.2147   73.2345  222.7541 H   0  0  0  0  0  0  0  0  0  0  0  0
  135.0560   73.0210  224.5710 C   0  0  0  0  0  0  0  0  0  0  0  0
  134.9456   71.9325  224.4568 H   0  0  0  0  0  0  0  0  0  0  0  0
  134.4640   73.6740  225.6740 C   0  0  0  0  0  0  0  0  0  0  0  0
  133.7020   72.9830  226.6300 O   0  0  0  0  0  0  0  0  0  0  0  0
  132.3010   73.1600  226.8170 C   0  0  0  0  0  0  0  0  0  0  0  0
  132.0754   73.1885  227.8933 H   0  0  0  0  0  0  0  0  0  0  0  0
  131.9854   74.1052  226.3511 H   0  0  0  0  0  0  0  0  0  0  0  0
  131.7603   72.3230  226.3511 H   0  0  0  0  0  0  0  0  0  0  0  0
  134.6220   75.0610  225.8270 C   0  0  0  0  0  0  0  0  0  0  0  0
  133.9760   75.6870  226.9020 O   0  0  0  0  0  0  0  0  0  0  0  0
  133.2020   76.8830  226.7900 C   0  0  0  0  0  0  0  0  0  0  0  0
  132.9592   77.2581  227.7952 H   0  0  0  0  0  0  0  0  0  0  0  0
  133.7795   77.6437  226.2443 H   0  0  0  0  0  0  0  0  0  0  0  0
  132.2715   76.6678  226.2443 H   0  0  0  0  0  0  0  0  0  0  0  0
  135.3970   75.7790  224.8980 C   0  0  0  0  0  0  0  0  0  0  0  0
  135.5682   76.8557  225.0447 H   0  0  0  0  0  0  0  0  0  0  0  0
  1  2  1  0
  2  3  2  0
  3  4  1  0
  3  5  1  0
  5  6  2  0
  6  7  1  0
  7  8  2  0
  8  9  1  0
  8 10  1  0
 10 11  1  0
 10 12  2  0
 12 13  1  0
 12 14  1  0
 14 15  1  0
 14 16  2  0
 16 17  1  0
 17 18  2  0
 17 19  1  0
 19 20  1  0
 20 21  1  0
 20 22  1  0
 20 23  1  0
 23 24  1  0
 23 25  1  0
 25 26  1  0
 25 27  1  0
 25 28  1  0
 28 29  1  0
 28 30  1  0
 28 31  1  0
 31 32  1  0
 31 33  1  0
 31 34  1  0
 34 35  1  0
 34 36  1  0
 34 37  1  0
 37 38  1  0
 37 39  1  0
  2 40  1  0
 40 41  2  0
 41 42  1  0
 41 43  1  0
 43 44  1  0
 43 45  2  0
 45 46  1  0
 46 47  1  0
 47 48  1  0
 47 49  1  0
 47 50  1  0
 45 51  1  0
 51 52  1  0
 52 53  1  0
 53 54  1  0
 53 55  1  0
 53 56  1  0
 51 57  2  0
 57 58  1  0
 19  5  1  0
 37 23  1  0
 57 40  1  0
 16  7  1  0
M  END
>  <UniqueID>  (55) 
67

>  <SMILES>  (55) 
COc1ccc(/C=C/c2nc3ccccc3c(=O)n2CC2CCCCC2)cc1OC

>  <Energy>  (55) 
76.31808002395869

>  <Genealogy>  (55) 
COc1ccc(/C=C/c2nc3ccccc3c(=O)n2CC2CCCCC2)cc1OC (cis-trans isomerization)
COc1ccc(/C=C/c2nc3ccccc3c(=O)n2CC2CCCCC2)cc1OC (3D coordinates assigned)
COc1ccc(/C=C/c2nc3ccccc3c(=O)n2CC2CCCCC2)cc1OC (nonaromatic ring conformer: 76.31808002395869 kcal/mol)

>  <smiles>  (55) 
COc1ccc(/C=C/c2nc3ccccc3c(=O)n2CC2CCCCC2)cc1OC

>  <score_type>  (55) 
oracle

>  <origin>  (55) 
autodockgpu

>  <m_score__min__energy>  (55) 
-7.5199999999999996

>  <m_primary>  (55) 
energy

>  <meeko>  (55) 
{"free_energy": -7.46, "intermolecular_energy": -9.54, "internal_energy": -1.53, "cluster_size": 3, "cluster_id": 2, "rank_in_cluster": 2}

>  <energy>  (55) 
-6.86

>  <cluster_rmsd>  (55) 
0.94

>  <rmsd>  (55) 
269.58

>  <cluster>  (55) 
3

$$$$
CHYZURNRBYISSB-FYWRMAATNA-N
     RDKit          3D

 58 61  0  0  0  0  0  0  0  0999 V2000
  138.8874   73.3957  222.1066 H   0  0  0  0  0  0  0  0  0  0  0  0
  139.5500   72.5270  221.9790 C   0  0  0  0  0  0  0  0  0  0  0  0
  139.0950   71.3050  222.2820 C   0  0  0  0  0  0  0  0  0  0  0  0
  138.5505   70.7299  221.5186 H   0  0  0  0  0  0  0  0  0  0  0  0
  139.3090   70.7060  223.6290 C   0  0  0  0  0  0  0  0  0  0  0  0
  139.9020   71.4950  224.5680 N   0  0  0  0  0  0  0  0  0  0  0  0
  140.2280   71.0380  225.7920 C   0  0  0  0  0  0  0  0  0  0  0  0
  140.8080   71.9000  226.7300 C   0  0  0  0  0  0  0  0  0  0  0  0
  140.9828   72.9553  226.4734 H   0  0  0  0  0  0  0  0  0  0  0  0
  141.1650   71.4190  227.9930 C   0  0  0  0  0  0  0  0  0  0  0  0
  141.6187   72.0972  228.7306 H   0  0  0  0  0  0  0  0  0  0  0  0
  140.9460   70.0750  228.3210 C   0  0  0  0  0  0  0  0  0  0  0  0
  141.2233   69.6997  229.3171 H   0  0  0  0  0  0  0  0  0  0  0  0
  140.3760   69.2120  227.3840 C   0  0  0  0  0  0  0  0  0  0  0  0
  140.2170   68.1538  227.6389 H   0  0  0  0  0  0  0  0  0  0  0  0
  140.0040   69.6910  226.1140 C   0  0  0  0  0  0  0  0  0  0  0  0
  139.3940   68.8730  225.1540 C   0  0  0  0  0  0  0  0  0  0  0  0
  139.2020   67.6500  225.4180 O   0  0  0  0  0  0  0  0  0  0  0  0
  139.0020   69.3890  223.9370 N   0  0  0  0  0  0  0  0  0  0  0  0
  138.2310   68.5050  223.0270 C   0  0  0  0  0  0  0  0  0  0  0  0
  137.5427   67.8913  223.6267 H   0  0  0  0  0  0  0  0  0  0  0  0
  137.6811   69.1423  222.3189 H   0  0  0  0  0  0  0  0  0  0  0  0
  139.1590   67.5630  222.2060 C   0  0  0  0  0  0  0  0  0  0  0  0
  140.0702   67.4271  222.8069 H   0  0  0  0  0  0  0  0  0  0  0  0
  139.5640   68.2090  220.8500 C   0  0  0  0  0  0  0  0  0  0  0  0
  139.3677   69.2896  220.9122 H   0  0  0  0  0  0  0  0  0  0  0  0
  140.6273   67.9726  220.6966 H   0  0  0  0  0  0  0  0  0  0  0  0
  138.8110   67.6530  219.6260 C   0  0  0  0  0  0  0  0  0  0  0  0
  138.7752   68.4301  218.8483 H   0  0  0  0  0  0  0  0  0  0  0  0
  139.3489   66.7607  219.2734 H   0  0  0  0  0  0  0  0  0  0  0  0
  137.3830   67.2360  219.9720 C   0  0  0  0  0  0  0  0  0  0  0  0
  136.8383   68.1142  220.3491 H   0  0  0  0  0  0  0  0  0  0  0  0
  136.9151   66.8385  219.0593 H   0  0  0  0  0  0  0  0  0  0  0  0
  137.3470   66.1280  221.0470 C   0  0  0  0  0  0  0  0  0  0  0  0
  136.4326   66.2542  221.6452 H   0  0  0  0  0  0  0  0  0  0  0  0
  137.3721   65.1647  220.5165 H   0  0  0  0  0  0  0  0  0  0  0  0
  138.5600   66.1490  222.0010 C   0  0  0  0  0  0  0  0  0  0  0  0
  138.2405   65.7608  222.9794 H   0  0  0  0  0  0  0  0  0  0  0  0
  139.3438   65.5283  221.5423 H   0  0  0  0  0  0  0  0  0  0  0  0
  140.9150   72.7310  221.4800 C   0  0  0  0  0  0  0  0  0  0  0  0
  141.4200   74.0190  221.2630 C   0  0  0  0  0  0  0  0  0  0  0  0
  140.7919   74.8981  221.4694 H   0  0  0  0  0  0  0  0  0  0  0  0
  142.7200   74.1870  220.7850 C   0  0  0  0  0  0  0  0  0  0  0  0
  143.1224   75.2009  220.6431 H   0  0  0  0  0  0  0  0  0  0  0  0
  143.5230   73.0660  220.4820 C   0  0  0  0  0  0  0  0  0  0  0  0
  144.8240   73.1950  219.9700 O   0  0  0  0  0  0  0  0  0  0  0  0
  145.9620   73.5340  220.7560 C   0  0  0  0  0  0  0  0  0  0  0  0
  145.7064   73.4579  221.8232 H   0  0  0  0  0  0  0  0  0  0  0  0
  146.7858   72.8422  220.5260 H   0  0  0  0  0  0  0  0  0  0  0  0
  146.2729   74.5638  220.5260 H   0  0  0  0  0  0  0  0  0  0  0  0
  143.0130   71.7730  220.6820 C   0  0  0  0  0  0  0  0  0  0  0  0
  143.8140   70.6810  220.3200 O   0  0  0  0  0  0  0  0  0  0  0  0
  143.4380   69.6890  219.3630 C   0  0  0  0  0  0  0  0  0  0  0  0
  143.0953   68.7848  219.8875 H   0  0  0  0  0  0  0  0  0  0  0  0
  142.6248   70.0775  218.7324 H   0  0  0  0  0  0  0  0  0  0  0  0
  144.3045   69.4409  218.7324 H   0  0  0  0  0  0  0  0  0  0  0  0
  141.7210   71.6090  221.2140 C   0  0  0  0  0  0  0  0  0  0  0  0
  141.3392   70.5988  221.4230 H   0  0  0  0  0  0  0  0  0  0  0  0
  1  2  1  0
  2  3  2  0
  3  4  1  0
  3  5  1  0
  5  6  2  0
  6  7  1  0
  7  8  2  0
  8  9  1  0
  8 10  1  0
 10 11  1  0
 10 12  2  0
 12 13  1  0
 12 14  1  0
 14 15  1  0
 14 16  2  0
 16 17  1  0
 17 18  2  0
 17 19  1  0
 19 20  1  0
 20 21  1  0
 20 22  1  0
 20 23  1  0
 23 24  1  0
 23 25  1  0
 25 26  1  0
 25 27  1  0
 25 28  1  0
 28 29  1  0
 28 30  1  0
 28 31  1  0
 31 32  1  0
 31 33  1  0
 31 34  1  0
 34 35  1  0
 34 36  1  0
 34 37  1  0
 37 38  1  0
 37 39  1  0
  2 40  1  0
 40 41  2  0
 41 42  1  0
 41 43  1  0
 43 44  1  0
 43 45  2  0
 45 46  1  0
 46 47  1  0
 47 48  1  0
 47 49  1  0
 47 50  1  0
 45 51  1  0
 51 52  1  0
 52 53  1  0
 53 54  1  0
 53 55  1  0
 53 56  1  0
 51 57  2  0
 57 58  1  0
 19  5  1  0
 37 23  1  0
 57 40  1  0
 16  7  1  0
M  END
>  <UniqueID>  (56) 
67

>  <SMILES>  (56) 
COc1ccc(/C=C/c2nc3ccccc3c(=O)n2CC2CCCCC2)cc1OC

>  <Energy>  (56) 
76.31808002395869

>  <Genealogy>  (56) 
COc1ccc(/C=C/c2nc3ccccc3c(=O)n2CC2CCCCC2)cc1OC (cis-trans isomerization)
COc1ccc(/C=C/c2nc3ccccc3c(=O)n2CC2CCCCC2)cc1OC (3D coordinates assigned)
COc1ccc(/C=C/c2nc3ccccc3c(=O)n2CC2CCCCC2)cc1OC (nonaromatic ring conformer: 76.31808002395869 kcal/mol)

>  <smiles>  (56) 
COc1ccc(/C=C/c2nc3ccccc3c(=O)n2CC2CCCCC2)cc1OC

>  <score_type>  (56) 
oracle

>  <origin>  (56) 
autodockgpu

>  <m_score__min__energy>  (56) 
-7.5199999999999996

>  <m_primary>  (56) 
energy

>  <meeko>  (56) 
{"free_energy": -7.05, "intermolecular_energy": -9.14, "internal_energy": -1.75, "cluster_size": 7, "cluster_id": 1, "rank_in_cluster": 6}

>  <energy>  (56) 
-7.03

>  <cluster_rmsd>  (56) 
0.0

>  <rmsd>  (56) 
269.93

>  <cluster>  (56) 
4

$$$$
CHYZURNRBYISSB-FYWRMAATNA-N
     RDKit          3D

 58 61  0  0  0  0  0  0  0  0999 V2000
  140.2240   70.4722  220.7425 H   0  0  0  0  0  0  0  0  0  0  0  0
  140.8710   71.2710  221.1340 C   0  0  0  0  0  0  0  0  0  0  0  0
  140.4970   71.9390  222.2320 C   0  0  0  0  0  0  0  0  0  0  0  0
  140.3932   73.0331  222.1856 H   0  0  0  0  0  0  0  0  0  0  0  0
  140.2180   71.2360  223.5150 C   0  0  0  0  0  0  0  0  0  0  0  0
  140.7430   71.7860  224.6460 N   0  0  0  0  0  0  0  0  0  0  0  0
  140.6360   71.1950  225.8520 C   0  0  0  0  0  0  0  0  0  0  0  0
  141.1670   71.8190  226.9870 C   0  0  0  0  0  0  0  0  0  0  0  0
  141.6577   72.7994  226.8975 H   0  0  0  0  0  0  0  0  0  0  0  0
  141.0730   71.1950  228.2340 C   0  0  0  0  0  0  0  0  0  0  0  0
  141.4888   71.6864  229.1260 H   0  0  0  0  0  0  0  0  0  0  0  0
  140.4510   69.9460  228.3510 C   0  0  0  0  0  0  0  0  0  0  0  0
  140.3744   69.4596  229.3346 H   0  0  0  0  0  0  0  0  0  0  0  0
  139.9280   69.3180  227.2190 C   0  0  0  0  0  0  0  0  0  0  0  0
  139.4513   68.3309  227.3104 H   0  0  0  0  0  0  0  0  0  0  0  0
  140.0090   69.9450  225.9600 C   0  0  0  0  0  0  0  0  0  0  0  0
  139.4660   69.3730  224.8020 C   0  0  0  0  0  0  0  0  0  0  0  0
  138.9140   68.2370  224.8760 O   0  0  0  0  0  0  0  0  0  0  0  0
  139.5250   70.0380  223.5960 N   0  0  0  0  0  0  0  0  0  0  0  0
  138.8020   69.4440  222.4440 C   0  0  0  0  0  0  0  0  0  0  0  0
  139.4547   69.4783  221.5592 H   0  0  0  0  0  0  0  0  0  0  0  0
  138.5397   68.4081  222.7051 H   0  0  0  0  0  0  0  0  0  0  0  0
  137.4840   70.2080  222.1260 C   0  0  0  0  0  0  0  0  0  0  0  0
  137.6631   70.7582  221.1905 H   0  0  0  0  0  0  0  0  0  0  0  0
  137.1470   71.2410  223.2390 C   0  0  0  0  0  0  0  0  0  0  0  0
  138.0585   71.4206  223.8280 H   0  0  0  0  0  0  0  0  0  0  0  0
  136.7800   72.1428  222.7271 H   0  0  0  0  0  0  0  0  0  0  0  0
  136.0300   70.8010  224.2040 C   0  0  0  0  0  0  0  0  0  0  0  0
  136.1822   71.2985  225.1732 H   0  0  0  0  0  0  0  0  0  0  0  0
  135.0654   71.0840  223.7574 H   0  0  0  0  0  0  0  0  0  0  0  0
  136.0220   69.2900  224.4220 C   0  0  0  0  0  0  0  0  0  0  0  0
  136.9900   68.9881  224.8484 H   0  0  0  0  0  0  0  0  0  0  0  0
  135.1931   69.0508  225.1044 H   0  0  0  0  0  0  0  0  0  0  0  0
  135.7940   68.5150  223.1080 C   0  0  0  0  0  0  0  0  0  0  0  0
  136.3291   67.5562  223.1734 H   0  0  0  0  0  0  0  0  0  0  0  0
  134.7075   68.3836  222.9975 H   0  0  0  0  0  0  0  0  0  0  0  0
  136.2870   69.2630  221.8510 C   0  0  0  0  0  0  0  0  0  0  0  0
  136.5952   68.5193  221.1013 H   0  0  0  0  0  0  0  0  0  0  0  0
  135.4540   69.8889  221.4984 H   0  0  0  0  0  0  0  0  0  0  0  0
  142.1270   71.5830  220.4420 C   0  0  0  0  0  0  0  0  0  0  0  0
  142.4890   70.9150  219.2660 C   0  0  0  0  0  0  0  0  0  0  0  0
  141.8272   70.1433  218.8459 H   0  0  0  0  0  0  0  0  0  0  0  0
  143.6890   71.2280  218.6270 C   0  0  0  0  0  0  0  0  0  0  0  0
  143.9551   70.7216  217.6874 H   0  0  0  0  0  0  0  0  0  0  0  0
  144.5650   72.1900  219.1770 C   0  0  0  0  0  0  0  0  0  0  0  0
  145.7950   72.5080  218.5800 O   0  0  0  0  0  0  0  0  0  0  0  0
  145.9370   73.3580  217.4460 C   0  0  0  0  0  0  0  0  0  0  0  0
  146.1096   74.3912  217.7816 H   0  0  0  0  0  0  0  0  0  0  0  0
  146.7914   73.0216  216.8403 H   0  0  0  0  0  0  0  0  0  0  0  0
  145.0197   73.3176  216.8403 H   0  0  0  0  0  0  0  0  0  0  0  0
  144.2120   72.8490  220.3660 C   0  0  0  0  0  0  0  0  0  0  0  0
  145.1260   73.7580  220.9160 O   0  0  0  0  0  0  0  0  0  0  0  0
  146.3240   73.3830  221.5980 C   0  0  0  0  0  0  0  0  0  0  0  0
  146.1590   73.4347  222.6843 H   0  0  0  0  0  0  0  0  0  0  0  0
  146.5994   72.3557  221.3174 H   0  0  0  0  0  0  0  0  0  0  0  0
  147.1360   74.0699  221.3174 H   0  0  0  0  0  0  0  0  0  0  0  0
  142.9760   72.5680  220.9770 C   0  0  0  0  0  0  0  0  0  0  0  0
  142.6724   73.1217  221.8777 H   0  0  0  0  0  0  0  0  0  0  0  0
  1  2  1  0
  2  3  2  0
  3  4  1  0
  3  5  1  0
  5  6  2  0
  6  7  1  0
  7  8  2  0
  8  9  1  0
  8 10  1  0
 10 11  1  0
 10 12  2  0
 12 13  1  0
 12 14  1  0
 14 15  1  0
 14 16  2  0
 16 17  1  0
 17 18  2  0
 17 19  1  0
 19 20  1  0
 20 21  1  0
 20 22  1  0
 20 23  1  0
 23 24  1  0
 23 25  1  0
 25 26  1  0
 25 27  1  0
 25 28  1  0
 28 29  1  0
 28 30  1  0
 28 31  1  0
 31 32  1  0
 31 33  1  0
 31 34  1  0
 34 35  1  0
 34 36  1  0
 34 37  1  0
 37 38  1  0
 37 39  1  0
  2 40  1  0
 40 41  2  0
 41 42  1  0
 41 43  1  0
 43 44  1  0
 43 45  2  0
 45 46  1  0
 46 47  1  0
 47 48  1  0
 47 49  1  0
 47 50  1  0
 45 51  1  0
 51 52  1  0
 52 53  1  0
 53 54  1  0
 53 55  1  0
 53 56  1  0
 51 57  2  0
 57 58  1  0
 19  5  1  0
 37 23  1  0
 57 40  1  0
 16  7  1  0
M  END
>  <UniqueID>  (57) 
67

>  <SMILES>  (57) 
COc1ccc(/C=C/c2nc3ccccc3c(=O)n2CC2CCCCC2)cc1OC

>  <Energy>  (57) 
76.31808002395869

>  <Genealogy>  (57) 
COc1ccc(/C=C/c2nc3ccccc3c(=O)n2CC2CCCCC2)cc1OC (cis-trans isomerization)
COc1ccc(/C=C/c2nc3ccccc3c(=O)n2CC2CCCCC2)cc1OC (3D coordinates assigned)
COc1ccc(/C=C/c2nc3ccccc3c(=O)n2CC2CCCCC2)cc1OC (nonaromatic ring conformer: 76.31808002395869 kcal/mol)

>  <smiles>  (57) 
COc1ccc(/C=C/c2nc3ccccc3c(=O)n2CC2CCCCC2)cc1OC

>  <score_type>  (57) 
oracle

>  <origin>  (57) 
autodockgpu

>  <m_score__min__energy>  (57) 
-7.5199999999999996

>  <m_primary>  (57) 
energy

>  <meeko>  (57) 
{"free_energy": -7.3, "intermolecular_energy": -9.39, "internal_energy": -1.69, "cluster_size": 7, "cluster_id": 1, "rank_in_cluster": 4}

>  <energy>  (57) 
-7.02

>  <cluster_rmsd>  (57) 
0.0

>  <rmsd>  (57) 
269.2

>  <cluster>  (57) 
5

$$$$
CHYZURNRBYISSB-FYWRMAATNA-N
     RDKit          3D

 58 61  0  0  0  0  0  0  0  0999 V2000
  140.8514   73.6990  222.4814 H   0  0  0  0  0  0  0  0  0  0  0  0
  141.1360   72.7830  221.9430 C   0  0  0  0  0  0  0  0  0  0  0  0
  140.3840   71.6840  222.0750 C   0  0  0  0  0  0  0  0  0  0  0  0
  139.9512   71.2185  221.1772 H   0  0  0  0  0  0  0  0  0  0  0  0
  140.1190   71.0760  223.4090 C   0  0  0  0  0  0  0  0  0  0  0  0
  140.6720   71.6960  224.4890 N   0  0  0  0  0  0  0  0  0  0  0  0
  140.5780   71.1930  225.7350 C   0  0  0  0  0  0  0  0  0  0  0  0
  141.1380   71.8870  226.8150 C   0  0  0  0  0  0  0  0  0  0  0  0
  141.6396   72.8517  226.6487 H   0  0  0  0  0  0  0  0  0  0  0  0
  141.0590   71.3530  228.1040 C   0  0  0  0  0  0  0  0  0  0  0  0
  141.4979   71.8988  228.9522 H   0  0  0  0  0  0  0  0  0  0  0  0
  140.4220   70.1240  228.3180 C   0  0  0  0  0  0  0  0  0  0  0  0
  140.3559   69.7087  229.3344 H   0  0  0  0  0  0  0  0  0  0  0  0
  139.8710   69.4260  227.2420 C   0  0  0  0  0  0  0  0  0  0  0  0
  139.3841   68.4541  227.4101 H   0  0  0  0  0  0  0  0  0  0  0  0
  139.9370   69.9630  225.9420 C   0  0  0  0  0  0  0  0  0  0  0  0
  139.3660   69.3190  224.8360 C   0  0  0  0  0  0  0  0  0  0  0  0
  138.8020   68.1980  224.9990 O   0  0  0  0  0  0  0  0  0  0  0  0
  139.4120   69.8960  223.5850 N   0  0  0  0  0  0  0  0  0  0  0  0
  138.6610   69.2340  222.4900 C   0  0  0  0  0  0  0  0  0  0  0  0
  139.3192   69.1411  221.6136 H   0  0  0  0  0  0  0  0  0  0  0  0
  138.3356   68.2467  222.8497 H   0  0  0  0  0  0  0  0  0  0  0  0
  137.3930   70.0390  222.0830 C   0  0  0  0  0  0  0  0  0  0  0  0
  137.6090   70.4773  221.0975 H   0  0  0  0  0  0  0  0  0  0  0  0
  137.1160   71.2000  223.0790 C   0  0  0  0  0  0  0  0  0  0  0  0
  138.0347   71.3845  223.6552 H   0  0  0  0  0  0  0  0  0  0  0  0
  136.8066   72.0642  222.4728 H   0  0  0  0  0  0  0  0  0  0  0  0
  135.9700   70.9310  224.0740 C   0  0  0  0  0  0  0  0  0  0  0  0
  136.1486   71.5166  224.9879 H   0  0  0  0  0  0  0  0  0  0  0  0
  135.0259   71.2238  223.5914 H   0  0  0  0  0  0  0  0  0  0  0  0
  135.8700   69.4540  224.4470 C   0  0  0  0  0  0  0  0  0  0  0  0
  136.8168   69.1404  224.9110 H   0  0  0  0  0  0  0  0  0  0  0  0
  135.0264   69.3367  225.1432 H   0  0  0  0  0  0  0  0  0  0  0  0
  135.5990   68.5620  223.2170 C   0  0  0  0  0  0  0  0  0  0  0  0
  136.0741   67.5844  223.3858 H   0  0  0  0  0  0  0  0  0  0  0  0
  134.5069   68.4857  223.1102 H   0  0  0  0  0  0  0  0  0  0  0  0
  136.1410   69.1450  221.8950 C   0  0  0  0  0  0  0  0  0  0  0  0
  136.4054   68.3107  221.2287 H   0  0  0  0  0  0  0  0  0  0  0  0
  135.3491   69.7807  221.4721 H   0  0  0  0  0  0  0  0  0  0  0  0
  142.3330   72.7900  221.0940 C   0  0  0  0  0  0  0  0  0  0  0  0
  142.8310   73.9840  220.5570 C   0  0  0  0  0  0  0  0  0  0  0  0
  142.3245   74.9367  220.7710 H   0  0  0  0  0  0  0  0  0  0  0  0
  143.9690   73.9650  219.7510 C   0  0  0  0  0  0  0  0  0  0  0  0
  144.3730   74.9084  219.3551 H   0  0  0  0  0  0  0  0  0  0  0  0
  144.6070   72.7440  219.4390 C   0  0  0  0  0  0  0  0  0  0  0  0
  145.7360   72.6820  218.6060 O   0  0  0  0  0  0  0  0  0  0  0  0
  145.8260   73.3170  217.3350 C   0  0  0  0  0  0  0  0  0  0  0  0
  145.9791   74.3973  217.4749 H   0  0  0  0  0  0  0  0  0  0  0  0
  146.6735   72.8961  216.7740 H   0  0  0  0  0  0  0  0  0  0  0  0
  144.8950   73.1482  216.7740 H   0  0  0  0  0  0  0  0  0  0  0  0
  144.1000   71.5440  219.9620 C   0  0  0  0  0  0  0  0  0  0  0  0
  144.7220   70.3440  219.5910 O   0  0  0  0  0  0  0  0  0  0  0  0
  144.1100   69.0570  219.6870 C   0  0  0  0  0  0  0  0  0  0  0  0
  143.9828   68.7896  220.7464 H   0  0  0  0  0  0  0  0  0  0  0  0
  143.1268   69.0808  219.1943 H   0  0  0  0  0  0  0  0  0  0  0  0
  144.7490   68.3094  219.1943 H   0  0  0  0  0  0  0  0  0  0  0  0
  142.9830   71.5740  220.8180 C   0  0  0  0  0  0  0  0  0  0  0  0
  142.6169   70.6419  221.2731 H   0  0  0  0  0  0  0  0  0  0  0  0
  1  2  1  0
  2  3  2  0
  3  4  1  0
  3  5  1  0
  5  6  2  0
  6  7  1  0
  7  8  2  0
  8  9  1  0
  8 10  1  0
 10 11  1  0
 10 12  2  0
 12 13  1  0
 12 14  1  0
 14 15  1  0
 14 16  2  0
 16 17  1  0
 17 18  2  0
 17 19  1  0
 19 20  1  0
 20 21  1  0
 20 22  1  0
 20 23  1  0
 23 24  1  0
 23 25  1  0
 25 26  1  0
 25 27  1  0
 25 28  1  0
 28 29  1  0
 28 30  1  0
 28 31  1  0
 31 32  1  0
 31 33  1  0
 31 34  1  0
 34 35  1  0
 34 36  1  0
 34 37  1  0
 37 38  1  0
 37 39  1  0
  2 40  1  0
 40 41  2  0
 41 42  1  0
 41 43  1  0
 43 44  1  0
 43 45  2  0
 45 46  1  0
 46 47  1  0
 47 48  1  0
 47 49  1  0
 47 50  1  0
 45 51  1  0
 51 52  1  0
 52 53  1  0
 53 54  1  0
 53 55  1  0
 53 56  1  0
 51 57  2  0
 57 58  1  0
 19  5  1  0
 37 23  1  0
 57 40  1  0
 16  7  1  0
M  END
>  <UniqueID>  (58) 
67

>  <SMILES>  (58) 
COc1ccc(/C=C/c2nc3ccccc3c(=O)n2CC2CCCCC2)cc1OC

>  <Energy>  (58) 
76.31808002395869

>  <Genealogy>  (58) 
COc1ccc(/C=C/c2nc3ccccc3c(=O)n2CC2CCCCC2)cc1OC (cis-trans isomerization)
COc1ccc(/C=C/c2nc3ccccc3c(=O)n2CC2CCCCC2)cc1OC (3D coordinates assigned)
COc1ccc(/C=C/c2nc3ccccc3c(=O)n2CC2CCCCC2)cc1OC (nonaromatic ring conformer: 76.31808002395869 kcal/mol)

>  <smiles>  (58) 
COc1ccc(/C=C/c2nc3ccccc3c(=O)n2CC2CCCCC2)cc1OC

>  <score_type>  (58) 
oracle

>  <origin>  (58) 
autodockgpu

>  <m_score__min__energy>  (58) 
-7.5199999999999996

>  <m_primary>  (58) 
energy

>  <meeko>  (58) 
{"free_energy": -7.46, "intermolecular_energy": -9.55, "internal_energy": -1.67, "cluster_size": 7, "cluster_id": 1, "rank_in_cluster": 2}

>  <energy>  (58) 
-6.99

>  <cluster_rmsd>  (58) 
0.57

>  <rmsd>  (58) 
269.2

>  <cluster>  (58) 
5

$$$$
CHYZURNRBYISSB-FYWRMAATNA-N
     RDKit          3D

 58 61  0  0  0  0  0  0  0  0999 V2000
  142.7155   77.3710  218.0849 H   0  0  0  0  0  0  0  0  0  0  0  0
  142.8410   76.7630  218.9930 C   0  0  0  0  0  0  0  0  0  0  0  0
  142.2460   77.1490  220.1290 C   0  0  0  0  0  0  0  0  0  0  0  0
  142.5386   78.1034  220.5911 H   0  0  0  0  0  0  0  0  0  0  0  0
  141.1980   76.3170  220.7810 C   0  0  0  0  0  0  0  0  0  0  0  0
  141.3450   74.9640  220.7000 N   0  0  0  0  0  0  0  0  0  0  0  0
  140.4180   74.1090  221.1730 C   0  0  0  0  0  0  0  0  0  0  0  0
  140.6340   72.7280  221.0910 C   0  0  0  0  0  0  0  0  0  0  0  0
  141.5674   72.3415  220.6557 H   0  0  0  0  0  0  0  0  0  0  0  0
  139.6620   71.8410  221.5630 C   0  0  0  0  0  0  0  0  0  0  0  0
  139.8331   70.7561  221.5014 H   0  0  0  0  0  0  0  0  0  0  0  0
  138.4710   72.3300  222.1140 C   0  0  0  0  0  0  0  0  0  0  0  0
  137.7092   71.6299  222.4875 H   0  0  0  0  0  0  0  0  0  0  0  0
  138.2510   73.7070  222.1890 C   0  0  0  0  0  0  0  0  0  0  0  0
  137.3101   74.0896  222.6114 H   0  0  0  0  0  0  0  0  0  0  0  0
  139.2290   74.6070  221.7260 C   0  0  0  0  0  0  0  0  0  0  0  0
  139.0700   75.9960  221.8120 C   0  0  0  0  0  0  0  0  0  0  0  0
  137.9960   76.4650  222.2900 O   0  0  0  0  0  0  0  0  0  0  0  0
  140.0700   76.8460  221.3900 N   0  0  0  0  0  0  0  0  0  0  0  0
  139.8970   78.2980  221.6470 C   0  0  0  0  0  0  0  0  0  0  0  0
  140.5614   78.8595  220.9737 H   0  0  0  0  0  0  0  0  0  0  0  0
  138.8419   78.5516  221.4672 H   0  0  0  0  0  0  0  0  0  0  0  0
  140.2380   78.6740  223.1180 C   0  0  0  0  0  0  0  0  0  0  0  0
  139.6569   77.9897  223.7536 H   0  0  0  0  0  0  0  0  0  0  0  0
  139.8000   80.1290  223.4470 C   0  0  0  0  0  0  0  0  0  0  0  0
  139.0784   80.4517  222.6821 H   0  0  0  0  0  0  0  0  0  0  0  0
  139.3718   80.1050  224.4599 H   0  0  0  0  0  0  0  0  0  0  0  0
  140.9520   81.1510  223.4830 C   0  0  0  0  0  0  0  0  0  0  0  0
  140.5518   82.1453  223.2358 H   0  0  0  0  0  0  0  0  0  0  0  0
  141.3869   81.1355  224.4932 H   0  0  0  0  0  0  0  0  0  0  0  0
  142.0580   80.8050  222.4900 C   0  0  0  0  0  0  0  0  0  0  0  0
  141.6331   80.7932  221.4755 H   0  0  0  0  0  0  0  0  0  0  0  0
  142.8472   81.5656  222.5828 H   0  0  0  0  0  0  0  0  0  0  0  0
  142.6890   79.4260  222.7820 C   0  0  0  0  0  0  0  0  0  0  0  0
  143.0134   78.9837  221.8285 H   0  0  0  0  0  0  0  0  0  0  0  0
  143.5278   79.5963  223.4729 H   0  0  0  0  0  0  0  0  0  0  0  0
  141.7280   78.4380  223.4750 C   0  0  0  0  0  0  0  0  0  0  0  0
  142.0011   77.4162  223.1728 H   0  0  0  0  0  0  0  0  0  0  0  0
  141.8301   78.5928  224.5593 H   0  0  0  0  0  0  0  0  0  0  0  0
  143.6570   75.5450  218.9360 C   0  0  0  0  0  0  0  0  0  0  0  0
  143.9180   74.9060  217.7180 C   0  0  0  0  0  0  0  0  0  0  0  0
  143.5103   75.3178  216.7830 H   0  0  0  0  0  0  0  0  0  0  0  0
  144.6950   73.7470  217.6890 C   0  0  0  0  0  0  0  0  0  0  0  0
  144.9211   73.2649  216.7265 H   0  0  0  0  0  0  0  0  0  0  0  0
  145.1930   73.1890  218.8870 C   0  0  0  0  0  0  0  0  0  0  0  0
  145.9510   72.0070  218.9010 O   0  0  0  0  0  0  0  0  0  0  0  0
  145.3900   70.6980  218.9340 C   0  0  0  0  0  0  0  0  0  0  0  0
  145.2551   70.3832  219.9793 H   0  0  0  0  0  0  0  0  0  0  0  0
  144.4153   70.7038  218.4241 H   0  0  0  0  0  0  0  0  0  0  0  0
  146.0664   69.9962  218.4241 H   0  0  0  0  0  0  0  0  0  0  0  0
  144.9180   73.8170  220.1120 C   0  0  0  0  0  0  0  0  0  0  0  0
  145.3800   73.2080  221.2870 O   0  0  0  0  0  0  0  0  0  0  0  0
  146.6900   73.3890  221.8260 C   0  0  0  0  0  0  0  0  0  0  0  0
  146.6386   73.3819  222.9248 H   0  0  0  0  0  0  0  0  0  0  0  0
  147.3432   72.5726  221.4842 H   0  0  0  0  0  0  0  0  0  0  0  0
  147.0973   74.3520  221.4842 H   0  0  0  0  0  0  0  0  0  0  0  0
  144.1790   75.0140  220.1300 C   0  0  0  0  0  0  0  0  0  0  0  0
  144.0084   75.5375  221.0823 H   0  0  0  0  0  0  0  0  0  0  0  0
  1  2  1  0
  2  3  2  0
  3  4  1  0
  3  5  1  0
  5  6  2  0
  6  7  1  0
  7  8  2  0
  8  9  1  0
  8 10  1  0
 10 11  1  0
 10 12  2  0
 12 13  1  0
 12 14  1  0
 14 15  1  0
 14 16  2  0
 16 17  1  0
 17 18  2  0
 17 19  1  0
 19 20  1  0
 20 21  1  0
 20 22  1  0
 20 23  1  0
 23 24  1  0
 23 25  1  0
 25 26  1  0
 25 27  1  0
 25 28  1  0
 28 29  1  0
 28 30  1  0
 28 31  1  0
 31 32  1  0
 31 33  1  0
 31 34  1  0
 34 35  1  0
 34 36  1  0
 34 37  1  0
 37 38  1  0
 37 39  1  0
  2 40  1  0
 40 41  2  0
 41 42  1  0
 41 43  1  0
 43 44  1  0
 43 45  2  0
 45 46  1  0
 46 47  1  0
 47 48  1  0
 47 49  1  0
 47 50  1  0
 45 51  1  0
 51 52  1  0
 52 53  1  0
 53 54  1  0
 53 55  1  0
 53 56  1  0
 51 57  2  0
 57 58  1  0
 19  5  1  0
 37 23  1  0
 57 40  1  0
 16  7  1  0
M  END
>  <UniqueID>  (59) 
67

>  <SMILES>  (59) 
COc1ccc(/C=C/c2nc3ccccc3c(=O)n2CC2CCCCC2)cc1OC

>  <Energy>  (59) 
76.31808002395869

>  <Genealogy>  (59) 
COc1ccc(/C=C/c2nc3ccccc3c(=O)n2CC2CCCCC2)cc1OC (cis-trans isomerization)
COc1ccc(/C=C/c2nc3ccccc3c(=O)n2CC2CCCCC2)cc1OC (3D coordinates assigned)
COc1ccc(/C=C/c2nc3ccccc3c(=O)n2CC2CCCCC2)cc1OC (nonaromatic ring conformer: 76.31808002395869 kcal/mol)

>  <smiles>  (59) 
COc1ccc(/C=C/c2nc3ccccc3c(=O)n2CC2CCCCC2)cc1OC

>  <score_type>  (59) 
oracle

>  <origin>  (59) 
autodockgpu

>  <m_score__min__energy>  (59) 
-7.5199999999999996

>  <m_primary>  (59) 
energy

>  <meeko>  (59) 
{"free_energy": -7.03, "intermolecular_energy": -9.12, "internal_energy": -1.8, "cluster_size": 1, "cluster_id": 4, "rank_in_cluster": 1}

>  <energy>  (59) 
-6.93

>  <cluster_rmsd>  (59) 
0.77

>  <rmsd>  (59) 
269.21

>  <cluster>  (59) 
5

$$$$
CHYZURNRBYISSB-FYWRMAATNA-N
     RDKit          3D

 58 61  0  0  0  0  0  0  0  0999 V2000
  138.6254   73.3475  222.1925 H   0  0  0  0  0  0  0  0  0  0  0  0
  139.3310   72.5130  222.0670 C   0  0  0  0  0  0  0  0  0  0  0  0
  138.9390   71.2710  222.3740 C   0  0  0  0  0  0  0  0  0  0  0  0
  138.4126   70.6712  221.6170 H   0  0  0  0  0  0  0  0  0  0  0  0
  139.1990   70.6820  223.7170 C   0  0  0  0  0  0  0  0  0  0  0  0
  139.8580   71.4650  224.6170 N   0  0  0  0  0  0  0  0  0  0  0  0
  140.2280   71.0130  225.8310 C   0  0  0  0  0  0  0  0  0  0  0  0
  140.8770   71.8690  226.7290 C   0  0  0  0  0  0  0  0  0  0  0  0
  141.0703   72.9152  226.4497 H   0  0  0  0  0  0  0  0  0  0  0  0
  141.2790   71.3940  227.9800 C   0  0  0  0  0  0  0  0  0  0  0  0
  141.7865   72.0679  228.6859 H   0  0  0  0  0  0  0  0  0  0  0  0
  141.0370   70.0610  228.3370 C   0  0  0  0  0  0  0  0  0  0  0  0
  141.3501   69.6903  229.3242 H   0  0  0  0  0  0  0  0  0  0  0  0
  140.3980   69.2030  227.4390 C   0  0  0  0  0  0  0  0  0  0  0  0
  140.2207   68.1531  227.7153 H   0  0  0  0  0  0  0  0  0  0  0  0
  139.9800   69.6780  226.1810 C   0  0  0  0  0  0  0  0  0  0  0  0
  139.3030   68.8660  225.2620 C   0  0  0  0  0  0  0  0  0  0  0  0
  139.0880   67.6530  225.5520 O   0  0  0  0  0  0  0  0  0  0  0  0
  138.8690   69.3790  224.0580 N   0  0  0  0  0  0  0  0  0  0  0  0
  138.0310   68.5070  223.1980 C   0  0  0  0  0  0  0  0  0  0  0  0
  137.3366   67.9408  223.8361 H   0  0  0  0  0  0  0  0  0  0  0  0
  137.4872   69.1499  222.4902 H   0  0  0  0  0  0  0  0  0  0  0  0
  138.8880   67.5030  222.3740 C   0  0  0  0  0  0  0  0  0  0  0  0
  139.6760   67.1420  223.0513 H   0  0  0  0  0  0  0  0  0  0  0  0
  139.5710   68.2020  221.1640 C   0  0  0  0  0  0  0  0  0  0  0  0
  139.5518   69.2878  221.3393 H   0  0  0  0  0  0  0  0  0  0  0  0
  140.5903   67.7931  221.1022 H   0  0  0  0  0  0  0  0  0  0  0  0
  138.9050   67.9230  219.8030 C   0  0  0  0  0  0  0  0  0  0  0  0
  139.1024   68.7711  219.1308 H   0  0  0  0  0  0  0  0  0  0  0  0
  139.3289   66.9902  219.4028 H   0  0  0  0  0  0  0  0  0  0  0  0
  137.3950   67.7370  219.9310 C   0  0  0  0  0  0  0  0  0  0  0  0
  136.9589   68.6552  220.3514 H   0  0  0  0  0  0  0  0  0  0  0  0
  136.9934   67.5270  218.9287 H   0  0  0  0  0  0  0  0  0  0  0  0
  137.0320   66.5490  220.8470 C   0  0  0  0  0  0  0  0  0  0  0  0
  136.0801   66.7762  221.3492 H   0  0  0  0  0  0  0  0  0  0  0  0
  136.9667   65.6576  220.2058 H   0  0  0  0  0  0  0  0  0  0  0  0
  138.0930   66.2500  221.9270 C   0  0  0  0  0  0  0  0  0  0  0  0
  137.5854   65.8273  222.8066 H   0  0  0  0  0  0  0  0  0  0  0  0
  138.8157   65.5478  221.4859 H   0  0  0  0  0  0  0  0  0  0  0  0
  140.6840   72.7840  221.5660 C   0  0  0  0  0  0  0  0  0  0  0  0
  141.1160   74.0940  221.3230 C   0  0  0  0  0  0  0  0  0  0  0  0
  140.4383   74.9401  221.5100 H   0  0  0  0  0  0  0  0  0  0  0  0
  142.4050   74.3260  220.8440 C   0  0  0  0  0  0  0  0  0  0  0  0
  142.7494   75.3581  220.6821 H   0  0  0  0  0  0  0  0  0  0  0  0
  143.2720   73.2460  220.5650 C   0  0  0  0  0  0  0  0  0  0  0  0
  144.5650   73.4400  220.0530 O   0  0  0  0  0  0  0  0  0  0  0  0
  145.7450   73.4610  220.8500 C   0  0  0  0  0  0  0  0  0  0  0  0
  145.4685   73.4561  221.9147 H   0  0  0  0  0  0  0  0  0  0  0  0
  146.3550   72.5736  220.6255 H   0  0  0  0  0  0  0  0  0  0  0  0
  146.3230   74.3696  220.6255 H   0  0  0  0  0  0  0  0  0  0  0  0
  142.8350   71.9310  220.7910 C   0  0  0  0  0  0  0  0  0  0  0  0
  143.6980   70.8800  220.4530 O   0  0  0  0  0  0  0  0  0  0  0  0
  143.3810   69.8470  219.5190 C   0  0  0  0  0  0  0  0  0  0  0  0
  143.1007   68.9335  220.0638 H   0  0  0  0  0  0  0  0  0  0  0  0
  142.5405   70.1695  218.8869 H   0  0  0  0  0  0  0  0  0  0  0  0
  144.2577   69.6425  218.8869 H   0  0  0  0  0  0  0  0  0  0  0  0
  141.5530   71.7050  221.3240 C   0  0  0  0  0  0  0  0  0  0  0  0
  141.2285   70.6791  221.5527 H   0  0  0  0  0  0  0  0  0  0  0  0
  1  2  1  0
  2  3  2  0
  3  4  1  0
  3  5  1  0
  5  6  2  0
  6  7  1  0
  7  8  2  0
  8  9  1  0
  8 10  1  0
 10 11  1  0
 10 12  2  0
 12 13  1  0
 12 14  1  0
 14 15  1  0
 14 16  2  0
 16 17  1  0
 17 18  2  0
 17 19  1  0
 19 20  1  0
 20 21  1  0
 20 22  1  0
 20 23  1  0
 23 24  1  0
 23 25  1  0
 25 26  1  0
 25 27  1  0
 25 28  1  0
 28 29  1  0
 28 30  1  0
 28 31  1  0
 31 32  1  0
 31 33  1  0
 31 34  1  0
 34 35  1  0
 34 36  1  0
 34 37  1  0
 37 38  1  0
 37 39  1  0
  2 40  1  0
 40 41  2  0
 41 42  1  0
 41 43  1  0
 43 44  1  0
 43 45  2  0
 45 46  1  0
 46 47  1  0
 47 48  1  0
 47 49  1  0
 47 50  1  0
 45 51  1  0
 51 52  1  0
 52 53  1  0
 53 54  1  0
 53 55  1  0
 53 56  1  0
 51 57  2  0
 57 58  1  0
 19  5  1  0
 37 23  1  0
 57 40  1  0
 16  7  1  0
M  END
>  <UniqueID>  (60) 
67

>  <SMILES>  (60) 
COc1ccc(/C=C/c2nc3ccccc3c(=O)n2CC2CCCCC2)cc1OC

>  <Energy>  (60) 
76.31808002395869

>  <Genealogy>  (60) 
COc1ccc(/C=C/c2nc3ccccc3c(=O)n2CC2CCCCC2)cc1OC (cis-trans isomerization)
COc1ccc(/C=C/c2nc3ccccc3c(=O)n2CC2CCCCC2)cc1OC (3D coordinates assigned)
COc1ccc(/C=C/c2nc3ccccc3c(=O)n2CC2CCCCC2)cc1OC (nonaromatic ring conformer: 76.31808002395869 kcal/mol)

>  <smiles>  (60) 
COc1ccc(/C=C/c2nc3ccccc3c(=O)n2CC2CCCCC2)cc1OC

>  <score_type>  (60) 
oracle

>  <origin>  (60) 
autodockgpu

>  <m_score__min__energy>  (60) 
-7.5199999999999996

>  <m_primary>  (60) 
energy

>  <meeko>  (60) 
{"free_energy": -6.98, "intermolecular_energy": -9.06, "internal_energy": -1.82, "cluster_size": 7, "cluster_id": 1, "rank_in_cluster": 7}

>  <energy>  (60) 
-6.81

>  <cluster_rmsd>  (60) 
0.0

>  <rmsd>  (60) 
269.42

>  <cluster>  (60) 
6

$$$$
CHYZURNRBYISSB-FYWRMAATNA-N
     RDKit          3D

 58 61  0  0  0  0  0  0  0  0999 V2000
  141.7791   72.0517  221.4447 H   0  0  0  0  0  0  0  0  0  0  0  0
  140.7500   72.3030  221.7410 C   0  0  0  0  0  0  0  0  0  0  0  0
  139.9060   71.3200  222.0800 C   0  0  0  0  0  0  0  0  0  0  0  0
  139.2237   70.9122  221.3196 H   0  0  0  0  0  0  0  0  0  0  0  0
  139.8690   70.7660  223.4610 C   0  0  0  0  0  0  0  0  0  0  0  0
  140.4080   71.5350  224.4490 N   0  0  0  0  0  0  0  0  0  0  0  0
  140.5140   71.1050  225.7210 C   0  0  0  0  0  0  0  0  0  0  0  0
  141.0480   71.9470  226.7030 C   0  0  0  0  0  0  0  0  0  0  0  0
  141.3668   72.9664  226.4399 H   0  0  0  0  0  0  0  0  0  0  0  0
  141.1760   71.4920  228.0180 C   0  0  0  0  0  0  0  0  0  0  0  0
  141.5928   72.1557  228.7899 H   0  0  0  0  0  0  0  0  0  0  0  0
  140.7750   70.1930  228.3560 C   0  0  0  0  0  0  0  0  0  0  0  0
  140.8737   69.8385  229.3926 H   0  0  0  0  0  0  0  0  0  0  0  0
  140.2500   69.3490  227.3760 C   0  0  0  0  0  0  0  0  0  0  0  0
  139.9468   68.3251  227.6400 H   0  0  0  0  0  0  0  0  0  0  0  0
  140.1070   69.8030  226.0510 C   0  0  0  0  0  0  0  0  0  0  0  0
  139.5520   69.0060  225.0410 C   0  0  0  0  0  0  0  0  0  0  0  0
  139.1980   67.8230  225.3150 O   0  0  0  0  0  0  0  0  0  0  0  0
  139.3870   69.5020  223.7660 N   0  0  0  0  0  0  0  0  0  0  0  0
  138.6590   68.6580  222.7850 C   0  0  0  0  0  0  0  0  0  0  0  0
  138.8121   69.0720  221.7775 H   0  0  0  0  0  0  0  0  0  0  0  0
  139.0539   67.6340  222.8582 H   0  0  0  0  0  0  0  0  0  0  0  0
  137.1310   68.6070  223.0810 C   0  0  0  0  0  0  0  0  0  0  0  0
  136.9274   67.6039  223.4838 H   0  0  0  0  0  0  0  0  0  0  0  0
  136.2970   68.7850  221.7810 C   0  0  0  0  0  0  0  0  0  0  0  0
  136.9561   68.5938  220.9214 H   0  0  0  0  0  0  0  0  0  0  0  0
  135.4593   68.0753  221.8478 H   0  0  0  0  0  0  0  0  0  0  0  0
  135.6730   70.1830  221.6070 C   0  0  0  0  0  0  0  0  0  0  0  0
  135.5420   70.3820  220.5331 H   0  0  0  0  0  0  0  0  0  0  0  0
  134.7078   70.1917  222.1346 H   0  0  0  0  0  0  0  0  0  0  0  0
  136.5480   71.2800  222.2080 C   0  0  0  0  0  0  0  0  0  0  0  0
  137.5263   71.2686  221.7053 H   0  0  0  0  0  0  0  0  0  0  0  0
  136.0345   72.2415  222.0605 H   0  0  0  0  0  0  0  0  0  0  0  0
  136.7650   71.0850  223.7230 C   0  0  0  0  0  0  0  0  0  0  0  0
  137.7575   71.4801  223.9853 H   0  0  0  0  0  0  0  0  0  0  0  0
  135.9515   71.6193  224.2355 H   0  0  0  0  0  0  0  0  0  0  0  0
  136.6920   69.6110  224.1760 C   0  0  0  0  0  0  0  0  0  0  0  0
  137.3476   69.4822  225.0499 H   0  0  0  0  0  0  0  0  0  0  0  0
  135.6390   69.3956  224.4099 H   0  0  0  0  0  0  0  0  0  0  0  0
  140.3290   73.7090  221.7570 C   0  0  0  0  0  0  0  0  0  0  0  0
  141.2540   74.7420  221.5620 C   0  0  0  0  0  0  0  0  0  0  0  0
  142.3145   74.5054  221.3906 H   0  0  0  0  0  0  0  0  0  0  0  0
  140.8310   76.0710  221.5850 C   0  0  0  0  0  0  0  0  0  0  0  0
  141.5559   76.8780  221.4024 H   0  0  0  0  0  0  0  0  0  0  0  0
  139.4790   76.3880  221.8410 C   0  0  0  0  0  0  0  0  0  0  0  0
  139.0220   77.7150  221.9030 O   0  0  0  0  0  0  0  0  0  0  0  0
  139.1670   78.5570  223.0420 C   0  0  0  0  0  0  0  0  0  0  0  0
  139.0635   77.9562  223.9576 H   0  0  0  0  0  0  0  0  0  0  0  0
  140.1599   79.0302  223.0242 H   0  0  0  0  0  0  0  0  0  0  0  0
  138.3896   79.3351  223.0242 H   0  0  0  0  0  0  0  0  0  0  0  0
  138.5530   75.3550  222.0540 C   0  0  0  0  0  0  0  0  0  0  0  0
  137.2300   75.7040  222.3600 O   0  0  0  0  0  0  0  0  0  0  0  0
  136.2300   74.7760  222.7840 C   0  0  0  0  0  0  0  0  0  0  0  0
  136.1990   74.7472  223.8832 H   0  0  0  0  0  0  0  0  0  0  0  0
  135.2496   75.0915  222.3976 H   0  0  0  0  0  0  0  0  0  0  0  0
  136.4715   73.7748  222.3976 H   0  0  0  0  0  0  0  0  0  0  0  0
  138.9740   74.0150  221.9780 C   0  0  0  0  0  0  0  0  0  0  0  0
  138.2406   73.2031  222.0918 H   0  0  0  0  0  0  0  0  0  0  0  0
  1  2  1  0
  2  3  2  0
  3  4  1  0
  3  5  1  0
  5  6  2  0
  6  7  1  0
  7  8  2  0
  8  9  1  0
  8 10  1  0
 10 11  1  0
 10 12  2  0
 12 13  1  0
 12 14  1  0
 14 15  1  0
 14 16  2  0
 16 17  1  0
 17 18  2  0
 17 19  1  0
 19 20  1  0
 20 21  1  0
 20 22  1  0
 20 23  1  0
 23 24  1  0
 23 25  1  0
 25 26  1  0
 25 27  1  0
 25 28  1  0
 28 29  1  0
 28 30  1  0
 28 31  1  0
 31 32  1  0
 31 33  1  0
 31 34  1  0
 34 35  1  0
 34 36  1  0
 34 37  1  0
 37 38  1  0
 37 39  1  0
  2 40  1  0
 40 41  2  0
 41 42  1  0
 41 43  1  0
 43 44  1  0
 43 45  2  0
 45 46  1  0
 46 47  1  0
 47 48  1  0
 47 49  1  0
 47 50  1  0
 45 51  1  0
 51 52  1  0
 52 53  1  0
 53 54  1  0
 53 55  1  0
 53 56  1  0
 51 57  2  0
 57 58  1  0
 19  5  1  0
 37 23  1  0
 57 40  1  0
 16  7  1  0
M  END
>  <UniqueID>  (61) 
68

>  <SMILES>  (61) 
COc1ccc(/C=C/c2nc3ccccc3c(=O)n2CC2CCCCC2)cc1OC

>  <Energy>  (61) 
80.60838969579834

>  <Genealogy>  (61) 
COc1ccc(/C=C/c2nc3ccccc3c(=O)n2CC2CCCCC2)cc1OC (cis-trans isomerization)
COc1ccc(/C=C/c2nc3ccccc3c(=O)n2CC2CCCCC2)cc1OC (3D coordinates assigned)
COc1ccc(/C=C/c2nc3ccccc3c(=O)n2CC2CCCCC2)cc1OC (nonaromatic ring conformer: 80.60838969579834 kcal/mol)

>  <smiles>  (61) 
COc1ccc(/C=C/c2nc3ccccc3c(=O)n2CC2CCCCC2)cc1OC

>  <score_type>  (61) 
oracle

>  <origin>  (61) 
autodockgpu

>  <m_score__min__energy>  (61) 
-7.5199999999999996

>  <m_primary>  (61) 
energy

>  <meeko>  (61) 
{"free_energy": -6.86, "intermolecular_energy": -8.95, "internal_energy": -2.04, "cluster_size": 5, "cluster_id": 3, "rank_in_cluster": 5}

>  <energy>  (61) 
-7.52

>  <cluster_rmsd>  (61) 
0.0

>  <rmsd>  (61) 
269.58

>  <cluster>  (61) 
1

$$$$
CHYZURNRBYISSB-FYWRMAATNA-N
     RDKit          3D

 58 61  0  0  0  0  0  0  0  0999 V2000
  139.0741   72.0463  220.5770 H   0  0  0  0  0  0  0  0  0  0  0  0
  139.7640   72.4030  221.3560 C   0  0  0  0  0  0  0  0  0  0  0  0
  140.5260   71.5200  222.0120 C   0  0  0  0  0  0  0  0  0  0  0  0
  141.4426   71.1427  221.5351 H   0  0  0  0  0  0  0  0  0  0  0  0
  140.1620   71.0360  223.3730 C   0  0  0  0  0  0  0  0  0  0  0  0
  140.7630   71.6540  224.4280 N   0  0  0  0  0  0  0  0  0  0  0  0
  140.5830   71.2470  225.6990 C   0  0  0  0  0  0  0  0  0  0  0  0
  141.2010   71.9360  226.7500 C   0  0  0  0  0  0  0  0  0  0  0  0
  141.8205   72.8201  226.5388 H   0  0  0  0  0  0  0  0  0  0  0  0
  141.0310   71.5010  228.0660 C   0  0  0  0  0  0  0  0  0  0  0  0
  141.5153   72.0445  228.8907 H   0  0  0  0  0  0  0  0  0  0  0  0
  140.2450   70.3740  228.3380 C   0  0  0  0  0  0  0  0  0  0  0  0
  140.1085   70.0360  229.3758 H   0  0  0  0  0  0  0  0  0  0  0  0
  139.6350   69.6800  227.2920 C   0  0  0  0  0  0  0  0  0  0  0  0
  139.0289   68.7874  227.5062 H   0  0  0  0  0  0  0  0  0  0  0  0
  139.7930   70.1190  225.9630 C   0  0  0  0  0  0  0  0  0  0  0  0
  139.1710   69.4780  224.8840 C   0  0  0  0  0  0  0  0  0  0  0  0
  138.4700   68.4470  225.1000 O   0  0  0  0  0  0  0  0  0  0  0  0
  139.3120   69.9640  223.6020 N   0  0  0  0  0  0  0  0  0  0  0  0
  138.5090   69.3270  222.5280 C   0  0  0  0  0  0  0  0  0  0  0  0
  139.1410   69.2062  221.6358 H   0  0  0  0  0  0  0  0  0  0  0  0
  138.1555   68.3536  222.8989 H   0  0  0  0  0  0  0  0  0  0  0  0
  137.2630   70.1800  222.1500 C   0  0  0  0  0  0  0  0  0  0  0  0
  137.4400   70.5490  221.1289 H   0  0  0  0  0  0  0  0  0  0  0  0
  137.1120   71.4100  223.0900 C   0  0  0  0  0  0  0  0  0  0  0  0
  138.0737   71.5739  223.5982 H   0  0  0  0  0  0  0  0  0  0  0  0
  136.8121   72.2551  222.4530 H   0  0  0  0  0  0  0  0  0  0  0  0
  136.0190   71.2630  224.1650 C   0  0  0  0  0  0  0  0  0  0  0  0
  136.2857   71.8883  225.0298 H   0  0  0  0  0  0  0  0  0  0  0  0
  135.0636   71.5807  223.7220 H   0  0  0  0  0  0  0  0  0  0  0  0
  135.8630   69.8180  224.6320 C   0  0  0  0  0  0  0  0  0  0  0  0
  136.8189   69.4774  225.0566 H   0  0  0  0  0  0  0  0  0  0  0  0
  135.0599   69.7896  225.3831 H   0  0  0  0  0  0  0  0  0  0  0  0
  135.4670   68.8740  223.4770 C   0  0  0  0  0  0  0  0  0  0  0  0
  135.8990   67.8820  223.6755 H   0  0  0  0  0  0  0  0  0  0  0  0
  134.3678   68.8532  223.4411 H   0  0  0  0  0  0  0  0  0  0  0  0
  135.9550   69.3500  222.0920 C   0  0  0  0  0  0  0  0  0  0  0  0
  136.1312   68.4657  221.4619 H   0  0  0  0  0  0  0  0  0  0  0  0
  135.1733   70.0056  221.6808 H   0  0  0  0  0  0  0  0  0  0  0  0
  139.8310   73.8390  221.6560 C   0  0  0  0  0  0  0  0  0  0  0  0
  141.0470   74.5320  221.6040 C   0  0  0  0  0  0  0  0  0  0  0  0
  141.9714   74.0010  221.3328 H   0  0  0  0  0  0  0  0  0  0  0  0
  141.0860   75.8950  221.8960 C   0  0  0  0  0  0  0  0  0  0  0  0
  142.0383   76.4411  221.8260 H   0  0  0  0  0  0  0  0  0  0  0  0
  139.9120   76.5800  222.2810 C   0  0  0  0  0  0  0  0  0  0  0  0
  139.9180   77.9440  222.6120 O   0  0  0  0  0  0  0  0  0  0  0  0
  141.0680   78.6500  223.0700 C   0  0  0  0  0  0  0  0  0  0  0  0
  141.0798   78.6573  224.1699 H   0  0  0  0  0  0  0  0  0  0  0  0
  141.9758   78.1534  222.6968 H   0  0  0  0  0  0  0  0  0  0  0  0
  141.0360   79.6843  222.6968 H   0  0  0  0  0  0  0  0  0  0  0  0
  138.6950   75.8840  222.3500 C   0  0  0  0  0  0  0  0  0  0  0  0
  137.5590   76.5780  222.7880 O   0  0  0  0  0  0  0  0  0  0  0  0
  136.3480   75.9530  223.2170 C   0  0  0  0  0  0  0  0  0  0  0  0
  136.3139   75.9354  224.3163 H   0  0  0  0  0  0  0  0  0  0  0  0
  135.4869   76.5193  222.8325 H   0  0  0  0  0  0  0  0  0  0  0  0
  136.3108   74.9231  222.8325 H   0  0  0  0  0  0  0  0  0  0  0  0
  138.6510   74.5210  222.0030 C   0  0  0  0  0  0  0  0  0  0  0  0
  137.6895   73.9866  222.0032 H   0  0  0  0  0  0  0  0  0  0  0  0
  1  2  1  0
  2  3  2  0
  3  4  1  0
  3  5  1  0
  5  6  2  0
  6  7  1  0
  7  8  2  0
  8  9  1  0
  8 10  1  0
 10 11  1  0
 10 12  2  0
 12 13  1  0
 12 14  1  0
 14 15  1  0
 14 16  2  0
 16 17  1  0
 17 18  2  0
 17 19  1  0
 19 20  1  0
 20 21  1  0
 20 22  1  0
 20 23  1  0
 23 24  1  0
 23 25  1  0
 25 26  1  0
 25 27  1  0
 25 28  1  0
 28 29  1  0
 28 30  1  0
 28 31  1  0
 31 32  1  0
 31 33  1  0
 31 34  1  0
 34 35  1  0
 34 36  1  0
 34 37  1  0
 37 38  1  0
 37 39  1  0
  2 40  1  0
 40 41  2  0
 41 42  1  0
 41 43  1  0
 43 44  1  0
 43 45  2  0
 45 46  1  0
 46 47  1  0
 47 48  1  0
 47 49  1  0
 47 50  1  0
 45 51  1  0
 51 52  1  0
 52 53  1  0
 53 54  1  0
 53 55  1  0
 53 56  1  0
 51 57  2  0
 57 58  1  0
 19  5  1  0
 37 23  1  0
 57 40  1  0
 16  7  1  0
M  END
>  <UniqueID>  (62) 
68

>  <SMILES>  (62) 
COc1ccc(/C=C/c2nc3ccccc3c(=O)n2CC2CCCCC2)cc1OC

>  <Energy>  (62) 
80.60838969579834

>  <Genealogy>  (62) 
COc1ccc(/C=C/c2nc3ccccc3c(=O)n2CC2CCCCC2)cc1OC (cis-trans isomerization)
COc1ccc(/C=C/c2nc3ccccc3c(=O)n2CC2CCCCC2)cc1OC (3D coordinates assigned)
COc1ccc(/C=C/c2nc3ccccc3c(=O)n2CC2CCCCC2)cc1OC (nonaromatic ring conformer: 80.60838969579834 kcal/mol)

>  <smiles>  (62) 
COc1ccc(/C=C/c2nc3ccccc3c(=O)n2CC2CCCCC2)cc1OC

>  <score_type>  (62) 
oracle

>  <origin>  (62) 
autodockgpu

>  <m_score__min__energy>  (62) 
-7.5199999999999996

>  <m_primary>  (62) 
energy

>  <meeko>  (62) 
{"free_energy": -6.92, "intermolecular_energy": -9.01, "internal_energy": -2.09, "cluster_size": 5, "cluster_id": 3, "rank_in_cluster": 4}

>  <energy>  (62) 
-7.46

>  <cluster_rmsd>  (62) 
0.29

>  <rmsd>  (62) 
269.56

>  <cluster>  (62) 
1

$$$$
CHYZURNRBYISSB-FYWRMAATNA-N
     RDKit          3D

 58 61  0  0  0  0  0  0  0  0999 V2000
  136.4548   71.3590  221.7250 H   0  0  0  0  0  0  0  0  0  0  0  0
  136.8680   71.6400  222.7050 C   0  0  0  0  0  0  0  0  0  0  0  0
  138.1750   71.4680  222.9400 C   0  0  0  0  0  0  0  0  0  0  0  0
  138.9069   71.8767  222.2278 H   0  0  0  0  0  0  0  0  0  0  0  0
  138.6610   70.7370  224.1420 C   0  0  0  0  0  0  0  0  0  0  0  0
  139.3680   71.4560  225.0580 N   0  0  0  0  0  0  0  0  0  0  0  0
  139.9340   70.8880  226.1400 C   0  0  0  0  0  0  0  0  0  0  0  0
  140.6240   71.6780  227.0670 C   0  0  0  0  0  0  0  0  0  0  0  0
  140.6900   72.7663  226.9210 H   0  0  0  0  0  0  0  0  0  0  0  0
  141.2290   71.0840  228.1780 C   0  0  0  0  0  0  0  0  0  0  0  0
  141.7685   71.7063  228.9072 H   0  0  0  0  0  0  0  0  0  0  0  0
  141.1500   69.6990  228.3650 C   0  0  0  0  0  0  0  0  0  0  0  0
  141.6228   69.2346  229.2430 H   0  0  0  0  0  0  0  0  0  0  0  0
  140.4710   68.9070  227.4370 C   0  0  0  0  0  0  0  0  0  0  0  0
  140.4218   67.8172  227.5781 H   0  0  0  0  0  0  0  0  0  0  0  0
  139.8490   69.4990  226.3210 C   0  0  0  0  0  0  0  0  0  0  0  0
  139.1240   68.7520  225.3830 C   0  0  0  0  0  0  0  0  0  0  0  0
  139.0520   67.4960  225.5190 O   0  0  0  0  0  0  0  0  0  0  0  0
  138.4900   69.3730  224.3280 N   0  0  0  0  0  0  0  0  0  0  0  0
  137.6200   68.5420  223.4590 C   0  0  0  0  0  0  0  0  0  0  0  0
  137.0070   67.8855  224.0940 H   0  0  0  0  0  0  0  0  0  0  0  0
  136.9909   69.2183  222.8617 H   0  0  0  0  0  0  0  0  0  0  0  0
  138.4470   67.6620  222.4770 C   0  0  0  0  0  0  0  0  0  0  0  0
  139.0821   67.0158  223.1007 H   0  0  0  0  0  0  0  0  0  0  0  0
  139.3730   68.5320  221.5810 C   0  0  0  0  0  0  0  0  0  0  0  0
  139.4693   69.5234  222.0477 H   0  0  0  0  0  0  0  0  0  0  0  0
  140.3302   67.9949  221.5077 H   0  0  0  0  0  0  0  0  0  0  0  0
  138.8700   68.7270  220.1380 C   0  0  0  0  0  0  0  0  0  0  0  0
  139.2654   69.6772  219.7497 H   0  0  0  0  0  0  0  0  0  0  0  0
  139.2212   67.8744  219.5382 H   0  0  0  0  0  0  0  0  0  0  0  0
  137.3460   68.7600  220.0620 C   0  0  0  0  0  0  0  0  0  0  0  0
  136.9784   69.5956  220.6758 H   0  0  0  0  0  0  0  0  0  0  0  0
  137.0624   68.8846  219.0065 H   0  0  0  0  0  0  0  0  0  0  0  0
  136.7100   67.4500  220.5730 C   0  0  0  0  0  0  0  0  0  0  0  0
  135.7358   67.6898  221.0241 H   0  0  0  0  0  0  0  0  0  0  0  0
  136.6175   66.7783  219.7068 H   0  0  0  0  0  0  0  0  0  0  0  0
  137.5660   66.7140  221.6250 C   0  0  0  0  0  0  0  0  0  0  0  0
  136.8927   66.1645  222.2993 H   0  0  0  0  0  0  0  0  0  0  0  0
  138.2460   66.0443  221.0781 H   0  0  0  0  0  0  0  0  0  0  0  0
  135.9760   72.1960  223.7290 C   0  0  0  0  0  0  0  0  0  0  0  0
  135.7960   73.5800  223.8560 C   0  0  0  0  0  0  0  0  0  0  0  0
  136.3257   74.2679  223.1806 H   0  0  0  0  0  0  0  0  0  0  0  0
  134.9450   74.0850  224.8390 C   0  0  0  0  0  0  0  0  0  0  0  0
  134.7837   75.1704  224.9160 H   0  0  0  0  0  0  0  0  0  0  0  0
  134.2890   73.2140  225.7360 C   0  0  0  0  0  0  0  0  0  0  0  0
  133.4510   73.6880  226.7580 O   0  0  0  0  0  0  0  0  0  0  0  0
  132.0590   73.3990  226.8480 C   0  0  0  0  0  0  0  0  0  0  0  0
  131.7649   73.3379  227.9062 H   0  0  0  0  0  0  0  0  0  0  0  0
  131.4861   74.1973  226.3537 H   0  0  0  0  0  0  0  0  0  0  0  0
  131.8512   72.4386  226.3537 H   0  0  0  0  0  0  0  0  0  0  0  0
  134.4820   71.8280  225.6240 C   0  0  0  0  0  0  0  0  0  0  0  0
  133.8610   70.9940  226.5630 O   0  0  0  0  0  0  0  0  0  0  0  0
  134.3120   70.8190  227.9070 C   0  0  0  0  0  0  0  0  0  0  0  0
  133.5180   71.1271  228.6032 H   0  0  0  0  0  0  0  0  0  0  0  0
  134.5577   69.7603  228.0764 H   0  0  0  0  0  0  0  0  0  0  0  0
  135.2075   71.4349  228.0764 H   0  0  0  0  0  0  0  0  0  0  0  0
  135.2990   71.3210  224.5970 C   0  0  0  0  0  0  0  0  0  0  0  0
  135.4089   70.2336  224.4723 H   0  0  0  0  0  0  0  0  0  0  0  0
  1  2  1  0
  2  3  2  0
  3  4  1  0
  3  5  1  0
  5  6  2  0
  6  7  1  0
  7  8  2  0
  8  9  1  0
  8 10  1  0
 10 11  1  0
 10 12  2  0
 12 13  1  0
 12 14  1  0
 14 15  1  0
 14 16  2  0
 16 17  1  0
 17 18  2  0
 17 19  1  0
 19 20  1  0
 20 21  1  0
 20 22  1  0
 20 23  1  0
 23 24  1  0
 23 25  1  0
 25 26  1  0
 25 27  1  0
 25 28  1  0
 28 29  1  0
 28 30  1  0
 28 31  1  0
 31 32  1  0
 31 33  1  0
 31 34  1  0
 34 35  1  0
 34 36  1  0
 34 37  1  0
 37 38  1  0
 37 39  1  0
  2 40  1  0
 40 41  2  0
 41 42  1  0
 41 43  1  0
 43 44  1  0
 43 45  2  0
 45 46  1  0
 46 47  1  0
 47 48  1  0
 47 49  1  0
 47 50  1  0
 45 51  1  0
 51 52  1  0
 52 53  1  0
 53 54  1  0
 53 55  1  0
 53 56  1  0
 51 57  2  0
 57 58  1  0
 19  5  1  0
 37 23  1  0
 57 40  1  0
 16  7  1  0
M  END
>  <UniqueID>  (63) 
68

>  <SMILES>  (63) 
COc1ccc(/C=C/c2nc3ccccc3c(=O)n2CC2CCCCC2)cc1OC

>  <Energy>  (63) 
80.60838969579834

>  <Genealogy>  (63) 
COc1ccc(/C=C/c2nc3ccccc3c(=O)n2CC2CCCCC2)cc1OC (cis-trans isomerization)
COc1ccc(/C=C/c2nc3ccccc3c(=O)n2CC2CCCCC2)cc1OC (3D coordinates assigned)
COc1ccc(/C=C/c2nc3ccccc3c(=O)n2CC2CCCCC2)cc1OC (nonaromatic ring conformer: 80.60838969579834 kcal/mol)

>  <smiles>  (63) 
COc1ccc(/C=C/c2nc3ccccc3c(=O)n2CC2CCCCC2)cc1OC

>  <score_type>  (63) 
oracle

>  <origin>  (63) 
autodockgpu

>  <m_score__min__energy>  (63) 
-7.5199999999999996

>  <m_primary>  (63) 
energy

>  <meeko>  (63) 
{"free_energy": -6.93, "intermolecular_energy": -9.02, "internal_energy": -1.99, "cluster_size": 3, "cluster_id": 5, "rank_in_cluster": 3}

>  <energy>  (63) 
-7.38

>  <cluster_rmsd>  (63) 
0.59

>  <rmsd>  (63) 
269.52

>  <cluster>  (63) 
1

$$$$
CHYZURNRBYISSB-FYWRMAATNA-N
     RDKit          3D

 58 61  0  0  0  0  0  0  0  0999 V2000
  134.6135   68.3606  224.1597 H   0  0  0  0  0  0  0  0  0  0  0  0
  135.2750   69.2390  224.1870 C   0  0  0  0  0  0  0  0  0  0  0  0
  136.4580   69.1890  223.5640 C   0  0  0  0  0  0  0  0  0  0  0  0
  136.4890   68.9584  222.4889 H   0  0  0  0  0  0  0  0  0  0  0  0
  137.7340   69.4380  224.2910 C   0  0  0  0  0  0  0  0  0  0  0  0
  138.1300   68.4890  225.1850 N   0  0  0  0  0  0  0  0  0  0  0  0
  139.2160   68.6430  225.9660 C   0  0  0  0  0  0  0  0  0  0  0  0
  139.5960   67.6230  226.8460 C   0  0  0  0  0  0  0  0  0  0  0  0
  139.0172   66.6886  226.8885 H   0  0  0  0  0  0  0  0  0  0  0  0
  140.7120   67.7930  227.6710 C   0  0  0  0  0  0  0  0  0  0  0  0
  141.0120   66.9900  228.3604 H   0  0  0  0  0  0  0  0  0  0  0  0
  141.4490   68.9830  227.6220 C   0  0  0  0  0  0  0  0  0  0  0  0
  142.3290   69.1124  228.2692 H   0  0  0  0  0  0  0  0  0  0  0  0
  141.0660   70.0050  226.7510 C   0  0  0  0  0  0  0  0  0  0  0  0
  141.6379   70.9442  226.7226 H   0  0  0  0  0  0  0  0  0  0  0  0
  139.9500   69.8370  225.9090 C   0  0  0  0  0  0  0  0  0  0  0  0
  139.5490   70.8180  224.9920 C   0  0  0  0  0  0  0  0  0  0  0  0
  140.1870   71.9100  224.9400 O   0  0  0  0  0  0  0  0  0  0  0  0
  138.4790   70.6000  224.1520 N   0  0  0  0  0  0  0  0  0  0  0  0
  138.2010   71.6160  223.1070 C   0  0  0  0  0  0  0  0  0  0  0  0
  137.1149   71.6653  222.9396 H   0  0  0  0  0  0  0  0  0  0  0  0
  138.5937   72.5814  223.4588 H   0  0  0  0  0  0  0  0  0  0  0  0
  138.9020   71.2740  221.7600 C   0  0  0  0  0  0  0  0  0  0  0  0
  138.5137   70.2923  221.4509 H   0  0  0  0  0  0  0  0  0  0  0  0
  140.4420   71.1510  221.9380 C   0  0  0  0  0  0  0  0  0  0  0  0
  140.6545   71.0226  223.0096 H   0  0  0  0  0  0  0  0  0  0  0  0
  140.7588   70.2910  221.3297 H   0  0  0  0  0  0  0  0  0  0  0  0
  141.2440   72.3640  221.4310 C   0  0  0  0  0  0  0  0  0  0  0  0
  142.1841   72.4299  221.9984 H   0  0  0  0  0  0  0  0  0  0  0  0
  141.4350   72.2189  220.3575 H   0  0  0  0  0  0  0  0  0  0  0  0
  140.4750   73.6720  221.5990 C   0  0  0  0  0  0  0  0  0  0  0  0
  140.2568   73.8205  222.6669 H   0  0  0  0  0  0  0  0  0  0  0  0
  141.1001   74.4856  221.2023 H   0  0  0  0  0  0  0  0  0  0  0  0
  139.1450   73.6690  220.8150 C   0  0  0  0  0  0  0  0  0  0  0  0
  138.4175   74.2858  221.3630 H   0  0  0  0  0  0  0  0  0  0  0  0
  139.3619   74.0667  219.8126 H   0  0  0  0  0  0  0  0  0  0  0  0
  138.5420   72.2610  220.6210 C   0  0  0  0  0  0  0  0  0  0  0  0
  137.4470   72.3543  220.5739 H   0  0  0  0  0  0  0  0  0  0  0  0
  138.9654   71.8521  219.6917 H   0  0  0  0  0  0  0  0  0  0  0  0
  134.8430   70.4430  224.9060 C   0  0  0  0  0  0  0  0  0  0  0  0
  134.1350   70.3510  226.1110 C   0  0  0  0  0  0  0  0  0  0  0  0
  133.8958   69.3642  226.5340 H   0  0  0  0  0  0  0  0  0  0  0  0
  133.7330   71.5100  226.7750 C   0  0  0  0  0  0  0  0  0  0  0  0
  133.2032   71.4326  227.7359 H   0  0  0  0  0  0  0  0  0  0  0  0
  134.0010   72.7820  226.2230 C   0  0  0  0  0  0  0  0  0  0  0  0
  133.5830   73.9690  226.8460 O   0  0  0  0  0  0  0  0  0  0  0  0
  132.2430   74.2320  227.2490 C   0  0  0  0  0  0  0  0  0  0  0  0
  132.1860   74.2432  228.3475 H   0  0  0  0  0  0  0  0  0  0  0  0
  131.9269   75.2093  226.8554 H   0  0  0  0  0  0  0  0  0  0  0  0
  131.5809   73.4467  226.8554 H   0  0  0  0  0  0  0  0  0  0  0  0
  134.6940   72.8770  225.0060 C   0  0  0  0  0  0  0  0  0  0  0  0
  134.8960   74.1510  224.4570 O   0  0  0  0  0  0  0  0  0  0  0  0
  135.8050   74.4330  223.3920 C   0  0  0  0  0  0  0  0  0  0  0  0
  136.7769   74.7345  223.8097 H   0  0  0  0  0  0  0  0  0  0  0  0
  135.9352   73.5330  222.7731 H   0  0  0  0  0  0  0  0  0  0  0  0
  135.4029   75.2486  222.7731 H   0  0  0  0  0  0  0  0  0  0  0  0
  135.1440   71.7070  224.3680 C   0  0  0  0  0  0  0  0  0  0  0  0
  135.7347   71.7811  223.4430 H   0  0  0  0  0  0  0  0  0  0  0  0
  1  2  1  0
  2  3  2  0
  3  4  1  0
  3  5  1  0
  5  6  2  0
  6  7  1  0
  7  8  2  0
  8  9  1  0
  8 10  1  0
 10 11  1  0
 10 12  2  0
 12 13  1  0
 12 14  1  0
 14 15  1  0
 14 16  2  0
 16 17  1  0
 17 18  2  0
 17 19  1  0
 19 20  1  0
 20 21  1  0
 20 22  1  0
 20 23  1  0
 23 24  1  0
 23 25  1  0
 25 26  1  0
 25 27  1  0
 25 28  1  0
 28 29  1  0
 28 30  1  0
 28 31  1  0
 31 32  1  0
 31 33  1  0
 31 34  1  0
 34 35  1  0
 34 36  1  0
 34 37  1  0
 37 38  1  0
 37 39  1  0
  2 40  1  0
 40 41  2  0
 41 42  1  0
 41 43  1  0
 43 44  1  0
 43 45  2  0
 45 46  1  0
 46 47  1  0
 47 48  1  0
 47 49  1  0
 47 50  1  0
 45 51  1  0
 51 52  1  0
 52 53  1  0
 53 54  1  0
 53 55  1  0
 53 56  1  0
 51 57  2  0
 57 58  1  0
 19  5  1  0
 37 23  1  0
 57 40  1  0
 16  7  1  0
M  END
>  <UniqueID>  (64) 
68

>  <SMILES>  (64) 
COc1ccc(/C=C/c2nc3ccccc3c(=O)n2CC2CCCCC2)cc1OC

>  <Energy>  (64) 
80.60838969579834

>  <Genealogy>  (64) 
COc1ccc(/C=C/c2nc3ccccc3c(=O)n2CC2CCCCC2)cc1OC (cis-trans isomerization)
COc1ccc(/C=C/c2nc3ccccc3c(=O)n2CC2CCCCC2)cc1OC (3D coordinates assigned)
COc1ccc(/C=C/c2nc3ccccc3c(=O)n2CC2CCCCC2)cc1OC (nonaromatic ring conformer: 80.60838969579834 kcal/mol)

>  <smiles>  (64) 
COc1ccc(/C=C/c2nc3ccccc3c(=O)n2CC2CCCCC2)cc1OC

>  <score_type>  (64) 
oracle

>  <origin>  (64) 
autodockgpu

>  <m_score__min__energy>  (64) 
-7.5199999999999996

>  <m_primary>  (64) 
energy

>  <meeko>  (64) 
{"free_energy": -6.81, "intermolecular_energy": -8.9, "internal_energy": -1.97, "cluster_size": 1, "cluster_id": 6, "rank_in_cluster": 1}

>  <energy>  (64) 
-7.3

>  <cluster_rmsd>  (64) 
1.13

>  <rmsd>  (64) 
269.64

>  <cluster>  (64) 
1

$$$$
CHYZURNRBYISSB-FYWRMAATNA-N
     RDKit          3D

 58 61  0  0  0  0  0  0  0  0999 V2000
  137.9275   72.5342  221.8636 H   0  0  0  0  0  0  0  0  0  0  0  0
  139.0100   72.6630  222.0110 C   0  0  0  0  0  0  0  0  0  0  0  0
  139.7740   71.5870  222.2370 C   0  0  0  0  0  0  0  0  0  0  0  0
  140.4137   71.2030  221.4287 H   0  0  0  0  0  0  0  0  0  0  0  0
  139.7780   70.8980  223.5570 C   0  0  0  0  0  0  0  0  0  0  0  0
  140.3140   71.5810  224.6070 N   0  0  0  0  0  0  0  0  0  0  0  0
  140.4540   71.0300  225.8280 C   0  0  0  0  0  0  0  0  0  0  0  0
  140.9830   71.7860  226.8810 C   0  0  0  0  0  0  0  0  0  0  0  0
  141.2679   72.8355  226.7158 H   0  0  0  0  0  0  0  0  0  0  0  0
  141.1490   71.2070  228.1420 C   0  0  0  0  0  0  0  0  0  0  0  0
  141.5632   71.8023  228.9691 H   0  0  0  0  0  0  0  0  0  0  0  0
  140.7890   69.8700  228.3550 C   0  0  0  0  0  0  0  0  0  0  0  0
  140.9152   69.4178  229.3498 H   0  0  0  0  0  0  0  0  0  0  0  0
  140.2700   69.1120  227.3040 C   0  0  0  0  0  0  0  0  0  0  0  0
  140.0007   68.0583  227.4691 H   0  0  0  0  0  0  0  0  0  0  0  0
  140.0900   69.6910  226.0340 C   0  0  0  0  0  0  0  0  0  0  0  0
  139.5380   68.9820  224.9580 C   0  0  0  0  0  0  0  0  0  0  0  0
  139.2220   67.7670  225.1190 O   0  0  0  0  0  0  0  0  0  0  0  0
  139.3350   69.5970  223.7410 N   0  0  0  0  0  0  0  0  0  0  0  0
  138.6130   68.8330  222.6940 C   0  0  0  0  0  0  0  0  0  0  0  0
  138.6413   69.4042  221.7543 H   0  0  0  0  0  0  0  0  0  0  0  0
  139.1093   67.8578  222.5817 H   0  0  0  0  0  0  0  0  0  0  0  0
  137.1270   68.5750  223.0810 C   0  0  0  0  0  0  0  0  0  0  0  0
  137.0828   67.5477  223.4718 H   0  0  0  0  0  0  0  0  0  0  0  0
  136.1960   68.6610  221.8380 C   0  0  0  0  0  0  0  0  0  0  0  0
  136.8191   68.5735  220.9357 H   0  0  0  0  0  0  0  0  0  0  0  0
  135.4655   67.8447  221.9381 H   0  0  0  0  0  0  0  0  0  0  0  0
  135.3830   69.9650  221.7360 C   0  0  0  0  0  0  0  0  0  0  0  0
  135.1576   70.1608  220.6773 H   0  0  0  0  0  0  0  0  0  0  0  0
  134.4614   69.8368  222.3227 H   0  0  0  0  0  0  0  0  0  0  0  0
  136.1420   71.1600  222.3070 C   0  0  0  0  0  0  0  0  0  0  0  0
  137.0789   71.2867  221.7447 H   0  0  0  0  0  0  0  0  0  0  0  0
  135.4975   72.0466  222.2138 H   0  0  0  0  0  0  0  0  0  0  0  0
  136.4800   70.9730  223.8020 C   0  0  0  0  0  0  0  0  0  0  0  0
  137.4270   71.4920  224.0115 H   0  0  0  0  0  0  0  0  0  0  0  0
  135.6383   71.3876  224.3762 H   0  0  0  0  0  0  0  0  0  0  0  0
  136.6300   69.4960  224.2240 C   0  0  0  0  0  0  0  0  0  0  0  0
  137.3508   69.4421  225.0532 H   0  0  0  0  0  0  0  0  0  0  0  0
  135.6313   69.1395  224.5163 H   0  0  0  0  0  0  0  0  0  0  0  0
  139.5880   74.0110  221.9560 C   0  0  0  0  0  0  0  0  0  0  0  0
  140.9170   74.2110  221.5630 C   0  0  0  0  0  0  0  0  0  0  0  0
  141.5442   73.3506  221.2866 H   0  0  0  0  0  0  0  0  0  0  0  0
  141.4460   75.5020  221.5220 C   0  0  0  0  0  0  0  0  0  0  0  0
  142.4815   75.6572  221.1849 H   0  0  0  0  0  0  0  0  0  0  0  0
  140.6620   76.6100  221.9100 C   0  0  0  0  0  0  0  0  0  0  0  0
  141.1690   77.9200  221.9120 O   0  0  0  0  0  0  0  0  0  0  0  0
  141.5050   78.6450  223.0910 C   0  0  0  0  0  0  0  0  0  0  0  0
  141.2305   78.0527  223.9764 H   0  0  0  0  0  0  0  0  0  0  0  0
  142.5869   78.8434  223.1036 H   0  0  0  0  0  0  0  0  0  0  0  0
  140.9571   79.5988  223.1036 H   0  0  0  0  0  0  0  0  0  0  0  0
  139.3350   76.4110  222.3220 C   0  0  0  0  0  0  0  0  0  0  0  0
  138.6000   77.5240  222.7540 O   0  0  0  0  0  0  0  0  0  0  0  0
  138.1180   78.5540  221.8900 C   0  0  0  0  0  0  0  0  0  0  0  0
  137.7283   79.3867  222.4940 H   0  0  0  0  0  0  0  0  0  0  0  0
  138.9407   78.9150  221.2553 H   0  0  0  0  0  0  0  0  0  0  0  0
  137.3137   78.1536  221.2553 H   0  0  0  0  0  0  0  0  0  0  0  0
  138.7900   75.1130  222.3110 C   0  0  0  0  0  0  0  0  0  0  0  0
  137.7348   74.9601  222.5814 H   0  0  0  0  0  0  0  0  0  0  0  0
  1  2  1  0
  2  3  2  0
  3  4  1  0
  3  5  1  0
  5  6  2  0
  6  7  1  0
  7  8  2  0
  8  9  1  0
  8 10  1  0
 10 11  1  0
 10 12  2  0
 12 13  1  0
 12 14  1  0
 14 15  1  0
 14 16  2  0
 16 17  1  0
 17 18  2  0
 17 19  1  0
 19 20  1  0
 20 21  1  0
 20 22  1  0
 20 23  1  0
 23 24  1  0
 23 25  1  0
 25 26  1  0
 25 27  1  0
 25 28  1  0
 28 29  1  0
 28 30  1  0
 28 31  1  0
 31 32  1  0
 31 33  1  0
 31 34  1  0
 34 35  1  0
 34 36  1  0
 34 37  1  0
 37 38  1  0
 37 39  1  0
  2 40  1  0
 40 41  2  0
 41 42  1  0
 41 43  1  0
 43 44  1  0
 43 45  2  0
 45 46  1  0
 46 47  1  0
 47 48  1  0
 47 49  1  0
 47 50  1  0
 45 51  1  0
 51 52  1  0
 52 53  1  0
 53 54  1  0
 53 55  1  0
 53 56  1  0
 51 57  2  0
 57 58  1  0
 19  5  1  0
 37 23  1  0
 57 40  1  0
 16  7  1  0
M  END
>  <UniqueID>  (65) 
68

>  <SMILES>  (65) 
COc1ccc(/C=C/c2nc3ccccc3c(=O)n2CC2CCCCC2)cc1OC

>  <Energy>  (65) 
80.60838969579834

>  <Genealogy>  (65) 
COc1ccc(/C=C/c2nc3ccccc3c(=O)n2CC2CCCCC2)cc1OC (cis-trans isomerization)
COc1ccc(/C=C/c2nc3ccccc3c(=O)n2CC2CCCCC2)cc1OC (3D coordinates assigned)
COc1ccc(/C=C/c2nc3ccccc3c(=O)n2CC2CCCCC2)cc1OC (nonaromatic ring conformer: 80.60838969579834 kcal/mol)

>  <smiles>  (65) 
COc1ccc(/C=C/c2nc3ccccc3c(=O)n2CC2CCCCC2)cc1OC

>  <score_type>  (65) 
oracle

>  <origin>  (65) 
autodockgpu

>  <m_score__min__energy>  (65) 
-7.5199999999999996

>  <m_primary>  (65) 
energy

>  <meeko>  (65) 
{"free_energy": -7.09, "intermolecular_energy": -9.18, "internal_energy": -1.88, "cluster_size": 5, "cluster_id": 3, "rank_in_cluster": 1}

>  <energy>  (65) 
-7.13

>  <cluster_rmsd>  (65) 
1.35

>  <rmsd>  (65) 
269.69

>  <cluster>  (65) 
1

$$$$
CHYZURNRBYISSB-FYWRMAATNA-N
     RDKit          3D

 58 61  0  0  0  0  0  0  0  0999 V2000
  140.7906   73.5919  222.2551 H   0  0  0  0  0  0  0  0  0  0  0  0
  141.2050   72.6920  221.7770 C   0  0  0  0  0  0  0  0  0  0  0  0
  140.5840   71.5170  221.9390 C   0  0  0  0  0  0  0  0  0  0  0  0
  140.3067   70.9289  221.0517 H   0  0  0  0  0  0  0  0  0  0  0  0
  140.2600   70.9880  223.2930 C   0  0  0  0  0  0  0  0  0  0  0  0
  140.8000   71.6450  224.3580 N   0  0  0  0  0  0  0  0  0  0  0  0
  140.6520   71.2100  225.6230 C   0  0  0  0  0  0  0  0  0  0  0  0
  141.2010   71.9400  226.6840 C   0  0  0  0  0  0  0  0  0  0  0  0
  141.7387   72.8789  226.4855 H   0  0  0  0  0  0  0  0  0  0  0  0
  141.0660   71.4760  227.9950 C   0  0  0  0  0  0  0  0  0  0  0  0
  141.4958   72.0518  228.8279 H   0  0  0  0  0  0  0  0  0  0  0  0
  140.3850   70.2800  228.2510 C   0  0  0  0  0  0  0  0  0  0  0  0
  140.2762   69.9195  229.2845 H   0  0  0  0  0  0  0  0  0  0  0  0
  139.8440   69.5450  227.1950 C   0  0  0  0  0  0  0  0  0  0  0  0
  139.3207   68.5988  227.3970 H   0  0  0  0  0  0  0  0  0  0  0  0
  139.9660   70.0110  225.8720 C   0  0  0  0  0  0  0  0  0  0  0  0
  139.4090   69.3290  224.7820 C   0  0  0  0  0  0  0  0  0  0  0  0
  138.8040   68.2360  224.9840 O   0  0  0  0  0  0  0  0  0  0  0  0
  139.5110   69.8400  223.5060 N   0  0  0  0  0  0  0  0  0  0  0  0
  138.7720   69.1450  222.4220 C   0  0  0  0  0  0  0  0  0  0  0  0
  139.4420   69.0204  221.5585 H   0  0  0  0  0  0  0  0  0  0  0  0
  138.4369   68.1714  222.8090 H   0  0  0  0  0  0  0  0  0  0  0  0
  137.5140   69.9420  221.9710 C   0  0  0  0  0  0  0  0  0  0  0  0
  137.6474   70.1468  220.8985 H   0  0  0  0  0  0  0  0  0  0  0  0
  137.4090   71.3040  222.7140 C   0  0  0  0  0  0  0  0  0  0  0  0
  138.3931   71.5352  223.1478 H   0  0  0  0  0  0  0  0  0  0  0  0
  137.0830   72.0427  221.9670 H   0  0  0  0  0  0  0  0  0  0  0  0
  136.3650   71.3370  223.8460 C   0  0  0  0  0  0  0  0  0  0  0  0
  136.6734   72.0851  224.5912 H   0  0  0  0  0  0  0  0  0  0  0  0
  135.3919   71.5935  223.4019 H   0  0  0  0  0  0  0  0  0  0  0  0
  136.2240   69.9830  224.5370 C   0  0  0  0  0  0  0  0  0  0  0  0
  137.1962   69.7019  224.9680 H   0  0  0  0  0  0  0  0  0  0  0  0
  135.4543   70.0795  225.3169 H   0  0  0  0  0  0  0  0  0  0  0  0
  135.7740   68.8760  223.5600 C   0  0  0  0  0  0  0  0  0  0  0  0
  136.2108   67.9222  223.8909 H   0  0  0  0  0  0  0  0  0  0  0  0
  134.6742   68.8616  223.5750 H   0  0  0  0  0  0  0  0  0  0  0  0
  136.2020   69.1270  222.0980 C   0  0  0  0  0  0  0  0  0  0  0  0
  136.3470   68.1542  221.6054 H   0  0  0  0  0  0  0  0  0  0  0  0
  135.4053   69.7191  221.6240 H   0  0  0  0  0  0  0  0  0  0  0  0
  142.4290   72.8020  220.9730 C   0  0  0  0  0  0  0  0  0  0  0  0
  142.8870   74.0460  220.5220 C   0  0  0  0  0  0  0  0  0  0  0  0
  142.3290   74.9606  220.7713 H   0  0  0  0  0  0  0  0  0  0  0  0
  144.0500   74.1260  219.7570 C   0  0  0  0  0  0  0  0  0  0  0  0
  144.4213   75.1081  219.4291 H   0  0  0  0  0  0  0  0  0  0  0  0
  144.7550   72.9550  219.4000 C   0  0  0  0  0  0  0  0  0  0  0  0
  145.9120   72.9930  218.6050 O   0  0  0  0  0  0  0  0  0  0  0  0
  145.9310   73.4030  217.2410 C   0  0  0  0  0  0  0  0  0  0  0  0
  145.9819   74.5006  217.1887 H   0  0  0  0  0  0  0  0  0  0  0  0
  146.8101   72.9710  216.7405 H   0  0  0  0  0  0  0  0  0  0  0  0
  145.0157   73.0541  216.7405 H   0  0  0  0  0  0  0  0  0  0  0  0
  144.2880   71.7050  219.8360 C   0  0  0  0  0  0  0  0  0  0  0  0
  144.9780   70.5580  219.4190 O   0  0  0  0  0  0  0  0  0  0  0  0
  144.3920   69.2600  219.3110 C   0  0  0  0  0  0  0  0  0  0  0  0
  144.2093   68.8553  220.3174 H   0  0  0  0  0  0  0  0  0  0  0  0
  143.4391   69.3321  218.7662 H   0  0  0  0  0  0  0  0  0  0  0  0
  145.0763   68.5929  218.7662 H   0  0  0  0  0  0  0  0  0  0  0  0
  143.1440   71.6350  220.6520 C   0  0  0  0  0  0  0  0  0  0  0  0
  142.8075   70.6625  221.0406 H   0  0  0  0  0  0  0  0  0  0  0  0
  1  2  1  0
  2  3  2  0
  3  4  1  0
  3  5  1  0
  5  6  2  0
  6  7  1  0
  7  8  2  0
  8  9  1  0
  8 10  1  0
 10 11  1  0
 10 12  2  0
 12 13  1  0
 12 14  1  0
 14 15  1  0
 14 16  2  0
 16 17  1  0
 17 18  2  0
 17 19  1  0
 19 20  1  0
 20 21  1  0
 20 22  1  0
 20 23  1  0
 23 24  1  0
 23 25  1  0
 25 26  1  0
 25 27  1  0
 25 28  1  0
 28 29  1  0
 28 30  1  0
 28 31  1  0
 31 32  1  0
 31 33  1  0
 31 34  1  0
 34 35  1  0
 34 36  1  0
 34 37  1  0
 37 38  1  0
 37 39  1  0
  2 40  1  0
 40 41  2  0
 41 42  1  0
 41 43  1  0
 43 44  1  0
 43 45  2  0
 45 46  1  0
 46 47  1  0
 47 48  1  0
 47 49  1  0
 47 50  1  0
 45 51  1  0
 51 52  1  0
 52 53  1  0
 53 54  1  0
 53 55  1  0
 53 56  1  0
 51 57  2  0
 57 58  1  0
 19  5  1  0
 37 23  1  0
 57 40  1  0
 16  7  1  0
M  END
>  <UniqueID>  (66) 
68

>  <SMILES>  (66) 
COc1ccc(/C=C/c2nc3ccccc3c(=O)n2CC2CCCCC2)cc1OC

>  <Energy>  (66) 
80.60838969579834

>  <Genealogy>  (66) 
COc1ccc(/C=C/c2nc3ccccc3c(=O)n2CC2CCCCC2)cc1OC (cis-trans isomerization)
COc1ccc(/C=C/c2nc3ccccc3c(=O)n2CC2CCCCC2)cc1OC (3D coordinates assigned)
COc1ccc(/C=C/c2nc3ccccc3c(=O)n2CC2CCCCC2)cc1OC (nonaromatic ring conformer: 80.60838969579834 kcal/mol)

>  <smiles>  (66) 
COc1ccc(/C=C/c2nc3ccccc3c(=O)n2CC2CCCCC2)cc1OC

>  <score_type>  (66) 
oracle

>  <origin>  (66) 
autodockgpu

>  <m_score__min__energy>  (66) 
-7.5199999999999996

>  <m_primary>  (66) 
energy

>  <meeko>  (66) 
{"free_energy": -7.52, "intermolecular_energy": -9.61, "internal_energy": -1.64, "cluster_size": 7, "cluster_id": 1, "rank_in_cluster": 1}

>  <energy>  (66) 
-7.05

>  <cluster_rmsd>  (66) 
1.68

>  <rmsd>  (66) 
269.35

>  <cluster>  (66) 
1

$$$$
CHYZURNRBYISSB-FYWRMAATNA-N
     RDKit          3D

 58 61  0  0  0  0  0  0  0  0999 V2000
  138.4552   73.0729  222.5333 H   0  0  0  0  0  0  0  0  0  0  0  0
  139.4860   72.8720  222.2060 C   0  0  0  0  0  0  0  0  0  0  0  0
  139.9880   71.6380  222.3390 C   0  0  0  0  0  0  0  0  0  0  0  0
  140.4586   71.1529  221.4711 H   0  0  0  0  0  0  0  0  0  0  0  0
  139.9240   70.9070  223.6350 C   0  0  0  0  0  0  0  0  0  0  0  0
  140.4520   71.5330  224.7240 N   0  0  0  0  0  0  0  0  0  0  0  0
  140.5330   70.9380  225.9290 C   0  0  0  0  0  0  0  0  0  0  0  0
  141.0560   71.6390  227.0230 C   0  0  0  0  0  0  0  0  0  0  0  0
  141.3854   72.6815  226.9022 H   0  0  0  0  0  0  0  0  0  0  0  0
  141.1590   71.0130  228.2680 C   0  0  0  0  0  0  0  0  0  0  0  0
  141.5678   71.5646  229.1275 H   0  0  0  0  0  0  0  0  0  0  0  0
  140.7430   69.6850  228.4240 C   0  0  0  0  0  0  0  0  0  0  0  0
  140.8212   69.1958  229.4061 H   0  0  0  0  0  0  0  0  0  0  0  0
  140.2290   68.9820  227.3330 C   0  0  0  0  0  0  0  0  0  0  0  0
  139.9152   67.9347  227.4542 H   0  0  0  0  0  0  0  0  0  0  0  0
  140.1110   69.6090  226.0780 C   0  0  0  0  0  0  0  0  0  0  0  0
  139.5680   68.9570  224.9630 C   0  0  0  0  0  0  0  0  0  0  0  0
  139.2000   67.7510  225.0730 O   0  0  0  0  0  0  0  0  0  0  0  0
  139.4270   69.6180  223.7620 N   0  0  0  0  0  0  0  0  0  0  0  0
  138.7100   68.9180  222.6670 C   0  0  0  0  0  0  0  0  0  0  0  0
  138.8226   69.4992  221.7399 H   0  0  0  0  0  0  0  0  0  0  0  0
  139.1465   67.9138  222.5615 H   0  0  0  0  0  0  0  0  0  0  0  0
  137.1930   68.7540  222.9770 C   0  0  0  0  0  0  0  0  0  0  0  0
  137.0577   67.7168  223.3174 H   0  0  0  0  0  0  0  0  0  0  0  0
  136.3290   68.9620  221.7000 C   0  0  0  0  0  0  0  0  0  0  0  0
  136.9851   68.8665  220.8223 H   0  0  0  0  0  0  0  0  0  0  0  0
  135.5371   68.1991  221.7311 H   0  0  0  0  0  0  0  0  0  0  0  0
  135.6190   70.3260  221.6230 C   0  0  0  0  0  0  0  0  0  0  0  0
  135.4597   70.5838  220.5656 H   0  0  0  0  0  0  0  0  0  0  0  0
  134.6636   70.2414  222.1615 H   0  0  0  0  0  0  0  0  0  0  0  0
  136.4340   71.4360  222.2830 C   0  0  0  0  0  0  0  0  0  0  0  0
  137.4032   71.5178  221.7693 H   0  0  0  0  0  0  0  0  0  0  0  0
  135.8600   72.3710  222.2033 H   0  0  0  0  0  0  0  0  0  0  0  0
  136.6860   71.1590  223.7800 C   0  0  0  0  0  0  0  0  0  0  0  0
  137.6566   71.5973  224.0555 H   0  0  0  0  0  0  0  0  0  0  0  0
  135.8492   71.6084  224.3349 H   0  0  0  0  0  0  0  0  0  0  0  0
  136.7100   69.6580  224.1390 C   0  0  0  0  0  0  0  0  0  0  0  0
  137.3854   69.5153  224.9955 H   0  0  0  0  0  0  0  0  0  0  0  0
  135.6758   69.3634  224.3708 H   0  0  0  0  0  0  0  0  0  0  0  0
  140.2840   73.9620  221.6320 C   0  0  0  0  0  0  0  0  0  0  0  0
  141.3480   73.6960  220.7610 C   0  0  0  0  0  0  0  0  0  0  0  0
  141.5950   72.6575  220.4954 H   0  0  0  0  0  0  0  0  0  0  0  0
  142.0950   74.7490  220.2300 C   0  0  0  0  0  0  0  0  0  0  0  0
  142.9114   74.5376  219.5238 H   0  0  0  0  0  0  0  0  0  0  0  0
  141.8100   76.0840  220.5930 C   0  0  0  0  0  0  0  0  0  0  0  0
  142.5590   77.1660  220.1040 O   0  0  0  0  0  0  0  0  0  0  0  0
  142.6000   77.5560  218.7350 C   0  0  0  0  0  0  0  0  0  0  0  0
  142.7148   78.6479  218.6681 H   0  0  0  0  0  0  0  0  0  0  0  0
  143.4517   77.0667  218.2397 H   0  0  0  0  0  0  0  0  0  0  0  0
  141.6652   77.2546  218.2397 H   0  0  0  0  0  0  0  0  0  0  0  0
  140.7550   76.3510  221.4800 C   0  0  0  0  0  0  0  0  0  0  0  0
  140.5330   77.6810  221.8630 O   0  0  0  0  0  0  0  0  0  0  0  0
  141.3800   78.4170  222.7470 C   0  0  0  0  0  0  0  0  0  0  0  0
  141.1130   78.1850  223.7886 H   0  0  0  0  0  0  0  0  0  0  0  0
  142.4287   78.1384  222.5666 H   0  0  0  0  0  0  0  0  0  0  0  0
  141.2505   79.4944  222.5666 H   0  0  0  0  0  0  0  0  0  0  0  0
  139.9720   75.2900  221.9700 C   0  0  0  0  0  0  0  0  0  0  0  0
  139.1109   75.5009  222.6212 H   0  0  0  0  0  0  0  0  0  0  0  0
  1  2  1  0
  2  3  2  0
  3  4  1  0
  3  5  1  0
  5  6  2  0
  6  7  1  0
  7  8  2  0
  8  9  1  0
  8 10  1  0
 10 11  1  0
 10 12  2  0
 12 13  1  0
 12 14  1  0
 14 15  1  0
 14 16  2  0
 16 17  1  0
 17 18  2  0
 17 19  1  0
 19 20  1  0
 20 21  1  0
 20 22  1  0
 20 23  1  0
 23 24  1  0
 23 25  1  0
 25 26  1  0
 25 27  1  0
 25 28  1  0
 28 29  1  0
 28 30  1  0
 28 31  1  0
 31 32  1  0
 31 33  1  0
 31 34  1  0
 34 35  1  0
 34 36  1  0
 34 37  1  0
 37 38  1  0
 37 39  1  0
  2 40  1  0
 40 41  2  0
 41 42  1  0
 41 43  1  0
 43 44  1  0
 43 45  2  0
 45 46  1  0
 46 47  1  0
 47 48  1  0
 47 49  1  0
 47 50  1  0
 45 51  1  0
 51 52  1  0
 52 53  1  0
 53 54  1  0
 53 55  1  0
 53 56  1  0
 51 57  2  0
 57 58  1  0
 19  5  1  0
 37 23  1  0
 57 40  1  0
 16  7  1  0
M  END
>  <UniqueID>  (67) 
68

>  <SMILES>  (67) 
COc1ccc(/C=C/c2nc3ccccc3c(=O)n2CC2CCCCC2)cc1OC

>  <Energy>  (67) 
80.60838969579834

>  <Genealogy>  (67) 
COc1ccc(/C=C/c2nc3ccccc3c(=O)n2CC2CCCCC2)cc1OC (cis-trans isomerization)
COc1ccc(/C=C/c2nc3ccccc3c(=O)n2CC2CCCCC2)cc1OC (3D coordinates assigned)
COc1ccc(/C=C/c2nc3ccccc3c(=O)n2CC2CCCCC2)cc1OC (nonaromatic ring conformer: 80.60838969579834 kcal/mol)

>  <smiles>  (67) 
COc1ccc(/C=C/c2nc3ccccc3c(=O)n2CC2CCCCC2)cc1OC

>  <score_type>  (67) 
oracle

>  <origin>  (67) 
autodockgpu

>  <m_score__min__energy>  (67) 
-7.5199999999999996

>  <m_primary>  (67) 
energy

>  <meeko>  (67) 
{"free_energy": -7.05, "intermolecular_energy": -9.14, "internal_energy": -1.78, "cluster_size": 5, "cluster_id": 3, "rank_in_cluster": 3}

>  <energy>  (67) 
-6.98

>  <cluster_rmsd>  (67) 
1.68

>  <rmsd>  (67) 
269.36

>  <cluster>  (67) 
1

$$$$
CHYZURNRBYISSB-FYWRMAATNA-N
     RDKit          3D

 58 61  0  0  0  0  0  0  0  0999 V2000
  138.7544   73.3093  222.8207 H   0  0  0  0  0  0  0  0  0  0  0  0
  139.6750   72.9520  222.3360 C   0  0  0  0  0  0  0  0  0  0  0  0
  139.9850   71.6510  222.3940 C   0  0  0  0  0  0  0  0  0  0  0  0
  140.2966   71.1318  221.4757 H   0  0  0  0  0  0  0  0  0  0  0  0
  139.9180   70.8900  223.6720 C   0  0  0  0  0  0  0  0  0  0  0  0
  140.4360   71.4950  224.7780 N   0  0  0  0  0  0  0  0  0  0  0  0
  140.5130   70.8740  225.9700 C   0  0  0  0  0  0  0  0  0  0  0  0
  141.0260   71.5520  227.0820 C   0  0  0  0  0  0  0  0  0  0  0  0
  141.3512   72.5985  226.9864 H   0  0  0  0  0  0  0  0  0  0  0  0
  141.1250   70.8990  228.3140 C   0  0  0  0  0  0  0  0  0  0  0  0
  141.5256   71.4336  229.1879 H   0  0  0  0  0  0  0  0  0  0  0  0
  140.7150   69.5650  228.4380 C   0  0  0  0  0  0  0  0  0  0  0  0
  140.7896   69.0546  229.4096 H   0  0  0  0  0  0  0  0  0  0  0  0
  140.2120   68.8840  227.3290 C   0  0  0  0  0  0  0  0  0  0  0  0
  139.9035   67.8325  227.4247 H   0  0  0  0  0  0  0  0  0  0  0  0
  140.0980   69.5390  226.0870 C   0  0  0  0  0  0  0  0  0  0  0  0
  139.5640   68.9090  224.9540 C   0  0  0  0  0  0  0  0  0  0  0  0
  139.2030   67.6990  225.0350 O   0  0  0  0  0  0  0  0  0  0  0  0
  139.4270   69.5960  223.7680 N   0  0  0  0  0  0  0  0  0  0  0  0
  138.7200   68.9170  222.6530 C   0  0  0  0  0  0  0  0  0  0  0  0
  138.8591   69.5047  221.7336 H   0  0  0  0  0  0  0  0  0  0  0  0
  139.1429   67.9071  222.5463 H   0  0  0  0  0  0  0  0  0  0  0  0
  137.1950   68.7740  222.9330 C   0  0  0  0  0  0  0  0  0  0  0  0
  137.0323   67.7283  223.2330 H   0  0  0  0  0  0  0  0  0  0  0  0
  136.3570   69.0460  221.6510 C   0  0  0  0  0  0  0  0  0  0  0  0
  137.0255   68.9692  220.7808 H   0  0  0  0  0  0  0  0  0  0  0  0
  135.5498   68.2988  221.6406 H   0  0  0  0  0  0  0  0  0  0  0  0
  135.6760   70.4270  221.6140 C   0  0  0  0  0  0  0  0  0  0  0  0
  135.5392   70.7269  220.5646 H   0  0  0  0  0  0  0  0  0  0  0  0
  134.7105   70.3425  222.1342 H   0  0  0  0  0  0  0  0  0  0  0  0
  136.5020   71.4940  222.3270 C   0  0  0  0  0  0  0  0  0  0  0  0
  137.4810   71.5744  221.8318 H   0  0  0  0  0  0  0  0  0  0  0  0
  135.9484   72.4430  222.2732 H   0  0  0  0  0  0  0  0  0  0  0  0
  136.7240   71.1570  223.8170 C   0  0  0  0  0  0  0  0  0  0  0  0
  137.6985   71.5647  224.1237 H   0  0  0  0  0  0  0  0  0  0  0  0
  135.8876   71.6029  224.3752 H   0  0  0  0  0  0  0  0  0  0  0  0
  136.7120   69.6440  224.1200 C   0  0  0  0  0  0  0  0  0  0  0  0
  137.3706   69.4557  224.9807 H   0  0  0  0  0  0  0  0  0  0  0  0
  135.6685   69.3626  224.3248 H   0  0  0  0  0  0  0  0  0  0  0  0
  140.5400   73.9110  221.6380 C   0  0  0  0  0  0  0  0  0  0  0  0
  141.6690   73.4830  220.9300 C   0  0  0  0  0  0  0  0  0  0  0  0
  141.9185   72.4125  220.8885 H   0  0  0  0  0  0  0  0  0  0  0  0
  142.4780   74.4130  220.2770 C   0  0  0  0  0  0  0  0  0  0  0  0
  143.3478   74.0690  219.6980 H   0  0  0  0  0  0  0  0  0  0  0  0
  142.1880   75.7940  220.3540 C   0  0  0  0  0  0  0  0  0  0  0  0
  142.9970   76.7620  219.7370 O   0  0  0  0  0  0  0  0  0  0  0  0
  142.6030   77.5250  218.6010 C   0  0  0  0  0  0  0  0  0  0  0  0
  142.1220   78.4566  218.9339 H   0  0  0  0  0  0  0  0  0  0  0  0
  143.4894   77.7660  217.9958 H   0  0  0  0  0  0  0  0  0  0  0  0
  141.8933   76.9418  217.9958 H   0  0  0  0  0  0  0  0  0  0  0  0
  141.0670   76.2270  221.0790 C   0  0  0  0  0  0  0  0  0  0  0  0
  140.8370   77.6060  221.1820 O   0  0  0  0  0  0  0  0  0  0  0  0
  141.4210   78.4470  222.1780 C   0  0  0  0  0  0  0  0  0  0  0  0
  141.1585   78.0689  223.1770 H   0  0  0  0  0  0  0  0  0  0  0  0
  142.5149   78.4476  222.0620 H   0  0  0  0  0  0  0  0  0  0  0  0
  141.0394   79.4722  222.0620 H   0  0  0  0  0  0  0  0  0  0  0  0
  140.2250   75.2810  221.6910 C   0  0  0  0  0  0  0  0  0  0  0  0
  139.3161   75.6140  222.2134 H   0  0  0  0  0  0  0  0  0  0  0  0
  1  2  1  0
  2  3  2  0
  3  4  1  0
  3  5  1  0
  5  6  2  0
  6  7  1  0
  7  8  2  0
  8  9  1  0
  8 10  1  0
 10 11  1  0
 10 12  2  0
 12 13  1  0
 12 14  1  0
 14 15  1  0
 14 16  2  0
 16 17  1  0
 17 18  2  0
 17 19  1  0
 19 20  1  0
 20 21  1  0
 20 22  1  0
 20 23  1  0
 23 24  1  0
 23 25  1  0
 25 26  1  0
 25 27  1  0
 25 28  1  0
 28 29  1  0
 28 30  1  0
 28 31  1  0
 31 32  1  0
 31 33  1  0
 31 34  1  0
 34 35  1  0
 34 36  1  0
 34 37  1  0
 37 38  1  0
 37 39  1  0
  2 40  1  0
 40 41  2  0
 41 42  1  0
 41 43  1  0
 43 44  1  0
 43 45  2  0
 45 46  1  0
 46 47  1  0
 47 48  1  0
 47 49  1  0
 47 50  1  0
 45 51  1  0
 51 52  1  0
 52 53  1  0
 53 54  1  0
 53 55  1  0
 53 56  1  0
 51 57  2  0
 57 58  1  0
 19  5  1  0
 37 23  1  0
 57 40  1  0
 16  7  1  0
M  END
>  <UniqueID>  (68) 
68

>  <SMILES>  (68) 
COc1ccc(/C=C/c2nc3ccccc3c(=O)n2CC2CCCCC2)cc1OC

>  <Energy>  (68) 
80.60838969579834

>  <Genealogy>  (68) 
COc1ccc(/C=C/c2nc3ccccc3c(=O)n2CC2CCCCC2)cc1OC (cis-trans isomerization)
COc1ccc(/C=C/c2nc3ccccc3c(=O)n2CC2CCCCC2)cc1OC (3D coordinates assigned)
COc1ccc(/C=C/c2nc3ccccc3c(=O)n2CC2CCCCC2)cc1OC (nonaromatic ring conformer: 80.60838969579834 kcal/mol)

>  <smiles>  (68) 
COc1ccc(/C=C/c2nc3ccccc3c(=O)n2CC2CCCCC2)cc1OC

>  <score_type>  (68) 
oracle

>  <origin>  (68) 
autodockgpu

>  <m_score__min__energy>  (68) 
-7.5199999999999996

>  <m_primary>  (68) 
energy

>  <meeko>  (68) 
{"free_energy": -7.06, "intermolecular_energy": -9.15, "internal_energy": -1.77, "cluster_size": 5, "cluster_id": 3, "rank_in_cluster": 2}

>  <energy>  (68) 
-7.46

>  <cluster_rmsd>  (68) 
0.0

>  <rmsd>  (68) 
270.02

>  <cluster>  (68) 
2

$$$$
CHYZURNRBYISSB-FYWRMAATNA-N
     RDKit          3D

 58 61  0  0  0  0  0  0  0  0999 V2000
  136.4190   71.8337  221.8665 H   0  0  0  0  0  0  0  0  0  0  0  0
  136.8130   71.6620  222.8790 C   0  0  0  0  0  0  0  0  0  0  0  0
  138.1250   71.4560  223.0470 C   0  0  0  0  0  0  0  0  0  0  0  0
  138.8308   71.8587  222.3056 H   0  0  0  0  0  0  0  0  0  0  0  0
  138.6520   70.6950  224.2130 C   0  0  0  0  0  0  0  0  0  0  0  0
  139.3300   71.4050  225.1570 N   0  0  0  0  0  0  0  0  0  0  0  0
  139.9290   70.8170  226.2100 C   0  0  0  0  0  0  0  0  0  0  0  0
  140.5870   71.5970  227.1680 C   0  0  0  0  0  0  0  0  0  0  0  0
  140.6013   72.6926  227.0702 H   0  0  0  0  0  0  0  0  0  0  0  0
  141.2260   70.9830  228.2490 C   0  0  0  0  0  0  0  0  0  0  0  0
  141.7411   71.5968  229.0026 H   0  0  0  0  0  0  0  0  0  0  0  0
  141.2120   69.5880  228.3750 C   0  0  0  0  0  0  0  0  0  0  0  0
  141.7120   69.1074  229.2289 H   0  0  0  0  0  0  0  0  0  0  0  0
  140.5630   68.8080  227.4160 C   0  0  0  0  0  0  0  0  0  0  0  0
  140.5635   67.7120  227.5094 H   0  0  0  0  0  0  0  0  0  0  0  0
  139.9080   69.4190  226.3300 C   0  0  0  0  0  0  0  0  0  0  0  0
  139.2120   68.6810  225.3630 C   0  0  0  0  0  0  0  0  0  0  0  0
  139.1990   67.4180  225.4440 O   0  0  0  0  0  0  0  0  0  0  0  0
  138.5450   69.3180  224.3390 N   0  0  0  0  0  0  0  0  0  0  0  0
  137.7080   68.4870  223.4380 C   0  0  0  0  0  0  0  0  0  0  0  0
  137.1177   67.7866  224.0472 H   0  0  0  0  0  0  0  0  0  0  0  0
  137.0560   69.1606  222.8625 H   0  0  0  0  0  0  0  0  0  0  0  0
  138.5690   67.6730  222.4290 C   0  0  0  0  0  0  0  0  0  0  0  0
  139.3044   67.1169  223.0289 H   0  0  0  0  0  0  0  0  0  0  0  0
  139.3430   68.6120  221.4600 C   0  0  0  0  0  0  0  0  0  0  0  0
  139.3564   69.6210  221.8978 H   0  0  0  0  0  0  0  0  0  0  0  0
  140.3474   68.1792  221.3425 H   0  0  0  0  0  0  0  0  0  0  0  0
  138.7420   68.7100  220.0460 C   0  0  0  0  0  0  0  0  0  0  0  0
  139.0093   69.6855  219.6136 H   0  0  0  0  0  0  0  0  0  0  0  0
  139.1497   67.8830  219.4461 H   0  0  0  0  0  0  0  0  0  0  0  0
  137.2210   68.5770  220.0590 C   0  0  0  0  0  0  0  0  0  0  0  0
  136.7995   69.3848  220.6753 H   0  0  0  0  0  0  0  0  0  0  0  0
  136.8662   68.6415  219.0198 H   0  0  0  0  0  0  0  0  0  0  0  0
  136.7620   67.2200  220.6350 C   0  0  0  0  0  0  0  0  0  0  0  0
  135.7937   67.3652  221.1364 H   0  0  0  0  0  0  0  0  0  0  0  0
  136.6963   66.5181  219.7906 H   0  0  0  0  0  0  0  0  0  0  0  0
  137.7510   66.6110  221.6520 C   0  0  0  0  0  0  0  0  0  0  0  0
  137.1805   66.0118  222.3769 H   0  0  0  0  0  0  0  0  0  0  0  0
  138.4686   66.0027  221.0818 H   0  0  0  0  0  0  0  0  0  0  0  0
  135.8900   71.6630  224.0210 C   0  0  0  0  0  0  0  0  0  0  0  0
  135.4350   70.4640  224.5830 C   0  0  0  0  0  0  0  0  0  0  0  0
  135.7708   69.5012  224.1704 H   0  0  0  0  0  0  0  0  0  0  0  0
  134.5560   70.4900  225.6660 C   0  0  0  0  0  0  0  0  0  0  0  0
  134.2248   69.5459  226.1231 H   0  0  0  0  0  0  0  0  0  0  0  0
  134.0880   71.7200  226.1800 C   0  0  0  0  0  0  0  0  0  0  0  0
  133.1780   71.7850  227.2470 O   0  0  0  0  0  0  0  0  0  0  0  0
  131.8610   72.3170  227.1430 C   0  0  0  0  0  0  0  0  0  0  0  0
  131.4517   72.4823  228.1506 H   0  0  0  0  0  0  0  0  0  0  0  0
  131.8934   73.2726  226.5991 H   0  0  0  0  0  0  0  0  0  0  0  0
  131.2206   71.6070  226.5991 H   0  0  0  0  0  0  0  0  0  0  0  0
  134.5280   72.9230  225.6060 C   0  0  0  0  0  0  0  0  0  0  0  0
  134.0040   74.1240  226.1030 O   0  0  0  0  0  0  0  0  0  0  0  0
  134.4580   75.4220  225.7150 C   0  0  0  0  0  0  0  0  0  0  0  0
  134.6675   76.0209  226.6135 H   0  0  0  0  0  0  0  0  0  0  0  0
  135.3758   75.3257  225.1164 H   0  0  0  0  0  0  0  0  0  0  0  0
  133.6802   75.9187  225.1164 H   0  0  0  0  0  0  0  0  0  0  0  0
  135.4560   72.8920  224.5490 C   0  0  0  0  0  0  0  0  0  0  0  0
  135.8440   73.8337  224.1335 H   0  0  0  0  0  0  0  0  0  0  0  0
  1  2  1  0
  2  3  2  0
  3  4  1  0
  3  5  1  0
  5  6  2  0
  6  7  1  0
  7  8  2  0
  8  9  1  0
  8 10  1  0
 10 11  1  0
 10 12  2  0
 12 13  1  0
 12 14  1  0
 14 15  1  0
 14 16  2  0
 16 17  1  0
 17 18  2  0
 17 19  1  0
 19 20  1  0
 20 21  1  0
 20 22  1  0
 20 23  1  0
 23 24  1  0
 23 25  1  0
 25 26  1  0
 25 27  1  0
 25 28  1  0
 28 29  1  0
 28 30  1  0
 28 31  1  0
 31 32  1  0
 31 33  1  0
 31 34  1  0
 34 35  1  0
 34 36  1  0
 34 37  1  0
 37 38  1  0
 37 39  1  0
  2 40  1  0
 40 41  2  0
 41 42  1  0
 41 43  1  0
 43 44  1  0
 43 45  2  0
 45 46  1  0
 46 47  1  0
 47 48  1  0
 47 49  1  0
 47 50  1  0
 45 51  1  0
 51 52  1  0
 52 53  1  0
 53 54  1  0
 53 55  1  0
 53 56  1  0
 51 57  2  0
 57 58  1  0
 19  5  1  0
 37 23  1  0
 57 40  1  0
 16  7  1  0
M  END
>  <UniqueID>  (69) 
68

>  <SMILES>  (69) 
COc1ccc(/C=C/c2nc3ccccc3c(=O)n2CC2CCCCC2)cc1OC

>  <Energy>  (69) 
80.60838969579834

>  <Genealogy>  (69) 
COc1ccc(/C=C/c2nc3ccccc3c(=O)n2CC2CCCCC2)cc1OC (cis-trans isomerization)
COc1ccc(/C=C/c2nc3ccccc3c(=O)n2CC2CCCCC2)cc1OC (3D coordinates assigned)
COc1ccc(/C=C/c2nc3ccccc3c(=O)n2CC2CCCCC2)cc1OC (nonaromatic ring conformer: 80.60838969579834 kcal/mol)

>  <smiles>  (69) 
COc1ccc(/C=C/c2nc3ccccc3c(=O)n2CC2CCCCC2)cc1OC

>  <score_type>  (69) 
oracle

>  <origin>  (69) 
autodockgpu

>  <m_score__min__energy>  (69) 
-7.5199999999999996

>  <m_primary>  (69) 
energy

>  <meeko>  (69) 
{"free_energy": -6.99, "intermolecular_energy": -9.08, "internal_energy": -2.0, "cluster_size": 3, "cluster_id": 5, "rank_in_cluster": 2}

>  <energy>  (69) 
-7.46

>  <cluster_rmsd>  (69) 
0.46

>  <rmsd>  (69) 
270.03

>  <cluster>  (69) 
2

$$$$
CHYZURNRBYISSB-FYWRMAATNA-N
     RDKit          3D

 58 61  0  0  0  0  0  0  0  0999 V2000
  140.0738   70.5733  220.6148 H   0  0  0  0  0  0  0  0  0  0  0  0
  140.6230   71.3310  221.1930 C   0  0  0  0  0  0  0  0  0  0  0  0
  140.0540   71.8660  222.2800 C   0  0  0  0  0  0  0  0  0  0  0  0
  139.6348   72.8814  222.2221 H   0  0  0  0  0  0  0  0  0  0  0  0
  139.9750   71.1190  223.5660 C   0  0  0  0  0  0  0  0  0  0  0  0
  140.4860   71.7340  224.6690 N   0  0  0  0  0  0  0  0  0  0  0  0
  140.5520   71.1250  225.8680 C   0  0  0  0  0  0  0  0  0  0  0  0
  141.0580   71.8150  226.9770 C   0  0  0  0  0  0  0  0  0  0  0  0
  141.3857   72.8599  226.8730 H   0  0  0  0  0  0  0  0  0  0  0  0
  141.1460   71.1740  228.2160 C   0  0  0  0  0  0  0  0  0  0  0  0
  141.5415   71.7165  229.0874 H   0  0  0  0  0  0  0  0  0  0  0  0
  140.7320   69.8430  228.3510 C   0  0  0  0  0  0  0  0  0  0  0  0
  140.7977   69.3430  229.3286 H   0  0  0  0  0  0  0  0  0  0  0  0
  140.2360   69.1510  227.2450 C   0  0  0  0  0  0  0  0  0  0  0  0
  139.9247   68.1011  227.3493 H   0  0  0  0  0  0  0  0  0  0  0  0
  140.1330   69.7930  225.9960 C   0  0  0  0  0  0  0  0  0  0  0  0
  139.6070   69.1530  224.8660 C   0  0  0  0  0  0  0  0  0  0  0  0
  139.2430   67.9440  224.9560 O   0  0  0  0  0  0  0  0  0  0  0  0
  139.4810   69.8270  223.6710 N   0  0  0  0  0  0  0  0  0  0  0  0
  138.7810   69.1380  222.5580 C   0  0  0  0  0  0  0  0  0  0  0  0
  138.9194   69.7216  221.6359 H   0  0  0  0  0  0  0  0  0  0  0  0
  139.2100   68.1300  222.4589 H   0  0  0  0  0  0  0  0  0  0  0  0
  137.2570   68.9870  222.8330 C   0  0  0  0  0  0  0  0  0  0  0  0
  137.1075   67.9550  223.1832 H   0  0  0  0  0  0  0  0  0  0  0  0
  136.4250   69.1830  221.5340 C   0  0  0  0  0  0  0  0  0  0  0  0
  137.1011   69.0716  220.6735 H   0  0  0  0  0  0  0  0  0  0  0  0
  135.6277   68.4255  221.5573 H   0  0  0  0  0  0  0  0  0  0  0  0
  135.7250   70.5500  221.4210 C   0  0  0  0  0  0  0  0  0  0  0  0
  135.5917   70.7936  220.3566 H   0  0  0  0  0  0  0  0  0  0  0  0
  134.7566   70.4789  221.9379 H   0  0  0  0  0  0  0  0  0  0  0  0
  136.5320   71.6640  222.0840 C   0  0  0  0  0  0  0  0  0  0  0  0
  137.5138   71.7319  221.5925 H   0  0  0  0  0  0  0  0  0  0  0  0
  135.9673   72.6019  221.9771 H   0  0  0  0  0  0  0  0  0  0  0  0
  136.7460   71.4060  223.5910 C   0  0  0  0  0  0  0  0  0  0  0  0
  137.7123   71.8423  223.8840 H   0  0  0  0  0  0  0  0  0  0  0  0
  135.8988   71.8678  224.1191 H   0  0  0  0  0  0  0  0  0  0  0  0
  136.7520   69.9100  223.9710 C   0  0  0  0  0  0  0  0  0  0  0  0
  137.4059   69.7751  224.8452 H   0  0  0  0  0  0  0  0  0  0  0  0
  135.7108   69.6248  224.1820 H   0  0  0  0  0  0  0  0  0  0  0  0
  141.9650   71.7350  220.7570 C   0  0  0  0  0  0  0  0  0  0  0  0
  142.9080   70.7850  220.3460 C   0  0  0  0  0  0  0  0  0  0  0  0
  142.6474   69.7163  220.3441 H   0  0  0  0  0  0  0  0  0  0  0  0
  144.1780   71.1940  219.9390 C   0  0  0  0  0  0  0  0  0  0  0  0
  144.9057   70.4469  219.5895 H   0  0  0  0  0  0  0  0  0  0  0  0
  144.5370   72.5590  219.9720 C   0  0  0  0  0  0  0  0  0  0  0  0
  145.8160   73.0050  219.6000 O   0  0  0  0  0  0  0  0  0  0  0  0
  146.6770   73.7590  220.4470 C   0  0  0  0  0  0  0  0  0  0  0  0
  146.4346   73.5467  221.4988 H   0  0  0  0  0  0  0  0  0  0  0  0
  147.7225   73.4807  220.2483 H   0  0  0  0  0  0  0  0  0  0  0  0
  146.5391   74.8321  220.2483 H   0  0  0  0  0  0  0  0  0  0  0  0
  143.5990   73.5120  220.4000 C   0  0  0  0  0  0  0  0  0  0  0  0
  144.0030   74.8530  220.4740 O   0  0  0  0  0  0  0  0  0  0  0  0
  143.4340   75.9090  219.6980 C   0  0  0  0  0  0  0  0  0  0  0  0
  143.0208   76.6759  220.3696 H   0  0  0  0  0  0  0  0  0  0  0  0
  144.2122   76.3581  219.0635 H   0  0  0  0  0  0  0  0  0  0  0  0
  142.6309   75.5060  219.0635 H   0  0  0  0  0  0  0  0  0  0  0  0
  142.3030   73.1010  220.7590 C   0  0  0  0  0  0  0  0  0  0  0  0
  141.5498   73.8508  221.0427 H   0  0  0  0  0  0  0  0  0  0  0  0
  1  2  1  0
  2  3  2  0
  3  4  1  0
  3  5  1  0
  5  6  2  0
  6  7  1  0
  7  8  2  0
  8  9  1  0
  8 10  1  0
 10 11  1  0
 10 12  2  0
 12 13  1  0
 12 14  1  0
 14 15  1  0
 14 16  2  0
 16 17  1  0
 17 18  2  0
 17 19  1  0
 19 20  1  0
 20 21  1  0
 20 22  1  0
 20 23  1  0
 23 24  1  0
 23 25  1  0
 25 26  1  0
 25 27  1  0
 25 28  1  0
 28 29  1  0
 28 30  1  0
 28 31  1  0
 31 32  1  0
 31 33  1  0
 31 34  1  0
 34 35  1  0
 34 36  1  0
 34 37  1  0
 37 38  1  0
 37 39  1  0
  2 40  1  0
 40 41  2  0
 41 42  1  0
 41 43  1  0
 43 44  1  0
 43 45  2  0
 45 46  1  0
 46 47  1  0
 47 48  1  0
 47 49  1  0
 47 50  1  0
 45 51  1  0
 51 52  1  0
 52 53  1  0
 53 54  1  0
 53 55  1  0
 53 56  1  0
 51 57  2  0
 57 58  1  0
 19  5  1  0
 37 23  1  0
 57 40  1  0
 16  7  1  0
M  END
>  <UniqueID>  (70) 
68

>  <SMILES>  (70) 
COc1ccc(/C=C/c2nc3ccccc3c(=O)n2CC2CCCCC2)cc1OC

>  <Energy>  (70) 
80.60838969579834

>  <Genealogy>  (70) 
COc1ccc(/C=C/c2nc3ccccc3c(=O)n2CC2CCCCC2)cc1OC (cis-trans isomerization)
COc1ccc(/C=C/c2nc3ccccc3c(=O)n2CC2CCCCC2)cc1OC (3D coordinates assigned)
COc1ccc(/C=C/c2nc3ccccc3c(=O)n2CC2CCCCC2)cc1OC (nonaromatic ring conformer: 80.60838969579834 kcal/mol)

>  <smiles>  (70) 
COc1ccc(/C=C/c2nc3ccccc3c(=O)n2CC2CCCCC2)cc1OC

>  <score_type>  (70) 
oracle

>  <origin>  (70) 
autodockgpu

>  <m_score__min__energy>  (70) 
-7.5199999999999996

>  <m_primary>  (70) 
energy

>  <meeko>  (70) 
{"free_energy": -7.13, "intermolecular_energy": -9.21, "internal_energy": -1.74, "cluster_size": 7, "cluster_id": 1, "rank_in_cluster": 5}

>  <energy>  (70) 
-7.45

>  <cluster_rmsd>  (70) 
0.5

>  <rmsd>  (70) 
270.05

>  <cluster>  (70) 
2

$$$$
CHYZURNRBYISSB-FYWRMAATNA-N
     RDKit          3D

 58 61  0  0  0  0  0  0  0  0999 V2000
  140.5391   73.6188  222.4095 H   0  0  0  0  0  0  0  0  0  0  0  0
  140.9080   72.6900  221.9500 C   0  0  0  0  0  0  0  0  0  0  0  0
  140.2200   71.5540  222.1210 C   0  0  0  0  0  0  0  0  0  0  0  0
  139.7477   71.0762  221.2500 H   0  0  0  0  0  0  0  0  0  0  0  0
  140.0790   70.9220  223.4620 C   0  0  0  0  0  0  0  0  0  0  0  0
  140.5840   71.6100  224.5240 N   0  0  0  0  0  0  0  0  0  0  0  0
  140.5960   71.1030  225.7720 C   0  0  0  0  0  0  0  0  0  0  0  0
  141.0990   71.8650  226.8330 C   0  0  0  0  0  0  0  0  0  0  0  0
  141.4690   72.8848  226.6510 H   0  0  0  0  0  0  0  0  0  0  0  0
  141.1310   71.3300  228.1230 C   0  0  0  0  0  0  0  0  0  0  0  0
  141.5254   71.9301  228.9563 H   0  0  0  0  0  0  0  0  0  0  0  0
  140.6620   70.0310  228.3580 C   0  0  0  0  0  0  0  0  0  0  0  0
  140.6828   69.6139  229.3756 H   0  0  0  0  0  0  0  0  0  0  0  0
  140.1680   69.2660  227.2990 C   0  0  0  0  0  0  0  0  0  0  0  0
  139.8129   68.2411  227.4821 H   0  0  0  0  0  0  0  0  0  0  0  0
  140.1230   69.8020  225.9980 C   0  0  0  0  0  0  0  0  0  0  0  0
  139.6020   69.0880  224.9110 C   0  0  0  0  0  0  0  0  0  0  0  0
  139.1890   67.9060  225.0920 O   0  0  0  0  0  0  0  0  0  0  0  0
  139.5320   69.6630  223.6600 N   0  0  0  0  0  0  0  0  0  0  0  0
  138.8350   68.9080  222.5900 C   0  0  0  0  0  0  0  0  0  0  0  0
  139.0239   69.4024  221.6257 H   0  0  0  0  0  0  0  0  0  0  0  0
  139.2232   67.8788  222.5920 H   0  0  0  0  0  0  0  0  0  0  0  0
  137.2990   68.8430  222.8290 C   0  0  0  0  0  0  0  0  0  0  0  0
  137.0869   67.8290  223.1988 H   0  0  0  0  0  0  0  0  0  0  0  0
  136.5110   69.0510  221.5040 C   0  0  0  0  0  0  0  0  0  0  0  0
  137.2017   68.8846  220.6642 H   0  0  0  0  0  0  0  0  0  0  0  0
  135.6750   68.3364  221.5227 H   0  0  0  0  0  0  0  0  0  0  0  0
  135.8870   70.4490  221.3430 C   0  0  0  0  0  0  0  0  0  0  0  0
  135.7941   70.6746  220.2704 H   0  0  0  0  0  0  0  0  0  0  0  0
  134.9035   70.4397  221.8355 H   0  0  0  0  0  0  0  0  0  0  0  0
  136.7330   71.5350  222.0030 C   0  0  0  0  0  0  0  0  0  0  0  0
  137.7287   71.5419  221.5356 H   0  0  0  0  0  0  0  0  0  0  0  0
  136.2190   72.4972  221.8619 H   0  0  0  0  0  0  0  0  0  0  0  0
  136.8970   71.3020  223.5200 C   0  0  0  0  0  0  0  0  0  0  0  0
  137.8777   71.6941  223.8276 H   0  0  0  0  0  0  0  0  0  0  0  0
  136.0633   71.8199  224.0168 H   0  0  0  0  0  0  0  0  0  0  0  0
  136.8150   69.8170  223.9320 C   0  0  0  0  0  0  0  0  0  0  0  0
  137.4386   69.6686  224.8259 H   0  0  0  0  0  0  0  0  0  0  0  0
  135.7551   69.5914  224.1211 H   0  0  0  0  0  0  0  0  0  0  0  0
  142.1450   72.7190  221.1610 C   0  0  0  0  0  0  0  0  0  0  0  0
  142.6970   73.9320  220.7280 C   0  0  0  0  0  0  0  0  0  0  0  0
  142.2037   74.8821  220.9811 H   0  0  0  0  0  0  0  0  0  0  0  0
  143.8720   73.9350  219.9760 C   0  0  0  0  0  0  0  0  0  0  0  0
  144.3166   74.8908  219.6618 H   0  0  0  0  0  0  0  0  0  0  0  0
  144.4950   72.7200  219.6150 C   0  0  0  0  0  0  0  0  0  0  0  0
  145.6600   72.6820  218.8330 O   0  0  0  0  0  0  0  0  0  0  0  0
  145.7080   73.0300  217.4520 C   0  0  0  0  0  0  0  0  0  0  0  0
  145.8576   74.1152  217.3523 H   0  0  0  0  0  0  0  0  0  0  0  0
  146.5414   72.4990  216.9688 H   0  0  0  0  0  0  0  0  0  0  0  0
  144.7620   72.7444  216.9688 H   0  0  0  0  0  0  0  0  0  0  0  0
  143.9340   71.5020  220.0330 C   0  0  0  0  0  0  0  0  0  0  0  0
  144.5450   70.3130  219.6120 O   0  0  0  0  0  0  0  0  0  0  0  0
  143.8500   69.0830  219.3970 C   0  0  0  0  0  0  0  0  0  0  0  0
  143.5949   68.6316  220.3671 H   0  0  0  0  0  0  0  0  0  0  0  0
  142.9281   69.2772  218.8292 H   0  0  0  0  0  0  0  0  0  0  0  0
  144.4920   68.3935  218.8292 H   0  0  0  0  0  0  0  0  0  0  0  0
  142.7790   71.5070  220.8350 C   0  0  0  0  0  0  0  0  0  0  0  0
  142.3691   70.5574  221.2095 H   0  0  0  0  0  0  0  0  0  0  0  0
  1  2  1  0
  2  3  2  0
  3  4  1  0
  3  5  1  0
  5  6  2  0
  6  7  1  0
  7  8  2  0
  8  9  1  0
  8 10  1  0
 10 11  1  0
 10 12  2  0
 12 13  1  0
 12 14  1  0
 14 15  1  0
 14 16  2  0
 16 17  1  0
 17 18  2  0
 17 19  1  0
 19 20  1  0
 20 21  1  0
 20 22  1  0
 20 23  1  0
 23 24  1  0
 23 25  1  0
 25 26  1  0
 25 27  1  0
 25 28  1  0
 28 29  1  0
 28 30  1  0
 28 31  1  0
 31 32  1  0
 31 33  1  0
 31 34  1  0
 34 35  1  0
 34 36  1  0
 34 37  1  0
 37 38  1  0
 37 39  1  0
  2 40  1  0
 40 41  2  0
 41 42  1  0
 41 43  1  0
 43 44  1  0
 43 45  2  0
 45 46  1  0
 46 47  1  0
 47 48  1  0
 47 49  1  0
 47 50  1  0
 45 51  1  0
 51 52  1  0
 52 53  1  0
 53 54  1  0
 53 55  1  0
 53 56  1  0
 51 57  2  0
 57 58  1  0
 19  5  1  0
 37 23  1  0
 57 40  1  0
 16  7  1  0
M  END
>  <UniqueID>  (71) 
68

>  <SMILES>  (71) 
COc1ccc(/C=C/c2nc3ccccc3c(=O)n2CC2CCCCC2)cc1OC

>  <Energy>  (71) 
80.60838969579834

>  <Genealogy>  (71) 
COc1ccc(/C=C/c2nc3ccccc3c(=O)n2CC2CCCCC2)cc1OC (cis-trans isomerization)
COc1ccc(/C=C/c2nc3ccccc3c(=O)n2CC2CCCCC2)cc1OC (3D coordinates assigned)
COc1ccc(/C=C/c2nc3ccccc3c(=O)n2CC2CCCCC2)cc1OC (nonaromatic ring conformer: 80.60838969579834 kcal/mol)

>  <smiles>  (71) 
COc1ccc(/C=C/c2nc3ccccc3c(=O)n2CC2CCCCC2)cc1OC

>  <score_type>  (71) 
oracle

>  <origin>  (71) 
autodockgpu

>  <m_score__min__energy>  (71) 
-7.5199999999999996

>  <m_primary>  (71) 
energy

>  <meeko>  (71) 
{"free_energy": -7.38, "intermolecular_energy": -9.47, "internal_energy": -1.69, "cluster_size": 7, "cluster_id": 1, "rank_in_cluster": 3}

>  <energy>  (71) 
-7.09

>  <cluster_rmsd>  (71) 
0.0

>  <rmsd>  (71) 
269.77

>  <cluster>  (71) 
3

$$$$
CHYZURNRBYISSB-FYWRMAATNA-N
     RDKit          3D

 58 61  0  0  0  0  0  0  0  0999 V2000
  136.6590   71.5030  221.6344 H   0  0  0  0  0  0  0  0  0  0  0  0
  137.0450   71.5990  222.6600 C   0  0  0  0  0  0  0  0  0  0  0  0
  138.3480   71.3970  222.8930 C   0  0  0  0  0  0  0  0  0  0  0  0
  139.0881   71.7885  222.1795 H   0  0  0  0  0  0  0  0  0  0  0  0
  138.8190   70.6550  224.0950 C   0  0  0  0  0  0  0  0  0  0  0  0
  139.4680   71.3770  225.0510 N   0  0  0  0  0  0  0  0  0  0  0  0
  140.0170   70.8030  226.1390 C   0  0  0  0  0  0  0  0  0  0  0  0
  140.6460   71.5960  227.1070 C   0  0  0  0  0  0  0  0  0  0  0  0
  140.6769   72.6891  226.9877 H   0  0  0  0  0  0  0  0  0  0  0  0
  141.2340   70.9980  228.2240 C   0  0  0  0  0  0  0  0  0  0  0  0
  141.7256   71.6215  228.9852 H   0  0  0  0  0  0  0  0  0  0  0  0
  141.1990   69.6060  228.3770 C   0  0  0  0  0  0  0  0  0  0  0  0
  141.6592   69.1378  229.2597 H   0  0  0  0  0  0  0  0  0  0  0  0
  140.5800   68.8130  227.4090 C   0  0  0  0  0  0  0  0  0  0  0  0
  140.5643   67.7192  227.5243 H   0  0  0  0  0  0  0  0  0  0  0  0
  139.9760   69.4090  226.2860 C   0  0  0  0  0  0  0  0  0  0  0  0
  139.3110   68.6590  225.3070 C   0  0  0  0  0  0  0  0  0  0  0  0
  139.2810   67.3980  225.4110 O   0  0  0  0  0  0  0  0  0  0  0  0
  138.6920   69.2820  224.2440 N   0  0  0  0  0  0  0  0  0  0  0  0
  137.8820   68.4420  223.3270 C   0  0  0  0  0  0  0  0  0  0  0  0
  137.2294   67.7897  223.9259 H   0  0  0  0  0  0  0  0  0  0  0  0
  137.2922   69.1118  222.6839 H   0  0  0  0  0  0  0  0  0  0  0  0
  138.7740   67.5550  222.4090 C   0  0  0  0  0  0  0  0  0  0  0  0
  139.6258   67.2311  223.0250 H   0  0  0  0  0  0  0  0  0  0  0  0
  139.3290   68.3670  221.2040 C   0  0  0  0  0  0  0  0  0  0  0  0
  139.2291   69.4376  221.4361 H   0  0  0  0  0  0  0  0  0  0  0  0
  140.3741   68.0515  221.0692 H   0  0  0  0  0  0  0  0  0  0  0  0
  138.6140   68.0960  219.8670 C   0  0  0  0  0  0  0  0  0  0  0  0
  138.7033   68.9883  219.2299 H   0  0  0  0  0  0  0  0  0  0  0  0
  139.0908   67.2219  219.3993 H   0  0  0  0  0  0  0  0  0  0  0  0
  137.1340   67.7760  220.0610 C   0  0  0  0  0  0  0  0  0  0  0  0
  136.6468   68.6330  220.5492 H   0  0  0  0  0  0  0  0  0  0  0  0
  136.6973   67.5796  219.0707 H   0  0  0  0  0  0  0  0  0  0  0  0
  136.9210   66.5200  220.9320 C   0  0  0  0  0  0  0  0  0  0  0  0
  135.9831   66.6420  221.4937 H   0  0  0  0  0  0  0  0  0  0  0  0
  136.8930   65.6572  220.2502 H   0  0  0  0  0  0  0  0  0  0  0  0
  138.0620   66.2620  221.9390 C   0  0  0  0  0  0  0  0  0  0  0  0
  137.6410   65.7561  222.8204 H   0  0  0  0  0  0  0  0  0  0  0  0
  138.8147   65.6461  221.4250 H   0  0  0  0  0  0  0  0  0  0  0  0
  136.1220   71.9460  223.7470 C   0  0  0  0  0  0  0  0  0  0  0  0
  135.5550   70.9540  224.5580 C   0  0  0  0  0  0  0  0  0  0  0  0
  135.8024   69.8959  224.3870 H   0  0  0  0  0  0  0  0  0  0  0  0
  134.6770   71.3080  225.5820 C   0  0  0  0  0  0  0  0  0  0  0  0
  134.2568   70.5284  226.2344 H   0  0  0  0  0  0  0  0  0  0  0  0
  134.3230   72.6600  225.7880 C   0  0  0  0  0  0  0  0  0  0  0  0
  133.4190   73.0510  226.7890 O   0  0  0  0  0  0  0  0  0  0  0  0
  132.3140   72.2620  227.2200 C   0  0  0  0  0  0  0  0  0  0  0  0
  132.2849   72.2413  228.3194 H   0  0  0  0  0  0  0  0  0  0  0  0
  131.3800   72.6987  226.8367 H   0  0  0  0  0  0  0  0  0  0  0  0
  132.4238   71.2368  226.8367 H   0  0  0  0  0  0  0  0  0  0  0  0
  134.8760   73.6540  224.9660 C   0  0  0  0  0  0  0  0  0  0  0  0
  134.4630   74.9800  225.1600 O   0  0  0  0  0  0  0  0  0  0  0  0
  134.4460   75.6400  226.4260 C   0  0  0  0  0  0  0  0  0  0  0  0
  134.4653   74.8902  227.2307 H   0  0  0  0  0  0  0  0  0  0  0  0
  135.3276   76.2922  226.5113 H   0  0  0  0  0  0  0  0  0  0  0  0
  133.5319   76.2460  226.5113 H   0  0  0  0  0  0  0  0  0  0  0  0
  135.8020   73.2970  223.9680 C   0  0  0  0  0  0  0  0  0  0  0  0
  136.2777   74.0790  223.3579 H   0  0  0  0  0  0  0  0  0  0  0  0
  1  2  1  0
  2  3  2  0
  3  4  1  0
  3  5  1  0
  5  6  2  0
  6  7  1  0
  7  8  2  0
  8  9  1  0
  8 10  1  0
 10 11  1  0
 10 12  2  0
 12 13  1  0
 12 14  1  0
 14 15  1  0
 14 16  2  0
 16 17  1  0
 17 18  2  0
 17 19  1  0
 19 20  1  0
 20 21  1  0
 20 22  1  0
 20 23  1  0
 23 24  1  0
 23 25  1  0
 25 26  1  0
 25 27  1  0
 25 28  1  0
 28 29  1  0
 28 30  1  0
 28 31  1  0
 31 32  1  0
 31 33  1  0
 31 34  1  0
 34 35  1  0
 34 36  1  0
 34 37  1  0
 37 38  1  0
 37 39  1  0
  2 40  1  0
 40 41  2  0
 41 42  1  0
 41 43  1  0
 43 44  1  0
 43 45  2  0
 45 46  1  0
 46 47  1  0
 47 48  1  0
 47 49  1  0
 47 50  1  0
 45 51  1  0
 51 52  1  0
 52 53  1  0
 53 54  1  0
 53 55  1  0
 53 56  1  0
 51 57  2  0
 57 58  1  0
 19  5  1  0
 37 23  1  0
 57 40  1  0
 16  7  1  0
M  END
>  <UniqueID>  (72) 
68

>  <SMILES>  (72) 
COc1ccc(/C=C/c2nc3ccccc3c(=O)n2CC2CCCCC2)cc1OC

>  <Energy>  (72) 
80.60838969579834

>  <Genealogy>  (72) 
COc1ccc(/C=C/c2nc3ccccc3c(=O)n2CC2CCCCC2)cc1OC (cis-trans isomerization)
COc1ccc(/C=C/c2nc3ccccc3c(=O)n2CC2CCCCC2)cc1OC (3D coordinates assigned)
COc1ccc(/C=C/c2nc3ccccc3c(=O)n2CC2CCCCC2)cc1OC (nonaromatic ring conformer: 80.60838969579834 kcal/mol)

>  <smiles>  (72) 
COc1ccc(/C=C/c2nc3ccccc3c(=O)n2CC2CCCCC2)cc1OC

>  <score_type>  (72) 
oracle

>  <origin>  (72) 
autodockgpu

>  <m_score__min__energy>  (72) 
-7.5199999999999996

>  <m_primary>  (72) 
energy

>  <meeko>  (72) 
{"free_energy": -7.02, "intermolecular_energy": -9.1, "internal_energy": -1.82, "cluster_size": 3, "cluster_id": 5, "rank_in_cluster": 1}

>  <energy>  (72) 
-7.06

>  <cluster_rmsd>  (72) 
1.24

>  <rmsd>  (72) 
269.71

>  <cluster>  (72) 
3

$$$$
CHYZURNRBYISSB-FYWRMAATNA-N
     RDKit          3D

 58 61  0  0  0  0  0  0  0  0999 V2000
  136.2941   76.1054  221.7819 H   0  0  0  0  0  0  0  0  0  0  0  0
  136.7120   75.9180  222.7820 C   0  0  0  0  0  0  0  0  0  0  0  0
  137.9200   76.4050  223.0900 C   0  0  0  0  0  0  0  0  0  0  0  0
  138.0152   77.1191  223.9213 H   0  0  0  0  0  0  0  0  0  0  0  0
  139.1380   76.0030  222.3340 C   0  0  0  0  0  0  0  0  0  0  0  0
  139.4000   74.6690  222.2510 N   0  0  0  0  0  0  0  0  0  0  0  0
  140.5170   74.1880  221.6700 C   0  0  0  0  0  0  0  0  0  0  0  0
  140.7220   72.8060  221.5850 C   0  0  0  0  0  0  0  0  0  0  0  0
  139.9639   72.1118  221.9766 H   0  0  0  0  0  0  0  0  0  0  0  0
  141.8910   72.3090  221.0020 C   0  0  0  0  0  0  0  0  0  0  0  0
  142.0508   71.2229  220.9331 H   0  0  0  0  0  0  0  0  0  0  0  0
  142.8600   73.1910  220.5050 C   0  0  0  0  0  0  0  0  0  0  0  0
  143.7768   72.7973  220.0419 H   0  0  0  0  0  0  0  0  0  0  0  0
  142.6610   74.5700  220.5980 C   0  0  0  0  0  0  0  0  0  0  0  0
  143.4285   75.2615  220.2201 H   0  0  0  0  0  0  0  0  0  0  0  0
  141.4810   75.0780  221.1740 C   0  0  0  0  0  0  0  0  0  0  0  0
  141.2190   76.4520  221.2560 C   0  0  0  0  0  0  0  0  0  0  0  0
  142.0850   77.2710  220.8310 O   0  0  0  0  0  0  0  0  0  0  0  0
  140.0320   76.9110  221.7860 N   0  0  0  0  0  0  0  0  0  0  0  0
  139.7570   78.3670  221.7060 C   0  0  0  0  0  0  0  0  0  0  0  0
  140.4062   78.8094  220.9360 H   0  0  0  0  0  0  0  0  0  0  0  0
  138.6945   78.4991  221.4539 H   0  0  0  0  0  0  0  0  0  0  0  0
  140.0230   79.0850  223.0610 C   0  0  0  0  0  0  0  0  0  0  0  0
  139.2834   78.6864  223.7710 H   0  0  0  0  0  0  0  0  0  0  0  0
  139.8020   80.6200  222.9420 C   0  0  0  0  0  0  0  0  0  0  0  0
  139.2138   80.8127  222.0327 H   0  0  0  0  0  0  0  0  0  0  0  0
  139.2877   80.9337  223.8624 H   0  0  0  0  0  0  0  0  0  0  0  0
  141.0980   81.4490  222.8610 C   0  0  0  0  0  0  0  0  0  0  0  0
  140.8897   82.3806  222.3144 H   0  0  0  0  0  0  0  0  0  0  0  0
  141.4330   81.6557  223.8882 H   0  0  0  0  0  0  0  0  0  0  0  0
  142.2160   80.6970  222.1440 C   0  0  0  0  0  0  0  0  0  0  0  0
  141.8866   80.4628  221.1210 H   0  0  0  0  0  0  0  0  0  0  0  0
  143.1079   81.3408  222.1385 H   0  0  0  0  0  0  0  0  0  0  0  0
  142.5840   79.3810  222.8620 C   0  0  0  0  0  0  0  0  0  0  0  0
  142.9148   78.6537  222.1059 H   0  0  0  0  0  0  0  0  0  0  0  0
  143.3748   79.6213  223.5878 H   0  0  0  0  0  0  0  0  0  0  0  0
  141.4160   78.7600  223.6570 C   0  0  0  0  0  0  0  0  0  0  0  0
  141.5440   77.6675  223.6682 H   0  0  0  0  0  0  0  0  0  0  0  0
  141.4453   79.1930  224.6678 H   0  0  0  0  0  0  0  0  0  0  0  0
  135.9340   75.1390  223.7520 C   0  0  0  0  0  0  0  0  0  0  0  0
  135.7260   73.7650  223.5750 C   0  0  0  0  0  0  0  0  0  0  0  0
  136.1506   73.2534  222.6986 H   0  0  0  0  0  0  0  0  0  0  0  0
  134.9810   73.0450  224.5090 C   0  0  0  0  0  0  0  0  0  0  0  0
  134.8458   71.9609  224.3809 H   0  0  0  0  0  0  0  0  0  0  0  0
  134.3990   73.6980  225.6180 C   0  0  0  0  0  0  0  0  0  0  0  0
  133.6170   73.0140  226.5610 O   0  0  0  0  0  0  0  0  0  0  0  0
  133.8460   71.6670  226.9630 C   0  0  0  0  0  0  0  0  0  0  0  0
  133.8559   71.6088  228.0614 H   0  0  0  0  0  0  0  0  0  0  0  0
  133.0440   71.0254  226.5690 H   0  0  0  0  0  0  0  0  0  0  0  0
  134.8149   71.3264  226.5690 H   0  0  0  0  0  0  0  0  0  0  0  0
  134.5910   75.0790  225.7890 C   0  0  0  0  0  0  0  0  0  0  0  0
  133.9550   75.7070  226.8690 O   0  0  0  0  0  0  0  0  0  0  0  0
  132.5400   75.8550  226.9950 C   0  0  0  0  0  0  0  0  0  0  0  0
  132.2677   75.8835  228.0604 H   0  0  0  0  0  0  0  0  0  0  0  0
  132.2247   76.7910  226.5108 H   0  0  0  0  0  0  0  0  0  0  0  0
  132.0378   75.0045  226.5108 H   0  0  0  0  0  0  0  0  0  0  0  0
  135.3870   75.7900  224.8730 C   0  0  0  0  0  0  0  0  0  0  0  0
  135.5829   76.8604  225.0338 H   0  0  0  0  0  0  0  0  0  0  0  0
  1  2  1  0
  2  3  2  0
  3  4  1  0
  3  5  1  0
  5  6  2  0
  6  7  1  0
  7  8  2  0
  8  9  1  0
  8 10  1  0
 10 11  1  0
 10 12  2  0
 12 13  1  0
 12 14  1  0
 14 15  1  0
 14 16  2  0
 16 17  1  0
 17 18  2  0
 17 19  1  0
 19 20  1  0
 20 21  1  0
 20 22  1  0
 20 23  1  0
 23 24  1  0
 23 25  1  0
 25 26  1  0
 25 27  1  0
 25 28  1  0
 28 29  1  0
 28 30  1  0
 28 31  1  0
 31 32  1  0
 31 33  1  0
 31 34  1  0
 34 35  1  0
 34 36  1  0
 34 37  1  0
 37 38  1  0
 37 39  1  0
  2 40  1  0
 40 41  2  0
 41 42  1  0
 41 43  1  0
 43 44  1  0
 43 45  2  0
 45 46  1  0
 46 47  1  0
 47 48  1  0
 47 49  1  0
 47 50  1  0
 45 51  1  0
 51 52  1  0
 52 53  1  0
 53 54  1  0
 53 55  1  0
 53 56  1  0
 51 57  2  0
 57 58  1  0
 19  5  1  0
 37 23  1  0
 57 40  1  0
 16  7  1  0
M  END
>  <UniqueID>  (73) 
68

>  <SMILES>  (73) 
COc1ccc(/C=C/c2nc3ccccc3c(=O)n2CC2CCCCC2)cc1OC

>  <Energy>  (73) 
80.60838969579834

>  <Genealogy>  (73) 
COc1ccc(/C=C/c2nc3ccccc3c(=O)n2CC2CCCCC2)cc1OC (cis-trans isomerization)
COc1ccc(/C=C/c2nc3ccccc3c(=O)n2CC2CCCCC2)cc1OC (3D coordinates assigned)
COc1ccc(/C=C/c2nc3ccccc3c(=O)n2CC2CCCCC2)cc1OC (nonaromatic ring conformer: 80.60838969579834 kcal/mol)

>  <smiles>  (73) 
COc1ccc(/C=C/c2nc3ccccc3c(=O)n2CC2CCCCC2)cc1OC

>  <score_type>  (73) 
oracle

>  <origin>  (73) 
autodockgpu

>  <m_score__min__energy>  (73) 
-7.5199999999999996

>  <m_primary>  (73) 
energy

>  <meeko>  (73) 
{"free_energy": -7.46, "intermolecular_energy": -9.55, "internal_energy": -1.54, "cluster_size": 3, "cluster_id": 2, "rank_in_cluster": 1}

>  <energy>  (73) 
-7.05

>  <cluster_rmsd>  (73) 
1.1

>  <rmsd>  (73) 
269.73

>  <cluster>  (73) 
3

$$$$
CHYZURNRBYISSB-FYWRMAATNA-N
     RDKit          3D

 58 61  0  0  0  0  0  0  0  0999 V2000
  136.3023   75.8404  221.7783 H   0  0  0  0  0  0  0  0  0  0  0  0
  136.6800   75.8110  222.8110 C   0  0  0  0  0  0  0  0  0  0  0  0
  137.8560   76.3820  223.0960 C   0  0  0  0  0  0  0  0  0  0  0  0
  137.9142   77.1089  223.9195 H   0  0  0  0  0  0  0  0  0  0  0  0
  139.0880   76.0570  222.3250 C   0  0  0  0  0  0  0  0  0  0  0  0
  139.4120   74.7390  222.2090 N   0  0  0  0  0  0  0  0  0  0  0  0
  140.5470   74.3250  221.6140 C   0  0  0  0  0  0  0  0  0  0  0  0
  140.8180   72.9570  221.4940 C   0  0  0  0  0  0  0  0  0  0  0  0
  140.0957   72.2181  221.8713 H   0  0  0  0  0  0  0  0  0  0  0  0
  142.0060   72.5300  220.8950 C   0  0  0  0  0  0  0  0  0  0  0  0
  142.2167   71.4546  220.7995 H   0  0  0  0  0  0  0  0  0  0  0  0
  142.9290   73.4680  220.4160 C   0  0  0  0  0  0  0  0  0  0  0  0
  143.8617   73.1292  219.9414 H   0  0  0  0  0  0  0  0  0  0  0  0
  142.6650   74.8330  220.5410 C   0  0  0  0  0  0  0  0  0  0  0  0
  143.3964   75.5687  220.1753 H   0  0  0  0  0  0  0  0  0  0  0  0
  141.4650   75.2710  221.1340 C   0  0  0  0  0  0  0  0  0  0  0  0
  141.1390   76.6290  221.2490 C   0  0  0  0  0  0  0  0  0  0  0  0
  141.9630   77.4980  220.8410 O   0  0  0  0  0  0  0  0  0  0  0  0
  139.9340   77.0190  221.7950 N   0  0  0  0  0  0  0  0  0  0  0  0
  139.5900   78.4620  221.7510 C   0  0  0  0  0  0  0  0  0  0  0  0
  140.1881   78.9460  220.9649 H   0  0  0  0  0  0  0  0  0  0  0  0
  138.5136   78.5488  221.5417 H   0  0  0  0  0  0  0  0  0  0  0  0
  139.8750   79.1700  223.1070 C   0  0  0  0  0  0  0  0  0  0  0  0
  139.1327   78.7817  223.8199 H   0  0  0  0  0  0  0  0  0  0  0  0
  139.6800   80.7090  222.9930 C   0  0  0  0  0  0  0  0  0  0  0  0
  139.0922   80.9143  222.0862 H   0  0  0  0  0  0  0  0  0  0  0  0
  139.1741   81.0289  223.9159 H   0  0  0  0  0  0  0  0  0  0  0  0
  140.9900   81.5160  222.9100 C   0  0  0  0  0  0  0  0  0  0  0  0
  140.7957   82.4533  222.3680 H   0  0  0  0  0  0  0  0  0  0  0  0
  141.3327   81.7129  223.9365 H   0  0  0  0  0  0  0  0  0  0  0  0
  142.0920   80.7470  222.1850 C   0  0  0  0  0  0  0  0  0  0  0  0
  141.7541   80.5222  221.1626 H   0  0  0  0  0  0  0  0  0  0  0  0
  142.9950   81.3751  222.1776 H   0  0  0  0  0  0  0  0  0  0  0  0
  142.4400   79.4220  222.8970 C   0  0  0  0  0  0  0  0  0  0  0  0
  142.7548   78.6916  222.1371 H   0  0  0  0  0  0  0  0  0  0  0  0
  143.2382   79.6456  223.6201 H   0  0  0  0  0  0  0  0  0  0  0  0
  141.2640   78.8190  223.6950 C   0  0  0  0  0  0  0  0  0  0  0  0
  141.3728   77.7244  223.7020 H   0  0  0  0  0  0  0  0  0  0  0  0
  141.3053   79.2485  224.7069 H   0  0  0  0  0  0  0  0  0  0  0  0
  135.8840   75.1460  223.8500 C   0  0  0  0  0  0  0  0  0  0  0  0
  135.5580   73.7870  223.7510 C   0  0  0  0  0  0  0  0  0  0  0  0
  135.9017   73.2003  222.8863 H   0  0  0  0  0  0  0  0  0  0  0  0
  134.7970   73.1780  224.7500 C   0  0  0  0  0  0  0  0  0  0  0  0
  134.5671   72.1044  224.6831 H   0  0  0  0  0  0  0  0  0  0  0  0
  134.3200   73.9300  225.8460 C   0  0  0  0  0  0  0  0  0  0  0  0
  133.5260   73.3590  226.8540 O   0  0  0  0  0  0  0  0  0  0  0  0
  132.1110   73.2170  226.7720 C   0  0  0  0  0  0  0  0  0  0  0  0
  131.6874   73.1745  227.7863 H   0  0  0  0  0  0  0  0  0  0  0  0
  131.6868   74.0771  226.2332 H   0  0  0  0  0  0  0  0  0  0  0  0
  131.8661   72.2898  226.2332 H   0  0  0  0  0  0  0  0  0  0  0  0
  134.6300   75.2960  225.9380 C   0  0  0  0  0  0  0  0  0  0  0  0
  134.0950   76.0260  227.0090 O   0  0  0  0  0  0  0  0  0  0  0  0
  132.7760   76.5740  227.0300 C   0  0  0  0  0  0  0  0  0  0  0  0
  132.4515   76.7088  228.0724 H   0  0  0  0  0  0  0  0  0  0  0  0
  132.7750   77.5470  226.5169 H   0  0  0  0  0  0  0  0  0  0  0  0
  132.0858   75.8882  226.5169 H   0  0  0  0  0  0  0  0  0  0  0  0
  135.4410   75.8930  224.9560 C   0  0  0  0  0  0  0  0  0  0  0  0
  135.7302   76.9498  225.0537 H   0  0  0  0  0  0  0  0  0  0  0  0
  1  2  1  0
  2  3  2  0
  3  4  1  0
  3  5  1  0
  5  6  2  0
  6  7  1  0
  7  8  2  0
  8  9  1  0
  8 10  1  0
 10 11  1  0
 10 12  2  0
 12 13  1  0
 12 14  1  0
 14 15  1  0
 14 16  2  0
 16 17  1  0
 17 18  2  0
 17 19  1  0
 19 20  1  0
 20 21  1  0
 20 22  1  0
 20 23  1  0
 23 24  1  0
 23 25  1  0
 25 26  1  0
 25 27  1  0
 25 28  1  0
 28 29  1  0
 28 30  1  0
 28 31  1  0
 31 32  1  0
 31 33  1  0
 31 34  1  0
 34 35  1  0
 34 36  1  0
 34 37  1  0
 37 38  1  0
 37 39  1  0
  2 40  1  0
 40 41  2  0
 41 42  1  0
 41 43  1  0
 43 44  1  0
 43 45  2  0
 45 46  1  0
 46 47  1  0
 47 48  1  0
 47 49  1  0
 47 50  1  0
 45 51  1  0
 51 52  1  0
 52 53  1  0
 53 54  1  0
 53 55  1  0
 53 56  1  0
 51 57  2  0
 57 58  1  0
 19  5  1  0
 37 23  1  0
 57 40  1  0
 16  7  1  0
M  END
>  <UniqueID>  (74) 
68

>  <SMILES>  (74) 
COc1ccc(/C=C/c2nc3ccccc3c(=O)n2CC2CCCCC2)cc1OC

>  <Energy>  (74) 
80.60838969579834

>  <Genealogy>  (74) 
COc1ccc(/C=C/c2nc3ccccc3c(=O)n2CC2CCCCC2)cc1OC (cis-trans isomerization)
COc1ccc(/C=C/c2nc3ccccc3c(=O)n2CC2CCCCC2)cc1OC (3D coordinates assigned)
COc1ccc(/C=C/c2nc3ccccc3c(=O)n2CC2CCCCC2)cc1OC (nonaromatic ring conformer: 80.60838969579834 kcal/mol)

>  <smiles>  (74) 
COc1ccc(/C=C/c2nc3ccccc3c(=O)n2CC2CCCCC2)cc1OC

>  <score_type>  (74) 
oracle

>  <origin>  (74) 
autodockgpu

>  <m_score__min__energy>  (74) 
-7.5199999999999996

>  <m_primary>  (74) 
energy

>  <meeko>  (74) 
{"free_energy": -7.45, "intermolecular_energy": -9.54, "internal_energy": -1.48, "cluster_size": 3, "cluster_id": 2, "rank_in_cluster": 3}

>  <energy>  (74) 
-6.92

>  <cluster_rmsd>  (74) 
1.02

>  <rmsd>  (74) 
269.75

>  <cluster>  (74) 
3

$$$$
CHYZURNRBYISSB-FYWRMAATNA-N
     RDKit          3D

 58 61  0  0  0  0  0  0  0  0999 V2000
  136.2775   76.0883  221.8033 H   0  0  0  0  0  0  0  0  0  0  0  0
  136.7090   75.9140  222.8000 C   0  0  0  0  0  0  0  0  0  0  0  0
  137.9120   76.4230  223.0920 C   0  0  0  0  0  0  0  0  0  0  0  0
  138.0019   77.1524  223.9105 H   0  0  0  0  0  0  0  0  0  0  0  0
  139.1310   76.0260  222.3360 C   0  0  0  0  0  0  0  0  0  0  0  0
  139.3970   74.6920  222.2500 N   0  0  0  0  0  0  0  0  0  0  0  0
  140.5150   74.2160  221.6700 C   0  0  0  0  0  0  0  0  0  0  0  0
  140.7240   72.8340  221.5820 C   0  0  0  0  0  0  0  0  0  0  0  0
  139.9677   72.1369  221.9719 H   0  0  0  0  0  0  0  0  0  0  0  0
  141.8950   72.3410  220.9980 C   0  0  0  0  0  0  0  0  0  0  0  0
  142.0579   71.2555  220.9264 H   0  0  0  0  0  0  0  0  0  0  0  0
  142.8610   73.2270  220.5040 C   0  0  0  0  0  0  0  0  0  0  0  0
  143.7798   72.8368  220.0418 H   0  0  0  0  0  0  0  0  0  0  0  0
  142.6580   74.6050  220.5980 C   0  0  0  0  0  0  0  0  0  0  0  0
  143.4233   75.2991  220.2204 H   0  0  0  0  0  0  0  0  0  0  0  0
  141.4760   75.1090  221.1750 C   0  0  0  0  0  0  0  0  0  0  0  0
  141.2110   76.4820  221.2590 C   0  0  0  0  0  0  0  0  0  0  0  0
  142.0750   77.3040  220.8360 O   0  0  0  0  0  0  0  0  0  0  0  0
  140.0220   76.9370  221.7890 N   0  0  0  0  0  0  0  0  0  0  0  0
  139.7440   78.3930  221.7120 C   0  0  0  0  0  0  0  0  0  0  0  0
  140.3871   78.8369  220.9378 H   0  0  0  0  0  0  0  0  0  0  0  0
  138.6794   78.5232  221.4677 H   0  0  0  0  0  0  0  0  0  0  0  0
  140.0180   79.1110  223.0650 C   0  0  0  0  0  0  0  0  0  0  0  0
  139.2855   78.7105  223.7812 H   0  0  0  0  0  0  0  0  0  0  0  0
  139.7920   80.6450  222.9470 C   0  0  0  0  0  0  0  0  0  0  0  0
  139.1971   80.8356  222.0416 H   0  0  0  0  0  0  0  0  0  0  0  0
  139.2834   80.9573  223.8710 H   0  0  0  0  0  0  0  0  0  0  0  0
  141.0840   81.4780  222.8570 C   0  0  0  0  0  0  0  0  0  0  0  0
  140.8687   82.4091  222.3122 H   0  0  0  0  0  0  0  0  0  0  0  0
  141.4257   81.6857  223.8817 H   0  0  0  0  0  0  0  0  0  0  0  0
  142.2000   80.7290  222.1310 C   0  0  0  0  0  0  0  0  0  0  0  0
  141.8641   80.4944  221.1101 H   0  0  0  0  0  0  0  0  0  0  0  0
  143.0902   81.3751  222.1192 H   0  0  0  0  0  0  0  0  0  0  0  0
  142.5760   79.4140  222.8460 C   0  0  0  0  0  0  0  0  0  0  0  0
  142.9031   78.6877  222.0874 H   0  0  0  0  0  0  0  0  0  0  0  0
  143.3713   79.6563  223.5663 H   0  0  0  0  0  0  0  0  0  0  0  0
  141.4160   78.7900  223.6490 C   0  0  0  0  0  0  0  0  0  0  0  0
  141.5470   77.6979  223.6586 H   0  0  0  0  0  0  0  0  0  0  0  0
  141.4520   79.2232  224.6595 H   0  0  0  0  0  0  0  0  0  0  0  0
  135.9540   75.1280  223.7830 C   0  0  0  0  0  0  0  0  0  0  0  0
  135.7800   73.7470  223.6250 C   0  0  0  0  0  0  0  0  0  0  0  0
  136.2147   73.2345  222.7541 H   0  0  0  0  0  0  0  0  0  0  0  0
  135.0560   73.0210  224.5710 C   0  0  0  0  0  0  0  0  0  0  0  0
  134.9456   71.9325  224.4568 H   0  0  0  0  0  0  0  0  0  0  0  0
  134.4640   73.6740  225.6740 C   0  0  0  0  0  0  0  0  0  0  0  0
  133.7020   72.9830  226.6300 O   0  0  0  0  0  0  0  0  0  0  0  0
  132.3010   73.1600  226.8170 C   0  0  0  0  0  0  0  0  0  0  0  0
  132.0754   73.1885  227.8933 H   0  0  0  0  0  0  0  0  0  0  0  0
  131.9854   74.1052  226.3511 H   0  0  0  0  0  0  0  0  0  0  0  0
  131.7603   72.3230  226.3511 H   0  0  0  0  0  0  0  0  0  0  0  0
  134.6220   75.0610  225.8270 C   0  0  0  0  0  0  0  0  0  0  0  0
  133.9760   75.6870  226.9020 O   0  0  0  0  0  0  0  0  0  0  0  0
  133.2020   76.8830  226.7900 C   0  0  0  0  0  0  0  0  0  0  0  0
  132.9592   77.2581  227.7952 H   0  0  0  0  0  0  0  0  0  0  0  0
  133.7795   77.6437  226.2443 H   0  0  0  0  0  0  0  0  0  0  0  0
  132.2715   76.6678  226.2443 H   0  0  0  0  0  0  0  0  0  0  0  0
  135.3970   75.7790  224.8980 C   0  0  0  0  0  0  0  0  0  0  0  0
  135.5682   76.8557  225.0447 H   0  0  0  0  0  0  0  0  0  0  0  0
  1  2  1  0
  2  3  2  0
  3  4  1  0
  3  5  1  0
  5  6  2  0
  6  7  1  0
  7  8  2  0
  8  9  1  0
  8 10  1  0
 10 11  1  0
 10 12  2  0
 12 13  1  0
 12 14  1  0
 14 15  1  0
 14 16  2  0
 16 17  1  0
 17 18  2  0
 17 19  1  0
 19 20  1  0
 20 21  1  0
 20 22  1  0
 20 23  1  0
 23 24  1  0
 23 25  1  0
 25 26  1  0
 25 27  1  0
 25 28  1  0
 28 29  1  0
 28 30  1  0
 28 31  1  0
 31 32  1  0
 31 33  1  0
 31 34  1  0
 34 35  1  0
 34 36  1  0
 34 37  1  0
 37 38  1  0
 37 39  1  0
  2 40  1  0
 40 41  2  0
 41 42  1  0
 41 43  1  0
 43 44  1  0
 43 45  2  0
 45 46  1  0
 46 47  1  0
 47 48  1  0
 47 49  1  0
 47 50  1  0
 45 51  1  0
 51 52  1  0
 52 53  1  0
 53 54  1  0
 53 55  1  0
 53 56  1  0
 51 57  2  0
 57 58  1  0
 19  5  1  0
 37 23  1  0
 57 40  1  0
 16  7  1  0
M  END
>  <UniqueID>  (75) 
68

>  <SMILES>  (75) 
COc1ccc(/C=C/c2nc3ccccc3c(=O)n2CC2CCCCC2)cc1OC

>  <Energy>  (75) 
80.60838969579834

>  <Genealogy>  (75) 
COc1ccc(/C=C/c2nc3ccccc3c(=O)n2CC2CCCCC2)cc1OC (cis-trans isomerization)
COc1ccc(/C=C/c2nc3ccccc3c(=O)n2CC2CCCCC2)cc1OC (3D coordinates assigned)
COc1ccc(/C=C/c2nc3ccccc3c(=O)n2CC2CCCCC2)cc1OC (nonaromatic ring conformer: 80.60838969579834 kcal/mol)

>  <smiles>  (75) 
COc1ccc(/C=C/c2nc3ccccc3c(=O)n2CC2CCCCC2)cc1OC

>  <score_type>  (75) 
oracle

>  <origin>  (75) 
autodockgpu

>  <m_score__min__energy>  (75) 
-7.5199999999999996

>  <m_primary>  (75) 
energy

>  <meeko>  (75) 
{"free_energy": -7.46, "intermolecular_energy": -9.54, "internal_energy": -1.53, "cluster_size": 3, "cluster_id": 2, "rank_in_cluster": 2}

>  <energy>  (75) 
-6.86

>  <cluster_rmsd>  (75) 
0.94

>  <rmsd>  (75) 
269.58

>  <cluster>  (75) 
3

$$$$
CHYZURNRBYISSB-FYWRMAATNA-N
     RDKit          3D

 58 61  0  0  0  0  0  0  0  0999 V2000
  138.8874   73.3957  222.1066 H   0  0  0  0  0  0  0  0  0  0  0  0
  139.5500   72.5270  221.9790 C   0  0  0  0  0  0  0  0  0  0  0  0
  139.0950   71.3050  222.2820 C   0  0  0  0  0  0  0  0  0  0  0  0
  138.5505   70.7299  221.5186 H   0  0  0  0  0  0  0  0  0  0  0  0
  139.3090   70.7060  223.6290 C   0  0  0  0  0  0  0  0  0  0  0  0
  139.9020   71.4950  224.5680 N   0  0  0  0  0  0  0  0  0  0  0  0
  140.2280   71.0380  225.7920 C   0  0  0  0  0  0  0  0  0  0  0  0
  140.8080   71.9000  226.7300 C   0  0  0  0  0  0  0  0  0  0  0  0
  140.9828   72.9553  226.4734 H   0  0  0  0  0  0  0  0  0  0  0  0
  141.1650   71.4190  227.9930 C   0  0  0  0  0  0  0  0  0  0  0  0
  141.6187   72.0972  228.7306 H   0  0  0  0  0  0  0  0  0  0  0  0
  140.9460   70.0750  228.3210 C   0  0  0  0  0  0  0  0  0  0  0  0
  141.2233   69.6997  229.3171 H   0  0  0  0  0  0  0  0  0  0  0  0
  140.3760   69.2120  227.3840 C   0  0  0  0  0  0  0  0  0  0  0  0
  140.2170   68.1538  227.6389 H   0  0  0  0  0  0  0  0  0  0  0  0
  140.0040   69.6910  226.1140 C   0  0  0  0  0  0  0  0  0  0  0  0
  139.3940   68.8730  225.1540 C   0  0  0  0  0  0  0  0  0  0  0  0
  139.2020   67.6500  225.4180 O   0  0  0  0  0  0  0  0  0  0  0  0
  139.0020   69.3890  223.9370 N   0  0  0  0  0  0  0  0  0  0  0  0
  138.2310   68.5050  223.0270 C   0  0  0  0  0  0  0  0  0  0  0  0
  137.5427   67.8913  223.6267 H   0  0  0  0  0  0  0  0  0  0  0  0
  137.6811   69.1423  222.3189 H   0  0  0  0  0  0  0  0  0  0  0  0
  139.1590   67.5630  222.2060 C   0  0  0  0  0  0  0  0  0  0  0  0
  140.0702   67.4271  222.8069 H   0  0  0  0  0  0  0  0  0  0  0  0
  139.5640   68.2090  220.8500 C   0  0  0  0  0  0  0  0  0  0  0  0
  139.3677   69.2896  220.9122 H   0  0  0  0  0  0  0  0  0  0  0  0
  140.6273   67.9726  220.6966 H   0  0  0  0  0  0  0  0  0  0  0  0
  138.8110   67.6530  219.6260 C   0  0  0  0  0  0  0  0  0  0  0  0
  138.7752   68.4301  218.8483 H   0  0  0  0  0  0  0  0  0  0  0  0
  139.3489   66.7607  219.2734 H   0  0  0  0  0  0  0  0  0  0  0  0
  137.3830   67.2360  219.9720 C   0  0  0  0  0  0  0  0  0  0  0  0
  136.8383   68.1142  220.3491 H   0  0  0  0  0  0  0  0  0  0  0  0
  136.9151   66.8385  219.0593 H   0  0  0  0  0  0  0  0  0  0  0  0
  137.3470   66.1280  221.0470 C   0  0  0  0  0  0  0  0  0  0  0  0
  136.4326   66.2542  221.6452 H   0  0  0  0  0  0  0  0  0  0  0  0
  137.3721   65.1647  220.5165 H   0  0  0  0  0  0  0  0  0  0  0  0
  138.5600   66.1490  222.0010 C   0  0  0  0  0  0  0  0  0  0  0  0
  138.2405   65.7608  222.9794 H   0  0  0  0  0  0  0  0  0  0  0  0
  139.3438   65.5283  221.5423 H   0  0  0  0  0  0  0  0  0  0  0  0
  140.9150   72.7310  221.4800 C   0  0  0  0  0  0  0  0  0  0  0  0
  141.4200   74.0190  221.2630 C   0  0  0  0  0  0  0  0  0  0  0  0
  140.7919   74.8981  221.4694 H   0  0  0  0  0  0  0  0  0  0  0  0
  142.7200   74.1870  220.7850 C   0  0  0  0  0  0  0  0  0  0  0  0
  143.1224   75.2009  220.6431 H   0  0  0  0  0  0  0  0  0  0  0  0
  143.5230   73.0660  220.4820 C   0  0  0  0  0  0  0  0  0  0  0  0
  144.8240   73.1950  219.9700 O   0  0  0  0  0  0  0  0  0  0  0  0
  145.9620   73.5340  220.7560 C   0  0  0  0  0  0  0  0  0  0  0  0
  145.7064   73.4579  221.8232 H   0  0  0  0  0  0  0  0  0  0  0  0
  146.7858   72.8422  220.5260 H   0  0  0  0  0  0  0  0  0  0  0  0
  146.2729   74.5638  220.5260 H   0  0  0  0  0  0  0  0  0  0  0  0
  143.0130   71.7730  220.6820 C   0  0  0  0  0  0  0  0  0  0  0  0
  143.8140   70.6810  220.3200 O   0  0  0  0  0  0  0  0  0  0  0  0
  143.4380   69.6890  219.3630 C   0  0  0  0  0  0  0  0  0  0  0  0
  143.0953   68.7848  219.8875 H   0  0  0  0  0  0  0  0  0  0  0  0
  142.6248   70.0775  218.7324 H   0  0  0  0  0  0  0  0  0  0  0  0
  144.3045   69.4409  218.7324 H   0  0  0  0  0  0  0  0  0  0  0  0
  141.7210   71.6090  221.2140 C   0  0  0  0  0  0  0  0  0  0  0  0
  141.3392   70.5988  221.4230 H   0  0  0  0  0  0  0  0  0  0  0  0
  1  2  1  0
  2  3  2  0
  3  4  1  0
  3  5  1  0
  5  6  2  0
  6  7  1  0
  7  8  2  0
  8  9  1  0
  8 10  1  0
 10 11  1  0
 10 12  2  0
 12 13  1  0
 12 14  1  0
 14 15  1  0
 14 16  2  0
 16 17  1  0
 17 18  2  0
 17 19  1  0
 19 20  1  0
 20 21  1  0
 20 22  1  0
 20 23  1  0
 23 24  1  0
 23 25  1  0
 25 26  1  0
 25 27  1  0
 25 28  1  0
 28 29  1  0
 28 30  1  0
 28 31  1  0
 31 32  1  0
 31 33  1  0
 31 34  1  0
 34 35  1  0
 34 36  1  0
 34 37  1  0
 37 38  1  0
 37 39  1  0
  2 40  1  0
 40 41  2  0
 41 42  1  0
 41 43  1  0
 43 44  1  0
 43 45  2  0
 45 46  1  0
 46 47  1  0
 47 48  1  0
 47 49  1  0
 47 50  1  0
 45 51  1  0
 51 52  1  0
 52 53  1  0
 53 54  1  0
 53 55  1  0
 53 56  1  0
 51 57  2  0
 57 58  1  0
 19  5  1  0
 37 23  1  0
 57 40  1  0
 16  7  1  0
M  END
>  <UniqueID>  (76) 
68

>  <SMILES>  (76) 
COc1ccc(/C=C/c2nc3ccccc3c(=O)n2CC2CCCCC2)cc1OC

>  <Energy>  (76) 
80.60838969579834

>  <Genealogy>  (76) 
COc1ccc(/C=C/c2nc3ccccc3c(=O)n2CC2CCCCC2)cc1OC (cis-trans isomerization)
COc1ccc(/C=C/c2nc3ccccc3c(=O)n2CC2CCCCC2)cc1OC (3D coordinates assigned)
COc1ccc(/C=C/c2nc3ccccc3c(=O)n2CC2CCCCC2)cc1OC (nonaromatic ring conformer: 80.60838969579834 kcal/mol)

>  <smiles>  (76) 
COc1ccc(/C=C/c2nc3ccccc3c(=O)n2CC2CCCCC2)cc1OC

>  <score_type>  (76) 
oracle

>  <origin>  (76) 
autodockgpu

>  <m_score__min__energy>  (76) 
-7.5199999999999996

>  <m_primary>  (76) 
energy

>  <meeko>  (76) 
{"free_energy": -7.05, "intermolecular_energy": -9.14, "internal_energy": -1.75, "cluster_size": 7, "cluster_id": 1, "rank_in_cluster": 6}

>  <energy>  (76) 
-7.03

>  <cluster_rmsd>  (76) 
0.0

>  <rmsd>  (76) 
269.93

>  <cluster>  (76) 
4

$$$$
CHYZURNRBYISSB-FYWRMAATNA-N
     RDKit          3D

 58 61  0  0  0  0  0  0  0  0999 V2000
  140.2240   70.4722  220.7425 H   0  0  0  0  0  0  0  0  0  0  0  0
  140.8710   71.2710  221.1340 C   0  0  0  0  0  0  0  0  0  0  0  0
  140.4970   71.9390  222.2320 C   0  0  0  0  0  0  0  0  0  0  0  0
  140.3932   73.0331  222.1856 H   0  0  0  0  0  0  0  0  0  0  0  0
  140.2180   71.2360  223.5150 C   0  0  0  0  0  0  0  0  0  0  0  0
  140.7430   71.7860  224.6460 N   0  0  0  0  0  0  0  0  0  0  0  0
  140.6360   71.1950  225.8520 C   0  0  0  0  0  0  0  0  0  0  0  0
  141.1670   71.8190  226.9870 C   0  0  0  0  0  0  0  0  0  0  0  0
  141.6577   72.7994  226.8975 H   0  0  0  0  0  0  0  0  0  0  0  0
  141.0730   71.1950  228.2340 C   0  0  0  0  0  0  0  0  0  0  0  0
  141.4888   71.6864  229.1260 H   0  0  0  0  0  0  0  0  0  0  0  0
  140.4510   69.9460  228.3510 C   0  0  0  0  0  0  0  0  0  0  0  0
  140.3744   69.4596  229.3346 H   0  0  0  0  0  0  0  0  0  0  0  0
  139.9280   69.3180  227.2190 C   0  0  0  0  0  0  0  0  0  0  0  0
  139.4513   68.3309  227.3104 H   0  0  0  0  0  0  0  0  0  0  0  0
  140.0090   69.9450  225.9600 C   0  0  0  0  0  0  0  0  0  0  0  0
  139.4660   69.3730  224.8020 C   0  0  0  0  0  0  0  0  0  0  0  0
  138.9140   68.2370  224.8760 O   0  0  0  0  0  0  0  0  0  0  0  0
  139.5250   70.0380  223.5960 N   0  0  0  0  0  0  0  0  0  0  0  0
  138.8020   69.4440  222.4440 C   0  0  0  0  0  0  0  0  0  0  0  0
  139.4547   69.4783  221.5592 H   0  0  0  0  0  0  0  0  0  0  0  0
  138.5397   68.4081  222.7051 H   0  0  0  0  0  0  0  0  0  0  0  0
  137.4840   70.2080  222.1260 C   0  0  0  0  0  0  0  0  0  0  0  0
  137.6631   70.7582  221.1905 H   0  0  0  0  0  0  0  0  0  0  0  0
  137.1470   71.2410  223.2390 C   0  0  0  0  0  0  0  0  0  0  0  0
  138.0585   71.4206  223.8280 H   0  0  0  0  0  0  0  0  0  0  0  0
  136.7800   72.1428  222.7271 H   0  0  0  0  0  0  0  0  0  0  0  0
  136.0300   70.8010  224.2040 C   0  0  0  0  0  0  0  0  0  0  0  0
  136.1822   71.2985  225.1732 H   0  0  0  0  0  0  0  0  0  0  0  0
  135.0654   71.0840  223.7574 H   0  0  0  0  0  0  0  0  0  0  0  0
  136.0220   69.2900  224.4220 C   0  0  0  0  0  0  0  0  0  0  0  0
  136.9900   68.9881  224.8484 H   0  0  0  0  0  0  0  0  0  0  0  0
  135.1931   69.0508  225.1044 H   0  0  0  0  0  0  0  0  0  0  0  0
  135.7940   68.5150  223.1080 C   0  0  0  0  0  0  0  0  0  0  0  0
  136.3291   67.5562  223.1734 H   0  0  0  0  0  0  0  0  0  0  0  0
  134.7075   68.3836  222.9975 H   0  0  0  0  0  0  0  0  0  0  0  0
  136.2870   69.2630  221.8510 C   0  0  0  0  0  0  0  0  0  0  0  0
  136.5952   68.5193  221.1013 H   0  0  0  0  0  0  0  0  0  0  0  0
  135.4540   69.8889  221.4984 H   0  0  0  0  0  0  0  0  0  0  0  0
  142.1270   71.5830  220.4420 C   0  0  0  0  0  0  0  0  0  0  0  0
  142.4890   70.9150  219.2660 C   0  0  0  0  0  0  0  0  0  0  0  0
  141.8272   70.1433  218.8459 H   0  0  0  0  0  0  0  0  0  0  0  0
  143.6890   71.2280  218.6270 C   0  0  0  0  0  0  0  0  0  0  0  0
  143.9551   70.7216  217.6874 H   0  0  0  0  0  0  0  0  0  0  0  0
  144.5650   72.1900  219.1770 C   0  0  0  0  0  0  0  0  0  0  0  0
  145.7950   72.5080  218.5800 O   0  0  0  0  0  0  0  0  0  0  0  0
  145.9370   73.3580  217.4460 C   0  0  0  0  0  0  0  0  0  0  0  0
  146.1096   74.3912  217.7816 H   0  0  0  0  0  0  0  0  0  0  0  0
  146.7914   73.0216  216.8403 H   0  0  0  0  0  0  0  0  0  0  0  0
  145.0197   73.3176  216.8403 H   0  0  0  0  0  0  0  0  0  0  0  0
  144.2120   72.8490  220.3660 C   0  0  0  0  0  0  0  0  0  0  0  0
  145.1260   73.7580  220.9160 O   0  0  0  0  0  0  0  0  0  0  0  0
  146.3240   73.3830  221.5980 C   0  0  0  0  0  0  0  0  0  0  0  0
  146.1590   73.4347  222.6843 H   0  0  0  0  0  0  0  0  0  0  0  0
  146.5994   72.3557  221.3174 H   0  0  0  0  0  0  0  0  0  0  0  0
  147.1360   74.0699  221.3174 H   0  0  0  0  0  0  0  0  0  0  0  0
  142.9760   72.5680  220.9770 C   0  0  0  0  0  0  0  0  0  0  0  0
  142.6724   73.1217  221.8777 H   0  0  0  0  0  0  0  0  0  0  0  0
  1  2  1  0
  2  3  2  0
  3  4  1  0
  3  5  1  0
  5  6  2  0
  6  7  1  0
  7  8  2  0
  8  9  1  0
  8 10  1  0
 10 11  1  0
 10 12  2  0
 12 13  1  0
 12 14  1  0
 14 15  1  0
 14 16  2  0
 16 17  1  0
 17 18  2  0
 17 19  1  0
 19 20  1  0
 20 21  1  0
 20 22  1  0
 20 23  1  0
 23 24  1  0
 23 25  1  0
 25 26  1  0
 25 27  1  0
 25 28  1  0
 28 29  1  0
 28 30  1  0
 28 31  1  0
 31 32  1  0
 31 33  1  0
 31 34  1  0
 34 35  1  0
 34 36  1  0
 34 37  1  0
 37 38  1  0
 37 39  1  0
  2 40  1  0
 40 41  2  0
 41 42  1  0
 41 43  1  0
 43 44  1  0
 43 45  2  0
 45 46  1  0
 46 47  1  0
 47 48  1  0
 47 49  1  0
 47 50  1  0
 45 51  1  0
 51 52  1  0
 52 53  1  0
 53 54  1  0
 53 55  1  0
 53 56  1  0
 51 57  2  0
 57 58  1  0
 19  5  1  0
 37 23  1  0
 57 40  1  0
 16  7  1  0
M  END
>  <UniqueID>  (77) 
68

>  <SMILES>  (77) 
COc1ccc(/C=C/c2nc3ccccc3c(=O)n2CC2CCCCC2)cc1OC

>  <Energy>  (77) 
80.60838969579834

>  <Genealogy>  (77) 
COc1ccc(/C=C/c2nc3ccccc3c(=O)n2CC2CCCCC2)cc1OC (cis-trans isomerization)
COc1ccc(/C=C/c2nc3ccccc3c(=O)n2CC2CCCCC2)cc1OC (3D coordinates assigned)
COc1ccc(/C=C/c2nc3ccccc3c(=O)n2CC2CCCCC2)cc1OC (nonaromatic ring conformer: 80.60838969579834 kcal/mol)

>  <smiles>  (77) 
COc1ccc(/C=C/c2nc3ccccc3c(=O)n2CC2CCCCC2)cc1OC

>  <score_type>  (77) 
oracle

>  <origin>  (77) 
autodockgpu

>  <m_score__min__energy>  (77) 
-7.5199999999999996

>  <m_primary>  (77) 
energy

>  <meeko>  (77) 
{"free_energy": -7.3, "intermolecular_energy": -9.39, "internal_energy": -1.69, "cluster_size": 7, "cluster_id": 1, "rank_in_cluster": 4}

>  <energy>  (77) 
-7.02

>  <cluster_rmsd>  (77) 
0.0

>  <rmsd>  (77) 
269.2

>  <cluster>  (77) 
5

$$$$
CHYZURNRBYISSB-FYWRMAATNA-N
     RDKit          3D

 58 61  0  0  0  0  0  0  0  0999 V2000
  140.8514   73.6990  222.4814 H   0  0  0  0  0  0  0  0  0  0  0  0
  141.1360   72.7830  221.9430 C   0  0  0  0  0  0  0  0  0  0  0  0
  140.3840   71.6840  222.0750 C   0  0  0  0  0  0  0  0  0  0  0  0
  139.9512   71.2185  221.1772 H   0  0  0  0  0  0  0  0  0  0  0  0
  140.1190   71.0760  223.4090 C   0  0  0  0  0  0  0  0  0  0  0  0
  140.6720   71.6960  224.4890 N   0  0  0  0  0  0  0  0  0  0  0  0
  140.5780   71.1930  225.7350 C   0  0  0  0  0  0  0  0  0  0  0  0
  141.1380   71.8870  226.8150 C   0  0  0  0  0  0  0  0  0  0  0  0
  141.6396   72.8517  226.6487 H   0  0  0  0  0  0  0  0  0  0  0  0
  141.0590   71.3530  228.1040 C   0  0  0  0  0  0  0  0  0  0  0  0
  141.4979   71.8988  228.9522 H   0  0  0  0  0  0  0  0  0  0  0  0
  140.4220   70.1240  228.3180 C   0  0  0  0  0  0  0  0  0  0  0  0
  140.3559   69.7087  229.3344 H   0  0  0  0  0  0  0  0  0  0  0  0
  139.8710   69.4260  227.2420 C   0  0  0  0  0  0  0  0  0  0  0  0
  139.3841   68.4541  227.4101 H   0  0  0  0  0  0  0  0  0  0  0  0
  139.9370   69.9630  225.9420 C   0  0  0  0  0  0  0  0  0  0  0  0
  139.3660   69.3190  224.8360 C   0  0  0  0  0  0  0  0  0  0  0  0
  138.8020   68.1980  224.9990 O   0  0  0  0  0  0  0  0  0  0  0  0
  139.4120   69.8960  223.5850 N   0  0  0  0  0  0  0  0  0  0  0  0
  138.6610   69.2340  222.4900 C   0  0  0  0  0  0  0  0  0  0  0  0
  139.3192   69.1411  221.6136 H   0  0  0  0  0  0  0  0  0  0  0  0
  138.3356   68.2467  222.8497 H   0  0  0  0  0  0  0  0  0  0  0  0
  137.3930   70.0390  222.0830 C   0  0  0  0  0  0  0  0  0  0  0  0
  137.6090   70.4773  221.0975 H   0  0  0  0  0  0  0  0  0  0  0  0
  137.1160   71.2000  223.0790 C   0  0  0  0  0  0  0  0  0  0  0  0
  138.0347   71.3845  223.6552 H   0  0  0  0  0  0  0  0  0  0  0  0
  136.8066   72.0642  222.4728 H   0  0  0  0  0  0  0  0  0  0  0  0
  135.9700   70.9310  224.0740 C   0  0  0  0  0  0  0  0  0  0  0  0
  136.1486   71.5166  224.9879 H   0  0  0  0  0  0  0  0  0  0  0  0
  135.0259   71.2238  223.5914 H   0  0  0  0  0  0  0  0  0  0  0  0
  135.8700   69.4540  224.4470 C   0  0  0  0  0  0  0  0  0  0  0  0
  136.8168   69.1404  224.9110 H   0  0  0  0  0  0  0  0  0  0  0  0
  135.0264   69.3367  225.1432 H   0  0  0  0  0  0  0  0  0  0  0  0
  135.5990   68.5620  223.2170 C   0  0  0  0  0  0  0  0  0  0  0  0
  136.0741   67.5844  223.3858 H   0  0  0  0  0  0  0  0  0  0  0  0
  134.5069   68.4857  223.1102 H   0  0  0  0  0  0  0  0  0  0  0  0
  136.1410   69.1450  221.8950 C   0  0  0  0  0  0  0  0  0  0  0  0
  136.4054   68.3107  221.2287 H   0  0  0  0  0  0  0  0  0  0  0  0
  135.3491   69.7807  221.4721 H   0  0  0  0  0  0  0  0  0  0  0  0
  142.3330   72.7900  221.0940 C   0  0  0  0  0  0  0  0  0  0  0  0
  142.8310   73.9840  220.5570 C   0  0  0  0  0  0  0  0  0  0  0  0
  142.3245   74.9367  220.7710 H   0  0  0  0  0  0  0  0  0  0  0  0
  143.9690   73.9650  219.7510 C   0  0  0  0  0  0  0  0  0  0  0  0
  144.3730   74.9084  219.3551 H   0  0  0  0  0  0  0  0  0  0  0  0
  144.6070   72.7440  219.4390 C   0  0  0  0  0  0  0  0  0  0  0  0
  145.7360   72.6820  218.6060 O   0  0  0  0  0  0  0  0  0  0  0  0
  145.8260   73.3170  217.3350 C   0  0  0  0  0  0  0  0  0  0  0  0
  145.9791   74.3973  217.4749 H   0  0  0  0  0  0  0  0  0  0  0  0
  146.6735   72.8961  216.7740 H   0  0  0  0  0  0  0  0  0  0  0  0
  144.8950   73.1482  216.7740 H   0  0  0  0  0  0  0  0  0  0  0  0
  144.1000   71.5440  219.9620 C   0  0  0  0  0  0  0  0  0  0  0  0
  144.7220   70.3440  219.5910 O   0  0  0  0  0  0  0  0  0  0  0  0
  144.1100   69.0570  219.6870 C   0  0  0  0  0  0  0  0  0  0  0  0
  143.9828   68.7896  220.7464 H   0  0  0  0  0  0  0  0  0  0  0  0
  143.1268   69.0808  219.1943 H   0  0  0  0  0  0  0  0  0  0  0  0
  144.7490   68.3094  219.1943 H   0  0  0  0  0  0  0  0  0  0  0  0
  142.9830   71.5740  220.8180 C   0  0  0  0  0  0  0  0  0  0  0  0
  142.6169   70.6419  221.2731 H   0  0  0  0  0  0  0  0  0  0  0  0
  1  2  1  0
  2  3  2  0
  3  4  1  0
  3  5  1  0
  5  6  2  0
  6  7  1  0
  7  8  2  0
  8  9  1  0
  8 10  1  0
 10 11  1  0
 10 12  2  0
 12 13  1  0
 12 14  1  0
 14 15  1  0
 14 16  2  0
 16 17  1  0
 17 18  2  0
 17 19  1  0
 19 20  1  0
 20 21  1  0
 20 22  1  0
 20 23  1  0
 23 24  1  0
 23 25  1  0
 25 26  1  0
 25 27  1  0
 25 28  1  0
 28 29  1  0
 28 30  1  0
 28 31  1  0
 31 32  1  0
 31 33  1  0
 31 34  1  0
 34 35  1  0
 34 36  1  0
 34 37  1  0
 37 38  1  0
 37 39  1  0
  2 40  1  0
 40 41  2  0
 41 42  1  0
 41 43  1  0
 43 44  1  0
 43 45  2  0
 45 46  1  0
 46 47  1  0
 47 48  1  0
 47 49  1  0
 47 50  1  0
 45 51  1  0
 51 52  1  0
 52 53  1  0
 53 54  1  0
 53 55  1  0
 53 56  1  0
 51 57  2  0
 57 58  1  0
 19  5  1  0
 37 23  1  0
 57 40  1  0
 16  7  1  0
M  END
>  <UniqueID>  (78) 
68

>  <SMILES>  (78) 
COc1ccc(/C=C/c2nc3ccccc3c(=O)n2CC2CCCCC2)cc1OC

>  <Energy>  (78) 
80.60838969579834

>  <Genealogy>  (78) 
COc1ccc(/C=C/c2nc3ccccc3c(=O)n2CC2CCCCC2)cc1OC (cis-trans isomerization)
COc1ccc(/C=C/c2nc3ccccc3c(=O)n2CC2CCCCC2)cc1OC (3D coordinates assigned)
COc1ccc(/C=C/c2nc3ccccc3c(=O)n2CC2CCCCC2)cc1OC (nonaromatic ring conformer: 80.60838969579834 kcal/mol)

>  <smiles>  (78) 
COc1ccc(/C=C/c2nc3ccccc3c(=O)n2CC2CCCCC2)cc1OC

>  <score_type>  (78) 
oracle

>  <origin>  (78) 
autodockgpu

>  <m_score__min__energy>  (78) 
-7.5199999999999996

>  <m_primary>  (78) 
energy

>  <meeko>  (78) 
{"free_energy": -7.46, "intermolecular_energy": -9.55, "internal_energy": -1.67, "cluster_size": 7, "cluster_id": 1, "rank_in_cluster": 2}

>  <energy>  (78) 
-6.99

>  <cluster_rmsd>  (78) 
0.57

>  <rmsd>  (78) 
269.2

>  <cluster>  (78) 
5

$$$$
CHYZURNRBYISSB-FYWRMAATNA-N
     RDKit          3D

 58 61  0  0  0  0  0  0  0  0999 V2000
  142.7155   77.3710  218.0849 H   0  0  0  0  0  0  0  0  0  0  0  0
  142.8410   76.7630  218.9930 C   0  0  0  0  0  0  0  0  0  0  0  0
  142.2460   77.1490  220.1290 C   0  0  0  0  0  0  0  0  0  0  0  0
  142.5386   78.1034  220.5911 H   0  0  0  0  0  0  0  0  0  0  0  0
  141.1980   76.3170  220.7810 C   0  0  0  0  0  0  0  0  0  0  0  0
  141.3450   74.9640  220.7000 N   0  0  0  0  0  0  0  0  0  0  0  0
  140.4180   74.1090  221.1730 C   0  0  0  0  0  0  0  0  0  0  0  0
  140.6340   72.7280  221.0910 C   0  0  0  0  0  0  0  0  0  0  0  0
  141.5674   72.3415  220.6557 H   0  0  0  0  0  0  0  0  0  0  0  0
  139.6620   71.8410  221.5630 C   0  0  0  0  0  0  0  0  0  0  0  0
  139.8331   70.7561  221.5014 H   0  0  0  0  0  0  0  0  0  0  0  0
  138.4710   72.3300  222.1140 C   0  0  0  0  0  0  0  0  0  0  0  0
  137.7092   71.6299  222.4875 H   0  0  0  0  0  0  0  0  0  0  0  0
  138.2510   73.7070  222.1890 C   0  0  0  0  0  0  0  0  0  0  0  0
  137.3101   74.0896  222.6114 H   0  0  0  0  0  0  0  0  0  0  0  0
  139.2290   74.6070  221.7260 C   0  0  0  0  0  0  0  0  0  0  0  0
  139.0700   75.9960  221.8120 C   0  0  0  0  0  0  0  0  0  0  0  0
  137.9960   76.4650  222.2900 O   0  0  0  0  0  0  0  0  0  0  0  0
  140.0700   76.8460  221.3900 N   0  0  0  0  0  0  0  0  0  0  0  0
  139.8970   78.2980  221.6470 C   0  0  0  0  0  0  0  0  0  0  0  0
  140.5614   78.8595  220.9737 H   0  0  0  0  0  0  0  0  0  0  0  0
  138.8419   78.5516  221.4672 H   0  0  0  0  0  0  0  0  0  0  0  0
  140.2380   78.6740  223.1180 C   0  0  0  0  0  0  0  0  0  0  0  0
  139.6569   77.9897  223.7536 H   0  0  0  0  0  0  0  0  0  0  0  0
  139.8000   80.1290  223.4470 C   0  0  0  0  0  0  0  0  0  0  0  0
  139.0784   80.4517  222.6821 H   0  0  0  0  0  0  0  0  0  0  0  0
  139.3718   80.1050  224.4599 H   0  0  0  0  0  0  0  0  0  0  0  0
  140.9520   81.1510  223.4830 C   0  0  0  0  0  0  0  0  0  0  0  0
  140.5518   82.1453  223.2358 H   0  0  0  0  0  0  0  0  0  0  0  0
  141.3869   81.1355  224.4932 H   0  0  0  0  0  0  0  0  0  0  0  0
  142.0580   80.8050  222.4900 C   0  0  0  0  0  0  0  0  0  0  0  0
  141.6331   80.7932  221.4755 H   0  0  0  0  0  0  0  0  0  0  0  0
  142.8472   81.5656  222.5828 H   0  0  0  0  0  0  0  0  0  0  0  0
  142.6890   79.4260  222.7820 C   0  0  0  0  0  0  0  0  0  0  0  0
  143.0134   78.9837  221.8285 H   0  0  0  0  0  0  0  0  0  0  0  0
  143.5278   79.5963  223.4729 H   0  0  0  0  0  0  0  0  0  0  0  0
  141.7280   78.4380  223.4750 C   0  0  0  0  0  0  0  0  0  0  0  0
  142.0011   77.4162  223.1728 H   0  0  0  0  0  0  0  0  0  0  0  0
  141.8301   78.5928  224.5593 H   0  0  0  0  0  0  0  0  0  0  0  0
  143.6570   75.5450  218.9360 C   0  0  0  0  0  0  0  0  0  0  0  0
  143.9180   74.9060  217.7180 C   0  0  0  0  0  0  0  0  0  0  0  0
  143.5103   75.3178  216.7830 H   0  0  0  0  0  0  0  0  0  0  0  0
  144.6950   73.7470  217.6890 C   0  0  0  0  0  0  0  0  0  0  0  0
  144.9211   73.2649  216.7265 H   0  0  0  0  0  0  0  0  0  0  0  0
  145.1930   73.1890  218.8870 C   0  0  0  0  0  0  0  0  0  0  0  0
  145.9510   72.0070  218.9010 O   0  0  0  0  0  0  0  0  0  0  0  0
  145.3900   70.6980  218.9340 C   0  0  0  0  0  0  0  0  0  0  0  0
  145.2551   70.3832  219.9793 H   0  0  0  0  0  0  0  0  0  0  0  0
  144.4153   70.7038  218.4241 H   0  0  0  0  0  0  0  0  0  0  0  0
  146.0664   69.9962  218.4241 H   0  0  0  0  0  0  0  0  0  0  0  0
  144.9180   73.8170  220.1120 C   0  0  0  0  0  0  0  0  0  0  0  0
  145.3800   73.2080  221.2870 O   0  0  0  0  0  0  0  0  0  0  0  0
  146.6900   73.3890  221.8260 C   0  0  0  0  0  0  0  0  0  0  0  0
  146.6386   73.3819  222.9248 H   0  0  0  0  0  0  0  0  0  0  0  0
  147.3432   72.5726  221.4842 H   0  0  0  0  0  0  0  0  0  0  0  0
  147.0973   74.3520  221.4842 H   0  0  0  0  0  0  0  0  0  0  0  0
  144.1790   75.0140  220.1300 C   0  0  0  0  0  0  0  0  0  0  0  0
  144.0084   75.5375  221.0823 H   0  0  0  0  0  0  0  0  0  0  0  0
  1  2  1  0
  2  3  2  0
  3  4  1  0
  3  5  1  0
  5  6  2  0
  6  7  1  0
  7  8  2  0
  8  9  1  0
  8 10  1  0
 10 11  1  0
 10 12  2  0
 12 13  1  0
 12 14  1  0
 14 15  1  0
 14 16  2  0
 16 17  1  0
 17 18  2  0
 17 19  1  0
 19 20  1  0
 20 21  1  0
 20 22  1  0
 20 23  1  0
 23 24  1  0
 23 25  1  0
 25 26  1  0
 25 27  1  0
 25 28  1  0
 28 29  1  0
 28 30  1  0
 28 31  1  0
 31 32  1  0
 31 33  1  0
 31 34  1  0
 34 35  1  0
 34 36  1  0
 34 37  1  0
 37 38  1  0
 37 39  1  0
  2 40  1  0
 40 41  2  0
 41 42  1  0
 41 43  1  0
 43 44  1  0
 43 45  2  0
 45 46  1  0
 46 47  1  0
 47 48  1  0
 47 49  1  0
 47 50  1  0
 45 51  1  0
 51 52  1  0
 52 53  1  0
 53 54  1  0
 53 55  1  0
 53 56  1  0
 51 57  2  0
 57 58  1  0
 19  5  1  0
 37 23  1  0
 57 40  1  0
 16  7  1  0
M  END
>  <UniqueID>  (79) 
68

>  <SMILES>  (79) 
COc1ccc(/C=C/c2nc3ccccc3c(=O)n2CC2CCCCC2)cc1OC

>  <Energy>  (79) 
80.60838969579834

>  <Genealogy>  (79) 
COc1ccc(/C=C/c2nc3ccccc3c(=O)n2CC2CCCCC2)cc1OC (cis-trans isomerization)
COc1ccc(/C=C/c2nc3ccccc3c(=O)n2CC2CCCCC2)cc1OC (3D coordinates assigned)
COc1ccc(/C=C/c2nc3ccccc3c(=O)n2CC2CCCCC2)cc1OC (nonaromatic ring conformer: 80.60838969579834 kcal/mol)

>  <smiles>  (79) 
COc1ccc(/C=C/c2nc3ccccc3c(=O)n2CC2CCCCC2)cc1OC

>  <score_type>  (79) 
oracle

>  <origin>  (79) 
autodockgpu

>  <m_score__min__energy>  (79) 
-7.5199999999999996

>  <m_primary>  (79) 
energy

>  <meeko>  (79) 
{"free_energy": -7.03, "intermolecular_energy": -9.12, "internal_energy": -1.8, "cluster_size": 1, "cluster_id": 4, "rank_in_cluster": 1}

>  <energy>  (79) 
-6.93

>  <cluster_rmsd>  (79) 
0.77

>  <rmsd>  (79) 
269.21

>  <cluster>  (79) 
5

$$$$
CHYZURNRBYISSB-FYWRMAATNA-N
     RDKit          3D

 58 61  0  0  0  0  0  0  0  0999 V2000
  138.6254   73.3475  222.1925 H   0  0  0  0  0  0  0  0  0  0  0  0
  139.3310   72.5130  222.0670 C   0  0  0  0  0  0  0  0  0  0  0  0
  138.9390   71.2710  222.3740 C   0  0  0  0  0  0  0  0  0  0  0  0
  138.4126   70.6712  221.6170 H   0  0  0  0  0  0  0  0  0  0  0  0
  139.1990   70.6820  223.7170 C   0  0  0  0  0  0  0  0  0  0  0  0
  139.8580   71.4650  224.6170 N   0  0  0  0  0  0  0  0  0  0  0  0
  140.2280   71.0130  225.8310 C   0  0  0  0  0  0  0  0  0  0  0  0
  140.8770   71.8690  226.7290 C   0  0  0  0  0  0  0  0  0  0  0  0
  141.0703   72.9152  226.4497 H   0  0  0  0  0  0  0  0  0  0  0  0
  141.2790   71.3940  227.9800 C   0  0  0  0  0  0  0  0  0  0  0  0
  141.7865   72.0679  228.6859 H   0  0  0  0  0  0  0  0  0  0  0  0
  141.0370   70.0610  228.3370 C   0  0  0  0  0  0  0  0  0  0  0  0
  141.3501   69.6903  229.3242 H   0  0  0  0  0  0  0  0  0  0  0  0
  140.3980   69.2030  227.4390 C   0  0  0  0  0  0  0  0  0  0  0  0
  140.2207   68.1531  227.7153 H   0  0  0  0  0  0  0  0  0  0  0  0
  139.9800   69.6780  226.1810 C   0  0  0  0  0  0  0  0  0  0  0  0
  139.3030   68.8660  225.2620 C   0  0  0  0  0  0  0  0  0  0  0  0
  139.0880   67.6530  225.5520 O   0  0  0  0  0  0  0  0  0  0  0  0
  138.8690   69.3790  224.0580 N   0  0  0  0  0  0  0  0  0  0  0  0
  138.0310   68.5070  223.1980 C   0  0  0  0  0  0  0  0  0  0  0  0
  137.3366   67.9408  223.8361 H   0  0  0  0  0  0  0  0  0  0  0  0
  137.4872   69.1499  222.4902 H   0  0  0  0  0  0  0  0  0  0  0  0
  138.8880   67.5030  222.3740 C   0  0  0  0  0  0  0  0  0  0  0  0
  139.6760   67.1420  223.0513 H   0  0  0  0  0  0  0  0  0  0  0  0
  139.5710   68.2020  221.1640 C   0  0  0  0  0  0  0  0  0  0  0  0
  139.5518   69.2878  221.3393 H   0  0  0  0  0  0  0  0  0  0  0  0
  140.5903   67.7931  221.1022 H   0  0  0  0  0  0  0  0  0  0  0  0
  138.9050   67.9230  219.8030 C   0  0  0  0  0  0  0  0  0  0  0  0
  139.1024   68.7711  219.1308 H   0  0  0  0  0  0  0  0  0  0  0  0
  139.3289   66.9902  219.4028 H   0  0  0  0  0  0  0  0  0  0  0  0
  137.3950   67.7370  219.9310 C   0  0  0  0  0  0  0  0  0  0  0  0
  136.9589   68.6552  220.3514 H   0  0  0  0  0  0  0  0  0  0  0  0
  136.9934   67.5270  218.9287 H   0  0  0  0  0  0  0  0  0  0  0  0
  137.0320   66.5490  220.8470 C   0  0  0  0  0  0  0  0  0  0  0  0
  136.0801   66.7762  221.3492 H   0  0  0  0  0  0  0  0  0  0  0  0
  136.9667   65.6576  220.2058 H   0  0  0  0  0  0  0  0  0  0  0  0
  138.0930   66.2500  221.9270 C   0  0  0  0  0  0  0  0  0  0  0  0
  137.5854   65.8273  222.8066 H   0  0  0  0  0  0  0  0  0  0  0  0
  138.8157   65.5478  221.4859 H   0  0  0  0  0  0  0  0  0  0  0  0
  140.6840   72.7840  221.5660 C   0  0  0  0  0  0  0  0  0  0  0  0
  141.1160   74.0940  221.3230 C   0  0  0  0  0  0  0  0  0  0  0  0
  140.4383   74.9401  221.5100 H   0  0  0  0  0  0  0  0  0  0  0  0
  142.4050   74.3260  220.8440 C   0  0  0  0  0  0  0  0  0  0  0  0
  142.7494   75.3581  220.6821 H   0  0  0  0  0  0  0  0  0  0  0  0
  143.2720   73.2460  220.5650 C   0  0  0  0  0  0  0  0  0  0  0  0
  144.5650   73.4400  220.0530 O   0  0  0  0  0  0  0  0  0  0  0  0
  145.7450   73.4610  220.8500 C   0  0  0  0  0  0  0  0  0  0  0  0
  145.4685   73.4561  221.9147 H   0  0  0  0  0  0  0  0  0  0  0  0
  146.3550   72.5736  220.6255 H   0  0  0  0  0  0  0  0  0  0  0  0
  146.3230   74.3696  220.6255 H   0  0  0  0  0  0  0  0  0  0  0  0
  142.8350   71.9310  220.7910 C   0  0  0  0  0  0  0  0  0  0  0  0
  143.6980   70.8800  220.4530 O   0  0  0  0  0  0  0  0  0  0  0  0
  143.3810   69.8470  219.5190 C   0  0  0  0  0  0  0  0  0  0  0  0
  143.1007   68.9335  220.0638 H   0  0  0  0  0  0  0  0  0  0  0  0
  142.5405   70.1695  218.8869 H   0  0  0  0  0  0  0  0  0  0  0  0
  144.2577   69.6425  218.8869 H   0  0  0  0  0  0  0  0  0  0  0  0
  141.5530   71.7050  221.3240 C   0  0  0  0  0  0  0  0  0  0  0  0
  141.2285   70.6791  221.5527 H   0  0  0  0  0  0  0  0  0  0  0  0
  1  2  1  0
  2  3  2  0
  3  4  1  0
  3  5  1  0
  5  6  2  0
  6  7  1  0
  7  8  2  0
  8  9  1  0
  8 10  1  0
 10 11  1  0
 10 12  2  0
 12 13  1  0
 12 14  1  0
 14 15  1  0
 14 16  2  0
 16 17  1  0
 17 18  2  0
 17 19  1  0
 19 20  1  0
 20 21  1  0
 20 22  1  0
 20 23  1  0
 23 24  1  0
 23 25  1  0
 25 26  1  0
 25 27  1  0
 25 28  1  0
 28 29  1  0
 28 30  1  0
 28 31  1  0
 31 32  1  0
 31 33  1  0
 31 34  1  0
 34 35  1  0
 34 36  1  0
 34 37  1  0
 37 38  1  0
 37 39  1  0
  2 40  1  0
 40 41  2  0
 41 42  1  0
 41 43  1  0
 43 44  1  0
 43 45  2  0
 45 46  1  0
 46 47  1  0
 47 48  1  0
 47 49  1  0
 47 50  1  0
 45 51  1  0
 51 52  1  0
 52 53  1  0
 53 54  1  0
 53 55  1  0
 53 56  1  0
 51 57  2  0
 57 58  1  0
 19  5  1  0
 37 23  1  0
 57 40  1  0
 16  7  1  0
M  END
>  <UniqueID>  (80) 
68

>  <SMILES>  (80) 
COc1ccc(/C=C/c2nc3ccccc3c(=O)n2CC2CCCCC2)cc1OC

>  <Energy>  (80) 
80.60838969579834

>  <Genealogy>  (80) 
COc1ccc(/C=C/c2nc3ccccc3c(=O)n2CC2CCCCC2)cc1OC (cis-trans isomerization)
COc1ccc(/C=C/c2nc3ccccc3c(=O)n2CC2CCCCC2)cc1OC (3D coordinates assigned)
COc1ccc(/C=C/c2nc3ccccc3c(=O)n2CC2CCCCC2)cc1OC (nonaromatic ring conformer: 80.60838969579834 kcal/mol)

>  <smiles>  (80) 
COc1ccc(/C=C/c2nc3ccccc3c(=O)n2CC2CCCCC2)cc1OC

>  <score_type>  (80) 
oracle

>  <origin>  (80) 
autodockgpu

>  <m_score__min__energy>  (80) 
-7.5199999999999996

>  <m_primary>  (80) 
energy

>  <meeko>  (80) 
{"free_energy": -6.98, "intermolecular_energy": -9.06, "internal_energy": -1.82, "cluster_size": 7, "cluster_id": 1, "rank_in_cluster": 7}

>  <energy>  (80) 
-6.81

>  <cluster_rmsd>  (80) 
0.0

>  <rmsd>  (80) 
269.42

>  <cluster>  (80) 
6

$$$$
