GKGZHBJKEIVYHI-VWLOTQADNA-N
     RDKit          3D

 52 56  0  0  0  0  0  0  0  0999 V2000
  138.7220   77.1350  219.8350 O   0  0  0  0  0  0  0  0  0  0  0  0
  138.8740   75.6600  220.0860 S   0  0  0  0  0  0  0  0  0  0  0  0
  139.5640   75.0470  218.8990 O   0  0  0  0  0  0  0  0  0  0  0  0
  137.2430   74.9340  220.2380 C   0  0  0  0  0  0  0  0  0  0  0  0
  136.6670   75.2250  221.5950 C   0  0  0  0  0  0  0  0  0  0  0  0
  136.3900   76.5480  221.9790 C   0  0  0  0  0  0  0  0  0  0  0  0
  135.8250   76.8140  223.2300 C   0  0  0  0  0  0  0  0  0  0  0  0
  135.5260   75.7620  224.1010 C   0  0  0  0  0  0  0  0  0  0  0  0
  135.7880   74.4440  223.7210 C   0  0  0  0  0  0  0  0  0  0  0  0
  136.3530   74.1730  222.4710 C   0  0  0  0  0  0  0  0  0  0  0  0
  139.8520   75.4510  221.5330 N   0  0  0  0  0  0  0  0  0  0  0  0
  140.1900   74.0450  221.8080 C   0  0  0  0  0  0  0  0  0  0  0  0
  141.5260   73.5280  221.3010 C   0  0  0  0  0  0  0  0  0  0  0  0
  142.5000   74.1460  220.6050 C   0  0  0  0  0  0  0  0  0  0  0  0
  142.4830   75.4870  219.9680 C   0  0  0  0  0  0  0  0  0  0  0  0
  143.2590   75.6570  218.8080 C   0  0  0  0  0  0  0  0  0  0  0  0
  143.2770   76.8750  218.1300 C   0  0  0  0  0  0  0  0  0  0  0  0
  142.5230   77.9450  218.6010 C   0  0  0  0  0  0  0  0  0  0  0  0
  141.7660   77.8070  219.7640 C   0  0  0  0  0  0  0  0  0  0  0  0
  141.7600   76.5890  220.4810 C   0  0  0  0  0  0  0  0  0  0  0  0
  140.9490   76.4140  221.7470 C   0  0  1  0  0  0  0  0  0  0  0  0
  140.4430   77.6960  222.3780 C   0  0  0  0  0  0  0  0  0  0  0  0
  139.1450   77.9930  222.7990 C   0  0  0  0  0  0  0  0  0  0  0  0
  139.1020   79.2120  223.3830 N   0  0  0  0  0  0  0  0  0  0  0  0
  140.3590   79.6830  223.3560 C   0  0  0  0  0  0  0  0  0  0  0  0
  140.8170   80.8970  223.8650 C   0  0  0  0  0  0  0  0  0  0  0  0
  142.1910   81.1820  223.7510 C   0  0  0  0  0  0  0  0  0  0  0  0
  143.0650   80.2540  223.1440 C   0  0  0  0  0  0  0  0  0  0  0  0
  142.5760   79.0350  222.6430 C   0  0  0  0  0  0  0  0  0  0  0  0
  141.2070   78.7840  222.7620 C   0  0  0  0  0  0  0  0  0  0  0  0
  136.5840   75.3573  219.4657 H   0  0  0  0  0  0  0  0  0  0  0  0
  137.3229   73.8445  220.1094 H   0  0  0  0  0  0  0  0  0  0  0  0
  136.6184   77.3771  221.2932 H   0  0  0  0  0  0  0  0  0  0  0  0
  135.6156   77.8516  223.5291 H   0  0  0  0  0  0  0  0  0  0  0  0
  135.0842   75.9726  225.0861 H   0  0  0  0  0  0  0  0  0  0  0  0
  135.5494   73.6174  224.4064 H   0  0  0  0  0  0  0  0  0  0  0  0
  136.5521   73.1330  222.1729 H   0  0  0  0  0  0  0  0  0  0  0  0
  140.1791   73.9119  222.8999 H   0  0  0  0  0  0  0  0  0  0  0  0
  139.4383   73.4645  221.2531 H   0  0  0  0  0  0  0  0  0  0  0  0
  141.7319   72.4747  221.5422 H   0  0  0  0  0  0  0  0  0  0  0  0
  143.4362   73.5794  220.4934 H   0  0  0  0  0  0  0  0  0  0  0  0
  143.8604   74.8171  218.4300 H   0  0  0  0  0  0  0  0  0  0  0  0
  143.8876   76.9900  217.2223 H   0  0  0  0  0  0  0  0  0  0  0  0
  142.5239   78.9004  218.0558 H   0  0  0  0  0  0  0  0  0  0  0  0
  141.1671   78.6552  220.1273 H   0  0  0  0  0  0  0  0  0  0  0  0
  141.6570   76.0105  222.4858 H   0  0  0  0  0  0  0  0  0  0  0  0
  138.2780   77.3278  222.6731 H   0  0  0  0  0  0  0  0  0  0  0  0
  138.2620   79.6790  223.7910 H   0  0  0  0  0  0  0  0  0  0  0  0
  140.1270   81.6096  224.3406 H   0  0  0  0  0  0  0  0  0  0  0  0
  142.5859   82.1333  224.1371 H   0  0  0  0  0  0  0  0  0  0  0  0
  144.1370   80.4867  223.0625 H   0  0  0  0  0  0  0  0  0  0  0  0
  143.2491   78.3030  222.1728 H   0  0  0  0  0  0  0  0  0  0  0  0
  1  2  2  0
  2  3  2  0
  2  4  1  0
  4  5  1  0
  5  6  2  0
  6  7  1  0
  7  8  2  0
  8  9  1  0
  9 10  2  0
  2 11  1  0
 11 12  1  0
 12 13  1  0
 13 14  2  0
 14 15  1  0
 15 16  2  0
 16 17  1  0
 17 18  2  0
 18 19  1  0
 19 20  2  0
 20 21  1  0
 21 22  1  0
 22 23  2  0
 23 24  1  0
 24 25  1  0
 25 26  2  0
 26 27  1  0
 27 28  2  0
 28 29  1  0
 29 30  2  0
 10  5  1  0
 21 11  1  0
 30 22  1  0
 20 15  1  0
 30 25  1  0
  4 31  1  0
  4 32  1  0
  6 33  1  0
  7 34  1  0
  8 35  1  0
  9 36  1  0
 10 37  1  0
 12 38  1  0
 12 39  1  0
 13 40  1  0
 14 41  1  0
 16 42  1  0
 17 43  1  0
 18 44  1  0
 19 45  1  0
 21 46  1  1
 23 47  1  0
 24 48  1  0
 26 49  1  0
 27 50  1  0
 28 51  1  0
 29 52  1  0
M  END
>  <UniqueID>  (1) 
2

>  <SMILES>  (1) 
O=S(=O)(Cc1ccccc1)N1CC=Cc2ccccc2[C@H]1c1c[nH]c2ccccc12

>  <Energy>  (1) 
102.34645035051338

>  <Genealogy>  (1) 
O=S(=O)(Cc1ccccc1)N1CC=Cc2ccccc2[C@H]1c1c[nH]c2ccccc12 (3D coordinates assigned)
O=S(=O)(Cc1ccccc1)N1CC=Cc2ccccc2[C@H]1c1c[nH]c2ccccc12 (nonaromatic ring conformer: 102.34645035051338 kcal/mol)

>  <smiles>  (1) 
O=S(=O)(Cc1ccccc1)N1CC=Cc2ccccc2[C@H]1c1c[nH]c2ccccc12

>  <score_type>  (1) 
oracle

>  <origin>  (1) 
autodockgpu

>  <m_score__min__energy>  (1) 
-6.2800000000000002

>  <m_primary>  (1) 
energy

>  <meeko>  (1) 
{"free_energy": -5.09, "intermolecular_energy": -7.77, "internal_energy": -2.73, "cluster_size": 2, "cluster_id": 4, "rank_in_cluster": 2}

>  <energy>  (1) 
-6.28

>  <cluster_rmsd>  (1) 
0.0

>  <rmsd>  (1) 
269.78

>  <cluster>  (1) 
1

$$$$
GKGZHBJKEIVYHI-VWLOTQADNA-N
     RDKit          3D

 52 56  0  0  0  0  0  0  0  0999 V2000
  138.5180   78.0750  222.3600 O   0  0  0  0  0  0  0  0  0  0  0  0
  139.5520   77.1330  221.8090 S   0  0  0  0  0  0  0  0  0  0  0  0
  139.0170   75.7310  221.9120 O   0  0  0  0  0  0  0  0  0  0  0  0
  141.0320   77.2560  222.8110 C   0  0  0  0  0  0  0  0  0  0  0  0
  141.3740   78.6970  223.0610 C   0  0  0  0  0  0  0  0  0  0  0  0
  142.6290   79.2040  222.6820 C   0  0  0  0  0  0  0  0  0  0  0  0
  142.9340   80.5530  222.8870 C   0  0  0  0  0  0  0  0  0  0  0  0
  141.9870   81.4050  223.4630 C   0  0  0  0  0  0  0  0  0  0  0  0
  140.7330   80.9110  223.8310 C   0  0  0  0  0  0  0  0  0  0  0  0
  140.4240   79.5620  223.6280 C   0  0  0  0  0  0  0  0  0  0  0  0
  139.8310   77.5550  220.1240 N   0  0  0  0  0  0  0  0  0  0  0  0
  138.6310   78.0730  219.4480 C   0  0  0  0  0  0  0  0  0  0  0  0
  138.7390   78.3970  217.9680 C   0  0  0  0  0  0  0  0  0  0  0  0
  139.7900   78.3300  217.1310 C   0  0  0  0  0  0  0  0  0  0  0  0
  141.1150   77.6970  217.3490 C   0  0  0  0  0  0  0  0  0  0  0  0
  141.7300   77.0960  216.2350 C   0  0  0  0  0  0  0  0  0  0  0  0
  142.9880   76.5050  216.3450 C   0  0  0  0  0  0  0  0  0  0  0  0
  143.6500   76.5000  217.5680 C   0  0  0  0  0  0  0  0  0  0  0  0
  143.0490   77.0680  218.6900 C   0  0  0  0  0  0  0  0  0  0  0  0
  141.7610   77.6440  218.6050 C   0  0  0  0  0  0  0  0  0  0  0  0
  141.0850   78.2650  219.8090 C   0  0  1  0  0  0  0  0  0  0  0  0
  140.8670   79.7630  219.7300 C   0  0  0  0  0  0  0  0  0  0  0  0
  139.9820   80.5430  220.4780 C   0  0  0  0  0  0  0  0  0  0  0  0
  140.1310   81.8530  220.1760 N   0  0  0  0  0  0  0  0  0  0  0  0
  141.1120   81.9150  219.2620 C   0  0  0  0  0  0  0  0  0  0  0  0
  141.6380   83.0600  218.6640 C   0  0  0  0  0  0  0  0  0  0  0  0
  142.6890   82.8970  217.7420 C   0  0  0  0  0  0  0  0  0  0  0  0
  143.1880   81.6090  217.4480 C   0  0  0  0  0  0  0  0  0  0  0  0
  142.6410   80.4720  218.0690 C   0  0  0  0  0  0  0  0  0  0  0  0
  141.5930   80.6640  218.9720 C   0  0  0  0  0  0  0  0  0  0  0  0
  140.8616   76.7512  223.7734 H   0  0  0  0  0  0  0  0  0  0  0  0
  141.8663   76.7777  222.2771 H   0  0  0  0  0  0  0  0  0  0  0  0
  143.3736   78.5373  222.2226 H   0  0  0  0  0  0  0  0  0  0  0  0
  143.9197   80.9442  222.5949 H   0  0  0  0  0  0  0  0  0  0  0  0
  142.2294   82.4654  223.6266 H   0  0  0  0  0  0  0  0  0  0  0  0
  139.9879   81.5837  224.2808 H   0  0  0  0  0  0  0  0  0  0  0  0
  139.4337   79.1774  223.9134 H   0  0  0  0  0  0  0  0  0  0  0  0
  137.8383   77.3190  219.5623 H   0  0  0  0  0  0  0  0  0  0  0  0
  138.4359   79.0417  219.9312 H   0  0  0  0  0  0  0  0  0  0  0  0
  137.8037   78.7435  217.5042 H   0  0  0  0  0  0  0  0  0  0  0  0
  139.6483   78.8097  216.1513 H   0  0  0  0  0  0  0  0  0  0  0  0
  141.2115   77.0925  215.2649 H   0  0  0  0  0  0  0  0  0  0  0  0
  143.4571   76.0425  215.4641 H   0  0  0  0  0  0  0  0  0  0  0  0
  144.6491   76.0472  217.6500 H   0  0  0  0  0  0  0  0  0  0  0  0
  143.5827   77.0680  219.6519 H   0  0  0  0  0  0  0  0  0  0  0  0
  141.7993   78.1388  220.6360 H   0  0  0  0  0  0  0  0  0  0  0  0
  139.2637   80.1469  221.2109 H   0  0  0  0  0  0  0  0  0  0  0  0
  139.6020   82.6530  220.5900 H   0  0  0  0  0  0  0  0  0  0  0  0
  141.2441   84.0584  218.9052 H   0  0  0  0  0  0  0  0  0  0  0  0
  143.1242   83.7780  217.2476 H   0  0  0  0  0  0  0  0  0  0  0  0
  144.0112   81.4942  216.7274 H   0  0  0  0  0  0  0  0  0  0  0  0
  143.0258   79.4649  217.8508 H   0  0  0  0  0  0  0  0  0  0  0  0
  1  2  2  0
  2  3  2  0
  2  4  1  0
  4  5  1  0
  5  6  2  0
  6  7  1  0
  7  8  2  0
  8  9  1  0
  9 10  2  0
  2 11  1  0
 11 12  1  0
 12 13  1  0
 13 14  2  0
 14 15  1  0
 15 16  2  0
 16 17  1  0
 17 18  2  0
 18 19  1  0
 19 20  2  0
 20 21  1  0
 21 22  1  0
 22 23  2  0
 23 24  1  0
 24 25  1  0
 25 26  2  0
 26 27  1  0
 27 28  2  0
 28 29  1  0
 29 30  2  0
 10  5  1  0
 21 11  1  0
 30 22  1  0
 20 15  1  0
 30 25  1  0
  4 31  1  0
  4 32  1  0
  6 33  1  0
  7 34  1  0
  8 35  1  0
  9 36  1  0
 10 37  1  0
 12 38  1  0
 12 39  1  0
 13 40  1  0
 14 41  1  0
 16 42  1  0
 17 43  1  0
 18 44  1  0
 19 45  1  0
 21 46  1  1
 23 47  1  0
 24 48  1  0
 26 49  1  0
 27 50  1  0
 28 51  1  0
 29 52  1  0
M  END
>  <UniqueID>  (2) 
2

>  <SMILES>  (2) 
O=S(=O)(Cc1ccccc1)N1CC=Cc2ccccc2[C@H]1c1c[nH]c2ccccc12

>  <Energy>  (2) 
102.34645035051338

>  <Genealogy>  (2) 
O=S(=O)(Cc1ccccc1)N1CC=Cc2ccccc2[C@H]1c1c[nH]c2ccccc12 (3D coordinates assigned)
O=S(=O)(Cc1ccccc1)N1CC=Cc2ccccc2[C@H]1c1c[nH]c2ccccc12 (nonaromatic ring conformer: 102.34645035051338 kcal/mol)

>  <smiles>  (2) 
O=S(=O)(Cc1ccccc1)N1CC=Cc2ccccc2[C@H]1c1c[nH]c2ccccc12

>  <score_type>  (2) 
oracle

>  <origin>  (2) 
autodockgpu

>  <m_score__min__energy>  (2) 
-6.2800000000000002

>  <m_primary>  (2) 
energy

>  <meeko>  (2) 
{"free_energy": -4.63, "intermolecular_energy": -7.31, "internal_energy": -2.78, "cluster_size": 4, "cluster_id": 5, "rank_in_cluster": 4}

>  <energy>  (2) 
-5.87

>  <cluster_rmsd>  (2) 
0.2

>  <rmsd>  (2) 
269.79

>  <cluster>  (2) 
1

$$$$
GKGZHBJKEIVYHI-VWLOTQADNA-N
     RDKit          3D

 52 56  0  0  0  0  0  0  0  0999 V2000
  138.6140   77.6320  222.6640 O   0  0  0  0  0  0  0  0  0  0  0  0
  139.7770   76.8470  222.1220 S   0  0  0  0  0  0  0  0  0  0  0  0
  139.4920   75.3840  222.3200 O   0  0  0  0  0  0  0  0  0  0  0  0
  141.2430   77.2760  223.0570 C   0  0  0  0  0  0  0  0  0  0  0  0
  141.4000   78.7680  223.1260 C   0  0  0  0  0  0  0  0  0  0  0  0
  140.3980   79.5610  223.7120 C   0  0  0  0  0  0  0  0  0  0  0  0
  140.5600   80.9460  223.8030 C   0  0  0  0  0  0  0  0  0  0  0  0
  141.7250   81.5490  223.3180 C   0  0  0  0  0  0  0  0  0  0  0  0
  142.7300   80.7670  222.7450 C   0  0  0  0  0  0  0  0  0  0  0  0
  142.5720   79.3790  222.6510 C   0  0  0  0  0  0  0  0  0  0  0  0
  139.9280   77.2110  220.4080 N   0  0  0  0  0  0  0  0  0  0  0  0
  138.6560   77.6090  219.7840 C   0  0  0  0  0  0  0  0  0  0  0  0
  138.6860   78.0220  218.3220 C   0  0  0  0  0  0  0  0  0  0  0  0
  139.6530   77.8950  217.3950 C   0  0  0  0  0  0  0  0  0  0  0  0
  141.0260   77.3530  217.5490 C   0  0  0  0  0  0  0  0  0  0  0  0
  141.6120   76.7570  216.4180 C   0  0  0  0  0  0  0  0  0  0  0  0
  142.9100   76.2490  216.4670 C   0  0  0  0  0  0  0  0  0  0  0  0
  143.6420   76.3240  217.6470 C   0  0  0  0  0  0  0  0  0  0  0  0
  143.0730   76.8880  218.7880 C   0  0  0  0  0  0  0  0  0  0  0  0
  141.7480   77.3800  218.7650 C   0  0  0  0  0  0  0  0  0  0  0  0
  141.1050   77.9950  219.9900 C   0  0  1  0  0  0  0  0  0  0  0  0
  140.7760   79.4700  219.8780 C   0  0  0  0  0  0  0  0  0  0  0  0
  139.8330   80.1980  220.6080 C   0  0  0  0  0  0  0  0  0  0  0  0
  139.8840   81.5080  220.2780 N   0  0  0  0  0  0  0  0  0  0  0  0
  140.8600   81.6240  219.3640 C   0  0  0  0  0  0  0  0  0  0  0  0
  141.2990   82.7920  218.7410 C   0  0  0  0  0  0  0  0  0  0  0  0
  142.3620   82.6890  217.8250 C   0  0  0  0  0  0  0  0  0  0  0  0
  142.9580   81.4360  217.5590 C   0  0  0  0  0  0  0  0  0  0  0  0
  142.4960   80.2750  218.2050 C   0  0  0  0  0  0  0  0  0  0  0  0
  141.4340   80.4070  219.1020 C   0  0  0  0  0  0  0  0  0  0  0  0
  141.1537   76.8731  224.0767 H   0  0  0  0  0  0  0  0  0  0  0  0
  142.1240   76.8465  222.5576 H   0  0  0  0  0  0  0  0  0  0  0  0
  139.4831   79.0896  224.1003 H   0  0  0  0  0  0  0  0  0  0  0  0
  139.7702   81.5628  224.2567 H   0  0  0  0  0  0  0  0  0  0  0  0
  141.8496   82.6397  223.3879 H   0  0  0  0  0  0  0  0  0  0  0  0
  143.6472   81.2422  222.3669 H   0  0  0  0  0  0  0  0  0  0  0  0
  143.3680   78.7654  222.2039 H   0  0  0  0  0  0  0  0  0  0  0  0
  137.9665   76.7563  219.8705 H   0  0  0  0  0  0  0  0  0  0  0  0
  138.3537   78.5184  220.3240 H   0  0  0  0  0  0  0  0  0  0  0  0
  137.7653   78.5044  217.9621 H   0  0  0  0  0  0  0  0  0  0  0  0
  139.3897   78.2403  216.3843 H   0  0  0  0  0  0  0  0  0  0  0  0
  141.0386   76.6906  215.4816 H   0  0  0  0  0  0  0  0  0  0  0  0
  143.3547   75.7890  215.5722 H   0  0  0  0  0  0  0  0  0  0  0  0
  144.6714   75.9378  217.6802 H   0  0  0  0  0  0  0  0  0  0  0  0
  143.6611   76.9508  219.7155 H   0  0  0  0  0  0  0  0  0  0  0  0
  141.8762   77.9486  220.7730 H   0  0  0  0  0  0  0  0  0  0  0  0
  139.1444   79.7652  221.3486 H   0  0  0  0  0  0  0  0  0  0  0  0
  139.2950   82.2750  220.6740 H   0  0  0  0  0  0  0  0  0  0  0  0
  140.8293   83.7625  218.9588 H   0  0  0  0  0  0  0  0  0  0  0  0
  142.7313   83.5897  217.3128 H   0  0  0  0  0  0  0  0  0  0  0  0
  143.7891   81.3678  216.8417 H   0  0  0  0  0  0  0  0  0  0  0  0
  142.9563   79.2952  218.0099 H   0  0  0  0  0  0  0  0  0  0  0  0
  1  2  2  0
  2  3  2  0
  2  4  1  0
  4  5  1  0
  5  6  2  0
  6  7  1  0
  7  8  2  0
  8  9  1  0
  9 10  2  0
  2 11  1  0
 11 12  1  0
 12 13  1  0
 13 14  2  0
 14 15  1  0
 15 16  2  0
 16 17  1  0
 17 18  2  0
 18 19  1  0
 19 20  2  0
 20 21  1  0
 21 22  1  0
 22 23  2  0
 23 24  1  0
 24 25  1  0
 25 26  2  0
 26 27  1  0
 27 28  2  0
 28 29  1  0
 29 30  2  0
 10  5  1  0
 21 11  1  0
 30 22  1  0
 20 15  1  0
 30 25  1  0
  4 31  1  0
  4 32  1  0
  6 33  1  0
  7 34  1  0
  8 35  1  0
  9 36  1  0
 10 37  1  0
 12 38  1  0
 12 39  1  0
 13 40  1  0
 14 41  1  0
 16 42  1  0
 17 43  1  0
 18 44  1  0
 19 45  1  0
 21 46  1  1
 23 47  1  0
 24 48  1  0
 26 49  1  0
 27 50  1  0
 28 51  1  0
 29 52  1  0
M  END
>  <UniqueID>  (3) 
2

>  <SMILES>  (3) 
O=S(=O)(Cc1ccccc1)N1CC=Cc2ccccc2[C@H]1c1c[nH]c2ccccc12

>  <Energy>  (3) 
102.34645035051338

>  <Genealogy>  (3) 
O=S(=O)(Cc1ccccc1)N1CC=Cc2ccccc2[C@H]1c1c[nH]c2ccccc12 (3D coordinates assigned)
O=S(=O)(Cc1ccccc1)N1CC=Cc2ccccc2[C@H]1c1c[nH]c2ccccc12 (nonaromatic ring conformer: 102.34645035051338 kcal/mol)

>  <smiles>  (3) 
O=S(=O)(Cc1ccccc1)N1CC=Cc2ccccc2[C@H]1c1c[nH]c2ccccc12

>  <score_type>  (3) 
oracle

>  <origin>  (3) 
autodockgpu

>  <m_score__min__energy>  (3) 
-6.2800000000000002

>  <m_primary>  (3) 
energy

>  <meeko>  (3) 
{"free_energy": -4.78, "intermolecular_energy": -7.46, "internal_energy": -2.72, "cluster_size": 4, "cluster_id": 5, "rank_in_cluster": 3}

>  <energy>  (3) 
-5.84

>  <cluster_rmsd>  (3) 
0.0

>  <rmsd>  (3) 
270.43

>  <cluster>  (3) 
2

$$$$
GKGZHBJKEIVYHI-VWLOTQADNA-N
     RDKit          3D

 52 56  0  0  0  0  0  0  0  0999 V2000
  138.7240   77.3800  219.7340 O   0  0  0  0  0  0  0  0  0  0  0  0
  138.6820   75.9120  220.0590 S   0  0  0  0  0  0  0  0  0  0  0  0
  139.3560   75.1620  218.9440 O   0  0  0  0  0  0  0  0  0  0  0  0
  136.9690   75.3950  220.1430 C   0  0  0  0  0  0  0  0  0  0  0  0
  136.5190   75.3090  221.5740 C   0  0  0  0  0  0  0  0  0  0  0  0
  136.3080   76.4800  222.3230 C   0  0  0  0  0  0  0  0  0  0  0  0
  135.8590   76.3990  223.6440 C   0  0  0  0  0  0  0  0  0  0  0  0
  135.6120   75.1510  224.2240 C   0  0  0  0  0  0  0  0  0  0  0  0
  135.8090   73.9840  223.4830 C   0  0  0  0  0  0  0  0  0  0  0  0
  136.2580   74.0600  222.1600 C   0  0  0  0  0  0  0  0  0  0  0  0
  139.5460   75.6630  221.5700 N   0  0  0  0  0  0  0  0  0  0  0  0
  139.7490   74.2410  221.8960 C   0  0  0  0  0  0  0  0  0  0  0  0
  141.1080   73.6350  221.5940 C   0  0  0  0  0  0  0  0  0  0  0  0
  142.1450   74.1170  220.8850 C   0  0  0  0  0  0  0  0  0  0  0  0
  142.2790   75.4300  220.2050 C   0  0  0  0  0  0  0  0  0  0  0  0
  143.1460   75.4940  219.0990 C   0  0  0  0  0  0  0  0  0  0  0  0
  143.3080   76.6810  218.3850 C   0  0  0  0  0  0  0  0  0  0  0  0
  142.6100   77.8220  218.7650 C   0  0  0  0  0  0  0  0  0  0  0  0
  141.7640   77.7880  219.8730 C   0  0  0  0  0  0  0  0  0  0  0  0
  141.6120   76.6030  220.6280 C   0  0  0  0  0  0  0  0  0  0  0  0
  140.7020   76.5390  221.8360 C   0  0  1  0  0  0  0  0  0  0  0  0
  140.2640   77.8790  222.3910 C   0  0  0  0  0  0  0  0  0  0  0  0
  138.9670   78.3060  222.6850 C   0  0  0  0  0  0  0  0  0  0  0  0
  138.9860   79.5390  223.2380 N   0  0  0  0  0  0  0  0  0  0  0  0
  140.2790   79.8930  223.3170 C   0  0  0  0  0  0  0  0  0  0  0  0
  140.8010   81.0750  223.8400 C   0  0  0  0  0  0  0  0  0  0  0  0
  142.1990   81.2300  223.8470 C   0  0  0  0  0  0  0  0  0  0  0  0
  143.0340   80.2090  223.3420 C   0  0  0  0  0  0  0  0  0  0  0  0
  142.4800   79.0250  222.8230 C   0  0  0  0  0  0  0  0  0  0  0  0
  141.0890   78.9040  222.8210 C   0  0  0  0  0  0  0  0  0  0  0  0
  136.3431   76.1253  219.6092 H   0  0  0  0  0  0  0  0  0  0  0  0
  136.8717   74.4031  219.6775 H   0  0  0  0  0  0  0  0  0  0  0  0
  136.4970   77.4633  221.8677 H   0  0  0  0  0  0  0  0  0  0  0  0
  135.6998   77.3176  224.2278 H   0  0  0  0  0  0  0  0  0  0  0  0
  135.2622   75.0884  225.2650 H   0  0  0  0  0  0  0  0  0  0  0  0
  135.6109   73.0033  223.9401 H   0  0  0  0  0  0  0  0  0  0  0  0
  136.4069   73.1389  221.5775 H   0  0  0  0  0  0  0  0  0  0  0  0
  139.5686   74.1222  222.9746 H   0  0  0  0  0  0  0  0  0  0  0  0
  139.0517   73.7024  221.2374 H   0  0  0  0  0  0  0  0  0  0  0  0
  141.2719   72.6369  222.0263 H   0  0  0  0  0  0  0  0  0  0  0  0
  143.0124   73.4463  220.7971 H   0  0  0  0  0  0  0  0  0  0  0  0
  143.7033   74.5962  218.7934 H   0  0  0  0  0  0  0  0  0  0  0  0
  143.9881   76.7146  217.5211 H   0  0  0  0  0  0  0  0  0  0  0  0
  142.7254   78.7530  218.1906 H   0  0  0  0  0  0  0  0  0  0  0  0
  141.2093   78.6928  220.1623 H   0  0  0  0  0  0  0  0  0  0  0  0
  141.3189   76.1041  222.6362 H   0  0  0  0  0  0  0  0  0  0  0  0
  138.0562   77.7198  222.4930 H   0  0  0  0  0  0  0  0  0  0  0  0
  138.1600   80.0930  223.5570 H   0  0  0  0  0  0  0  0  0  0  0  0
  140.1407   81.8614  224.2346 H   0  0  0  0  0  0  0  0  0  0  0  0
  142.6447   82.1521  224.2483 H   0  0  0  0  0  0  0  0  0  0  0  0
  144.1260   80.3408  223.3547 H   0  0  0  0  0  0  0  0  0  0  0  0
  143.1211   78.2213  222.4318 H   0  0  0  0  0  0  0  0  0  0  0  0
  1  2  2  0
  2  3  2  0
  2  4  1  0
  4  5  1  0
  5  6  2  0
  6  7  1  0
  7  8  2  0
  8  9  1  0
  9 10  2  0
  2 11  1  0
 11 12  1  0
 12 13  1  0
 13 14  2  0
 14 15  1  0
 15 16  2  0
 16 17  1  0
 17 18  2  0
 18 19  1  0
 19 20  2  0
 20 21  1  0
 21 22  1  0
 22 23  2  0
 23 24  1  0
 24 25  1  0
 25 26  2  0
 26 27  1  0
 27 28  2  0
 28 29  1  0
 29 30  2  0
 10  5  1  0
 21 11  1  0
 30 22  1  0
 20 15  1  0
 30 25  1  0
  4 31  1  0
  4 32  1  0
  6 33  1  0
  7 34  1  0
  8 35  1  0
  9 36  1  0
 10 37  1  0
 12 38  1  0
 12 39  1  0
 13 40  1  0
 14 41  1  0
 16 42  1  0
 17 43  1  0
 18 44  1  0
 19 45  1  0
 21 46  1  1
 23 47  1  0
 24 48  1  0
 26 49  1  0
 27 50  1  0
 28 51  1  0
 29 52  1  0
M  END
>  <UniqueID>  (4) 
2

>  <SMILES>  (4) 
O=S(=O)(Cc1ccccc1)N1CC=Cc2ccccc2[C@H]1c1c[nH]c2ccccc12

>  <Energy>  (4) 
102.34645035051338

>  <Genealogy>  (4) 
O=S(=O)(Cc1ccccc1)N1CC=Cc2ccccc2[C@H]1c1c[nH]c2ccccc12 (3D coordinates assigned)
O=S(=O)(Cc1ccccc1)N1CC=Cc2ccccc2[C@H]1c1c[nH]c2ccccc12 (nonaromatic ring conformer: 102.34645035051338 kcal/mol)

>  <smiles>  (4) 
O=S(=O)(Cc1ccccc1)N1CC=Cc2ccccc2[C@H]1c1c[nH]c2ccccc12

>  <score_type>  (4) 
oracle

>  <origin>  (4) 
autodockgpu

>  <m_score__min__energy>  (4) 
-6.2800000000000002

>  <m_primary>  (4) 
energy

>  <meeko>  (4) 
{"free_energy": -5.23, "intermolecular_energy": -7.91, "internal_energy": -2.76, "cluster_size": 2, "cluster_id": 4, "rank_in_cluster": 1}

>  <energy>  (4) 
-5.79

>  <cluster_rmsd>  (4) 
1.47

>  <rmsd>  (4) 
270.61

>  <cluster>  (4) 
2

$$$$
GKGZHBJKEIVYHI-VWLOTQADNA-N
     RDKit          3D

 52 56  0  0  0  0  0  0  0  0999 V2000
  136.6880   78.7660  223.3880 O   0  0  0  0  0  0  0  0  0  0  0  0
  137.8570   79.6760  223.1320 S   0  0  0  0  0  0  0  0  0  0  0  0
  138.9180   79.3820  224.1560 O   0  0  0  0  0  0  0  0  0  0  0  0
  137.3180   81.3720  223.3380 C   0  0  0  0  0  0  0  0  0  0  0  0
  136.6930   81.5600  224.6910 C   0  0  0  0  0  0  0  0  0  0  0  0
  135.3510   81.2010  224.9090 C   0  0  0  0  0  0  0  0  0  0  0  0
  134.7820   81.3480  226.1770 C   0  0  0  0  0  0  0  0  0  0  0  0
  135.5470   81.8450  227.2360 C   0  0  0  0  0  0  0  0  0  0  0  0
  136.8840   82.1930  227.0290 C   0  0  0  0  0  0  0  0  0  0  0  0
  137.4590   82.0480  225.7620 C   0  0  0  0  0  0  0  0  0  0  0  0
  138.4630   79.3440  221.5150 N   0  0  0  0  0  0  0  0  0  0  0  0
  138.0880   80.3720  220.5310 C   0  0  0  0  0  0  0  0  0  0  0  0
  139.1290   81.4190  220.1730 C   0  0  0  0  0  0  0  0  0  0  0  0
  140.3050   81.7110  220.7570 C   0  0  0  0  0  0  0  0  0  0  0  0
  140.9770   81.0460  221.9010 C   0  0  0  0  0  0  0  0  0  0  0  0
  141.8710   81.8230  222.6600 C   0  0  0  0  0  0  0  0  0  0  0  0
  142.5220   81.2860  223.7700 C   0  0  0  0  0  0  0  0  0  0  0  0
  142.2940   79.9640  224.1380 C   0  0  0  0  0  0  0  0  0  0  0  0
  141.4300   79.1680  223.3860 C   0  0  0  0  0  0  0  0  0  0  0  0
  140.7860   79.6860  222.2400 C   0  0  0  0  0  0  0  0  0  0  0  0
  139.8460   78.8440  221.4050 C   0  0  1  0  0  0  0  0  0  0  0  0
  139.9160   77.3510  221.6550 C   0  0  0  0  0  0  0  0  0  0  0  0
  139.0020   76.5510  222.3470 C   0  0  0  0  0  0  0  0  0  0  0  0
  139.3710   75.2520  222.2920 N   0  0  0  0  0  0  0  0  0  0  0  0
  140.4950   75.2140  221.5580 C   0  0  0  0  0  0  0  0  0  0  0  0
  141.2360   74.0870  221.2060 C   0  0  0  0  0  0  0  0  0  0  0  0
  142.3760   74.2730  220.4020 C   0  0  0  0  0  0  0  0  0  0  0  0
  142.7410   75.5670  219.9700 C   0  0  0  0  0  0  0  0  0  0  0  0
  141.9730   76.6860  220.3380 C   0  0  0  0  0  0  0  0  0  0  0  0
  140.8520   76.4710  221.1430 C   0  0  0  0  0  0  0  0  0  0  0  0
  138.1849   82.0424  223.2425 H   0  0  0  0  0  0  0  0  0  0  0  0
  136.5726   81.6070  222.5639 H   0  0  0  0  0  0  0  0  0  0  0  0
  134.7476   80.8035  224.0796 H   0  0  0  0  0  0  0  0  0  0  0  0
  133.7300   81.0720  226.3419 H   0  0  0  0  0  0  0  0  0  0  0  0
  135.0962   81.9621  228.2325 H   0  0  0  0  0  0  0  0  0  0  0  0
  137.4857   82.5817  227.8638 H   0  0  0  0  0  0  0  0  0  0  0  0
  138.5139   82.3169  225.6043 H   0  0  0  0  0  0  0  0  0  0  0  0
  137.8116   79.8522  219.6018 H   0  0  0  0  0  0  0  0  0  0  0  0
  137.2786   80.9383  221.0149 H   0  0  0  0  0  0  0  0  0  0  0  0
  138.8817   82.0365  219.2969 H   0  0  0  0  0  0  0  0  0  0  0  0
  140.8464   82.5654  220.3246 H   0  0  0  0  0  0  0  0  0  0  0  0
  142.0590   82.8684  222.3739 H   0  0  0  0  0  0  0  0  0  0  0  0
  143.2159   81.9078  224.3547 H   0  0  0  0  0  0  0  0  0  0  0  0
  142.7957   79.5458  225.0231 H   0  0  0  0  0  0  0  0  0  0  0  0
  141.2481   78.1261  223.6883 H   0  0  0  0  0  0  0  0  0  0  0  0
  140.1996   78.9614  220.3700 H   0  0  0  0  0  0  0  0  0  0  0  0
  138.1069   76.9266  222.8644 H   0  0  0  0  0  0  0  0  0  0  0  0
  138.8680   74.4420  222.7180 H   0  0  0  0  0  0  0  0  0  0  0  0
  140.9390   73.0839  221.5459 H   0  0  0  0  0  0  0  0  0  0  0  0
  142.9859   73.4059  220.1085 H   0  0  0  0  0  0  0  0  0  0  0  0
  143.6332   75.7007  219.3406 H   0  0  0  0  0  0  0  0  0  0  0  0
  142.2461   77.6975  220.0029 H   0  0  0  0  0  0  0  0  0  0  0  0
  1  2  2  0
  2  3  2  0
  2  4  1  0
  4  5  1  0
  5  6  2  0
  6  7  1  0
  7  8  2  0
  8  9  1  0
  9 10  2  0
  2 11  1  0
 11 12  1  0
 12 13  1  0
 13 14  2  0
 14 15  1  0
 15 16  2  0
 16 17  1  0
 17 18  2  0
 18 19  1  0
 19 20  2  0
 20 21  1  0
 21 22  1  0
 22 23  2  0
 23 24  1  0
 24 25  1  0
 25 26  2  0
 26 27  1  0
 27 28  2  0
 28 29  1  0
 29 30  2  0
 10  5  1  0
 21 11  1  0
 30 22  1  0
 20 15  1  0
 30 25  1  0
  4 31  1  0
  4 32  1  0
  6 33  1  0
  7 34  1  0
  8 35  1  0
  9 36  1  0
 10 37  1  0
 12 38  1  0
 12 39  1  0
 13 40  1  0
 14 41  1  0
 16 42  1  0
 17 43  1  0
 18 44  1  0
 19 45  1  0
 21 46  1  6
 23 47  1  0
 24 48  1  0
 26 49  1  0
 27 50  1  0
 28 51  1  0
 29 52  1  0
M  END
>  <UniqueID>  (5) 
2

>  <SMILES>  (5) 
O=S(=O)(Cc1ccccc1)N1CC=Cc2ccccc2[C@H]1c1c[nH]c2ccccc12

>  <Energy>  (5) 
102.34645035051338

>  <Genealogy>  (5) 
O=S(=O)(Cc1ccccc1)N1CC=Cc2ccccc2[C@H]1c1c[nH]c2ccccc12 (3D coordinates assigned)
O=S(=O)(Cc1ccccc1)N1CC=Cc2ccccc2[C@H]1c1c[nH]c2ccccc12 (nonaromatic ring conformer: 102.34645035051338 kcal/mol)

>  <smiles>  (5) 
O=S(=O)(Cc1ccccc1)N1CC=Cc2ccccc2[C@H]1c1c[nH]c2ccccc12

>  <score_type>  (5) 
oracle

>  <origin>  (5) 
autodockgpu

>  <m_score__min__energy>  (5) 
-6.2800000000000002

>  <m_primary>  (5) 
energy

>  <meeko>  (5) 
{"free_energy": -5.52, "intermolecular_energy": -8.2, "internal_energy": -2.08, "cluster_size": 5, "cluster_id": 2, "rank_in_cluster": 4}

>  <energy>  (5) 
-5.72

>  <cluster_rmsd>  (5) 
0.1

>  <rmsd>  (5) 
270.41

>  <cluster>  (5) 
2

$$$$
GKGZHBJKEIVYHI-VWLOTQADNA-N
     RDKit          3D

 52 56  0  0  0  0  0  0  0  0999 V2000
  138.5020   79.8430  224.1240 O   0  0  0  0  0  0  0  0  0  0  0  0
  138.0560   80.7970  223.0500 S   0  0  0  0  0  0  0  0  0  0  0  0
  138.9390   82.0140  223.1020 O   0  0  0  0  0  0  0  0  0  0  0  0
  136.3710   81.2990  223.3950 C   0  0  0  0  0  0  0  0  0  0  0  0
  136.1630   81.4460  224.8750 C   0  0  0  0  0  0  0  0  0  0  0  0
  135.0330   80.8820  225.4930 C   0  0  0  0  0  0  0  0  0  0  0  0
  134.8580   80.9930  226.8750 C   0  0  0  0  0  0  0  0  0  0  0  0
  135.8110   81.6600  227.6500 C   0  0  0  0  0  0  0  0  0  0  0  0
  136.9420   82.2130  227.0460 C   0  0  0  0  0  0  0  0  0  0  0  0
  137.1210   82.1040  225.6620 C   0  0  0  0  0  0  0  0  0  0  0  0
  138.2240   79.9880  221.4980 N   0  0  0  0  0  0  0  0  0  0  0  0
  138.2020   80.9150  220.3540 C   0  0  0  0  0  0  0  0  0  0  0  0
  139.5350   81.4000  219.8130 C   0  0  0  0  0  0  0  0  0  0  0  0
  140.7930   81.1260  220.2060 C   0  0  0  0  0  0  0  0  0  0  0  0
  141.2550   80.4010  221.4160 C   0  0  0  0  0  0  0  0  0  0  0  0
  142.4920   80.7880  221.9630 C   0  0  0  0  0  0  0  0  0  0  0  0
  142.9860   80.1800  223.1160 C   0  0  0  0  0  0  0  0  0  0  0  0
  142.2560   79.1740  223.7400 C   0  0  0  0  0  0  0  0  0  0  0  0
  141.0390   78.7570  223.2020 C   0  0  0  0  0  0  0  0  0  0  0  0
  140.5370   79.3400  222.0160 C   0  0  0  0  0  0  0  0  0  0  0  0
  139.2210   78.9050  221.4090 C   0  0  1  0  0  0  0  0  0  0  0  0
  138.6640   77.5970  221.9340 C   0  0  0  0  0  0  0  0  0  0  0  0
  139.3240   76.3730  222.0640 C   0  0  0  0  0  0  0  0  0  0  0  0
  138.5170   75.4560  222.6450 N   0  0  0  0  0  0  0  0  0  0  0  0
  137.3610   76.0900  222.9040 C   0  0  0  0  0  0  0  0  0  0  0  0
  136.2290   75.5610  223.5210 C   0  0  0  0  0  0  0  0  0  0  0  0
  135.1270   76.4140  223.7180 C   0  0  0  0  0  0  0  0  0  0  0  0
  135.1850   77.7630  223.3030 C   0  0  0  0  0  0  0  0  0  0  0  0
  136.3430   78.2700  222.6860 C   0  0  0  0  0  0  0  0  0  0  0  0
  137.4160   77.3970  222.4960 C   0  0  0  0  0  0  0  0  0  0  0  0
  136.1716   82.2625  222.9032 H   0  0  0  0  0  0  0  0  0  0  0  0
  135.6834   80.5306  223.0119 H   0  0  0  0  0  0  0  0  0  0  0  0
  134.2841   80.3516  224.8865 H   0  0  0  0  0  0  0  0  0  0  0  0
  133.9695   80.5551  227.3533 H   0  0  0  0  0  0  0  0  0  0  0  0
  135.6698   81.7494  228.7372 H   0  0  0  0  0  0  0  0  0  0  0  0
  137.6926   82.7345  227.6581 H   0  0  0  0  0  0  0  0  0  0  0  0
  138.0157   82.5356  225.1895 H   0  0  0  0  0  0  0  0  0  0  0  0
  137.6780   80.4080  219.5304 H   0  0  0  0  0  0  0  0  0  0  0  0
  137.7122   81.8212  220.7399 H   0  0  0  0  0  0  0  0  0  0  0  0
  139.4606   82.0891  218.9588 H   0  0  0  0  0  0  0  0  0  0  0  0
  141.5881   81.4895  219.5384 H   0  0  0  0  0  0  0  0  0  0  0  0
  143.0772   81.5809  221.4743 H   0  0  0  0  0  0  0  0  0  0  0  0
  143.9538   80.4961  223.5326 H   0  0  0  0  0  0  0  0  0  0  0  0
  142.6392   78.7067  224.6591 H   0  0  0  0  0  0  0  0  0  0  0  0
  140.4636   77.9662  223.7056 H   0  0  0  0  0  0  0  0  0  0  0  0
  139.4482   78.6975  220.3529 H   0  0  0  0  0  0  0  0  0  0  0  0
  140.3572   76.1812  221.7389 H   0  0  0  0  0  0  0  0  0  0  0  0
  138.7560   74.4640  222.8650 H   0  0  0  0  0  0  0  0  0  0  0  0
  136.1977   74.5099  223.8439 H   0  0  0  0  0  0  0  0  0  0  0  0
  134.2155   76.0281  224.1978 H   0  0  0  0  0  0  0  0  0  0  0  0
  134.3186   78.4216  223.4634 H   0  0  0  0  0  0  0  0  0  0  0  0
  136.4013   79.3201  222.3637 H   0  0  0  0  0  0  0  0  0  0  0  0
  1  2  2  0
  2  3  2  0
  2  4  1  0
  4  5  1  0
  5  6  2  0
  6  7  1  0
  7  8  2  0
  8  9  1  0
  9 10  2  0
  2 11  1  0
 11 12  1  0
 12 13  1  0
 13 14  2  0
 14 15  1  0
 15 16  2  0
 16 17  1  0
 17 18  2  0
 18 19  1  0
 19 20  2  0
 20 21  1  0
 21 22  1  0
 22 23  2  0
 23 24  1  0
 24 25  1  0
 25 26  2  0
 26 27  1  0
 27 28  2  0
 28 29  1  0
 29 30  2  0
 10  5  1  0
 21 11  1  0
 30 22  1  0
 20 15  1  0
 30 25  1  0
  4 31  1  0
  4 32  1  0
  6 33  1  0
  7 34  1  0
  8 35  1  0
  9 36  1  0
 10 37  1  0
 12 38  1  0
 12 39  1  0
 13 40  1  0
 14 41  1  0
 16 42  1  0
 17 43  1  0
 18 44  1  0
 19 45  1  0
 21 46  1  6
 23 47  1  0
 24 48  1  0
 26 49  1  0
 27 50  1  0
 28 51  1  0
 29 52  1  0
M  END
>  <UniqueID>  (6) 
2

>  <SMILES>  (6) 
O=S(=O)(Cc1ccccc1)N1CC=Cc2ccccc2[C@H]1c1c[nH]c2ccccc12

>  <Energy>  (6) 
102.34645035051338

>  <Genealogy>  (6) 
O=S(=O)(Cc1ccccc1)N1CC=Cc2ccccc2[C@H]1c1c[nH]c2ccccc12 (3D coordinates assigned)
O=S(=O)(Cc1ccccc1)N1CC=Cc2ccccc2[C@H]1c1c[nH]c2ccccc12 (nonaromatic ring conformer: 102.34645035051338 kcal/mol)

>  <smiles>  (6) 
O=S(=O)(Cc1ccccc1)N1CC=Cc2ccccc2[C@H]1c1c[nH]c2ccccc12

>  <score_type>  (6) 
oracle

>  <origin>  (6) 
autodockgpu

>  <m_score__min__energy>  (6) 
-6.2800000000000002

>  <m_primary>  (6) 
energy

>  <meeko>  (6) 
{"free_energy": -5.84, "intermolecular_energy": -8.52, "internal_energy": -2.4, "cluster_size": 5, "cluster_id": 2, "rank_in_cluster": 1}

>  <energy>  (6) 
-5.52

>  <cluster_rmsd>  (6) 
1.56

>  <rmsd>  (6) 
270.56

>  <cluster>  (6) 
2

$$$$
GKGZHBJKEIVYHI-VWLOTQADNA-N
     RDKit          3D

 52 56  0  0  0  0  0  0  0  0999 V2000
  138.9170   82.3990  221.1950 O   0  0  0  0  0  0  0  0  0  0  0  0
  139.4290   81.0280  221.5400 S   0  0  0  0  0  0  0  0  0  0  0  0
  139.0630   80.0920  220.4220 O   0  0  0  0  0  0  0  0  0  0  0  0
  138.6180   80.4750  223.0390 C   0  0  0  0  0  0  0  0  0  0  0  0
  137.6860   79.3360  222.7370 C   0  0  0  0  0  0  0  0  0  0  0  0
  136.4360   79.5810  222.1430 C   0  0  0  0  0  0  0  0  0  0  0  0
  135.5830   78.5160  221.8350 C   0  0  0  0  0  0  0  0  0  0  0  0
  135.9750   77.2030  222.1100 C   0  0  0  0  0  0  0  0  0  0  0  0
  137.2200   76.9510  222.6900 C   0  0  0  0  0  0  0  0  0  0  0  0
  138.0770   78.0130  223.0000 C   0  0  0  0  0  0  0  0  0  0  0  0
  141.1770   81.1240  221.7060 N   0  0  0  0  0  0  0  0  0  0  0  0
  141.6180   81.3810  223.0870 C   0  0  0  0  0  0  0  0  0  0  0  0
  142.1060   80.1960  223.9030 C   0  0  0  0  0  0  0  0  0  0  0  0
  142.0290   78.8750  223.6620 C   0  0  0  0  0  0  0  0  0  0  0  0
  141.4710   78.1740  222.4790 C   0  0  0  0  0  0  0  0  0  0  0  0
  140.9870   76.8670  222.6750 C   0  0  0  0  0  0  0  0  0  0  0  0
  140.4190   76.1490  221.6250 C   0  0  0  0  0  0  0  0  0  0  0  0
  140.3280   76.7210  220.3600 C   0  0  0  0  0  0  0  0  0  0  0  0
  140.8230   78.0050  220.1360 C   0  0  0  0  0  0  0  0  0  0  0  0
  141.4300   78.7360  221.1820 C   0  0  0  0  0  0  0  0  0  0  0  0
  141.9780   80.1300  220.9660 C   0  0  1  0  0  0  0  0  0  0  0  0
  142.1640   80.5380  219.5180 C   0  0  0  0  0  0  0  0  0  0  0  0
  142.6210   79.7530  218.4560 C   0  0  0  0  0  0  0  0  0  0  0  0
  142.5770   80.4490  217.2980 N   0  0  0  0  0  0  0  0  0  0  0  0
  142.0800   81.6580  217.6080 C   0  0  0  0  0  0  0  0  0  0  0  0
  141.8280   82.7160  216.7360 C   0  0  0  0  0  0  0  0  0  0  0  0
  141.2780   83.8940  217.2730 C   0  0  0  0  0  0  0  0  0  0  0  0
  140.9900   83.9840  218.6520 C   0  0  0  0  0  0  0  0  0  0  0  0
  141.2520   82.8990  219.5080 C   0  0  0  0  0  0  0  0  0  0  0  0
  141.8060   81.7470  218.9480 C   0  0  0  0  0  0  0  0  0  0  0  0
  139.3779   80.1407  223.7607 H   0  0  0  0  0  0  0  0  0  0  0  0
  138.0388   81.3093  223.4615 H   0  0  0  0  0  0  0  0  0  0  0  0
  136.1276   80.6130  221.9197 H   0  0  0  0  0  0  0  0  0  0  0  0
  134.6028   78.7121  221.3760 H   0  0  0  0  0  0  0  0  0  0  0  0
  135.3019   76.3670  221.8692 H   0  0  0  0  0  0  0  0  0  0  0  0
  137.5274   75.9166  222.9034 H   0  0  0  0  0  0  0  0  0  0  0  0
  139.0597   77.8109  223.4510 H   0  0  0  0  0  0  0  0  0  0  0  0
  142.4414   82.1088  223.0392 H   0  0  0  0  0  0  0  0  0  0  0  0
  140.7130   81.7251  223.6091 H   0  0  0  0  0  0  0  0  0  0  0  0
  142.6046   80.4624  224.8466 H   0  0  0  0  0  0  0  0  0  0  0  0
  142.4357   78.2246  224.4504 H   0  0  0  0  0  0  0  0  0  0  0  0
  141.0582   76.4060  223.6712 H   0  0  0  0  0  0  0  0  0  0  0  0
  140.0424   75.1297  221.7961 H   0  0  0  0  0  0  0  0  0  0  0  0
  139.8648   76.1594  219.5354 H   0  0  0  0  0  0  0  0  0  0  0  0
  140.7402   78.4535  219.1350 H   0  0  0  0  0  0  0  0  0  0  0  0
  142.9998   80.1017  221.3723 H   0  0  0  0  0  0  0  0  0  0  0  0
  142.9682   78.7134  218.5494 H   0  0  0  0  0  0  0  0  0  0  0  0
  142.8550   80.1050  216.3520 H   0  0  0  0  0  0  0  0  0  0  0  0
  142.0521   82.6323  215.6623 H   0  0  0  0  0  0  0  0  0  0  0  0
  141.0710   84.7503  216.6143 H   0  0  0  0  0  0  0  0  0  0  0  0
  140.5575   84.9094  219.0602 H   0  0  0  0  0  0  0  0  0  0  0  0
  141.0276   82.9566  220.5833 H   0  0  0  0  0  0  0  0  0  0  0  0
  1  2  2  0
  2  3  2  0
  2  4  1  0
  4  5  1  0
  5  6  2  0
  6  7  1  0
  7  8  2  0
  8  9  1  0
  9 10  2  0
  2 11  1  0
 11 12  1  0
 12 13  1  0
 13 14  2  0
 14 15  1  0
 15 16  2  0
 16 17  1  0
 17 18  2  0
 18 19  1  0
 19 20  2  0
 20 21  1  0
 21 22  1  0
 22 23  2  0
 23 24  1  0
 24 25  1  0
 25 26  2  0
 26 27  1  0
 27 28  2  0
 28 29  1  0
 29 30  2  0
 10  5  1  0
 21 11  1  0
 30 22  1  0
 20 15  1  0
 30 25  1  0
  4 31  1  0
  4 32  1  0
  6 33  1  0
  7 34  1  0
  8 35  1  0
  9 36  1  0
 10 37  1  0
 12 38  1  0
 12 39  1  0
 13 40  1  0
 14 41  1  0
 16 42  1  0
 17 43  1  0
 18 44  1  0
 19 45  1  0
 21 46  1  1
 23 47  1  0
 24 48  1  0
 26 49  1  0
 27 50  1  0
 28 51  1  0
 29 52  1  0
M  END
>  <UniqueID>  (7) 
2

>  <SMILES>  (7) 
O=S(=O)(Cc1ccccc1)N1CC=Cc2ccccc2[C@H]1c1c[nH]c2ccccc12

>  <Energy>  (7) 
102.34645035051338

>  <Genealogy>  (7) 
O=S(=O)(Cc1ccccc1)N1CC=Cc2ccccc2[C@H]1c1c[nH]c2ccccc12 (3D coordinates assigned)
O=S(=O)(Cc1ccccc1)N1CC=Cc2ccccc2[C@H]1c1c[nH]c2ccccc12 (nonaromatic ring conformer: 102.34645035051338 kcal/mol)

>  <smiles>  (7) 
O=S(=O)(Cc1ccccc1)N1CC=Cc2ccccc2[C@H]1c1c[nH]c2ccccc12

>  <score_type>  (7) 
oracle

>  <origin>  (7) 
autodockgpu

>  <m_score__min__energy>  (7) 
-6.2800000000000002

>  <m_primary>  (7) 
energy

>  <meeko>  (7) 
{"free_energy": -4.97, "intermolecular_energy": -7.65, "internal_energy": -2.73, "cluster_size": 3, "cluster_id": 3, "rank_in_cluster": 2}

>  <energy>  (7) 
-5.3

>  <cluster_rmsd>  (7) 
0.6

>  <rmsd>  (7) 
270.43

>  <cluster>  (7) 
2

$$$$
GKGZHBJKEIVYHI-VWLOTQADNA-N
     RDKit          3D

 52 56  0  0  0  0  0  0  0  0999 V2000
  140.1950   84.2630  221.0810 O   0  0  0  0  0  0  0  0  0  0  0  0
  139.0520   83.3440  220.7520 S   0  0  0  0  0  0  0  0  0  0  0  0
  138.5280   83.7090  219.3910 O   0  0  0  0  0  0  0  0  0  0  0  0
  137.7480   83.5990  221.9540 C   0  0  0  0  0  0  0  0  0  0  0  0
  137.4060   82.3050  222.6350 C   0  0  0  0  0  0  0  0  0  0  0  0
  136.1450   81.7130  222.4430 C   0  0  0  0  0  0  0  0  0  0  0  0
  135.8410   80.4930  223.0530 C   0  0  0  0  0  0  0  0  0  0  0  0
  136.7930   79.8510  223.8510 C   0  0  0  0  0  0  0  0  0  0  0  0
  138.0520   80.4270  224.0370 C   0  0  0  0  0  0  0  0  0  0  0  0
  138.3610   81.6490  223.4290 C   0  0  0  0  0  0  0  0  0  0  0  0
  139.6620   81.6940  220.7460 N   0  0  0  0  0  0  0  0  0  0  0  0
  139.0750   80.8610  219.6850 C   0  0  0  0  0  0  0  0  0  0  0  0
  139.4730   79.3950  219.6370 C   0  0  0  0  0  0  0  0  0  0  0  0
  140.3340   78.6970  220.3980 C   0  0  0  0  0  0  0  0  0  0  0  0
  140.9870   79.0940  221.6700 C   0  0  0  0  0  0  0  0  0  0  0  0
  141.2020   78.0830  222.6240 C   0  0  0  0  0  0  0  0  0  0  0  0
  141.8370   78.3640  223.8340 C   0  0  0  0  0  0  0  0  0  0  0  0
  142.2630   79.6590  224.1120 C   0  0  0  0  0  0  0  0  0  0  0  0
  142.0380   80.6810  223.1910 C   0  0  0  0  0  0  0  0  0  0  0  0
  141.3690   80.4220  221.9730 C   0  0  0  0  0  0  0  0  0  0  0  0
  141.1110   81.5130  220.9580 C   0  0  1  0  0  0  0  0  0  0  0  0
  141.8470   81.3640  219.6410 C   0  0  0  0  0  0  0  0  0  0  0  0
  142.4770   80.2250  219.1330 C   0  0  0  0  0  0  0  0  0  0  0  0
  142.9580   80.4610  217.8920 N   0  0  0  0  0  0  0  0  0  0  0  0
  142.6230   81.7280  217.5980 C   0  0  0  0  0  0  0  0  0  0  0  0
  142.8840   82.4170  216.4140 C   0  0  0  0  0  0  0  0  0  0  0  0
  142.4180   83.7410  216.3070 C   0  0  0  0  0  0  0  0  0  0  0  0
  141.7050   84.3360  217.3710 C   0  0  0  0  0  0  0  0  0  0  0  0
  141.4540   83.6150  218.5530 C   0  0  0  0  0  0  0  0  0  0  0  0
  141.9360   82.3070  218.6330 C   0  0  0  0  0  0  0  0  0  0  0  0
  138.0855   84.3269  222.7065 H   0  0  0  0  0  0  0  0  0  0  0  0
  136.8542   83.9782  221.4370 H   0  0  0  0  0  0  0  0  0  0  0  0
  135.3956   82.2117  221.8107 H   0  0  0  0  0  0  0  0  0  0  0  0
  134.8510   80.0369  222.9051 H   0  0  0  0  0  0  0  0  0  0  0  0
  136.5505   78.8921  224.3324 H   0  0  0  0  0  0  0  0  0  0  0  0
  138.8014   79.9194  224.6621 H   0  0  0  0  0  0  0  0  0  0  0  0
  139.3551   82.0973  223.5734 H   0  0  0  0  0  0  0  0  0  0  0  0
  137.9820   80.9011  219.8025 H   0  0  0  0  0  0  0  0  0  0  0  0
  139.4660   81.2863  218.7489 H   0  0  0  0  0  0  0  0  0  0  0  0
  138.9749   78.8089  218.8506 H   0  0  0  0  0  0  0  0  0  0  0  0
  140.5895   77.6936  220.0266 H   0  0  0  0  0  0  0  0  0  0  0  0
  140.8650   77.0573  222.4132 H   0  0  0  0  0  0  0  0  0  0  0  0
  142.0009   77.5616  224.5684 H   0  0  0  0  0  0  0  0  0  0  0  0
  142.7778   79.8766  225.0594 H   0  0  0  0  0  0  0  0  0  0  0  0
  142.3850   81.7006  223.4146 H   0  0  0  0  0  0  0  0  0  0  0  0
  141.5369   82.4239  221.4039 H   0  0  0  0  0  0  0  0  0  0  0  0
  142.5688   79.2687  219.6688 H   0  0  0  0  0  0  0  0  0  0  0  0
  143.4670   79.7850  217.2810 H   0  0  0  0  0  0  0  0  0  0  0  0
  143.4362   81.9412  215.5902 H   0  0  0  0  0  0  0  0  0  0  0  0
  142.6104   84.3157  215.3890 H   0  0  0  0  0  0  0  0  0  0  0  0
  141.3433   85.3704  217.2750 H   0  0  0  0  0  0  0  0  0  0  0  0
  140.8964   84.0669  219.3866 H   0  0  0  0  0  0  0  0  0  0  0  0
  1  2  2  0
  2  3  2  0
  2  4  1  0
  4  5  1  0
  5  6  2  0
  6  7  1  0
  7  8  2  0
  8  9  1  0
  9 10  2  0
  2 11  1  0
 11 12  1  0
 12 13  1  0
 13 14  2  0
 14 15  1  0
 15 16  2  0
 16 17  1  0
 17 18  2  0
 18 19  1  0
 19 20  2  0
 20 21  1  0
 21 22  1  0
 22 23  2  0
 23 24  1  0
 24 25  1  0
 25 26  2  0
 26 27  1  0
 27 28  2  0
 28 29  1  0
 29 30  2  0
 10  5  1  0
 21 11  1  0
 30 22  1  0
 20 15  1  0
 30 25  1  0
  4 31  1  0
  4 32  1  0
  6 33  1  0
  7 34  1  0
  8 35  1  0
  9 36  1  0
 10 37  1  0
 12 38  1  0
 12 39  1  0
 13 40  1  0
 14 41  1  0
 16 42  1  0
 17 43  1  0
 18 44  1  0
 19 45  1  0
 21 46  1  1
 23 47  1  0
 24 48  1  0
 26 49  1  0
 27 50  1  0
 28 51  1  0
 29 52  1  0
M  END
>  <UniqueID>  (8) 
2

>  <SMILES>  (8) 
O=S(=O)(Cc1ccccc1)N1CC=Cc2ccccc2[C@H]1c1c[nH]c2ccccc12

>  <Energy>  (8) 
102.34645035051338

>  <Genealogy>  (8) 
O=S(=O)(Cc1ccccc1)N1CC=Cc2ccccc2[C@H]1c1c[nH]c2ccccc12 (3D coordinates assigned)
O=S(=O)(Cc1ccccc1)N1CC=Cc2ccccc2[C@H]1c1c[nH]c2ccccc12 (nonaromatic ring conformer: 102.34645035051338 kcal/mol)

>  <smiles>  (8) 
O=S(=O)(Cc1ccccc1)N1CC=Cc2ccccc2[C@H]1c1c[nH]c2ccccc12

>  <score_type>  (8) 
oracle

>  <origin>  (8) 
autodockgpu

>  <m_score__min__energy>  (8) 
-6.2800000000000002

>  <m_primary>  (8) 
energy

>  <meeko>  (8) 
{"free_energy": -4.79, "intermolecular_energy": -7.48, "internal_energy": -2.58, "cluster_size": 1, "cluster_id": 7, "rank_in_cluster": 1}

>  <energy>  (8) 
-5.59

>  <cluster_rmsd>  (8) 
0.0

>  <rmsd>  (8) 
270.36

>  <cluster>  (8) 
3

$$$$
GKGZHBJKEIVYHI-VWLOTQADNA-N
     RDKit          3D

 52 56  0  0  0  0  0  0  0  0999 V2000
  141.0740   74.7260  222.2480 O   0  0  0  0  0  0  0  0  0  0  0  0
  140.3790   75.1660  220.9890 S   0  0  0  0  0  0  0  0  0  0  0  0
  138.9920   74.5850  220.9870 O   0  0  0  0  0  0  0  0  0  0  0  0
  141.2750   74.5120  219.5820 C   0  0  0  0  0  0  0  0  0  0  0  0
  142.6400   74.0490  220.0030 C   0  0  0  0  0  0  0  0  0  0  0  0
  143.7140   74.9550  220.0510 C   0  0  0  0  0  0  0  0  0  0  0  0
  144.9760   74.5290  220.4730 C   0  0  0  0  0  0  0  0  0  0  0  0
  145.1740   73.1990  220.8570 C   0  0  0  0  0  0  0  0  0  0  0  0
  144.1100   72.2960  220.8230 C   0  0  0  0  0  0  0  0  0  0  0  0
  142.8440   72.7180  220.4010 C   0  0  0  0  0  0  0  0  0  0  0  0
  140.3030   76.9230  220.9940 N   0  0  0  0  0  0  0  0  0  0  0  0
  139.6030   77.4780  219.8240 C   0  0  0  0  0  0  0  0  0  0  0  0
  139.5430   78.9900  219.6890 C   0  0  0  0  0  0  0  0  0  0  0  0
  140.0060   79.9610  220.4950 C   0  0  0  0  0  0  0  0  0  0  0  0
  140.9180   79.8470  221.6610 C   0  0  0  0  0  0  0  0  0  0  0  0
  141.8180   80.9060  221.8770 C   0  0  0  0  0  0  0  0  0  0  0  0
  142.6900   80.8940  222.9660 C   0  0  0  0  0  0  0  0  0  0  0  0
  142.6800   79.8230  223.8530 C   0  0  0  0  0  0  0  0  0  0  0  0
  141.8130   78.7510  223.6450 C   0  0  0  0  0  0  0  0  0  0  0  0
  140.9440   78.7310  222.5300 C   0  0  0  0  0  0  0  0  0  0  0  0
  139.9960   77.5790  222.2780 C   0  0  1  0  0  0  0  0  0  0  0  0
  138.5220   77.9150  222.3890 C   0  0  0  0  0  0  0  0  0  0  0  0
  137.4340   77.1770  221.9170 C   0  0  0  0  0  0  0  0  0  0  0  0
  136.2700   77.7640  222.2750 N   0  0  0  0  0  0  0  0  0  0  0  0
  136.6050   78.8540  222.9840 C   0  0  0  0  0  0  0  0  0  0  0  0
  135.7410   79.7680  223.5860 C   0  0  0  0  0  0  0  0  0  0  0  0
  136.3100   80.8330  224.3090 C   0  0  0  0  0  0  0  0  0  0  0  0
  137.7120   80.9540  224.4180 C   0  0  0  0  0  0  0  0  0  0  0  0
  138.5600   80.0150  223.8030 C   0  0  0  0  0  0  0  0  0  0  0  0
  137.9670   78.9740  223.0850 C   0  0  0  0  0  0  0  0  0  0  0  0
  140.7179   73.6626  219.1599 H   0  0  0  0  0  0  0  0  0  0  0  0
  141.3830   75.3044  218.8267 H   0  0  0  0  0  0  0  0  0  0  0  0
  143.5602   76.0032  219.7552 H   0  0  0  0  0  0  0  0  0  0  0  0
  145.8145   75.2404  220.5032 H   0  0  0  0  0  0  0  0  0  0  0  0
  146.1688   72.8642  221.1860 H   0  0  0  0  0  0  0  0  0  0  0  0
  144.2668   71.2509  221.1284 H   0  0  0  0  0  0  0  0  0  0  0  0
  142.0066   72.0050  220.3811 H   0  0  0  0  0  0  0  0  0  0  0  0
  140.1037   77.0875  218.9258 H   0  0  0  0  0  0  0  0  0  0  0  0
  138.5555   77.1686  219.9540 H   0  0  0  0  0  0  0  0  0  0  0  0
  139.0367   79.3498  218.7811 H   0  0  0  0  0  0  0  0  0  0  0  0
  139.6623   80.9788  220.2584 H   0  0  0  0  0  0  0  0  0  0  0  0
  141.8346   81.7551  221.1779 H   0  0  0  0  0  0  0  0  0  0  0  0
  143.3854   81.7317  223.1230 H   0  0  0  0  0  0  0  0  0  0  0  0
  143.3570   79.8216  224.7200 H   0  0  0  0  0  0  0  0  0  0  0  0
  141.8051   77.9118  224.3561 H   0  0  0  0  0  0  0  0  0  0  0  0
  140.1760   76.8750  223.1039 H   0  0  0  0  0  0  0  0  0  0  0  0
  137.5133   76.2471  221.3347 H   0  0  0  0  0  0  0  0  0  0  0  0
  135.3070   77.4230  222.0590 H   0  0  0  0  0  0  0  0  0  0  0  0
  134.6498   79.6601  223.4986 H   0  0  0  0  0  0  0  0  0  0  0  0
  135.6581   81.5757  224.7921 H   0  0  0  0  0  0  0  0  0  0  0  0
  138.1450   81.7891  224.9883 H   0  0  0  0  0  0  0  0  0  0  0  0
  139.6538   80.0979  223.8848 H   0  0  0  0  0  0  0  0  0  0  0  0
  1  2  2  0
  2  3  2  0
  2  4  1  0
  4  5  1  0
  5  6  2  0
  6  7  1  0
  7  8  2  0
  8  9  1  0
  9 10  2  0
  2 11  1  0
 11 12  1  0
 12 13  1  0
 13 14  2  0
 14 15  1  0
 15 16  2  0
 16 17  1  0
 17 18  2  0
 18 19  1  0
 19 20  2  0
 20 21  1  0
 21 22  1  0
 22 23  2  0
 23 24  1  0
 24 25  1  0
 25 26  2  0
 26 27  1  0
 27 28  2  0
 28 29  1  0
 29 30  2  0
 10  5  1  0
 21 11  1  0
 30 22  1  0
 20 15  1  0
 30 25  1  0
  4 31  1  0
  4 32  1  0
  6 33  1  0
  7 34  1  0
  8 35  1  0
  9 36  1  0
 10 37  1  0
 12 38  1  0
 12 39  1  0
 13 40  1  0
 14 41  1  0
 16 42  1  0
 17 43  1  0
 18 44  1  0
 19 45  1  0
 21 46  1  1
 23 47  1  0
 24 48  1  0
 26 49  1  0
 27 50  1  0
 28 51  1  0
 29 52  1  0
M  END
>  <UniqueID>  (9) 
2

>  <SMILES>  (9) 
O=S(=O)(Cc1ccccc1)N1CC=Cc2ccccc2[C@H]1c1c[nH]c2ccccc12

>  <Energy>  (9) 
102.34645035051338

>  <Genealogy>  (9) 
O=S(=O)(Cc1ccccc1)N1CC=Cc2ccccc2[C@H]1c1c[nH]c2ccccc12 (3D coordinates assigned)
O=S(=O)(Cc1ccccc1)N1CC=Cc2ccccc2[C@H]1c1c[nH]c2ccccc12 (nonaromatic ring conformer: 102.34645035051338 kcal/mol)

>  <smiles>  (9) 
O=S(=O)(Cc1ccccc1)N1CC=Cc2ccccc2[C@H]1c1c[nH]c2ccccc12

>  <score_type>  (9) 
oracle

>  <origin>  (9) 
autodockgpu

>  <m_score__min__energy>  (9) 
-6.2800000000000002

>  <m_primary>  (9) 
energy

>  <meeko>  (9) 
{"free_energy": -6.28, "intermolecular_energy": -8.96, "internal_energy": -1.94, "cluster_size": 2, "cluster_id": 1, "rank_in_cluster": 1}

>  <energy>  (9) 
-4.97

>  <cluster_rmsd>  (9) 
1.21

>  <rmsd>  (9) 
269.95

>  <cluster>  (9) 
3

$$$$
GKGZHBJKEIVYHI-VWLOTQADNA-N
     RDKit          3D

 52 56  0  0  0  0  0  0  0  0999 V2000
  139.0700   82.6330  221.4080 O   0  0  0  0  0  0  0  0  0  0  0  0
  139.5560   81.2230  221.6040 S   0  0  0  0  0  0  0  0  0  0  0  0
  139.1110   80.4020  220.4250 O   0  0  0  0  0  0  0  0  0  0  0  0
  138.7970   80.5570  223.0840 C   0  0  0  0  0  0  0  0  0  0  0  0
  137.7900   79.5020  222.7240 C   0  0  0  0  0  0  0  0  0  0  0  0
  136.6370   79.8400  221.9950 C   0  0  0  0  0  0  0  0  0  0  0  0
  135.7180   78.8500  221.6350 C   0  0  0  0  0  0  0  0  0  0  0  0
  135.9470   77.5180  221.9920 C   0  0  0  0  0  0  0  0  0  0  0  0
  137.0960   77.1730  222.7060 C   0  0  0  0  0  0  0  0  0  0  0  0
  138.0190   78.1600  223.0690 C   0  0  0  0  0  0  0  0  0  0  0  0
  141.3120   81.2580  221.6940 N   0  0  0  0  0  0  0  0  0  0  0  0
  141.8190   81.5320  223.0490 C   0  0  0  0  0  0  0  0  0  0  0  0
  142.2490   80.3450  223.8940 C   0  0  0  0  0  0  0  0  0  0  0  0
  142.1380   79.0230  223.6700 C   0  0  0  0  0  0  0  0  0  0  0  0
  141.5130   78.3180  222.5230 C   0  0  0  0  0  0  0  0  0  0  0  0
  140.9870   77.0370  222.7670 C   0  0  0  0  0  0  0  0  0  0  0  0
  140.3560   76.3170  221.7530 C   0  0  0  0  0  0  0  0  0  0  0  0
  140.2440   76.8630  220.4780 C   0  0  0  0  0  0  0  0  0  0  0  0
  140.7810   78.1210  220.2080 C   0  0  0  0  0  0  0  0  0  0  0  0
  141.4500   78.8520  221.2150 C   0  0  0  0  0  0  0  0  0  0  0  0
  142.0440   80.2180  220.9480 C   0  0  1  0  0  0  0  0  0  0  0  0
  142.1910   80.5880  219.4850 C   0  0  0  0  0  0  0  0  0  0  0  0
  142.6360   79.7810  218.4350 C   0  0  0  0  0  0  0  0  0  0  0  0
  142.5550   80.4430  217.2590 N   0  0  0  0  0  0  0  0  0  0  0  0
  142.0440   81.6510  217.5460 C   0  0  0  0  0  0  0  0  0  0  0  0
  141.7540   82.6800  216.6510 C   0  0  0  0  0  0  0  0  0  0  0  0
  141.1960   83.8640  217.1670 C   0  0  0  0  0  0  0  0  0  0  0  0
  140.9370   83.9880  218.5500 C   0  0  0  0  0  0  0  0  0  0  0  0
  141.2370   82.9320  219.4300 C   0  0  0  0  0  0  0  0  0  0  0  0
  141.7990   81.7740  218.8900 C   0  0  0  0  0  0  0  0  0  0  0  0
  139.5750   80.1132  223.7226 H   0  0  0  0  0  0  0  0  0  0  0  0
  138.2869   81.3700  223.6214 H   0  0  0  0  0  0  0  0  0  0  0  0
  136.4572   80.8863  221.7069 H   0  0  0  0  0  0  0  0  0  0  0  0
  134.8135   79.1195  221.0700 H   0  0  0  0  0  0  0  0  0  0  0  0
  135.2212   76.7410  221.7101 H   0  0  0  0  0  0  0  0  0  0  0  0
  137.2759   76.1239  222.9835 H   0  0  0  0  0  0  0  0  0  0  0  0
  138.9265   77.8841  223.6261 H   0  0  0  0  0  0  0  0  0  0  0  0
  142.6905   82.1953  222.9461 H   0  0  0  0  0  0  0  0  0  0  0  0
  140.9601   81.9602  223.5866 H   0  0  0  0  0  0  0  0  0  0  0  0
  142.7308   80.6103  224.8466 H   0  0  0  0  0  0  0  0  0  0  0  0
  142.5710   78.3738  224.4453 H   0  0  0  0  0  0  0  0  0  0  0  0
  141.0744   76.5969  223.7713 H   0  0  0  0  0  0  0  0  0  0  0  0
  139.9468   75.3174  221.9611 H   0  0  0  0  0  0  0  0  0  0  0  0
  139.7315   76.3018  219.6827 H   0  0  0  0  0  0  0  0  0  0  0  0
  140.6827   78.5492  219.1995 H   0  0  0  0  0  0  0  0  0  0  0  0
  143.0785   80.1570  221.3170 H   0  0  0  0  0  0  0  0  0  0  0  0
  143.0016   78.7499  218.5493 H   0  0  0  0  0  0  0  0  0  0  0  0
  142.8170   80.0760  216.3170 H   0  0  0  0  0  0  0  0  0  0  0  0
  141.9552   82.5696  215.5752 H   0  0  0  0  0  0  0  0  0  0  0  0
  140.9601   84.6979  216.4895 H   0  0  0  0  0  0  0  0  0  0  0  0
  140.4975   84.9171  218.9419 H   0  0  0  0  0  0  0  0  0  0  0  0
  141.0353   83.0162  220.5081 H   0  0  0  0  0  0  0  0  0  0  0  0
  1  2  2  0
  2  3  2  0
  2  4  1  0
  4  5  1  0
  5  6  2  0
  6  7  1  0
  7  8  2  0
  8  9  1  0
  9 10  2  0
  2 11  1  0
 11 12  1  0
 12 13  1  0
 13 14  2  0
 14 15  1  0
 15 16  2  0
 16 17  1  0
 17 18  2  0
 18 19  1  0
 19 20  2  0
 20 21  1  0
 21 22  1  0
 22 23  2  0
 23 24  1  0
 24 25  1  0
 25 26  2  0
 26 27  1  0
 27 28  2  0
 28 29  1  0
 29 30  2  0
 10  5  1  0
 21 11  1  0
 30 22  1  0
 20 15  1  0
 30 25  1  0
  4 31  1  0
  4 32  1  0
  6 33  1  0
  7 34  1  0
  8 35  1  0
  9 36  1  0
 10 37  1  0
 12 38  1  0
 12 39  1  0
 13 40  1  0
 14 41  1  0
 16 42  1  0
 17 43  1  0
 18 44  1  0
 19 45  1  0
 21 46  1  1
 23 47  1  0
 24 48  1  0
 26 49  1  0
 27 50  1  0
 28 51  1  0
 29 52  1  0
M  END
>  <UniqueID>  (10) 
2

>  <SMILES>  (10) 
O=S(=O)(Cc1ccccc1)N1CC=Cc2ccccc2[C@H]1c1c[nH]c2ccccc12

>  <Energy>  (10) 
102.34645035051338

>  <Genealogy>  (10) 
O=S(=O)(Cc1ccccc1)N1CC=Cc2ccccc2[C@H]1c1c[nH]c2ccccc12 (3D coordinates assigned)
O=S(=O)(Cc1ccccc1)N1CC=Cc2ccccc2[C@H]1c1c[nH]c2ccccc12 (nonaromatic ring conformer: 102.34645035051338 kcal/mol)

>  <smiles>  (10) 
O=S(=O)(Cc1ccccc1)N1CC=Cc2ccccc2[C@H]1c1c[nH]c2ccccc12

>  <score_type>  (10) 
oracle

>  <origin>  (10) 
autodockgpu

>  <m_score__min__energy>  (10) 
-6.2800000000000002

>  <m_primary>  (10) 
energy

>  <meeko>  (10) 
{"free_energy": -4.71, "intermolecular_energy": -7.39, "internal_energy": -2.84, "cluster_size": 3, "cluster_id": 3, "rank_in_cluster": 3}

>  <energy>  (10) 
-4.71

>  <cluster_rmsd>  (10) 
1.17

>  <rmsd>  (10) 
270.0

>  <cluster>  (10) 
3

$$$$
GKGZHBJKEIVYHI-VWLOTQADNA-N
     RDKit          3D

 52 56  0  0  0  0  0  0  0  0999 V2000
  136.4130   79.5040  223.7140 O   0  0  0  0  0  0  0  0  0  0  0  0
  137.7620   80.0670  223.3610 S   0  0  0  0  0  0  0  0  0  0  0  0
  138.7800   79.4750  224.2970 O   0  0  0  0  0  0  0  0  0  0  0  0
  137.7240   81.8410  223.6050 C   0  0  0  0  0  0  0  0  0  0  0  0
  137.0600   82.1740  224.9100 C   0  0  0  0  0  0  0  0  0  0  0  0
  137.1570   81.2930  226.0010 C   0  0  0  0  0  0  0  0  0  0  0  0
  136.5640   81.6200  227.2240 C   0  0  0  0  0  0  0  0  0  0  0  0
  135.8790   82.8300  227.3690 C   0  0  0  0  0  0  0  0  0  0  0  0
  135.7880   83.7150  226.2930 C   0  0  0  0  0  0  0  0  0  0  0  0
  136.3790   83.3920  225.0670 C   0  0  0  0  0  0  0  0  0  0  0  0
  138.1250   79.6130  221.7010 N   0  0  0  0  0  0  0  0  0  0  0  0
  137.7050   80.6240  220.7170 C   0  0  0  0  0  0  0  0  0  0  0  0
  138.7490   81.6170  220.2370 C   0  0  0  0  0  0  0  0  0  0  0  0
  140.0360   81.7860  220.6030 C   0  0  0  0  0  0  0  0  0  0  0  0
  140.7930   81.1130  221.6880 C   0  0  0  0  0  0  0  0  0  0  0  0
  141.8340   81.8410  222.2910 C   0  0  0  0  0  0  0  0  0  0  0  0
  142.5770   81.2960  223.3380 C   0  0  0  0  0  0  0  0  0  0  0  0
  142.2950   80.0140  223.7970 C   0  0  0  0  0  0  0  0  0  0  0  0
  141.2830   79.2640  223.1980 C   0  0  0  0  0  0  0  0  0  0  0  0
  140.5410   79.7890  222.1150 C   0  0  0  0  0  0  0  0  0  0  0  0
  139.4390   78.9960  221.4450 C   0  0  1  0  0  0  0  0  0  0  0  0
  139.4240   77.5130  221.7580 C   0  0  0  0  0  0  0  0  0  0  0  0
  138.4290   76.7820  222.4120 C   0  0  0  0  0  0  0  0  0  0  0  0
  138.7420   75.4670  222.4350 N   0  0  0  0  0  0  0  0  0  0  0  0
  139.9130   75.3510  221.7860 C   0  0  0  0  0  0  0  0  0  0  0  0
  140.6250   74.1800  221.5330 C   0  0  0  0  0  0  0  0  0  0  0  0
  141.8270   74.2850  220.8080 C   0  0  0  0  0  0  0  0  0  0  0  0
  142.2800   75.5430  220.3530 C   0  0  0  0  0  0  0  0  0  0  0  0
  141.5380   76.7080  220.6200 C   0  0  0  0  0  0  0  0  0  0  0  0
  140.3550   76.5730  221.3490 C   0  0  0  0  0  0  0  0  0  0  0  0
  138.7535   82.2283  223.6126 H   0  0  0  0  0  0  0  0  0  0  0  0
  137.1535   82.3025  222.7855 H   0  0  0  0  0  0  0  0  0  0  0  0
  137.7012   80.3433  225.8921 H   0  0  0  0  0  0  0  0  0  0  0  0
  136.6365   80.9245  228.0731 H   0  0  0  0  0  0  0  0  0  0  0  0
  135.4114   83.0850  228.3315 H   0  0  0  0  0  0  0  0  0  0  0  0
  135.2507   84.6677  226.4095 H   0  0  0  0  0  0  0  0  0  0  0  0
  136.3101   84.0943  224.2232 H   0  0  0  0  0  0  0  0  0  0  0  0
  137.3313   80.0868  219.8328 H   0  0  0  0  0  0  0  0  0  0  0  0
  136.9611   81.2366  221.2474 H   0  0  0  0  0  0  0  0  0  0  0  0
  138.3971   82.3141  219.4623 H   0  0  0  0  0  0  0  0  0  0  0  0
  140.6028   82.5243  220.0167 H   0  0  0  0  0  0  0  0  0  0  0  0
  142.0656   82.8546  221.9319 H   0  0  0  0  0  0  0  0  0  0  0  0
  143.3861   81.8803  223.8007 H   0  0  0  0  0  0  0  0  0  0  0  0
  142.8707   79.5909  224.6334 H   0  0  0  0  0  0  0  0  0  0  0  0
  141.0599   78.2539  223.5719 H   0  0  0  0  0  0  0  0  0  0  0  0
  139.6657   79.0431  220.3697 H   0  0  0  0  0  0  0  0  0  0  0  0
  137.5172   77.2163  222.8479 H   0  0  0  0  0  0  0  0  0  0  0  0
  138.1750   74.6970  222.8540 H   0  0  0  0  0  0  0  0  0  0  0  0
  140.2595   73.2052  221.8884 H   0  0  0  0  0  0  0  0  0  0  0  0
  142.4172   73.3816  220.5945 H   0  0  0  0  0  0  0  0  0  0  0  0
  143.2199   75.6123  219.7857 H   0  0  0  0  0  0  0  0  0  0  0  0
  141.8785   77.6923  220.2662 H   0  0  0  0  0  0  0  0  0  0  0  0
  1  2  2  0
  2  3  2  0
  2  4  1  0
  4  5  1  0
  5  6  2  0
  6  7  1  0
  7  8  2  0
  8  9  1  0
  9 10  2  0
  2 11  1  0
 11 12  1  0
 12 13  1  0
 13 14  2  0
 14 15  1  0
 15 16  2  0
 16 17  1  0
 17 18  2  0
 18 19  1  0
 19 20  2  0
 20 21  1  0
 21 22  1  0
 22 23  2  0
 23 24  1  0
 24 25  1  0
 25 26  2  0
 26 27  1  0
 27 28  2  0
 28 29  1  0
 29 30  2  0
 10  5  1  0
 21 11  1  0
 30 22  1  0
 20 15  1  0
 30 25  1  0
  4 31  1  0
  4 32  1  0
  6 33  1  0
  7 34  1  0
  8 35  1  0
  9 36  1  0
 10 37  1  0
 12 38  1  0
 12 39  1  0
 13 40  1  0
 14 41  1  0
 16 42  1  0
 17 43  1  0
 18 44  1  0
 19 45  1  0
 21 46  1  6
 23 47  1  0
 24 48  1  0
 26 49  1  0
 27 50  1  0
 28 51  1  0
 29 52  1  0
M  END
>  <UniqueID>  (11) 
2

>  <SMILES>  (11) 
O=S(=O)(Cc1ccccc1)N1CC=Cc2ccccc2[C@H]1c1c[nH]c2ccccc12

>  <Energy>  (11) 
102.34645035051338

>  <Genealogy>  (11) 
O=S(=O)(Cc1ccccc1)N1CC=Cc2ccccc2[C@H]1c1c[nH]c2ccccc12 (3D coordinates assigned)
O=S(=O)(Cc1ccccc1)N1CC=Cc2ccccc2[C@H]1c1c[nH]c2ccccc12 (nonaromatic ring conformer: 102.34645035051338 kcal/mol)

>  <smiles>  (11) 
O=S(=O)(Cc1ccccc1)N1CC=Cc2ccccc2[C@H]1c1c[nH]c2ccccc12

>  <score_type>  (11) 
oracle

>  <origin>  (11) 
autodockgpu

>  <m_score__min__energy>  (11) 
-6.2800000000000002

>  <m_primary>  (11) 
energy

>  <meeko>  (11) 
{"free_energy": -5.79, "intermolecular_energy": -8.48, "internal_energy": -2.23, "cluster_size": 5, "cluster_id": 2, "rank_in_cluster": 2}

>  <energy>  (11) 
-5.23

>  <cluster_rmsd>  (11) 
0.0

>  <rmsd>  (11) 
269.4

>  <cluster>  (11) 
4

$$$$
GKGZHBJKEIVYHI-VWLOTQADNA-N
     RDKit          3D

 52 56  0  0  0  0  0  0  0  0999 V2000
  138.4680   79.8220  224.0990 O   0  0  0  0  0  0  0  0  0  0  0  0
  138.0600   80.7910  223.0240 S   0  0  0  0  0  0  0  0  0  0  0  0
  138.9710   81.9860  223.0940 O   0  0  0  0  0  0  0  0  0  0  0  0
  136.3830   81.3320  223.3480 C   0  0  0  0  0  0  0  0  0  0  0  0
  136.2980   81.9900  224.6950 C   0  0  0  0  0  0  0  0  0  0  0  0
  136.4140   81.2230  225.8680 C   0  0  0  0  0  0  0  0  0  0  0  0
  136.3650   81.8420  227.1200 C   0  0  0  0  0  0  0  0  0  0  0  0
  136.2090   83.2280  227.2110 C   0  0  0  0  0  0  0  0  0  0  0  0
  136.1050   83.9980  226.0500 C   0  0  0  0  0  0  0  0  0  0  0  0
  136.1530   83.3830  224.7940 C   0  0  0  0  0  0  0  0  0  0  0  0
  138.2310   79.9860  221.4710 N   0  0  0  0  0  0  0  0  0  0  0  0
  138.2220   80.9160  220.3290 C   0  0  0  0  0  0  0  0  0  0  0  0
  139.5630   81.3300  219.7470 C   0  0  0  0  0  0  0  0  0  0  0  0
  140.8160   81.0930  220.1720 C   0  0  0  0  0  0  0  0  0  0  0  0
  141.2680   80.3710  221.3880 C   0  0  0  0  0  0  0  0  0  0  0  0
  142.5070   80.7490  221.9360 C   0  0  0  0  0  0  0  0  0  0  0  0
  142.9920   80.1430  223.0940 C   0  0  0  0  0  0  0  0  0  0  0  0
  142.2510   79.1470  223.7220 C   0  0  0  0  0  0  0  0  0  0  0  0
  141.0320   78.7390  223.1820 C   0  0  0  0  0  0  0  0  0  0  0  0
  140.5380   79.3210  221.9920 C   0  0  0  0  0  0  0  0  0  0  0  0
  139.2190   78.8950  221.3840 C   0  0  1  0  0  0  0  0  0  0  0  0
  138.6520   77.5920  221.9100 C   0  0  0  0  0  0  0  0  0  0  0  0
  139.3080   76.3680  222.0630 C   0  0  0  0  0  0  0  0  0  0  0  0
  138.4900   75.4580  222.6370 N   0  0  0  0  0  0  0  0  0  0  0  0
  137.3300   76.0940  222.8680 C   0  0  0  0  0  0  0  0  0  0  0  0
  136.1850   75.5710  223.4690 C   0  0  0  0  0  0  0  0  0  0  0  0
  135.0810   76.4260  223.6380 C   0  0  0  0  0  0  0  0  0  0  0  0
  135.1480   77.7710  223.2120 C   0  0  0  0  0  0  0  0  0  0  0  0
  136.3170   78.2730  222.6120 C   0  0  0  0  0  0  0  0  0  0  0  0
  137.3930   77.3980  222.4500 C   0  0  0  0  0  0  0  0  0  0  0  0
  136.0776   82.0507  222.5733 H   0  0  0  0  0  0  0  0  0  0  0  0
  135.7163   80.4572  223.3348 H   0  0  0  0  0  0  0  0  0  0  0  0
  136.5437   80.1328  225.7999 H   0  0  0  0  0  0  0  0  0  0  0  0
  136.4493   81.2376  228.0352 H   0  0  0  0  0  0  0  0  0  0  0  0
  136.1681   83.7128  228.1975 H   0  0  0  0  0  0  0  0  0  0  0  0
  135.9852   85.0890  226.1233 H   0  0  0  0  0  0  0  0  0  0  0  0
  136.0769   83.9927  223.8816 H   0  0  0  0  0  0  0  0  0  0  0  0
  137.6460   80.4400  219.5218 H   0  0  0  0  0  0  0  0  0  0  0  0
  137.7931   81.8461  220.7302 H   0  0  0  0  0  0  0  0  0  0  0  0
  139.4975   81.9231  218.8229 H   0  0  0  0  0  0  0  0  0  0  0  0
  141.6171   81.4886  219.5303 H   0  0  0  0  0  0  0  0  0  0  0  0
  143.1012   81.5333  221.4443 H   0  0  0  0  0  0  0  0  0  0  0  0
  143.9614   80.4526  223.5115 H   0  0  0  0  0  0  0  0  0  0  0  0
  142.6270   78.6812  224.6449 H   0  0  0  0  0  0  0  0  0  0  0  0
  140.4482   77.9556  223.6874 H   0  0  0  0  0  0  0  0  0  0  0  0
  139.4448   78.6840  220.3283 H   0  0  0  0  0  0  0  0  0  0  0  0
  140.3467   76.1720  221.7584 H   0  0  0  0  0  0  0  0  0  0  0  0
  138.7240   74.4670  222.8710 H   0  0  0  0  0  0  0  0  0  0  0  0
  136.1467   74.5228  223.8004 H   0  0  0  0  0  0  0  0  0  0  0  0
  134.1605   76.0451  224.1044 H   0  0  0  0  0  0  0  0  0  0  0  0
  134.2791   78.4312  223.3506 H   0  0  0  0  0  0  0  0  0  0  0  0
  136.3814   79.3202  222.2814 H   0  0  0  0  0  0  0  0  0  0  0  0
  1  2  2  0
  2  3  2  0
  2  4  1  0
  4  5  1  0
  5  6  2  0
  6  7  1  0
  7  8  2  0
  8  9  1  0
  9 10  2  0
  2 11  1  0
 11 12  1  0
 12 13  1  0
 13 14  2  0
 14 15  1  0
 15 16  2  0
 16 17  1  0
 17 18  2  0
 18 19  1  0
 19 20  2  0
 20 21  1  0
 21 22  1  0
 22 23  2  0
 23 24  1  0
 24 25  1  0
 25 26  2  0
 26 27  1  0
 27 28  2  0
 28 29  1  0
 29 30  2  0
 10  5  1  0
 21 11  1  0
 30 22  1  0
 20 15  1  0
 30 25  1  0
  4 31  1  0
  4 32  1  0
  6 33  1  0
  7 34  1  0
  8 35  1  0
  9 36  1  0
 10 37  1  0
 12 38  1  0
 12 39  1  0
 13 40  1  0
 14 41  1  0
 16 42  1  0
 17 43  1  0
 18 44  1  0
 19 45  1  0
 21 46  1  6
 23 47  1  0
 24 48  1  0
 26 49  1  0
 27 50  1  0
 28 51  1  0
 29 52  1  0
M  END
>  <UniqueID>  (12) 
2

>  <SMILES>  (12) 
O=S(=O)(Cc1ccccc1)N1CC=Cc2ccccc2[C@H]1c1c[nH]c2ccccc12

>  <Energy>  (12) 
102.34645035051338

>  <Genealogy>  (12) 
O=S(=O)(Cc1ccccc1)N1CC=Cc2ccccc2[C@H]1c1c[nH]c2ccccc12 (3D coordinates assigned)
O=S(=O)(Cc1ccccc1)N1CC=Cc2ccccc2[C@H]1c1c[nH]c2ccccc12 (nonaromatic ring conformer: 102.34645035051338 kcal/mol)

>  <smiles>  (12) 
O=S(=O)(Cc1ccccc1)N1CC=Cc2ccccc2[C@H]1c1c[nH]c2ccccc12

>  <score_type>  (12) 
oracle

>  <origin>  (12) 
autodockgpu

>  <m_score__min__energy>  (12) 
-6.2800000000000002

>  <m_primary>  (12) 
energy

>  <meeko>  (12) 
{"free_energy": -5.3, "intermolecular_energy": -7.99, "internal_energy": -2.31, "cluster_size": 5, "cluster_id": 2, "rank_in_cluster": 5}

>  <energy>  (12) 
-5.09

>  <cluster_rmsd>  (12) 
0.37

>  <rmsd>  (12) 
269.4

>  <cluster>  (12) 
4

$$$$
GKGZHBJKEIVYHI-VWLOTQADNA-N
     RDKit          3D

 52 56  0  0  0  0  0  0  0  0999 V2000
  136.7750   79.2020  223.0900 O   0  0  0  0  0  0  0  0  0  0  0  0
  137.6740   80.3720  223.3810 S   0  0  0  0  0  0  0  0  0  0  0  0
  137.8050   80.5070  224.8740 O   0  0  0  0  0  0  0  0  0  0  0  0
  136.9070   81.8580  222.7380 C   0  0  0  0  0  0  0  0  0  0  0  0
  137.7750   82.4760  221.6800 C   0  0  0  0  0  0  0  0  0  0  0  0
  137.2760   82.6810  220.3820 C   0  0  0  0  0  0  0  0  0  0  0  0
  138.0750   83.2860  219.4080 C   0  0  0  0  0  0  0  0  0  0  0  0
  139.3730   83.6970  219.7230 C   0  0  0  0  0  0  0  0  0  0  0  0
  139.8720   83.5080  221.0140 C   0  0  0  0  0  0  0  0  0  0  0  0
  139.0760   82.9030  221.9930 C   0  0  0  0  0  0  0  0  0  0  0  0
  139.2440   80.0460  222.6590 N   0  0  0  0  0  0  0  0  0  0  0  0
  140.2870   79.7370  223.6510 C   0  0  0  0  0  0  0  0  0  0  0  0
  141.7030   79.5250  223.1430 C   0  0  0  0  0  0  0  0  0  0  0  0
  142.1900   79.5150  221.8890 C   0  0  0  0  0  0  0  0  0  0  0  0
  141.5350   79.9550  220.6320 C   0  0  0  0  0  0  0  0  0  0  0  0
  142.3530   80.5560  219.6580 C   0  0  0  0  0  0  0  0  0  0  0  0
  141.8240   80.9700  218.4360 C   0  0  0  0  0  0  0  0  0  0  0  0
  140.4710   80.7970  218.1680 C   0  0  0  0  0  0  0  0  0  0  0  0
  139.6360   80.2260  219.1290 C   0  0  0  0  0  0  0  0  0  0  0  0
  140.1480   79.8280  220.3850 C   0  0  0  0  0  0  0  0  0  0  0  0
  139.2640   79.2080  221.4460 C   0  0  1  0  0  0  0  0  0  0  0  0
  139.5660   77.7610  221.7780 C   0  0  0  0  0  0  0  0  0  0  0  0
  138.9670   76.9600  222.7530 C   0  0  0  0  0  0  0  0  0  0  0  0
  139.4500   75.6980  222.6960 N   0  0  0  0  0  0  0  0  0  0  0  0
  140.3330   75.6840  221.6840 C   0  0  0  0  0  0  0  0  0  0  0  0
  141.0740   74.5950  221.2260 C   0  0  0  0  0  0  0  0  0  0  0  0
  141.9290   74.7970  220.1260 C   0  0  0  0  0  0  0  0  0  0  0  0
  142.0170   76.0670  219.5140 C   0  0  0  0  0  0  0  0  0  0  0  0
  141.2550   77.1460  219.9960 C   0  0  0  0  0  0  0  0  0  0  0  0
  140.4230   76.9180  221.0930 C   0  0  0  0  0  0  0  0  0  0  0  0
  135.9298   81.6027  222.3023 H   0  0  0  0  0  0  0  0  0  0  0  0
  136.7766   82.5778  223.5595 H   0  0  0  0  0  0  0  0  0  0  0  0
  136.2528   82.3640  220.1319 H   0  0  0  0  0  0  0  0  0  0  0  0
  137.6817   83.4389  218.3922 H   0  0  0  0  0  0  0  0  0  0  0  0
  140.0020   84.1695  218.9541 H   0  0  0  0  0  0  0  0  0  0  0  0
  140.8926   83.8354  221.2615 H   0  0  0  0  0  0  0  0  0  0  0  0
  139.4701   82.7615  223.0102 H   0  0  0  0  0  0  0  0  0  0  0  0
  140.3163   80.5709  224.3677 H   0  0  0  0  0  0  0  0  0  0  0  0
  139.9929   78.7634  224.0701 H   0  0  0  0  0  0  0  0  0  0  0  0
  142.4526   79.3513  223.9291 H   0  0  0  0  0  0  0  0  0  0  0  0
  143.2138   79.1277  221.7804 H   0  0  0  0  0  0  0  0  0  0  0  0
  143.4239   80.7013  219.8630 H   0  0  0  0  0  0  0  0  0  0  0  0
  142.4782   81.4341  217.6832 H   0  0  0  0  0  0  0  0  0  0  0  0
  140.0584   81.1105  217.1977 H   0  0  0  0  0  0  0  0  0  0  0  0
  138.5681   80.0841  218.9069 H   0  0  0  0  0  0  0  0  0  0  0  0
  138.2586   79.1782  221.0007 H   0  0  0  0  0  0  0  0  0  0  0  0
  138.2073   77.3077  223.4685 H   0  0  0  0  0  0  0  0  0  0  0  0
  139.1740   74.8960  223.3040 H   0  0  0  0  0  0  0  0  0  0  0  0
  140.9930   73.6099  221.7087 H   0  0  0  0  0  0  0  0  0  0  0  0
  142.5318   73.9613  219.7410 H   0  0  0  0  0  0  0  0  0  0  0  0
  142.6868   76.2131  218.6537 H   0  0  0  0  0  0  0  0  0  0  0  0
  141.3128   78.1377  219.5237 H   0  0  0  0  0  0  0  0  0  0  0  0
  1  2  2  0
  2  3  2  0
  2  4  1  0
  4  5  1  0
  5  6  2  0
  6  7  1  0
  7  8  2  0
  8  9  1  0
  9 10  2  0
  2 11  1  0
 11 12  1  0
 12 13  1  0
 13 14  2  0
 14 15  1  0
 15 16  2  0
 16 17  1  0
 17 18  2  0
 18 19  1  0
 19 20  2  0
 20 21  1  0
 21 22  1  0
 22 23  2  0
 23 24  1  0
 24 25  1  0
 25 26  2  0
 26 27  1  0
 27 28  2  0
 28 29  1  0
 29 30  2  0
 10  5  1  0
 21 11  1  0
 30 22  1  0
 20 15  1  0
 30 25  1  0
  4 31  1  0
  4 32  1  0
  6 33  1  0
  7 34  1  0
  8 35  1  0
  9 36  1  0
 10 37  1  0
 12 38  1  0
 12 39  1  0
 13 40  1  0
 14 41  1  0
 16 42  1  0
 17 43  1  0
 18 44  1  0
 19 45  1  0
 21 46  1  6
 23 47  1  0
 24 48  1  0
 26 49  1  0
 27 50  1  0
 28 51  1  0
 29 52  1  0
M  END
>  <UniqueID>  (13) 
2

>  <SMILES>  (13) 
O=S(=O)(Cc1ccccc1)N1CC=Cc2ccccc2[C@H]1c1c[nH]c2ccccc12

>  <Energy>  (13) 
102.34645035051338

>  <Genealogy>  (13) 
O=S(=O)(Cc1ccccc1)N1CC=Cc2ccccc2[C@H]1c1c[nH]c2ccccc12 (3D coordinates assigned)
O=S(=O)(Cc1ccccc1)N1CC=Cc2ccccc2[C@H]1c1c[nH]c2ccccc12 (nonaromatic ring conformer: 102.34645035051338 kcal/mol)

>  <smiles>  (13) 
O=S(=O)(Cc1ccccc1)N1CC=Cc2ccccc2[C@H]1c1c[nH]c2ccccc12

>  <score_type>  (13) 
oracle

>  <origin>  (13) 
autodockgpu

>  <m_score__min__energy>  (13) 
-6.2800000000000002

>  <m_primary>  (13) 
energy

>  <meeko>  (13) 
{"free_energy": -4.21, "intermolecular_energy": -6.9, "internal_energy": -2.69, "cluster_size": 1, "cluster_id": 9, "rank_in_cluster": 1}

>  <energy>  (13) 
-4.84

>  <cluster_rmsd>  (13) 
0.0

>  <rmsd>  (13) 
269.11

>  <cluster>  (13) 
5

$$$$
GKGZHBJKEIVYHI-VWLOTQADNA-N
     RDKit          3D

 52 56  0  0  0  0  0  0  0  0999 V2000
  138.7420   77.5880  222.6410 O   0  0  0  0  0  0  0  0  0  0  0  0
  139.9050   76.8050  222.0980 S   0  0  0  0  0  0  0  0  0  0  0  0
  139.6250   75.3410  222.3010 O   0  0  0  0  0  0  0  0  0  0  0  0
  141.3720   77.2410  223.0280 C   0  0  0  0  0  0  0  0  0  0  0  0
  141.5210   78.7340  223.0980 C   0  0  0  0  0  0  0  0  0  0  0  0
  140.5000   79.5230  223.6560 C   0  0  0  0  0  0  0  0  0  0  0  0
  140.6540   80.9090  223.7490 C   0  0  0  0  0  0  0  0  0  0  0  0
  141.8280   81.5160  223.2940 C   0  0  0  0  0  0  0  0  0  0  0  0
  142.8520   80.7370  222.7490 C   0  0  0  0  0  0  0  0  0  0  0  0
  142.7020   79.3490  222.6540 C   0  0  0  0  0  0  0  0  0  0  0  0
  140.0520   77.1640  220.3830 N   0  0  0  0  0  0  0  0  0  0  0  0
  138.7800   77.5720  219.7630 C   0  0  0  0  0  0  0  0  0  0  0  0
  138.8080   77.9890  218.3030 C   0  0  0  0  0  0  0  0  0  0  0  0
  139.7670   77.8480  217.3700 C   0  0  0  0  0  0  0  0  0  0  0  0
  141.1350   77.2920  217.5170 C   0  0  0  0  0  0  0  0  0  0  0  0
  141.7090   76.6890  216.3830 C   0  0  0  0  0  0  0  0  0  0  0  0
  143.0020   76.1690  216.4260 C   0  0  0  0  0  0  0  0  0  0  0  0
  143.7410   76.2380  217.6020 C   0  0  0  0  0  0  0  0  0  0  0  0
  143.1840   76.8090  218.7450 C   0  0  0  0  0  0  0  0  0  0  0  0
  141.8640   77.3140  218.7290 C   0  0  0  0  0  0  0  0  0  0  0  0
  141.2330   77.9360  219.9570 C   0  0  1  0  0  0  0  0  0  0  0  0
  140.9180   79.4140  219.8460 C   0  0  0  0  0  0  0  0  0  0  0  0
  139.9800   80.1500  220.5740 C   0  0  0  0  0  0  0  0  0  0  0  0
  140.0430   81.4600  220.2450 N   0  0  0  0  0  0  0  0  0  0  0  0
  141.0230   81.5680  219.3320 C   0  0  0  0  0  0  0  0  0  0  0  0
  141.4740   82.7320  218.7120 C   0  0  0  0  0  0  0  0  0  0  0  0
  142.5380   82.6200  217.7980 C   0  0  0  0  0  0  0  0  0  0  0  0
  143.1230   81.3620  217.5330 C   0  0  0  0  0  0  0  0  0  0  0  0
  142.6490   80.2050  218.1760 C   0  0  0  0  0  0  0  0  0  0  0  0
  141.5870   80.3460  219.0710 C   0  0  0  0  0  0  0  0  0  0  0  0
  141.2887   76.8365  224.0475 H   0  0  0  0  0  0  0  0  0  0  0  0
  142.2535   76.8169  222.5249 H   0  0  0  0  0  0  0  0  0  0  0  0
  139.5772   79.0481  224.0205 H   0  0  0  0  0  0  0  0  0  0  0  0
  139.8501   81.5231  224.1809 H   0  0  0  0  0  0  0  0  0  0  0  0
  141.9458   82.6074  223.3650 H   0  0  0  0  0  0  0  0  0  0  0  0
  143.7769   81.2153  222.3943 H   0  0  0  0  0  0  0  0  0  0  0  0
  143.5123   78.7378  222.2300 H   0  0  0  0  0  0  0  0  0  0  0  0
  138.0855   76.7233  219.8490 H   0  0  0  0  0  0  0  0  0  0  0  0
  138.4852   78.4819  220.3064 H   0  0  0  0  0  0  0  0  0  0  0  0
  137.8937   78.4886  217.9502 H   0  0  0  0  0  0  0  0  0  0  0  0
  139.5005   78.1920  216.3597 H   0  0  0  0  0  0  0  0  0  0  0  0
  141.1300   76.6269  215.4498 H   0  0  0  0  0  0  0  0  0  0  0  0
  143.4377   75.7040  215.5294 H   0  0  0  0  0  0  0  0  0  0  0  0
  144.7666   75.8414  217.6302 H   0  0  0  0  0  0  0  0  0  0  0  0
  143.7779   76.8672  219.6691 H   0  0  0  0  0  0  0  0  0  0  0  0
  142.0081   77.8826  220.7357 H   0  0  0  0  0  0  0  0  0  0  0  0
  139.2860   79.7228  221.3129 H   0  0  0  0  0  0  0  0  0  0  0  0
  139.4610   82.2320  220.6390 H   0  0  0  0  0  0  0  0  0  0  0  0
  141.0131   83.7067  218.9301 H   0  0  0  0  0  0  0  0  0  0  0  0
  142.9164   83.5175  217.2868 H   0  0  0  0  0  0  0  0  0  0  0  0
  143.9557   81.2869  216.8182 H   0  0  0  0  0  0  0  0  0  0  0  0
  143.1001   79.2211  217.9802 H   0  0  0  0  0  0  0  0  0  0  0  0
  1  2  2  0
  2  3  2  0
  2  4  1  0
  4  5  1  0
  5  6  2  0
  6  7  1  0
  7  8  2  0
  8  9  1  0
  9 10  2  0
  2 11  1  0
 11 12  1  0
 12 13  1  0
 13 14  2  0
 14 15  1  0
 15 16  2  0
 16 17  1  0
 17 18  2  0
 18 19  1  0
 19 20  2  0
 20 21  1  0
 21 22  1  0
 22 23  2  0
 23 24  1  0
 24 25  1  0
 25 26  2  0
 26 27  1  0
 27 28  2  0
 28 29  1  0
 29 30  2  0
 10  5  1  0
 21 11  1  0
 30 22  1  0
 20 15  1  0
 30 25  1  0
  4 31  1  0
  4 32  1  0
  6 33  1  0
  7 34  1  0
  8 35  1  0
  9 36  1  0
 10 37  1  0
 12 38  1  0
 12 39  1  0
 13 40  1  0
 14 41  1  0
 16 42  1  0
 17 43  1  0
 18 44  1  0
 19 45  1  0
 21 46  1  1
 23 47  1  0
 24 48  1  0
 26 49  1  0
 27 50  1  0
 28 51  1  0
 29 52  1  0
M  END
>  <UniqueID>  (14) 
2

>  <SMILES>  (14) 
O=S(=O)(Cc1ccccc1)N1CC=Cc2ccccc2[C@H]1c1c[nH]c2ccccc12

>  <Energy>  (14) 
102.34645035051338

>  <Genealogy>  (14) 
O=S(=O)(Cc1ccccc1)N1CC=Cc2ccccc2[C@H]1c1c[nH]c2ccccc12 (3D coordinates assigned)
O=S(=O)(Cc1ccccc1)N1CC=Cc2ccccc2[C@H]1c1c[nH]c2ccccc12 (nonaromatic ring conformer: 102.34645035051338 kcal/mol)

>  <smiles>  (14) 
O=S(=O)(Cc1ccccc1)N1CC=Cc2ccccc2[C@H]1c1c[nH]c2ccccc12

>  <score_type>  (14) 
oracle

>  <origin>  (14) 
autodockgpu

>  <m_score__min__energy>  (14) 
-6.2800000000000002

>  <m_primary>  (14) 
energy

>  <meeko>  (14) 
{"free_energy": -4.8, "intermolecular_energy": -7.49, "internal_energy": -2.71, "cluster_size": 4, "cluster_id": 5, "rank_in_cluster": 2}

>  <energy>  (14) 
-4.8

>  <cluster_rmsd>  (14) 
0.13

>  <rmsd>  (14) 
269.16

>  <cluster>  (14) 
5

$$$$
GKGZHBJKEIVYHI-VWLOTQADNA-N
     RDKit          3D

 52 56  0  0  0  0  0  0  0  0999 V2000
  138.4650   79.7760  224.1370 O   0  0  0  0  0  0  0  0  0  0  0  0
  138.0200   80.7170  223.0530 S   0  0  0  0  0  0  0  0  0  0  0  0
  138.8850   81.9460  223.1100 O   0  0  0  0  0  0  0  0  0  0  0  0
  136.3230   81.1960  223.3720 C   0  0  0  0  0  0  0  0  0  0  0  0
  136.1010   81.3780  224.8460 C   0  0  0  0  0  0  0  0  0  0  0  0
  134.9340   80.8830  225.4540 C   0  0  0  0  0  0  0  0  0  0  0  0
  134.7440   81.0260  226.8320 C   0  0  0  0  0  0  0  0  0  0  0  0
  135.7190   81.6540  227.6120 C   0  0  0  0  0  0  0  0  0  0  0  0
  136.8870   82.1370  227.0170 C   0  0  0  0  0  0  0  0  0  0  0  0
  137.0810   81.9970  225.6390 C   0  0  0  0  0  0  0  0  0  0  0  0
  138.2200   79.9030  221.5070 N   0  0  0  0  0  0  0  0  0  0  0  0
  138.2100   80.8240  220.3590 C   0  0  0  0  0  0  0  0  0  0  0  0
  139.5500   81.3020  219.8260 C   0  0  0  0  0  0  0  0  0  0  0  0
  140.8030   81.0500  220.2470 C   0  0  0  0  0  0  0  0  0  0  0  0
  141.2500   80.3370  221.4700 C   0  0  0  0  0  0  0  0  0  0  0  0
  142.4750   80.7360  222.0340 C   0  0  0  0  0  0  0  0  0  0  0  0
  142.9550   80.1400  223.1990 C   0  0  0  0  0  0  0  0  0  0  0  0
  142.2220   79.1320  223.8180 C   0  0  0  0  0  0  0  0  0  0  0  0
  141.0160   78.7040  223.2630 C   0  0  0  0  0  0  0  0  0  0  0  0
  140.5300   79.2750  222.0650 C   0  0  0  0  0  0  0  0  0  0  0  0
  139.2260   78.8270  221.4400 C   0  0  1  0  0  0  0  0  0  0  0  0
  138.6720   77.5180  221.9640 C   0  0  0  0  0  0  0  0  0  0  0  0
  139.3430   76.3040  222.1280 C   0  0  0  0  0  0  0  0  0  0  0  0
  138.5300   75.3830  222.6960 N   0  0  0  0  0  0  0  0  0  0  0  0
  137.3590   76.0040  222.9120 C   0  0  0  0  0  0  0  0  0  0  0  0
  136.2160   75.4670  223.5010 C   0  0  0  0  0  0  0  0  0  0  0  0
  135.0980   76.3070  223.6550 C   0  0  0  0  0  0  0  0  0  0  0  0
  135.1500   77.6520  223.2260 C   0  0  0  0  0  0  0  0  0  0  0  0
  136.3190   78.1680  222.6370 C   0  0  0  0  0  0  0  0  0  0  0  0
  137.4090   77.3070  222.4900 C   0  0  0  0  0  0  0  0  0  0  0  0
  136.1094   82.1422  222.8533 H   0  0  0  0  0  0  0  0  0  0  0  0
  135.6528   80.4050  223.0042 H   0  0  0  0  0  0  0  0  0  0  0  0
  134.1681   80.3817  224.8439 H   0  0  0  0  0  0  0  0  0  0  0  0
  133.8262   80.6438  227.3026 H   0  0  0  0  0  0  0  0  0  0  0  0
  135.5665   81.7680  228.6954 H   0  0  0  0  0  0  0  0  0  0  0  0
  137.6549   82.6279  227.6329 H   0  0  0  0  0  0  0  0  0  0  0  0
  138.0045   82.3731  225.1746 H   0  0  0  0  0  0  0  0  0  0  0  0
  137.6908   80.3148  219.5337 H   0  0  0  0  0  0  0  0  0  0  0  0
  137.7201   81.7337  220.7364 H   0  0  0  0  0  0  0  0  0  0  0  0
  139.4851   81.9643  218.9502 H   0  0  0  0  0  0  0  0  0  0  0  0
  141.6065   81.4237  219.5953 H   0  0  0  0  0  0  0  0  0  0  0  0
  143.0625   81.5295  221.5490 H   0  0  0  0  0  0  0  0  0  0  0  0
  143.9133   80.4665  223.6292 H   0  0  0  0  0  0  0  0  0  0  0  0
  142.5939   78.6724  224.7456 H   0  0  0  0  0  0  0  0  0  0  0  0
  140.4370   77.9136  223.7631 H   0  0  0  0  0  0  0  0  0  0  0  0
  139.4699   78.6157  220.3884 H   0  0  0  0  0  0  0  0  0  0  0  0
  140.3877   76.1217  221.8359 H   0  0  0  0  0  0  0  0  0  0  0  0
  138.7760   74.3970  222.9350 H   0  0  0  0  0  0  0  0  0  0  0  0
  136.1887   74.4193  223.8350 H   0  0  0  0  0  0  0  0  0  0  0  0
  134.1779   75.9142  224.1122 H   0  0  0  0  0  0  0  0  0  0  0  0
  134.2705   78.3003  223.3533 H   0  0  0  0  0  0  0  0  0  0  0  0
  136.3727   79.2148  222.3033 H   0  0  0  0  0  0  0  0  0  0  0  0
  1  2  2  0
  2  3  2  0
  2  4  1  0
  4  5  1  0
  5  6  2  0
  6  7  1  0
  7  8  2  0
  8  9  1  0
  9 10  2  0
  2 11  1  0
 11 12  1  0
 12 13  1  0
 13 14  2  0
 14 15  1  0
 15 16  2  0
 16 17  1  0
 17 18  2  0
 18 19  1  0
 19 20  2  0
 20 21  1  0
 21 22  1  0
 22 23  2  0
 23 24  1  0
 24 25  1  0
 25 26  2  0
 26 27  1  0
 27 28  2  0
 28 29  1  0
 29 30  2  0
 10  5  1  0
 21 11  1  0
 30 22  1  0
 20 15  1  0
 30 25  1  0
  4 31  1  0
  4 32  1  0
  6 33  1  0
  7 34  1  0
  8 35  1  0
  9 36  1  0
 10 37  1  0
 12 38  1  0
 12 39  1  0
 13 40  1  0
 14 41  1  0
 16 42  1  0
 17 43  1  0
 18 44  1  0
 19 45  1  0
 21 46  1  6
 23 47  1  0
 24 48  1  0
 26 49  1  0
 27 50  1  0
 28 51  1  0
 29 52  1  0
M  END
>  <UniqueID>  (15) 
2

>  <SMILES>  (15) 
O=S(=O)(Cc1ccccc1)N1CC=Cc2ccccc2[C@H]1c1c[nH]c2ccccc12

>  <Energy>  (15) 
102.34645035051338

>  <Genealogy>  (15) 
O=S(=O)(Cc1ccccc1)N1CC=Cc2ccccc2[C@H]1c1c[nH]c2ccccc12 (3D coordinates assigned)
O=S(=O)(Cc1ccccc1)N1CC=Cc2ccccc2[C@H]1c1c[nH]c2ccccc12 (nonaromatic ring conformer: 102.34645035051338 kcal/mol)

>  <smiles>  (15) 
O=S(=O)(Cc1ccccc1)N1CC=Cc2ccccc2[C@H]1c1c[nH]c2ccccc12

>  <score_type>  (15) 
oracle

>  <origin>  (15) 
autodockgpu

>  <m_score__min__energy>  (15) 
-6.2800000000000002

>  <m_primary>  (15) 
energy

>  <meeko>  (15) 
{"free_energy": -5.72, "intermolecular_energy": -8.4, "internal_energy": -2.39, "cluster_size": 5, "cluster_id": 2, "rank_in_cluster": 3}

>  <energy>  (15) 
-4.78

>  <cluster_rmsd>  (15) 
0.06

>  <rmsd>  (15) 
269.14

>  <cluster>  (15) 
5

$$$$
GKGZHBJKEIVYHI-VWLOTQADNA-N
     RDKit          3D

 52 56  0  0  0  0  0  0  0  0999 V2000
  139.9380   76.5400  218.3810 O   0  0  0  0  0  0  0  0  0  0  0  0
  139.5610   76.9590  219.7760 S   0  0  0  0  0  0  0  0  0  0  0  0
  138.5960   75.9470  220.3290 O   0  0  0  0  0  0  0  0  0  0  0  0
  138.7390   78.5480  219.6930 C   0  0  0  0  0  0  0  0  0  0  0  0
  138.6670   79.1700  221.0580 C   0  0  0  0  0  0  0  0  0  0  0  0
  138.9600   78.4070  222.2020 C   0  0  0  0  0  0  0  0  0  0  0  0
  138.9230   78.9960  223.4690 C   0  0  0  0  0  0  0  0  0  0  0  0
  138.6020   80.3500  223.6030 C   0  0  0  0  0  0  0  0  0  0  0  0
  138.3210   81.1170  222.4710 C   0  0  0  0  0  0  0  0  0  0  0  0
  138.3570   80.5320  221.2000 C   0  0  0  0  0  0  0  0  0  0  0  0
  141.0260   76.9980  220.7480 N   0  0  0  0  0  0  0  0  0  0  0  0
  141.4130   75.6760  221.2700 C   0  0  0  0  0  0  0  0  0  0  0  0
  142.5010   74.9170  220.5320 C   0  0  0  0  0  0  0  0  0  0  0  0
  143.0840   75.1550  219.3450 C   0  0  0  0  0  0  0  0  0  0  0  0
  142.8450   76.2690  218.3940 C   0  0  0  0  0  0  0  0  0  0  0  0
  143.1120   76.0210  217.0350 C   0  0  0  0  0  0  0  0  0  0  0  0
  142.8860   77.0020  216.0710 C   0  0  0  0  0  0  0  0  0  0  0  0
  142.3950   78.2470  216.4470 C   0  0  0  0  0  0  0  0  0  0  0  0
  142.1460   78.5240  217.7910 C   0  0  0  0  0  0  0  0  0  0  0  0
  142.3980   77.5520  218.7860 C   0  0  0  0  0  0  0  0  0  0  0  0
  142.1400   77.8260  220.2520 C   0  0  1  0  0  0  0  0  0  0  0  0
  141.9490   79.2850  220.6150 C   0  0  0  0  0  0  0  0  0  0  0  0
  141.4710   80.3180  219.8040 C   0  0  0  0  0  0  0  0  0  0  0  0
  141.3690   81.4670  220.5090 N   0  0  0  0  0  0  0  0  0  0  0  0
  141.7560   81.1730  221.7600 C   0  0  0  0  0  0  0  0  0  0  0  0
  141.7990   82.0340  222.8560 C   0  0  0  0  0  0  0  0  0  0  0  0
  142.2160   81.5070  224.0920 C   0  0  0  0  0  0  0  0  0  0  0  0
  142.5710   80.1450  224.2040 C   0  0  0  0  0  0  0  0  0  0  0  0
  142.5150   79.2980  223.0820 C   0  0  0  0  0  0  0  0  0  0  0  0
  142.1060   79.8520  221.8680 C   0  0  0  0  0  0  0  0  0  0  0  0
  139.3013   79.2127  219.0206 H   0  0  0  0  0  0  0  0  0  0  0  0
  137.7174   78.4027  219.3119 H   0  0  0  0  0  0  0  0  0  0  0  0
  139.2192   77.3429  222.0996 H   0  0  0  0  0  0  0  0  0  0  0  0
  139.1467   78.3935  224.3617 H   0  0  0  0  0  0  0  0  0  0  0  0
  138.5708   80.8113  224.6011 H   0  0  0  0  0  0  0  0  0  0  0  0
  138.0709   82.1828  222.5781 H   0  0  0  0  0  0  0  0  0  0  0  0
  138.1418   81.1411  220.3097 H   0  0  0  0  0  0  0  0  0  0  0  0
  141.7566   75.8192  222.3051 H   0  0  0  0  0  0  0  0  0  0  0  0
  140.5122   75.0558  221.1519 H   0  0  0  0  0  0  0  0  0  0  0  0
  142.8739   74.0244  221.0557 H   0  0  0  0  0  0  0  0  0  0  0  0
  143.8439   74.4225  219.0351 H   0  0  0  0  0  0  0  0  0  0  0  0
  143.5043   75.0399  216.7293 H   0  0  0  0  0  0  0  0  0  0  0  0
  143.0963   76.7909  215.0121 H   0  0  0  0  0  0  0  0  0  0  0  0
  142.2026   79.0149  215.6833 H   0  0  0  0  0  0  0  0  0  0  0  0
  141.7496   79.5086  218.0797 H   0  0  0  0  0  0  0  0  0  0  0  0
  143.0696   77.5386  220.7650 H   0  0  0  0  0  0  0  0  0  0  0  0
  141.2135   80.2110  218.7399 H   0  0  0  0  0  0  0  0  0  0  0  0
  141.0350   82.3910  220.1520 H   0  0  0  0  0  0  0  0  0  0  0  0
  141.5157   83.0923  222.7573 H   0  0  0  0  0  0  0  0  0  0  0  0
  142.2658   82.1597  224.9760 H   0  0  0  0  0  0  0  0  0  0  0  0
  142.8938   79.7431  225.1758 H   0  0  0  0  0  0  0  0  0  0  0  0
  142.7846   78.2343  223.1590 H   0  0  0  0  0  0  0  0  0  0  0  0
  1  2  2  0
  2  3  2  0
  2  4  1  0
  4  5  1  0
  5  6  2  0
  6  7  1  0
  7  8  2  0
  8  9  1  0
  9 10  2  0
  2 11  1  0
 11 12  1  0
 12 13  1  0
 13 14  2  0
 14 15  1  0
 15 16  2  0
 16 17  1  0
 17 18  2  0
 18 19  1  0
 19 20  2  0
 20 21  1  0
 21 22  1  0
 22 23  2  0
 23 24  1  0
 24 25  1  0
 25 26  2  0
 26 27  1  0
 27 28  2  0
 28 29  1  0
 29 30  2  0
 10  5  1  0
 21 11  1  0
 30 22  1  0
 20 15  1  0
 30 25  1  0
  4 31  1  0
  4 32  1  0
  6 33  1  0
  7 34  1  0
  8 35  1  0
  9 36  1  0
 10 37  1  0
 12 38  1  0
 12 39  1  0
 13 40  1  0
 14 41  1  0
 16 42  1  0
 17 43  1  0
 18 44  1  0
 19 45  1  0
 21 46  1  1
 23 47  1  0
 24 48  1  0
 26 49  1  0
 27 50  1  0
 28 51  1  0
 29 52  1  0
M  END
>  <UniqueID>  (16) 
2

>  <SMILES>  (16) 
O=S(=O)(Cc1ccccc1)N1CC=Cc2ccccc2[C@H]1c1c[nH]c2ccccc12

>  <Energy>  (16) 
102.34645035051338

>  <Genealogy>  (16) 
O=S(=O)(Cc1ccccc1)N1CC=Cc2ccccc2[C@H]1c1c[nH]c2ccccc12 (3D coordinates assigned)
O=S(=O)(Cc1ccccc1)N1CC=Cc2ccccc2[C@H]1c1c[nH]c2ccccc12 (nonaromatic ring conformer: 102.34645035051338 kcal/mol)

>  <smiles>  (16) 
O=S(=O)(Cc1ccccc1)N1CC=Cc2ccccc2[C@H]1c1c[nH]c2ccccc12

>  <score_type>  (16) 
oracle

>  <origin>  (16) 
autodockgpu

>  <m_score__min__energy>  (16) 
-6.2800000000000002

>  <m_primary>  (16) 
energy

>  <meeko>  (16) 
{"free_energy": -4.44, "intermolecular_energy": -7.12, "internal_energy": -2.86, "cluster_size": 1, "cluster_id": 8, "rank_in_cluster": 1}

>  <energy>  (16) 
-4.63

>  <cluster_rmsd>  (16) 
0.43

>  <rmsd>  (16) 
269.11

>  <cluster>  (16) 
5

$$$$
GKGZHBJKEIVYHI-VWLOTQADNA-N
     RDKit          3D

 52 56  0  0  0  0  0  0  0  0999 V2000
  138.8990   82.5040  221.9370 O   0  0  0  0  0  0  0  0  0  0  0  0
  139.3950   81.1300  221.5800 S   0  0  0  0  0  0  0  0  0  0  0  0
  138.9860   80.8330  220.1630 O   0  0  0  0  0  0  0  0  0  0  0  0
  138.6100   79.9390  222.6630 C   0  0  0  0  0  0  0  0  0  0  0  0
  137.6590   80.6310  223.5970 C   0  0  0  0  0  0  0  0  0  0  0  0
  136.3560   80.9500  223.1760 C   0  0  0  0  0  0  0  0  0  0  0  0
  135.4630   81.5650  224.0570 C   0  0  0  0  0  0  0  0  0  0  0  0
  135.8590   81.8590  225.3650 C   0  0  0  0  0  0  0  0  0  0  0  0
  137.1480   81.5350  225.7950 C   0  0  0  0  0  0  0  0  0  0  0  0
  138.0460   80.9190  224.9160 C   0  0  0  0  0  0  0  0  0  0  0  0
  141.1480   81.1300  221.7200 N   0  0  0  0  0  0  0  0  0  0  0  0
  141.6210   81.3550  223.0960 C   0  0  0  0  0  0  0  0  0  0  0  0
  141.9160   80.1340  223.9490 C   0  0  0  0  0  0  0  0  0  0  0  0
  141.8540   78.8230  223.6530 C   0  0  0  0  0  0  0  0  0  0  0  0
  141.2570   78.1640  222.4640 C   0  0  0  0  0  0  0  0  0  0  0  0
  140.6970   76.8870  222.6510 C   0  0  0  0  0  0  0  0  0  0  0  0
  140.0890   76.2110  221.5940 C   0  0  0  0  0  0  0  0  0  0  0  0
  140.0350   76.7950  220.3330 C   0  0  0  0  0  0  0  0  0  0  0  0
  140.6050   78.0490  220.1190 C   0  0  0  0  0  0  0  0  0  0  0  0
  141.2520   78.7370  221.1710 C   0  0  0  0  0  0  0  0  0  0  0  0
  141.8820   80.0970  220.9650 C   0  0  1  0  0  0  0  0  0  0  0  0
  142.0830   80.5080  219.5200 C   0  0  0  0  0  0  0  0  0  0  0  0
  142.5300   79.7200  218.4570 C   0  0  0  0  0  0  0  0  0  0  0  0
  142.5050   80.4220  217.3010 N   0  0  0  0  0  0  0  0  0  0  0  0
  142.0300   81.6380  217.6140 C   0  0  0  0  0  0  0  0  0  0  0  0
  141.8020   82.7050  216.7460 C   0  0  0  0  0  0  0  0  0  0  0  0
  141.2720   83.8910  217.2860 C   0  0  0  0  0  0  0  0  0  0  0  0
  140.9790   83.9800  218.6650 C   0  0  0  0  0  0  0  0  0  0  0  0
  141.2160   82.8860  219.5170 C   0  0  0  0  0  0  0  0  0  0  0  0
  141.7510   81.7260  218.9540 C   0  0  0  0  0  0  0  0  0  0  0  0
  138.0554   79.2076  222.0567 H   0  0  0  0  0  0  0  0  0  0  0  0
  139.3843   79.4285  223.2544 H   0  0  0  0  0  0  0  0  0  0  0  0
  136.0386   80.7145  222.1494 H   0  0  0  0  0  0  0  0  0  0  0  0
  134.4467   81.8183  223.7209 H   0  0  0  0  0  0  0  0  0  0  0  0
  135.1551   82.3458  226.0561 H   0  0  0  0  0  0  0  0  0  0  0  0
  137.4574   81.7643  226.8254 H   0  0  0  0  0  0  0  0  0  0  0  0
  139.0583   80.6595  225.2593 H   0  0  0  0  0  0  0  0  0  0  0  0
  142.5482   81.9434  223.0326 H   0  0  0  0  0  0  0  0  0  0  0  0
  140.7795   81.8510  223.6018 H   0  0  0  0  0  0  0  0  0  0  0  0
  142.2325   80.3582  224.9784 H   0  0  0  0  0  0  0  0  0  0  0  0
  142.3075   78.1471  224.3929 H   0  0  0  0  0  0  0  0  0  0  0  0
  140.7394   76.4158  223.6440 H   0  0  0  0  0  0  0  0  0  0  0  0
  139.6517   75.2150  221.7576 H   0  0  0  0  0  0  0  0  0  0  0  0
  139.5420   76.2668  219.5036 H   0  0  0  0  0  0  0  0  0  0  0  0
  140.5508   78.5082  219.1209 H   0  0  0  0  0  0  0  0  0  0  0  0
  142.9027   80.0022  221.3639 H   0  0  0  0  0  0  0  0  0  0  0  0
  142.8570   78.6736  218.5473 H   0  0  0  0  0  0  0  0  0  0  0  0
  142.7810   80.0760  216.3550 H   0  0  0  0  0  0  0  0  0  0  0  0
  142.0293   82.6221  215.6729 H   0  0  0  0  0  0  0  0  0  0  0  0
  141.0846   84.7542  216.6305 H   0  0  0  0  0  0  0  0  0  0  0  0
  140.5625   84.9116  219.0756 H   0  0  0  0  0  0  0  0  0  0  0  0
  140.9873   82.9427  220.5915 H   0  0  0  0  0  0  0  0  0  0  0  0
  1  2  2  0
  2  3  2  0
  2  4  1  0
  4  5  1  0
  5  6  2  0
  6  7  1  0
  7  8  2  0
  8  9  1  0
  9 10  2  0
  2 11  1  0
 11 12  1  0
 12 13  1  0
 13 14  2  0
 14 15  1  0
 15 16  2  0
 16 17  1  0
 17 18  2  0
 18 19  1  0
 19 20  2  0
 20 21  1  0
 21 22  1  0
 22 23  2  0
 23 24  1  0
 24 25  1  0
 25 26  2  0
 26 27  1  0
 27 28  2  0
 28 29  1  0
 29 30  2  0
 10  5  1  0
 21 11  1  0
 30 22  1  0
 20 15  1  0
 30 25  1  0
  4 31  1  0
  4 32  1  0
  6 33  1  0
  7 34  1  0
  8 35  1  0
  9 36  1  0
 10 37  1  0
 12 38  1  0
 12 39  1  0
 13 40  1  0
 14 41  1  0
 16 42  1  0
 17 43  1  0
 18 44  1  0
 19 45  1  0
 21 46  1  1
 23 47  1  0
 24 48  1  0
 26 49  1  0
 27 50  1  0
 28 51  1  0
 29 52  1  0
M  END
>  <UniqueID>  (17) 
2

>  <SMILES>  (17) 
O=S(=O)(Cc1ccccc1)N1CC=Cc2ccccc2[C@H]1c1c[nH]c2ccccc12

>  <Energy>  (17) 
102.34645035051338

>  <Genealogy>  (17) 
O=S(=O)(Cc1ccccc1)N1CC=Cc2ccccc2[C@H]1c1c[nH]c2ccccc12 (3D coordinates assigned)
O=S(=O)(Cc1ccccc1)N1CC=Cc2ccccc2[C@H]1c1c[nH]c2ccccc12 (nonaromatic ring conformer: 102.34645035051338 kcal/mol)

>  <smiles>  (17) 
O=S(=O)(Cc1ccccc1)N1CC=Cc2ccccc2[C@H]1c1c[nH]c2ccccc12

>  <score_type>  (17) 
oracle

>  <origin>  (17) 
autodockgpu

>  <m_score__min__energy>  (17) 
-6.2800000000000002

>  <m_primary>  (17) 
energy

>  <meeko>  (17) 
{"free_energy": -5.59, "intermolecular_energy": -8.27, "internal_energy": -2.46, "cluster_size": 3, "cluster_id": 3, "rank_in_cluster": 1}

>  <energy>  (17) 
-4.8

>  <cluster_rmsd>  (17) 
0.0

>  <rmsd>  (17) 
269.4

>  <cluster>  (17) 
6

$$$$
GKGZHBJKEIVYHI-VWLOTQADNA-N
     RDKit          3D

 52 56  0  0  0  0  0  0  0  0999 V2000
  138.7540   78.5460  222.9510 O   0  0  0  0  0  0  0  0  0  0  0  0
  138.3250   79.0750  221.6100 S   0  0  0  0  0  0  0  0  0  0  0  0
  138.3800   80.5770  221.6550 O   0  0  0  0  0  0  0  0  0  0  0  0
  136.6320   78.5730  221.3120 C   0  0  0  0  0  0  0  0  0  0  0  0
  136.4260   77.1490  221.7420 C   0  0  0  0  0  0  0  0  0  0  0  0
  136.4450   76.1110  220.7930 C   0  0  0  0  0  0  0  0  0  0  0  0
  136.2850   74.7840  221.2000 C   0  0  0  0  0  0  0  0  0  0  0  0
  136.1130   74.4820  222.5540 C   0  0  0  0  0  0  0  0  0  0  0  0
  136.1040   75.5060  223.5030 C   0  0  0  0  0  0  0  0  0  0  0  0
  136.2640   76.8360  223.1010 C   0  0  0  0  0  0  0  0  0  0  0  0
  139.4430   78.4610  220.3990 N   0  0  0  0  0  0  0  0  0  0  0  0
  139.5620   79.3360  219.2210 C   0  0  0  0  0  0  0  0  0  0  0  0
  140.7720   80.2510  219.1420 C   0  0  0  0  0  0  0  0  0  0  0  0
  141.6920   80.5750  220.0720 C   0  0  0  0  0  0  0  0  0  0  0  0
  141.8170   80.0810  221.4660 C   0  0  0  0  0  0  0  0  0  0  0  0
  142.4490   80.9290  222.3930 C   0  0  0  0  0  0  0  0  0  0  0  0
  142.5820   80.5550  223.7300 C   0  0  0  0  0  0  0  0  0  0  0  0
  142.0900   79.3280  224.1620 C   0  0  0  0  0  0  0  0  0  0  0  0
  141.4810   78.4610  223.2560 C   0  0  0  0  0  0  0  0  0  0  0  0
  141.3650   78.8100  221.8910 C   0  0  0  0  0  0  0  0  0  0  0  0
  140.7110   77.8860  220.8850 C   0  0  1  0  0  0  0  0  0  0  0  0
  140.5300   76.4530  221.3420 C   0  0  0  0  0  0  0  0  0  0  0  0
  139.4740   75.9130  222.0810 C   0  0  0  0  0  0  0  0  0  0  0  0
  139.6300   74.5780  222.2270 N   0  0  0  0  0  0  0  0  0  0  0  0
  140.7590   74.2610  221.5740 C   0  0  0  0  0  0  0  0  0  0  0  0
  141.3210   72.9930  221.4250 C   0  0  0  0  0  0  0  0  0  0  0  0
  142.5050   72.8830  220.6730 C   0  0  0  0  0  0  0  0  0  0  0  0
  143.0900   74.0280  220.0890 C   0  0  0  0  0  0  0  0  0  0  0  0
  142.4990   75.2940  220.2530 C   0  0  0  0  0  0  0  0  0  0  0  0
  141.3300   75.3730  221.0120 C   0  0  0  0  0  0  0  0  0  0  0  0
  135.9545   79.2256  221.8822 H   0  0  0  0  0  0  0  0  0  0  0  0
  136.4189   78.6557  220.2360 H   0  0  0  0  0  0  0  0  0  0  0  0
  136.5862   76.3446  219.7274 H   0  0  0  0  0  0  0  0  0  0  0  0
  136.2944   73.9758  220.4539 H   0  0  0  0  0  0  0  0  0  0  0  0
  135.9847   73.4368  222.8720 H   0  0  0  0  0  0  0  0  0  0  0  0
  135.9709   75.2664  224.5683 H   0  0  0  0  0  0  0  0  0  0  0  0
  136.2629   77.6396  223.8522 H   0  0  0  0  0  0  0  0  0  0  0  0
  139.5803   78.6891  218.3315 H   0  0  0  0  0  0  0  0  0  0  0  0
  138.7015   80.0175  219.2921 H   0  0  0  0  0  0  0  0  0  0  0  0
  140.9223   80.7287  218.1626 H   0  0  0  0  0  0  0  0  0  0  0  0
  142.4527   81.3037  219.7553 H   0  0  0  0  0  0  0  0  0  0  0  0
  142.8436   81.9000  222.0592 H   0  0  0  0  0  0  0  0  0  0  0  0
  143.0764   81.2309  224.4433 H   0  0  0  0  0  0  0  0  0  0  0  0
  142.1815   79.0413  225.2200 H   0  0  0  0  0  0  0  0  0  0  0  0
  141.0868   77.4958  223.6067 H   0  0  0  0  0  0  0  0  0  0  0  0
  141.4269   77.8152  220.0529 H   0  0  0  0  0  0  0  0  0  0  0  0
  138.6327   76.4935  222.4875 H   0  0  0  0  0  0  0  0  0  0  0  0
  138.9870   73.9260  222.7300 H   0  0  0  0  0  0  0  0  0  0  0  0
  140.8536   72.1077  221.8807 H   0  0  0  0  0  0  0  0  0  0  0  0
  142.9780   71.8990  220.5391 H   0  0  0  0  0  0  0  0  0  0  0  0
  144.0147   73.9292  219.5015 H   0  0  0  0  0  0  0  0  0  0  0  0
  142.9432   76.1918  219.7983 H   0  0  0  0  0  0  0  0  0  0  0  0
  1  2  2  0
  2  3  2  0
  2  4  1  0
  4  5  1  0
  5  6  2  0
  6  7  1  0
  7  8  2  0
  8  9  1  0
  9 10  2  0
  2 11  1  0
 11 12  1  0
 12 13  1  0
 13 14  2  0
 14 15  1  0
 15 16  2  0
 16 17  1  0
 17 18  2  0
 18 19  1  0
 19 20  2  0
 20 21  1  0
 21 22  1  0
 22 23  2  0
 23 24  1  0
 24 25  1  0
 25 26  2  0
 26 27  1  0
 27 28  2  0
 28 29  1  0
 29 30  2  0
 10  5  1  0
 21 11  1  0
 30 22  1  0
 20 15  1  0
 30 25  1  0
  4 31  1  0
  4 32  1  0
  6 33  1  0
  7 34  1  0
  8 35  1  0
  9 36  1  0
 10 37  1  0
 12 38  1  0
 12 39  1  0
 13 40  1  0
 14 41  1  0
 16 42  1  0
 17 43  1  0
 18 44  1  0
 19 45  1  0
 21 46  1  6
 23 47  1  0
 24 48  1  0
 26 49  1  0
 27 50  1  0
 28 51  1  0
 29 52  1  0
M  END
>  <UniqueID>  (18) 
2

>  <SMILES>  (18) 
O=S(=O)(Cc1ccccc1)N1CC=Cc2ccccc2[C@H]1c1c[nH]c2ccccc12

>  <Energy>  (18) 
102.34645035051338

>  <Genealogy>  (18) 
O=S(=O)(Cc1ccccc1)N1CC=Cc2ccccc2[C@H]1c1c[nH]c2ccccc12 (3D coordinates assigned)
O=S(=O)(Cc1ccccc1)N1CC=Cc2ccccc2[C@H]1c1c[nH]c2ccccc12 (nonaromatic ring conformer: 102.34645035051338 kcal/mol)

>  <smiles>  (18) 
O=S(=O)(Cc1ccccc1)N1CC=Cc2ccccc2[C@H]1c1c[nH]c2ccccc12

>  <score_type>  (18) 
oracle

>  <origin>  (18) 
autodockgpu

>  <m_score__min__energy>  (18) 
-6.2800000000000002

>  <m_primary>  (18) 
energy

>  <meeko>  (18) 
{"free_energy": -4.8, "intermolecular_energy": -7.49, "internal_energy": -2.7, "cluster_size": 1, "cluster_id": 6, "rank_in_cluster": 1}

>  <energy>  (18) 
-4.79

>  <cluster_rmsd>  (18) 
0.0

>  <rmsd>  (18) 
269.99

>  <cluster>  (18) 
7

$$$$
GKGZHBJKEIVYHI-VWLOTQADNA-N
     RDKit          3D

 52 56  0  0  0  0  0  0  0  0999 V2000
  141.0420   74.6860  222.1540 O   0  0  0  0  0  0  0  0  0  0  0  0
  140.4430   75.1450  220.8530 S   0  0  0  0  0  0  0  0  0  0  0  0
  139.0460   74.5960  220.7560 O   0  0  0  0  0  0  0  0  0  0  0  0
  141.4160   74.4750  219.5070 C   0  0  0  0  0  0  0  0  0  0  0  0
  142.7590   74.0250  220.0070 C   0  0  0  0  0  0  0  0  0  0  0  0
  142.9660   72.6860  220.3800 C   0  0  0  0  0  0  0  0  0  0  0  0
  144.2250   72.2630  220.8160 C   0  0  0  0  0  0  0  0  0  0  0  0
  145.2870   73.1710  220.8750 C   0  0  0  0  0  0  0  0  0  0  0  0
  145.0920   74.5010  220.4950 C   0  0  0  0  0  0  0  0  0  0  0  0
  143.8340   74.9280  220.0590 C   0  0  0  0  0  0  0  0  0  0  0  0
  140.4060   76.9030  220.8600 N   0  0  0  0  0  0  0  0  0  0  0  0
  139.6990   77.4750  219.7020 C   0  0  0  0  0  0  0  0  0  0  0  0
  139.5730   78.9870  219.6270 C   0  0  0  0  0  0  0  0  0  0  0  0
  140.1410   79.9510  220.3730 C   0  0  0  0  0  0  0  0  0  0  0  0
  141.0790   79.8190  221.5160 C   0  0  0  0  0  0  0  0  0  0  0  0
  142.0000   80.8630  221.7150 C   0  0  0  0  0  0  0  0  0  0  0  0
  142.8960   80.8350  222.7820 C   0  0  0  0  0  0  0  0  0  0  0  0
  142.8900   79.7620  223.6670 C   0  0  0  0  0  0  0  0  0  0  0  0
  142.0020   78.7040  223.4760 C   0  0  0  0  0  0  0  0  0  0  0  0
  141.1070   78.7010  222.3820 C   0  0  0  0  0  0  0  0  0  0  0  0
  140.1350   77.5650  222.1490 C   0  0  1  0  0  0  0  0  0  0  0  0
  138.6700   77.9250  222.2880 C   0  0  0  0  0  0  0  0  0  0  0  0
  137.5670   77.2700  221.7350 C   0  0  0  0  0  0  0  0  0  0  0  0
  136.4150   77.8450  222.1480 N   0  0  0  0  0  0  0  0  0  0  0  0
  136.7720   78.8440  222.9720 C   0  0  0  0  0  0  0  0  0  0  0  0
  135.9270   79.7110  223.6640 C   0  0  0  0  0  0  0  0  0  0  0  0
  136.5170   80.6760  224.5000 C   0  0  0  0  0  0  0  0  0  0  0  0
  137.9210   80.7490  224.6280 C   0  0  0  0  0  0  0  0  0  0  0  0
  138.7490   79.8590  223.9200 C   0  0  0  0  0  0  0  0  0  0  0  0
  138.1360   78.9170  223.0920 C   0  0  0  0  0  0  0  0  0  0  0  0
  140.8860   73.6166  219.0685 H   0  0  0  0  0  0  0  0  0  0  0  0
  141.5612   75.2570  218.7471 H   0  0  0  0  0  0  0  0  0  0  0  0
  142.1342   71.9681  220.3287 H   0  0  0  0  0  0  0  0  0  0  0  0
  144.3805   71.2153  221.1128 H   0  0  0  0  0  0  0  0  0  0  0  0
  146.2766   72.8376  221.2209 H   0  0  0  0  0  0  0  0  0  0  0  0
  145.9291   75.2132  220.5388 H   0  0  0  0  0  0  0  0  0  0  0  0
  143.6855   75.9748  219.7556 H   0  0  0  0  0  0  0  0  0  0  0  0
  140.2299   77.1444  218.7971 H   0  0  0  0  0  0  0  0  0  0  0  0
  138.6645   77.1148  219.8026 H   0  0  0  0  0  0  0  0  0  0  0  0
  138.9076   79.3537  218.8315 H   0  0  0  0  0  0  0  0  0  0  0  0
  139.8730   80.9817  220.0977 H   0  0  0  0  0  0  0  0  0  0  0  0
  142.0133   81.7141  221.0183 H   0  0  0  0  0  0  0  0  0  0  0  0
  143.6079   81.6614  222.9243 H   0  0  0  0  0  0  0  0  0  0  0  0
  143.5864   79.7480  224.5184 H   0  0  0  0  0  0  0  0  0  0  0  0
  141.9980   77.8625  224.1844 H   0  0  0  0  0  0  0  0  0  0  0  0
  140.3193   76.8589  222.9721 H   0  0  0  0  0  0  0  0  0  0  0  0
  137.6273   76.4058  221.0572 H   0  0  0  0  0  0  0  0  0  0  0  0
  135.4450   77.5550  221.8920 H   0  0  0  0  0  0  0  0  0  0  0  0
  134.8341   79.6424  223.5594 H   0  0  0  0  0  0  0  0  0  0  0  0
  135.8802   81.3785  225.0578 H   0  0  0  0  0  0  0  0  0  0  0  0
  138.3707   81.5072  225.2860 H   0  0  0  0  0  0  0  0  0  0  0  0
  139.8439   79.9039  224.0157 H   0  0  0  0  0  0  0  0  0  0  0  0
  1  2  2  0
  2  3  2  0
  2  4  1  0
  4  5  1  0
  5  6  2  0
  6  7  1  0
  7  8  2  0
  8  9  1  0
  9 10  2  0
  2 11  1  0
 11 12  1  0
 12 13  1  0
 13 14  2  0
 14 15  1  0
 15 16  2  0
 16 17  1  0
 17 18  2  0
 18 19  1  0
 19 20  2  0
 20 21  1  0
 21 22  1  0
 22 23  2  0
 23 24  1  0
 24 25  1  0
 25 26  2  0
 26 27  1  0
 27 28  2  0
 28 29  1  0
 29 30  2  0
 10  5  1  0
 21 11  1  0
 30 22  1  0
 20 15  1  0
 30 25  1  0
  4 31  1  0
  4 32  1  0
  6 33  1  0
  7 34  1  0
  8 35  1  0
  9 36  1  0
 10 37  1  0
 12 38  1  0
 12 39  1  0
 13 40  1  0
 14 41  1  0
 16 42  1  0
 17 43  1  0
 18 44  1  0
 19 45  1  0
 21 46  1  1
 23 47  1  0
 24 48  1  0
 26 49  1  0
 27 50  1  0
 28 51  1  0
 29 52  1  0
M  END
>  <UniqueID>  (19) 
2

>  <SMILES>  (19) 
O=S(=O)(Cc1ccccc1)N1CC=Cc2ccccc2[C@H]1c1c[nH]c2ccccc12

>  <Energy>  (19) 
102.34645035051338

>  <Genealogy>  (19) 
O=S(=O)(Cc1ccccc1)N1CC=Cc2ccccc2[C@H]1c1c[nH]c2ccccc12 (3D coordinates assigned)
O=S(=O)(Cc1ccccc1)N1CC=Cc2ccccc2[C@H]1c1c[nH]c2ccccc12 (nonaromatic ring conformer: 102.34645035051338 kcal/mol)

>  <smiles>  (19) 
O=S(=O)(Cc1ccccc1)N1CC=Cc2ccccc2[C@H]1c1c[nH]c2ccccc12

>  <score_type>  (19) 
oracle

>  <origin>  (19) 
autodockgpu

>  <m_score__min__energy>  (19) 
-6.2800000000000002

>  <m_primary>  (19) 
energy

>  <meeko>  (19) 
{"free_energy": -5.87, "intermolecular_energy": -8.55, "internal_energy": -1.87, "cluster_size": 2, "cluster_id": 1, "rank_in_cluster": 2}

>  <energy>  (19) 
-4.44

>  <cluster_rmsd>  (19) 
0.0

>  <rmsd>  (19) 
269.59

>  <cluster>  (19) 
8

$$$$
GKGZHBJKEIVYHI-VWLOTQADNA-N
     RDKit          3D

 52 56  0  0  0  0  0  0  0  0999 V2000
  138.6040   77.5890  222.6510 O   0  0  0  0  0  0  0  0  0  0  0  0
  139.7700   76.8040  222.1170 S   0  0  0  0  0  0  0  0  0  0  0  0
  139.4880   75.3410  222.3200 O   0  0  0  0  0  0  0  0  0  0  0  0
  141.2320   77.2400  223.0550 C   0  0  0  0  0  0  0  0  0  0  0  0
  141.3810   78.7330  223.1240 C   0  0  0  0  0  0  0  0  0  0  0  0
  140.3660   79.5230  223.6910 C   0  0  0  0  0  0  0  0  0  0  0  0
  140.5210   80.9090  223.7820 C   0  0  0  0  0  0  0  0  0  0  0  0
  141.6910   81.5150  223.3160 C   0  0  0  0  0  0  0  0  0  0  0  0
  142.7100   80.7360  222.7620 C   0  0  0  0  0  0  0  0  0  0  0  0
  142.5590   79.3480  222.6680 C   0  0  0  0  0  0  0  0  0  0  0  0
  139.9270   77.1600  220.4020 N   0  0  0  0  0  0  0  0  0  0  0  0
  138.6580   77.5580  219.7720 C   0  0  0  0  0  0  0  0  0  0  0  0
  138.6940   77.9690  218.3100 C   0  0  0  0  0  0  0  0  0  0  0  0
  139.6610   77.8340  217.3850 C   0  0  0  0  0  0  0  0  0  0  0  0
  141.0330   77.2890  217.5440 C   0  0  0  0  0  0  0  0  0  0  0  0
  141.6200   76.6870  216.4170 C   0  0  0  0  0  0  0  0  0  0  0  0
  142.9160   76.1760  216.4710 C   0  0  0  0  0  0  0  0  0  0  0  0
  143.6450   76.2530  217.6520 C   0  0  0  0  0  0  0  0  0  0  0  0
  143.0750   76.8230  218.7900 C   0  0  0  0  0  0  0  0  0  0  0  0
  141.7510   77.3180  218.7620 C   0  0  0  0  0  0  0  0  0  0  0  0
  141.1070   77.9390  219.9830 C   0  0  1  0  0  0  0  0  0  0  0  0
  140.7820   79.4150  219.8660 C   0  0  0  0  0  0  0  0  0  0  0  0
  139.8440   80.1490  220.5960 C   0  0  0  0  0  0  0  0  0  0  0  0
  139.8970   81.4580  220.2590 N   0  0  0  0  0  0  0  0  0  0  0  0
  140.8710   81.5660  219.3400 C   0  0  0  0  0  0  0  0  0  0  0  0
  141.3110   82.7290  218.7100 C   0  0  0  0  0  0  0  0  0  0  0  0
  142.3700   82.6180  217.7900 C   0  0  0  0  0  0  0  0  0  0  0  0
  142.9610   81.3630  217.5280 C   0  0  0  0  0  0  0  0  0  0  0  0
  142.4980   80.2060  218.1810 C   0  0  0  0  0  0  0  0  0  0  0  0
  141.4400   80.3460  219.0820 C   0  0  0  0  0  0  0  0  0  0  0  0
  141.1427   76.8367  224.0745 H   0  0  0  0  0  0  0  0  0  0  0  0
  142.1162   76.8147  222.5577 H   0  0  0  0  0  0  0  0  0  0  0  0
  139.4464   79.0487  224.0644 H   0  0  0  0  0  0  0  0  0  0  0  0
  139.7212   81.5236  224.2209 H   0  0  0  0  0  0  0  0  0  0  0  0
  141.8097   82.6064  223.3855 H   0  0  0  0  0  0  0  0  0  0  0  0
  143.6319   81.2142  222.3994 H   0  0  0  0  0  0  0  0  0  0  0  0
  143.3649   78.7367  222.2359 H   0  0  0  0  0  0  0  0  0  0  0  0
  137.9676   76.7058  219.8568 H   0  0  0  0  0  0  0  0  0  0  0  0
  138.3543   78.4685  220.3094 H   0  0  0  0  0  0  0  0  0  0  0  0
  137.7775   78.4579  217.9480 H   0  0  0  0  0  0  0  0  0  0  0  0
  139.3997   78.1739  216.3720 H   0  0  0  0  0  0  0  0  0  0  0  0
  141.0486   76.6183  215.4796 H   0  0  0  0  0  0  0  0  0  0  0  0
  143.3617   75.7118  215.5789 H   0  0  0  0  0  0  0  0  0  0  0  0
  144.6732   75.8637  217.6890 H   0  0  0  0  0  0  0  0  0  0  0  0
  143.6613   76.8881  219.7185 H   0  0  0  0  0  0  0  0  0  0  0  0
  141.8772   77.8930  220.7671 H   0  0  0  0  0  0  0  0  0  0  0  0
  139.1574   79.7217  221.3416 H   0  0  0  0  0  0  0  0  0  0  0  0
  139.3130   82.2280  220.6530 H   0  0  0  0  0  0  0  0  0  0  0  0
  140.8454   83.7021  218.9251 H   0  0  0  0  0  0  0  0  0  0  0  0
  142.7397   83.5150  217.2716 H   0  0  0  0  0  0  0  0  0  0  0  0
  143.7895   81.2892  216.8081 H   0  0  0  0  0  0  0  0  0  0  0  0
  142.9541   79.2237  217.9883 H   0  0  0  0  0  0  0  0  0  0  0  0
  1  2  2  0
  2  3  2  0
  2  4  1  0
  4  5  1  0
  5  6  2  0
  6  7  1  0
  7  8  2  0
  8  9  1  0
  9 10  2  0
  2 11  1  0
 11 12  1  0
 12 13  1  0
 13 14  2  0
 14 15  1  0
 15 16  2  0
 16 17  1  0
 17 18  2  0
 18 19  1  0
 19 20  2  0
 20 21  1  0
 21 22  1  0
 22 23  2  0
 23 24  1  0
 24 25  1  0
 25 26  2  0
 26 27  1  0
 27 28  2  0
 28 29  1  0
 29 30  2  0
 10  5  1  0
 21 11  1  0
 30 22  1  0
 20 15  1  0
 30 25  1  0
  4 31  1  0
  4 32  1  0
  6 33  1  0
  7 34  1  0
  8 35  1  0
  9 36  1  0
 10 37  1  0
 12 38  1  0
 12 39  1  0
 13 40  1  0
 14 41  1  0
 16 42  1  0
 17 43  1  0
 18 44  1  0
 19 45  1  0
 21 46  1  1
 23 47  1  0
 24 48  1  0
 26 49  1  0
 27 50  1  0
 28 51  1  0
 29 52  1  0
M  END
>  <UniqueID>  (20) 
2

>  <SMILES>  (20) 
O=S(=O)(Cc1ccccc1)N1CC=Cc2ccccc2[C@H]1c1c[nH]c2ccccc12

>  <Energy>  (20) 
102.34645035051338

>  <Genealogy>  (20) 
O=S(=O)(Cc1ccccc1)N1CC=Cc2ccccc2[C@H]1c1c[nH]c2ccccc12 (3D coordinates assigned)
O=S(=O)(Cc1ccccc1)N1CC=Cc2ccccc2[C@H]1c1c[nH]c2ccccc12 (nonaromatic ring conformer: 102.34645035051338 kcal/mol)

>  <smiles>  (20) 
O=S(=O)(Cc1ccccc1)N1CC=Cc2ccccc2[C@H]1c1c[nH]c2ccccc12

>  <score_type>  (20) 
oracle

>  <origin>  (20) 
autodockgpu

>  <m_score__min__energy>  (20) 
-6.2800000000000002

>  <m_primary>  (20) 
energy

>  <meeko>  (20) 
{"free_energy": -4.84, "intermolecular_energy": -7.53, "internal_energy": -2.72, "cluster_size": 4, "cluster_id": 5, "rank_in_cluster": 1}

>  <energy>  (20) 
-4.21

>  <cluster_rmsd>  (20) 
0.0

>  <rmsd>  (20) 
269.92

>  <cluster>  (20) 
9

$$$$
GKGZHBJKEIVYHI-VWLOTQADNA-N
     RDKit          3D

 52 56  0  0  0  0  0  0  0  0999 V2000
  138.7220   77.1350  219.8350 O   0  0  0  0  0  0  0  0  0  0  0  0
  138.8740   75.6600  220.0860 S   0  0  0  0  0  0  0  0  0  0  0  0
  139.5640   75.0470  218.8990 O   0  0  0  0  0  0  0  0  0  0  0  0
  137.2430   74.9340  220.2380 C   0  0  0  0  0  0  0  0  0  0  0  0
  136.6670   75.2250  221.5950 C   0  0  0  0  0  0  0  0  0  0  0  0
  136.3900   76.5480  221.9790 C   0  0  0  0  0  0  0  0  0  0  0  0
  135.8250   76.8140  223.2300 C   0  0  0  0  0  0  0  0  0  0  0  0
  135.5260   75.7620  224.1010 C   0  0  0  0  0  0  0  0  0  0  0  0
  135.7880   74.4440  223.7210 C   0  0  0  0  0  0  0  0  0  0  0  0
  136.3530   74.1730  222.4710 C   0  0  0  0  0  0  0  0  0  0  0  0
  139.8520   75.4510  221.5330 N   0  0  0  0  0  0  0  0  0  0  0  0
  140.1900   74.0450  221.8080 C   0  0  0  0  0  0  0  0  0  0  0  0
  141.5260   73.5280  221.3010 C   0  0  0  0  0  0  0  0  0  0  0  0
  142.5000   74.1460  220.6050 C   0  0  0  0  0  0  0  0  0  0  0  0
  142.4830   75.4870  219.9680 C   0  0  0  0  0  0  0  0  0  0  0  0
  143.2590   75.6570  218.8080 C   0  0  0  0  0  0  0  0  0  0  0  0
  143.2770   76.8750  218.1300 C   0  0  0  0  0  0  0  0  0  0  0  0
  142.5230   77.9450  218.6010 C   0  0  0  0  0  0  0  0  0  0  0  0
  141.7660   77.8070  219.7640 C   0  0  0  0  0  0  0  0  0  0  0  0
  141.7600   76.5890  220.4810 C   0  0  0  0  0  0  0  0  0  0  0  0
  140.9490   76.4140  221.7470 C   0  0  1  0  0  0  0  0  0  0  0  0
  140.4430   77.6960  222.3780 C   0  0  0  0  0  0  0  0  0  0  0  0
  139.1450   77.9930  222.7990 C   0  0  0  0  0  0  0  0  0  0  0  0
  139.1020   79.2120  223.3830 N   0  0  0  0  0  0  0  0  0  0  0  0
  140.3590   79.6830  223.3560 C   0  0  0  0  0  0  0  0  0  0  0  0
  140.8170   80.8970  223.8650 C   0  0  0  0  0  0  0  0  0  0  0  0
  142.1910   81.1820  223.7510 C   0  0  0  0  0  0  0  0  0  0  0  0
  143.0650   80.2540  223.1440 C   0  0  0  0  0  0  0  0  0  0  0  0
  142.5760   79.0350  222.6430 C   0  0  0  0  0  0  0  0  0  0  0  0
  141.2070   78.7840  222.7620 C   0  0  0  0  0  0  0  0  0  0  0  0
  136.5840   75.3573  219.4657 H   0  0  0  0  0  0  0  0  0  0  0  0
  137.3229   73.8445  220.1094 H   0  0  0  0  0  0  0  0  0  0  0  0
  136.6184   77.3771  221.2932 H   0  0  0  0  0  0  0  0  0  0  0  0
  135.6156   77.8516  223.5291 H   0  0  0  0  0  0  0  0  0  0  0  0
  135.0842   75.9726  225.0861 H   0  0  0  0  0  0  0  0  0  0  0  0
  135.5494   73.6174  224.4064 H   0  0  0  0  0  0  0  0  0  0  0  0
  136.5521   73.1330  222.1729 H   0  0  0  0  0  0  0  0  0  0  0  0
  140.1791   73.9119  222.8999 H   0  0  0  0  0  0  0  0  0  0  0  0
  139.4383   73.4645  221.2531 H   0  0  0  0  0  0  0  0  0  0  0  0
  141.7319   72.4747  221.5422 H   0  0  0  0  0  0  0  0  0  0  0  0
  143.4362   73.5794  220.4934 H   0  0  0  0  0  0  0  0  0  0  0  0
  143.8604   74.8171  218.4300 H   0  0  0  0  0  0  0  0  0  0  0  0
  143.8876   76.9900  217.2223 H   0  0  0  0  0  0  0  0  0  0  0  0
  142.5239   78.9004  218.0558 H   0  0  0  0  0  0  0  0  0  0  0  0
  141.1671   78.6552  220.1273 H   0  0  0  0  0  0  0  0  0  0  0  0
  141.6570   76.0105  222.4858 H   0  0  0  0  0  0  0  0  0  0  0  0
  138.2780   77.3278  222.6731 H   0  0  0  0  0  0  0  0  0  0  0  0
  138.2620   79.6790  223.7910 H   0  0  0  0  0  0  0  0  0  0  0  0
  140.1270   81.6096  224.3406 H   0  0  0  0  0  0  0  0  0  0  0  0
  142.5859   82.1333  224.1371 H   0  0  0  0  0  0  0  0  0  0  0  0
  144.1370   80.4867  223.0625 H   0  0  0  0  0  0  0  0  0  0  0  0
  143.2491   78.3030  222.1728 H   0  0  0  0  0  0  0  0  0  0  0  0
  1  2  2  0
  2  3  2  0
  2  4  1  0
  4  5  1  0
  5  6  2  0
  6  7  1  0
  7  8  2  0
  8  9  1  0
  9 10  2  0
  2 11  1  0
 11 12  1  0
 12 13  1  0
 13 14  2  0
 14 15  1  0
 15 16  2  0
 16 17  1  0
 17 18  2  0
 18 19  1  0
 19 20  2  0
 20 21  1  0
 21 22  1  0
 22 23  2  0
 23 24  1  0
 24 25  1  0
 25 26  2  0
 26 27  1  0
 27 28  2  0
 28 29  1  0
 29 30  2  0
 10  5  1  0
 21 11  1  0
 30 22  1  0
 20 15  1  0
 30 25  1  0
  4 31  1  0
  4 32  1  0
  6 33  1  0
  7 34  1  0
  8 35  1  0
  9 36  1  0
 10 37  1  0
 12 38  1  0
 12 39  1  0
 13 40  1  0
 14 41  1  0
 16 42  1  0
 17 43  1  0
 18 44  1  0
 19 45  1  0
 21 46  1  1
 23 47  1  0
 24 48  1  0
 26 49  1  0
 27 50  1  0
 28 51  1  0
 29 52  1  0
M  END
>  <UniqueID>  (21) 
3

>  <SMILES>  (21) 
O=S(=O)(Cc1ccccc1)N1CC=Cc2ccccc2[C@H]1c1c[nH]c2ccccc12

>  <Energy>  (21) 
108.43193218395871

>  <Genealogy>  (21) 
O=S(=O)(Cc1ccccc1)N1CC=Cc2ccccc2[C@H]1c1c[nH]c2ccccc12 (3D coordinates assigned)
O=S(=O)(Cc1ccccc1)N1CC=Cc2ccccc2[C@H]1c1c[nH]c2ccccc12 (nonaromatic ring conformer: 108.43193218395871 kcal/mol)

>  <smiles>  (21) 
O=S(=O)(Cc1ccccc1)N1CC=Cc2ccccc2[C@H]1c1c[nH]c2ccccc12

>  <score_type>  (21) 
oracle

>  <origin>  (21) 
autodockgpu

>  <m_score__min__energy>  (21) 
-6.2800000000000002

>  <m_primary>  (21) 
energy

>  <meeko>  (21) 
{"free_energy": -5.09, "intermolecular_energy": -7.77, "internal_energy": -2.73, "cluster_size": 2, "cluster_id": 4, "rank_in_cluster": 2}

>  <energy>  (21) 
-6.28

>  <cluster_rmsd>  (21) 
0.0

>  <rmsd>  (21) 
269.78

>  <cluster>  (21) 
1

$$$$
GKGZHBJKEIVYHI-VWLOTQADNA-N
     RDKit          3D

 52 56  0  0  0  0  0  0  0  0999 V2000
  138.5180   78.0750  222.3600 O   0  0  0  0  0  0  0  0  0  0  0  0
  139.5520   77.1330  221.8090 S   0  0  0  0  0  0  0  0  0  0  0  0
  139.0170   75.7310  221.9120 O   0  0  0  0  0  0  0  0  0  0  0  0
  141.0320   77.2560  222.8110 C   0  0  0  0  0  0  0  0  0  0  0  0
  141.3740   78.6970  223.0610 C   0  0  0  0  0  0  0  0  0  0  0  0
  142.6290   79.2040  222.6820 C   0  0  0  0  0  0  0  0  0  0  0  0
  142.9340   80.5530  222.8870 C   0  0  0  0  0  0  0  0  0  0  0  0
  141.9870   81.4050  223.4630 C   0  0  0  0  0  0  0  0  0  0  0  0
  140.7330   80.9110  223.8310 C   0  0  0  0  0  0  0  0  0  0  0  0
  140.4240   79.5620  223.6280 C   0  0  0  0  0  0  0  0  0  0  0  0
  139.8310   77.5550  220.1240 N   0  0  0  0  0  0  0  0  0  0  0  0
  138.6310   78.0730  219.4480 C   0  0  0  0  0  0  0  0  0  0  0  0
  138.7390   78.3970  217.9680 C   0  0  0  0  0  0  0  0  0  0  0  0
  139.7900   78.3300  217.1310 C   0  0  0  0  0  0  0  0  0  0  0  0
  141.1150   77.6970  217.3490 C   0  0  0  0  0  0  0  0  0  0  0  0
  141.7300   77.0960  216.2350 C   0  0  0  0  0  0  0  0  0  0  0  0
  142.9880   76.5050  216.3450 C   0  0  0  0  0  0  0  0  0  0  0  0
  143.6500   76.5000  217.5680 C   0  0  0  0  0  0  0  0  0  0  0  0
  143.0490   77.0680  218.6900 C   0  0  0  0  0  0  0  0  0  0  0  0
  141.7610   77.6440  218.6050 C   0  0  0  0  0  0  0  0  0  0  0  0
  141.0850   78.2650  219.8090 C   0  0  1  0  0  0  0  0  0  0  0  0
  140.8670   79.7630  219.7300 C   0  0  0  0  0  0  0  0  0  0  0  0
  139.9820   80.5430  220.4780 C   0  0  0  0  0  0  0  0  0  0  0  0
  140.1310   81.8530  220.1760 N   0  0  0  0  0  0  0  0  0  0  0  0
  141.1120   81.9150  219.2620 C   0  0  0  0  0  0  0  0  0  0  0  0
  141.6380   83.0600  218.6640 C   0  0  0  0  0  0  0  0  0  0  0  0
  142.6890   82.8970  217.7420 C   0  0  0  0  0  0  0  0  0  0  0  0
  143.1880   81.6090  217.4480 C   0  0  0  0  0  0  0  0  0  0  0  0
  142.6410   80.4720  218.0690 C   0  0  0  0  0  0  0  0  0  0  0  0
  141.5930   80.6640  218.9720 C   0  0  0  0  0  0  0  0  0  0  0  0
  140.8616   76.7512  223.7734 H   0  0  0  0  0  0  0  0  0  0  0  0
  141.8663   76.7777  222.2771 H   0  0  0  0  0  0  0  0  0  0  0  0
  143.3736   78.5373  222.2226 H   0  0  0  0  0  0  0  0  0  0  0  0
  143.9197   80.9442  222.5949 H   0  0  0  0  0  0  0  0  0  0  0  0
  142.2294   82.4654  223.6266 H   0  0  0  0  0  0  0  0  0  0  0  0
  139.9879   81.5837  224.2808 H   0  0  0  0  0  0  0  0  0  0  0  0
  139.4337   79.1774  223.9134 H   0  0  0  0  0  0  0  0  0  0  0  0
  137.8383   77.3190  219.5623 H   0  0  0  0  0  0  0  0  0  0  0  0
  138.4359   79.0417  219.9312 H   0  0  0  0  0  0  0  0  0  0  0  0
  137.8037   78.7435  217.5042 H   0  0  0  0  0  0  0  0  0  0  0  0
  139.6483   78.8097  216.1513 H   0  0  0  0  0  0  0  0  0  0  0  0
  141.2115   77.0925  215.2649 H   0  0  0  0  0  0  0  0  0  0  0  0
  143.4571   76.0425  215.4641 H   0  0  0  0  0  0  0  0  0  0  0  0
  144.6491   76.0472  217.6500 H   0  0  0  0  0  0  0  0  0  0  0  0
  143.5827   77.0680  219.6519 H   0  0  0  0  0  0  0  0  0  0  0  0
  141.7993   78.1388  220.6360 H   0  0  0  0  0  0  0  0  0  0  0  0
  139.2637   80.1469  221.2109 H   0  0  0  0  0  0  0  0  0  0  0  0
  139.6020   82.6530  220.5900 H   0  0  0  0  0  0  0  0  0  0  0  0
  141.2441   84.0584  218.9052 H   0  0  0  0  0  0  0  0  0  0  0  0
  143.1242   83.7780  217.2476 H   0  0  0  0  0  0  0  0  0  0  0  0
  144.0112   81.4942  216.7274 H   0  0  0  0  0  0  0  0  0  0  0  0
  143.0258   79.4649  217.8508 H   0  0  0  0  0  0  0  0  0  0  0  0
  1  2  2  0
  2  3  2  0
  2  4  1  0
  4  5  1  0
  5  6  2  0
  6  7  1  0
  7  8  2  0
  8  9  1  0
  9 10  2  0
  2 11  1  0
 11 12  1  0
 12 13  1  0
 13 14  2  0
 14 15  1  0
 15 16  2  0
 16 17  1  0
 17 18  2  0
 18 19  1  0
 19 20  2  0
 20 21  1  0
 21 22  1  0
 22 23  2  0
 23 24  1  0
 24 25  1  0
 25 26  2  0
 26 27  1  0
 27 28  2  0
 28 29  1  0
 29 30  2  0
 10  5  1  0
 21 11  1  0
 30 22  1  0
 20 15  1  0
 30 25  1  0
  4 31  1  0
  4 32  1  0
  6 33  1  0
  7 34  1  0
  8 35  1  0
  9 36  1  0
 10 37  1  0
 12 38  1  0
 12 39  1  0
 13 40  1  0
 14 41  1  0
 16 42  1  0
 17 43  1  0
 18 44  1  0
 19 45  1  0
 21 46  1  1
 23 47  1  0
 24 48  1  0
 26 49  1  0
 27 50  1  0
 28 51  1  0
 29 52  1  0
M  END
>  <UniqueID>  (22) 
3

>  <SMILES>  (22) 
O=S(=O)(Cc1ccccc1)N1CC=Cc2ccccc2[C@H]1c1c[nH]c2ccccc12

>  <Energy>  (22) 
108.43193218395871

>  <Genealogy>  (22) 
O=S(=O)(Cc1ccccc1)N1CC=Cc2ccccc2[C@H]1c1c[nH]c2ccccc12 (3D coordinates assigned)
O=S(=O)(Cc1ccccc1)N1CC=Cc2ccccc2[C@H]1c1c[nH]c2ccccc12 (nonaromatic ring conformer: 108.43193218395871 kcal/mol)

>  <smiles>  (22) 
O=S(=O)(Cc1ccccc1)N1CC=Cc2ccccc2[C@H]1c1c[nH]c2ccccc12

>  <score_type>  (22) 
oracle

>  <origin>  (22) 
autodockgpu

>  <m_score__min__energy>  (22) 
-6.2800000000000002

>  <m_primary>  (22) 
energy

>  <meeko>  (22) 
{"free_energy": -4.63, "intermolecular_energy": -7.31, "internal_energy": -2.78, "cluster_size": 4, "cluster_id": 5, "rank_in_cluster": 4}

>  <energy>  (22) 
-5.87

>  <cluster_rmsd>  (22) 
0.2

>  <rmsd>  (22) 
269.79

>  <cluster>  (22) 
1

$$$$
GKGZHBJKEIVYHI-VWLOTQADNA-N
     RDKit          3D

 52 56  0  0  0  0  0  0  0  0999 V2000
  138.6140   77.6320  222.6640 O   0  0  0  0  0  0  0  0  0  0  0  0
  139.7770   76.8470  222.1220 S   0  0  0  0  0  0  0  0  0  0  0  0
  139.4920   75.3840  222.3200 O   0  0  0  0  0  0  0  0  0  0  0  0
  141.2430   77.2760  223.0570 C   0  0  0  0  0  0  0  0  0  0  0  0
  141.4000   78.7680  223.1260 C   0  0  0  0  0  0  0  0  0  0  0  0
  140.3980   79.5610  223.7120 C   0  0  0  0  0  0  0  0  0  0  0  0
  140.5600   80.9460  223.8030 C   0  0  0  0  0  0  0  0  0  0  0  0
  141.7250   81.5490  223.3180 C   0  0  0  0  0  0  0  0  0  0  0  0
  142.7300   80.7670  222.7450 C   0  0  0  0  0  0  0  0  0  0  0  0
  142.5720   79.3790  222.6510 C   0  0  0  0  0  0  0  0  0  0  0  0
  139.9280   77.2110  220.4080 N   0  0  0  0  0  0  0  0  0  0  0  0
  138.6560   77.6090  219.7840 C   0  0  0  0  0  0  0  0  0  0  0  0
  138.6860   78.0220  218.3220 C   0  0  0  0  0  0  0  0  0  0  0  0
  139.6530   77.8950  217.3950 C   0  0  0  0  0  0  0  0  0  0  0  0
  141.0260   77.3530  217.5490 C   0  0  0  0  0  0  0  0  0  0  0  0
  141.6120   76.7570  216.4180 C   0  0  0  0  0  0  0  0  0  0  0  0
  142.9100   76.2490  216.4670 C   0  0  0  0  0  0  0  0  0  0  0  0
  143.6420   76.3240  217.6470 C   0  0  0  0  0  0  0  0  0  0  0  0
  143.0730   76.8880  218.7880 C   0  0  0  0  0  0  0  0  0  0  0  0
  141.7480   77.3800  218.7650 C   0  0  0  0  0  0  0  0  0  0  0  0
  141.1050   77.9950  219.9900 C   0  0  1  0  0  0  0  0  0  0  0  0
  140.7760   79.4700  219.8780 C   0  0  0  0  0  0  0  0  0  0  0  0
  139.8330   80.1980  220.6080 C   0  0  0  0  0  0  0  0  0  0  0  0
  139.8840   81.5080  220.2780 N   0  0  0  0  0  0  0  0  0  0  0  0
  140.8600   81.6240  219.3640 C   0  0  0  0  0  0  0  0  0  0  0  0
  141.2990   82.7920  218.7410 C   0  0  0  0  0  0  0  0  0  0  0  0
  142.3620   82.6890  217.8250 C   0  0  0  0  0  0  0  0  0  0  0  0
  142.9580   81.4360  217.5590 C   0  0  0  0  0  0  0  0  0  0  0  0
  142.4960   80.2750  218.2050 C   0  0  0  0  0  0  0  0  0  0  0  0
  141.4340   80.4070  219.1020 C   0  0  0  0  0  0  0  0  0  0  0  0
  141.1537   76.8731  224.0767 H   0  0  0  0  0  0  0  0  0  0  0  0
  142.1240   76.8465  222.5576 H   0  0  0  0  0  0  0  0  0  0  0  0
  139.4831   79.0896  224.1003 H   0  0  0  0  0  0  0  0  0  0  0  0
  139.7702   81.5628  224.2567 H   0  0  0  0  0  0  0  0  0  0  0  0
  141.8496   82.6397  223.3879 H   0  0  0  0  0  0  0  0  0  0  0  0
  143.6472   81.2422  222.3669 H   0  0  0  0  0  0  0  0  0  0  0  0
  143.3680   78.7654  222.2039 H   0  0  0  0  0  0  0  0  0  0  0  0
  137.9665   76.7563  219.8705 H   0  0  0  0  0  0  0  0  0  0  0  0
  138.3537   78.5184  220.3240 H   0  0  0  0  0  0  0  0  0  0  0  0
  137.7653   78.5044  217.9621 H   0  0  0  0  0  0  0  0  0  0  0  0
  139.3897   78.2403  216.3843 H   0  0  0  0  0  0  0  0  0  0  0  0
  141.0386   76.6906  215.4816 H   0  0  0  0  0  0  0  0  0  0  0  0
  143.3547   75.7890  215.5722 H   0  0  0  0  0  0  0  0  0  0  0  0
  144.6714   75.9378  217.6802 H   0  0  0  0  0  0  0  0  0  0  0  0
  143.6611   76.9508  219.7155 H   0  0  0  0  0  0  0  0  0  0  0  0
  141.8762   77.9486  220.7730 H   0  0  0  0  0  0  0  0  0  0  0  0
  139.1444   79.7652  221.3486 H   0  0  0  0  0  0  0  0  0  0  0  0
  139.2950   82.2750  220.6740 H   0  0  0  0  0  0  0  0  0  0  0  0
  140.8293   83.7625  218.9588 H   0  0  0  0  0  0  0  0  0  0  0  0
  142.7313   83.5897  217.3128 H   0  0  0  0  0  0  0  0  0  0  0  0
  143.7891   81.3678  216.8417 H   0  0  0  0  0  0  0  0  0  0  0  0
  142.9563   79.2952  218.0099 H   0  0  0  0  0  0  0  0  0  0  0  0
  1  2  2  0
  2  3  2  0
  2  4  1  0
  4  5  1  0
  5  6  2  0
  6  7  1  0
  7  8  2  0
  8  9  1  0
  9 10  2  0
  2 11  1  0
 11 12  1  0
 12 13  1  0
 13 14  2  0
 14 15  1  0
 15 16  2  0
 16 17  1  0
 17 18  2  0
 18 19  1  0
 19 20  2  0
 20 21  1  0
 21 22  1  0
 22 23  2  0
 23 24  1  0
 24 25  1  0
 25 26  2  0
 26 27  1  0
 27 28  2  0
 28 29  1  0
 29 30  2  0
 10  5  1  0
 21 11  1  0
 30 22  1  0
 20 15  1  0
 30 25  1  0
  4 31  1  0
  4 32  1  0
  6 33  1  0
  7 34  1  0
  8 35  1  0
  9 36  1  0
 10 37  1  0
 12 38  1  0
 12 39  1  0
 13 40  1  0
 14 41  1  0
 16 42  1  0
 17 43  1  0
 18 44  1  0
 19 45  1  0
 21 46  1  1
 23 47  1  0
 24 48  1  0
 26 49  1  0
 27 50  1  0
 28 51  1  0
 29 52  1  0
M  END
>  <UniqueID>  (23) 
3

>  <SMILES>  (23) 
O=S(=O)(Cc1ccccc1)N1CC=Cc2ccccc2[C@H]1c1c[nH]c2ccccc12

>  <Energy>  (23) 
108.43193218395871

>  <Genealogy>  (23) 
O=S(=O)(Cc1ccccc1)N1CC=Cc2ccccc2[C@H]1c1c[nH]c2ccccc12 (3D coordinates assigned)
O=S(=O)(Cc1ccccc1)N1CC=Cc2ccccc2[C@H]1c1c[nH]c2ccccc12 (nonaromatic ring conformer: 108.43193218395871 kcal/mol)

>  <smiles>  (23) 
O=S(=O)(Cc1ccccc1)N1CC=Cc2ccccc2[C@H]1c1c[nH]c2ccccc12

>  <score_type>  (23) 
oracle

>  <origin>  (23) 
autodockgpu

>  <m_score__min__energy>  (23) 
-6.2800000000000002

>  <m_primary>  (23) 
energy

>  <meeko>  (23) 
{"free_energy": -4.78, "intermolecular_energy": -7.46, "internal_energy": -2.72, "cluster_size": 4, "cluster_id": 5, "rank_in_cluster": 3}

>  <energy>  (23) 
-5.84

>  <cluster_rmsd>  (23) 
0.0

>  <rmsd>  (23) 
270.43

>  <cluster>  (23) 
2

$$$$
GKGZHBJKEIVYHI-VWLOTQADNA-N
     RDKit          3D

 52 56  0  0  0  0  0  0  0  0999 V2000
  138.7240   77.3800  219.7340 O   0  0  0  0  0  0  0  0  0  0  0  0
  138.6820   75.9120  220.0590 S   0  0  0  0  0  0  0  0  0  0  0  0
  139.3560   75.1620  218.9440 O   0  0  0  0  0  0  0  0  0  0  0  0
  136.9690   75.3950  220.1430 C   0  0  0  0  0  0  0  0  0  0  0  0
  136.5190   75.3090  221.5740 C   0  0  0  0  0  0  0  0  0  0  0  0
  136.3080   76.4800  222.3230 C   0  0  0  0  0  0  0  0  0  0  0  0
  135.8590   76.3990  223.6440 C   0  0  0  0  0  0  0  0  0  0  0  0
  135.6120   75.1510  224.2240 C   0  0  0  0  0  0  0  0  0  0  0  0
  135.8090   73.9840  223.4830 C   0  0  0  0  0  0  0  0  0  0  0  0
  136.2580   74.0600  222.1600 C   0  0  0  0  0  0  0  0  0  0  0  0
  139.5460   75.6630  221.5700 N   0  0  0  0  0  0  0  0  0  0  0  0
  139.7490   74.2410  221.8960 C   0  0  0  0  0  0  0  0  0  0  0  0
  141.1080   73.6350  221.5940 C   0  0  0  0  0  0  0  0  0  0  0  0
  142.1450   74.1170  220.8850 C   0  0  0  0  0  0  0  0  0  0  0  0
  142.2790   75.4300  220.2050 C   0  0  0  0  0  0  0  0  0  0  0  0
  143.1460   75.4940  219.0990 C   0  0  0  0  0  0  0  0  0  0  0  0
  143.3080   76.6810  218.3850 C   0  0  0  0  0  0  0  0  0  0  0  0
  142.6100   77.8220  218.7650 C   0  0  0  0  0  0  0  0  0  0  0  0
  141.7640   77.7880  219.8730 C   0  0  0  0  0  0  0  0  0  0  0  0
  141.6120   76.6030  220.6280 C   0  0  0  0  0  0  0  0  0  0  0  0
  140.7020   76.5390  221.8360 C   0  0  1  0  0  0  0  0  0  0  0  0
  140.2640   77.8790  222.3910 C   0  0  0  0  0  0  0  0  0  0  0  0
  138.9670   78.3060  222.6850 C   0  0  0  0  0  0  0  0  0  0  0  0
  138.9860   79.5390  223.2380 N   0  0  0  0  0  0  0  0  0  0  0  0
  140.2790   79.8930  223.3170 C   0  0  0  0  0  0  0  0  0  0  0  0
  140.8010   81.0750  223.8400 C   0  0  0  0  0  0  0  0  0  0  0  0
  142.1990   81.2300  223.8470 C   0  0  0  0  0  0  0  0  0  0  0  0
  143.0340   80.2090  223.3420 C   0  0  0  0  0  0  0  0  0  0  0  0
  142.4800   79.0250  222.8230 C   0  0  0  0  0  0  0  0  0  0  0  0
  141.0890   78.9040  222.8210 C   0  0  0  0  0  0  0  0  0  0  0  0
  136.3431   76.1253  219.6092 H   0  0  0  0  0  0  0  0  0  0  0  0
  136.8717   74.4031  219.6775 H   0  0  0  0  0  0  0  0  0  0  0  0
  136.4970   77.4633  221.8677 H   0  0  0  0  0  0  0  0  0  0  0  0
  135.6998   77.3176  224.2278 H   0  0  0  0  0  0  0  0  0  0  0  0
  135.2622   75.0884  225.2650 H   0  0  0  0  0  0  0  0  0  0  0  0
  135.6109   73.0033  223.9401 H   0  0  0  0  0  0  0  0  0  0  0  0
  136.4069   73.1389  221.5775 H   0  0  0  0  0  0  0  0  0  0  0  0
  139.5686   74.1222  222.9746 H   0  0  0  0  0  0  0  0  0  0  0  0
  139.0517   73.7024  221.2374 H   0  0  0  0  0  0  0  0  0  0  0  0
  141.2719   72.6369  222.0263 H   0  0  0  0  0  0  0  0  0  0  0  0
  143.0124   73.4463  220.7971 H   0  0  0  0  0  0  0  0  0  0  0  0
  143.7033   74.5962  218.7934 H   0  0  0  0  0  0  0  0  0  0  0  0
  143.9881   76.7146  217.5211 H   0  0  0  0  0  0  0  0  0  0  0  0
  142.7254   78.7530  218.1906 H   0  0  0  0  0  0  0  0  0  0  0  0
  141.2093   78.6928  220.1623 H   0  0  0  0  0  0  0  0  0  0  0  0
  141.3189   76.1041  222.6362 H   0  0  0  0  0  0  0  0  0  0  0  0
  138.0562   77.7198  222.4930 H   0  0  0  0  0  0  0  0  0  0  0  0
  138.1600   80.0930  223.5570 H   0  0  0  0  0  0  0  0  0  0  0  0
  140.1407   81.8614  224.2346 H   0  0  0  0  0  0  0  0  0  0  0  0
  142.6447   82.1521  224.2483 H   0  0  0  0  0  0  0  0  0  0  0  0
  144.1260   80.3408  223.3547 H   0  0  0  0  0  0  0  0  0  0  0  0
  143.1211   78.2213  222.4318 H   0  0  0  0  0  0  0  0  0  0  0  0
  1  2  2  0
  2  3  2  0
  2  4  1  0
  4  5  1  0
  5  6  2  0
  6  7  1  0
  7  8  2  0
  8  9  1  0
  9 10  2  0
  2 11  1  0
 11 12  1  0
 12 13  1  0
 13 14  2  0
 14 15  1  0
 15 16  2  0
 16 17  1  0
 17 18  2  0
 18 19  1  0
 19 20  2  0
 20 21  1  0
 21 22  1  0
 22 23  2  0
 23 24  1  0
 24 25  1  0
 25 26  2  0
 26 27  1  0
 27 28  2  0
 28 29  1  0
 29 30  2  0
 10  5  1  0
 21 11  1  0
 30 22  1  0
 20 15  1  0
 30 25  1  0
  4 31  1  0
  4 32  1  0
  6 33  1  0
  7 34  1  0
  8 35  1  0
  9 36  1  0
 10 37  1  0
 12 38  1  0
 12 39  1  0
 13 40  1  0
 14 41  1  0
 16 42  1  0
 17 43  1  0
 18 44  1  0
 19 45  1  0
 21 46  1  1
 23 47  1  0
 24 48  1  0
 26 49  1  0
 27 50  1  0
 28 51  1  0
 29 52  1  0
M  END
>  <UniqueID>  (24) 
3

>  <SMILES>  (24) 
O=S(=O)(Cc1ccccc1)N1CC=Cc2ccccc2[C@H]1c1c[nH]c2ccccc12

>  <Energy>  (24) 
108.43193218395871

>  <Genealogy>  (24) 
O=S(=O)(Cc1ccccc1)N1CC=Cc2ccccc2[C@H]1c1c[nH]c2ccccc12 (3D coordinates assigned)
O=S(=O)(Cc1ccccc1)N1CC=Cc2ccccc2[C@H]1c1c[nH]c2ccccc12 (nonaromatic ring conformer: 108.43193218395871 kcal/mol)

>  <smiles>  (24) 
O=S(=O)(Cc1ccccc1)N1CC=Cc2ccccc2[C@H]1c1c[nH]c2ccccc12

>  <score_type>  (24) 
oracle

>  <origin>  (24) 
autodockgpu

>  <m_score__min__energy>  (24) 
-6.2800000000000002

>  <m_primary>  (24) 
energy

>  <meeko>  (24) 
{"free_energy": -5.23, "intermolecular_energy": -7.91, "internal_energy": -2.76, "cluster_size": 2, "cluster_id": 4, "rank_in_cluster": 1}

>  <energy>  (24) 
-5.79

>  <cluster_rmsd>  (24) 
1.47

>  <rmsd>  (24) 
270.61

>  <cluster>  (24) 
2

$$$$
GKGZHBJKEIVYHI-VWLOTQADNA-N
     RDKit          3D

 52 56  0  0  0  0  0  0  0  0999 V2000
  136.6880   78.7660  223.3880 O   0  0  0  0  0  0  0  0  0  0  0  0
  137.8570   79.6760  223.1320 S   0  0  0  0  0  0  0  0  0  0  0  0
  138.9180   79.3820  224.1560 O   0  0  0  0  0  0  0  0  0  0  0  0
  137.3180   81.3720  223.3380 C   0  0  0  0  0  0  0  0  0  0  0  0
  136.6930   81.5600  224.6910 C   0  0  0  0  0  0  0  0  0  0  0  0
  135.3510   81.2010  224.9090 C   0  0  0  0  0  0  0  0  0  0  0  0
  134.7820   81.3480  226.1770 C   0  0  0  0  0  0  0  0  0  0  0  0
  135.5470   81.8450  227.2360 C   0  0  0  0  0  0  0  0  0  0  0  0
  136.8840   82.1930  227.0290 C   0  0  0  0  0  0  0  0  0  0  0  0
  137.4590   82.0480  225.7620 C   0  0  0  0  0  0  0  0  0  0  0  0
  138.4630   79.3440  221.5150 N   0  0  0  0  0  0  0  0  0  0  0  0
  138.0880   80.3720  220.5310 C   0  0  0  0  0  0  0  0  0  0  0  0
  139.1290   81.4190  220.1730 C   0  0  0  0  0  0  0  0  0  0  0  0
  140.3050   81.7110  220.7570 C   0  0  0  0  0  0  0  0  0  0  0  0
  140.9770   81.0460  221.9010 C   0  0  0  0  0  0  0  0  0  0  0  0
  141.8710   81.8230  222.6600 C   0  0  0  0  0  0  0  0  0  0  0  0
  142.5220   81.2860  223.7700 C   0  0  0  0  0  0  0  0  0  0  0  0
  142.2940   79.9640  224.1380 C   0  0  0  0  0  0  0  0  0  0  0  0
  141.4300   79.1680  223.3860 C   0  0  0  0  0  0  0  0  0  0  0  0
  140.7860   79.6860  222.2400 C   0  0  0  0  0  0  0  0  0  0  0  0
  139.8460   78.8440  221.4050 C   0  0  1  0  0  0  0  0  0  0  0  0
  139.9160   77.3510  221.6550 C   0  0  0  0  0  0  0  0  0  0  0  0
  139.0020   76.5510  222.3470 C   0  0  0  0  0  0  0  0  0  0  0  0
  139.3710   75.2520  222.2920 N   0  0  0  0  0  0  0  0  0  0  0  0
  140.4950   75.2140  221.5580 C   0  0  0  0  0  0  0  0  0  0  0  0
  141.2360   74.0870  221.2060 C   0  0  0  0  0  0  0  0  0  0  0  0
  142.3760   74.2730  220.4020 C   0  0  0  0  0  0  0  0  0  0  0  0
  142.7410   75.5670  219.9700 C   0  0  0  0  0  0  0  0  0  0  0  0
  141.9730   76.6860  220.3380 C   0  0  0  0  0  0  0  0  0  0  0  0
  140.8520   76.4710  221.1430 C   0  0  0  0  0  0  0  0  0  0  0  0
  138.1849   82.0424  223.2425 H   0  0  0  0  0  0  0  0  0  0  0  0
  136.5726   81.6070  222.5639 H   0  0  0  0  0  0  0  0  0  0  0  0
  134.7476   80.8035  224.0796 H   0  0  0  0  0  0  0  0  0  0  0  0
  133.7300   81.0720  226.3419 H   0  0  0  0  0  0  0  0  0  0  0  0
  135.0962   81.9621  228.2325 H   0  0  0  0  0  0  0  0  0  0  0  0
  137.4857   82.5817  227.8638 H   0  0  0  0  0  0  0  0  0  0  0  0
  138.5139   82.3169  225.6043 H   0  0  0  0  0  0  0  0  0  0  0  0
  137.8116   79.8522  219.6018 H   0  0  0  0  0  0  0  0  0  0  0  0
  137.2786   80.9383  221.0149 H   0  0  0  0  0  0  0  0  0  0  0  0
  138.8817   82.0365  219.2969 H   0  0  0  0  0  0  0  0  0  0  0  0
  140.8464   82.5654  220.3246 H   0  0  0  0  0  0  0  0  0  0  0  0
  142.0590   82.8684  222.3739 H   0  0  0  0  0  0  0  0  0  0  0  0
  143.2159   81.9078  224.3547 H   0  0  0  0  0  0  0  0  0  0  0  0
  142.7957   79.5458  225.0231 H   0  0  0  0  0  0  0  0  0  0  0  0
  141.2481   78.1261  223.6883 H   0  0  0  0  0  0  0  0  0  0  0  0
  140.1996   78.9614  220.3700 H   0  0  0  0  0  0  0  0  0  0  0  0
  138.1069   76.9266  222.8644 H   0  0  0  0  0  0  0  0  0  0  0  0
  138.8680   74.4420  222.7180 H   0  0  0  0  0  0  0  0  0  0  0  0
  140.9390   73.0839  221.5459 H   0  0  0  0  0  0  0  0  0  0  0  0
  142.9859   73.4059  220.1085 H   0  0  0  0  0  0  0  0  0  0  0  0
  143.6332   75.7007  219.3406 H   0  0  0  0  0  0  0  0  0  0  0  0
  142.2461   77.6975  220.0029 H   0  0  0  0  0  0  0  0  0  0  0  0
  1  2  2  0
  2  3  2  0
  2  4  1  0
  4  5  1  0
  5  6  2  0
  6  7  1  0
  7  8  2  0
  8  9  1  0
  9 10  2  0
  2 11  1  0
 11 12  1  0
 12 13  1  0
 13 14  2  0
 14 15  1  0
 15 16  2  0
 16 17  1  0
 17 18  2  0
 18 19  1  0
 19 20  2  0
 20 21  1  0
 21 22  1  0
 22 23  2  0
 23 24  1  0
 24 25  1  0
 25 26  2  0
 26 27  1  0
 27 28  2  0
 28 29  1  0
 29 30  2  0
 10  5  1  0
 21 11  1  0
 30 22  1  0
 20 15  1  0
 30 25  1  0
  4 31  1  0
  4 32  1  0
  6 33  1  0
  7 34  1  0
  8 35  1  0
  9 36  1  0
 10 37  1  0
 12 38  1  0
 12 39  1  0
 13 40  1  0
 14 41  1  0
 16 42  1  0
 17 43  1  0
 18 44  1  0
 19 45  1  0
 21 46  1  6
 23 47  1  0
 24 48  1  0
 26 49  1  0
 27 50  1  0
 28 51  1  0
 29 52  1  0
M  END
>  <UniqueID>  (25) 
3

>  <SMILES>  (25) 
O=S(=O)(Cc1ccccc1)N1CC=Cc2ccccc2[C@H]1c1c[nH]c2ccccc12

>  <Energy>  (25) 
108.43193218395871

>  <Genealogy>  (25) 
O=S(=O)(Cc1ccccc1)N1CC=Cc2ccccc2[C@H]1c1c[nH]c2ccccc12 (3D coordinates assigned)
O=S(=O)(Cc1ccccc1)N1CC=Cc2ccccc2[C@H]1c1c[nH]c2ccccc12 (nonaromatic ring conformer: 108.43193218395871 kcal/mol)

>  <smiles>  (25) 
O=S(=O)(Cc1ccccc1)N1CC=Cc2ccccc2[C@H]1c1c[nH]c2ccccc12

>  <score_type>  (25) 
oracle

>  <origin>  (25) 
autodockgpu

>  <m_score__min__energy>  (25) 
-6.2800000000000002

>  <m_primary>  (25) 
energy

>  <meeko>  (25) 
{"free_energy": -5.52, "intermolecular_energy": -8.2, "internal_energy": -2.08, "cluster_size": 5, "cluster_id": 2, "rank_in_cluster": 4}

>  <energy>  (25) 
-5.72

>  <cluster_rmsd>  (25) 
0.1

>  <rmsd>  (25) 
270.41

>  <cluster>  (25) 
2

$$$$
GKGZHBJKEIVYHI-VWLOTQADNA-N
     RDKit          3D

 52 56  0  0  0  0  0  0  0  0999 V2000
  138.5020   79.8430  224.1240 O   0  0  0  0  0  0  0  0  0  0  0  0
  138.0560   80.7970  223.0500 S   0  0  0  0  0  0  0  0  0  0  0  0
  138.9390   82.0140  223.1020 O   0  0  0  0  0  0  0  0  0  0  0  0
  136.3710   81.2990  223.3950 C   0  0  0  0  0  0  0  0  0  0  0  0
  136.1630   81.4460  224.8750 C   0  0  0  0  0  0  0  0  0  0  0  0
  135.0330   80.8820  225.4930 C   0  0  0  0  0  0  0  0  0  0  0  0
  134.8580   80.9930  226.8750 C   0  0  0  0  0  0  0  0  0  0  0  0
  135.8110   81.6600  227.6500 C   0  0  0  0  0  0  0  0  0  0  0  0
  136.9420   82.2130  227.0460 C   0  0  0  0  0  0  0  0  0  0  0  0
  137.1210   82.1040  225.6620 C   0  0  0  0  0  0  0  0  0  0  0  0
  138.2240   79.9880  221.4980 N   0  0  0  0  0  0  0  0  0  0  0  0
  138.2020   80.9150  220.3540 C   0  0  0  0  0  0  0  0  0  0  0  0
  139.5350   81.4000  219.8130 C   0  0  0  0  0  0  0  0  0  0  0  0
  140.7930   81.1260  220.2060 C   0  0  0  0  0  0  0  0  0  0  0  0
  141.2550   80.4010  221.4160 C   0  0  0  0  0  0  0  0  0  0  0  0
  142.4920   80.7880  221.9630 C   0  0  0  0  0  0  0  0  0  0  0  0
  142.9860   80.1800  223.1160 C   0  0  0  0  0  0  0  0  0  0  0  0
  142.2560   79.1740  223.7400 C   0  0  0  0  0  0  0  0  0  0  0  0
  141.0390   78.7570  223.2020 C   0  0  0  0  0  0  0  0  0  0  0  0
  140.5370   79.3400  222.0160 C   0  0  0  0  0  0  0  0  0  0  0  0
  139.2210   78.9050  221.4090 C   0  0  1  0  0  0  0  0  0  0  0  0
  138.6640   77.5970  221.9340 C   0  0  0  0  0  0  0  0  0  0  0  0
  139.3240   76.3730  222.0640 C   0  0  0  0  0  0  0  0  0  0  0  0
  138.5170   75.4560  222.6450 N   0  0  0  0  0  0  0  0  0  0  0  0
  137.3610   76.0900  222.9040 C   0  0  0  0  0  0  0  0  0  0  0  0
  136.2290   75.5610  223.5210 C   0  0  0  0  0  0  0  0  0  0  0  0
  135.1270   76.4140  223.7180 C   0  0  0  0  0  0  0  0  0  0  0  0
  135.1850   77.7630  223.3030 C   0  0  0  0  0  0  0  0  0  0  0  0
  136.3430   78.2700  222.6860 C   0  0  0  0  0  0  0  0  0  0  0  0
  137.4160   77.3970  222.4960 C   0  0  0  0  0  0  0  0  0  0  0  0
  136.1716   82.2625  222.9032 H   0  0  0  0  0  0  0  0  0  0  0  0
  135.6834   80.5306  223.0119 H   0  0  0  0  0  0  0  0  0  0  0  0
  134.2841   80.3516  224.8865 H   0  0  0  0  0  0  0  0  0  0  0  0
  133.9695   80.5551  227.3533 H   0  0  0  0  0  0  0  0  0  0  0  0
  135.6698   81.7494  228.7372 H   0  0  0  0  0  0  0  0  0  0  0  0
  137.6926   82.7345  227.6581 H   0  0  0  0  0  0  0  0  0  0  0  0
  138.0157   82.5356  225.1895 H   0  0  0  0  0  0  0  0  0  0  0  0
  137.6780   80.4080  219.5304 H   0  0  0  0  0  0  0  0  0  0  0  0
  137.7122   81.8212  220.7399 H   0  0  0  0  0  0  0  0  0  0  0  0
  139.4606   82.0891  218.9588 H   0  0  0  0  0  0  0  0  0  0  0  0
  141.5881   81.4895  219.5384 H   0  0  0  0  0  0  0  0  0  0  0  0
  143.0772   81.5809  221.4743 H   0  0  0  0  0  0  0  0  0  0  0  0
  143.9538   80.4961  223.5326 H   0  0  0  0  0  0  0  0  0  0  0  0
  142.6392   78.7067  224.6591 H   0  0  0  0  0  0  0  0  0  0  0  0
  140.4636   77.9662  223.7056 H   0  0  0  0  0  0  0  0  0  0  0  0
  139.4482   78.6975  220.3529 H   0  0  0  0  0  0  0  0  0  0  0  0
  140.3572   76.1812  221.7389 H   0  0  0  0  0  0  0  0  0  0  0  0
  138.7560   74.4640  222.8650 H   0  0  0  0  0  0  0  0  0  0  0  0
  136.1977   74.5099  223.8439 H   0  0  0  0  0  0  0  0  0  0  0  0
  134.2155   76.0281  224.1978 H   0  0  0  0  0  0  0  0  0  0  0  0
  134.3186   78.4216  223.4634 H   0  0  0  0  0  0  0  0  0  0  0  0
  136.4013   79.3201  222.3637 H   0  0  0  0  0  0  0  0  0  0  0  0
  1  2  2  0
  2  3  2  0
  2  4  1  0
  4  5  1  0
  5  6  2  0
  6  7  1  0
  7  8  2  0
  8  9  1  0
  9 10  2  0
  2 11  1  0
 11 12  1  0
 12 13  1  0
 13 14  2  0
 14 15  1  0
 15 16  2  0
 16 17  1  0
 17 18  2  0
 18 19  1  0
 19 20  2  0
 20 21  1  0
 21 22  1  0
 22 23  2  0
 23 24  1  0
 24 25  1  0
 25 26  2  0
 26 27  1  0
 27 28  2  0
 28 29  1  0
 29 30  2  0
 10  5  1  0
 21 11  1  0
 30 22  1  0
 20 15  1  0
 30 25  1  0
  4 31  1  0
  4 32  1  0
  6 33  1  0
  7 34  1  0
  8 35  1  0
  9 36  1  0
 10 37  1  0
 12 38  1  0
 12 39  1  0
 13 40  1  0
 14 41  1  0
 16 42  1  0
 17 43  1  0
 18 44  1  0
 19 45  1  0
 21 46  1  6
 23 47  1  0
 24 48  1  0
 26 49  1  0
 27 50  1  0
 28 51  1  0
 29 52  1  0
M  END
>  <UniqueID>  (26) 
3

>  <SMILES>  (26) 
O=S(=O)(Cc1ccccc1)N1CC=Cc2ccccc2[C@H]1c1c[nH]c2ccccc12

>  <Energy>  (26) 
108.43193218395871

>  <Genealogy>  (26) 
O=S(=O)(Cc1ccccc1)N1CC=Cc2ccccc2[C@H]1c1c[nH]c2ccccc12 (3D coordinates assigned)
O=S(=O)(Cc1ccccc1)N1CC=Cc2ccccc2[C@H]1c1c[nH]c2ccccc12 (nonaromatic ring conformer: 108.43193218395871 kcal/mol)

>  <smiles>  (26) 
O=S(=O)(Cc1ccccc1)N1CC=Cc2ccccc2[C@H]1c1c[nH]c2ccccc12

>  <score_type>  (26) 
oracle

>  <origin>  (26) 
autodockgpu

>  <m_score__min__energy>  (26) 
-6.2800000000000002

>  <m_primary>  (26) 
energy

>  <meeko>  (26) 
{"free_energy": -5.84, "intermolecular_energy": -8.52, "internal_energy": -2.4, "cluster_size": 5, "cluster_id": 2, "rank_in_cluster": 1}

>  <energy>  (26) 
-5.52

>  <cluster_rmsd>  (26) 
1.56

>  <rmsd>  (26) 
270.56

>  <cluster>  (26) 
2

$$$$
GKGZHBJKEIVYHI-VWLOTQADNA-N
     RDKit          3D

 52 56  0  0  0  0  0  0  0  0999 V2000
  138.9170   82.3990  221.1950 O   0  0  0  0  0  0  0  0  0  0  0  0
  139.4290   81.0280  221.5400 S   0  0  0  0  0  0  0  0  0  0  0  0
  139.0630   80.0920  220.4220 O   0  0  0  0  0  0  0  0  0  0  0  0
  138.6180   80.4750  223.0390 C   0  0  0  0  0  0  0  0  0  0  0  0
  137.6860   79.3360  222.7370 C   0  0  0  0  0  0  0  0  0  0  0  0
  136.4360   79.5810  222.1430 C   0  0  0  0  0  0  0  0  0  0  0  0
  135.5830   78.5160  221.8350 C   0  0  0  0  0  0  0  0  0  0  0  0
  135.9750   77.2030  222.1100 C   0  0  0  0  0  0  0  0  0  0  0  0
  137.2200   76.9510  222.6900 C   0  0  0  0  0  0  0  0  0  0  0  0
  138.0770   78.0130  223.0000 C   0  0  0  0  0  0  0  0  0  0  0  0
  141.1770   81.1240  221.7060 N   0  0  0  0  0  0  0  0  0  0  0  0
  141.6180   81.3810  223.0870 C   0  0  0  0  0  0  0  0  0  0  0  0
  142.1060   80.1960  223.9030 C   0  0  0  0  0  0  0  0  0  0  0  0
  142.0290   78.8750  223.6620 C   0  0  0  0  0  0  0  0  0  0  0  0
  141.4710   78.1740  222.4790 C   0  0  0  0  0  0  0  0  0  0  0  0
  140.9870   76.8670  222.6750 C   0  0  0  0  0  0  0  0  0  0  0  0
  140.4190   76.1490  221.6250 C   0  0  0  0  0  0  0  0  0  0  0  0
  140.3280   76.7210  220.3600 C   0  0  0  0  0  0  0  0  0  0  0  0
  140.8230   78.0050  220.1360 C   0  0  0  0  0  0  0  0  0  0  0  0
  141.4300   78.7360  221.1820 C   0  0  0  0  0  0  0  0  0  0  0  0
  141.9780   80.1300  220.9660 C   0  0  1  0  0  0  0  0  0  0  0  0
  142.1640   80.5380  219.5180 C   0  0  0  0  0  0  0  0  0  0  0  0
  142.6210   79.7530  218.4560 C   0  0  0  0  0  0  0  0  0  0  0  0
  142.5770   80.4490  217.2980 N   0  0  0  0  0  0  0  0  0  0  0  0
  142.0800   81.6580  217.6080 C   0  0  0  0  0  0  0  0  0  0  0  0
  141.8280   82.7160  216.7360 C   0  0  0  0  0  0  0  0  0  0  0  0
  141.2780   83.8940  217.2730 C   0  0  0  0  0  0  0  0  0  0  0  0
  140.9900   83.9840  218.6520 C   0  0  0  0  0  0  0  0  0  0  0  0
  141.2520   82.8990  219.5080 C   0  0  0  0  0  0  0  0  0  0  0  0
  141.8060   81.7470  218.9480 C   0  0  0  0  0  0  0  0  0  0  0  0
  139.3779   80.1407  223.7607 H   0  0  0  0  0  0  0  0  0  0  0  0
  138.0388   81.3093  223.4615 H   0  0  0  0  0  0  0  0  0  0  0  0
  136.1276   80.6130  221.9197 H   0  0  0  0  0  0  0  0  0  0  0  0
  134.6028   78.7121  221.3760 H   0  0  0  0  0  0  0  0  0  0  0  0
  135.3019   76.3670  221.8692 H   0  0  0  0  0  0  0  0  0  0  0  0
  137.5274   75.9166  222.9034 H   0  0  0  0  0  0  0  0  0  0  0  0
  139.0597   77.8109  223.4510 H   0  0  0  0  0  0  0  0  0  0  0  0
  142.4414   82.1088  223.0392 H   0  0  0  0  0  0  0  0  0  0  0  0
  140.7130   81.7251  223.6091 H   0  0  0  0  0  0  0  0  0  0  0  0
  142.6046   80.4624  224.8466 H   0  0  0  0  0  0  0  0  0  0  0  0
  142.4357   78.2246  224.4504 H   0  0  0  0  0  0  0  0  0  0  0  0
  141.0582   76.4060  223.6712 H   0  0  0  0  0  0  0  0  0  0  0  0
  140.0424   75.1297  221.7961 H   0  0  0  0  0  0  0  0  0  0  0  0
  139.8648   76.1594  219.5354 H   0  0  0  0  0  0  0  0  0  0  0  0
  140.7402   78.4535  219.1350 H   0  0  0  0  0  0  0  0  0  0  0  0
  142.9998   80.1017  221.3723 H   0  0  0  0  0  0  0  0  0  0  0  0
  142.9682   78.7134  218.5494 H   0  0  0  0  0  0  0  0  0  0  0  0
  142.8550   80.1050  216.3520 H   0  0  0  0  0  0  0  0  0  0  0  0
  142.0521   82.6323  215.6623 H   0  0  0  0  0  0  0  0  0  0  0  0
  141.0710   84.7503  216.6143 H   0  0  0  0  0  0  0  0  0  0  0  0
  140.5575   84.9094  219.0602 H   0  0  0  0  0  0  0  0  0  0  0  0
  141.0276   82.9566  220.5833 H   0  0  0  0  0  0  0  0  0  0  0  0
  1  2  2  0
  2  3  2  0
  2  4  1  0
  4  5  1  0
  5  6  2  0
  6  7  1  0
  7  8  2  0
  8  9  1  0
  9 10  2  0
  2 11  1  0
 11 12  1  0
 12 13  1  0
 13 14  2  0
 14 15  1  0
 15 16  2  0
 16 17  1  0
 17 18  2  0
 18 19  1  0
 19 20  2  0
 20 21  1  0
 21 22  1  0
 22 23  2  0
 23 24  1  0
 24 25  1  0
 25 26  2  0
 26 27  1  0
 27 28  2  0
 28 29  1  0
 29 30  2  0
 10  5  1  0
 21 11  1  0
 30 22  1  0
 20 15  1  0
 30 25  1  0
  4 31  1  0
  4 32  1  0
  6 33  1  0
  7 34  1  0
  8 35  1  0
  9 36  1  0
 10 37  1  0
 12 38  1  0
 12 39  1  0
 13 40  1  0
 14 41  1  0
 16 42  1  0
 17 43  1  0
 18 44  1  0
 19 45  1  0
 21 46  1  1
 23 47  1  0
 24 48  1  0
 26 49  1  0
 27 50  1  0
 28 51  1  0
 29 52  1  0
M  END
>  <UniqueID>  (27) 
3

>  <SMILES>  (27) 
O=S(=O)(Cc1ccccc1)N1CC=Cc2ccccc2[C@H]1c1c[nH]c2ccccc12

>  <Energy>  (27) 
108.43193218395871

>  <Genealogy>  (27) 
O=S(=O)(Cc1ccccc1)N1CC=Cc2ccccc2[C@H]1c1c[nH]c2ccccc12 (3D coordinates assigned)
O=S(=O)(Cc1ccccc1)N1CC=Cc2ccccc2[C@H]1c1c[nH]c2ccccc12 (nonaromatic ring conformer: 108.43193218395871 kcal/mol)

>  <smiles>  (27) 
O=S(=O)(Cc1ccccc1)N1CC=Cc2ccccc2[C@H]1c1c[nH]c2ccccc12

>  <score_type>  (27) 
oracle

>  <origin>  (27) 
autodockgpu

>  <m_score__min__energy>  (27) 
-6.2800000000000002

>  <m_primary>  (27) 
energy

>  <meeko>  (27) 
{"free_energy": -4.97, "intermolecular_energy": -7.65, "internal_energy": -2.73, "cluster_size": 3, "cluster_id": 3, "rank_in_cluster": 2}

>  <energy>  (27) 
-5.3

>  <cluster_rmsd>  (27) 
0.6

>  <rmsd>  (27) 
270.43

>  <cluster>  (27) 
2

$$$$
GKGZHBJKEIVYHI-VWLOTQADNA-N
     RDKit          3D

 52 56  0  0  0  0  0  0  0  0999 V2000
  140.1950   84.2630  221.0810 O   0  0  0  0  0  0  0  0  0  0  0  0
  139.0520   83.3440  220.7520 S   0  0  0  0  0  0  0  0  0  0  0  0
  138.5280   83.7090  219.3910 O   0  0  0  0  0  0  0  0  0  0  0  0
  137.7480   83.5990  221.9540 C   0  0  0  0  0  0  0  0  0  0  0  0
  137.4060   82.3050  222.6350 C   0  0  0  0  0  0  0  0  0  0  0  0
  136.1450   81.7130  222.4430 C   0  0  0  0  0  0  0  0  0  0  0  0
  135.8410   80.4930  223.0530 C   0  0  0  0  0  0  0  0  0  0  0  0
  136.7930   79.8510  223.8510 C   0  0  0  0  0  0  0  0  0  0  0  0
  138.0520   80.4270  224.0370 C   0  0  0  0  0  0  0  0  0  0  0  0
  138.3610   81.6490  223.4290 C   0  0  0  0  0  0  0  0  0  0  0  0
  139.6620   81.6940  220.7460 N   0  0  0  0  0  0  0  0  0  0  0  0
  139.0750   80.8610  219.6850 C   0  0  0  0  0  0  0  0  0  0  0  0
  139.4730   79.3950  219.6370 C   0  0  0  0  0  0  0  0  0  0  0  0
  140.3340   78.6970  220.3980 C   0  0  0  0  0  0  0  0  0  0  0  0
  140.9870   79.0940  221.6700 C   0  0  0  0  0  0  0  0  0  0  0  0
  141.2020   78.0830  222.6240 C   0  0  0  0  0  0  0  0  0  0  0  0
  141.8370   78.3640  223.8340 C   0  0  0  0  0  0  0  0  0  0  0  0
  142.2630   79.6590  224.1120 C   0  0  0  0  0  0  0  0  0  0  0  0
  142.0380   80.6810  223.1910 C   0  0  0  0  0  0  0  0  0  0  0  0
  141.3690   80.4220  221.9730 C   0  0  0  0  0  0  0  0  0  0  0  0
  141.1110   81.5130  220.9580 C   0  0  1  0  0  0  0  0  0  0  0  0
  141.8470   81.3640  219.6410 C   0  0  0  0  0  0  0  0  0  0  0  0
  142.4770   80.2250  219.1330 C   0  0  0  0  0  0  0  0  0  0  0  0
  142.9580   80.4610  217.8920 N   0  0  0  0  0  0  0  0  0  0  0  0
  142.6230   81.7280  217.5980 C   0  0  0  0  0  0  0  0  0  0  0  0
  142.8840   82.4170  216.4140 C   0  0  0  0  0  0  0  0  0  0  0  0
  142.4180   83.7410  216.3070 C   0  0  0  0  0  0  0  0  0  0  0  0
  141.7050   84.3360  217.3710 C   0  0  0  0  0  0  0  0  0  0  0  0
  141.4540   83.6150  218.5530 C   0  0  0  0  0  0  0  0  0  0  0  0
  141.9360   82.3070  218.6330 C   0  0  0  0  0  0  0  0  0  0  0  0
  138.0855   84.3269  222.7065 H   0  0  0  0  0  0  0  0  0  0  0  0
  136.8542   83.9782  221.4370 H   0  0  0  0  0  0  0  0  0  0  0  0
  135.3956   82.2117  221.8107 H   0  0  0  0  0  0  0  0  0  0  0  0
  134.8510   80.0369  222.9051 H   0  0  0  0  0  0  0  0  0  0  0  0
  136.5505   78.8921  224.3324 H   0  0  0  0  0  0  0  0  0  0  0  0
  138.8014   79.9194  224.6621 H   0  0  0  0  0  0  0  0  0  0  0  0
  139.3551   82.0973  223.5734 H   0  0  0  0  0  0  0  0  0  0  0  0
  137.9820   80.9011  219.8025 H   0  0  0  0  0  0  0  0  0  0  0  0
  139.4660   81.2863  218.7489 H   0  0  0  0  0  0  0  0  0  0  0  0
  138.9749   78.8089  218.8506 H   0  0  0  0  0  0  0  0  0  0  0  0
  140.5895   77.6936  220.0266 H   0  0  0  0  0  0  0  0  0  0  0  0
  140.8650   77.0573  222.4132 H   0  0  0  0  0  0  0  0  0  0  0  0
  142.0009   77.5616  224.5684 H   0  0  0  0  0  0  0  0  0  0  0  0
  142.7778   79.8766  225.0594 H   0  0  0  0  0  0  0  0  0  0  0  0
  142.3850   81.7006  223.4146 H   0  0  0  0  0  0  0  0  0  0  0  0
  141.5369   82.4239  221.4039 H   0  0  0  0  0  0  0  0  0  0  0  0
  142.5688   79.2687  219.6688 H   0  0  0  0  0  0  0  0  0  0  0  0
  143.4670   79.7850  217.2810 H   0  0  0  0  0  0  0  0  0  0  0  0
  143.4362   81.9412  215.5902 H   0  0  0  0  0  0  0  0  0  0  0  0
  142.6104   84.3157  215.3890 H   0  0  0  0  0  0  0  0  0  0  0  0
  141.3433   85.3704  217.2750 H   0  0  0  0  0  0  0  0  0  0  0  0
  140.8964   84.0669  219.3866 H   0  0  0  0  0  0  0  0  0  0  0  0
  1  2  2  0
  2  3  2  0
  2  4  1  0
  4  5  1  0
  5  6  2  0
  6  7  1  0
  7  8  2  0
  8  9  1  0
  9 10  2  0
  2 11  1  0
 11 12  1  0
 12 13  1  0
 13 14  2  0
 14 15  1  0
 15 16  2  0
 16 17  1  0
 17 18  2  0
 18 19  1  0
 19 20  2  0
 20 21  1  0
 21 22  1  0
 22 23  2  0
 23 24  1  0
 24 25  1  0
 25 26  2  0
 26 27  1  0
 27 28  2  0
 28 29  1  0
 29 30  2  0
 10  5  1  0
 21 11  1  0
 30 22  1  0
 20 15  1  0
 30 25  1  0
  4 31  1  0
  4 32  1  0
  6 33  1  0
  7 34  1  0
  8 35  1  0
  9 36  1  0
 10 37  1  0
 12 38  1  0
 12 39  1  0
 13 40  1  0
 14 41  1  0
 16 42  1  0
 17 43  1  0
 18 44  1  0
 19 45  1  0
 21 46  1  1
 23 47  1  0
 24 48  1  0
 26 49  1  0
 27 50  1  0
 28 51  1  0
 29 52  1  0
M  END
>  <UniqueID>  (28) 
3

>  <SMILES>  (28) 
O=S(=O)(Cc1ccccc1)N1CC=Cc2ccccc2[C@H]1c1c[nH]c2ccccc12

>  <Energy>  (28) 
108.43193218395871

>  <Genealogy>  (28) 
O=S(=O)(Cc1ccccc1)N1CC=Cc2ccccc2[C@H]1c1c[nH]c2ccccc12 (3D coordinates assigned)
O=S(=O)(Cc1ccccc1)N1CC=Cc2ccccc2[C@H]1c1c[nH]c2ccccc12 (nonaromatic ring conformer: 108.43193218395871 kcal/mol)

>  <smiles>  (28) 
O=S(=O)(Cc1ccccc1)N1CC=Cc2ccccc2[C@H]1c1c[nH]c2ccccc12

>  <score_type>  (28) 
oracle

>  <origin>  (28) 
autodockgpu

>  <m_score__min__energy>  (28) 
-6.2800000000000002

>  <m_primary>  (28) 
energy

>  <meeko>  (28) 
{"free_energy": -4.79, "intermolecular_energy": -7.48, "internal_energy": -2.58, "cluster_size": 1, "cluster_id": 7, "rank_in_cluster": 1}

>  <energy>  (28) 
-5.59

>  <cluster_rmsd>  (28) 
0.0

>  <rmsd>  (28) 
270.36

>  <cluster>  (28) 
3

$$$$
GKGZHBJKEIVYHI-VWLOTQADNA-N
     RDKit          3D

 52 56  0  0  0  0  0  0  0  0999 V2000
  141.0740   74.7260  222.2480 O   0  0  0  0  0  0  0  0  0  0  0  0
  140.3790   75.1660  220.9890 S   0  0  0  0  0  0  0  0  0  0  0  0
  138.9920   74.5850  220.9870 O   0  0  0  0  0  0  0  0  0  0  0  0
  141.2750   74.5120  219.5820 C   0  0  0  0  0  0  0  0  0  0  0  0
  142.6400   74.0490  220.0030 C   0  0  0  0  0  0  0  0  0  0  0  0
  143.7140   74.9550  220.0510 C   0  0  0  0  0  0  0  0  0  0  0  0
  144.9760   74.5290  220.4730 C   0  0  0  0  0  0  0  0  0  0  0  0
  145.1740   73.1990  220.8570 C   0  0  0  0  0  0  0  0  0  0  0  0
  144.1100   72.2960  220.8230 C   0  0  0  0  0  0  0  0  0  0  0  0
  142.8440   72.7180  220.4010 C   0  0  0  0  0  0  0  0  0  0  0  0
  140.3030   76.9230  220.9940 N   0  0  0  0  0  0  0  0  0  0  0  0
  139.6030   77.4780  219.8240 C   0  0  0  0  0  0  0  0  0  0  0  0
  139.5430   78.9900  219.6890 C   0  0  0  0  0  0  0  0  0  0  0  0
  140.0060   79.9610  220.4950 C   0  0  0  0  0  0  0  0  0  0  0  0
  140.9180   79.8470  221.6610 C   0  0  0  0  0  0  0  0  0  0  0  0
  141.8180   80.9060  221.8770 C   0  0  0  0  0  0  0  0  0  0  0  0
  142.6900   80.8940  222.9660 C   0  0  0  0  0  0  0  0  0  0  0  0
  142.6800   79.8230  223.8530 C   0  0  0  0  0  0  0  0  0  0  0  0
  141.8130   78.7510  223.6450 C   0  0  0  0  0  0  0  0  0  0  0  0
  140.9440   78.7310  222.5300 C   0  0  0  0  0  0  0  0  0  0  0  0
  139.9960   77.5790  222.2780 C   0  0  1  0  0  0  0  0  0  0  0  0
  138.5220   77.9150  222.3890 C   0  0  0  0  0  0  0  0  0  0  0  0
  137.4340   77.1770  221.9170 C   0  0  0  0  0  0  0  0  0  0  0  0
  136.2700   77.7640  222.2750 N   0  0  0  0  0  0  0  0  0  0  0  0
  136.6050   78.8540  222.9840 C   0  0  0  0  0  0  0  0  0  0  0  0
  135.7410   79.7680  223.5860 C   0  0  0  0  0  0  0  0  0  0  0  0
  136.3100   80.8330  224.3090 C   0  0  0  0  0  0  0  0  0  0  0  0
  137.7120   80.9540  224.4180 C   0  0  0  0  0  0  0  0  0  0  0  0
  138.5600   80.0150  223.8030 C   0  0  0  0  0  0  0  0  0  0  0  0
  137.9670   78.9740  223.0850 C   0  0  0  0  0  0  0  0  0  0  0  0
  140.7179   73.6626  219.1599 H   0  0  0  0  0  0  0  0  0  0  0  0
  141.3830   75.3044  218.8267 H   0  0  0  0  0  0  0  0  0  0  0  0
  143.5602   76.0032  219.7552 H   0  0  0  0  0  0  0  0  0  0  0  0
  145.8145   75.2404  220.5032 H   0  0  0  0  0  0  0  0  0  0  0  0
  146.1688   72.8642  221.1860 H   0  0  0  0  0  0  0  0  0  0  0  0
  144.2668   71.2509  221.1284 H   0  0  0  0  0  0  0  0  0  0  0  0
  142.0066   72.0050  220.3811 H   0  0  0  0  0  0  0  0  0  0  0  0
  140.1037   77.0875  218.9258 H   0  0  0  0  0  0  0  0  0  0  0  0
  138.5555   77.1686  219.9540 H   0  0  0  0  0  0  0  0  0  0  0  0
  139.0367   79.3498  218.7811 H   0  0  0  0  0  0  0  0  0  0  0  0
  139.6623   80.9788  220.2584 H   0  0  0  0  0  0  0  0  0  0  0  0
  141.8346   81.7551  221.1779 H   0  0  0  0  0  0  0  0  0  0  0  0
  143.3854   81.7317  223.1230 H   0  0  0  0  0  0  0  0  0  0  0  0
  143.3570   79.8216  224.7200 H   0  0  0  0  0  0  0  0  0  0  0  0
  141.8051   77.9118  224.3561 H   0  0  0  0  0  0  0  0  0  0  0  0
  140.1760   76.8750  223.1039 H   0  0  0  0  0  0  0  0  0  0  0  0
  137.5133   76.2471  221.3347 H   0  0  0  0  0  0  0  0  0  0  0  0
  135.3070   77.4230  222.0590 H   0  0  0  0  0  0  0  0  0  0  0  0
  134.6498   79.6601  223.4986 H   0  0  0  0  0  0  0  0  0  0  0  0
  135.6581   81.5757  224.7921 H   0  0  0  0  0  0  0  0  0  0  0  0
  138.1450   81.7891  224.9883 H   0  0  0  0  0  0  0  0  0  0  0  0
  139.6538   80.0979  223.8848 H   0  0  0  0  0  0  0  0  0  0  0  0
  1  2  2  0
  2  3  2  0
  2  4  1  0
  4  5  1  0
  5  6  2  0
  6  7  1  0
  7  8  2  0
  8  9  1  0
  9 10  2  0
  2 11  1  0
 11 12  1  0
 12 13  1  0
 13 14  2  0
 14 15  1  0
 15 16  2  0
 16 17  1  0
 17 18  2  0
 18 19  1  0
 19 20  2  0
 20 21  1  0
 21 22  1  0
 22 23  2  0
 23 24  1  0
 24 25  1  0
 25 26  2  0
 26 27  1  0
 27 28  2  0
 28 29  1  0
 29 30  2  0
 10  5  1  0
 21 11  1  0
 30 22  1  0
 20 15  1  0
 30 25  1  0
  4 31  1  0
  4 32  1  0
  6 33  1  0
  7 34  1  0
  8 35  1  0
  9 36  1  0
 10 37  1  0
 12 38  1  0
 12 39  1  0
 13 40  1  0
 14 41  1  0
 16 42  1  0
 17 43  1  0
 18 44  1  0
 19 45  1  0
 21 46  1  1
 23 47  1  0
 24 48  1  0
 26 49  1  0
 27 50  1  0
 28 51  1  0
 29 52  1  0
M  END
>  <UniqueID>  (29) 
3

>  <SMILES>  (29) 
O=S(=O)(Cc1ccccc1)N1CC=Cc2ccccc2[C@H]1c1c[nH]c2ccccc12

>  <Energy>  (29) 
108.43193218395871

>  <Genealogy>  (29) 
O=S(=O)(Cc1ccccc1)N1CC=Cc2ccccc2[C@H]1c1c[nH]c2ccccc12 (3D coordinates assigned)
O=S(=O)(Cc1ccccc1)N1CC=Cc2ccccc2[C@H]1c1c[nH]c2ccccc12 (nonaromatic ring conformer: 108.43193218395871 kcal/mol)

>  <smiles>  (29) 
O=S(=O)(Cc1ccccc1)N1CC=Cc2ccccc2[C@H]1c1c[nH]c2ccccc12

>  <score_type>  (29) 
oracle

>  <origin>  (29) 
autodockgpu

>  <m_score__min__energy>  (29) 
-6.2800000000000002

>  <m_primary>  (29) 
energy

>  <meeko>  (29) 
{"free_energy": -6.28, "intermolecular_energy": -8.96, "internal_energy": -1.94, "cluster_size": 2, "cluster_id": 1, "rank_in_cluster": 1}

>  <energy>  (29) 
-4.97

>  <cluster_rmsd>  (29) 
1.21

>  <rmsd>  (29) 
269.95

>  <cluster>  (29) 
3

$$$$
GKGZHBJKEIVYHI-VWLOTQADNA-N
     RDKit          3D

 52 56  0  0  0  0  0  0  0  0999 V2000
  139.0700   82.6330  221.4080 O   0  0  0  0  0  0  0  0  0  0  0  0
  139.5560   81.2230  221.6040 S   0  0  0  0  0  0  0  0  0  0  0  0
  139.1110   80.4020  220.4250 O   0  0  0  0  0  0  0  0  0  0  0  0
  138.7970   80.5570  223.0840 C   0  0  0  0  0  0  0  0  0  0  0  0
  137.7900   79.5020  222.7240 C   0  0  0  0  0  0  0  0  0  0  0  0
  136.6370   79.8400  221.9950 C   0  0  0  0  0  0  0  0  0  0  0  0
  135.7180   78.8500  221.6350 C   0  0  0  0  0  0  0  0  0  0  0  0
  135.9470   77.5180  221.9920 C   0  0  0  0  0  0  0  0  0  0  0  0
  137.0960   77.1730  222.7060 C   0  0  0  0  0  0  0  0  0  0  0  0
  138.0190   78.1600  223.0690 C   0  0  0  0  0  0  0  0  0  0  0  0
  141.3120   81.2580  221.6940 N   0  0  0  0  0  0  0  0  0  0  0  0
  141.8190   81.5320  223.0490 C   0  0  0  0  0  0  0  0  0  0  0  0
  142.2490   80.3450  223.8940 C   0  0  0  0  0  0  0  0  0  0  0  0
  142.1380   79.0230  223.6700 C   0  0  0  0  0  0  0  0  0  0  0  0
  141.5130   78.3180  222.5230 C   0  0  0  0  0  0  0  0  0  0  0  0
  140.9870   77.0370  222.7670 C   0  0  0  0  0  0  0  0  0  0  0  0
  140.3560   76.3170  221.7530 C   0  0  0  0  0  0  0  0  0  0  0  0
  140.2440   76.8630  220.4780 C   0  0  0  0  0  0  0  0  0  0  0  0
  140.7810   78.1210  220.2080 C   0  0  0  0  0  0  0  0  0  0  0  0
  141.4500   78.8520  221.2150 C   0  0  0  0  0  0  0  0  0  0  0  0
  142.0440   80.2180  220.9480 C   0  0  1  0  0  0  0  0  0  0  0  0
  142.1910   80.5880  219.4850 C   0  0  0  0  0  0  0  0  0  0  0  0
  142.6360   79.7810  218.4350 C   0  0  0  0  0  0  0  0  0  0  0  0
  142.5550   80.4430  217.2590 N   0  0  0  0  0  0  0  0  0  0  0  0
  142.0440   81.6510  217.5460 C   0  0  0  0  0  0  0  0  0  0  0  0
  141.7540   82.6800  216.6510 C   0  0  0  0  0  0  0  0  0  0  0  0
  141.1960   83.8640  217.1670 C   0  0  0  0  0  0  0  0  0  0  0  0
  140.9370   83.9880  218.5500 C   0  0  0  0  0  0  0  0  0  0  0  0
  141.2370   82.9320  219.4300 C   0  0  0  0  0  0  0  0  0  0  0  0
  141.7990   81.7740  218.8900 C   0  0  0  0  0  0  0  0  0  0  0  0
  139.5750   80.1132  223.7226 H   0  0  0  0  0  0  0  0  0  0  0  0
  138.2869   81.3700  223.6214 H   0  0  0  0  0  0  0  0  0  0  0  0
  136.4572   80.8863  221.7069 H   0  0  0  0  0  0  0  0  0  0  0  0
  134.8135   79.1195  221.0700 H   0  0  0  0  0  0  0  0  0  0  0  0
  135.2212   76.7410  221.7101 H   0  0  0  0  0  0  0  0  0  0  0  0
  137.2759   76.1239  222.9835 H   0  0  0  0  0  0  0  0  0  0  0  0
  138.9265   77.8841  223.6261 H   0  0  0  0  0  0  0  0  0  0  0  0
  142.6905   82.1953  222.9461 H   0  0  0  0  0  0  0  0  0  0  0  0
  140.9601   81.9602  223.5866 H   0  0  0  0  0  0  0  0  0  0  0  0
  142.7308   80.6103  224.8466 H   0  0  0  0  0  0  0  0  0  0  0  0
  142.5710   78.3738  224.4453 H   0  0  0  0  0  0  0  0  0  0  0  0
  141.0744   76.5969  223.7713 H   0  0  0  0  0  0  0  0  0  0  0  0
  139.9468   75.3174  221.9611 H   0  0  0  0  0  0  0  0  0  0  0  0
  139.7315   76.3018  219.6827 H   0  0  0  0  0  0  0  0  0  0  0  0
  140.6827   78.5492  219.1995 H   0  0  0  0  0  0  0  0  0  0  0  0
  143.0785   80.1570  221.3170 H   0  0  0  0  0  0  0  0  0  0  0  0
  143.0016   78.7499  218.5493 H   0  0  0  0  0  0  0  0  0  0  0  0
  142.8170   80.0760  216.3170 H   0  0  0  0  0  0  0  0  0  0  0  0
  141.9552   82.5696  215.5752 H   0  0  0  0  0  0  0  0  0  0  0  0
  140.9601   84.6979  216.4895 H   0  0  0  0  0  0  0  0  0  0  0  0
  140.4975   84.9171  218.9419 H   0  0  0  0  0  0  0  0  0  0  0  0
  141.0353   83.0162  220.5081 H   0  0  0  0  0  0  0  0  0  0  0  0
  1  2  2  0
  2  3  2  0
  2  4  1  0
  4  5  1  0
  5  6  2  0
  6  7  1  0
  7  8  2  0
  8  9  1  0
  9 10  2  0
  2 11  1  0
 11 12  1  0
 12 13  1  0
 13 14  2  0
 14 15  1  0
 15 16  2  0
 16 17  1  0
 17 18  2  0
 18 19  1  0
 19 20  2  0
 20 21  1  0
 21 22  1  0
 22 23  2  0
 23 24  1  0
 24 25  1  0
 25 26  2  0
 26 27  1  0
 27 28  2  0
 28 29  1  0
 29 30  2  0
 10  5  1  0
 21 11  1  0
 30 22  1  0
 20 15  1  0
 30 25  1  0
  4 31  1  0
  4 32  1  0
  6 33  1  0
  7 34  1  0
  8 35  1  0
  9 36  1  0
 10 37  1  0
 12 38  1  0
 12 39  1  0
 13 40  1  0
 14 41  1  0
 16 42  1  0
 17 43  1  0
 18 44  1  0
 19 45  1  0
 21 46  1  1
 23 47  1  0
 24 48  1  0
 26 49  1  0
 27 50  1  0
 28 51  1  0
 29 52  1  0
M  END
>  <UniqueID>  (30) 
3

>  <SMILES>  (30) 
O=S(=O)(Cc1ccccc1)N1CC=Cc2ccccc2[C@H]1c1c[nH]c2ccccc12

>  <Energy>  (30) 
108.43193218395871

>  <Genealogy>  (30) 
O=S(=O)(Cc1ccccc1)N1CC=Cc2ccccc2[C@H]1c1c[nH]c2ccccc12 (3D coordinates assigned)
O=S(=O)(Cc1ccccc1)N1CC=Cc2ccccc2[C@H]1c1c[nH]c2ccccc12 (nonaromatic ring conformer: 108.43193218395871 kcal/mol)

>  <smiles>  (30) 
O=S(=O)(Cc1ccccc1)N1CC=Cc2ccccc2[C@H]1c1c[nH]c2ccccc12

>  <score_type>  (30) 
oracle

>  <origin>  (30) 
autodockgpu

>  <m_score__min__energy>  (30) 
-6.2800000000000002

>  <m_primary>  (30) 
energy

>  <meeko>  (30) 
{"free_energy": -4.71, "intermolecular_energy": -7.39, "internal_energy": -2.84, "cluster_size": 3, "cluster_id": 3, "rank_in_cluster": 3}

>  <energy>  (30) 
-4.71

>  <cluster_rmsd>  (30) 
1.17

>  <rmsd>  (30) 
270.0

>  <cluster>  (30) 
3

$$$$
GKGZHBJKEIVYHI-VWLOTQADNA-N
     RDKit          3D

 52 56  0  0  0  0  0  0  0  0999 V2000
  136.4130   79.5040  223.7140 O   0  0  0  0  0  0  0  0  0  0  0  0
  137.7620   80.0670  223.3610 S   0  0  0  0  0  0  0  0  0  0  0  0
  138.7800   79.4750  224.2970 O   0  0  0  0  0  0  0  0  0  0  0  0
  137.7240   81.8410  223.6050 C   0  0  0  0  0  0  0  0  0  0  0  0
  137.0600   82.1740  224.9100 C   0  0  0  0  0  0  0  0  0  0  0  0
  137.1570   81.2930  226.0010 C   0  0  0  0  0  0  0  0  0  0  0  0
  136.5640   81.6200  227.2240 C   0  0  0  0  0  0  0  0  0  0  0  0
  135.8790   82.8300  227.3690 C   0  0  0  0  0  0  0  0  0  0  0  0
  135.7880   83.7150  226.2930 C   0  0  0  0  0  0  0  0  0  0  0  0
  136.3790   83.3920  225.0670 C   0  0  0  0  0  0  0  0  0  0  0  0
  138.1250   79.6130  221.7010 N   0  0  0  0  0  0  0  0  0  0  0  0
  137.7050   80.6240  220.7170 C   0  0  0  0  0  0  0  0  0  0  0  0
  138.7490   81.6170  220.2370 C   0  0  0  0  0  0  0  0  0  0  0  0
  140.0360   81.7860  220.6030 C   0  0  0  0  0  0  0  0  0  0  0  0
  140.7930   81.1130  221.6880 C   0  0  0  0  0  0  0  0  0  0  0  0
  141.8340   81.8410  222.2910 C   0  0  0  0  0  0  0  0  0  0  0  0
  142.5770   81.2960  223.3380 C   0  0  0  0  0  0  0  0  0  0  0  0
  142.2950   80.0140  223.7970 C   0  0  0  0  0  0  0  0  0  0  0  0
  141.2830   79.2640  223.1980 C   0  0  0  0  0  0  0  0  0  0  0  0
  140.5410   79.7890  222.1150 C   0  0  0  0  0  0  0  0  0  0  0  0
  139.4390   78.9960  221.4450 C   0  0  1  0  0  0  0  0  0  0  0  0
  139.4240   77.5130  221.7580 C   0  0  0  0  0  0  0  0  0  0  0  0
  138.4290   76.7820  222.4120 C   0  0  0  0  0  0  0  0  0  0  0  0
  138.7420   75.4670  222.4350 N   0  0  0  0  0  0  0  0  0  0  0  0
  139.9130   75.3510  221.7860 C   0  0  0  0  0  0  0  0  0  0  0  0
  140.6250   74.1800  221.5330 C   0  0  0  0  0  0  0  0  0  0  0  0
  141.8270   74.2850  220.8080 C   0  0  0  0  0  0  0  0  0  0  0  0
  142.2800   75.5430  220.3530 C   0  0  0  0  0  0  0  0  0  0  0  0
  141.5380   76.7080  220.6200 C   0  0  0  0  0  0  0  0  0  0  0  0
  140.3550   76.5730  221.3490 C   0  0  0  0  0  0  0  0  0  0  0  0
  138.7535   82.2283  223.6126 H   0  0  0  0  0  0  0  0  0  0  0  0
  137.1535   82.3025  222.7855 H   0  0  0  0  0  0  0  0  0  0  0  0
  137.7012   80.3433  225.8921 H   0  0  0  0  0  0  0  0  0  0  0  0
  136.6365   80.9245  228.0731 H   0  0  0  0  0  0  0  0  0  0  0  0
  135.4114   83.0850  228.3315 H   0  0  0  0  0  0  0  0  0  0  0  0
  135.2507   84.6677  226.4095 H   0  0  0  0  0  0  0  0  0  0  0  0
  136.3101   84.0943  224.2232 H   0  0  0  0  0  0  0  0  0  0  0  0
  137.3313   80.0868  219.8328 H   0  0  0  0  0  0  0  0  0  0  0  0
  136.9611   81.2366  221.2474 H   0  0  0  0  0  0  0  0  0  0  0  0
  138.3971   82.3141  219.4623 H   0  0  0  0  0  0  0  0  0  0  0  0
  140.6028   82.5243  220.0167 H   0  0  0  0  0  0  0  0  0  0  0  0
  142.0656   82.8546  221.9319 H   0  0  0  0  0  0  0  0  0  0  0  0
  143.3861   81.8803  223.8007 H   0  0  0  0  0  0  0  0  0  0  0  0
  142.8707   79.5909  224.6334 H   0  0  0  0  0  0  0  0  0  0  0  0
  141.0599   78.2539  223.5719 H   0  0  0  0  0  0  0  0  0  0  0  0
  139.6657   79.0431  220.3697 H   0  0  0  0  0  0  0  0  0  0  0  0
  137.5172   77.2163  222.8479 H   0  0  0  0  0  0  0  0  0  0  0  0
  138.1750   74.6970  222.8540 H   0  0  0  0  0  0  0  0  0  0  0  0
  140.2595   73.2052  221.8884 H   0  0  0  0  0  0  0  0  0  0  0  0
  142.4172   73.3816  220.5945 H   0  0  0  0  0  0  0  0  0  0  0  0
  143.2199   75.6123  219.7857 H   0  0  0  0  0  0  0  0  0  0  0  0
  141.8785   77.6923  220.2662 H   0  0  0  0  0  0  0  0  0  0  0  0
  1  2  2  0
  2  3  2  0
  2  4  1  0
  4  5  1  0
  5  6  2  0
  6  7  1  0
  7  8  2  0
  8  9  1  0
  9 10  2  0
  2 11  1  0
 11 12  1  0
 12 13  1  0
 13 14  2  0
 14 15  1  0
 15 16  2  0
 16 17  1  0
 17 18  2  0
 18 19  1  0
 19 20  2  0
 20 21  1  0
 21 22  1  0
 22 23  2  0
 23 24  1  0
 24 25  1  0
 25 26  2  0
 26 27  1  0
 27 28  2  0
 28 29  1  0
 29 30  2  0
 10  5  1  0
 21 11  1  0
 30 22  1  0
 20 15  1  0
 30 25  1  0
  4 31  1  0
  4 32  1  0
  6 33  1  0
  7 34  1  0
  8 35  1  0
  9 36  1  0
 10 37  1  0
 12 38  1  0
 12 39  1  0
 13 40  1  0
 14 41  1  0
 16 42  1  0
 17 43  1  0
 18 44  1  0
 19 45  1  0
 21 46  1  6
 23 47  1  0
 24 48  1  0
 26 49  1  0
 27 50  1  0
 28 51  1  0
 29 52  1  0
M  END
>  <UniqueID>  (31) 
3

>  <SMILES>  (31) 
O=S(=O)(Cc1ccccc1)N1CC=Cc2ccccc2[C@H]1c1c[nH]c2ccccc12

>  <Energy>  (31) 
108.43193218395871

>  <Genealogy>  (31) 
O=S(=O)(Cc1ccccc1)N1CC=Cc2ccccc2[C@H]1c1c[nH]c2ccccc12 (3D coordinates assigned)
O=S(=O)(Cc1ccccc1)N1CC=Cc2ccccc2[C@H]1c1c[nH]c2ccccc12 (nonaromatic ring conformer: 108.43193218395871 kcal/mol)

>  <smiles>  (31) 
O=S(=O)(Cc1ccccc1)N1CC=Cc2ccccc2[C@H]1c1c[nH]c2ccccc12

>  <score_type>  (31) 
oracle

>  <origin>  (31) 
autodockgpu

>  <m_score__min__energy>  (31) 
-6.2800000000000002

>  <m_primary>  (31) 
energy

>  <meeko>  (31) 
{"free_energy": -5.79, "intermolecular_energy": -8.48, "internal_energy": -2.23, "cluster_size": 5, "cluster_id": 2, "rank_in_cluster": 2}

>  <energy>  (31) 
-5.23

>  <cluster_rmsd>  (31) 
0.0

>  <rmsd>  (31) 
269.4

>  <cluster>  (31) 
4

$$$$
GKGZHBJKEIVYHI-VWLOTQADNA-N
     RDKit          3D

 52 56  0  0  0  0  0  0  0  0999 V2000
  138.4680   79.8220  224.0990 O   0  0  0  0  0  0  0  0  0  0  0  0
  138.0600   80.7910  223.0240 S   0  0  0  0  0  0  0  0  0  0  0  0
  138.9710   81.9860  223.0940 O   0  0  0  0  0  0  0  0  0  0  0  0
  136.3830   81.3320  223.3480 C   0  0  0  0  0  0  0  0  0  0  0  0
  136.2980   81.9900  224.6950 C   0  0  0  0  0  0  0  0  0  0  0  0
  136.4140   81.2230  225.8680 C   0  0  0  0  0  0  0  0  0  0  0  0
  136.3650   81.8420  227.1200 C   0  0  0  0  0  0  0  0  0  0  0  0
  136.2090   83.2280  227.2110 C   0  0  0  0  0  0  0  0  0  0  0  0
  136.1050   83.9980  226.0500 C   0  0  0  0  0  0  0  0  0  0  0  0
  136.1530   83.3830  224.7940 C   0  0  0  0  0  0  0  0  0  0  0  0
  138.2310   79.9860  221.4710 N   0  0  0  0  0  0  0  0  0  0  0  0
  138.2220   80.9160  220.3290 C   0  0  0  0  0  0  0  0  0  0  0  0
  139.5630   81.3300  219.7470 C   0  0  0  0  0  0  0  0  0  0  0  0
  140.8160   81.0930  220.1720 C   0  0  0  0  0  0  0  0  0  0  0  0
  141.2680   80.3710  221.3880 C   0  0  0  0  0  0  0  0  0  0  0  0
  142.5070   80.7490  221.9360 C   0  0  0  0  0  0  0  0  0  0  0  0
  142.9920   80.1430  223.0940 C   0  0  0  0  0  0  0  0  0  0  0  0
  142.2510   79.1470  223.7220 C   0  0  0  0  0  0  0  0  0  0  0  0
  141.0320   78.7390  223.1820 C   0  0  0  0  0  0  0  0  0  0  0  0
  140.5380   79.3210  221.9920 C   0  0  0  0  0  0  0  0  0  0  0  0
  139.2190   78.8950  221.3840 C   0  0  1  0  0  0  0  0  0  0  0  0
  138.6520   77.5920  221.9100 C   0  0  0  0  0  0  0  0  0  0  0  0
  139.3080   76.3680  222.0630 C   0  0  0  0  0  0  0  0  0  0  0  0
  138.4900   75.4580  222.6370 N   0  0  0  0  0  0  0  0  0  0  0  0
  137.3300   76.0940  222.8680 C   0  0  0  0  0  0  0  0  0  0  0  0
  136.1850   75.5710  223.4690 C   0  0  0  0  0  0  0  0  0  0  0  0
  135.0810   76.4260  223.6380 C   0  0  0  0  0  0  0  0  0  0  0  0
  135.1480   77.7710  223.2120 C   0  0  0  0  0  0  0  0  0  0  0  0
  136.3170   78.2730  222.6120 C   0  0  0  0  0  0  0  0  0  0  0  0
  137.3930   77.3980  222.4500 C   0  0  0  0  0  0  0  0  0  0  0  0
  136.0776   82.0507  222.5733 H   0  0  0  0  0  0  0  0  0  0  0  0
  135.7163   80.4572  223.3348 H   0  0  0  0  0  0  0  0  0  0  0  0
  136.5437   80.1328  225.7999 H   0  0  0  0  0  0  0  0  0  0  0  0
  136.4493   81.2376  228.0352 H   0  0  0  0  0  0  0  0  0  0  0  0
  136.1681   83.7128  228.1975 H   0  0  0  0  0  0  0  0  0  0  0  0
  135.9852   85.0890  226.1233 H   0  0  0  0  0  0  0  0  0  0  0  0
  136.0769   83.9927  223.8816 H   0  0  0  0  0  0  0  0  0  0  0  0
  137.6460   80.4400  219.5218 H   0  0  0  0  0  0  0  0  0  0  0  0
  137.7931   81.8461  220.7302 H   0  0  0  0  0  0  0  0  0  0  0  0
  139.4975   81.9231  218.8229 H   0  0  0  0  0  0  0  0  0  0  0  0
  141.6171   81.4886  219.5303 H   0  0  0  0  0  0  0  0  0  0  0  0
  143.1012   81.5333  221.4443 H   0  0  0  0  0  0  0  0  0  0  0  0
  143.9614   80.4526  223.5115 H   0  0  0  0  0  0  0  0  0  0  0  0
  142.6270   78.6812  224.6449 H   0  0  0  0  0  0  0  0  0  0  0  0
  140.4482   77.9556  223.6874 H   0  0  0  0  0  0  0  0  0  0  0  0
  139.4448   78.6840  220.3283 H   0  0  0  0  0  0  0  0  0  0  0  0
  140.3467   76.1720  221.7584 H   0  0  0  0  0  0  0  0  0  0  0  0
  138.7240   74.4670  222.8710 H   0  0  0  0  0  0  0  0  0  0  0  0
  136.1467   74.5228  223.8004 H   0  0  0  0  0  0  0  0  0  0  0  0
  134.1605   76.0451  224.1044 H   0  0  0  0  0  0  0  0  0  0  0  0
  134.2791   78.4312  223.3506 H   0  0  0  0  0  0  0  0  0  0  0  0
  136.3814   79.3202  222.2814 H   0  0  0  0  0  0  0  0  0  0  0  0
  1  2  2  0
  2  3  2  0
  2  4  1  0
  4  5  1  0
  5  6  2  0
  6  7  1  0
  7  8  2  0
  8  9  1  0
  9 10  2  0
  2 11  1  0
 11 12  1  0
 12 13  1  0
 13 14  2  0
 14 15  1  0
 15 16  2  0
 16 17  1  0
 17 18  2  0
 18 19  1  0
 19 20  2  0
 20 21  1  0
 21 22  1  0
 22 23  2  0
 23 24  1  0
 24 25  1  0
 25 26  2  0
 26 27  1  0
 27 28  2  0
 28 29  1  0
 29 30  2  0
 10  5  1  0
 21 11  1  0
 30 22  1  0
 20 15  1  0
 30 25  1  0
  4 31  1  0
  4 32  1  0
  6 33  1  0
  7 34  1  0
  8 35  1  0
  9 36  1  0
 10 37  1  0
 12 38  1  0
 12 39  1  0
 13 40  1  0
 14 41  1  0
 16 42  1  0
 17 43  1  0
 18 44  1  0
 19 45  1  0
 21 46  1  6
 23 47  1  0
 24 48  1  0
 26 49  1  0
 27 50  1  0
 28 51  1  0
 29 52  1  0
M  END
>  <UniqueID>  (32) 
3

>  <SMILES>  (32) 
O=S(=O)(Cc1ccccc1)N1CC=Cc2ccccc2[C@H]1c1c[nH]c2ccccc12

>  <Energy>  (32) 
108.43193218395871

>  <Genealogy>  (32) 
O=S(=O)(Cc1ccccc1)N1CC=Cc2ccccc2[C@H]1c1c[nH]c2ccccc12 (3D coordinates assigned)
O=S(=O)(Cc1ccccc1)N1CC=Cc2ccccc2[C@H]1c1c[nH]c2ccccc12 (nonaromatic ring conformer: 108.43193218395871 kcal/mol)

>  <smiles>  (32) 
O=S(=O)(Cc1ccccc1)N1CC=Cc2ccccc2[C@H]1c1c[nH]c2ccccc12

>  <score_type>  (32) 
oracle

>  <origin>  (32) 
autodockgpu

>  <m_score__min__energy>  (32) 
-6.2800000000000002

>  <m_primary>  (32) 
energy

>  <meeko>  (32) 
{"free_energy": -5.3, "intermolecular_energy": -7.99, "internal_energy": -2.31, "cluster_size": 5, "cluster_id": 2, "rank_in_cluster": 5}

>  <energy>  (32) 
-5.09

>  <cluster_rmsd>  (32) 
0.37

>  <rmsd>  (32) 
269.4

>  <cluster>  (32) 
4

$$$$
GKGZHBJKEIVYHI-VWLOTQADNA-N
     RDKit          3D

 52 56  0  0  0  0  0  0  0  0999 V2000
  136.7750   79.2020  223.0900 O   0  0  0  0  0  0  0  0  0  0  0  0
  137.6740   80.3720  223.3810 S   0  0  0  0  0  0  0  0  0  0  0  0
  137.8050   80.5070  224.8740 O   0  0  0  0  0  0  0  0  0  0  0  0
  136.9070   81.8580  222.7380 C   0  0  0  0  0  0  0  0  0  0  0  0
  137.7750   82.4760  221.6800 C   0  0  0  0  0  0  0  0  0  0  0  0
  137.2760   82.6810  220.3820 C   0  0  0  0  0  0  0  0  0  0  0  0
  138.0750   83.2860  219.4080 C   0  0  0  0  0  0  0  0  0  0  0  0
  139.3730   83.6970  219.7230 C   0  0  0  0  0  0  0  0  0  0  0  0
  139.8720   83.5080  221.0140 C   0  0  0  0  0  0  0  0  0  0  0  0
  139.0760   82.9030  221.9930 C   0  0  0  0  0  0  0  0  0  0  0  0
  139.2440   80.0460  222.6590 N   0  0  0  0  0  0  0  0  0  0  0  0
  140.2870   79.7370  223.6510 C   0  0  0  0  0  0  0  0  0  0  0  0
  141.7030   79.5250  223.1430 C   0  0  0  0  0  0  0  0  0  0  0  0
  142.1900   79.5150  221.8890 C   0  0  0  0  0  0  0  0  0  0  0  0
  141.5350   79.9550  220.6320 C   0  0  0  0  0  0  0  0  0  0  0  0
  142.3530   80.5560  219.6580 C   0  0  0  0  0  0  0  0  0  0  0  0
  141.8240   80.9700  218.4360 C   0  0  0  0  0  0  0  0  0  0  0  0
  140.4710   80.7970  218.1680 C   0  0  0  0  0  0  0  0  0  0  0  0
  139.6360   80.2260  219.1290 C   0  0  0  0  0  0  0  0  0  0  0  0
  140.1480   79.8280  220.3850 C   0  0  0  0  0  0  0  0  0  0  0  0
  139.2640   79.2080  221.4460 C   0  0  1  0  0  0  0  0  0  0  0  0
  139.5660   77.7610  221.7780 C   0  0  0  0  0  0  0  0  0  0  0  0
  138.9670   76.9600  222.7530 C   0  0  0  0  0  0  0  0  0  0  0  0
  139.4500   75.6980  222.6960 N   0  0  0  0  0  0  0  0  0  0  0  0
  140.3330   75.6840  221.6840 C   0  0  0  0  0  0  0  0  0  0  0  0
  141.0740   74.5950  221.2260 C   0  0  0  0  0  0  0  0  0  0  0  0
  141.9290   74.7970  220.1260 C   0  0  0  0  0  0  0  0  0  0  0  0
  142.0170   76.0670  219.5140 C   0  0  0  0  0  0  0  0  0  0  0  0
  141.2550   77.1460  219.9960 C   0  0  0  0  0  0  0  0  0  0  0  0
  140.4230   76.9180  221.0930 C   0  0  0  0  0  0  0  0  0  0  0  0
  135.9298   81.6027  222.3023 H   0  0  0  0  0  0  0  0  0  0  0  0
  136.7766   82.5778  223.5595 H   0  0  0  0  0  0  0  0  0  0  0  0
  136.2528   82.3640  220.1319 H   0  0  0  0  0  0  0  0  0  0  0  0
  137.6817   83.4389  218.3922 H   0  0  0  0  0  0  0  0  0  0  0  0
  140.0020   84.1695  218.9541 H   0  0  0  0  0  0  0  0  0  0  0  0
  140.8926   83.8354  221.2615 H   0  0  0  0  0  0  0  0  0  0  0  0
  139.4701   82.7615  223.0102 H   0  0  0  0  0  0  0  0  0  0  0  0
  140.3163   80.5709  224.3677 H   0  0  0  0  0  0  0  0  0  0  0  0
  139.9929   78.7634  224.0701 H   0  0  0  0  0  0  0  0  0  0  0  0
  142.4526   79.3513  223.9291 H   0  0  0  0  0  0  0  0  0  0  0  0
  143.2138   79.1277  221.7804 H   0  0  0  0  0  0  0  0  0  0  0  0
  143.4239   80.7013  219.8630 H   0  0  0  0  0  0  0  0  0  0  0  0
  142.4782   81.4341  217.6832 H   0  0  0  0  0  0  0  0  0  0  0  0
  140.0584   81.1105  217.1977 H   0  0  0  0  0  0  0  0  0  0  0  0
  138.5681   80.0841  218.9069 H   0  0  0  0  0  0  0  0  0  0  0  0
  138.2586   79.1782  221.0007 H   0  0  0  0  0  0  0  0  0  0  0  0
  138.2073   77.3077  223.4685 H   0  0  0  0  0  0  0  0  0  0  0  0
  139.1740   74.8960  223.3040 H   0  0  0  0  0  0  0  0  0  0  0  0
  140.9930   73.6099  221.7087 H   0  0  0  0  0  0  0  0  0  0  0  0
  142.5318   73.9613  219.7410 H   0  0  0  0  0  0  0  0  0  0  0  0
  142.6868   76.2131  218.6537 H   0  0  0  0  0  0  0  0  0  0  0  0
  141.3128   78.1377  219.5237 H   0  0  0  0  0  0  0  0  0  0  0  0
  1  2  2  0
  2  3  2  0
  2  4  1  0
  4  5  1  0
  5  6  2  0
  6  7  1  0
  7  8  2  0
  8  9  1  0
  9 10  2  0
  2 11  1  0
 11 12  1  0
 12 13  1  0
 13 14  2  0
 14 15  1  0
 15 16  2  0
 16 17  1  0
 17 18  2  0
 18 19  1  0
 19 20  2  0
 20 21  1  0
 21 22  1  0
 22 23  2  0
 23 24  1  0
 24 25  1  0
 25 26  2  0
 26 27  1  0
 27 28  2  0
 28 29  1  0
 29 30  2  0
 10  5  1  0
 21 11  1  0
 30 22  1  0
 20 15  1  0
 30 25  1  0
  4 31  1  0
  4 32  1  0
  6 33  1  0
  7 34  1  0
  8 35  1  0
  9 36  1  0
 10 37  1  0
 12 38  1  0
 12 39  1  0
 13 40  1  0
 14 41  1  0
 16 42  1  0
 17 43  1  0
 18 44  1  0
 19 45  1  0
 21 46  1  6
 23 47  1  0
 24 48  1  0
 26 49  1  0
 27 50  1  0
 28 51  1  0
 29 52  1  0
M  END
>  <UniqueID>  (33) 
3

>  <SMILES>  (33) 
O=S(=O)(Cc1ccccc1)N1CC=Cc2ccccc2[C@H]1c1c[nH]c2ccccc12

>  <Energy>  (33) 
108.43193218395871

>  <Genealogy>  (33) 
O=S(=O)(Cc1ccccc1)N1CC=Cc2ccccc2[C@H]1c1c[nH]c2ccccc12 (3D coordinates assigned)
O=S(=O)(Cc1ccccc1)N1CC=Cc2ccccc2[C@H]1c1c[nH]c2ccccc12 (nonaromatic ring conformer: 108.43193218395871 kcal/mol)

>  <smiles>  (33) 
O=S(=O)(Cc1ccccc1)N1CC=Cc2ccccc2[C@H]1c1c[nH]c2ccccc12

>  <score_type>  (33) 
oracle

>  <origin>  (33) 
autodockgpu

>  <m_score__min__energy>  (33) 
-6.2800000000000002

>  <m_primary>  (33) 
energy

>  <meeko>  (33) 
{"free_energy": -4.21, "intermolecular_energy": -6.9, "internal_energy": -2.69, "cluster_size": 1, "cluster_id": 9, "rank_in_cluster": 1}

>  <energy>  (33) 
-4.84

>  <cluster_rmsd>  (33) 
0.0

>  <rmsd>  (33) 
269.11

>  <cluster>  (33) 
5

$$$$
GKGZHBJKEIVYHI-VWLOTQADNA-N
     RDKit          3D

 52 56  0  0  0  0  0  0  0  0999 V2000
  138.7420   77.5880  222.6410 O   0  0  0  0  0  0  0  0  0  0  0  0
  139.9050   76.8050  222.0980 S   0  0  0  0  0  0  0  0  0  0  0  0
  139.6250   75.3410  222.3010 O   0  0  0  0  0  0  0  0  0  0  0  0
  141.3720   77.2410  223.0280 C   0  0  0  0  0  0  0  0  0  0  0  0
  141.5210   78.7340  223.0980 C   0  0  0  0  0  0  0  0  0  0  0  0
  140.5000   79.5230  223.6560 C   0  0  0  0  0  0  0  0  0  0  0  0
  140.6540   80.9090  223.7490 C   0  0  0  0  0  0  0  0  0  0  0  0
  141.8280   81.5160  223.2940 C   0  0  0  0  0  0  0  0  0  0  0  0
  142.8520   80.7370  222.7490 C   0  0  0  0  0  0  0  0  0  0  0  0
  142.7020   79.3490  222.6540 C   0  0  0  0  0  0  0  0  0  0  0  0
  140.0520   77.1640  220.3830 N   0  0  0  0  0  0  0  0  0  0  0  0
  138.7800   77.5720  219.7630 C   0  0  0  0  0  0  0  0  0  0  0  0
  138.8080   77.9890  218.3030 C   0  0  0  0  0  0  0  0  0  0  0  0
  139.7670   77.8480  217.3700 C   0  0  0  0  0  0  0  0  0  0  0  0
  141.1350   77.2920  217.5170 C   0  0  0  0  0  0  0  0  0  0  0  0
  141.7090   76.6890  216.3830 C   0  0  0  0  0  0  0  0  0  0  0  0
  143.0020   76.1690  216.4260 C   0  0  0  0  0  0  0  0  0  0  0  0
  143.7410   76.2380  217.6020 C   0  0  0  0  0  0  0  0  0  0  0  0
  143.1840   76.8090  218.7450 C   0  0  0  0  0  0  0  0  0  0  0  0
  141.8640   77.3140  218.7290 C   0  0  0  0  0  0  0  0  0  0  0  0
  141.2330   77.9360  219.9570 C   0  0  1  0  0  0  0  0  0  0  0  0
  140.9180   79.4140  219.8460 C   0  0  0  0  0  0  0  0  0  0  0  0
  139.9800   80.1500  220.5740 C   0  0  0  0  0  0  0  0  0  0  0  0
  140.0430   81.4600  220.2450 N   0  0  0  0  0  0  0  0  0  0  0  0
  141.0230   81.5680  219.3320 C   0  0  0  0  0  0  0  0  0  0  0  0
  141.4740   82.7320  218.7120 C   0  0  0  0  0  0  0  0  0  0  0  0
  142.5380   82.6200  217.7980 C   0  0  0  0  0  0  0  0  0  0  0  0
  143.1230   81.3620  217.5330 C   0  0  0  0  0  0  0  0  0  0  0  0
  142.6490   80.2050  218.1760 C   0  0  0  0  0  0  0  0  0  0  0  0
  141.5870   80.3460  219.0710 C   0  0  0  0  0  0  0  0  0  0  0  0
  141.2887   76.8365  224.0475 H   0  0  0  0  0  0  0  0  0  0  0  0
  142.2535   76.8169  222.5249 H   0  0  0  0  0  0  0  0  0  0  0  0
  139.5772   79.0481  224.0205 H   0  0  0  0  0  0  0  0  0  0  0  0
  139.8501   81.5231  224.1809 H   0  0  0  0  0  0  0  0  0  0  0  0
  141.9458   82.6074  223.3650 H   0  0  0  0  0  0  0  0  0  0  0  0
  143.7769   81.2153  222.3943 H   0  0  0  0  0  0  0  0  0  0  0  0
  143.5123   78.7378  222.2300 H   0  0  0  0  0  0  0  0  0  0  0  0
  138.0855   76.7233  219.8490 H   0  0  0  0  0  0  0  0  0  0  0  0
  138.4852   78.4819  220.3064 H   0  0  0  0  0  0  0  0  0  0  0  0
  137.8937   78.4886  217.9502 H   0  0  0  0  0  0  0  0  0  0  0  0
  139.5005   78.1920  216.3597 H   0  0  0  0  0  0  0  0  0  0  0  0
  141.1300   76.6269  215.4498 H   0  0  0  0  0  0  0  0  0  0  0  0
  143.4377   75.7040  215.5294 H   0  0  0  0  0  0  0  0  0  0  0  0
  144.7666   75.8414  217.6302 H   0  0  0  0  0  0  0  0  0  0  0  0
  143.7779   76.8672  219.6691 H   0  0  0  0  0  0  0  0  0  0  0  0
  142.0081   77.8826  220.7357 H   0  0  0  0  0  0  0  0  0  0  0  0
  139.2860   79.7228  221.3129 H   0  0  0  0  0  0  0  0  0  0  0  0
  139.4610   82.2320  220.6390 H   0  0  0  0  0  0  0  0  0  0  0  0
  141.0131   83.7067  218.9301 H   0  0  0  0  0  0  0  0  0  0  0  0
  142.9164   83.5175  217.2868 H   0  0  0  0  0  0  0  0  0  0  0  0
  143.9557   81.2869  216.8182 H   0  0  0  0  0  0  0  0  0  0  0  0
  143.1001   79.2211  217.9802 H   0  0  0  0  0  0  0  0  0  0  0  0
  1  2  2  0
  2  3  2  0
  2  4  1  0
  4  5  1  0
  5  6  2  0
  6  7  1  0
  7  8  2  0
  8  9  1  0
  9 10  2  0
  2 11  1  0
 11 12  1  0
 12 13  1  0
 13 14  2  0
 14 15  1  0
 15 16  2  0
 16 17  1  0
 17 18  2  0
 18 19  1  0
 19 20  2  0
 20 21  1  0
 21 22  1  0
 22 23  2  0
 23 24  1  0
 24 25  1  0
 25 26  2  0
 26 27  1  0
 27 28  2  0
 28 29  1  0
 29 30  2  0
 10  5  1  0
 21 11  1  0
 30 22  1  0
 20 15  1  0
 30 25  1  0
  4 31  1  0
  4 32  1  0
  6 33  1  0
  7 34  1  0
  8 35  1  0
  9 36  1  0
 10 37  1  0
 12 38  1  0
 12 39  1  0
 13 40  1  0
 14 41  1  0
 16 42  1  0
 17 43  1  0
 18 44  1  0
 19 45  1  0
 21 46  1  1
 23 47  1  0
 24 48  1  0
 26 49  1  0
 27 50  1  0
 28 51  1  0
 29 52  1  0
M  END
>  <UniqueID>  (34) 
3

>  <SMILES>  (34) 
O=S(=O)(Cc1ccccc1)N1CC=Cc2ccccc2[C@H]1c1c[nH]c2ccccc12

>  <Energy>  (34) 
108.43193218395871

>  <Genealogy>  (34) 
O=S(=O)(Cc1ccccc1)N1CC=Cc2ccccc2[C@H]1c1c[nH]c2ccccc12 (3D coordinates assigned)
O=S(=O)(Cc1ccccc1)N1CC=Cc2ccccc2[C@H]1c1c[nH]c2ccccc12 (nonaromatic ring conformer: 108.43193218395871 kcal/mol)

>  <smiles>  (34) 
O=S(=O)(Cc1ccccc1)N1CC=Cc2ccccc2[C@H]1c1c[nH]c2ccccc12

>  <score_type>  (34) 
oracle

>  <origin>  (34) 
autodockgpu

>  <m_score__min__energy>  (34) 
-6.2800000000000002

>  <m_primary>  (34) 
energy

>  <meeko>  (34) 
{"free_energy": -4.8, "intermolecular_energy": -7.49, "internal_energy": -2.71, "cluster_size": 4, "cluster_id": 5, "rank_in_cluster": 2}

>  <energy>  (34) 
-4.8

>  <cluster_rmsd>  (34) 
0.13

>  <rmsd>  (34) 
269.16

>  <cluster>  (34) 
5

$$$$
GKGZHBJKEIVYHI-VWLOTQADNA-N
     RDKit          3D

 52 56  0  0  0  0  0  0  0  0999 V2000
  138.4650   79.7760  224.1370 O   0  0  0  0  0  0  0  0  0  0  0  0
  138.0200   80.7170  223.0530 S   0  0  0  0  0  0  0  0  0  0  0  0
  138.8850   81.9460  223.1100 O   0  0  0  0  0  0  0  0  0  0  0  0
  136.3230   81.1960  223.3720 C   0  0  0  0  0  0  0  0  0  0  0  0
  136.1010   81.3780  224.8460 C   0  0  0  0  0  0  0  0  0  0  0  0
  134.9340   80.8830  225.4540 C   0  0  0  0  0  0  0  0  0  0  0  0
  134.7440   81.0260  226.8320 C   0  0  0  0  0  0  0  0  0  0  0  0
  135.7190   81.6540  227.6120 C   0  0  0  0  0  0  0  0  0  0  0  0
  136.8870   82.1370  227.0170 C   0  0  0  0  0  0  0  0  0  0  0  0
  137.0810   81.9970  225.6390 C   0  0  0  0  0  0  0  0  0  0  0  0
  138.2200   79.9030  221.5070 N   0  0  0  0  0  0  0  0  0  0  0  0
  138.2100   80.8240  220.3590 C   0  0  0  0  0  0  0  0  0  0  0  0
  139.5500   81.3020  219.8260 C   0  0  0  0  0  0  0  0  0  0  0  0
  140.8030   81.0500  220.2470 C   0  0  0  0  0  0  0  0  0  0  0  0
  141.2500   80.3370  221.4700 C   0  0  0  0  0  0  0  0  0  0  0  0
  142.4750   80.7360  222.0340 C   0  0  0  0  0  0  0  0  0  0  0  0
  142.9550   80.1400  223.1990 C   0  0  0  0  0  0  0  0  0  0  0  0
  142.2220   79.1320  223.8180 C   0  0  0  0  0  0  0  0  0  0  0  0
  141.0160   78.7040  223.2630 C   0  0  0  0  0  0  0  0  0  0  0  0
  140.5300   79.2750  222.0650 C   0  0  0  0  0  0  0  0  0  0  0  0
  139.2260   78.8270  221.4400 C   0  0  1  0  0  0  0  0  0  0  0  0
  138.6720   77.5180  221.9640 C   0  0  0  0  0  0  0  0  0  0  0  0
  139.3430   76.3040  222.1280 C   0  0  0  0  0  0  0  0  0  0  0  0
  138.5300   75.3830  222.6960 N   0  0  0  0  0  0  0  0  0  0  0  0
  137.3590   76.0040  222.9120 C   0  0  0  0  0  0  0  0  0  0  0  0
  136.2160   75.4670  223.5010 C   0  0  0  0  0  0  0  0  0  0  0  0
  135.0980   76.3070  223.6550 C   0  0  0  0  0  0  0  0  0  0  0  0
  135.1500   77.6520  223.2260 C   0  0  0  0  0  0  0  0  0  0  0  0
  136.3190   78.1680  222.6370 C   0  0  0  0  0  0  0  0  0  0  0  0
  137.4090   77.3070  222.4900 C   0  0  0  0  0  0  0  0  0  0  0  0
  136.1094   82.1422  222.8533 H   0  0  0  0  0  0  0  0  0  0  0  0
  135.6528   80.4050  223.0042 H   0  0  0  0  0  0  0  0  0  0  0  0
  134.1681   80.3817  224.8439 H   0  0  0  0  0  0  0  0  0  0  0  0
  133.8262   80.6438  227.3026 H   0  0  0  0  0  0  0  0  0  0  0  0
  135.5665   81.7680  228.6954 H   0  0  0  0  0  0  0  0  0  0  0  0
  137.6549   82.6279  227.6329 H   0  0  0  0  0  0  0  0  0  0  0  0
  138.0045   82.3731  225.1746 H   0  0  0  0  0  0  0  0  0  0  0  0
  137.6908   80.3148  219.5337 H   0  0  0  0  0  0  0  0  0  0  0  0
  137.7201   81.7337  220.7364 H   0  0  0  0  0  0  0  0  0  0  0  0
  139.4851   81.9643  218.9502 H   0  0  0  0  0  0  0  0  0  0  0  0
  141.6065   81.4237  219.5953 H   0  0  0  0  0  0  0  0  0  0  0  0
  143.0625   81.5295  221.5490 H   0  0  0  0  0  0  0  0  0  0  0  0
  143.9133   80.4665  223.6292 H   0  0  0  0  0  0  0  0  0  0  0  0
  142.5939   78.6724  224.7456 H   0  0  0  0  0  0  0  0  0  0  0  0
  140.4370   77.9136  223.7631 H   0  0  0  0  0  0  0  0  0  0  0  0
  139.4699   78.6157  220.3884 H   0  0  0  0  0  0  0  0  0  0  0  0
  140.3877   76.1217  221.8359 H   0  0  0  0  0  0  0  0  0  0  0  0
  138.7760   74.3970  222.9350 H   0  0  0  0  0  0  0  0  0  0  0  0
  136.1887   74.4193  223.8350 H   0  0  0  0  0  0  0  0  0  0  0  0
  134.1779   75.9142  224.1122 H   0  0  0  0  0  0  0  0  0  0  0  0
  134.2705   78.3003  223.3533 H   0  0  0  0  0  0  0  0  0  0  0  0
  136.3727   79.2148  222.3033 H   0  0  0  0  0  0  0  0  0  0  0  0
  1  2  2  0
  2  3  2  0
  2  4  1  0
  4  5  1  0
  5  6  2  0
  6  7  1  0
  7  8  2  0
  8  9  1  0
  9 10  2  0
  2 11  1  0
 11 12  1  0
 12 13  1  0
 13 14  2  0
 14 15  1  0
 15 16  2  0
 16 17  1  0
 17 18  2  0
 18 19  1  0
 19 20  2  0
 20 21  1  0
 21 22  1  0
 22 23  2  0
 23 24  1  0
 24 25  1  0
 25 26  2  0
 26 27  1  0
 27 28  2  0
 28 29  1  0
 29 30  2  0
 10  5  1  0
 21 11  1  0
 30 22  1  0
 20 15  1  0
 30 25  1  0
  4 31  1  0
  4 32  1  0
  6 33  1  0
  7 34  1  0
  8 35  1  0
  9 36  1  0
 10 37  1  0
 12 38  1  0
 12 39  1  0
 13 40  1  0
 14 41  1  0
 16 42  1  0
 17 43  1  0
 18 44  1  0
 19 45  1  0
 21 46  1  6
 23 47  1  0
 24 48  1  0
 26 49  1  0
 27 50  1  0
 28 51  1  0
 29 52  1  0
M  END
>  <UniqueID>  (35) 
3

>  <SMILES>  (35) 
O=S(=O)(Cc1ccccc1)N1CC=Cc2ccccc2[C@H]1c1c[nH]c2ccccc12

>  <Energy>  (35) 
108.43193218395871

>  <Genealogy>  (35) 
O=S(=O)(Cc1ccccc1)N1CC=Cc2ccccc2[C@H]1c1c[nH]c2ccccc12 (3D coordinates assigned)
O=S(=O)(Cc1ccccc1)N1CC=Cc2ccccc2[C@H]1c1c[nH]c2ccccc12 (nonaromatic ring conformer: 108.43193218395871 kcal/mol)

>  <smiles>  (35) 
O=S(=O)(Cc1ccccc1)N1CC=Cc2ccccc2[C@H]1c1c[nH]c2ccccc12

>  <score_type>  (35) 
oracle

>  <origin>  (35) 
autodockgpu

>  <m_score__min__energy>  (35) 
-6.2800000000000002

>  <m_primary>  (35) 
energy

>  <meeko>  (35) 
{"free_energy": -5.72, "intermolecular_energy": -8.4, "internal_energy": -2.39, "cluster_size": 5, "cluster_id": 2, "rank_in_cluster": 3}

>  <energy>  (35) 
-4.78

>  <cluster_rmsd>  (35) 
0.06

>  <rmsd>  (35) 
269.14

>  <cluster>  (35) 
5

$$$$
GKGZHBJKEIVYHI-VWLOTQADNA-N
     RDKit          3D

 52 56  0  0  0  0  0  0  0  0999 V2000
  139.9380   76.5400  218.3810 O   0  0  0  0  0  0  0  0  0  0  0  0
  139.5610   76.9590  219.7760 S   0  0  0  0  0  0  0  0  0  0  0  0
  138.5960   75.9470  220.3290 O   0  0  0  0  0  0  0  0  0  0  0  0
  138.7390   78.5480  219.6930 C   0  0  0  0  0  0  0  0  0  0  0  0
  138.6670   79.1700  221.0580 C   0  0  0  0  0  0  0  0  0  0  0  0
  138.9600   78.4070  222.2020 C   0  0  0  0  0  0  0  0  0  0  0  0
  138.9230   78.9960  223.4690 C   0  0  0  0  0  0  0  0  0  0  0  0
  138.6020   80.3500  223.6030 C   0  0  0  0  0  0  0  0  0  0  0  0
  138.3210   81.1170  222.4710 C   0  0  0  0  0  0  0  0  0  0  0  0
  138.3570   80.5320  221.2000 C   0  0  0  0  0  0  0  0  0  0  0  0
  141.0260   76.9980  220.7480 N   0  0  0  0  0  0  0  0  0  0  0  0
  141.4130   75.6760  221.2700 C   0  0  0  0  0  0  0  0  0  0  0  0
  142.5010   74.9170  220.5320 C   0  0  0  0  0  0  0  0  0  0  0  0
  143.0840   75.1550  219.3450 C   0  0  0  0  0  0  0  0  0  0  0  0
  142.8450   76.2690  218.3940 C   0  0  0  0  0  0  0  0  0  0  0  0
  143.1120   76.0210  217.0350 C   0  0  0  0  0  0  0  0  0  0  0  0
  142.8860   77.0020  216.0710 C   0  0  0  0  0  0  0  0  0  0  0  0
  142.3950   78.2470  216.4470 C   0  0  0  0  0  0  0  0  0  0  0  0
  142.1460   78.5240  217.7910 C   0  0  0  0  0  0  0  0  0  0  0  0
  142.3980   77.5520  218.7860 C   0  0  0  0  0  0  0  0  0  0  0  0
  142.1400   77.8260  220.2520 C   0  0  1  0  0  0  0  0  0  0  0  0
  141.9490   79.2850  220.6150 C   0  0  0  0  0  0  0  0  0  0  0  0
  141.4710   80.3180  219.8040 C   0  0  0  0  0  0  0  0  0  0  0  0
  141.3690   81.4670  220.5090 N   0  0  0  0  0  0  0  0  0  0  0  0
  141.7560   81.1730  221.7600 C   0  0  0  0  0  0  0  0  0  0  0  0
  141.7990   82.0340  222.8560 C   0  0  0  0  0  0  0  0  0  0  0  0
  142.2160   81.5070  224.0920 C   0  0  0  0  0  0  0  0  0  0  0  0
  142.5710   80.1450  224.2040 C   0  0  0  0  0  0  0  0  0  0  0  0
  142.5150   79.2980  223.0820 C   0  0  0  0  0  0  0  0  0  0  0  0
  142.1060   79.8520  221.8680 C   0  0  0  0  0  0  0  0  0  0  0  0
  139.3013   79.2127  219.0206 H   0  0  0  0  0  0  0  0  0  0  0  0
  137.7174   78.4027  219.3119 H   0  0  0  0  0  0  0  0  0  0  0  0
  139.2192   77.3429  222.0996 H   0  0  0  0  0  0  0  0  0  0  0  0
  139.1467   78.3935  224.3617 H   0  0  0  0  0  0  0  0  0  0  0  0
  138.5708   80.8113  224.6011 H   0  0  0  0  0  0  0  0  0  0  0  0
  138.0709   82.1828  222.5781 H   0  0  0  0  0  0  0  0  0  0  0  0
  138.1418   81.1411  220.3097 H   0  0  0  0  0  0  0  0  0  0  0  0
  141.7566   75.8192  222.3051 H   0  0  0  0  0  0  0  0  0  0  0  0
  140.5122   75.0558  221.1519 H   0  0  0  0  0  0  0  0  0  0  0  0
  142.8739   74.0244  221.0557 H   0  0  0  0  0  0  0  0  0  0  0  0
  143.8439   74.4225  219.0351 H   0  0  0  0  0  0  0  0  0  0  0  0
  143.5043   75.0399  216.7293 H   0  0  0  0  0  0  0  0  0  0  0  0
  143.0963   76.7909  215.0121 H   0  0  0  0  0  0  0  0  0  0  0  0
  142.2026   79.0149  215.6833 H   0  0  0  0  0  0  0  0  0  0  0  0
  141.7496   79.5086  218.0797 H   0  0  0  0  0  0  0  0  0  0  0  0
  143.0696   77.5386  220.7650 H   0  0  0  0  0  0  0  0  0  0  0  0
  141.2135   80.2110  218.7399 H   0  0  0  0  0  0  0  0  0  0  0  0
  141.0350   82.3910  220.1520 H   0  0  0  0  0  0  0  0  0  0  0  0
  141.5157   83.0923  222.7573 H   0  0  0  0  0  0  0  0  0  0  0  0
  142.2658   82.1597  224.9760 H   0  0  0  0  0  0  0  0  0  0  0  0
  142.8938   79.7431  225.1758 H   0  0  0  0  0  0  0  0  0  0  0  0
  142.7846   78.2343  223.1590 H   0  0  0  0  0  0  0  0  0  0  0  0
  1  2  2  0
  2  3  2  0
  2  4  1  0
  4  5  1  0
  5  6  2  0
  6  7  1  0
  7  8  2  0
  8  9  1  0
  9 10  2  0
  2 11  1  0
 11 12  1  0
 12 13  1  0
 13 14  2  0
 14 15  1  0
 15 16  2  0
 16 17  1  0
 17 18  2  0
 18 19  1  0
 19 20  2  0
 20 21  1  0
 21 22  1  0
 22 23  2  0
 23 24  1  0
 24 25  1  0
 25 26  2  0
 26 27  1  0
 27 28  2  0
 28 29  1  0
 29 30  2  0
 10  5  1  0
 21 11  1  0
 30 22  1  0
 20 15  1  0
 30 25  1  0
  4 31  1  0
  4 32  1  0
  6 33  1  0
  7 34  1  0
  8 35  1  0
  9 36  1  0
 10 37  1  0
 12 38  1  0
 12 39  1  0
 13 40  1  0
 14 41  1  0
 16 42  1  0
 17 43  1  0
 18 44  1  0
 19 45  1  0
 21 46  1  1
 23 47  1  0
 24 48  1  0
 26 49  1  0
 27 50  1  0
 28 51  1  0
 29 52  1  0
M  END
>  <UniqueID>  (36) 
3

>  <SMILES>  (36) 
O=S(=O)(Cc1ccccc1)N1CC=Cc2ccccc2[C@H]1c1c[nH]c2ccccc12

>  <Energy>  (36) 
108.43193218395871

>  <Genealogy>  (36) 
O=S(=O)(Cc1ccccc1)N1CC=Cc2ccccc2[C@H]1c1c[nH]c2ccccc12 (3D coordinates assigned)
O=S(=O)(Cc1ccccc1)N1CC=Cc2ccccc2[C@H]1c1c[nH]c2ccccc12 (nonaromatic ring conformer: 108.43193218395871 kcal/mol)

>  <smiles>  (36) 
O=S(=O)(Cc1ccccc1)N1CC=Cc2ccccc2[C@H]1c1c[nH]c2ccccc12

>  <score_type>  (36) 
oracle

>  <origin>  (36) 
autodockgpu

>  <m_score__min__energy>  (36) 
-6.2800000000000002

>  <m_primary>  (36) 
energy

>  <meeko>  (36) 
{"free_energy": -4.44, "intermolecular_energy": -7.12, "internal_energy": -2.86, "cluster_size": 1, "cluster_id": 8, "rank_in_cluster": 1}

>  <energy>  (36) 
-4.63

>  <cluster_rmsd>  (36) 
0.43

>  <rmsd>  (36) 
269.11

>  <cluster>  (36) 
5

$$$$
GKGZHBJKEIVYHI-VWLOTQADNA-N
     RDKit          3D

 52 56  0  0  0  0  0  0  0  0999 V2000
  138.8990   82.5040  221.9370 O   0  0  0  0  0  0  0  0  0  0  0  0
  139.3950   81.1300  221.5800 S   0  0  0  0  0  0  0  0  0  0  0  0
  138.9860   80.8330  220.1630 O   0  0  0  0  0  0  0  0  0  0  0  0
  138.6100   79.9390  222.6630 C   0  0  0  0  0  0  0  0  0  0  0  0
  137.6590   80.6310  223.5970 C   0  0  0  0  0  0  0  0  0  0  0  0
  136.3560   80.9500  223.1760 C   0  0  0  0  0  0  0  0  0  0  0  0
  135.4630   81.5650  224.0570 C   0  0  0  0  0  0  0  0  0  0  0  0
  135.8590   81.8590  225.3650 C   0  0  0  0  0  0  0  0  0  0  0  0
  137.1480   81.5350  225.7950 C   0  0  0  0  0  0  0  0  0  0  0  0
  138.0460   80.9190  224.9160 C   0  0  0  0  0  0  0  0  0  0  0  0
  141.1480   81.1300  221.7200 N   0  0  0  0  0  0  0  0  0  0  0  0
  141.6210   81.3550  223.0960 C   0  0  0  0  0  0  0  0  0  0  0  0
  141.9160   80.1340  223.9490 C   0  0  0  0  0  0  0  0  0  0  0  0
  141.8540   78.8230  223.6530 C   0  0  0  0  0  0  0  0  0  0  0  0
  141.2570   78.1640  222.4640 C   0  0  0  0  0  0  0  0  0  0  0  0
  140.6970   76.8870  222.6510 C   0  0  0  0  0  0  0  0  0  0  0  0
  140.0890   76.2110  221.5940 C   0  0  0  0  0  0  0  0  0  0  0  0
  140.0350   76.7950  220.3330 C   0  0  0  0  0  0  0  0  0  0  0  0
  140.6050   78.0490  220.1190 C   0  0  0  0  0  0  0  0  0  0  0  0
  141.2520   78.7370  221.1710 C   0  0  0  0  0  0  0  0  0  0  0  0
  141.8820   80.0970  220.9650 C   0  0  1  0  0  0  0  0  0  0  0  0
  142.0830   80.5080  219.5200 C   0  0  0  0  0  0  0  0  0  0  0  0
  142.5300   79.7200  218.4570 C   0  0  0  0  0  0  0  0  0  0  0  0
  142.5050   80.4220  217.3010 N   0  0  0  0  0  0  0  0  0  0  0  0
  142.0300   81.6380  217.6140 C   0  0  0  0  0  0  0  0  0  0  0  0
  141.8020   82.7050  216.7460 C   0  0  0  0  0  0  0  0  0  0  0  0
  141.2720   83.8910  217.2860 C   0  0  0  0  0  0  0  0  0  0  0  0
  140.9790   83.9800  218.6650 C   0  0  0  0  0  0  0  0  0  0  0  0
  141.2160   82.8860  219.5170 C   0  0  0  0  0  0  0  0  0  0  0  0
  141.7510   81.7260  218.9540 C   0  0  0  0  0  0  0  0  0  0  0  0
  138.0554   79.2076  222.0567 H   0  0  0  0  0  0  0  0  0  0  0  0
  139.3843   79.4285  223.2544 H   0  0  0  0  0  0  0  0  0  0  0  0
  136.0386   80.7145  222.1494 H   0  0  0  0  0  0  0  0  0  0  0  0
  134.4467   81.8183  223.7209 H   0  0  0  0  0  0  0  0  0  0  0  0
  135.1551   82.3458  226.0561 H   0  0  0  0  0  0  0  0  0  0  0  0
  137.4574   81.7643  226.8254 H   0  0  0  0  0  0  0  0  0  0  0  0
  139.0583   80.6595  225.2593 H   0  0  0  0  0  0  0  0  0  0  0  0
  142.5482   81.9434  223.0326 H   0  0  0  0  0  0  0  0  0  0  0  0
  140.7795   81.8510  223.6018 H   0  0  0  0  0  0  0  0  0  0  0  0
  142.2325   80.3582  224.9784 H   0  0  0  0  0  0  0  0  0  0  0  0
  142.3075   78.1471  224.3929 H   0  0  0  0  0  0  0  0  0  0  0  0
  140.7394   76.4158  223.6440 H   0  0  0  0  0  0  0  0  0  0  0  0
  139.6517   75.2150  221.7576 H   0  0  0  0  0  0  0  0  0  0  0  0
  139.5420   76.2668  219.5036 H   0  0  0  0  0  0  0  0  0  0  0  0
  140.5508   78.5082  219.1209 H   0  0  0  0  0  0  0  0  0  0  0  0
  142.9027   80.0022  221.3639 H   0  0  0  0  0  0  0  0  0  0  0  0
  142.8570   78.6736  218.5473 H   0  0  0  0  0  0  0  0  0  0  0  0
  142.7810   80.0760  216.3550 H   0  0  0  0  0  0  0  0  0  0  0  0
  142.0293   82.6221  215.6729 H   0  0  0  0  0  0  0  0  0  0  0  0
  141.0846   84.7542  216.6305 H   0  0  0  0  0  0  0  0  0  0  0  0
  140.5625   84.9116  219.0756 H   0  0  0  0  0  0  0  0  0  0  0  0
  140.9873   82.9427  220.5915 H   0  0  0  0  0  0  0  0  0  0  0  0
  1  2  2  0
  2  3  2  0
  2  4  1  0
  4  5  1  0
  5  6  2  0
  6  7  1  0
  7  8  2  0
  8  9  1  0
  9 10  2  0
  2 11  1  0
 11 12  1  0
 12 13  1  0
 13 14  2  0
 14 15  1  0
 15 16  2  0
 16 17  1  0
 17 18  2  0
 18 19  1  0
 19 20  2  0
 20 21  1  0
 21 22  1  0
 22 23  2  0
 23 24  1  0
 24 25  1  0
 25 26  2  0
 26 27  1  0
 27 28  2  0
 28 29  1  0
 29 30  2  0
 10  5  1  0
 21 11  1  0
 30 22  1  0
 20 15  1  0
 30 25  1  0
  4 31  1  0
  4 32  1  0
  6 33  1  0
  7 34  1  0
  8 35  1  0
  9 36  1  0
 10 37  1  0
 12 38  1  0
 12 39  1  0
 13 40  1  0
 14 41  1  0
 16 42  1  0
 17 43  1  0
 18 44  1  0
 19 45  1  0
 21 46  1  1
 23 47  1  0
 24 48  1  0
 26 49  1  0
 27 50  1  0
 28 51  1  0
 29 52  1  0
M  END
>  <UniqueID>  (37) 
3

>  <SMILES>  (37) 
O=S(=O)(Cc1ccccc1)N1CC=Cc2ccccc2[C@H]1c1c[nH]c2ccccc12

>  <Energy>  (37) 
108.43193218395871

>  <Genealogy>  (37) 
O=S(=O)(Cc1ccccc1)N1CC=Cc2ccccc2[C@H]1c1c[nH]c2ccccc12 (3D coordinates assigned)
O=S(=O)(Cc1ccccc1)N1CC=Cc2ccccc2[C@H]1c1c[nH]c2ccccc12 (nonaromatic ring conformer: 108.43193218395871 kcal/mol)

>  <smiles>  (37) 
O=S(=O)(Cc1ccccc1)N1CC=Cc2ccccc2[C@H]1c1c[nH]c2ccccc12

>  <score_type>  (37) 
oracle

>  <origin>  (37) 
autodockgpu

>  <m_score__min__energy>  (37) 
-6.2800000000000002

>  <m_primary>  (37) 
energy

>  <meeko>  (37) 
{"free_energy": -5.59, "intermolecular_energy": -8.27, "internal_energy": -2.46, "cluster_size": 3, "cluster_id": 3, "rank_in_cluster": 1}

>  <energy>  (37) 
-4.8

>  <cluster_rmsd>  (37) 
0.0

>  <rmsd>  (37) 
269.4

>  <cluster>  (37) 
6

$$$$
GKGZHBJKEIVYHI-VWLOTQADNA-N
     RDKit          3D

 52 56  0  0  0  0  0  0  0  0999 V2000
  138.7540   78.5460  222.9510 O   0  0  0  0  0  0  0  0  0  0  0  0
  138.3250   79.0750  221.6100 S   0  0  0  0  0  0  0  0  0  0  0  0
  138.3800   80.5770  221.6550 O   0  0  0  0  0  0  0  0  0  0  0  0
  136.6320   78.5730  221.3120 C   0  0  0  0  0  0  0  0  0  0  0  0
  136.4260   77.1490  221.7420 C   0  0  0  0  0  0  0  0  0  0  0  0
  136.4450   76.1110  220.7930 C   0  0  0  0  0  0  0  0  0  0  0  0
  136.2850   74.7840  221.2000 C   0  0  0  0  0  0  0  0  0  0  0  0
  136.1130   74.4820  222.5540 C   0  0  0  0  0  0  0  0  0  0  0  0
  136.1040   75.5060  223.5030 C   0  0  0  0  0  0  0  0  0  0  0  0
  136.2640   76.8360  223.1010 C   0  0  0  0  0  0  0  0  0  0  0  0
  139.4430   78.4610  220.3990 N   0  0  0  0  0  0  0  0  0  0  0  0
  139.5620   79.3360  219.2210 C   0  0  0  0  0  0  0  0  0  0  0  0
  140.7720   80.2510  219.1420 C   0  0  0  0  0  0  0  0  0  0  0  0
  141.6920   80.5750  220.0720 C   0  0  0  0  0  0  0  0  0  0  0  0
  141.8170   80.0810  221.4660 C   0  0  0  0  0  0  0  0  0  0  0  0
  142.4490   80.9290  222.3930 C   0  0  0  0  0  0  0  0  0  0  0  0
  142.5820   80.5550  223.7300 C   0  0  0  0  0  0  0  0  0  0  0  0
  142.0900   79.3280  224.1620 C   0  0  0  0  0  0  0  0  0  0  0  0
  141.4810   78.4610  223.2560 C   0  0  0  0  0  0  0  0  0  0  0  0
  141.3650   78.8100  221.8910 C   0  0  0  0  0  0  0  0  0  0  0  0
  140.7110   77.8860  220.8850 C   0  0  1  0  0  0  0  0  0  0  0  0
  140.5300   76.4530  221.3420 C   0  0  0  0  0  0  0  0  0  0  0  0
  139.4740   75.9130  222.0810 C   0  0  0  0  0  0  0  0  0  0  0  0
  139.6300   74.5780  222.2270 N   0  0  0  0  0  0  0  0  0  0  0  0
  140.7590   74.2610  221.5740 C   0  0  0  0  0  0  0  0  0  0  0  0
  141.3210   72.9930  221.4250 C   0  0  0  0  0  0  0  0  0  0  0  0
  142.5050   72.8830  220.6730 C   0  0  0  0  0  0  0  0  0  0  0  0
  143.0900   74.0280  220.0890 C   0  0  0  0  0  0  0  0  0  0  0  0
  142.4990   75.2940  220.2530 C   0  0  0  0  0  0  0  0  0  0  0  0
  141.3300   75.3730  221.0120 C   0  0  0  0  0  0  0  0  0  0  0  0
  135.9545   79.2256  221.8822 H   0  0  0  0  0  0  0  0  0  0  0  0
  136.4189   78.6557  220.2360 H   0  0  0  0  0  0  0  0  0  0  0  0
  136.5862   76.3446  219.7274 H   0  0  0  0  0  0  0  0  0  0  0  0
  136.2944   73.9758  220.4539 H   0  0  0  0  0  0  0  0  0  0  0  0
  135.9847   73.4368  222.8720 H   0  0  0  0  0  0  0  0  0  0  0  0
  135.9709   75.2664  224.5683 H   0  0  0  0  0  0  0  0  0  0  0  0
  136.2629   77.6396  223.8522 H   0  0  0  0  0  0  0  0  0  0  0  0
  139.5803   78.6891  218.3315 H   0  0  0  0  0  0  0  0  0  0  0  0
  138.7015   80.0175  219.2921 H   0  0  0  0  0  0  0  0  0  0  0  0
  140.9223   80.7287  218.1626 H   0  0  0  0  0  0  0  0  0  0  0  0
  142.4527   81.3037  219.7553 H   0  0  0  0  0  0  0  0  0  0  0  0
  142.8436   81.9000  222.0592 H   0  0  0  0  0  0  0  0  0  0  0  0
  143.0764   81.2309  224.4433 H   0  0  0  0  0  0  0  0  0  0  0  0
  142.1815   79.0413  225.2200 H   0  0  0  0  0  0  0  0  0  0  0  0
  141.0868   77.4958  223.6067 H   0  0  0  0  0  0  0  0  0  0  0  0
  141.4269   77.8152  220.0529 H   0  0  0  0  0  0  0  0  0  0  0  0
  138.6327   76.4935  222.4875 H   0  0  0  0  0  0  0  0  0  0  0  0
  138.9870   73.9260  222.7300 H   0  0  0  0  0  0  0  0  0  0  0  0
  140.8536   72.1077  221.8807 H   0  0  0  0  0  0  0  0  0  0  0  0
  142.9780   71.8990  220.5391 H   0  0  0  0  0  0  0  0  0  0  0  0
  144.0147   73.9292  219.5015 H   0  0  0  0  0  0  0  0  0  0  0  0
  142.9432   76.1918  219.7983 H   0  0  0  0  0  0  0  0  0  0  0  0
  1  2  2  0
  2  3  2  0
  2  4  1  0
  4  5  1  0
  5  6  2  0
  6  7  1  0
  7  8  2  0
  8  9  1  0
  9 10  2  0
  2 11  1  0
 11 12  1  0
 12 13  1  0
 13 14  2  0
 14 15  1  0
 15 16  2  0
 16 17  1  0
 17 18  2  0
 18 19  1  0
 19 20  2  0
 20 21  1  0
 21 22  1  0
 22 23  2  0
 23 24  1  0
 24 25  1  0
 25 26  2  0
 26 27  1  0
 27 28  2  0
 28 29  1  0
 29 30  2  0
 10  5  1  0
 21 11  1  0
 30 22  1  0
 20 15  1  0
 30 25  1  0
  4 31  1  0
  4 32  1  0
  6 33  1  0
  7 34  1  0
  8 35  1  0
  9 36  1  0
 10 37  1  0
 12 38  1  0
 12 39  1  0
 13 40  1  0
 14 41  1  0
 16 42  1  0
 17 43  1  0
 18 44  1  0
 19 45  1  0
 21 46  1  6
 23 47  1  0
 24 48  1  0
 26 49  1  0
 27 50  1  0
 28 51  1  0
 29 52  1  0
M  END
>  <UniqueID>  (38) 
3

>  <SMILES>  (38) 
O=S(=O)(Cc1ccccc1)N1CC=Cc2ccccc2[C@H]1c1c[nH]c2ccccc12

>  <Energy>  (38) 
108.43193218395871

>  <Genealogy>  (38) 
O=S(=O)(Cc1ccccc1)N1CC=Cc2ccccc2[C@H]1c1c[nH]c2ccccc12 (3D coordinates assigned)
O=S(=O)(Cc1ccccc1)N1CC=Cc2ccccc2[C@H]1c1c[nH]c2ccccc12 (nonaromatic ring conformer: 108.43193218395871 kcal/mol)

>  <smiles>  (38) 
O=S(=O)(Cc1ccccc1)N1CC=Cc2ccccc2[C@H]1c1c[nH]c2ccccc12

>  <score_type>  (38) 
oracle

>  <origin>  (38) 
autodockgpu

>  <m_score__min__energy>  (38) 
-6.2800000000000002

>  <m_primary>  (38) 
energy

>  <meeko>  (38) 
{"free_energy": -4.8, "intermolecular_energy": -7.49, "internal_energy": -2.7, "cluster_size": 1, "cluster_id": 6, "rank_in_cluster": 1}

>  <energy>  (38) 
-4.79

>  <cluster_rmsd>  (38) 
0.0

>  <rmsd>  (38) 
269.99

>  <cluster>  (38) 
7

$$$$
GKGZHBJKEIVYHI-VWLOTQADNA-N
     RDKit          3D

 52 56  0  0  0  0  0  0  0  0999 V2000
  141.0420   74.6860  222.1540 O   0  0  0  0  0  0  0  0  0  0  0  0
  140.4430   75.1450  220.8530 S   0  0  0  0  0  0  0  0  0  0  0  0
  139.0460   74.5960  220.7560 O   0  0  0  0  0  0  0  0  0  0  0  0
  141.4160   74.4750  219.5070 C   0  0  0  0  0  0  0  0  0  0  0  0
  142.7590   74.0250  220.0070 C   0  0  0  0  0  0  0  0  0  0  0  0
  142.9660   72.6860  220.3800 C   0  0  0  0  0  0  0  0  0  0  0  0
  144.2250   72.2630  220.8160 C   0  0  0  0  0  0  0  0  0  0  0  0
  145.2870   73.1710  220.8750 C   0  0  0  0  0  0  0  0  0  0  0  0
  145.0920   74.5010  220.4950 C   0  0  0  0  0  0  0  0  0  0  0  0
  143.8340   74.9280  220.0590 C   0  0  0  0  0  0  0  0  0  0  0  0
  140.4060   76.9030  220.8600 N   0  0  0  0  0  0  0  0  0  0  0  0
  139.6990   77.4750  219.7020 C   0  0  0  0  0  0  0  0  0  0  0  0
  139.5730   78.9870  219.6270 C   0  0  0  0  0  0  0  0  0  0  0  0
  140.1410   79.9510  220.3730 C   0  0  0  0  0  0  0  0  0  0  0  0
  141.0790   79.8190  221.5160 C   0  0  0  0  0  0  0  0  0  0  0  0
  142.0000   80.8630  221.7150 C   0  0  0  0  0  0  0  0  0  0  0  0
  142.8960   80.8350  222.7820 C   0  0  0  0  0  0  0  0  0  0  0  0
  142.8900   79.7620  223.6670 C   0  0  0  0  0  0  0  0  0  0  0  0
  142.0020   78.7040  223.4760 C   0  0  0  0  0  0  0  0  0  0  0  0
  141.1070   78.7010  222.3820 C   0  0  0  0  0  0  0  0  0  0  0  0
  140.1350   77.5650  222.1490 C   0  0  1  0  0  0  0  0  0  0  0  0
  138.6700   77.9250  222.2880 C   0  0  0  0  0  0  0  0  0  0  0  0
  137.5670   77.2700  221.7350 C   0  0  0  0  0  0  0  0  0  0  0  0
  136.4150   77.8450  222.1480 N   0  0  0  0  0  0  0  0  0  0  0  0
  136.7720   78.8440  222.9720 C   0  0  0  0  0  0  0  0  0  0  0  0
  135.9270   79.7110  223.6640 C   0  0  0  0  0  0  0  0  0  0  0  0
  136.5170   80.6760  224.5000 C   0  0  0  0  0  0  0  0  0  0  0  0
  137.9210   80.7490  224.6280 C   0  0  0  0  0  0  0  0  0  0  0  0
  138.7490   79.8590  223.9200 C   0  0  0  0  0  0  0  0  0  0  0  0
  138.1360   78.9170  223.0920 C   0  0  0  0  0  0  0  0  0  0  0  0
  140.8860   73.6166  219.0685 H   0  0  0  0  0  0  0  0  0  0  0  0
  141.5612   75.2570  218.7471 H   0  0  0  0  0  0  0  0  0  0  0  0
  142.1342   71.9681  220.3287 H   0  0  0  0  0  0  0  0  0  0  0  0
  144.3805   71.2153  221.1128 H   0  0  0  0  0  0  0  0  0  0  0  0
  146.2766   72.8376  221.2209 H   0  0  0  0  0  0  0  0  0  0  0  0
  145.9291   75.2132  220.5388 H   0  0  0  0  0  0  0  0  0  0  0  0
  143.6855   75.9748  219.7556 H   0  0  0  0  0  0  0  0  0  0  0  0
  140.2299   77.1444  218.7971 H   0  0  0  0  0  0  0  0  0  0  0  0
  138.6645   77.1148  219.8026 H   0  0  0  0  0  0  0  0  0  0  0  0
  138.9076   79.3537  218.8315 H   0  0  0  0  0  0  0  0  0  0  0  0
  139.8730   80.9817  220.0977 H   0  0  0  0  0  0  0  0  0  0  0  0
  142.0133   81.7141  221.0183 H   0  0  0  0  0  0  0  0  0  0  0  0
  143.6079   81.6614  222.9243 H   0  0  0  0  0  0  0  0  0  0  0  0
  143.5864   79.7480  224.5184 H   0  0  0  0  0  0  0  0  0  0  0  0
  141.9980   77.8625  224.1844 H   0  0  0  0  0  0  0  0  0  0  0  0
  140.3193   76.8589  222.9721 H   0  0  0  0  0  0  0  0  0  0  0  0
  137.6273   76.4058  221.0572 H   0  0  0  0  0  0  0  0  0  0  0  0
  135.4450   77.5550  221.8920 H   0  0  0  0  0  0  0  0  0  0  0  0
  134.8341   79.6424  223.5594 H   0  0  0  0  0  0  0  0  0  0  0  0
  135.8802   81.3785  225.0578 H   0  0  0  0  0  0  0  0  0  0  0  0
  138.3707   81.5072  225.2860 H   0  0  0  0  0  0  0  0  0  0  0  0
  139.8439   79.9039  224.0157 H   0  0  0  0  0  0  0  0  0  0  0  0
  1  2  2  0
  2  3  2  0
  2  4  1  0
  4  5  1  0
  5  6  2  0
  6  7  1  0
  7  8  2  0
  8  9  1  0
  9 10  2  0
  2 11  1  0
 11 12  1  0
 12 13  1  0
 13 14  2  0
 14 15  1  0
 15 16  2  0
 16 17  1  0
 17 18  2  0
 18 19  1  0
 19 20  2  0
 20 21  1  0
 21 22  1  0
 22 23  2  0
 23 24  1  0
 24 25  1  0
 25 26  2  0
 26 27  1  0
 27 28  2  0
 28 29  1  0
 29 30  2  0
 10  5  1  0
 21 11  1  0
 30 22  1  0
 20 15  1  0
 30 25  1  0
  4 31  1  0
  4 32  1  0
  6 33  1  0
  7 34  1  0
  8 35  1  0
  9 36  1  0
 10 37  1  0
 12 38  1  0
 12 39  1  0
 13 40  1  0
 14 41  1  0
 16 42  1  0
 17 43  1  0
 18 44  1  0
 19 45  1  0
 21 46  1  1
 23 47  1  0
 24 48  1  0
 26 49  1  0
 27 50  1  0
 28 51  1  0
 29 52  1  0
M  END
>  <UniqueID>  (39) 
3

>  <SMILES>  (39) 
O=S(=O)(Cc1ccccc1)N1CC=Cc2ccccc2[C@H]1c1c[nH]c2ccccc12

>  <Energy>  (39) 
108.43193218395871

>  <Genealogy>  (39) 
O=S(=O)(Cc1ccccc1)N1CC=Cc2ccccc2[C@H]1c1c[nH]c2ccccc12 (3D coordinates assigned)
O=S(=O)(Cc1ccccc1)N1CC=Cc2ccccc2[C@H]1c1c[nH]c2ccccc12 (nonaromatic ring conformer: 108.43193218395871 kcal/mol)

>  <smiles>  (39) 
O=S(=O)(Cc1ccccc1)N1CC=Cc2ccccc2[C@H]1c1c[nH]c2ccccc12

>  <score_type>  (39) 
oracle

>  <origin>  (39) 
autodockgpu

>  <m_score__min__energy>  (39) 
-6.2800000000000002

>  <m_primary>  (39) 
energy

>  <meeko>  (39) 
{"free_energy": -5.87, "intermolecular_energy": -8.55, "internal_energy": -1.87, "cluster_size": 2, "cluster_id": 1, "rank_in_cluster": 2}

>  <energy>  (39) 
-4.44

>  <cluster_rmsd>  (39) 
0.0

>  <rmsd>  (39) 
269.59

>  <cluster>  (39) 
8

$$$$
GKGZHBJKEIVYHI-VWLOTQADNA-N
     RDKit          3D

 52 56  0  0  0  0  0  0  0  0999 V2000
  138.6040   77.5890  222.6510 O   0  0  0  0  0  0  0  0  0  0  0  0
  139.7700   76.8040  222.1170 S   0  0  0  0  0  0  0  0  0  0  0  0
  139.4880   75.3410  222.3200 O   0  0  0  0  0  0  0  0  0  0  0  0
  141.2320   77.2400  223.0550 C   0  0  0  0  0  0  0  0  0  0  0  0
  141.3810   78.7330  223.1240 C   0  0  0  0  0  0  0  0  0  0  0  0
  140.3660   79.5230  223.6910 C   0  0  0  0  0  0  0  0  0  0  0  0
  140.5210   80.9090  223.7820 C   0  0  0  0  0  0  0  0  0  0  0  0
  141.6910   81.5150  223.3160 C   0  0  0  0  0  0  0  0  0  0  0  0
  142.7100   80.7360  222.7620 C   0  0  0  0  0  0  0  0  0  0  0  0
  142.5590   79.3480  222.6680 C   0  0  0  0  0  0  0  0  0  0  0  0
  139.9270   77.1600  220.4020 N   0  0  0  0  0  0  0  0  0  0  0  0
  138.6580   77.5580  219.7720 C   0  0  0  0  0  0  0  0  0  0  0  0
  138.6940   77.9690  218.3100 C   0  0  0  0  0  0  0  0  0  0  0  0
  139.6610   77.8340  217.3850 C   0  0  0  0  0  0  0  0  0  0  0  0
  141.0330   77.2890  217.5440 C   0  0  0  0  0  0  0  0  0  0  0  0
  141.6200   76.6870  216.4170 C   0  0  0  0  0  0  0  0  0  0  0  0
  142.9160   76.1760  216.4710 C   0  0  0  0  0  0  0  0  0  0  0  0
  143.6450   76.2530  217.6520 C   0  0  0  0  0  0  0  0  0  0  0  0
  143.0750   76.8230  218.7900 C   0  0  0  0  0  0  0  0  0  0  0  0
  141.7510   77.3180  218.7620 C   0  0  0  0  0  0  0  0  0  0  0  0
  141.1070   77.9390  219.9830 C   0  0  1  0  0  0  0  0  0  0  0  0
  140.7820   79.4150  219.8660 C   0  0  0  0  0  0  0  0  0  0  0  0
  139.8440   80.1490  220.5960 C   0  0  0  0  0  0  0  0  0  0  0  0
  139.8970   81.4580  220.2590 N   0  0  0  0  0  0  0  0  0  0  0  0
  140.8710   81.5660  219.3400 C   0  0  0  0  0  0  0  0  0  0  0  0
  141.3110   82.7290  218.7100 C   0  0  0  0  0  0  0  0  0  0  0  0
  142.3700   82.6180  217.7900 C   0  0  0  0  0  0  0  0  0  0  0  0
  142.9610   81.3630  217.5280 C   0  0  0  0  0  0  0  0  0  0  0  0
  142.4980   80.2060  218.1810 C   0  0  0  0  0  0  0  0  0  0  0  0
  141.4400   80.3460  219.0820 C   0  0  0  0  0  0  0  0  0  0  0  0
  141.1427   76.8367  224.0745 H   0  0  0  0  0  0  0  0  0  0  0  0
  142.1162   76.8147  222.5577 H   0  0  0  0  0  0  0  0  0  0  0  0
  139.4464   79.0487  224.0644 H   0  0  0  0  0  0  0  0  0  0  0  0
  139.7212   81.5236  224.2209 H   0  0  0  0  0  0  0  0  0  0  0  0
  141.8097   82.6064  223.3855 H   0  0  0  0  0  0  0  0  0  0  0  0
  143.6319   81.2142  222.3994 H   0  0  0  0  0  0  0  0  0  0  0  0
  143.3649   78.7367  222.2359 H   0  0  0  0  0  0  0  0  0  0  0  0
  137.9676   76.7058  219.8568 H   0  0  0  0  0  0  0  0  0  0  0  0
  138.3543   78.4685  220.3094 H   0  0  0  0  0  0  0  0  0  0  0  0
  137.7775   78.4579  217.9480 H   0  0  0  0  0  0  0  0  0  0  0  0
  139.3997   78.1739  216.3720 H   0  0  0  0  0  0  0  0  0  0  0  0
  141.0486   76.6183  215.4796 H   0  0  0  0  0  0  0  0  0  0  0  0
  143.3617   75.7118  215.5789 H   0  0  0  0  0  0  0  0  0  0  0  0
  144.6732   75.8637  217.6890 H   0  0  0  0  0  0  0  0  0  0  0  0
  143.6613   76.8881  219.7185 H   0  0  0  0  0  0  0  0  0  0  0  0
  141.8772   77.8930  220.7671 H   0  0  0  0  0  0  0  0  0  0  0  0
  139.1574   79.7217  221.3416 H   0  0  0  0  0  0  0  0  0  0  0  0
  139.3130   82.2280  220.6530 H   0  0  0  0  0  0  0  0  0  0  0  0
  140.8454   83.7021  218.9251 H   0  0  0  0  0  0  0  0  0  0  0  0
  142.7397   83.5150  217.2716 H   0  0  0  0  0  0  0  0  0  0  0  0
  143.7895   81.2892  216.8081 H   0  0  0  0  0  0  0  0  0  0  0  0
  142.9541   79.2237  217.9883 H   0  0  0  0  0  0  0  0  0  0  0  0
  1  2  2  0
  2  3  2  0
  2  4  1  0
  4  5  1  0
  5  6  2  0
  6  7  1  0
  7  8  2  0
  8  9  1  0
  9 10  2  0
  2 11  1  0
 11 12  1  0
 12 13  1  0
 13 14  2  0
 14 15  1  0
 15 16  2  0
 16 17  1  0
 17 18  2  0
 18 19  1  0
 19 20  2  0
 20 21  1  0
 21 22  1  0
 22 23  2  0
 23 24  1  0
 24 25  1  0
 25 26  2  0
 26 27  1  0
 27 28  2  0
 28 29  1  0
 29 30  2  0
 10  5  1  0
 21 11  1  0
 30 22  1  0
 20 15  1  0
 30 25  1  0
  4 31  1  0
  4 32  1  0
  6 33  1  0
  7 34  1  0
  8 35  1  0
  9 36  1  0
 10 37  1  0
 12 38  1  0
 12 39  1  0
 13 40  1  0
 14 41  1  0
 16 42  1  0
 17 43  1  0
 18 44  1  0
 19 45  1  0
 21 46  1  1
 23 47  1  0
 24 48  1  0
 26 49  1  0
 27 50  1  0
 28 51  1  0
 29 52  1  0
M  END
>  <UniqueID>  (40) 
3

>  <SMILES>  (40) 
O=S(=O)(Cc1ccccc1)N1CC=Cc2ccccc2[C@H]1c1c[nH]c2ccccc12

>  <Energy>  (40) 
108.43193218395871

>  <Genealogy>  (40) 
O=S(=O)(Cc1ccccc1)N1CC=Cc2ccccc2[C@H]1c1c[nH]c2ccccc12 (3D coordinates assigned)
O=S(=O)(Cc1ccccc1)N1CC=Cc2ccccc2[C@H]1c1c[nH]c2ccccc12 (nonaromatic ring conformer: 108.43193218395871 kcal/mol)

>  <smiles>  (40) 
O=S(=O)(Cc1ccccc1)N1CC=Cc2ccccc2[C@H]1c1c[nH]c2ccccc12

>  <score_type>  (40) 
oracle

>  <origin>  (40) 
autodockgpu

>  <m_score__min__energy>  (40) 
-6.2800000000000002

>  <m_primary>  (40) 
energy

>  <meeko>  (40) 
{"free_energy": -4.84, "intermolecular_energy": -7.53, "internal_energy": -2.72, "cluster_size": 4, "cluster_id": 5, "rank_in_cluster": 1}

>  <energy>  (40) 
-4.21

>  <cluster_rmsd>  (40) 
0.0

>  <rmsd>  (40) 
269.92

>  <cluster>  (40) 
9

$$$$
GKGZHBJKEIVYHI-VWLOTQADNA-N
     RDKit          3D

 52 56  0  0  0  0  0  0  0  0999 V2000
  138.7220   77.1350  219.8350 O   0  0  0  0  0  0  0  0  0  0  0  0
  138.8740   75.6600  220.0860 S   0  0  0  0  0  0  0  0  0  0  0  0
  139.5640   75.0470  218.8990 O   0  0  0  0  0  0  0  0  0  0  0  0
  137.2430   74.9340  220.2380 C   0  0  0  0  0  0  0  0  0  0  0  0
  136.6670   75.2250  221.5950 C   0  0  0  0  0  0  0  0  0  0  0  0
  136.3900   76.5480  221.9790 C   0  0  0  0  0  0  0  0  0  0  0  0
  135.8250   76.8140  223.2300 C   0  0  0  0  0  0  0  0  0  0  0  0
  135.5260   75.7620  224.1010 C   0  0  0  0  0  0  0  0  0  0  0  0
  135.7880   74.4440  223.7210 C   0  0  0  0  0  0  0  0  0  0  0  0
  136.3530   74.1730  222.4710 C   0  0  0  0  0  0  0  0  0  0  0  0
  139.8520   75.4510  221.5330 N   0  0  0  0  0  0  0  0  0  0  0  0
  140.1900   74.0450  221.8080 C   0  0  0  0  0  0  0  0  0  0  0  0
  141.5260   73.5280  221.3010 C   0  0  0  0  0  0  0  0  0  0  0  0
  142.5000   74.1460  220.6050 C   0  0  0  0  0  0  0  0  0  0  0  0
  142.4830   75.4870  219.9680 C   0  0  0  0  0  0  0  0  0  0  0  0
  143.2590   75.6570  218.8080 C   0  0  0  0  0  0  0  0  0  0  0  0
  143.2770   76.8750  218.1300 C   0  0  0  0  0  0  0  0  0  0  0  0
  142.5230   77.9450  218.6010 C   0  0  0  0  0  0  0  0  0  0  0  0
  141.7660   77.8070  219.7640 C   0  0  0  0  0  0  0  0  0  0  0  0
  141.7600   76.5890  220.4810 C   0  0  0  0  0  0  0  0  0  0  0  0
  140.9490   76.4140  221.7470 C   0  0  1  0  0  0  0  0  0  0  0  0
  140.4430   77.6960  222.3780 C   0  0  0  0  0  0  0  0  0  0  0  0
  139.1450   77.9930  222.7990 C   0  0  0  0  0  0  0  0  0  0  0  0
  139.1020   79.2120  223.3830 N   0  0  0  0  0  0  0  0  0  0  0  0
  140.3590   79.6830  223.3560 C   0  0  0  0  0  0  0  0  0  0  0  0
  140.8170   80.8970  223.8650 C   0  0  0  0  0  0  0  0  0  0  0  0
  142.1910   81.1820  223.7510 C   0  0  0  0  0  0  0  0  0  0  0  0
  143.0650   80.2540  223.1440 C   0  0  0  0  0  0  0  0  0  0  0  0
  142.5760   79.0350  222.6430 C   0  0  0  0  0  0  0  0  0  0  0  0
  141.2070   78.7840  222.7620 C   0  0  0  0  0  0  0  0  0  0  0  0
  136.5840   75.3573  219.4657 H   0  0  0  0  0  0  0  0  0  0  0  0
  137.3229   73.8445  220.1094 H   0  0  0  0  0  0  0  0  0  0  0  0
  136.6184   77.3771  221.2932 H   0  0  0  0  0  0  0  0  0  0  0  0
  135.6156   77.8516  223.5291 H   0  0  0  0  0  0  0  0  0  0  0  0
  135.0842   75.9726  225.0861 H   0  0  0  0  0  0  0  0  0  0  0  0
  135.5494   73.6174  224.4064 H   0  0  0  0  0  0  0  0  0  0  0  0
  136.5521   73.1330  222.1729 H   0  0  0  0  0  0  0  0  0  0  0  0
  140.1791   73.9119  222.8999 H   0  0  0  0  0  0  0  0  0  0  0  0
  139.4383   73.4645  221.2531 H   0  0  0  0  0  0  0  0  0  0  0  0
  141.7319   72.4747  221.5422 H   0  0  0  0  0  0  0  0  0  0  0  0
  143.4362   73.5794  220.4934 H   0  0  0  0  0  0  0  0  0  0  0  0
  143.8604   74.8171  218.4300 H   0  0  0  0  0  0  0  0  0  0  0  0
  143.8876   76.9900  217.2223 H   0  0  0  0  0  0  0  0  0  0  0  0
  142.5239   78.9004  218.0558 H   0  0  0  0  0  0  0  0  0  0  0  0
  141.1671   78.6552  220.1273 H   0  0  0  0  0  0  0  0  0  0  0  0
  141.6570   76.0105  222.4858 H   0  0  0  0  0  0  0  0  0  0  0  0
  138.2780   77.3278  222.6731 H   0  0  0  0  0  0  0  0  0  0  0  0
  138.2620   79.6790  223.7910 H   0  0  0  0  0  0  0  0  0  0  0  0
  140.1270   81.6096  224.3406 H   0  0  0  0  0  0  0  0  0  0  0  0
  142.5859   82.1333  224.1371 H   0  0  0  0  0  0  0  0  0  0  0  0
  144.1370   80.4867  223.0625 H   0  0  0  0  0  0  0  0  0  0  0  0
  143.2491   78.3030  222.1728 H   0  0  0  0  0  0  0  0  0  0  0  0
  1  2  2  0
  2  3  2  0
  2  4  1  0
  4  5  1  0
  5  6  2  0
  6  7  1  0
  7  8  2  0
  8  9  1  0
  9 10  2  0
  2 11  1  0
 11 12  1  0
 12 13  1  0
 13 14  2  0
 14 15  1  0
 15 16  2  0
 16 17  1  0
 17 18  2  0
 18 19  1  0
 19 20  2  0
 20 21  1  0
 21 22  1  0
 22 23  2  0
 23 24  1  0
 24 25  1  0
 25 26  2  0
 26 27  1  0
 27 28  2  0
 28 29  1  0
 29 30  2  0
 10  5  1  0
 21 11  1  0
 30 22  1  0
 20 15  1  0
 30 25  1  0
  4 31  1  0
  4 32  1  0
  6 33  1  0
  7 34  1  0
  8 35  1  0
  9 36  1  0
 10 37  1  0
 12 38  1  0
 12 39  1  0
 13 40  1  0
 14 41  1  0
 16 42  1  0
 17 43  1  0
 18 44  1  0
 19 45  1  0
 21 46  1  1
 23 47  1  0
 24 48  1  0
 26 49  1  0
 27 50  1  0
 28 51  1  0
 29 52  1  0
M  END
>  <UniqueID>  (41) 
4

>  <SMILES>  (41) 
O=S(=O)(Cc1ccccc1)N1CC=Cc2ccccc2[C@H]1c1c[nH]c2ccccc12

>  <Energy>  (41) 
110.87500376130352

>  <Genealogy>  (41) 
O=S(=O)(Cc1ccccc1)N1CC=Cc2ccccc2[C@H]1c1c[nH]c2ccccc12 (3D coordinates assigned)
O=S(=O)(Cc1ccccc1)N1CC=Cc2ccccc2[C@H]1c1c[nH]c2ccccc12 (nonaromatic ring conformer: 110.87500376130352 kcal/mol)

>  <smiles>  (41) 
O=S(=O)(Cc1ccccc1)N1CC=Cc2ccccc2[C@H]1c1c[nH]c2ccccc12

>  <score_type>  (41) 
oracle

>  <origin>  (41) 
autodockgpu

>  <m_score__min__energy>  (41) 
-6.2800000000000002

>  <m_primary>  (41) 
energy

>  <meeko>  (41) 
{"free_energy": -5.09, "intermolecular_energy": -7.77, "internal_energy": -2.73, "cluster_size": 2, "cluster_id": 4, "rank_in_cluster": 2}

>  <energy>  (41) 
-6.28

>  <cluster_rmsd>  (41) 
0.0

>  <rmsd>  (41) 
269.78

>  <cluster>  (41) 
1

$$$$
GKGZHBJKEIVYHI-VWLOTQADNA-N
     RDKit          3D

 52 56  0  0  0  0  0  0  0  0999 V2000
  138.5180   78.0750  222.3600 O   0  0  0  0  0  0  0  0  0  0  0  0
  139.5520   77.1330  221.8090 S   0  0  0  0  0  0  0  0  0  0  0  0
  139.0170   75.7310  221.9120 O   0  0  0  0  0  0  0  0  0  0  0  0
  141.0320   77.2560  222.8110 C   0  0  0  0  0  0  0  0  0  0  0  0
  141.3740   78.6970  223.0610 C   0  0  0  0  0  0  0  0  0  0  0  0
  142.6290   79.2040  222.6820 C   0  0  0  0  0  0  0  0  0  0  0  0
  142.9340   80.5530  222.8870 C   0  0  0  0  0  0  0  0  0  0  0  0
  141.9870   81.4050  223.4630 C   0  0  0  0  0  0  0  0  0  0  0  0
  140.7330   80.9110  223.8310 C   0  0  0  0  0  0  0  0  0  0  0  0
  140.4240   79.5620  223.6280 C   0  0  0  0  0  0  0  0  0  0  0  0
  139.8310   77.5550  220.1240 N   0  0  0  0  0  0  0  0  0  0  0  0
  138.6310   78.0730  219.4480 C   0  0  0  0  0  0  0  0  0  0  0  0
  138.7390   78.3970  217.9680 C   0  0  0  0  0  0  0  0  0  0  0  0
  139.7900   78.3300  217.1310 C   0  0  0  0  0  0  0  0  0  0  0  0
  141.1150   77.6970  217.3490 C   0  0  0  0  0  0  0  0  0  0  0  0
  141.7300   77.0960  216.2350 C   0  0  0  0  0  0  0  0  0  0  0  0
  142.9880   76.5050  216.3450 C   0  0  0  0  0  0  0  0  0  0  0  0
  143.6500   76.5000  217.5680 C   0  0  0  0  0  0  0  0  0  0  0  0
  143.0490   77.0680  218.6900 C   0  0  0  0  0  0  0  0  0  0  0  0
  141.7610   77.6440  218.6050 C   0  0  0  0  0  0  0  0  0  0  0  0
  141.0850   78.2650  219.8090 C   0  0  1  0  0  0  0  0  0  0  0  0
  140.8670   79.7630  219.7300 C   0  0  0  0  0  0  0  0  0  0  0  0
  139.9820   80.5430  220.4780 C   0  0  0  0  0  0  0  0  0  0  0  0
  140.1310   81.8530  220.1760 N   0  0  0  0  0  0  0  0  0  0  0  0
  141.1120   81.9150  219.2620 C   0  0  0  0  0  0  0  0  0  0  0  0
  141.6380   83.0600  218.6640 C   0  0  0  0  0  0  0  0  0  0  0  0
  142.6890   82.8970  217.7420 C   0  0  0  0  0  0  0  0  0  0  0  0
  143.1880   81.6090  217.4480 C   0  0  0  0  0  0  0  0  0  0  0  0
  142.6410   80.4720  218.0690 C   0  0  0  0  0  0  0  0  0  0  0  0
  141.5930   80.6640  218.9720 C   0  0  0  0  0  0  0  0  0  0  0  0
  140.8616   76.7512  223.7734 H   0  0  0  0  0  0  0  0  0  0  0  0
  141.8663   76.7777  222.2771 H   0  0  0  0  0  0  0  0  0  0  0  0
  143.3736   78.5373  222.2226 H   0  0  0  0  0  0  0  0  0  0  0  0
  143.9197   80.9442  222.5949 H   0  0  0  0  0  0  0  0  0  0  0  0
  142.2294   82.4654  223.6266 H   0  0  0  0  0  0  0  0  0  0  0  0
  139.9879   81.5837  224.2808 H   0  0  0  0  0  0  0  0  0  0  0  0
  139.4337   79.1774  223.9134 H   0  0  0  0  0  0  0  0  0  0  0  0
  137.8383   77.3190  219.5623 H   0  0  0  0  0  0  0  0  0  0  0  0
  138.4359   79.0417  219.9312 H   0  0  0  0  0  0  0  0  0  0  0  0
  137.8037   78.7435  217.5042 H   0  0  0  0  0  0  0  0  0  0  0  0
  139.6483   78.8097  216.1513 H   0  0  0  0  0  0  0  0  0  0  0  0
  141.2115   77.0925  215.2649 H   0  0  0  0  0  0  0  0  0  0  0  0
  143.4571   76.0425  215.4641 H   0  0  0  0  0  0  0  0  0  0  0  0
  144.6491   76.0472  217.6500 H   0  0  0  0  0  0  0  0  0  0  0  0
  143.5827   77.0680  219.6519 H   0  0  0  0  0  0  0  0  0  0  0  0
  141.7993   78.1388  220.6360 H   0  0  0  0  0  0  0  0  0  0  0  0
  139.2637   80.1469  221.2109 H   0  0  0  0  0  0  0  0  0  0  0  0
  139.6020   82.6530  220.5900 H   0  0  0  0  0  0  0  0  0  0  0  0
  141.2441   84.0584  218.9052 H   0  0  0  0  0  0  0  0  0  0  0  0
  143.1242   83.7780  217.2476 H   0  0  0  0  0  0  0  0  0  0  0  0
  144.0112   81.4942  216.7274 H   0  0  0  0  0  0  0  0  0  0  0  0
  143.0258   79.4649  217.8508 H   0  0  0  0  0  0  0  0  0  0  0  0
  1  2  2  0
  2  3  2  0
  2  4  1  0
  4  5  1  0
  5  6  2  0
  6  7  1  0
  7  8  2  0
  8  9  1  0
  9 10  2  0
  2 11  1  0
 11 12  1  0
 12 13  1  0
 13 14  2  0
 14 15  1  0
 15 16  2  0
 16 17  1  0
 17 18  2  0
 18 19  1  0
 19 20  2  0
 20 21  1  0
 21 22  1  0
 22 23  2  0
 23 24  1  0
 24 25  1  0
 25 26  2  0
 26 27  1  0
 27 28  2  0
 28 29  1  0
 29 30  2  0
 10  5  1  0
 21 11  1  0
 30 22  1  0
 20 15  1  0
 30 25  1  0
  4 31  1  0
  4 32  1  0
  6 33  1  0
  7 34  1  0
  8 35  1  0
  9 36  1  0
 10 37  1  0
 12 38  1  0
 12 39  1  0
 13 40  1  0
 14 41  1  0
 16 42  1  0
 17 43  1  0
 18 44  1  0
 19 45  1  0
 21 46  1  1
 23 47  1  0
 24 48  1  0
 26 49  1  0
 27 50  1  0
 28 51  1  0
 29 52  1  0
M  END
>  <UniqueID>  (42) 
4

>  <SMILES>  (42) 
O=S(=O)(Cc1ccccc1)N1CC=Cc2ccccc2[C@H]1c1c[nH]c2ccccc12

>  <Energy>  (42) 
110.87500376130352

>  <Genealogy>  (42) 
O=S(=O)(Cc1ccccc1)N1CC=Cc2ccccc2[C@H]1c1c[nH]c2ccccc12 (3D coordinates assigned)
O=S(=O)(Cc1ccccc1)N1CC=Cc2ccccc2[C@H]1c1c[nH]c2ccccc12 (nonaromatic ring conformer: 110.87500376130352 kcal/mol)

>  <smiles>  (42) 
O=S(=O)(Cc1ccccc1)N1CC=Cc2ccccc2[C@H]1c1c[nH]c2ccccc12

>  <score_type>  (42) 
oracle

>  <origin>  (42) 
autodockgpu

>  <m_score__min__energy>  (42) 
-6.2800000000000002

>  <m_primary>  (42) 
energy

>  <meeko>  (42) 
{"free_energy": -4.63, "intermolecular_energy": -7.31, "internal_energy": -2.78, "cluster_size": 4, "cluster_id": 5, "rank_in_cluster": 4}

>  <energy>  (42) 
-5.87

>  <cluster_rmsd>  (42) 
0.2

>  <rmsd>  (42) 
269.79

>  <cluster>  (42) 
1

$$$$
GKGZHBJKEIVYHI-VWLOTQADNA-N
     RDKit          3D

 52 56  0  0  0  0  0  0  0  0999 V2000
  138.6140   77.6320  222.6640 O   0  0  0  0  0  0  0  0  0  0  0  0
  139.7770   76.8470  222.1220 S   0  0  0  0  0  0  0  0  0  0  0  0
  139.4920   75.3840  222.3200 O   0  0  0  0  0  0  0  0  0  0  0  0
  141.2430   77.2760  223.0570 C   0  0  0  0  0  0  0  0  0  0  0  0
  141.4000   78.7680  223.1260 C   0  0  0  0  0  0  0  0  0  0  0  0
  140.3980   79.5610  223.7120 C   0  0  0  0  0  0  0  0  0  0  0  0
  140.5600   80.9460  223.8030 C   0  0  0  0  0  0  0  0  0  0  0  0
  141.7250   81.5490  223.3180 C   0  0  0  0  0  0  0  0  0  0  0  0
  142.7300   80.7670  222.7450 C   0  0  0  0  0  0  0  0  0  0  0  0
  142.5720   79.3790  222.6510 C   0  0  0  0  0  0  0  0  0  0  0  0
  139.9280   77.2110  220.4080 N   0  0  0  0  0  0  0  0  0  0  0  0
  138.6560   77.6090  219.7840 C   0  0  0  0  0  0  0  0  0  0  0  0
  138.6860   78.0220  218.3220 C   0  0  0  0  0  0  0  0  0  0  0  0
  139.6530   77.8950  217.3950 C   0  0  0  0  0  0  0  0  0  0  0  0
  141.0260   77.3530  217.5490 C   0  0  0  0  0  0  0  0  0  0  0  0
  141.6120   76.7570  216.4180 C   0  0  0  0  0  0  0  0  0  0  0  0
  142.9100   76.2490  216.4670 C   0  0  0  0  0  0  0  0  0  0  0  0
  143.6420   76.3240  217.6470 C   0  0  0  0  0  0  0  0  0  0  0  0
  143.0730   76.8880  218.7880 C   0  0  0  0  0  0  0  0  0  0  0  0
  141.7480   77.3800  218.7650 C   0  0  0  0  0  0  0  0  0  0  0  0
  141.1050   77.9950  219.9900 C   0  0  1  0  0  0  0  0  0  0  0  0
  140.7760   79.4700  219.8780 C   0  0  0  0  0  0  0  0  0  0  0  0
  139.8330   80.1980  220.6080 C   0  0  0  0  0  0  0  0  0  0  0  0
  139.8840   81.5080  220.2780 N   0  0  0  0  0  0  0  0  0  0  0  0
  140.8600   81.6240  219.3640 C   0  0  0  0  0  0  0  0  0  0  0  0
  141.2990   82.7920  218.7410 C   0  0  0  0  0  0  0  0  0  0  0  0
  142.3620   82.6890  217.8250 C   0  0  0  0  0  0  0  0  0  0  0  0
  142.9580   81.4360  217.5590 C   0  0  0  0  0  0  0  0  0  0  0  0
  142.4960   80.2750  218.2050 C   0  0  0  0  0  0  0  0  0  0  0  0
  141.4340   80.4070  219.1020 C   0  0  0  0  0  0  0  0  0  0  0  0
  141.1537   76.8731  224.0767 H   0  0  0  0  0  0  0  0  0  0  0  0
  142.1240   76.8465  222.5576 H   0  0  0  0  0  0  0  0  0  0  0  0
  139.4831   79.0896  224.1003 H   0  0  0  0  0  0  0  0  0  0  0  0
  139.7702   81.5628  224.2567 H   0  0  0  0  0  0  0  0  0  0  0  0
  141.8496   82.6397  223.3879 H   0  0  0  0  0  0  0  0  0  0  0  0
  143.6472   81.2422  222.3669 H   0  0  0  0  0  0  0  0  0  0  0  0
  143.3680   78.7654  222.2039 H   0  0  0  0  0  0  0  0  0  0  0  0
  137.9665   76.7563  219.8705 H   0  0  0  0  0  0  0  0  0  0  0  0
  138.3537   78.5184  220.3240 H   0  0  0  0  0  0  0  0  0  0  0  0
  137.7653   78.5044  217.9621 H   0  0  0  0  0  0  0  0  0  0  0  0
  139.3897   78.2403  216.3843 H   0  0  0  0  0  0  0  0  0  0  0  0
  141.0386   76.6906  215.4816 H   0  0  0  0  0  0  0  0  0  0  0  0
  143.3547   75.7890  215.5722 H   0  0  0  0  0  0  0  0  0  0  0  0
  144.6714   75.9378  217.6802 H   0  0  0  0  0  0  0  0  0  0  0  0
  143.6611   76.9508  219.7155 H   0  0  0  0  0  0  0  0  0  0  0  0
  141.8762   77.9486  220.7730 H   0  0  0  0  0  0  0  0  0  0  0  0
  139.1444   79.7652  221.3486 H   0  0  0  0  0  0  0  0  0  0  0  0
  139.2950   82.2750  220.6740 H   0  0  0  0  0  0  0  0  0  0  0  0
  140.8293   83.7625  218.9588 H   0  0  0  0  0  0  0  0  0  0  0  0
  142.7313   83.5897  217.3128 H   0  0  0  0  0  0  0  0  0  0  0  0
  143.7891   81.3678  216.8417 H   0  0  0  0  0  0  0  0  0  0  0  0
  142.9563   79.2952  218.0099 H   0  0  0  0  0  0  0  0  0  0  0  0
  1  2  2  0
  2  3  2  0
  2  4  1  0
  4  5  1  0
  5  6  2  0
  6  7  1  0
  7  8  2  0
  8  9  1  0
  9 10  2  0
  2 11  1  0
 11 12  1  0
 12 13  1  0
 13 14  2  0
 14 15  1  0
 15 16  2  0
 16 17  1  0
 17 18  2  0
 18 19  1  0
 19 20  2  0
 20 21  1  0
 21 22  1  0
 22 23  2  0
 23 24  1  0
 24 25  1  0
 25 26  2  0
 26 27  1  0
 27 28  2  0
 28 29  1  0
 29 30  2  0
 10  5  1  0
 21 11  1  0
 30 22  1  0
 20 15  1  0
 30 25  1  0
  4 31  1  0
  4 32  1  0
  6 33  1  0
  7 34  1  0
  8 35  1  0
  9 36  1  0
 10 37  1  0
 12 38  1  0
 12 39  1  0
 13 40  1  0
 14 41  1  0
 16 42  1  0
 17 43  1  0
 18 44  1  0
 19 45  1  0
 21 46  1  1
 23 47  1  0
 24 48  1  0
 26 49  1  0
 27 50  1  0
 28 51  1  0
 29 52  1  0
M  END
>  <UniqueID>  (43) 
4

>  <SMILES>  (43) 
O=S(=O)(Cc1ccccc1)N1CC=Cc2ccccc2[C@H]1c1c[nH]c2ccccc12

>  <Energy>  (43) 
110.87500376130352

>  <Genealogy>  (43) 
O=S(=O)(Cc1ccccc1)N1CC=Cc2ccccc2[C@H]1c1c[nH]c2ccccc12 (3D coordinates assigned)
O=S(=O)(Cc1ccccc1)N1CC=Cc2ccccc2[C@H]1c1c[nH]c2ccccc12 (nonaromatic ring conformer: 110.87500376130352 kcal/mol)

>  <smiles>  (43) 
O=S(=O)(Cc1ccccc1)N1CC=Cc2ccccc2[C@H]1c1c[nH]c2ccccc12

>  <score_type>  (43) 
oracle

>  <origin>  (43) 
autodockgpu

>  <m_score__min__energy>  (43) 
-6.2800000000000002

>  <m_primary>  (43) 
energy

>  <meeko>  (43) 
{"free_energy": -4.78, "intermolecular_energy": -7.46, "internal_energy": -2.72, "cluster_size": 4, "cluster_id": 5, "rank_in_cluster": 3}

>  <energy>  (43) 
-5.84

>  <cluster_rmsd>  (43) 
0.0

>  <rmsd>  (43) 
270.43

>  <cluster>  (43) 
2

$$$$
GKGZHBJKEIVYHI-VWLOTQADNA-N
     RDKit          3D

 52 56  0  0  0  0  0  0  0  0999 V2000
  138.7240   77.3800  219.7340 O   0  0  0  0  0  0  0  0  0  0  0  0
  138.6820   75.9120  220.0590 S   0  0  0  0  0  0  0  0  0  0  0  0
  139.3560   75.1620  218.9440 O   0  0  0  0  0  0  0  0  0  0  0  0
  136.9690   75.3950  220.1430 C   0  0  0  0  0  0  0  0  0  0  0  0
  136.5190   75.3090  221.5740 C   0  0  0  0  0  0  0  0  0  0  0  0
  136.3080   76.4800  222.3230 C   0  0  0  0  0  0  0  0  0  0  0  0
  135.8590   76.3990  223.6440 C   0  0  0  0  0  0  0  0  0  0  0  0
  135.6120   75.1510  224.2240 C   0  0  0  0  0  0  0  0  0  0  0  0
  135.8090   73.9840  223.4830 C   0  0  0  0  0  0  0  0  0  0  0  0
  136.2580   74.0600  222.1600 C   0  0  0  0  0  0  0  0  0  0  0  0
  139.5460   75.6630  221.5700 N   0  0  0  0  0  0  0  0  0  0  0  0
  139.7490   74.2410  221.8960 C   0  0  0  0  0  0  0  0  0  0  0  0
  141.1080   73.6350  221.5940 C   0  0  0  0  0  0  0  0  0  0  0  0
  142.1450   74.1170  220.8850 C   0  0  0  0  0  0  0  0  0  0  0  0
  142.2790   75.4300  220.2050 C   0  0  0  0  0  0  0  0  0  0  0  0
  143.1460   75.4940  219.0990 C   0  0  0  0  0  0  0  0  0  0  0  0
  143.3080   76.6810  218.3850 C   0  0  0  0  0  0  0  0  0  0  0  0
  142.6100   77.8220  218.7650 C   0  0  0  0  0  0  0  0  0  0  0  0
  141.7640   77.7880  219.8730 C   0  0  0  0  0  0  0  0  0  0  0  0
  141.6120   76.6030  220.6280 C   0  0  0  0  0  0  0  0  0  0  0  0
  140.7020   76.5390  221.8360 C   0  0  1  0  0  0  0  0  0  0  0  0
  140.2640   77.8790  222.3910 C   0  0  0  0  0  0  0  0  0  0  0  0
  138.9670   78.3060  222.6850 C   0  0  0  0  0  0  0  0  0  0  0  0
  138.9860   79.5390  223.2380 N   0  0  0  0  0  0  0  0  0  0  0  0
  140.2790   79.8930  223.3170 C   0  0  0  0  0  0  0  0  0  0  0  0
  140.8010   81.0750  223.8400 C   0  0  0  0  0  0  0  0  0  0  0  0
  142.1990   81.2300  223.8470 C   0  0  0  0  0  0  0  0  0  0  0  0
  143.0340   80.2090  223.3420 C   0  0  0  0  0  0  0  0  0  0  0  0
  142.4800   79.0250  222.8230 C   0  0  0  0  0  0  0  0  0  0  0  0
  141.0890   78.9040  222.8210 C   0  0  0  0  0  0  0  0  0  0  0  0
  136.3431   76.1253  219.6092 H   0  0  0  0  0  0  0  0  0  0  0  0
  136.8717   74.4031  219.6775 H   0  0  0  0  0  0  0  0  0  0  0  0
  136.4970   77.4633  221.8677 H   0  0  0  0  0  0  0  0  0  0  0  0
  135.6998   77.3176  224.2278 H   0  0  0  0  0  0  0  0  0  0  0  0
  135.2622   75.0884  225.2650 H   0  0  0  0  0  0  0  0  0  0  0  0
  135.6109   73.0033  223.9401 H   0  0  0  0  0  0  0  0  0  0  0  0
  136.4069   73.1389  221.5775 H   0  0  0  0  0  0  0  0  0  0  0  0
  139.5686   74.1222  222.9746 H   0  0  0  0  0  0  0  0  0  0  0  0
  139.0517   73.7024  221.2374 H   0  0  0  0  0  0  0  0  0  0  0  0
  141.2719   72.6369  222.0263 H   0  0  0  0  0  0  0  0  0  0  0  0
  143.0124   73.4463  220.7971 H   0  0  0  0  0  0  0  0  0  0  0  0
  143.7033   74.5962  218.7934 H   0  0  0  0  0  0  0  0  0  0  0  0
  143.9881   76.7146  217.5211 H   0  0  0  0  0  0  0  0  0  0  0  0
  142.7254   78.7530  218.1906 H   0  0  0  0  0  0  0  0  0  0  0  0
  141.2093   78.6928  220.1623 H   0  0  0  0  0  0  0  0  0  0  0  0
  141.3189   76.1041  222.6362 H   0  0  0  0  0  0  0  0  0  0  0  0
  138.0562   77.7198  222.4930 H   0  0  0  0  0  0  0  0  0  0  0  0
  138.1600   80.0930  223.5570 H   0  0  0  0  0  0  0  0  0  0  0  0
  140.1407   81.8614  224.2346 H   0  0  0  0  0  0  0  0  0  0  0  0
  142.6447   82.1521  224.2483 H   0  0  0  0  0  0  0  0  0  0  0  0
  144.1260   80.3408  223.3547 H   0  0  0  0  0  0  0  0  0  0  0  0
  143.1211   78.2213  222.4318 H   0  0  0  0  0  0  0  0  0  0  0  0
  1  2  2  0
  2  3  2  0
  2  4  1  0
  4  5  1  0
  5  6  2  0
  6  7  1  0
  7  8  2  0
  8  9  1  0
  9 10  2  0
  2 11  1  0
 11 12  1  0
 12 13  1  0
 13 14  2  0
 14 15  1  0
 15 16  2  0
 16 17  1  0
 17 18  2  0
 18 19  1  0
 19 20  2  0
 20 21  1  0
 21 22  1  0
 22 23  2  0
 23 24  1  0
 24 25  1  0
 25 26  2  0
 26 27  1  0
 27 28  2  0
 28 29  1  0
 29 30  2  0
 10  5  1  0
 21 11  1  0
 30 22  1  0
 20 15  1  0
 30 25  1  0
  4 31  1  0
  4 32  1  0
  6 33  1  0
  7 34  1  0
  8 35  1  0
  9 36  1  0
 10 37  1  0
 12 38  1  0
 12 39  1  0
 13 40  1  0
 14 41  1  0
 16 42  1  0
 17 43  1  0
 18 44  1  0
 19 45  1  0
 21 46  1  1
 23 47  1  0
 24 48  1  0
 26 49  1  0
 27 50  1  0
 28 51  1  0
 29 52  1  0
M  END
>  <UniqueID>  (44) 
4

>  <SMILES>  (44) 
O=S(=O)(Cc1ccccc1)N1CC=Cc2ccccc2[C@H]1c1c[nH]c2ccccc12

>  <Energy>  (44) 
110.87500376130352

>  <Genealogy>  (44) 
O=S(=O)(Cc1ccccc1)N1CC=Cc2ccccc2[C@H]1c1c[nH]c2ccccc12 (3D coordinates assigned)
O=S(=O)(Cc1ccccc1)N1CC=Cc2ccccc2[C@H]1c1c[nH]c2ccccc12 (nonaromatic ring conformer: 110.87500376130352 kcal/mol)

>  <smiles>  (44) 
O=S(=O)(Cc1ccccc1)N1CC=Cc2ccccc2[C@H]1c1c[nH]c2ccccc12

>  <score_type>  (44) 
oracle

>  <origin>  (44) 
autodockgpu

>  <m_score__min__energy>  (44) 
-6.2800000000000002

>  <m_primary>  (44) 
energy

>  <meeko>  (44) 
{"free_energy": -5.23, "intermolecular_energy": -7.91, "internal_energy": -2.76, "cluster_size": 2, "cluster_id": 4, "rank_in_cluster": 1}

>  <energy>  (44) 
-5.79

>  <cluster_rmsd>  (44) 
1.47

>  <rmsd>  (44) 
270.61

>  <cluster>  (44) 
2

$$$$
GKGZHBJKEIVYHI-VWLOTQADNA-N
     RDKit          3D

 52 56  0  0  0  0  0  0  0  0999 V2000
  136.6880   78.7660  223.3880 O   0  0  0  0  0  0  0  0  0  0  0  0
  137.8570   79.6760  223.1320 S   0  0  0  0  0  0  0  0  0  0  0  0
  138.9180   79.3820  224.1560 O   0  0  0  0  0  0  0  0  0  0  0  0
  137.3180   81.3720  223.3380 C   0  0  0  0  0  0  0  0  0  0  0  0
  136.6930   81.5600  224.6910 C   0  0  0  0  0  0  0  0  0  0  0  0
  135.3510   81.2010  224.9090 C   0  0  0  0  0  0  0  0  0  0  0  0
  134.7820   81.3480  226.1770 C   0  0  0  0  0  0  0  0  0  0  0  0
  135.5470   81.8450  227.2360 C   0  0  0  0  0  0  0  0  0  0  0  0
  136.8840   82.1930  227.0290 C   0  0  0  0  0  0  0  0  0  0  0  0
  137.4590   82.0480  225.7620 C   0  0  0  0  0  0  0  0  0  0  0  0
  138.4630   79.3440  221.5150 N   0  0  0  0  0  0  0  0  0  0  0  0
  138.0880   80.3720  220.5310 C   0  0  0  0  0  0  0  0  0  0  0  0
  139.1290   81.4190  220.1730 C   0  0  0  0  0  0  0  0  0  0  0  0
  140.3050   81.7110  220.7570 C   0  0  0  0  0  0  0  0  0  0  0  0
  140.9770   81.0460  221.9010 C   0  0  0  0  0  0  0  0  0  0  0  0
  141.8710   81.8230  222.6600 C   0  0  0  0  0  0  0  0  0  0  0  0
  142.5220   81.2860  223.7700 C   0  0  0  0  0  0  0  0  0  0  0  0
  142.2940   79.9640  224.1380 C   0  0  0  0  0  0  0  0  0  0  0  0
  141.4300   79.1680  223.3860 C   0  0  0  0  0  0  0  0  0  0  0  0
  140.7860   79.6860  222.2400 C   0  0  0  0  0  0  0  0  0  0  0  0
  139.8460   78.8440  221.4050 C   0  0  1  0  0  0  0  0  0  0  0  0
  139.9160   77.3510  221.6550 C   0  0  0  0  0  0  0  0  0  0  0  0
  139.0020   76.5510  222.3470 C   0  0  0  0  0  0  0  0  0  0  0  0
  139.3710   75.2520  222.2920 N   0  0  0  0  0  0  0  0  0  0  0  0
  140.4950   75.2140  221.5580 C   0  0  0  0  0  0  0  0  0  0  0  0
  141.2360   74.0870  221.2060 C   0  0  0  0  0  0  0  0  0  0  0  0
  142.3760   74.2730  220.4020 C   0  0  0  0  0  0  0  0  0  0  0  0
  142.7410   75.5670  219.9700 C   0  0  0  0  0  0  0  0  0  0  0  0
  141.9730   76.6860  220.3380 C   0  0  0  0  0  0  0  0  0  0  0  0
  140.8520   76.4710  221.1430 C   0  0  0  0  0  0  0  0  0  0  0  0
  138.1849   82.0424  223.2425 H   0  0  0  0  0  0  0  0  0  0  0  0
  136.5726   81.6070  222.5639 H   0  0  0  0  0  0  0  0  0  0  0  0
  134.7476   80.8035  224.0796 H   0  0  0  0  0  0  0  0  0  0  0  0
  133.7300   81.0720  226.3419 H   0  0  0  0  0  0  0  0  0  0  0  0
  135.0962   81.9621  228.2325 H   0  0  0  0  0  0  0  0  0  0  0  0
  137.4857   82.5817  227.8638 H   0  0  0  0  0  0  0  0  0  0  0  0
  138.5139   82.3169  225.6043 H   0  0  0  0  0  0  0  0  0  0  0  0
  137.8116   79.8522  219.6018 H   0  0  0  0  0  0  0  0  0  0  0  0
  137.2786   80.9383  221.0149 H   0  0  0  0  0  0  0  0  0  0  0  0
  138.8817   82.0365  219.2969 H   0  0  0  0  0  0  0  0  0  0  0  0
  140.8464   82.5654  220.3246 H   0  0  0  0  0  0  0  0  0  0  0  0
  142.0590   82.8684  222.3739 H   0  0  0  0  0  0  0  0  0  0  0  0
  143.2159   81.9078  224.3547 H   0  0  0  0  0  0  0  0  0  0  0  0
  142.7957   79.5458  225.0231 H   0  0  0  0  0  0  0  0  0  0  0  0
  141.2481   78.1261  223.6883 H   0  0  0  0  0  0  0  0  0  0  0  0
  140.1996   78.9614  220.3700 H   0  0  0  0  0  0  0  0  0  0  0  0
  138.1069   76.9266  222.8644 H   0  0  0  0  0  0  0  0  0  0  0  0
  138.8680   74.4420  222.7180 H   0  0  0  0  0  0  0  0  0  0  0  0
  140.9390   73.0839  221.5459 H   0  0  0  0  0  0  0  0  0  0  0  0
  142.9859   73.4059  220.1085 H   0  0  0  0  0  0  0  0  0  0  0  0
  143.6332   75.7007  219.3406 H   0  0  0  0  0  0  0  0  0  0  0  0
  142.2461   77.6975  220.0029 H   0  0  0  0  0  0  0  0  0  0  0  0
  1  2  2  0
  2  3  2  0
  2  4  1  0
  4  5  1  0
  5  6  2  0
  6  7  1  0
  7  8  2  0
  8  9  1  0
  9 10  2  0
  2 11  1  0
 11 12  1  0
 12 13  1  0
 13 14  2  0
 14 15  1  0
 15 16  2  0
 16 17  1  0
 17 18  2  0
 18 19  1  0
 19 20  2  0
 20 21  1  0
 21 22  1  0
 22 23  2  0
 23 24  1  0
 24 25  1  0
 25 26  2  0
 26 27  1  0
 27 28  2  0
 28 29  1  0
 29 30  2  0
 10  5  1  0
 21 11  1  0
 30 22  1  0
 20 15  1  0
 30 25  1  0
  4 31  1  0
  4 32  1  0
  6 33  1  0
  7 34  1  0
  8 35  1  0
  9 36  1  0
 10 37  1  0
 12 38  1  0
 12 39  1  0
 13 40  1  0
 14 41  1  0
 16 42  1  0
 17 43  1  0
 18 44  1  0
 19 45  1  0
 21 46  1  6
 23 47  1  0
 24 48  1  0
 26 49  1  0
 27 50  1  0
 28 51  1  0
 29 52  1  0
M  END
>  <UniqueID>  (45) 
4

>  <SMILES>  (45) 
O=S(=O)(Cc1ccccc1)N1CC=Cc2ccccc2[C@H]1c1c[nH]c2ccccc12

>  <Energy>  (45) 
110.87500376130352

>  <Genealogy>  (45) 
O=S(=O)(Cc1ccccc1)N1CC=Cc2ccccc2[C@H]1c1c[nH]c2ccccc12 (3D coordinates assigned)
O=S(=O)(Cc1ccccc1)N1CC=Cc2ccccc2[C@H]1c1c[nH]c2ccccc12 (nonaromatic ring conformer: 110.87500376130352 kcal/mol)

>  <smiles>  (45) 
O=S(=O)(Cc1ccccc1)N1CC=Cc2ccccc2[C@H]1c1c[nH]c2ccccc12

>  <score_type>  (45) 
oracle

>  <origin>  (45) 
autodockgpu

>  <m_score__min__energy>  (45) 
-6.2800000000000002

>  <m_primary>  (45) 
energy

>  <meeko>  (45) 
{"free_energy": -5.52, "intermolecular_energy": -8.2, "internal_energy": -2.08, "cluster_size": 5, "cluster_id": 2, "rank_in_cluster": 4}

>  <energy>  (45) 
-5.72

>  <cluster_rmsd>  (45) 
0.1

>  <rmsd>  (45) 
270.41

>  <cluster>  (45) 
2

$$$$
GKGZHBJKEIVYHI-VWLOTQADNA-N
     RDKit          3D

 52 56  0  0  0  0  0  0  0  0999 V2000
  138.5020   79.8430  224.1240 O   0  0  0  0  0  0  0  0  0  0  0  0
  138.0560   80.7970  223.0500 S   0  0  0  0  0  0  0  0  0  0  0  0
  138.9390   82.0140  223.1020 O   0  0  0  0  0  0  0  0  0  0  0  0
  136.3710   81.2990  223.3950 C   0  0  0  0  0  0  0  0  0  0  0  0
  136.1630   81.4460  224.8750 C   0  0  0  0  0  0  0  0  0  0  0  0
  135.0330   80.8820  225.4930 C   0  0  0  0  0  0  0  0  0  0  0  0
  134.8580   80.9930  226.8750 C   0  0  0  0  0  0  0  0  0  0  0  0
  135.8110   81.6600  227.6500 C   0  0  0  0  0  0  0  0  0  0  0  0
  136.9420   82.2130  227.0460 C   0  0  0  0  0  0  0  0  0  0  0  0
  137.1210   82.1040  225.6620 C   0  0  0  0  0  0  0  0  0  0  0  0
  138.2240   79.9880  221.4980 N   0  0  0  0  0  0  0  0  0  0  0  0
  138.2020   80.9150  220.3540 C   0  0  0  0  0  0  0  0  0  0  0  0
  139.5350   81.4000  219.8130 C   0  0  0  0  0  0  0  0  0  0  0  0
  140.7930   81.1260  220.2060 C   0  0  0  0  0  0  0  0  0  0  0  0
  141.2550   80.4010  221.4160 C   0  0  0  0  0  0  0  0  0  0  0  0
  142.4920   80.7880  221.9630 C   0  0  0  0  0  0  0  0  0  0  0  0
  142.9860   80.1800  223.1160 C   0  0  0  0  0  0  0  0  0  0  0  0
  142.2560   79.1740  223.7400 C   0  0  0  0  0  0  0  0  0  0  0  0
  141.0390   78.7570  223.2020 C   0  0  0  0  0  0  0  0  0  0  0  0
  140.5370   79.3400  222.0160 C   0  0  0  0  0  0  0  0  0  0  0  0
  139.2210   78.9050  221.4090 C   0  0  1  0  0  0  0  0  0  0  0  0
  138.6640   77.5970  221.9340 C   0  0  0  0  0  0  0  0  0  0  0  0
  139.3240   76.3730  222.0640 C   0  0  0  0  0  0  0  0  0  0  0  0
  138.5170   75.4560  222.6450 N   0  0  0  0  0  0  0  0  0  0  0  0
  137.3610   76.0900  222.9040 C   0  0  0  0  0  0  0  0  0  0  0  0
  136.2290   75.5610  223.5210 C   0  0  0  0  0  0  0  0  0  0  0  0
  135.1270   76.4140  223.7180 C   0  0  0  0  0  0  0  0  0  0  0  0
  135.1850   77.7630  223.3030 C   0  0  0  0  0  0  0  0  0  0  0  0
  136.3430   78.2700  222.6860 C   0  0  0  0  0  0  0  0  0  0  0  0
  137.4160   77.3970  222.4960 C   0  0  0  0  0  0  0  0  0  0  0  0
  136.1716   82.2625  222.9032 H   0  0  0  0  0  0  0  0  0  0  0  0
  135.6834   80.5306  223.0119 H   0  0  0  0  0  0  0  0  0  0  0  0
  134.2841   80.3516  224.8865 H   0  0  0  0  0  0  0  0  0  0  0  0
  133.9695   80.5551  227.3533 H   0  0  0  0  0  0  0  0  0  0  0  0
  135.6698   81.7494  228.7372 H   0  0  0  0  0  0  0  0  0  0  0  0
  137.6926   82.7345  227.6581 H   0  0  0  0  0  0  0  0  0  0  0  0
  138.0157   82.5356  225.1895 H   0  0  0  0  0  0  0  0  0  0  0  0
  137.6780   80.4080  219.5304 H   0  0  0  0  0  0  0  0  0  0  0  0
  137.7122   81.8212  220.7399 H   0  0  0  0  0  0  0  0  0  0  0  0
  139.4606   82.0891  218.9588 H   0  0  0  0  0  0  0  0  0  0  0  0
  141.5881   81.4895  219.5384 H   0  0  0  0  0  0  0  0  0  0  0  0
  143.0772   81.5809  221.4743 H   0  0  0  0  0  0  0  0  0  0  0  0
  143.9538   80.4961  223.5326 H   0  0  0  0  0  0  0  0  0  0  0  0
  142.6392   78.7067  224.6591 H   0  0  0  0  0  0  0  0  0  0  0  0
  140.4636   77.9662  223.7056 H   0  0  0  0  0  0  0  0  0  0  0  0
  139.4482   78.6975  220.3529 H   0  0  0  0  0  0  0  0  0  0  0  0
  140.3572   76.1812  221.7389 H   0  0  0  0  0  0  0  0  0  0  0  0
  138.7560   74.4640  222.8650 H   0  0  0  0  0  0  0  0  0  0  0  0
  136.1977   74.5099  223.8439 H   0  0  0  0  0  0  0  0  0  0  0  0
  134.2155   76.0281  224.1978 H   0  0  0  0  0  0  0  0  0  0  0  0
  134.3186   78.4216  223.4634 H   0  0  0  0  0  0  0  0  0  0  0  0
  136.4013   79.3201  222.3637 H   0  0  0  0  0  0  0  0  0  0  0  0
  1  2  2  0
  2  3  2  0
  2  4  1  0
  4  5  1  0
  5  6  2  0
  6  7  1  0
  7  8  2  0
  8  9  1  0
  9 10  2  0
  2 11  1  0
 11 12  1  0
 12 13  1  0
 13 14  2  0
 14 15  1  0
 15 16  2  0
 16 17  1  0
 17 18  2  0
 18 19  1  0
 19 20  2  0
 20 21  1  0
 21 22  1  0
 22 23  2  0
 23 24  1  0
 24 25  1  0
 25 26  2  0
 26 27  1  0
 27 28  2  0
 28 29  1  0
 29 30  2  0
 10  5  1  0
 21 11  1  0
 30 22  1  0
 20 15  1  0
 30 25  1  0
  4 31  1  0
  4 32  1  0
  6 33  1  0
  7 34  1  0
  8 35  1  0
  9 36  1  0
 10 37  1  0
 12 38  1  0
 12 39  1  0
 13 40  1  0
 14 41  1  0
 16 42  1  0
 17 43  1  0
 18 44  1  0
 19 45  1  0
 21 46  1  6
 23 47  1  0
 24 48  1  0
 26 49  1  0
 27 50  1  0
 28 51  1  0
 29 52  1  0
M  END
>  <UniqueID>  (46) 
4

>  <SMILES>  (46) 
O=S(=O)(Cc1ccccc1)N1CC=Cc2ccccc2[C@H]1c1c[nH]c2ccccc12

>  <Energy>  (46) 
110.87500376130352

>  <Genealogy>  (46) 
O=S(=O)(Cc1ccccc1)N1CC=Cc2ccccc2[C@H]1c1c[nH]c2ccccc12 (3D coordinates assigned)
O=S(=O)(Cc1ccccc1)N1CC=Cc2ccccc2[C@H]1c1c[nH]c2ccccc12 (nonaromatic ring conformer: 110.87500376130352 kcal/mol)

>  <smiles>  (46) 
O=S(=O)(Cc1ccccc1)N1CC=Cc2ccccc2[C@H]1c1c[nH]c2ccccc12

>  <score_type>  (46) 
oracle

>  <origin>  (46) 
autodockgpu

>  <m_score__min__energy>  (46) 
-6.2800000000000002

>  <m_primary>  (46) 
energy

>  <meeko>  (46) 
{"free_energy": -5.84, "intermolecular_energy": -8.52, "internal_energy": -2.4, "cluster_size": 5, "cluster_id": 2, "rank_in_cluster": 1}

>  <energy>  (46) 
-5.52

>  <cluster_rmsd>  (46) 
1.56

>  <rmsd>  (46) 
270.56

>  <cluster>  (46) 
2

$$$$
GKGZHBJKEIVYHI-VWLOTQADNA-N
     RDKit          3D

 52 56  0  0  0  0  0  0  0  0999 V2000
  138.9170   82.3990  221.1950 O   0  0  0  0  0  0  0  0  0  0  0  0
  139.4290   81.0280  221.5400 S   0  0  0  0  0  0  0  0  0  0  0  0
  139.0630   80.0920  220.4220 O   0  0  0  0  0  0  0  0  0  0  0  0
  138.6180   80.4750  223.0390 C   0  0  0  0  0  0  0  0  0  0  0  0
  137.6860   79.3360  222.7370 C   0  0  0  0  0  0  0  0  0  0  0  0
  136.4360   79.5810  222.1430 C   0  0  0  0  0  0  0  0  0  0  0  0
  135.5830   78.5160  221.8350 C   0  0  0  0  0  0  0  0  0  0  0  0
  135.9750   77.2030  222.1100 C   0  0  0  0  0  0  0  0  0  0  0  0
  137.2200   76.9510  222.6900 C   0  0  0  0  0  0  0  0  0  0  0  0
  138.0770   78.0130  223.0000 C   0  0  0  0  0  0  0  0  0  0  0  0
  141.1770   81.1240  221.7060 N   0  0  0  0  0  0  0  0  0  0  0  0
  141.6180   81.3810  223.0870 C   0  0  0  0  0  0  0  0  0  0  0  0
  142.1060   80.1960  223.9030 C   0  0  0  0  0  0  0  0  0  0  0  0
  142.0290   78.8750  223.6620 C   0  0  0  0  0  0  0  0  0  0  0  0
  141.4710   78.1740  222.4790 C   0  0  0  0  0  0  0  0  0  0  0  0
  140.9870   76.8670  222.6750 C   0  0  0  0  0  0  0  0  0  0  0  0
  140.4190   76.1490  221.6250 C   0  0  0  0  0  0  0  0  0  0  0  0
  140.3280   76.7210  220.3600 C   0  0  0  0  0  0  0  0  0  0  0  0
  140.8230   78.0050  220.1360 C   0  0  0  0  0  0  0  0  0  0  0  0
  141.4300   78.7360  221.1820 C   0  0  0  0  0  0  0  0  0  0  0  0
  141.9780   80.1300  220.9660 C   0  0  1  0  0  0  0  0  0  0  0  0
  142.1640   80.5380  219.5180 C   0  0  0  0  0  0  0  0  0  0  0  0
  142.6210   79.7530  218.4560 C   0  0  0  0  0  0  0  0  0  0  0  0
  142.5770   80.4490  217.2980 N   0  0  0  0  0  0  0  0  0  0  0  0
  142.0800   81.6580  217.6080 C   0  0  0  0  0  0  0  0  0  0  0  0
  141.8280   82.7160  216.7360 C   0  0  0  0  0  0  0  0  0  0  0  0
  141.2780   83.8940  217.2730 C   0  0  0  0  0  0  0  0  0  0  0  0
  140.9900   83.9840  218.6520 C   0  0  0  0  0  0  0  0  0  0  0  0
  141.2520   82.8990  219.5080 C   0  0  0  0  0  0  0  0  0  0  0  0
  141.8060   81.7470  218.9480 C   0  0  0  0  0  0  0  0  0  0  0  0
  139.3779   80.1407  223.7607 H   0  0  0  0  0  0  0  0  0  0  0  0
  138.0388   81.3093  223.4615 H   0  0  0  0  0  0  0  0  0  0  0  0
  136.1276   80.6130  221.9197 H   0  0  0  0  0  0  0  0  0  0  0  0
  134.6028   78.7121  221.3760 H   0  0  0  0  0  0  0  0  0  0  0  0
  135.3019   76.3670  221.8692 H   0  0  0  0  0  0  0  0  0  0  0  0
  137.5274   75.9166  222.9034 H   0  0  0  0  0  0  0  0  0  0  0  0
  139.0597   77.8109  223.4510 H   0  0  0  0  0  0  0  0  0  0  0  0
  142.4414   82.1088  223.0392 H   0  0  0  0  0  0  0  0  0  0  0  0
  140.7130   81.7251  223.6091 H   0  0  0  0  0  0  0  0  0  0  0  0
  142.6046   80.4624  224.8466 H   0  0  0  0  0  0  0  0  0  0  0  0
  142.4357   78.2246  224.4504 H   0  0  0  0  0  0  0  0  0  0  0  0
  141.0582   76.4060  223.6712 H   0  0  0  0  0  0  0  0  0  0  0  0
  140.0424   75.1297  221.7961 H   0  0  0  0  0  0  0  0  0  0  0  0
  139.8648   76.1594  219.5354 H   0  0  0  0  0  0  0  0  0  0  0  0
  140.7402   78.4535  219.1350 H   0  0  0  0  0  0  0  0  0  0  0  0
  142.9998   80.1017  221.3723 H   0  0  0  0  0  0  0  0  0  0  0  0
  142.9682   78.7134  218.5494 H   0  0  0  0  0  0  0  0  0  0  0  0
  142.8550   80.1050  216.3520 H   0  0  0  0  0  0  0  0  0  0  0  0
  142.0521   82.6323  215.6623 H   0  0  0  0  0  0  0  0  0  0  0  0
  141.0710   84.7503  216.6143 H   0  0  0  0  0  0  0  0  0  0  0  0
  140.5575   84.9094  219.0602 H   0  0  0  0  0  0  0  0  0  0  0  0
  141.0276   82.9566  220.5833 H   0  0  0  0  0  0  0  0  0  0  0  0
  1  2  2  0
  2  3  2  0
  2  4  1  0
  4  5  1  0
  5  6  2  0
  6  7  1  0
  7  8  2  0
  8  9  1  0
  9 10  2  0
  2 11  1  0
 11 12  1  0
 12 13  1  0
 13 14  2  0
 14 15  1  0
 15 16  2  0
 16 17  1  0
 17 18  2  0
 18 19  1  0
 19 20  2  0
 20 21  1  0
 21 22  1  0
 22 23  2  0
 23 24  1  0
 24 25  1  0
 25 26  2  0
 26 27  1  0
 27 28  2  0
 28 29  1  0
 29 30  2  0
 10  5  1  0
 21 11  1  0
 30 22  1  0
 20 15  1  0
 30 25  1  0
  4 31  1  0
  4 32  1  0
  6 33  1  0
  7 34  1  0
  8 35  1  0
  9 36  1  0
 10 37  1  0
 12 38  1  0
 12 39  1  0
 13 40  1  0
 14 41  1  0
 16 42  1  0
 17 43  1  0
 18 44  1  0
 19 45  1  0
 21 46  1  1
 23 47  1  0
 24 48  1  0
 26 49  1  0
 27 50  1  0
 28 51  1  0
 29 52  1  0
M  END
>  <UniqueID>  (47) 
4

>  <SMILES>  (47) 
O=S(=O)(Cc1ccccc1)N1CC=Cc2ccccc2[C@H]1c1c[nH]c2ccccc12

>  <Energy>  (47) 
110.87500376130352

>  <Genealogy>  (47) 
O=S(=O)(Cc1ccccc1)N1CC=Cc2ccccc2[C@H]1c1c[nH]c2ccccc12 (3D coordinates assigned)
O=S(=O)(Cc1ccccc1)N1CC=Cc2ccccc2[C@H]1c1c[nH]c2ccccc12 (nonaromatic ring conformer: 110.87500376130352 kcal/mol)

>  <smiles>  (47) 
O=S(=O)(Cc1ccccc1)N1CC=Cc2ccccc2[C@H]1c1c[nH]c2ccccc12

>  <score_type>  (47) 
oracle

>  <origin>  (47) 
autodockgpu

>  <m_score__min__energy>  (47) 
-6.2800000000000002

>  <m_primary>  (47) 
energy

>  <meeko>  (47) 
{"free_energy": -4.97, "intermolecular_energy": -7.65, "internal_energy": -2.73, "cluster_size": 3, "cluster_id": 3, "rank_in_cluster": 2}

>  <energy>  (47) 
-5.3

>  <cluster_rmsd>  (47) 
0.6

>  <rmsd>  (47) 
270.43

>  <cluster>  (47) 
2

$$$$
GKGZHBJKEIVYHI-VWLOTQADNA-N
     RDKit          3D

 52 56  0  0  0  0  0  0  0  0999 V2000
  140.1950   84.2630  221.0810 O   0  0  0  0  0  0  0  0  0  0  0  0
  139.0520   83.3440  220.7520 S   0  0  0  0  0  0  0  0  0  0  0  0
  138.5280   83.7090  219.3910 O   0  0  0  0  0  0  0  0  0  0  0  0
  137.7480   83.5990  221.9540 C   0  0  0  0  0  0  0  0  0  0  0  0
  137.4060   82.3050  222.6350 C   0  0  0  0  0  0  0  0  0  0  0  0
  136.1450   81.7130  222.4430 C   0  0  0  0  0  0  0  0  0  0  0  0
  135.8410   80.4930  223.0530 C   0  0  0  0  0  0  0  0  0  0  0  0
  136.7930   79.8510  223.8510 C   0  0  0  0  0  0  0  0  0  0  0  0
  138.0520   80.4270  224.0370 C   0  0  0  0  0  0  0  0  0  0  0  0
  138.3610   81.6490  223.4290 C   0  0  0  0  0  0  0  0  0  0  0  0
  139.6620   81.6940  220.7460 N   0  0  0  0  0  0  0  0  0  0  0  0
  139.0750   80.8610  219.6850 C   0  0  0  0  0  0  0  0  0  0  0  0
  139.4730   79.3950  219.6370 C   0  0  0  0  0  0  0  0  0  0  0  0
  140.3340   78.6970  220.3980 C   0  0  0  0  0  0  0  0  0  0  0  0
  140.9870   79.0940  221.6700 C   0  0  0  0  0  0  0  0  0  0  0  0
  141.2020   78.0830  222.6240 C   0  0  0  0  0  0  0  0  0  0  0  0
  141.8370   78.3640  223.8340 C   0  0  0  0  0  0  0  0  0  0  0  0
  142.2630   79.6590  224.1120 C   0  0  0  0  0  0  0  0  0  0  0  0
  142.0380   80.6810  223.1910 C   0  0  0  0  0  0  0  0  0  0  0  0
  141.3690   80.4220  221.9730 C   0  0  0  0  0  0  0  0  0  0  0  0
  141.1110   81.5130  220.9580 C   0  0  1  0  0  0  0  0  0  0  0  0
  141.8470   81.3640  219.6410 C   0  0  0  0  0  0  0  0  0  0  0  0
  142.4770   80.2250  219.1330 C   0  0  0  0  0  0  0  0  0  0  0  0
  142.9580   80.4610  217.8920 N   0  0  0  0  0  0  0  0  0  0  0  0
  142.6230   81.7280  217.5980 C   0  0  0  0  0  0  0  0  0  0  0  0
  142.8840   82.4170  216.4140 C   0  0  0  0  0  0  0  0  0  0  0  0
  142.4180   83.7410  216.3070 C   0  0  0  0  0  0  0  0  0  0  0  0
  141.7050   84.3360  217.3710 C   0  0  0  0  0  0  0  0  0  0  0  0
  141.4540   83.6150  218.5530 C   0  0  0  0  0  0  0  0  0  0  0  0
  141.9360   82.3070  218.6330 C   0  0  0  0  0  0  0  0  0  0  0  0
  138.0855   84.3269  222.7065 H   0  0  0  0  0  0  0  0  0  0  0  0
  136.8542   83.9782  221.4370 H   0  0  0  0  0  0  0  0  0  0  0  0
  135.3956   82.2117  221.8107 H   0  0  0  0  0  0  0  0  0  0  0  0
  134.8510   80.0369  222.9051 H   0  0  0  0  0  0  0  0  0  0  0  0
  136.5505   78.8921  224.3324 H   0  0  0  0  0  0  0  0  0  0  0  0
  138.8014   79.9194  224.6621 H   0  0  0  0  0  0  0  0  0  0  0  0
  139.3551   82.0973  223.5734 H   0  0  0  0  0  0  0  0  0  0  0  0
  137.9820   80.9011  219.8025 H   0  0  0  0  0  0  0  0  0  0  0  0
  139.4660   81.2863  218.7489 H   0  0  0  0  0  0  0  0  0  0  0  0
  138.9749   78.8089  218.8506 H   0  0  0  0  0  0  0  0  0  0  0  0
  140.5895   77.6936  220.0266 H   0  0  0  0  0  0  0  0  0  0  0  0
  140.8650   77.0573  222.4132 H   0  0  0  0  0  0  0  0  0  0  0  0
  142.0009   77.5616  224.5684 H   0  0  0  0  0  0  0  0  0  0  0  0
  142.7778   79.8766  225.0594 H   0  0  0  0  0  0  0  0  0  0  0  0
  142.3850   81.7006  223.4146 H   0  0  0  0  0  0  0  0  0  0  0  0
  141.5369   82.4239  221.4039 H   0  0  0  0  0  0  0  0  0  0  0  0
  142.5688   79.2687  219.6688 H   0  0  0  0  0  0  0  0  0  0  0  0
  143.4670   79.7850  217.2810 H   0  0  0  0  0  0  0  0  0  0  0  0
  143.4362   81.9412  215.5902 H   0  0  0  0  0  0  0  0  0  0  0  0
  142.6104   84.3157  215.3890 H   0  0  0  0  0  0  0  0  0  0  0  0
  141.3433   85.3704  217.2750 H   0  0  0  0  0  0  0  0  0  0  0  0
  140.8964   84.0669  219.3866 H   0  0  0  0  0  0  0  0  0  0  0  0
  1  2  2  0
  2  3  2  0
  2  4  1  0
  4  5  1  0
  5  6  2  0
  6  7  1  0
  7  8  2  0
  8  9  1  0
  9 10  2  0
  2 11  1  0
 11 12  1  0
 12 13  1  0
 13 14  2  0
 14 15  1  0
 15 16  2  0
 16 17  1  0
 17 18  2  0
 18 19  1  0
 19 20  2  0
 20 21  1  0
 21 22  1  0
 22 23  2  0
 23 24  1  0
 24 25  1  0
 25 26  2  0
 26 27  1  0
 27 28  2  0
 28 29  1  0
 29 30  2  0
 10  5  1  0
 21 11  1  0
 30 22  1  0
 20 15  1  0
 30 25  1  0
  4 31  1  0
  4 32  1  0
  6 33  1  0
  7 34  1  0
  8 35  1  0
  9 36  1  0
 10 37  1  0
 12 38  1  0
 12 39  1  0
 13 40  1  0
 14 41  1  0
 16 42  1  0
 17 43  1  0
 18 44  1  0
 19 45  1  0
 21 46  1  1
 23 47  1  0
 24 48  1  0
 26 49  1  0
 27 50  1  0
 28 51  1  0
 29 52  1  0
M  END
>  <UniqueID>  (48) 
4

>  <SMILES>  (48) 
O=S(=O)(Cc1ccccc1)N1CC=Cc2ccccc2[C@H]1c1c[nH]c2ccccc12

>  <Energy>  (48) 
110.87500376130352

>  <Genealogy>  (48) 
O=S(=O)(Cc1ccccc1)N1CC=Cc2ccccc2[C@H]1c1c[nH]c2ccccc12 (3D coordinates assigned)
O=S(=O)(Cc1ccccc1)N1CC=Cc2ccccc2[C@H]1c1c[nH]c2ccccc12 (nonaromatic ring conformer: 110.87500376130352 kcal/mol)

>  <smiles>  (48) 
O=S(=O)(Cc1ccccc1)N1CC=Cc2ccccc2[C@H]1c1c[nH]c2ccccc12

>  <score_type>  (48) 
oracle

>  <origin>  (48) 
autodockgpu

>  <m_score__min__energy>  (48) 
-6.2800000000000002

>  <m_primary>  (48) 
energy

>  <meeko>  (48) 
{"free_energy": -4.79, "intermolecular_energy": -7.48, "internal_energy": -2.58, "cluster_size": 1, "cluster_id": 7, "rank_in_cluster": 1}

>  <energy>  (48) 
-5.59

>  <cluster_rmsd>  (48) 
0.0

>  <rmsd>  (48) 
270.36

>  <cluster>  (48) 
3

$$$$
GKGZHBJKEIVYHI-VWLOTQADNA-N
     RDKit          3D

 52 56  0  0  0  0  0  0  0  0999 V2000
  141.0740   74.7260  222.2480 O   0  0  0  0  0  0  0  0  0  0  0  0
  140.3790   75.1660  220.9890 S   0  0  0  0  0  0  0  0  0  0  0  0
  138.9920   74.5850  220.9870 O   0  0  0  0  0  0  0  0  0  0  0  0
  141.2750   74.5120  219.5820 C   0  0  0  0  0  0  0  0  0  0  0  0
  142.6400   74.0490  220.0030 C   0  0  0  0  0  0  0  0  0  0  0  0
  143.7140   74.9550  220.0510 C   0  0  0  0  0  0  0  0  0  0  0  0
  144.9760   74.5290  220.4730 C   0  0  0  0  0  0  0  0  0  0  0  0
  145.1740   73.1990  220.8570 C   0  0  0  0  0  0  0  0  0  0  0  0
  144.1100   72.2960  220.8230 C   0  0  0  0  0  0  0  0  0  0  0  0
  142.8440   72.7180  220.4010 C   0  0  0  0  0  0  0  0  0  0  0  0
  140.3030   76.9230  220.9940 N   0  0  0  0  0  0  0  0  0  0  0  0
  139.6030   77.4780  219.8240 C   0  0  0  0  0  0  0  0  0  0  0  0
  139.5430   78.9900  219.6890 C   0  0  0  0  0  0  0  0  0  0  0  0
  140.0060   79.9610  220.4950 C   0  0  0  0  0  0  0  0  0  0  0  0
  140.9180   79.8470  221.6610 C   0  0  0  0  0  0  0  0  0  0  0  0
  141.8180   80.9060  221.8770 C   0  0  0  0  0  0  0  0  0  0  0  0
  142.6900   80.8940  222.9660 C   0  0  0  0  0  0  0  0  0  0  0  0
  142.6800   79.8230  223.8530 C   0  0  0  0  0  0  0  0  0  0  0  0
  141.8130   78.7510  223.6450 C   0  0  0  0  0  0  0  0  0  0  0  0
  140.9440   78.7310  222.5300 C   0  0  0  0  0  0  0  0  0  0  0  0
  139.9960   77.5790  222.2780 C   0  0  1  0  0  0  0  0  0  0  0  0
  138.5220   77.9150  222.3890 C   0  0  0  0  0  0  0  0  0  0  0  0
  137.4340   77.1770  221.9170 C   0  0  0  0  0  0  0  0  0  0  0  0
  136.2700   77.7640  222.2750 N   0  0  0  0  0  0  0  0  0  0  0  0
  136.6050   78.8540  222.9840 C   0  0  0  0  0  0  0  0  0  0  0  0
  135.7410   79.7680  223.5860 C   0  0  0  0  0  0  0  0  0  0  0  0
  136.3100   80.8330  224.3090 C   0  0  0  0  0  0  0  0  0  0  0  0
  137.7120   80.9540  224.4180 C   0  0  0  0  0  0  0  0  0  0  0  0
  138.5600   80.0150  223.8030 C   0  0  0  0  0  0  0  0  0  0  0  0
  137.9670   78.9740  223.0850 C   0  0  0  0  0  0  0  0  0  0  0  0
  140.7179   73.6626  219.1599 H   0  0  0  0  0  0  0  0  0  0  0  0
  141.3830   75.3044  218.8267 H   0  0  0  0  0  0  0  0  0  0  0  0
  143.5602   76.0032  219.7552 H   0  0  0  0  0  0  0  0  0  0  0  0
  145.8145   75.2404  220.5032 H   0  0  0  0  0  0  0  0  0  0  0  0
  146.1688   72.8642  221.1860 H   0  0  0  0  0  0  0  0  0  0  0  0
  144.2668   71.2509  221.1284 H   0  0  0  0  0  0  0  0  0  0  0  0
  142.0066   72.0050  220.3811 H   0  0  0  0  0  0  0  0  0  0  0  0
  140.1037   77.0875  218.9258 H   0  0  0  0  0  0  0  0  0  0  0  0
  138.5555   77.1686  219.9540 H   0  0  0  0  0  0  0  0  0  0  0  0
  139.0367   79.3498  218.7811 H   0  0  0  0  0  0  0  0  0  0  0  0
  139.6623   80.9788  220.2584 H   0  0  0  0  0  0  0  0  0  0  0  0
  141.8346   81.7551  221.1779 H   0  0  0  0  0  0  0  0  0  0  0  0
  143.3854   81.7317  223.1230 H   0  0  0  0  0  0  0  0  0  0  0  0
  143.3570   79.8216  224.7200 H   0  0  0  0  0  0  0  0  0  0  0  0
  141.8051   77.9118  224.3561 H   0  0  0  0  0  0  0  0  0  0  0  0
  140.1760   76.8750  223.1039 H   0  0  0  0  0  0  0  0  0  0  0  0
  137.5133   76.2471  221.3347 H   0  0  0  0  0  0  0  0  0  0  0  0
  135.3070   77.4230  222.0590 H   0  0  0  0  0  0  0  0  0  0  0  0
  134.6498   79.6601  223.4986 H   0  0  0  0  0  0  0  0  0  0  0  0
  135.6581   81.5757  224.7921 H   0  0  0  0  0  0  0  0  0  0  0  0
  138.1450   81.7891  224.9883 H   0  0  0  0  0  0  0  0  0  0  0  0
  139.6538   80.0979  223.8848 H   0  0  0  0  0  0  0  0  0  0  0  0
  1  2  2  0
  2  3  2  0
  2  4  1  0
  4  5  1  0
  5  6  2  0
  6  7  1  0
  7  8  2  0
  8  9  1  0
  9 10  2  0
  2 11  1  0
 11 12  1  0
 12 13  1  0
 13 14  2  0
 14 15  1  0
 15 16  2  0
 16 17  1  0
 17 18  2  0
 18 19  1  0
 19 20  2  0
 20 21  1  0
 21 22  1  0
 22 23  2  0
 23 24  1  0
 24 25  1  0
 25 26  2  0
 26 27  1  0
 27 28  2  0
 28 29  1  0
 29 30  2  0
 10  5  1  0
 21 11  1  0
 30 22  1  0
 20 15  1  0
 30 25  1  0
  4 31  1  0
  4 32  1  0
  6 33  1  0
  7 34  1  0
  8 35  1  0
  9 36  1  0
 10 37  1  0
 12 38  1  0
 12 39  1  0
 13 40  1  0
 14 41  1  0
 16 42  1  0
 17 43  1  0
 18 44  1  0
 19 45  1  0
 21 46  1  1
 23 47  1  0
 24 48  1  0
 26 49  1  0
 27 50  1  0
 28 51  1  0
 29 52  1  0
M  END
>  <UniqueID>  (49) 
4

>  <SMILES>  (49) 
O=S(=O)(Cc1ccccc1)N1CC=Cc2ccccc2[C@H]1c1c[nH]c2ccccc12

>  <Energy>  (49) 
110.87500376130352

>  <Genealogy>  (49) 
O=S(=O)(Cc1ccccc1)N1CC=Cc2ccccc2[C@H]1c1c[nH]c2ccccc12 (3D coordinates assigned)
O=S(=O)(Cc1ccccc1)N1CC=Cc2ccccc2[C@H]1c1c[nH]c2ccccc12 (nonaromatic ring conformer: 110.87500376130352 kcal/mol)

>  <smiles>  (49) 
O=S(=O)(Cc1ccccc1)N1CC=Cc2ccccc2[C@H]1c1c[nH]c2ccccc12

>  <score_type>  (49) 
oracle

>  <origin>  (49) 
autodockgpu

>  <m_score__min__energy>  (49) 
-6.2800000000000002

>  <m_primary>  (49) 
energy

>  <meeko>  (49) 
{"free_energy": -6.28, "intermolecular_energy": -8.96, "internal_energy": -1.94, "cluster_size": 2, "cluster_id": 1, "rank_in_cluster": 1}

>  <energy>  (49) 
-4.97

>  <cluster_rmsd>  (49) 
1.21

>  <rmsd>  (49) 
269.95

>  <cluster>  (49) 
3

$$$$
GKGZHBJKEIVYHI-VWLOTQADNA-N
     RDKit          3D

 52 56  0  0  0  0  0  0  0  0999 V2000
  139.0700   82.6330  221.4080 O   0  0  0  0  0  0  0  0  0  0  0  0
  139.5560   81.2230  221.6040 S   0  0  0  0  0  0  0  0  0  0  0  0
  139.1110   80.4020  220.4250 O   0  0  0  0  0  0  0  0  0  0  0  0
  138.7970   80.5570  223.0840 C   0  0  0  0  0  0  0  0  0  0  0  0
  137.7900   79.5020  222.7240 C   0  0  0  0  0  0  0  0  0  0  0  0
  136.6370   79.8400  221.9950 C   0  0  0  0  0  0  0  0  0  0  0  0
  135.7180   78.8500  221.6350 C   0  0  0  0  0  0  0  0  0  0  0  0
  135.9470   77.5180  221.9920 C   0  0  0  0  0  0  0  0  0  0  0  0
  137.0960   77.1730  222.7060 C   0  0  0  0  0  0  0  0  0  0  0  0
  138.0190   78.1600  223.0690 C   0  0  0  0  0  0  0  0  0  0  0  0
  141.3120   81.2580  221.6940 N   0  0  0  0  0  0  0  0  0  0  0  0
  141.8190   81.5320  223.0490 C   0  0  0  0  0  0  0  0  0  0  0  0
  142.2490   80.3450  223.8940 C   0  0  0  0  0  0  0  0  0  0  0  0
  142.1380   79.0230  223.6700 C   0  0  0  0  0  0  0  0  0  0  0  0
  141.5130   78.3180  222.5230 C   0  0  0  0  0  0  0  0  0  0  0  0
  140.9870   77.0370  222.7670 C   0  0  0  0  0  0  0  0  0  0  0  0
  140.3560   76.3170  221.7530 C   0  0  0  0  0  0  0  0  0  0  0  0
  140.2440   76.8630  220.4780 C   0  0  0  0  0  0  0  0  0  0  0  0
  140.7810   78.1210  220.2080 C   0  0  0  0  0  0  0  0  0  0  0  0
  141.4500   78.8520  221.2150 C   0  0  0  0  0  0  0  0  0  0  0  0
  142.0440   80.2180  220.9480 C   0  0  1  0  0  0  0  0  0  0  0  0
  142.1910   80.5880  219.4850 C   0  0  0  0  0  0  0  0  0  0  0  0
  142.6360   79.7810  218.4350 C   0  0  0  0  0  0  0  0  0  0  0  0
  142.5550   80.4430  217.2590 N   0  0  0  0  0  0  0  0  0  0  0  0
  142.0440   81.6510  217.5460 C   0  0  0  0  0  0  0  0  0  0  0  0
  141.7540   82.6800  216.6510 C   0  0  0  0  0  0  0  0  0  0  0  0
  141.1960   83.8640  217.1670 C   0  0  0  0  0  0  0  0  0  0  0  0
  140.9370   83.9880  218.5500 C   0  0  0  0  0  0  0  0  0  0  0  0
  141.2370   82.9320  219.4300 C   0  0  0  0  0  0  0  0  0  0  0  0
  141.7990   81.7740  218.8900 C   0  0  0  0  0  0  0  0  0  0  0  0
  139.5750   80.1132  223.7226 H   0  0  0  0  0  0  0  0  0  0  0  0
  138.2869   81.3700  223.6214 H   0  0  0  0  0  0  0  0  0  0  0  0
  136.4572   80.8863  221.7069 H   0  0  0  0  0  0  0  0  0  0  0  0
  134.8135   79.1195  221.0700 H   0  0  0  0  0  0  0  0  0  0  0  0
  135.2212   76.7410  221.7101 H   0  0  0  0  0  0  0  0  0  0  0  0
  137.2759   76.1239  222.9835 H   0  0  0  0  0  0  0  0  0  0  0  0
  138.9265   77.8841  223.6261 H   0  0  0  0  0  0  0  0  0  0  0  0
  142.6905   82.1953  222.9461 H   0  0  0  0  0  0  0  0  0  0  0  0
  140.9601   81.9602  223.5866 H   0  0  0  0  0  0  0  0  0  0  0  0
  142.7308   80.6103  224.8466 H   0  0  0  0  0  0  0  0  0  0  0  0
  142.5710   78.3738  224.4453 H   0  0  0  0  0  0  0  0  0  0  0  0
  141.0744   76.5969  223.7713 H   0  0  0  0  0  0  0  0  0  0  0  0
  139.9468   75.3174  221.9611 H   0  0  0  0  0  0  0  0  0  0  0  0
  139.7315   76.3018  219.6827 H   0  0  0  0  0  0  0  0  0  0  0  0
  140.6827   78.5492  219.1995 H   0  0  0  0  0  0  0  0  0  0  0  0
  143.0785   80.1570  221.3170 H   0  0  0  0  0  0  0  0  0  0  0  0
  143.0016   78.7499  218.5493 H   0  0  0  0  0  0  0  0  0  0  0  0
  142.8170   80.0760  216.3170 H   0  0  0  0  0  0  0  0  0  0  0  0
  141.9552   82.5696  215.5752 H   0  0  0  0  0  0  0  0  0  0  0  0
  140.9601   84.6979  216.4895 H   0  0  0  0  0  0  0  0  0  0  0  0
  140.4975   84.9171  218.9419 H   0  0  0  0  0  0  0  0  0  0  0  0
  141.0353   83.0162  220.5081 H   0  0  0  0  0  0  0  0  0  0  0  0
  1  2  2  0
  2  3  2  0
  2  4  1  0
  4  5  1  0
  5  6  2  0
  6  7  1  0
  7  8  2  0
  8  9  1  0
  9 10  2  0
  2 11  1  0
 11 12  1  0
 12 13  1  0
 13 14  2  0
 14 15  1  0
 15 16  2  0
 16 17  1  0
 17 18  2  0
 18 19  1  0
 19 20  2  0
 20 21  1  0
 21 22  1  0
 22 23  2  0
 23 24  1  0
 24 25  1  0
 25 26  2  0
 26 27  1  0
 27 28  2  0
 28 29  1  0
 29 30  2  0
 10  5  1  0
 21 11  1  0
 30 22  1  0
 20 15  1  0
 30 25  1  0
  4 31  1  0
  4 32  1  0
  6 33  1  0
  7 34  1  0
  8 35  1  0
  9 36  1  0
 10 37  1  0
 12 38  1  0
 12 39  1  0
 13 40  1  0
 14 41  1  0
 16 42  1  0
 17 43  1  0
 18 44  1  0
 19 45  1  0
 21 46  1  1
 23 47  1  0
 24 48  1  0
 26 49  1  0
 27 50  1  0
 28 51  1  0
 29 52  1  0
M  END
>  <UniqueID>  (50) 
4

>  <SMILES>  (50) 
O=S(=O)(Cc1ccccc1)N1CC=Cc2ccccc2[C@H]1c1c[nH]c2ccccc12

>  <Energy>  (50) 
110.87500376130352

>  <Genealogy>  (50) 
O=S(=O)(Cc1ccccc1)N1CC=Cc2ccccc2[C@H]1c1c[nH]c2ccccc12 (3D coordinates assigned)
O=S(=O)(Cc1ccccc1)N1CC=Cc2ccccc2[C@H]1c1c[nH]c2ccccc12 (nonaromatic ring conformer: 110.87500376130352 kcal/mol)

>  <smiles>  (50) 
O=S(=O)(Cc1ccccc1)N1CC=Cc2ccccc2[C@H]1c1c[nH]c2ccccc12

>  <score_type>  (50) 
oracle

>  <origin>  (50) 
autodockgpu

>  <m_score__min__energy>  (50) 
-6.2800000000000002

>  <m_primary>  (50) 
energy

>  <meeko>  (50) 
{"free_energy": -4.71, "intermolecular_energy": -7.39, "internal_energy": -2.84, "cluster_size": 3, "cluster_id": 3, "rank_in_cluster": 3}

>  <energy>  (50) 
-4.71

>  <cluster_rmsd>  (50) 
1.17

>  <rmsd>  (50) 
270.0

>  <cluster>  (50) 
3

$$$$
GKGZHBJKEIVYHI-VWLOTQADNA-N
     RDKit          3D

 52 56  0  0  0  0  0  0  0  0999 V2000
  136.4130   79.5040  223.7140 O   0  0  0  0  0  0  0  0  0  0  0  0
  137.7620   80.0670  223.3610 S   0  0  0  0  0  0  0  0  0  0  0  0
  138.7800   79.4750  224.2970 O   0  0  0  0  0  0  0  0  0  0  0  0
  137.7240   81.8410  223.6050 C   0  0  0  0  0  0  0  0  0  0  0  0
  137.0600   82.1740  224.9100 C   0  0  0  0  0  0  0  0  0  0  0  0
  137.1570   81.2930  226.0010 C   0  0  0  0  0  0  0  0  0  0  0  0
  136.5640   81.6200  227.2240 C   0  0  0  0  0  0  0  0  0  0  0  0
  135.8790   82.8300  227.3690 C   0  0  0  0  0  0  0  0  0  0  0  0
  135.7880   83.7150  226.2930 C   0  0  0  0  0  0  0  0  0  0  0  0
  136.3790   83.3920  225.0670 C   0  0  0  0  0  0  0  0  0  0  0  0
  138.1250   79.6130  221.7010 N   0  0  0  0  0  0  0  0  0  0  0  0
  137.7050   80.6240  220.7170 C   0  0  0  0  0  0  0  0  0  0  0  0
  138.7490   81.6170  220.2370 C   0  0  0  0  0  0  0  0  0  0  0  0
  140.0360   81.7860  220.6030 C   0  0  0  0  0  0  0  0  0  0  0  0
  140.7930   81.1130  221.6880 C   0  0  0  0  0  0  0  0  0  0  0  0
  141.8340   81.8410  222.2910 C   0  0  0  0  0  0  0  0  0  0  0  0
  142.5770   81.2960  223.3380 C   0  0  0  0  0  0  0  0  0  0  0  0
  142.2950   80.0140  223.7970 C   0  0  0  0  0  0  0  0  0  0  0  0
  141.2830   79.2640  223.1980 C   0  0  0  0  0  0  0  0  0  0  0  0
  140.5410   79.7890  222.1150 C   0  0  0  0  0  0  0  0  0  0  0  0
  139.4390   78.9960  221.4450 C   0  0  1  0  0  0  0  0  0  0  0  0
  139.4240   77.5130  221.7580 C   0  0  0  0  0  0  0  0  0  0  0  0
  138.4290   76.7820  222.4120 C   0  0  0  0  0  0  0  0  0  0  0  0
  138.7420   75.4670  222.4350 N   0  0  0  0  0  0  0  0  0  0  0  0
  139.9130   75.3510  221.7860 C   0  0  0  0  0  0  0  0  0  0  0  0
  140.6250   74.1800  221.5330 C   0  0  0  0  0  0  0  0  0  0  0  0
  141.8270   74.2850  220.8080 C   0  0  0  0  0  0  0  0  0  0  0  0
  142.2800   75.5430  220.3530 C   0  0  0  0  0  0  0  0  0  0  0  0
  141.5380   76.7080  220.6200 C   0  0  0  0  0  0  0  0  0  0  0  0
  140.3550   76.5730  221.3490 C   0  0  0  0  0  0  0  0  0  0  0  0
  138.7535   82.2283  223.6126 H   0  0  0  0  0  0  0  0  0  0  0  0
  137.1535   82.3025  222.7855 H   0  0  0  0  0  0  0  0  0  0  0  0
  137.7012   80.3433  225.8921 H   0  0  0  0  0  0  0  0  0  0  0  0
  136.6365   80.9245  228.0731 H   0  0  0  0  0  0  0  0  0  0  0  0
  135.4114   83.0850  228.3315 H   0  0  0  0  0  0  0  0  0  0  0  0
  135.2507   84.6677  226.4095 H   0  0  0  0  0  0  0  0  0  0  0  0
  136.3101   84.0943  224.2232 H   0  0  0  0  0  0  0  0  0  0  0  0
  137.3313   80.0868  219.8328 H   0  0  0  0  0  0  0  0  0  0  0  0
  136.9611   81.2366  221.2474 H   0  0  0  0  0  0  0  0  0  0  0  0
  138.3971   82.3141  219.4623 H   0  0  0  0  0  0  0  0  0  0  0  0
  140.6028   82.5243  220.0167 H   0  0  0  0  0  0  0  0  0  0  0  0
  142.0656   82.8546  221.9319 H   0  0  0  0  0  0  0  0  0  0  0  0
  143.3861   81.8803  223.8007 H   0  0  0  0  0  0  0  0  0  0  0  0
  142.8707   79.5909  224.6334 H   0  0  0  0  0  0  0  0  0  0  0  0
  141.0599   78.2539  223.5719 H   0  0  0  0  0  0  0  0  0  0  0  0
  139.6657   79.0431  220.3697 H   0  0  0  0  0  0  0  0  0  0  0  0
  137.5172   77.2163  222.8479 H   0  0  0  0  0  0  0  0  0  0  0  0
  138.1750   74.6970  222.8540 H   0  0  0  0  0  0  0  0  0  0  0  0
  140.2595   73.2052  221.8884 H   0  0  0  0  0  0  0  0  0  0  0  0
  142.4172   73.3816  220.5945 H   0  0  0  0  0  0  0  0  0  0  0  0
  143.2199   75.6123  219.7857 H   0  0  0  0  0  0  0  0  0  0  0  0
  141.8785   77.6923  220.2662 H   0  0  0  0  0  0  0  0  0  0  0  0
  1  2  2  0
  2  3  2  0
  2  4  1  0
  4  5  1  0
  5  6  2  0
  6  7  1  0
  7  8  2  0
  8  9  1  0
  9 10  2  0
  2 11  1  0
 11 12  1  0
 12 13  1  0
 13 14  2  0
 14 15  1  0
 15 16  2  0
 16 17  1  0
 17 18  2  0
 18 19  1  0
 19 20  2  0
 20 21  1  0
 21 22  1  0
 22 23  2  0
 23 24  1  0
 24 25  1  0
 25 26  2  0
 26 27  1  0
 27 28  2  0
 28 29  1  0
 29 30  2  0
 10  5  1  0
 21 11  1  0
 30 22  1  0
 20 15  1  0
 30 25  1  0
  4 31  1  0
  4 32  1  0
  6 33  1  0
  7 34  1  0
  8 35  1  0
  9 36  1  0
 10 37  1  0
 12 38  1  0
 12 39  1  0
 13 40  1  0
 14 41  1  0
 16 42  1  0
 17 43  1  0
 18 44  1  0
 19 45  1  0
 21 46  1  6
 23 47  1  0
 24 48  1  0
 26 49  1  0
 27 50  1  0
 28 51  1  0
 29 52  1  0
M  END
>  <UniqueID>  (51) 
4

>  <SMILES>  (51) 
O=S(=O)(Cc1ccccc1)N1CC=Cc2ccccc2[C@H]1c1c[nH]c2ccccc12

>  <Energy>  (51) 
110.87500376130352

>  <Genealogy>  (51) 
O=S(=O)(Cc1ccccc1)N1CC=Cc2ccccc2[C@H]1c1c[nH]c2ccccc12 (3D coordinates assigned)
O=S(=O)(Cc1ccccc1)N1CC=Cc2ccccc2[C@H]1c1c[nH]c2ccccc12 (nonaromatic ring conformer: 110.87500376130352 kcal/mol)

>  <smiles>  (51) 
O=S(=O)(Cc1ccccc1)N1CC=Cc2ccccc2[C@H]1c1c[nH]c2ccccc12

>  <score_type>  (51) 
oracle

>  <origin>  (51) 
autodockgpu

>  <m_score__min__energy>  (51) 
-6.2800000000000002

>  <m_primary>  (51) 
energy

>  <meeko>  (51) 
{"free_energy": -5.79, "intermolecular_energy": -8.48, "internal_energy": -2.23, "cluster_size": 5, "cluster_id": 2, "rank_in_cluster": 2}

>  <energy>  (51) 
-5.23

>  <cluster_rmsd>  (51) 
0.0

>  <rmsd>  (51) 
269.4

>  <cluster>  (51) 
4

$$$$
GKGZHBJKEIVYHI-VWLOTQADNA-N
     RDKit          3D

 52 56  0  0  0  0  0  0  0  0999 V2000
  138.4680   79.8220  224.0990 O   0  0  0  0  0  0  0  0  0  0  0  0
  138.0600   80.7910  223.0240 S   0  0  0  0  0  0  0  0  0  0  0  0
  138.9710   81.9860  223.0940 O   0  0  0  0  0  0  0  0  0  0  0  0
  136.3830   81.3320  223.3480 C   0  0  0  0  0  0  0  0  0  0  0  0
  136.2980   81.9900  224.6950 C   0  0  0  0  0  0  0  0  0  0  0  0
  136.4140   81.2230  225.8680 C   0  0  0  0  0  0  0  0  0  0  0  0
  136.3650   81.8420  227.1200 C   0  0  0  0  0  0  0  0  0  0  0  0
  136.2090   83.2280  227.2110 C   0  0  0  0  0  0  0  0  0  0  0  0
  136.1050   83.9980  226.0500 C   0  0  0  0  0  0  0  0  0  0  0  0
  136.1530   83.3830  224.7940 C   0  0  0  0  0  0  0  0  0  0  0  0
  138.2310   79.9860  221.4710 N   0  0  0  0  0  0  0  0  0  0  0  0
  138.2220   80.9160  220.3290 C   0  0  0  0  0  0  0  0  0  0  0  0
  139.5630   81.3300  219.7470 C   0  0  0  0  0  0  0  0  0  0  0  0
  140.8160   81.0930  220.1720 C   0  0  0  0  0  0  0  0  0  0  0  0
  141.2680   80.3710  221.3880 C   0  0  0  0  0  0  0  0  0  0  0  0
  142.5070   80.7490  221.9360 C   0  0  0  0  0  0  0  0  0  0  0  0
  142.9920   80.1430  223.0940 C   0  0  0  0  0  0  0  0  0  0  0  0
  142.2510   79.1470  223.7220 C   0  0  0  0  0  0  0  0  0  0  0  0
  141.0320   78.7390  223.1820 C   0  0  0  0  0  0  0  0  0  0  0  0
  140.5380   79.3210  221.9920 C   0  0  0  0  0  0  0  0  0  0  0  0
  139.2190   78.8950  221.3840 C   0  0  1  0  0  0  0  0  0  0  0  0
  138.6520   77.5920  221.9100 C   0  0  0  0  0  0  0  0  0  0  0  0
  139.3080   76.3680  222.0630 C   0  0  0  0  0  0  0  0  0  0  0  0
  138.4900   75.4580  222.6370 N   0  0  0  0  0  0  0  0  0  0  0  0
  137.3300   76.0940  222.8680 C   0  0  0  0  0  0  0  0  0  0  0  0
  136.1850   75.5710  223.4690 C   0  0  0  0  0  0  0  0  0  0  0  0
  135.0810   76.4260  223.6380 C   0  0  0  0  0  0  0  0  0  0  0  0
  135.1480   77.7710  223.2120 C   0  0  0  0  0  0  0  0  0  0  0  0
  136.3170   78.2730  222.6120 C   0  0  0  0  0  0  0  0  0  0  0  0
  137.3930   77.3980  222.4500 C   0  0  0  0  0  0  0  0  0  0  0  0
  136.0776   82.0507  222.5733 H   0  0  0  0  0  0  0  0  0  0  0  0
  135.7163   80.4572  223.3348 H   0  0  0  0  0  0  0  0  0  0  0  0
  136.5437   80.1328  225.7999 H   0  0  0  0  0  0  0  0  0  0  0  0
  136.4493   81.2376  228.0352 H   0  0  0  0  0  0  0  0  0  0  0  0
  136.1681   83.7128  228.1975 H   0  0  0  0  0  0  0  0  0  0  0  0
  135.9852   85.0890  226.1233 H   0  0  0  0  0  0  0  0  0  0  0  0
  136.0769   83.9927  223.8816 H   0  0  0  0  0  0  0  0  0  0  0  0
  137.6460   80.4400  219.5218 H   0  0  0  0  0  0  0  0  0  0  0  0
  137.7931   81.8461  220.7302 H   0  0  0  0  0  0  0  0  0  0  0  0
  139.4975   81.9231  218.8229 H   0  0  0  0  0  0  0  0  0  0  0  0
  141.6171   81.4886  219.5303 H   0  0  0  0  0  0  0  0  0  0  0  0
  143.1012   81.5333  221.4443 H   0  0  0  0  0  0  0  0  0  0  0  0
  143.9614   80.4526  223.5115 H   0  0  0  0  0  0  0  0  0  0  0  0
  142.6270   78.6812  224.6449 H   0  0  0  0  0  0  0  0  0  0  0  0
  140.4482   77.9556  223.6874 H   0  0  0  0  0  0  0  0  0  0  0  0
  139.4448   78.6840  220.3283 H   0  0  0  0  0  0  0  0  0  0  0  0
  140.3467   76.1720  221.7584 H   0  0  0  0  0  0  0  0  0  0  0  0
  138.7240   74.4670  222.8710 H   0  0  0  0  0  0  0  0  0  0  0  0
  136.1467   74.5228  223.8004 H   0  0  0  0  0  0  0  0  0  0  0  0
  134.1605   76.0451  224.1044 H   0  0  0  0  0  0  0  0  0  0  0  0
  134.2791   78.4312  223.3506 H   0  0  0  0  0  0  0  0  0  0  0  0
  136.3814   79.3202  222.2814 H   0  0  0  0  0  0  0  0  0  0  0  0
  1  2  2  0
  2  3  2  0
  2  4  1  0
  4  5  1  0
  5  6  2  0
  6  7  1  0
  7  8  2  0
  8  9  1  0
  9 10  2  0
  2 11  1  0
 11 12  1  0
 12 13  1  0
 13 14  2  0
 14 15  1  0
 15 16  2  0
 16 17  1  0
 17 18  2  0
 18 19  1  0
 19 20  2  0
 20 21  1  0
 21 22  1  0
 22 23  2  0
 23 24  1  0
 24 25  1  0
 25 26  2  0
 26 27  1  0
 27 28  2  0
 28 29  1  0
 29 30  2  0
 10  5  1  0
 21 11  1  0
 30 22  1  0
 20 15  1  0
 30 25  1  0
  4 31  1  0
  4 32  1  0
  6 33  1  0
  7 34  1  0
  8 35  1  0
  9 36  1  0
 10 37  1  0
 12 38  1  0
 12 39  1  0
 13 40  1  0
 14 41  1  0
 16 42  1  0
 17 43  1  0
 18 44  1  0
 19 45  1  0
 21 46  1  6
 23 47  1  0
 24 48  1  0
 26 49  1  0
 27 50  1  0
 28 51  1  0
 29 52  1  0
M  END
>  <UniqueID>  (52) 
4

>  <SMILES>  (52) 
O=S(=O)(Cc1ccccc1)N1CC=Cc2ccccc2[C@H]1c1c[nH]c2ccccc12

>  <Energy>  (52) 
110.87500376130352

>  <Genealogy>  (52) 
O=S(=O)(Cc1ccccc1)N1CC=Cc2ccccc2[C@H]1c1c[nH]c2ccccc12 (3D coordinates assigned)
O=S(=O)(Cc1ccccc1)N1CC=Cc2ccccc2[C@H]1c1c[nH]c2ccccc12 (nonaromatic ring conformer: 110.87500376130352 kcal/mol)

>  <smiles>  (52) 
O=S(=O)(Cc1ccccc1)N1CC=Cc2ccccc2[C@H]1c1c[nH]c2ccccc12

>  <score_type>  (52) 
oracle

>  <origin>  (52) 
autodockgpu

>  <m_score__min__energy>  (52) 
-6.2800000000000002

>  <m_primary>  (52) 
energy

>  <meeko>  (52) 
{"free_energy": -5.3, "intermolecular_energy": -7.99, "internal_energy": -2.31, "cluster_size": 5, "cluster_id": 2, "rank_in_cluster": 5}

>  <energy>  (52) 
-5.09

>  <cluster_rmsd>  (52) 
0.37

>  <rmsd>  (52) 
269.4

>  <cluster>  (52) 
4

$$$$
GKGZHBJKEIVYHI-VWLOTQADNA-N
     RDKit          3D

 52 56  0  0  0  0  0  0  0  0999 V2000
  136.7750   79.2020  223.0900 O   0  0  0  0  0  0  0  0  0  0  0  0
  137.6740   80.3720  223.3810 S   0  0  0  0  0  0  0  0  0  0  0  0
  137.8050   80.5070  224.8740 O   0  0  0  0  0  0  0  0  0  0  0  0
  136.9070   81.8580  222.7380 C   0  0  0  0  0  0  0  0  0  0  0  0
  137.7750   82.4760  221.6800 C   0  0  0  0  0  0  0  0  0  0  0  0
  137.2760   82.6810  220.3820 C   0  0  0  0  0  0  0  0  0  0  0  0
  138.0750   83.2860  219.4080 C   0  0  0  0  0  0  0  0  0  0  0  0
  139.3730   83.6970  219.7230 C   0  0  0  0  0  0  0  0  0  0  0  0
  139.8720   83.5080  221.0140 C   0  0  0  0  0  0  0  0  0  0  0  0
  139.0760   82.9030  221.9930 C   0  0  0  0  0  0  0  0  0  0  0  0
  139.2440   80.0460  222.6590 N   0  0  0  0  0  0  0  0  0  0  0  0
  140.2870   79.7370  223.6510 C   0  0  0  0  0  0  0  0  0  0  0  0
  141.7030   79.5250  223.1430 C   0  0  0  0  0  0  0  0  0  0  0  0
  142.1900   79.5150  221.8890 C   0  0  0  0  0  0  0  0  0  0  0  0
  141.5350   79.9550  220.6320 C   0  0  0  0  0  0  0  0  0  0  0  0
  142.3530   80.5560  219.6580 C   0  0  0  0  0  0  0  0  0  0  0  0
  141.8240   80.9700  218.4360 C   0  0  0  0  0  0  0  0  0  0  0  0
  140.4710   80.7970  218.1680 C   0  0  0  0  0  0  0  0  0  0  0  0
  139.6360   80.2260  219.1290 C   0  0  0  0  0  0  0  0  0  0  0  0
  140.1480   79.8280  220.3850 C   0  0  0  0  0  0  0  0  0  0  0  0
  139.2640   79.2080  221.4460 C   0  0  1  0  0  0  0  0  0  0  0  0
  139.5660   77.7610  221.7780 C   0  0  0  0  0  0  0  0  0  0  0  0
  138.9670   76.9600  222.7530 C   0  0  0  0  0  0  0  0  0  0  0  0
  139.4500   75.6980  222.6960 N   0  0  0  0  0  0  0  0  0  0  0  0
  140.3330   75.6840  221.6840 C   0  0  0  0  0  0  0  0  0  0  0  0
  141.0740   74.5950  221.2260 C   0  0  0  0  0  0  0  0  0  0  0  0
  141.9290   74.7970  220.1260 C   0  0  0  0  0  0  0  0  0  0  0  0
  142.0170   76.0670  219.5140 C   0  0  0  0  0  0  0  0  0  0  0  0
  141.2550   77.1460  219.9960 C   0  0  0  0  0  0  0  0  0  0  0  0
  140.4230   76.9180  221.0930 C   0  0  0  0  0  0  0  0  0  0  0  0
  135.9298   81.6027  222.3023 H   0  0  0  0  0  0  0  0  0  0  0  0
  136.7766   82.5778  223.5595 H   0  0  0  0  0  0  0  0  0  0  0  0
  136.2528   82.3640  220.1319 H   0  0  0  0  0  0  0  0  0  0  0  0
  137.6817   83.4389  218.3922 H   0  0  0  0  0  0  0  0  0  0  0  0
  140.0020   84.1695  218.9541 H   0  0  0  0  0  0  0  0  0  0  0  0
  140.8926   83.8354  221.2615 H   0  0  0  0  0  0  0  0  0  0  0  0
  139.4701   82.7615  223.0102 H   0  0  0  0  0  0  0  0  0  0  0  0
  140.3163   80.5709  224.3677 H   0  0  0  0  0  0  0  0  0  0  0  0
  139.9929   78.7634  224.0701 H   0  0  0  0  0  0  0  0  0  0  0  0
  142.4526   79.3513  223.9291 H   0  0  0  0  0  0  0  0  0  0  0  0
  143.2138   79.1277  221.7804 H   0  0  0  0  0  0  0  0  0  0  0  0
  143.4239   80.7013  219.8630 H   0  0  0  0  0  0  0  0  0  0  0  0
  142.4782   81.4341  217.6832 H   0  0  0  0  0  0  0  0  0  0  0  0
  140.0584   81.1105  217.1977 H   0  0  0  0  0  0  0  0  0  0  0  0
  138.5681   80.0841  218.9069 H   0  0  0  0  0  0  0  0  0  0  0  0
  138.2586   79.1782  221.0007 H   0  0  0  0  0  0  0  0  0  0  0  0
  138.2073   77.3077  223.4685 H   0  0  0  0  0  0  0  0  0  0  0  0
  139.1740   74.8960  223.3040 H   0  0  0  0  0  0  0  0  0  0  0  0
  140.9930   73.6099  221.7087 H   0  0  0  0  0  0  0  0  0  0  0  0
  142.5318   73.9613  219.7410 H   0  0  0  0  0  0  0  0  0  0  0  0
  142.6868   76.2131  218.6537 H   0  0  0  0  0  0  0  0  0  0  0  0
  141.3128   78.1377  219.5237 H   0  0  0  0  0  0  0  0  0  0  0  0
  1  2  2  0
  2  3  2  0
  2  4  1  0
  4  5  1  0
  5  6  2  0
  6  7  1  0
  7  8  2  0
  8  9  1  0
  9 10  2  0
  2 11  1  0
 11 12  1  0
 12 13  1  0
 13 14  2  0
 14 15  1  0
 15 16  2  0
 16 17  1  0
 17 18  2  0
 18 19  1  0
 19 20  2  0
 20 21  1  0
 21 22  1  0
 22 23  2  0
 23 24  1  0
 24 25  1  0
 25 26  2  0
 26 27  1  0
 27 28  2  0
 28 29  1  0
 29 30  2  0
 10  5  1  0
 21 11  1  0
 30 22  1  0
 20 15  1  0
 30 25  1  0
  4 31  1  0
  4 32  1  0
  6 33  1  0
  7 34  1  0
  8 35  1  0
  9 36  1  0
 10 37  1  0
 12 38  1  0
 12 39  1  0
 13 40  1  0
 14 41  1  0
 16 42  1  0
 17 43  1  0
 18 44  1  0
 19 45  1  0
 21 46  1  6
 23 47  1  0
 24 48  1  0
 26 49  1  0
 27 50  1  0
 28 51  1  0
 29 52  1  0
M  END
>  <UniqueID>  (53) 
4

>  <SMILES>  (53) 
O=S(=O)(Cc1ccccc1)N1CC=Cc2ccccc2[C@H]1c1c[nH]c2ccccc12

>  <Energy>  (53) 
110.87500376130352

>  <Genealogy>  (53) 
O=S(=O)(Cc1ccccc1)N1CC=Cc2ccccc2[C@H]1c1c[nH]c2ccccc12 (3D coordinates assigned)
O=S(=O)(Cc1ccccc1)N1CC=Cc2ccccc2[C@H]1c1c[nH]c2ccccc12 (nonaromatic ring conformer: 110.87500376130352 kcal/mol)

>  <smiles>  (53) 
O=S(=O)(Cc1ccccc1)N1CC=Cc2ccccc2[C@H]1c1c[nH]c2ccccc12

>  <score_type>  (53) 
oracle

>  <origin>  (53) 
autodockgpu

>  <m_score__min__energy>  (53) 
-6.2800000000000002

>  <m_primary>  (53) 
energy

>  <meeko>  (53) 
{"free_energy": -4.21, "intermolecular_energy": -6.9, "internal_energy": -2.69, "cluster_size": 1, "cluster_id": 9, "rank_in_cluster": 1}

>  <energy>  (53) 
-4.84

>  <cluster_rmsd>  (53) 
0.0

>  <rmsd>  (53) 
269.11

>  <cluster>  (53) 
5

$$$$
GKGZHBJKEIVYHI-VWLOTQADNA-N
     RDKit          3D

 52 56  0  0  0  0  0  0  0  0999 V2000
  138.7420   77.5880  222.6410 O   0  0  0  0  0  0  0  0  0  0  0  0
  139.9050   76.8050  222.0980 S   0  0  0  0  0  0  0  0  0  0  0  0
  139.6250   75.3410  222.3010 O   0  0  0  0  0  0  0  0  0  0  0  0
  141.3720   77.2410  223.0280 C   0  0  0  0  0  0  0  0  0  0  0  0
  141.5210   78.7340  223.0980 C   0  0  0  0  0  0  0  0  0  0  0  0
  140.5000   79.5230  223.6560 C   0  0  0  0  0  0  0  0  0  0  0  0
  140.6540   80.9090  223.7490 C   0  0  0  0  0  0  0  0  0  0  0  0
  141.8280   81.5160  223.2940 C   0  0  0  0  0  0  0  0  0  0  0  0
  142.8520   80.7370  222.7490 C   0  0  0  0  0  0  0  0  0  0  0  0
  142.7020   79.3490  222.6540 C   0  0  0  0  0  0  0  0  0  0  0  0
  140.0520   77.1640  220.3830 N   0  0  0  0  0  0  0  0  0  0  0  0
  138.7800   77.5720  219.7630 C   0  0  0  0  0  0  0  0  0  0  0  0
  138.8080   77.9890  218.3030 C   0  0  0  0  0  0  0  0  0  0  0  0
  139.7670   77.8480  217.3700 C   0  0  0  0  0  0  0  0  0  0  0  0
  141.1350   77.2920  217.5170 C   0  0  0  0  0  0  0  0  0  0  0  0
  141.7090   76.6890  216.3830 C   0  0  0  0  0  0  0  0  0  0  0  0
  143.0020   76.1690  216.4260 C   0  0  0  0  0  0  0  0  0  0  0  0
  143.7410   76.2380  217.6020 C   0  0  0  0  0  0  0  0  0  0  0  0
  143.1840   76.8090  218.7450 C   0  0  0  0  0  0  0  0  0  0  0  0
  141.8640   77.3140  218.7290 C   0  0  0  0  0  0  0  0  0  0  0  0
  141.2330   77.9360  219.9570 C   0  0  1  0  0  0  0  0  0  0  0  0
  140.9180   79.4140  219.8460 C   0  0  0  0  0  0  0  0  0  0  0  0
  139.9800   80.1500  220.5740 C   0  0  0  0  0  0  0  0  0  0  0  0
  140.0430   81.4600  220.2450 N   0  0  0  0  0  0  0  0  0  0  0  0
  141.0230   81.5680  219.3320 C   0  0  0  0  0  0  0  0  0  0  0  0
  141.4740   82.7320  218.7120 C   0  0  0  0  0  0  0  0  0  0  0  0
  142.5380   82.6200  217.7980 C   0  0  0  0  0  0  0  0  0  0  0  0
  143.1230   81.3620  217.5330 C   0  0  0  0  0  0  0  0  0  0  0  0
  142.6490   80.2050  218.1760 C   0  0  0  0  0  0  0  0  0  0  0  0
  141.5870   80.3460  219.0710 C   0  0  0  0  0  0  0  0  0  0  0  0
  141.2887   76.8365  224.0475 H   0  0  0  0  0  0  0  0  0  0  0  0
  142.2535   76.8169  222.5249 H   0  0  0  0  0  0  0  0  0  0  0  0
  139.5772   79.0481  224.0205 H   0  0  0  0  0  0  0  0  0  0  0  0
  139.8501   81.5231  224.1809 H   0  0  0  0  0  0  0  0  0  0  0  0
  141.9458   82.6074  223.3650 H   0  0  0  0  0  0  0  0  0  0  0  0
  143.7769   81.2153  222.3943 H   0  0  0  0  0  0  0  0  0  0  0  0
  143.5123   78.7378  222.2300 H   0  0  0  0  0  0  0  0  0  0  0  0
  138.0855   76.7233  219.8490 H   0  0  0  0  0  0  0  0  0  0  0  0
  138.4852   78.4819  220.3064 H   0  0  0  0  0  0  0  0  0  0  0  0
  137.8937   78.4886  217.9502 H   0  0  0  0  0  0  0  0  0  0  0  0
  139.5005   78.1920  216.3597 H   0  0  0  0  0  0  0  0  0  0  0  0
  141.1300   76.6269  215.4498 H   0  0  0  0  0  0  0  0  0  0  0  0
  143.4377   75.7040  215.5294 H   0  0  0  0  0  0  0  0  0  0  0  0
  144.7666   75.8414  217.6302 H   0  0  0  0  0  0  0  0  0  0  0  0
  143.7779   76.8672  219.6691 H   0  0  0  0  0  0  0  0  0  0  0  0
  142.0081   77.8826  220.7357 H   0  0  0  0  0  0  0  0  0  0  0  0
  139.2860   79.7228  221.3129 H   0  0  0  0  0  0  0  0  0  0  0  0
  139.4610   82.2320  220.6390 H   0  0  0  0  0  0  0  0  0  0  0  0
  141.0131   83.7067  218.9301 H   0  0  0  0  0  0  0  0  0  0  0  0
  142.9164   83.5175  217.2868 H   0  0  0  0  0  0  0  0  0  0  0  0
  143.9557   81.2869  216.8182 H   0  0  0  0  0  0  0  0  0  0  0  0
  143.1001   79.2211  217.9802 H   0  0  0  0  0  0  0  0  0  0  0  0
  1  2  2  0
  2  3  2  0
  2  4  1  0
  4  5  1  0
  5  6  2  0
  6  7  1  0
  7  8  2  0
  8  9  1  0
  9 10  2  0
  2 11  1  0
 11 12  1  0
 12 13  1  0
 13 14  2  0
 14 15  1  0
 15 16  2  0
 16 17  1  0
 17 18  2  0
 18 19  1  0
 19 20  2  0
 20 21  1  0
 21 22  1  0
 22 23  2  0
 23 24  1  0
 24 25  1  0
 25 26  2  0
 26 27  1  0
 27 28  2  0
 28 29  1  0
 29 30  2  0
 10  5  1  0
 21 11  1  0
 30 22  1  0
 20 15  1  0
 30 25  1  0
  4 31  1  0
  4 32  1  0
  6 33  1  0
  7 34  1  0
  8 35  1  0
  9 36  1  0
 10 37  1  0
 12 38  1  0
 12 39  1  0
 13 40  1  0
 14 41  1  0
 16 42  1  0
 17 43  1  0
 18 44  1  0
 19 45  1  0
 21 46  1  1
 23 47  1  0
 24 48  1  0
 26 49  1  0
 27 50  1  0
 28 51  1  0
 29 52  1  0
M  END
>  <UniqueID>  (54) 
4

>  <SMILES>  (54) 
O=S(=O)(Cc1ccccc1)N1CC=Cc2ccccc2[C@H]1c1c[nH]c2ccccc12

>  <Energy>  (54) 
110.87500376130352

>  <Genealogy>  (54) 
O=S(=O)(Cc1ccccc1)N1CC=Cc2ccccc2[C@H]1c1c[nH]c2ccccc12 (3D coordinates assigned)
O=S(=O)(Cc1ccccc1)N1CC=Cc2ccccc2[C@H]1c1c[nH]c2ccccc12 (nonaromatic ring conformer: 110.87500376130352 kcal/mol)

>  <smiles>  (54) 
O=S(=O)(Cc1ccccc1)N1CC=Cc2ccccc2[C@H]1c1c[nH]c2ccccc12

>  <score_type>  (54) 
oracle

>  <origin>  (54) 
autodockgpu

>  <m_score__min__energy>  (54) 
-6.2800000000000002

>  <m_primary>  (54) 
energy

>  <meeko>  (54) 
{"free_energy": -4.8, "intermolecular_energy": -7.49, "internal_energy": -2.71, "cluster_size": 4, "cluster_id": 5, "rank_in_cluster": 2}

>  <energy>  (54) 
-4.8

>  <cluster_rmsd>  (54) 
0.13

>  <rmsd>  (54) 
269.16

>  <cluster>  (54) 
5

$$$$
GKGZHBJKEIVYHI-VWLOTQADNA-N
     RDKit          3D

 52 56  0  0  0  0  0  0  0  0999 V2000
  138.4650   79.7760  224.1370 O   0  0  0  0  0  0  0  0  0  0  0  0
  138.0200   80.7170  223.0530 S   0  0  0  0  0  0  0  0  0  0  0  0
  138.8850   81.9460  223.1100 O   0  0  0  0  0  0  0  0  0  0  0  0
  136.3230   81.1960  223.3720 C   0  0  0  0  0  0  0  0  0  0  0  0
  136.1010   81.3780  224.8460 C   0  0  0  0  0  0  0  0  0  0  0  0
  134.9340   80.8830  225.4540 C   0  0  0  0  0  0  0  0  0  0  0  0
  134.7440   81.0260  226.8320 C   0  0  0  0  0  0  0  0  0  0  0  0
  135.7190   81.6540  227.6120 C   0  0  0  0  0  0  0  0  0  0  0  0
  136.8870   82.1370  227.0170 C   0  0  0  0  0  0  0  0  0  0  0  0
  137.0810   81.9970  225.6390 C   0  0  0  0  0  0  0  0  0  0  0  0
  138.2200   79.9030  221.5070 N   0  0  0  0  0  0  0  0  0  0  0  0
  138.2100   80.8240  220.3590 C   0  0  0  0  0  0  0  0  0  0  0  0
  139.5500   81.3020  219.8260 C   0  0  0  0  0  0  0  0  0  0  0  0
  140.8030   81.0500  220.2470 C   0  0  0  0  0  0  0  0  0  0  0  0
  141.2500   80.3370  221.4700 C   0  0  0  0  0  0  0  0  0  0  0  0
  142.4750   80.7360  222.0340 C   0  0  0  0  0  0  0  0  0  0  0  0
  142.9550   80.1400  223.1990 C   0  0  0  0  0  0  0  0  0  0  0  0
  142.2220   79.1320  223.8180 C   0  0  0  0  0  0  0  0  0  0  0  0
  141.0160   78.7040  223.2630 C   0  0  0  0  0  0  0  0  0  0  0  0
  140.5300   79.2750  222.0650 C   0  0  0  0  0  0  0  0  0  0  0  0
  139.2260   78.8270  221.4400 C   0  0  1  0  0  0  0  0  0  0  0  0
  138.6720   77.5180  221.9640 C   0  0  0  0  0  0  0  0  0  0  0  0
  139.3430   76.3040  222.1280 C   0  0  0  0  0  0  0  0  0  0  0  0
  138.5300   75.3830  222.6960 N   0  0  0  0  0  0  0  0  0  0  0  0
  137.3590   76.0040  222.9120 C   0  0  0  0  0  0  0  0  0  0  0  0
  136.2160   75.4670  223.5010 C   0  0  0  0  0  0  0  0  0  0  0  0
  135.0980   76.3070  223.6550 C   0  0  0  0  0  0  0  0  0  0  0  0
  135.1500   77.6520  223.2260 C   0  0  0  0  0  0  0  0  0  0  0  0
  136.3190   78.1680  222.6370 C   0  0  0  0  0  0  0  0  0  0  0  0
  137.4090   77.3070  222.4900 C   0  0  0  0  0  0  0  0  0  0  0  0
  136.1094   82.1422  222.8533 H   0  0  0  0  0  0  0  0  0  0  0  0
  135.6528   80.4050  223.0042 H   0  0  0  0  0  0  0  0  0  0  0  0
  134.1681   80.3817  224.8439 H   0  0  0  0  0  0  0  0  0  0  0  0
  133.8262   80.6438  227.3026 H   0  0  0  0  0  0  0  0  0  0  0  0
  135.5665   81.7680  228.6954 H   0  0  0  0  0  0  0  0  0  0  0  0
  137.6549   82.6279  227.6329 H   0  0  0  0  0  0  0  0  0  0  0  0
  138.0045   82.3731  225.1746 H   0  0  0  0  0  0  0  0  0  0  0  0
  137.6908   80.3148  219.5337 H   0  0  0  0  0  0  0  0  0  0  0  0
  137.7201   81.7337  220.7364 H   0  0  0  0  0  0  0  0  0  0  0  0
  139.4851   81.9643  218.9502 H   0  0  0  0  0  0  0  0  0  0  0  0
  141.6065   81.4237  219.5953 H   0  0  0  0  0  0  0  0  0  0  0  0
  143.0625   81.5295  221.5490 H   0  0  0  0  0  0  0  0  0  0  0  0
  143.9133   80.4665  223.6292 H   0  0  0  0  0  0  0  0  0  0  0  0
  142.5939   78.6724  224.7456 H   0  0  0  0  0  0  0  0  0  0  0  0
  140.4370   77.9136  223.7631 H   0  0  0  0  0  0  0  0  0  0  0  0
  139.4699   78.6157  220.3884 H   0  0  0  0  0  0  0  0  0  0  0  0
  140.3877   76.1217  221.8359 H   0  0  0  0  0  0  0  0  0  0  0  0
  138.7760   74.3970  222.9350 H   0  0  0  0  0  0  0  0  0  0  0  0
  136.1887   74.4193  223.8350 H   0  0  0  0  0  0  0  0  0  0  0  0
  134.1779   75.9142  224.1122 H   0  0  0  0  0  0  0  0  0  0  0  0
  134.2705   78.3003  223.3533 H   0  0  0  0  0  0  0  0  0  0  0  0
  136.3727   79.2148  222.3033 H   0  0  0  0  0  0  0  0  0  0  0  0
  1  2  2  0
  2  3  2  0
  2  4  1  0
  4  5  1  0
  5  6  2  0
  6  7  1  0
  7  8  2  0
  8  9  1  0
  9 10  2  0
  2 11  1  0
 11 12  1  0
 12 13  1  0
 13 14  2  0
 14 15  1  0
 15 16  2  0
 16 17  1  0
 17 18  2  0
 18 19  1  0
 19 20  2  0
 20 21  1  0
 21 22  1  0
 22 23  2  0
 23 24  1  0
 24 25  1  0
 25 26  2  0
 26 27  1  0
 27 28  2  0
 28 29  1  0
 29 30  2  0
 10  5  1  0
 21 11  1  0
 30 22  1  0
 20 15  1  0
 30 25  1  0
  4 31  1  0
  4 32  1  0
  6 33  1  0
  7 34  1  0
  8 35  1  0
  9 36  1  0
 10 37  1  0
 12 38  1  0
 12 39  1  0
 13 40  1  0
 14 41  1  0
 16 42  1  0
 17 43  1  0
 18 44  1  0
 19 45  1  0
 21 46  1  6
 23 47  1  0
 24 48  1  0
 26 49  1  0
 27 50  1  0
 28 51  1  0
 29 52  1  0
M  END
>  <UniqueID>  (55) 
4

>  <SMILES>  (55) 
O=S(=O)(Cc1ccccc1)N1CC=Cc2ccccc2[C@H]1c1c[nH]c2ccccc12

>  <Energy>  (55) 
110.87500376130352

>  <Genealogy>  (55) 
O=S(=O)(Cc1ccccc1)N1CC=Cc2ccccc2[C@H]1c1c[nH]c2ccccc12 (3D coordinates assigned)
O=S(=O)(Cc1ccccc1)N1CC=Cc2ccccc2[C@H]1c1c[nH]c2ccccc12 (nonaromatic ring conformer: 110.87500376130352 kcal/mol)

>  <smiles>  (55) 
O=S(=O)(Cc1ccccc1)N1CC=Cc2ccccc2[C@H]1c1c[nH]c2ccccc12

>  <score_type>  (55) 
oracle

>  <origin>  (55) 
autodockgpu

>  <m_score__min__energy>  (55) 
-6.2800000000000002

>  <m_primary>  (55) 
energy

>  <meeko>  (55) 
{"free_energy": -5.72, "intermolecular_energy": -8.4, "internal_energy": -2.39, "cluster_size": 5, "cluster_id": 2, "rank_in_cluster": 3}

>  <energy>  (55) 
-4.78

>  <cluster_rmsd>  (55) 
0.06

>  <rmsd>  (55) 
269.14

>  <cluster>  (55) 
5

$$$$
GKGZHBJKEIVYHI-VWLOTQADNA-N
     RDKit          3D

 52 56  0  0  0  0  0  0  0  0999 V2000
  139.9380   76.5400  218.3810 O   0  0  0  0  0  0  0  0  0  0  0  0
  139.5610   76.9590  219.7760 S   0  0  0  0  0  0  0  0  0  0  0  0
  138.5960   75.9470  220.3290 O   0  0  0  0  0  0  0  0  0  0  0  0
  138.7390   78.5480  219.6930 C   0  0  0  0  0  0  0  0  0  0  0  0
  138.6670   79.1700  221.0580 C   0  0  0  0  0  0  0  0  0  0  0  0
  138.9600   78.4070  222.2020 C   0  0  0  0  0  0  0  0  0  0  0  0
  138.9230   78.9960  223.4690 C   0  0  0  0  0  0  0  0  0  0  0  0
  138.6020   80.3500  223.6030 C   0  0  0  0  0  0  0  0  0  0  0  0
  138.3210   81.1170  222.4710 C   0  0  0  0  0  0  0  0  0  0  0  0
  138.3570   80.5320  221.2000 C   0  0  0  0  0  0  0  0  0  0  0  0
  141.0260   76.9980  220.7480 N   0  0  0  0  0  0  0  0  0  0  0  0
  141.4130   75.6760  221.2700 C   0  0  0  0  0  0  0  0  0  0  0  0
  142.5010   74.9170  220.5320 C   0  0  0  0  0  0  0  0  0  0  0  0
  143.0840   75.1550  219.3450 C   0  0  0  0  0  0  0  0  0  0  0  0
  142.8450   76.2690  218.3940 C   0  0  0  0  0  0  0  0  0  0  0  0
  143.1120   76.0210  217.0350 C   0  0  0  0  0  0  0  0  0  0  0  0
  142.8860   77.0020  216.0710 C   0  0  0  0  0  0  0  0  0  0  0  0
  142.3950   78.2470  216.4470 C   0  0  0  0  0  0  0  0  0  0  0  0
  142.1460   78.5240  217.7910 C   0  0  0  0  0  0  0  0  0  0  0  0
  142.3980   77.5520  218.7860 C   0  0  0  0  0  0  0  0  0  0  0  0
  142.1400   77.8260  220.2520 C   0  0  1  0  0  0  0  0  0  0  0  0
  141.9490   79.2850  220.6150 C   0  0  0  0  0  0  0  0  0  0  0  0
  141.4710   80.3180  219.8040 C   0  0  0  0  0  0  0  0  0  0  0  0
  141.3690   81.4670  220.5090 N   0  0  0  0  0  0  0  0  0  0  0  0
  141.7560   81.1730  221.7600 C   0  0  0  0  0  0  0  0  0  0  0  0
  141.7990   82.0340  222.8560 C   0  0  0  0  0  0  0  0  0  0  0  0
  142.2160   81.5070  224.0920 C   0  0  0  0  0  0  0  0  0  0  0  0
  142.5710   80.1450  224.2040 C   0  0  0  0  0  0  0  0  0  0  0  0
  142.5150   79.2980  223.0820 C   0  0  0  0  0  0  0  0  0  0  0  0
  142.1060   79.8520  221.8680 C   0  0  0  0  0  0  0  0  0  0  0  0
  139.3013   79.2127  219.0206 H   0  0  0  0  0  0  0  0  0  0  0  0
  137.7174   78.4027  219.3119 H   0  0  0  0  0  0  0  0  0  0  0  0
  139.2192   77.3429  222.0996 H   0  0  0  0  0  0  0  0  0  0  0  0
  139.1467   78.3935  224.3617 H   0  0  0  0  0  0  0  0  0  0  0  0
  138.5708   80.8113  224.6011 H   0  0  0  0  0  0  0  0  0  0  0  0
  138.0709   82.1828  222.5781 H   0  0  0  0  0  0  0  0  0  0  0  0
  138.1418   81.1411  220.3097 H   0  0  0  0  0  0  0  0  0  0  0  0
  141.7566   75.8192  222.3051 H   0  0  0  0  0  0  0  0  0  0  0  0
  140.5122   75.0558  221.1519 H   0  0  0  0  0  0  0  0  0  0  0  0
  142.8739   74.0244  221.0557 H   0  0  0  0  0  0  0  0  0  0  0  0
  143.8439   74.4225  219.0351 H   0  0  0  0  0  0  0  0  0  0  0  0
  143.5043   75.0399  216.7293 H   0  0  0  0  0  0  0  0  0  0  0  0
  143.0963   76.7909  215.0121 H   0  0  0  0  0  0  0  0  0  0  0  0
  142.2026   79.0149  215.6833 H   0  0  0  0  0  0  0  0  0  0  0  0
  141.7496   79.5086  218.0797 H   0  0  0  0  0  0  0  0  0  0  0  0
  143.0696   77.5386  220.7650 H   0  0  0  0  0  0  0  0  0  0  0  0
  141.2135   80.2110  218.7399 H   0  0  0  0  0  0  0  0  0  0  0  0
  141.0350   82.3910  220.1520 H   0  0  0  0  0  0  0  0  0  0  0  0
  141.5157   83.0923  222.7573 H   0  0  0  0  0  0  0  0  0  0  0  0
  142.2658   82.1597  224.9760 H   0  0  0  0  0  0  0  0  0  0  0  0
  142.8938   79.7431  225.1758 H   0  0  0  0  0  0  0  0  0  0  0  0
  142.7846   78.2343  223.1590 H   0  0  0  0  0  0  0  0  0  0  0  0
  1  2  2  0
  2  3  2  0
  2  4  1  0
  4  5  1  0
  5  6  2  0
  6  7  1  0
  7  8  2  0
  8  9  1  0
  9 10  2  0
  2 11  1  0
 11 12  1  0
 12 13  1  0
 13 14  2  0
 14 15  1  0
 15 16  2  0
 16 17  1  0
 17 18  2  0
 18 19  1  0
 19 20  2  0
 20 21  1  0
 21 22  1  0
 22 23  2  0
 23 24  1  0
 24 25  1  0
 25 26  2  0
 26 27  1  0
 27 28  2  0
 28 29  1  0
 29 30  2  0
 10  5  1  0
 21 11  1  0
 30 22  1  0
 20 15  1  0
 30 25  1  0
  4 31  1  0
  4 32  1  0
  6 33  1  0
  7 34  1  0
  8 35  1  0
  9 36  1  0
 10 37  1  0
 12 38  1  0
 12 39  1  0
 13 40  1  0
 14 41  1  0
 16 42  1  0
 17 43  1  0
 18 44  1  0
 19 45  1  0
 21 46  1  1
 23 47  1  0
 24 48  1  0
 26 49  1  0
 27 50  1  0
 28 51  1  0
 29 52  1  0
M  END
>  <UniqueID>  (56) 
4

>  <SMILES>  (56) 
O=S(=O)(Cc1ccccc1)N1CC=Cc2ccccc2[C@H]1c1c[nH]c2ccccc12

>  <Energy>  (56) 
110.87500376130352

>  <Genealogy>  (56) 
O=S(=O)(Cc1ccccc1)N1CC=Cc2ccccc2[C@H]1c1c[nH]c2ccccc12 (3D coordinates assigned)
O=S(=O)(Cc1ccccc1)N1CC=Cc2ccccc2[C@H]1c1c[nH]c2ccccc12 (nonaromatic ring conformer: 110.87500376130352 kcal/mol)

>  <smiles>  (56) 
O=S(=O)(Cc1ccccc1)N1CC=Cc2ccccc2[C@H]1c1c[nH]c2ccccc12

>  <score_type>  (56) 
oracle

>  <origin>  (56) 
autodockgpu

>  <m_score__min__energy>  (56) 
-6.2800000000000002

>  <m_primary>  (56) 
energy

>  <meeko>  (56) 
{"free_energy": -4.44, "intermolecular_energy": -7.12, "internal_energy": -2.86, "cluster_size": 1, "cluster_id": 8, "rank_in_cluster": 1}

>  <energy>  (56) 
-4.63

>  <cluster_rmsd>  (56) 
0.43

>  <rmsd>  (56) 
269.11

>  <cluster>  (56) 
5

$$$$
GKGZHBJKEIVYHI-VWLOTQADNA-N
     RDKit          3D

 52 56  0  0  0  0  0  0  0  0999 V2000
  138.8990   82.5040  221.9370 O   0  0  0  0  0  0  0  0  0  0  0  0
  139.3950   81.1300  221.5800 S   0  0  0  0  0  0  0  0  0  0  0  0
  138.9860   80.8330  220.1630 O   0  0  0  0  0  0  0  0  0  0  0  0
  138.6100   79.9390  222.6630 C   0  0  0  0  0  0  0  0  0  0  0  0
  137.6590   80.6310  223.5970 C   0  0  0  0  0  0  0  0  0  0  0  0
  136.3560   80.9500  223.1760 C   0  0  0  0  0  0  0  0  0  0  0  0
  135.4630   81.5650  224.0570 C   0  0  0  0  0  0  0  0  0  0  0  0
  135.8590   81.8590  225.3650 C   0  0  0  0  0  0  0  0  0  0  0  0
  137.1480   81.5350  225.7950 C   0  0  0  0  0  0  0  0  0  0  0  0
  138.0460   80.9190  224.9160 C   0  0  0  0  0  0  0  0  0  0  0  0
  141.1480   81.1300  221.7200 N   0  0  0  0  0  0  0  0  0  0  0  0
  141.6210   81.3550  223.0960 C   0  0  0  0  0  0  0  0  0  0  0  0
  141.9160   80.1340  223.9490 C   0  0  0  0  0  0  0  0  0  0  0  0
  141.8540   78.8230  223.6530 C   0  0  0  0  0  0  0  0  0  0  0  0
  141.2570   78.1640  222.4640 C   0  0  0  0  0  0  0  0  0  0  0  0
  140.6970   76.8870  222.6510 C   0  0  0  0  0  0  0  0  0  0  0  0
  140.0890   76.2110  221.5940 C   0  0  0  0  0  0  0  0  0  0  0  0
  140.0350   76.7950  220.3330 C   0  0  0  0  0  0  0  0  0  0  0  0
  140.6050   78.0490  220.1190 C   0  0  0  0  0  0  0  0  0  0  0  0
  141.2520   78.7370  221.1710 C   0  0  0  0  0  0  0  0  0  0  0  0
  141.8820   80.0970  220.9650 C   0  0  1  0  0  0  0  0  0  0  0  0
  142.0830   80.5080  219.5200 C   0  0  0  0  0  0  0  0  0  0  0  0
  142.5300   79.7200  218.4570 C   0  0  0  0  0  0  0  0  0  0  0  0
  142.5050   80.4220  217.3010 N   0  0  0  0  0  0  0  0  0  0  0  0
  142.0300   81.6380  217.6140 C   0  0  0  0  0  0  0  0  0  0  0  0
  141.8020   82.7050  216.7460 C   0  0  0  0  0  0  0  0  0  0  0  0
  141.2720   83.8910  217.2860 C   0  0  0  0  0  0  0  0  0  0  0  0
  140.9790   83.9800  218.6650 C   0  0  0  0  0  0  0  0  0  0  0  0
  141.2160   82.8860  219.5170 C   0  0  0  0  0  0  0  0  0  0  0  0
  141.7510   81.7260  218.9540 C   0  0  0  0  0  0  0  0  0  0  0  0
  138.0554   79.2076  222.0567 H   0  0  0  0  0  0  0  0  0  0  0  0
  139.3843   79.4285  223.2544 H   0  0  0  0  0  0  0  0  0  0  0  0
  136.0386   80.7145  222.1494 H   0  0  0  0  0  0  0  0  0  0  0  0
  134.4467   81.8183  223.7209 H   0  0  0  0  0  0  0  0  0  0  0  0
  135.1551   82.3458  226.0561 H   0  0  0  0  0  0  0  0  0  0  0  0
  137.4574   81.7643  226.8254 H   0  0  0  0  0  0  0  0  0  0  0  0
  139.0583   80.6595  225.2593 H   0  0  0  0  0  0  0  0  0  0  0  0
  142.5482   81.9434  223.0326 H   0  0  0  0  0  0  0  0  0  0  0  0
  140.7795   81.8510  223.6018 H   0  0  0  0  0  0  0  0  0  0  0  0
  142.2325   80.3582  224.9784 H   0  0  0  0  0  0  0  0  0  0  0  0
  142.3075   78.1471  224.3929 H   0  0  0  0  0  0  0  0  0  0  0  0
  140.7394   76.4158  223.6440 H   0  0  0  0  0  0  0  0  0  0  0  0
  139.6517   75.2150  221.7576 H   0  0  0  0  0  0  0  0  0  0  0  0
  139.5420   76.2668  219.5036 H   0  0  0  0  0  0  0  0  0  0  0  0
  140.5508   78.5082  219.1209 H   0  0  0  0  0  0  0  0  0  0  0  0
  142.9027   80.0022  221.3639 H   0  0  0  0  0  0  0  0  0  0  0  0
  142.8570   78.6736  218.5473 H   0  0  0  0  0  0  0  0  0  0  0  0
  142.7810   80.0760  216.3550 H   0  0  0  0  0  0  0  0  0  0  0  0
  142.0293   82.6221  215.6729 H   0  0  0  0  0  0  0  0  0  0  0  0
  141.0846   84.7542  216.6305 H   0  0  0  0  0  0  0  0  0  0  0  0
  140.5625   84.9116  219.0756 H   0  0  0  0  0  0  0  0  0  0  0  0
  140.9873   82.9427  220.5915 H   0  0  0  0  0  0  0  0  0  0  0  0
  1  2  2  0
  2  3  2  0
  2  4  1  0
  4  5  1  0
  5  6  2  0
  6  7  1  0
  7  8  2  0
  8  9  1  0
  9 10  2  0
  2 11  1  0
 11 12  1  0
 12 13  1  0
 13 14  2  0
 14 15  1  0
 15 16  2  0
 16 17  1  0
 17 18  2  0
 18 19  1  0
 19 20  2  0
 20 21  1  0
 21 22  1  0
 22 23  2  0
 23 24  1  0
 24 25  1  0
 25 26  2  0
 26 27  1  0
 27 28  2  0
 28 29  1  0
 29 30  2  0
 10  5  1  0
 21 11  1  0
 30 22  1  0
 20 15  1  0
 30 25  1  0
  4 31  1  0
  4 32  1  0
  6 33  1  0
  7 34  1  0
  8 35  1  0
  9 36  1  0
 10 37  1  0
 12 38  1  0
 12 39  1  0
 13 40  1  0
 14 41  1  0
 16 42  1  0
 17 43  1  0
 18 44  1  0
 19 45  1  0
 21 46  1  1
 23 47  1  0
 24 48  1  0
 26 49  1  0
 27 50  1  0
 28 51  1  0
 29 52  1  0
M  END
>  <UniqueID>  (57) 
4

>  <SMILES>  (57) 
O=S(=O)(Cc1ccccc1)N1CC=Cc2ccccc2[C@H]1c1c[nH]c2ccccc12

>  <Energy>  (57) 
110.87500376130352

>  <Genealogy>  (57) 
O=S(=O)(Cc1ccccc1)N1CC=Cc2ccccc2[C@H]1c1c[nH]c2ccccc12 (3D coordinates assigned)
O=S(=O)(Cc1ccccc1)N1CC=Cc2ccccc2[C@H]1c1c[nH]c2ccccc12 (nonaromatic ring conformer: 110.87500376130352 kcal/mol)

>  <smiles>  (57) 
O=S(=O)(Cc1ccccc1)N1CC=Cc2ccccc2[C@H]1c1c[nH]c2ccccc12

>  <score_type>  (57) 
oracle

>  <origin>  (57) 
autodockgpu

>  <m_score__min__energy>  (57) 
-6.2800000000000002

>  <m_primary>  (57) 
energy

>  <meeko>  (57) 
{"free_energy": -5.59, "intermolecular_energy": -8.27, "internal_energy": -2.46, "cluster_size": 3, "cluster_id": 3, "rank_in_cluster": 1}

>  <energy>  (57) 
-4.8

>  <cluster_rmsd>  (57) 
0.0

>  <rmsd>  (57) 
269.4

>  <cluster>  (57) 
6

$$$$
GKGZHBJKEIVYHI-VWLOTQADNA-N
     RDKit          3D

 52 56  0  0  0  0  0  0  0  0999 V2000
  138.7540   78.5460  222.9510 O   0  0  0  0  0  0  0  0  0  0  0  0
  138.3250   79.0750  221.6100 S   0  0  0  0  0  0  0  0  0  0  0  0
  138.3800   80.5770  221.6550 O   0  0  0  0  0  0  0  0  0  0  0  0
  136.6320   78.5730  221.3120 C   0  0  0  0  0  0  0  0  0  0  0  0
  136.4260   77.1490  221.7420 C   0  0  0  0  0  0  0  0  0  0  0  0
  136.4450   76.1110  220.7930 C   0  0  0  0  0  0  0  0  0  0  0  0
  136.2850   74.7840  221.2000 C   0  0  0  0  0  0  0  0  0  0  0  0
  136.1130   74.4820  222.5540 C   0  0  0  0  0  0  0  0  0  0  0  0
  136.1040   75.5060  223.5030 C   0  0  0  0  0  0  0  0  0  0  0  0
  136.2640   76.8360  223.1010 C   0  0  0  0  0  0  0  0  0  0  0  0
  139.4430   78.4610  220.3990 N   0  0  0  0  0  0  0  0  0  0  0  0
  139.5620   79.3360  219.2210 C   0  0  0  0  0  0  0  0  0  0  0  0
  140.7720   80.2510  219.1420 C   0  0  0  0  0  0  0  0  0  0  0  0
  141.6920   80.5750  220.0720 C   0  0  0  0  0  0  0  0  0  0  0  0
  141.8170   80.0810  221.4660 C   0  0  0  0  0  0  0  0  0  0  0  0
  142.4490   80.9290  222.3930 C   0  0  0  0  0  0  0  0  0  0  0  0
  142.5820   80.5550  223.7300 C   0  0  0  0  0  0  0  0  0  0  0  0
  142.0900   79.3280  224.1620 C   0  0  0  0  0  0  0  0  0  0  0  0
  141.4810   78.4610  223.2560 C   0  0  0  0  0  0  0  0  0  0  0  0
  141.3650   78.8100  221.8910 C   0  0  0  0  0  0  0  0  0  0  0  0
  140.7110   77.8860  220.8850 C   0  0  1  0  0  0  0  0  0  0  0  0
  140.5300   76.4530  221.3420 C   0  0  0  0  0  0  0  0  0  0  0  0
  139.4740   75.9130  222.0810 C   0  0  0  0  0  0  0  0  0  0  0  0
  139.6300   74.5780  222.2270 N   0  0  0  0  0  0  0  0  0  0  0  0
  140.7590   74.2610  221.5740 C   0  0  0  0  0  0  0  0  0  0  0  0
  141.3210   72.9930  221.4250 C   0  0  0  0  0  0  0  0  0  0  0  0
  142.5050   72.8830  220.6730 C   0  0  0  0  0  0  0  0  0  0  0  0
  143.0900   74.0280  220.0890 C   0  0  0  0  0  0  0  0  0  0  0  0
  142.4990   75.2940  220.2530 C   0  0  0  0  0  0  0  0  0  0  0  0
  141.3300   75.3730  221.0120 C   0  0  0  0  0  0  0  0  0  0  0  0
  135.9545   79.2256  221.8822 H   0  0  0  0  0  0  0  0  0  0  0  0
  136.4189   78.6557  220.2360 H   0  0  0  0  0  0  0  0  0  0  0  0
  136.5862   76.3446  219.7274 H   0  0  0  0  0  0  0  0  0  0  0  0
  136.2944   73.9758  220.4539 H   0  0  0  0  0  0  0  0  0  0  0  0
  135.9847   73.4368  222.8720 H   0  0  0  0  0  0  0  0  0  0  0  0
  135.9709   75.2664  224.5683 H   0  0  0  0  0  0  0  0  0  0  0  0
  136.2629   77.6396  223.8522 H   0  0  0  0  0  0  0  0  0  0  0  0
  139.5803   78.6891  218.3315 H   0  0  0  0  0  0  0  0  0  0  0  0
  138.7015   80.0175  219.2921 H   0  0  0  0  0  0  0  0  0  0  0  0
  140.9223   80.7287  218.1626 H   0  0  0  0  0  0  0  0  0  0  0  0
  142.4527   81.3037  219.7553 H   0  0  0  0  0  0  0  0  0  0  0  0
  142.8436   81.9000  222.0592 H   0  0  0  0  0  0  0  0  0  0  0  0
  143.0764   81.2309  224.4433 H   0  0  0  0  0  0  0  0  0  0  0  0
  142.1815   79.0413  225.2200 H   0  0  0  0  0  0  0  0  0  0  0  0
  141.0868   77.4958  223.6067 H   0  0  0  0  0  0  0  0  0  0  0  0
  141.4269   77.8152  220.0529 H   0  0  0  0  0  0  0  0  0  0  0  0
  138.6327   76.4935  222.4875 H   0  0  0  0  0  0  0  0  0  0  0  0
  138.9870   73.9260  222.7300 H   0  0  0  0  0  0  0  0  0  0  0  0
  140.8536   72.1077  221.8807 H   0  0  0  0  0  0  0  0  0  0  0  0
  142.9780   71.8990  220.5391 H   0  0  0  0  0  0  0  0  0  0  0  0
  144.0147   73.9292  219.5015 H   0  0  0  0  0  0  0  0  0  0  0  0
  142.9432   76.1918  219.7983 H   0  0  0  0  0  0  0  0  0  0  0  0
  1  2  2  0
  2  3  2  0
  2  4  1  0
  4  5  1  0
  5  6  2  0
  6  7  1  0
  7  8  2  0
  8  9  1  0
  9 10  2  0
  2 11  1  0
 11 12  1  0
 12 13  1  0
 13 14  2  0
 14 15  1  0
 15 16  2  0
 16 17  1  0
 17 18  2  0
 18 19  1  0
 19 20  2  0
 20 21  1  0
 21 22  1  0
 22 23  2  0
 23 24  1  0
 24 25  1  0
 25 26  2  0
 26 27  1  0
 27 28  2  0
 28 29  1  0
 29 30  2  0
 10  5  1  0
 21 11  1  0
 30 22  1  0
 20 15  1  0
 30 25  1  0
  4 31  1  0
  4 32  1  0
  6 33  1  0
  7 34  1  0
  8 35  1  0
  9 36  1  0
 10 37  1  0
 12 38  1  0
 12 39  1  0
 13 40  1  0
 14 41  1  0
 16 42  1  0
 17 43  1  0
 18 44  1  0
 19 45  1  0
 21 46  1  6
 23 47  1  0
 24 48  1  0
 26 49  1  0
 27 50  1  0
 28 51  1  0
 29 52  1  0
M  END
>  <UniqueID>  (58) 
4

>  <SMILES>  (58) 
O=S(=O)(Cc1ccccc1)N1CC=Cc2ccccc2[C@H]1c1c[nH]c2ccccc12

>  <Energy>  (58) 
110.87500376130352

>  <Genealogy>  (58) 
O=S(=O)(Cc1ccccc1)N1CC=Cc2ccccc2[C@H]1c1c[nH]c2ccccc12 (3D coordinates assigned)
O=S(=O)(Cc1ccccc1)N1CC=Cc2ccccc2[C@H]1c1c[nH]c2ccccc12 (nonaromatic ring conformer: 110.87500376130352 kcal/mol)

>  <smiles>  (58) 
O=S(=O)(Cc1ccccc1)N1CC=Cc2ccccc2[C@H]1c1c[nH]c2ccccc12

>  <score_type>  (58) 
oracle

>  <origin>  (58) 
autodockgpu

>  <m_score__min__energy>  (58) 
-6.2800000000000002

>  <m_primary>  (58) 
energy

>  <meeko>  (58) 
{"free_energy": -4.8, "intermolecular_energy": -7.49, "internal_energy": -2.7, "cluster_size": 1, "cluster_id": 6, "rank_in_cluster": 1}

>  <energy>  (58) 
-4.79

>  <cluster_rmsd>  (58) 
0.0

>  <rmsd>  (58) 
269.99

>  <cluster>  (58) 
7

$$$$
GKGZHBJKEIVYHI-VWLOTQADNA-N
     RDKit          3D

 52 56  0  0  0  0  0  0  0  0999 V2000
  141.0420   74.6860  222.1540 O   0  0  0  0  0  0  0  0  0  0  0  0
  140.4430   75.1450  220.8530 S   0  0  0  0  0  0  0  0  0  0  0  0
  139.0460   74.5960  220.7560 O   0  0  0  0  0  0  0  0  0  0  0  0
  141.4160   74.4750  219.5070 C   0  0  0  0  0  0  0  0  0  0  0  0
  142.7590   74.0250  220.0070 C   0  0  0  0  0  0  0  0  0  0  0  0
  142.9660   72.6860  220.3800 C   0  0  0  0  0  0  0  0  0  0  0  0
  144.2250   72.2630  220.8160 C   0  0  0  0  0  0  0  0  0  0  0  0
  145.2870   73.1710  220.8750 C   0  0  0  0  0  0  0  0  0  0  0  0
  145.0920   74.5010  220.4950 C   0  0  0  0  0  0  0  0  0  0  0  0
  143.8340   74.9280  220.0590 C   0  0  0  0  0  0  0  0  0  0  0  0
  140.4060   76.9030  220.8600 N   0  0  0  0  0  0  0  0  0  0  0  0
  139.6990   77.4750  219.7020 C   0  0  0  0  0  0  0  0  0  0  0  0
  139.5730   78.9870  219.6270 C   0  0  0  0  0  0  0  0  0  0  0  0
  140.1410   79.9510  220.3730 C   0  0  0  0  0  0  0  0  0  0  0  0
  141.0790   79.8190  221.5160 C   0  0  0  0  0  0  0  0  0  0  0  0
  142.0000   80.8630  221.7150 C   0  0  0  0  0  0  0  0  0  0  0  0
  142.8960   80.8350  222.7820 C   0  0  0  0  0  0  0  0  0  0  0  0
  142.8900   79.7620  223.6670 C   0  0  0  0  0  0  0  0  0  0  0  0
  142.0020   78.7040  223.4760 C   0  0  0  0  0  0  0  0  0  0  0  0
  141.1070   78.7010  222.3820 C   0  0  0  0  0  0  0  0  0  0  0  0
  140.1350   77.5650  222.1490 C   0  0  1  0  0  0  0  0  0  0  0  0
  138.6700   77.9250  222.2880 C   0  0  0  0  0  0  0  0  0  0  0  0
  137.5670   77.2700  221.7350 C   0  0  0  0  0  0  0  0  0  0  0  0
  136.4150   77.8450  222.1480 N   0  0  0  0  0  0  0  0  0  0  0  0
  136.7720   78.8440  222.9720 C   0  0  0  0  0  0  0  0  0  0  0  0
  135.9270   79.7110  223.6640 C   0  0  0  0  0  0  0  0  0  0  0  0
  136.5170   80.6760  224.5000 C   0  0  0  0  0  0  0  0  0  0  0  0
  137.9210   80.7490  224.6280 C   0  0  0  0  0  0  0  0  0  0  0  0
  138.7490   79.8590  223.9200 C   0  0  0  0  0  0  0  0  0  0  0  0
  138.1360   78.9170  223.0920 C   0  0  0  0  0  0  0  0  0  0  0  0
  140.8860   73.6166  219.0685 H   0  0  0  0  0  0  0  0  0  0  0  0
  141.5612   75.2570  218.7471 H   0  0  0  0  0  0  0  0  0  0  0  0
  142.1342   71.9681  220.3287 H   0  0  0  0  0  0  0  0  0  0  0  0
  144.3805   71.2153  221.1128 H   0  0  0  0  0  0  0  0  0  0  0  0
  146.2766   72.8376  221.2209 H   0  0  0  0  0  0  0  0  0  0  0  0
  145.9291   75.2132  220.5388 H   0  0  0  0  0  0  0  0  0  0  0  0
  143.6855   75.9748  219.7556 H   0  0  0  0  0  0  0  0  0  0  0  0
  140.2299   77.1444  218.7971 H   0  0  0  0  0  0  0  0  0  0  0  0
  138.6645   77.1148  219.8026 H   0  0  0  0  0  0  0  0  0  0  0  0
  138.9076   79.3537  218.8315 H   0  0  0  0  0  0  0  0  0  0  0  0
  139.8730   80.9817  220.0977 H   0  0  0  0  0  0  0  0  0  0  0  0
  142.0133   81.7141  221.0183 H   0  0  0  0  0  0  0  0  0  0  0  0
  143.6079   81.6614  222.9243 H   0  0  0  0  0  0  0  0  0  0  0  0
  143.5864   79.7480  224.5184 H   0  0  0  0  0  0  0  0  0  0  0  0
  141.9980   77.8625  224.1844 H   0  0  0  0  0  0  0  0  0  0  0  0
  140.3193   76.8589  222.9721 H   0  0  0  0  0  0  0  0  0  0  0  0
  137.6273   76.4058  221.0572 H   0  0  0  0  0  0  0  0  0  0  0  0
  135.4450   77.5550  221.8920 H   0  0  0  0  0  0  0  0  0  0  0  0
  134.8341   79.6424  223.5594 H   0  0  0  0  0  0  0  0  0  0  0  0
  135.8802   81.3785  225.0578 H   0  0  0  0  0  0  0  0  0  0  0  0
  138.3707   81.5072  225.2860 H   0  0  0  0  0  0  0  0  0  0  0  0
  139.8439   79.9039  224.0157 H   0  0  0  0  0  0  0  0  0  0  0  0
  1  2  2  0
  2  3  2  0
  2  4  1  0
  4  5  1  0
  5  6  2  0
  6  7  1  0
  7  8  2  0
  8  9  1  0
  9 10  2  0
  2 11  1  0
 11 12  1  0
 12 13  1  0
 13 14  2  0
 14 15  1  0
 15 16  2  0
 16 17  1  0
 17 18  2  0
 18 19  1  0
 19 20  2  0
 20 21  1  0
 21 22  1  0
 22 23  2  0
 23 24  1  0
 24 25  1  0
 25 26  2  0
 26 27  1  0
 27 28  2  0
 28 29  1  0
 29 30  2  0
 10  5  1  0
 21 11  1  0
 30 22  1  0
 20 15  1  0
 30 25  1  0
  4 31  1  0
  4 32  1  0
  6 33  1  0
  7 34  1  0
  8 35  1  0
  9 36  1  0
 10 37  1  0
 12 38  1  0
 12 39  1  0
 13 40  1  0
 14 41  1  0
 16 42  1  0
 17 43  1  0
 18 44  1  0
 19 45  1  0
 21 46  1  1
 23 47  1  0
 24 48  1  0
 26 49  1  0
 27 50  1  0
 28 51  1  0
 29 52  1  0
M  END
>  <UniqueID>  (59) 
4

>  <SMILES>  (59) 
O=S(=O)(Cc1ccccc1)N1CC=Cc2ccccc2[C@H]1c1c[nH]c2ccccc12

>  <Energy>  (59) 
110.87500376130352

>  <Genealogy>  (59) 
O=S(=O)(Cc1ccccc1)N1CC=Cc2ccccc2[C@H]1c1c[nH]c2ccccc12 (3D coordinates assigned)
O=S(=O)(Cc1ccccc1)N1CC=Cc2ccccc2[C@H]1c1c[nH]c2ccccc12 (nonaromatic ring conformer: 110.87500376130352 kcal/mol)

>  <smiles>  (59) 
O=S(=O)(Cc1ccccc1)N1CC=Cc2ccccc2[C@H]1c1c[nH]c2ccccc12

>  <score_type>  (59) 
oracle

>  <origin>  (59) 
autodockgpu

>  <m_score__min__energy>  (59) 
-6.2800000000000002

>  <m_primary>  (59) 
energy

>  <meeko>  (59) 
{"free_energy": -5.87, "intermolecular_energy": -8.55, "internal_energy": -1.87, "cluster_size": 2, "cluster_id": 1, "rank_in_cluster": 2}

>  <energy>  (59) 
-4.44

>  <cluster_rmsd>  (59) 
0.0

>  <rmsd>  (59) 
269.59

>  <cluster>  (59) 
8

$$$$
GKGZHBJKEIVYHI-VWLOTQADNA-N
     RDKit          3D

 52 56  0  0  0  0  0  0  0  0999 V2000
  138.6040   77.5890  222.6510 O   0  0  0  0  0  0  0  0  0  0  0  0
  139.7700   76.8040  222.1170 S   0  0  0  0  0  0  0  0  0  0  0  0
  139.4880   75.3410  222.3200 O   0  0  0  0  0  0  0  0  0  0  0  0
  141.2320   77.2400  223.0550 C   0  0  0  0  0  0  0  0  0  0  0  0
  141.3810   78.7330  223.1240 C   0  0  0  0  0  0  0  0  0  0  0  0
  140.3660   79.5230  223.6910 C   0  0  0  0  0  0  0  0  0  0  0  0
  140.5210   80.9090  223.7820 C   0  0  0  0  0  0  0  0  0  0  0  0
  141.6910   81.5150  223.3160 C   0  0  0  0  0  0  0  0  0  0  0  0
  142.7100   80.7360  222.7620 C   0  0  0  0  0  0  0  0  0  0  0  0
  142.5590   79.3480  222.6680 C   0  0  0  0  0  0  0  0  0  0  0  0
  139.9270   77.1600  220.4020 N   0  0  0  0  0  0  0  0  0  0  0  0
  138.6580   77.5580  219.7720 C   0  0  0  0  0  0  0  0  0  0  0  0
  138.6940   77.9690  218.3100 C   0  0  0  0  0  0  0  0  0  0  0  0
  139.6610   77.8340  217.3850 C   0  0  0  0  0  0  0  0  0  0  0  0
  141.0330   77.2890  217.5440 C   0  0  0  0  0  0  0  0  0  0  0  0
  141.6200   76.6870  216.4170 C   0  0  0  0  0  0  0  0  0  0  0  0
  142.9160   76.1760  216.4710 C   0  0  0  0  0  0  0  0  0  0  0  0
  143.6450   76.2530  217.6520 C   0  0  0  0  0  0  0  0  0  0  0  0
  143.0750   76.8230  218.7900 C   0  0  0  0  0  0  0  0  0  0  0  0
  141.7510   77.3180  218.7620 C   0  0  0  0  0  0  0  0  0  0  0  0
  141.1070   77.9390  219.9830 C   0  0  1  0  0  0  0  0  0  0  0  0
  140.7820   79.4150  219.8660 C   0  0  0  0  0  0  0  0  0  0  0  0
  139.8440   80.1490  220.5960 C   0  0  0  0  0  0  0  0  0  0  0  0
  139.8970   81.4580  220.2590 N   0  0  0  0  0  0  0  0  0  0  0  0
  140.8710   81.5660  219.3400 C   0  0  0  0  0  0  0  0  0  0  0  0
  141.3110   82.7290  218.7100 C   0  0  0  0  0  0  0  0  0  0  0  0
  142.3700   82.6180  217.7900 C   0  0  0  0  0  0  0  0  0  0  0  0
  142.9610   81.3630  217.5280 C   0  0  0  0  0  0  0  0  0  0  0  0
  142.4980   80.2060  218.1810 C   0  0  0  0  0  0  0  0  0  0  0  0
  141.4400   80.3460  219.0820 C   0  0  0  0  0  0  0  0  0  0  0  0
  141.1427   76.8367  224.0745 H   0  0  0  0  0  0  0  0  0  0  0  0
  142.1162   76.8147  222.5577 H   0  0  0  0  0  0  0  0  0  0  0  0
  139.4464   79.0487  224.0644 H   0  0  0  0  0  0  0  0  0  0  0  0
  139.7212   81.5236  224.2209 H   0  0  0  0  0  0  0  0  0  0  0  0
  141.8097   82.6064  223.3855 H   0  0  0  0  0  0  0  0  0  0  0  0
  143.6319   81.2142  222.3994 H   0  0  0  0  0  0  0  0  0  0  0  0
  143.3649   78.7367  222.2359 H   0  0  0  0  0  0  0  0  0  0  0  0
  137.9676   76.7058  219.8568 H   0  0  0  0  0  0  0  0  0  0  0  0
  138.3543   78.4685  220.3094 H   0  0  0  0  0  0  0  0  0  0  0  0
  137.7775   78.4579  217.9480 H   0  0  0  0  0  0  0  0  0  0  0  0
  139.3997   78.1739  216.3720 H   0  0  0  0  0  0  0  0  0  0  0  0
  141.0486   76.6183  215.4796 H   0  0  0  0  0  0  0  0  0  0  0  0
  143.3617   75.7118  215.5789 H   0  0  0  0  0  0  0  0  0  0  0  0
  144.6732   75.8637  217.6890 H   0  0  0  0  0  0  0  0  0  0  0  0
  143.6613   76.8881  219.7185 H   0  0  0  0  0  0  0  0  0  0  0  0
  141.8772   77.8930  220.7671 H   0  0  0  0  0  0  0  0  0  0  0  0
  139.1574   79.7217  221.3416 H   0  0  0  0  0  0  0  0  0  0  0  0
  139.3130   82.2280  220.6530 H   0  0  0  0  0  0  0  0  0  0  0  0
  140.8454   83.7021  218.9251 H   0  0  0  0  0  0  0  0  0  0  0  0
  142.7397   83.5150  217.2716 H   0  0  0  0  0  0  0  0  0  0  0  0
  143.7895   81.2892  216.8081 H   0  0  0  0  0  0  0  0  0  0  0  0
  142.9541   79.2237  217.9883 H   0  0  0  0  0  0  0  0  0  0  0  0
  1  2  2  0
  2  3  2  0
  2  4  1  0
  4  5  1  0
  5  6  2  0
  6  7  1  0
  7  8  2  0
  8  9  1  0
  9 10  2  0
  2 11  1  0
 11 12  1  0
 12 13  1  0
 13 14  2  0
 14 15  1  0
 15 16  2  0
 16 17  1  0
 17 18  2  0
 18 19  1  0
 19 20  2  0
 20 21  1  0
 21 22  1  0
 22 23  2  0
 23 24  1  0
 24 25  1  0
 25 26  2  0
 26 27  1  0
 27 28  2  0
 28 29  1  0
 29 30  2  0
 10  5  1  0
 21 11  1  0
 30 22  1  0
 20 15  1  0
 30 25  1  0
  4 31  1  0
  4 32  1  0
  6 33  1  0
  7 34  1  0
  8 35  1  0
  9 36  1  0
 10 37  1  0
 12 38  1  0
 12 39  1  0
 13 40  1  0
 14 41  1  0
 16 42  1  0
 17 43  1  0
 18 44  1  0
 19 45  1  0
 21 46  1  1
 23 47  1  0
 24 48  1  0
 26 49  1  0
 27 50  1  0
 28 51  1  0
 29 52  1  0
M  END
>  <UniqueID>  (60) 
4

>  <SMILES>  (60) 
O=S(=O)(Cc1ccccc1)N1CC=Cc2ccccc2[C@H]1c1c[nH]c2ccccc12

>  <Energy>  (60) 
110.87500376130352

>  <Genealogy>  (60) 
O=S(=O)(Cc1ccccc1)N1CC=Cc2ccccc2[C@H]1c1c[nH]c2ccccc12 (3D coordinates assigned)
O=S(=O)(Cc1ccccc1)N1CC=Cc2ccccc2[C@H]1c1c[nH]c2ccccc12 (nonaromatic ring conformer: 110.87500376130352 kcal/mol)

>  <smiles>  (60) 
O=S(=O)(Cc1ccccc1)N1CC=Cc2ccccc2[C@H]1c1c[nH]c2ccccc12

>  <score_type>  (60) 
oracle

>  <origin>  (60) 
autodockgpu

>  <m_score__min__energy>  (60) 
-6.2800000000000002

>  <m_primary>  (60) 
energy

>  <meeko>  (60) 
{"free_energy": -4.84, "intermolecular_energy": -7.53, "internal_energy": -2.72, "cluster_size": 4, "cluster_id": 5, "rank_in_cluster": 1}

>  <energy>  (60) 
-4.21

>  <cluster_rmsd>  (60) 
0.0

>  <rmsd>  (60) 
269.92

>  <cluster>  (60) 
9

$$$$
GKGZHBJKEIVYHI-VWLOTQADNA-N
     RDKit          3D

 52 56  0  0  0  0  0  0  0  0999 V2000
  138.7220   77.1350  219.8350 O   0  0  0  0  0  0  0  0  0  0  0  0
  138.8740   75.6600  220.0860 S   0  0  0  0  0  0  0  0  0  0  0  0
  139.5640   75.0470  218.8990 O   0  0  0  0  0  0  0  0  0  0  0  0
  137.2430   74.9340  220.2380 C   0  0  0  0  0  0  0  0  0  0  0  0
  136.6670   75.2250  221.5950 C   0  0  0  0  0  0  0  0  0  0  0  0
  136.3900   76.5480  221.9790 C   0  0  0  0  0  0  0  0  0  0  0  0
  135.8250   76.8140  223.2300 C   0  0  0  0  0  0  0  0  0  0  0  0
  135.5260   75.7620  224.1010 C   0  0  0  0  0  0  0  0  0  0  0  0
  135.7880   74.4440  223.7210 C   0  0  0  0  0  0  0  0  0  0  0  0
  136.3530   74.1730  222.4710 C   0  0  0  0  0  0  0  0  0  0  0  0
  139.8520   75.4510  221.5330 N   0  0  0  0  0  0  0  0  0  0  0  0
  140.1900   74.0450  221.8080 C   0  0  0  0  0  0  0  0  0  0  0  0
  141.5260   73.5280  221.3010 C   0  0  0  0  0  0  0  0  0  0  0  0
  142.5000   74.1460  220.6050 C   0  0  0  0  0  0  0  0  0  0  0  0
  142.4830   75.4870  219.9680 C   0  0  0  0  0  0  0  0  0  0  0  0
  143.2590   75.6570  218.8080 C   0  0  0  0  0  0  0  0  0  0  0  0
  143.2770   76.8750  218.1300 C   0  0  0  0  0  0  0  0  0  0  0  0
  142.5230   77.9450  218.6010 C   0  0  0  0  0  0  0  0  0  0  0  0
  141.7660   77.8070  219.7640 C   0  0  0  0  0  0  0  0  0  0  0  0
  141.7600   76.5890  220.4810 C   0  0  0  0  0  0  0  0  0  0  0  0
  140.9490   76.4140  221.7470 C   0  0  1  0  0  0  0  0  0  0  0  0
  140.4430   77.6960  222.3780 C   0  0  0  0  0  0  0  0  0  0  0  0
  139.1450   77.9930  222.7990 C   0  0  0  0  0  0  0  0  0  0  0  0
  139.1020   79.2120  223.3830 N   0  0  0  0  0  0  0  0  0  0  0  0
  140.3590   79.6830  223.3560 C   0  0  0  0  0  0  0  0  0  0  0  0
  140.8170   80.8970  223.8650 C   0  0  0  0  0  0  0  0  0  0  0  0
  142.1910   81.1820  223.7510 C   0  0  0  0  0  0  0  0  0  0  0  0
  143.0650   80.2540  223.1440 C   0  0  0  0  0  0  0  0  0  0  0  0
  142.5760   79.0350  222.6430 C   0  0  0  0  0  0  0  0  0  0  0  0
  141.2070   78.7840  222.7620 C   0  0  0  0  0  0  0  0  0  0  0  0
  136.5840   75.3573  219.4657 H   0  0  0  0  0  0  0  0  0  0  0  0
  137.3229   73.8445  220.1094 H   0  0  0  0  0  0  0  0  0  0  0  0
  136.6184   77.3771  221.2932 H   0  0  0  0  0  0  0  0  0  0  0  0
  135.6156   77.8516  223.5291 H   0  0  0  0  0  0  0  0  0  0  0  0
  135.0842   75.9726  225.0861 H   0  0  0  0  0  0  0  0  0  0  0  0
  135.5494   73.6174  224.4064 H   0  0  0  0  0  0  0  0  0  0  0  0
  136.5521   73.1330  222.1729 H   0  0  0  0  0  0  0  0  0  0  0  0
  140.1791   73.9119  222.8999 H   0  0  0  0  0  0  0  0  0  0  0  0
  139.4383   73.4645  221.2531 H   0  0  0  0  0  0  0  0  0  0  0  0
  141.7319   72.4747  221.5422 H   0  0  0  0  0  0  0  0  0  0  0  0
  143.4362   73.5794  220.4934 H   0  0  0  0  0  0  0  0  0  0  0  0
  143.8604   74.8171  218.4300 H   0  0  0  0  0  0  0  0  0  0  0  0
  143.8876   76.9900  217.2223 H   0  0  0  0  0  0  0  0  0  0  0  0
  142.5239   78.9004  218.0558 H   0  0  0  0  0  0  0  0  0  0  0  0
  141.1671   78.6552  220.1273 H   0  0  0  0  0  0  0  0  0  0  0  0
  141.6570   76.0105  222.4858 H   0  0  0  0  0  0  0  0  0  0  0  0
  138.2780   77.3278  222.6731 H   0  0  0  0  0  0  0  0  0  0  0  0
  138.2620   79.6790  223.7910 H   0  0  0  0  0  0  0  0  0  0  0  0
  140.1270   81.6096  224.3406 H   0  0  0  0  0  0  0  0  0  0  0  0
  142.5859   82.1333  224.1371 H   0  0  0  0  0  0  0  0  0  0  0  0
  144.1370   80.4867  223.0625 H   0  0  0  0  0  0  0  0  0  0  0  0
  143.2491   78.3030  222.1728 H   0  0  0  0  0  0  0  0  0  0  0  0
  1  2  2  0
  2  3  2  0
  2  4  1  0
  4  5  1  0
  5  6  2  0
  6  7  1  0
  7  8  2  0
  8  9  1  0
  9 10  2  0
  2 11  1  0
 11 12  1  0
 12 13  1  0
 13 14  2  0
 14 15  1  0
 15 16  2  0
 16 17  1  0
 17 18  2  0
 18 19  1  0
 19 20  2  0
 20 21  1  0
 21 22  1  0
 22 23  2  0
 23 24  1  0
 24 25  1  0
 25 26  2  0
 26 27  1  0
 27 28  2  0
 28 29  1  0
 29 30  2  0
 10  5  1  0
 21 11  1  0
 30 22  1  0
 20 15  1  0
 30 25  1  0
  4 31  1  0
  4 32  1  0
  6 33  1  0
  7 34  1  0
  8 35  1  0
  9 36  1  0
 10 37  1  0
 12 38  1  0
 12 39  1  0
 13 40  1  0
 14 41  1  0
 16 42  1  0
 17 43  1  0
 18 44  1  0
 19 45  1  0
 21 46  1  1
 23 47  1  0
 24 48  1  0
 26 49  1  0
 27 50  1  0
 28 51  1  0
 29 52  1  0
M  END
>  <UniqueID>  (61) 
5

>  <SMILES>  (61) 
O=S(=O)(Cc1ccccc1)N1CC=Cc2ccccc2[C@H]1c1c[nH]c2ccccc12

>  <Energy>  (61) 
111.50652046134222

>  <Genealogy>  (61) 
O=S(=O)(Cc1ccccc1)N1CC=Cc2ccccc2[C@H]1c1c[nH]c2ccccc12 (3D coordinates assigned)
O=S(=O)(Cc1ccccc1)N1CC=Cc2ccccc2[C@H]1c1c[nH]c2ccccc12 (nonaromatic ring conformer: 111.50652046134222 kcal/mol)

>  <smiles>  (61) 
O=S(=O)(Cc1ccccc1)N1CC=Cc2ccccc2[C@H]1c1c[nH]c2ccccc12

>  <score_type>  (61) 
oracle

>  <origin>  (61) 
autodockgpu

>  <m_score__min__energy>  (61) 
-6.2800000000000002

>  <m_primary>  (61) 
energy

>  <meeko>  (61) 
{"free_energy": -5.09, "intermolecular_energy": -7.77, "internal_energy": -2.73, "cluster_size": 2, "cluster_id": 4, "rank_in_cluster": 2}

>  <energy>  (61) 
-6.28

>  <cluster_rmsd>  (61) 
0.0

>  <rmsd>  (61) 
269.78

>  <cluster>  (61) 
1

$$$$
GKGZHBJKEIVYHI-VWLOTQADNA-N
     RDKit          3D

 52 56  0  0  0  0  0  0  0  0999 V2000
  138.5180   78.0750  222.3600 O   0  0  0  0  0  0  0  0  0  0  0  0
  139.5520   77.1330  221.8090 S   0  0  0  0  0  0  0  0  0  0  0  0
  139.0170   75.7310  221.9120 O   0  0  0  0  0  0  0  0  0  0  0  0
  141.0320   77.2560  222.8110 C   0  0  0  0  0  0  0  0  0  0  0  0
  141.3740   78.6970  223.0610 C   0  0  0  0  0  0  0  0  0  0  0  0
  142.6290   79.2040  222.6820 C   0  0  0  0  0  0  0  0  0  0  0  0
  142.9340   80.5530  222.8870 C   0  0  0  0  0  0  0  0  0  0  0  0
  141.9870   81.4050  223.4630 C   0  0  0  0  0  0  0  0  0  0  0  0
  140.7330   80.9110  223.8310 C   0  0  0  0  0  0  0  0  0  0  0  0
  140.4240   79.5620  223.6280 C   0  0  0  0  0  0  0  0  0  0  0  0
  139.8310   77.5550  220.1240 N   0  0  0  0  0  0  0  0  0  0  0  0
  138.6310   78.0730  219.4480 C   0  0  0  0  0  0  0  0  0  0  0  0
  138.7390   78.3970  217.9680 C   0  0  0  0  0  0  0  0  0  0  0  0
  139.7900   78.3300  217.1310 C   0  0  0  0  0  0  0  0  0  0  0  0
  141.1150   77.6970  217.3490 C   0  0  0  0  0  0  0  0  0  0  0  0
  141.7300   77.0960  216.2350 C   0  0  0  0  0  0  0  0  0  0  0  0
  142.9880   76.5050  216.3450 C   0  0  0  0  0  0  0  0  0  0  0  0
  143.6500   76.5000  217.5680 C   0  0  0  0  0  0  0  0  0  0  0  0
  143.0490   77.0680  218.6900 C   0  0  0  0  0  0  0  0  0  0  0  0
  141.7610   77.6440  218.6050 C   0  0  0  0  0  0  0  0  0  0  0  0
  141.0850   78.2650  219.8090 C   0  0  1  0  0  0  0  0  0  0  0  0
  140.8670   79.7630  219.7300 C   0  0  0  0  0  0  0  0  0  0  0  0
  139.9820   80.5430  220.4780 C   0  0  0  0  0  0  0  0  0  0  0  0
  140.1310   81.8530  220.1760 N   0  0  0  0  0  0  0  0  0  0  0  0
  141.1120   81.9150  219.2620 C   0  0  0  0  0  0  0  0  0  0  0  0
  141.6380   83.0600  218.6640 C   0  0  0  0  0  0  0  0  0  0  0  0
  142.6890   82.8970  217.7420 C   0  0  0  0  0  0  0  0  0  0  0  0
  143.1880   81.6090  217.4480 C   0  0  0  0  0  0  0  0  0  0  0  0
  142.6410   80.4720  218.0690 C   0  0  0  0  0  0  0  0  0  0  0  0
  141.5930   80.6640  218.9720 C   0  0  0  0  0  0  0  0  0  0  0  0
  140.8616   76.7512  223.7734 H   0  0  0  0  0  0  0  0  0  0  0  0
  141.8663   76.7777  222.2771 H   0  0  0  0  0  0  0  0  0  0  0  0
  143.3736   78.5373  222.2226 H   0  0  0  0  0  0  0  0  0  0  0  0
  143.9197   80.9442  222.5949 H   0  0  0  0  0  0  0  0  0  0  0  0
  142.2294   82.4654  223.6266 H   0  0  0  0  0  0  0  0  0  0  0  0
  139.9879   81.5837  224.2808 H   0  0  0  0  0  0  0  0  0  0  0  0
  139.4337   79.1774  223.9134 H   0  0  0  0  0  0  0  0  0  0  0  0
  137.8383   77.3190  219.5623 H   0  0  0  0  0  0  0  0  0  0  0  0
  138.4359   79.0417  219.9312 H   0  0  0  0  0  0  0  0  0  0  0  0
  137.8037   78.7435  217.5042 H   0  0  0  0  0  0  0  0  0  0  0  0
  139.6483   78.8097  216.1513 H   0  0  0  0  0  0  0  0  0  0  0  0
  141.2115   77.0925  215.2649 H   0  0  0  0  0  0  0  0  0  0  0  0
  143.4571   76.0425  215.4641 H   0  0  0  0  0  0  0  0  0  0  0  0
  144.6491   76.0472  217.6500 H   0  0  0  0  0  0  0  0  0  0  0  0
  143.5827   77.0680  219.6519 H   0  0  0  0  0  0  0  0  0  0  0  0
  141.7993   78.1388  220.6360 H   0  0  0  0  0  0  0  0  0  0  0  0
  139.2637   80.1469  221.2109 H   0  0  0  0  0  0  0  0  0  0  0  0
  139.6020   82.6530  220.5900 H   0  0  0  0  0  0  0  0  0  0  0  0
  141.2441   84.0584  218.9052 H   0  0  0  0  0  0  0  0  0  0  0  0
  143.1242   83.7780  217.2476 H   0  0  0  0  0  0  0  0  0  0  0  0
  144.0112   81.4942  216.7274 H   0  0  0  0  0  0  0  0  0  0  0  0
  143.0258   79.4649  217.8508 H   0  0  0  0  0  0  0  0  0  0  0  0
  1  2  2  0
  2  3  2  0
  2  4  1  0
  4  5  1  0
  5  6  2  0
  6  7  1  0
  7  8  2  0
  8  9  1  0
  9 10  2  0
  2 11  1  0
 11 12  1  0
 12 13  1  0
 13 14  2  0
 14 15  1  0
 15 16  2  0
 16 17  1  0
 17 18  2  0
 18 19  1  0
 19 20  2  0
 20 21  1  0
 21 22  1  0
 22 23  2  0
 23 24  1  0
 24 25  1  0
 25 26  2  0
 26 27  1  0
 27 28  2  0
 28 29  1  0
 29 30  2  0
 10  5  1  0
 21 11  1  0
 30 22  1  0
 20 15  1  0
 30 25  1  0
  4 31  1  0
  4 32  1  0
  6 33  1  0
  7 34  1  0
  8 35  1  0
  9 36  1  0
 10 37  1  0
 12 38  1  0
 12 39  1  0
 13 40  1  0
 14 41  1  0
 16 42  1  0
 17 43  1  0
 18 44  1  0
 19 45  1  0
 21 46  1  1
 23 47  1  0
 24 48  1  0
 26 49  1  0
 27 50  1  0
 28 51  1  0
 29 52  1  0
M  END
>  <UniqueID>  (62) 
5

>  <SMILES>  (62) 
O=S(=O)(Cc1ccccc1)N1CC=Cc2ccccc2[C@H]1c1c[nH]c2ccccc12

>  <Energy>  (62) 
111.50652046134222

>  <Genealogy>  (62) 
O=S(=O)(Cc1ccccc1)N1CC=Cc2ccccc2[C@H]1c1c[nH]c2ccccc12 (3D coordinates assigned)
O=S(=O)(Cc1ccccc1)N1CC=Cc2ccccc2[C@H]1c1c[nH]c2ccccc12 (nonaromatic ring conformer: 111.50652046134222 kcal/mol)

>  <smiles>  (62) 
O=S(=O)(Cc1ccccc1)N1CC=Cc2ccccc2[C@H]1c1c[nH]c2ccccc12

>  <score_type>  (62) 
oracle

>  <origin>  (62) 
autodockgpu

>  <m_score__min__energy>  (62) 
-6.2800000000000002

>  <m_primary>  (62) 
energy

>  <meeko>  (62) 
{"free_energy": -4.63, "intermolecular_energy": -7.31, "internal_energy": -2.78, "cluster_size": 4, "cluster_id": 5, "rank_in_cluster": 4}

>  <energy>  (62) 
-5.87

>  <cluster_rmsd>  (62) 
0.2

>  <rmsd>  (62) 
269.79

>  <cluster>  (62) 
1

$$$$
GKGZHBJKEIVYHI-VWLOTQADNA-N
     RDKit          3D

 52 56  0  0  0  0  0  0  0  0999 V2000
  138.6140   77.6320  222.6640 O   0  0  0  0  0  0  0  0  0  0  0  0
  139.7770   76.8470  222.1220 S   0  0  0  0  0  0  0  0  0  0  0  0
  139.4920   75.3840  222.3200 O   0  0  0  0  0  0  0  0  0  0  0  0
  141.2430   77.2760  223.0570 C   0  0  0  0  0  0  0  0  0  0  0  0
  141.4000   78.7680  223.1260 C   0  0  0  0  0  0  0  0  0  0  0  0
  140.3980   79.5610  223.7120 C   0  0  0  0  0  0  0  0  0  0  0  0
  140.5600   80.9460  223.8030 C   0  0  0  0  0  0  0  0  0  0  0  0
  141.7250   81.5490  223.3180 C   0  0  0  0  0  0  0  0  0  0  0  0
  142.7300   80.7670  222.7450 C   0  0  0  0  0  0  0  0  0  0  0  0
  142.5720   79.3790  222.6510 C   0  0  0  0  0  0  0  0  0  0  0  0
  139.9280   77.2110  220.4080 N   0  0  0  0  0  0  0  0  0  0  0  0
  138.6560   77.6090  219.7840 C   0  0  0  0  0  0  0  0  0  0  0  0
  138.6860   78.0220  218.3220 C   0  0  0  0  0  0  0  0  0  0  0  0
  139.6530   77.8950  217.3950 C   0  0  0  0  0  0  0  0  0  0  0  0
  141.0260   77.3530  217.5490 C   0  0  0  0  0  0  0  0  0  0  0  0
  141.6120   76.7570  216.4180 C   0  0  0  0  0  0  0  0  0  0  0  0
  142.9100   76.2490  216.4670 C   0  0  0  0  0  0  0  0  0  0  0  0
  143.6420   76.3240  217.6470 C   0  0  0  0  0  0  0  0  0  0  0  0
  143.0730   76.8880  218.7880 C   0  0  0  0  0  0  0  0  0  0  0  0
  141.7480   77.3800  218.7650 C   0  0  0  0  0  0  0  0  0  0  0  0
  141.1050   77.9950  219.9900 C   0  0  1  0  0  0  0  0  0  0  0  0
  140.7760   79.4700  219.8780 C   0  0  0  0  0  0  0  0  0  0  0  0
  139.8330   80.1980  220.6080 C   0  0  0  0  0  0  0  0  0  0  0  0
  139.8840   81.5080  220.2780 N   0  0  0  0  0  0  0  0  0  0  0  0
  140.8600   81.6240  219.3640 C   0  0  0  0  0  0  0  0  0  0  0  0
  141.2990   82.7920  218.7410 C   0  0  0  0  0  0  0  0  0  0  0  0
  142.3620   82.6890  217.8250 C   0  0  0  0  0  0  0  0  0  0  0  0
  142.9580   81.4360  217.5590 C   0  0  0  0  0  0  0  0  0  0  0  0
  142.4960   80.2750  218.2050 C   0  0  0  0  0  0  0  0  0  0  0  0
  141.4340   80.4070  219.1020 C   0  0  0  0  0  0  0  0  0  0  0  0
  141.1537   76.8731  224.0767 H   0  0  0  0  0  0  0  0  0  0  0  0
  142.1240   76.8465  222.5576 H   0  0  0  0  0  0  0  0  0  0  0  0
  139.4831   79.0896  224.1003 H   0  0  0  0  0  0  0  0  0  0  0  0
  139.7702   81.5628  224.2567 H   0  0  0  0  0  0  0  0  0  0  0  0
  141.8496   82.6397  223.3879 H   0  0  0  0  0  0  0  0  0  0  0  0
  143.6472   81.2422  222.3669 H   0  0  0  0  0  0  0  0  0  0  0  0
  143.3680   78.7654  222.2039 H   0  0  0  0  0  0  0  0  0  0  0  0
  137.9665   76.7563  219.8705 H   0  0  0  0  0  0  0  0  0  0  0  0
  138.3537   78.5184  220.3240 H   0  0  0  0  0  0  0  0  0  0  0  0
  137.7653   78.5044  217.9621 H   0  0  0  0  0  0  0  0  0  0  0  0
  139.3897   78.2403  216.3843 H   0  0  0  0  0  0  0  0  0  0  0  0
  141.0386   76.6906  215.4816 H   0  0  0  0  0  0  0  0  0  0  0  0
  143.3547   75.7890  215.5722 H   0  0  0  0  0  0  0  0  0  0  0  0
  144.6714   75.9378  217.6802 H   0  0  0  0  0  0  0  0  0  0  0  0
  143.6611   76.9508  219.7155 H   0  0  0  0  0  0  0  0  0  0  0  0
  141.8762   77.9486  220.7730 H   0  0  0  0  0  0  0  0  0  0  0  0
  139.1444   79.7652  221.3486 H   0  0  0  0  0  0  0  0  0  0  0  0
  139.2950   82.2750  220.6740 H   0  0  0  0  0  0  0  0  0  0  0  0
  140.8293   83.7625  218.9588 H   0  0  0  0  0  0  0  0  0  0  0  0
  142.7313   83.5897  217.3128 H   0  0  0  0  0  0  0  0  0  0  0  0
  143.7891   81.3678  216.8417 H   0  0  0  0  0  0  0  0  0  0  0  0
  142.9563   79.2952  218.0099 H   0  0  0  0  0  0  0  0  0  0  0  0
  1  2  2  0
  2  3  2  0
  2  4  1  0
  4  5  1  0
  5  6  2  0
  6  7  1  0
  7  8  2  0
  8  9  1  0
  9 10  2  0
  2 11  1  0
 11 12  1  0
 12 13  1  0
 13 14  2  0
 14 15  1  0
 15 16  2  0
 16 17  1  0
 17 18  2  0
 18 19  1  0
 19 20  2  0
 20 21  1  0
 21 22  1  0
 22 23  2  0
 23 24  1  0
 24 25  1  0
 25 26  2  0
 26 27  1  0
 27 28  2  0
 28 29  1  0
 29 30  2  0
 10  5  1  0
 21 11  1  0
 30 22  1  0
 20 15  1  0
 30 25  1  0
  4 31  1  0
  4 32  1  0
  6 33  1  0
  7 34  1  0
  8 35  1  0
  9 36  1  0
 10 37  1  0
 12 38  1  0
 12 39  1  0
 13 40  1  0
 14 41  1  0
 16 42  1  0
 17 43  1  0
 18 44  1  0
 19 45  1  0
 21 46  1  1
 23 47  1  0
 24 48  1  0
 26 49  1  0
 27 50  1  0
 28 51  1  0
 29 52  1  0
M  END
>  <UniqueID>  (63) 
5

>  <SMILES>  (63) 
O=S(=O)(Cc1ccccc1)N1CC=Cc2ccccc2[C@H]1c1c[nH]c2ccccc12

>  <Energy>  (63) 
111.50652046134222

>  <Genealogy>  (63) 
O=S(=O)(Cc1ccccc1)N1CC=Cc2ccccc2[C@H]1c1c[nH]c2ccccc12 (3D coordinates assigned)
O=S(=O)(Cc1ccccc1)N1CC=Cc2ccccc2[C@H]1c1c[nH]c2ccccc12 (nonaromatic ring conformer: 111.50652046134222 kcal/mol)

>  <smiles>  (63) 
O=S(=O)(Cc1ccccc1)N1CC=Cc2ccccc2[C@H]1c1c[nH]c2ccccc12

>  <score_type>  (63) 
oracle

>  <origin>  (63) 
autodockgpu

>  <m_score__min__energy>  (63) 
-6.2800000000000002

>  <m_primary>  (63) 
energy

>  <meeko>  (63) 
{"free_energy": -4.78, "intermolecular_energy": -7.46, "internal_energy": -2.72, "cluster_size": 4, "cluster_id": 5, "rank_in_cluster": 3}

>  <energy>  (63) 
-5.84

>  <cluster_rmsd>  (63) 
0.0

>  <rmsd>  (63) 
270.43

>  <cluster>  (63) 
2

$$$$
GKGZHBJKEIVYHI-VWLOTQADNA-N
     RDKit          3D

 52 56  0  0  0  0  0  0  0  0999 V2000
  138.7240   77.3800  219.7340 O   0  0  0  0  0  0  0  0  0  0  0  0
  138.6820   75.9120  220.0590 S   0  0  0  0  0  0  0  0  0  0  0  0
  139.3560   75.1620  218.9440 O   0  0  0  0  0  0  0  0  0  0  0  0
  136.9690   75.3950  220.1430 C   0  0  0  0  0  0  0  0  0  0  0  0
  136.5190   75.3090  221.5740 C   0  0  0  0  0  0  0  0  0  0  0  0
  136.3080   76.4800  222.3230 C   0  0  0  0  0  0  0  0  0  0  0  0
  135.8590   76.3990  223.6440 C   0  0  0  0  0  0  0  0  0  0  0  0
  135.6120   75.1510  224.2240 C   0  0  0  0  0  0  0  0  0  0  0  0
  135.8090   73.9840  223.4830 C   0  0  0  0  0  0  0  0  0  0  0  0
  136.2580   74.0600  222.1600 C   0  0  0  0  0  0  0  0  0  0  0  0
  139.5460   75.6630  221.5700 N   0  0  0  0  0  0  0  0  0  0  0  0
  139.7490   74.2410  221.8960 C   0  0  0  0  0  0  0  0  0  0  0  0
  141.1080   73.6350  221.5940 C   0  0  0  0  0  0  0  0  0  0  0  0
  142.1450   74.1170  220.8850 C   0  0  0  0  0  0  0  0  0  0  0  0
  142.2790   75.4300  220.2050 C   0  0  0  0  0  0  0  0  0  0  0  0
  143.1460   75.4940  219.0990 C   0  0  0  0  0  0  0  0  0  0  0  0
  143.3080   76.6810  218.3850 C   0  0  0  0  0  0  0  0  0  0  0  0
  142.6100   77.8220  218.7650 C   0  0  0  0  0  0  0  0  0  0  0  0
  141.7640   77.7880  219.8730 C   0  0  0  0  0  0  0  0  0  0  0  0
  141.6120   76.6030  220.6280 C   0  0  0  0  0  0  0  0  0  0  0  0
  140.7020   76.5390  221.8360 C   0  0  1  0  0  0  0  0  0  0  0  0
  140.2640   77.8790  222.3910 C   0  0  0  0  0  0  0  0  0  0  0  0
  138.9670   78.3060  222.6850 C   0  0  0  0  0  0  0  0  0  0  0  0
  138.9860   79.5390  223.2380 N   0  0  0  0  0  0  0  0  0  0  0  0
  140.2790   79.8930  223.3170 C   0  0  0  0  0  0  0  0  0  0  0  0
  140.8010   81.0750  223.8400 C   0  0  0  0  0  0  0  0  0  0  0  0
  142.1990   81.2300  223.8470 C   0  0  0  0  0  0  0  0  0  0  0  0
  143.0340   80.2090  223.3420 C   0  0  0  0  0  0  0  0  0  0  0  0
  142.4800   79.0250  222.8230 C   0  0  0  0  0  0  0  0  0  0  0  0
  141.0890   78.9040  222.8210 C   0  0  0  0  0  0  0  0  0  0  0  0
  136.3431   76.1253  219.6092 H   0  0  0  0  0  0  0  0  0  0  0  0
  136.8717   74.4031  219.6775 H   0  0  0  0  0  0  0  0  0  0  0  0
  136.4970   77.4633  221.8677 H   0  0  0  0  0  0  0  0  0  0  0  0
  135.6998   77.3176  224.2278 H   0  0  0  0  0  0  0  0  0  0  0  0
  135.2622   75.0884  225.2650 H   0  0  0  0  0  0  0  0  0  0  0  0
  135.6109   73.0033  223.9401 H   0  0  0  0  0  0  0  0  0  0  0  0
  136.4069   73.1389  221.5775 H   0  0  0  0  0  0  0  0  0  0  0  0
  139.5686   74.1222  222.9746 H   0  0  0  0  0  0  0  0  0  0  0  0
  139.0517   73.7024  221.2374 H   0  0  0  0  0  0  0  0  0  0  0  0
  141.2719   72.6369  222.0263 H   0  0  0  0  0  0  0  0  0  0  0  0
  143.0124   73.4463  220.7971 H   0  0  0  0  0  0  0  0  0  0  0  0
  143.7033   74.5962  218.7934 H   0  0  0  0  0  0  0  0  0  0  0  0
  143.9881   76.7146  217.5211 H   0  0  0  0  0  0  0  0  0  0  0  0
  142.7254   78.7530  218.1906 H   0  0  0  0  0  0  0  0  0  0  0  0
  141.2093   78.6928  220.1623 H   0  0  0  0  0  0  0  0  0  0  0  0
  141.3189   76.1041  222.6362 H   0  0  0  0  0  0  0  0  0  0  0  0
  138.0562   77.7198  222.4930 H   0  0  0  0  0  0  0  0  0  0  0  0
  138.1600   80.0930  223.5570 H   0  0  0  0  0  0  0  0  0  0  0  0
  140.1407   81.8614  224.2346 H   0  0  0  0  0  0  0  0  0  0  0  0
  142.6447   82.1521  224.2483 H   0  0  0  0  0  0  0  0  0  0  0  0
  144.1260   80.3408  223.3547 H   0  0  0  0  0  0  0  0  0  0  0  0
  143.1211   78.2213  222.4318 H   0  0  0  0  0  0  0  0  0  0  0  0
  1  2  2  0
  2  3  2  0
  2  4  1  0
  4  5  1  0
  5  6  2  0
  6  7  1  0
  7  8  2  0
  8  9  1  0
  9 10  2  0
  2 11  1  0
 11 12  1  0
 12 13  1  0
 13 14  2  0
 14 15  1  0
 15 16  2  0
 16 17  1  0
 17 18  2  0
 18 19  1  0
 19 20  2  0
 20 21  1  0
 21 22  1  0
 22 23  2  0
 23 24  1  0
 24 25  1  0
 25 26  2  0
 26 27  1  0
 27 28  2  0
 28 29  1  0
 29 30  2  0
 10  5  1  0
 21 11  1  0
 30 22  1  0
 20 15  1  0
 30 25  1  0
  4 31  1  0
  4 32  1  0
  6 33  1  0
  7 34  1  0
  8 35  1  0
  9 36  1  0
 10 37  1  0
 12 38  1  0
 12 39  1  0
 13 40  1  0
 14 41  1  0
 16 42  1  0
 17 43  1  0
 18 44  1  0
 19 45  1  0
 21 46  1  1
 23 47  1  0
 24 48  1  0
 26 49  1  0
 27 50  1  0
 28 51  1  0
 29 52  1  0
M  END
>  <UniqueID>  (64) 
5

>  <SMILES>  (64) 
O=S(=O)(Cc1ccccc1)N1CC=Cc2ccccc2[C@H]1c1c[nH]c2ccccc12

>  <Energy>  (64) 
111.50652046134222

>  <Genealogy>  (64) 
O=S(=O)(Cc1ccccc1)N1CC=Cc2ccccc2[C@H]1c1c[nH]c2ccccc12 (3D coordinates assigned)
O=S(=O)(Cc1ccccc1)N1CC=Cc2ccccc2[C@H]1c1c[nH]c2ccccc12 (nonaromatic ring conformer: 111.50652046134222 kcal/mol)

>  <smiles>  (64) 
O=S(=O)(Cc1ccccc1)N1CC=Cc2ccccc2[C@H]1c1c[nH]c2ccccc12

>  <score_type>  (64) 
oracle

>  <origin>  (64) 
autodockgpu

>  <m_score__min__energy>  (64) 
-6.2800000000000002

>  <m_primary>  (64) 
energy

>  <meeko>  (64) 
{"free_energy": -5.23, "intermolecular_energy": -7.91, "internal_energy": -2.76, "cluster_size": 2, "cluster_id": 4, "rank_in_cluster": 1}

>  <energy>  (64) 
-5.79

>  <cluster_rmsd>  (64) 
1.47

>  <rmsd>  (64) 
270.61

>  <cluster>  (64) 
2

$$$$
GKGZHBJKEIVYHI-VWLOTQADNA-N
     RDKit          3D

 52 56  0  0  0  0  0  0  0  0999 V2000
  136.6880   78.7660  223.3880 O   0  0  0  0  0  0  0  0  0  0  0  0
  137.8570   79.6760  223.1320 S   0  0  0  0  0  0  0  0  0  0  0  0
  138.9180   79.3820  224.1560 O   0  0  0  0  0  0  0  0  0  0  0  0
  137.3180   81.3720  223.3380 C   0  0  0  0  0  0  0  0  0  0  0  0
  136.6930   81.5600  224.6910 C   0  0  0  0  0  0  0  0  0  0  0  0
  135.3510   81.2010  224.9090 C   0  0  0  0  0  0  0  0  0  0  0  0
  134.7820   81.3480  226.1770 C   0  0  0  0  0  0  0  0  0  0  0  0
  135.5470   81.8450  227.2360 C   0  0  0  0  0  0  0  0  0  0  0  0
  136.8840   82.1930  227.0290 C   0  0  0  0  0  0  0  0  0  0  0  0
  137.4590   82.0480  225.7620 C   0  0  0  0  0  0  0  0  0  0  0  0
  138.4630   79.3440  221.5150 N   0  0  0  0  0  0  0  0  0  0  0  0
  138.0880   80.3720  220.5310 C   0  0  0  0  0  0  0  0  0  0  0  0
  139.1290   81.4190  220.1730 C   0  0  0  0  0  0  0  0  0  0  0  0
  140.3050   81.7110  220.7570 C   0  0  0  0  0  0  0  0  0  0  0  0
  140.9770   81.0460  221.9010 C   0  0  0  0  0  0  0  0  0  0  0  0
  141.8710   81.8230  222.6600 C   0  0  0  0  0  0  0  0  0  0  0  0
  142.5220   81.2860  223.7700 C   0  0  0  0  0  0  0  0  0  0  0  0
  142.2940   79.9640  224.1380 C   0  0  0  0  0  0  0  0  0  0  0  0
  141.4300   79.1680  223.3860 C   0  0  0  0  0  0  0  0  0  0  0  0
  140.7860   79.6860  222.2400 C   0  0  0  0  0  0  0  0  0  0  0  0
  139.8460   78.8440  221.4050 C   0  0  1  0  0  0  0  0  0  0  0  0
  139.9160   77.3510  221.6550 C   0  0  0  0  0  0  0  0  0  0  0  0
  139.0020   76.5510  222.3470 C   0  0  0  0  0  0  0  0  0  0  0  0
  139.3710   75.2520  222.2920 N   0  0  0  0  0  0  0  0  0  0  0  0
  140.4950   75.2140  221.5580 C   0  0  0  0  0  0  0  0  0  0  0  0
  141.2360   74.0870  221.2060 C   0  0  0  0  0  0  0  0  0  0  0  0
  142.3760   74.2730  220.4020 C   0  0  0  0  0  0  0  0  0  0  0  0
  142.7410   75.5670  219.9700 C   0  0  0  0  0  0  0  0  0  0  0  0
  141.9730   76.6860  220.3380 C   0  0  0  0  0  0  0  0  0  0  0  0
  140.8520   76.4710  221.1430 C   0  0  0  0  0  0  0  0  0  0  0  0
  138.1849   82.0424  223.2425 H   0  0  0  0  0  0  0  0  0  0  0  0
  136.5726   81.6070  222.5639 H   0  0  0  0  0  0  0  0  0  0  0  0
  134.7476   80.8035  224.0796 H   0  0  0  0  0  0  0  0  0  0  0  0
  133.7300   81.0720  226.3419 H   0  0  0  0  0  0  0  0  0  0  0  0
  135.0962   81.9621  228.2325 H   0  0  0  0  0  0  0  0  0  0  0  0
  137.4857   82.5817  227.8638 H   0  0  0  0  0  0  0  0  0  0  0  0
  138.5139   82.3169  225.6043 H   0  0  0  0  0  0  0  0  0  0  0  0
  137.8116   79.8522  219.6018 H   0  0  0  0  0  0  0  0  0  0  0  0
  137.2786   80.9383  221.0149 H   0  0  0  0  0  0  0  0  0  0  0  0
  138.8817   82.0365  219.2969 H   0  0  0  0  0  0  0  0  0  0  0  0
  140.8464   82.5654  220.3246 H   0  0  0  0  0  0  0  0  0  0  0  0
  142.0590   82.8684  222.3739 H   0  0  0  0  0  0  0  0  0  0  0  0
  143.2159   81.9078  224.3547 H   0  0  0  0  0  0  0  0  0  0  0  0
  142.7957   79.5458  225.0231 H   0  0  0  0  0  0  0  0  0  0  0  0
  141.2481   78.1261  223.6883 H   0  0  0  0  0  0  0  0  0  0  0  0
  140.1996   78.9614  220.3700 H   0  0  0  0  0  0  0  0  0  0  0  0
  138.1069   76.9266  222.8644 H   0  0  0  0  0  0  0  0  0  0  0  0
  138.8680   74.4420  222.7180 H   0  0  0  0  0  0  0  0  0  0  0  0
  140.9390   73.0839  221.5459 H   0  0  0  0  0  0  0  0  0  0  0  0
  142.9859   73.4059  220.1085 H   0  0  0  0  0  0  0  0  0  0  0  0
  143.6332   75.7007  219.3406 H   0  0  0  0  0  0  0  0  0  0  0  0
  142.2461   77.6975  220.0029 H   0  0  0  0  0  0  0  0  0  0  0  0
  1  2  2  0
  2  3  2  0
  2  4  1  0
  4  5  1  0
  5  6  2  0
  6  7  1  0
  7  8  2  0
  8  9  1  0
  9 10  2  0
  2 11  1  0
 11 12  1  0
 12 13  1  0
 13 14  2  0
 14 15  1  0
 15 16  2  0
 16 17  1  0
 17 18  2  0
 18 19  1  0
 19 20  2  0
 20 21  1  0
 21 22  1  0
 22 23  2  0
 23 24  1  0
 24 25  1  0
 25 26  2  0
 26 27  1  0
 27 28  2  0
 28 29  1  0
 29 30  2  0
 10  5  1  0
 21 11  1  0
 30 22  1  0
 20 15  1  0
 30 25  1  0
  4 31  1  0
  4 32  1  0
  6 33  1  0
  7 34  1  0
  8 35  1  0
  9 36  1  0
 10 37  1  0
 12 38  1  0
 12 39  1  0
 13 40  1  0
 14 41  1  0
 16 42  1  0
 17 43  1  0
 18 44  1  0
 19 45  1  0
 21 46  1  6
 23 47  1  0
 24 48  1  0
 26 49  1  0
 27 50  1  0
 28 51  1  0
 29 52  1  0
M  END
>  <UniqueID>  (65) 
5

>  <SMILES>  (65) 
O=S(=O)(Cc1ccccc1)N1CC=Cc2ccccc2[C@H]1c1c[nH]c2ccccc12

>  <Energy>  (65) 
111.50652046134222

>  <Genealogy>  (65) 
O=S(=O)(Cc1ccccc1)N1CC=Cc2ccccc2[C@H]1c1c[nH]c2ccccc12 (3D coordinates assigned)
O=S(=O)(Cc1ccccc1)N1CC=Cc2ccccc2[C@H]1c1c[nH]c2ccccc12 (nonaromatic ring conformer: 111.50652046134222 kcal/mol)

>  <smiles>  (65) 
O=S(=O)(Cc1ccccc1)N1CC=Cc2ccccc2[C@H]1c1c[nH]c2ccccc12

>  <score_type>  (65) 
oracle

>  <origin>  (65) 
autodockgpu

>  <m_score__min__energy>  (65) 
-6.2800000000000002

>  <m_primary>  (65) 
energy

>  <meeko>  (65) 
{"free_energy": -5.52, "intermolecular_energy": -8.2, "internal_energy": -2.08, "cluster_size": 5, "cluster_id": 2, "rank_in_cluster": 4}

>  <energy>  (65) 
-5.72

>  <cluster_rmsd>  (65) 
0.1

>  <rmsd>  (65) 
270.41

>  <cluster>  (65) 
2

$$$$
GKGZHBJKEIVYHI-VWLOTQADNA-N
     RDKit          3D

 52 56  0  0  0  0  0  0  0  0999 V2000
  138.5020   79.8430  224.1240 O   0  0  0  0  0  0  0  0  0  0  0  0
  138.0560   80.7970  223.0500 S   0  0  0  0  0  0  0  0  0  0  0  0
  138.9390   82.0140  223.1020 O   0  0  0  0  0  0  0  0  0  0  0  0
  136.3710   81.2990  223.3950 C   0  0  0  0  0  0  0  0  0  0  0  0
  136.1630   81.4460  224.8750 C   0  0  0  0  0  0  0  0  0  0  0  0
  135.0330   80.8820  225.4930 C   0  0  0  0  0  0  0  0  0  0  0  0
  134.8580   80.9930  226.8750 C   0  0  0  0  0  0  0  0  0  0  0  0
  135.8110   81.6600  227.6500 C   0  0  0  0  0  0  0  0  0  0  0  0
  136.9420   82.2130  227.0460 C   0  0  0  0  0  0  0  0  0  0  0  0
  137.1210   82.1040  225.6620 C   0  0  0  0  0  0  0  0  0  0  0  0
  138.2240   79.9880  221.4980 N   0  0  0  0  0  0  0  0  0  0  0  0
  138.2020   80.9150  220.3540 C   0  0  0  0  0  0  0  0  0  0  0  0
  139.5350   81.4000  219.8130 C   0  0  0  0  0  0  0  0  0  0  0  0
  140.7930   81.1260  220.2060 C   0  0  0  0  0  0  0  0  0  0  0  0
  141.2550   80.4010  221.4160 C   0  0  0  0  0  0  0  0  0  0  0  0
  142.4920   80.7880  221.9630 C   0  0  0  0  0  0  0  0  0  0  0  0
  142.9860   80.1800  223.1160 C   0  0  0  0  0  0  0  0  0  0  0  0
  142.2560   79.1740  223.7400 C   0  0  0  0  0  0  0  0  0  0  0  0
  141.0390   78.7570  223.2020 C   0  0  0  0  0  0  0  0  0  0  0  0
  140.5370   79.3400  222.0160 C   0  0  0  0  0  0  0  0  0  0  0  0
  139.2210   78.9050  221.4090 C   0  0  1  0  0  0  0  0  0  0  0  0
  138.6640   77.5970  221.9340 C   0  0  0  0  0  0  0  0  0  0  0  0
  139.3240   76.3730  222.0640 C   0  0  0  0  0  0  0  0  0  0  0  0
  138.5170   75.4560  222.6450 N   0  0  0  0  0  0  0  0  0  0  0  0
  137.3610   76.0900  222.9040 C   0  0  0  0  0  0  0  0  0  0  0  0
  136.2290   75.5610  223.5210 C   0  0  0  0  0  0  0  0  0  0  0  0
  135.1270   76.4140  223.7180 C   0  0  0  0  0  0  0  0  0  0  0  0
  135.1850   77.7630  223.3030 C   0  0  0  0  0  0  0  0  0  0  0  0
  136.3430   78.2700  222.6860 C   0  0  0  0  0  0  0  0  0  0  0  0
  137.4160   77.3970  222.4960 C   0  0  0  0  0  0  0  0  0  0  0  0
  136.1716   82.2625  222.9032 H   0  0  0  0  0  0  0  0  0  0  0  0
  135.6834   80.5306  223.0119 H   0  0  0  0  0  0  0  0  0  0  0  0
  134.2841   80.3516  224.8865 H   0  0  0  0  0  0  0  0  0  0  0  0
  133.9695   80.5551  227.3533 H   0  0  0  0  0  0  0  0  0  0  0  0
  135.6698   81.7494  228.7372 H   0  0  0  0  0  0  0  0  0  0  0  0
  137.6926   82.7345  227.6581 H   0  0  0  0  0  0  0  0  0  0  0  0
  138.0157   82.5356  225.1895 H   0  0  0  0  0  0  0  0  0  0  0  0
  137.6780   80.4080  219.5304 H   0  0  0  0  0  0  0  0  0  0  0  0
  137.7122   81.8212  220.7399 H   0  0  0  0  0  0  0  0  0  0  0  0
  139.4606   82.0891  218.9588 H   0  0  0  0  0  0  0  0  0  0  0  0
  141.5881   81.4895  219.5384 H   0  0  0  0  0  0  0  0  0  0  0  0
  143.0772   81.5809  221.4743 H   0  0  0  0  0  0  0  0  0  0  0  0
  143.9538   80.4961  223.5326 H   0  0  0  0  0  0  0  0  0  0  0  0
  142.6392   78.7067  224.6591 H   0  0  0  0  0  0  0  0  0  0  0  0
  140.4636   77.9662  223.7056 H   0  0  0  0  0  0  0  0  0  0  0  0
  139.4482   78.6975  220.3529 H   0  0  0  0  0  0  0  0  0  0  0  0
  140.3572   76.1812  221.7389 H   0  0  0  0  0  0  0  0  0  0  0  0
  138.7560   74.4640  222.8650 H   0  0  0  0  0  0  0  0  0  0  0  0
  136.1977   74.5099  223.8439 H   0  0  0  0  0  0  0  0  0  0  0  0
  134.2155   76.0281  224.1978 H   0  0  0  0  0  0  0  0  0  0  0  0
  134.3186   78.4216  223.4634 H   0  0  0  0  0  0  0  0  0  0  0  0
  136.4013   79.3201  222.3637 H   0  0  0  0  0  0  0  0  0  0  0  0
  1  2  2  0
  2  3  2  0
  2  4  1  0
  4  5  1  0
  5  6  2  0
  6  7  1  0
  7  8  2  0
  8  9  1  0
  9 10  2  0
  2 11  1  0
 11 12  1  0
 12 13  1  0
 13 14  2  0
 14 15  1  0
 15 16  2  0
 16 17  1  0
 17 18  2  0
 18 19  1  0
 19 20  2  0
 20 21  1  0
 21 22  1  0
 22 23  2  0
 23 24  1  0
 24 25  1  0
 25 26  2  0
 26 27  1  0
 27 28  2  0
 28 29  1  0
 29 30  2  0
 10  5  1  0
 21 11  1  0
 30 22  1  0
 20 15  1  0
 30 25  1  0
  4 31  1  0
  4 32  1  0
  6 33  1  0
  7 34  1  0
  8 35  1  0
  9 36  1  0
 10 37  1  0
 12 38  1  0
 12 39  1  0
 13 40  1  0
 14 41  1  0
 16 42  1  0
 17 43  1  0
 18 44  1  0
 19 45  1  0
 21 46  1  6
 23 47  1  0
 24 48  1  0
 26 49  1  0
 27 50  1  0
 28 51  1  0
 29 52  1  0
M  END
>  <UniqueID>  (66) 
5

>  <SMILES>  (66) 
O=S(=O)(Cc1ccccc1)N1CC=Cc2ccccc2[C@H]1c1c[nH]c2ccccc12

>  <Energy>  (66) 
111.50652046134222

>  <Genealogy>  (66) 
O=S(=O)(Cc1ccccc1)N1CC=Cc2ccccc2[C@H]1c1c[nH]c2ccccc12 (3D coordinates assigned)
O=S(=O)(Cc1ccccc1)N1CC=Cc2ccccc2[C@H]1c1c[nH]c2ccccc12 (nonaromatic ring conformer: 111.50652046134222 kcal/mol)

>  <smiles>  (66) 
O=S(=O)(Cc1ccccc1)N1CC=Cc2ccccc2[C@H]1c1c[nH]c2ccccc12

>  <score_type>  (66) 
oracle

>  <origin>  (66) 
autodockgpu

>  <m_score__min__energy>  (66) 
-6.2800000000000002

>  <m_primary>  (66) 
energy

>  <meeko>  (66) 
{"free_energy": -5.84, "intermolecular_energy": -8.52, "internal_energy": -2.4, "cluster_size": 5, "cluster_id": 2, "rank_in_cluster": 1}

>  <energy>  (66) 
-5.52

>  <cluster_rmsd>  (66) 
1.56

>  <rmsd>  (66) 
270.56

>  <cluster>  (66) 
2

$$$$
GKGZHBJKEIVYHI-VWLOTQADNA-N
     RDKit          3D

 52 56  0  0  0  0  0  0  0  0999 V2000
  138.9170   82.3990  221.1950 O   0  0  0  0  0  0  0  0  0  0  0  0
  139.4290   81.0280  221.5400 S   0  0  0  0  0  0  0  0  0  0  0  0
  139.0630   80.0920  220.4220 O   0  0  0  0  0  0  0  0  0  0  0  0
  138.6180   80.4750  223.0390 C   0  0  0  0  0  0  0  0  0  0  0  0
  137.6860   79.3360  222.7370 C   0  0  0  0  0  0  0  0  0  0  0  0
  136.4360   79.5810  222.1430 C   0  0  0  0  0  0  0  0  0  0  0  0
  135.5830   78.5160  221.8350 C   0  0  0  0  0  0  0  0  0  0  0  0
  135.9750   77.2030  222.1100 C   0  0  0  0  0  0  0  0  0  0  0  0
  137.2200   76.9510  222.6900 C   0  0  0  0  0  0  0  0  0  0  0  0
  138.0770   78.0130  223.0000 C   0  0  0  0  0  0  0  0  0  0  0  0
  141.1770   81.1240  221.7060 N   0  0  0  0  0  0  0  0  0  0  0  0
  141.6180   81.3810  223.0870 C   0  0  0  0  0  0  0  0  0  0  0  0
  142.1060   80.1960  223.9030 C   0  0  0  0  0  0  0  0  0  0  0  0
  142.0290   78.8750  223.6620 C   0  0  0  0  0  0  0  0  0  0  0  0
  141.4710   78.1740  222.4790 C   0  0  0  0  0  0  0  0  0  0  0  0
  140.9870   76.8670  222.6750 C   0  0  0  0  0  0  0  0  0  0  0  0
  140.4190   76.1490  221.6250 C   0  0  0  0  0  0  0  0  0  0  0  0
  140.3280   76.7210  220.3600 C   0  0  0  0  0  0  0  0  0  0  0  0
  140.8230   78.0050  220.1360 C   0  0  0  0  0  0  0  0  0  0  0  0
  141.4300   78.7360  221.1820 C   0  0  0  0  0  0  0  0  0  0  0  0
  141.9780   80.1300  220.9660 C   0  0  1  0  0  0  0  0  0  0  0  0
  142.1640   80.5380  219.5180 C   0  0  0  0  0  0  0  0  0  0  0  0
  142.6210   79.7530  218.4560 C   0  0  0  0  0  0  0  0  0  0  0  0
  142.5770   80.4490  217.2980 N   0  0  0  0  0  0  0  0  0  0  0  0
  142.0800   81.6580  217.6080 C   0  0  0  0  0  0  0  0  0  0  0  0
  141.8280   82.7160  216.7360 C   0  0  0  0  0  0  0  0  0  0  0  0
  141.2780   83.8940  217.2730 C   0  0  0  0  0  0  0  0  0  0  0  0
  140.9900   83.9840  218.6520 C   0  0  0  0  0  0  0  0  0  0  0  0
  141.2520   82.8990  219.5080 C   0  0  0  0  0  0  0  0  0  0  0  0
  141.8060   81.7470  218.9480 C   0  0  0  0  0  0  0  0  0  0  0  0
  139.3779   80.1407  223.7607 H   0  0  0  0  0  0  0  0  0  0  0  0
  138.0388   81.3093  223.4615 H   0  0  0  0  0  0  0  0  0  0  0  0
  136.1276   80.6130  221.9197 H   0  0  0  0  0  0  0  0  0  0  0  0
  134.6028   78.7121  221.3760 H   0  0  0  0  0  0  0  0  0  0  0  0
  135.3019   76.3670  221.8692 H   0  0  0  0  0  0  0  0  0  0  0  0
  137.5274   75.9166  222.9034 H   0  0  0  0  0  0  0  0  0  0  0  0
  139.0597   77.8109  223.4510 H   0  0  0  0  0  0  0  0  0  0  0  0
  142.4414   82.1088  223.0392 H   0  0  0  0  0  0  0  0  0  0  0  0
  140.7130   81.7251  223.6091 H   0  0  0  0  0  0  0  0  0  0  0  0
  142.6046   80.4624  224.8466 H   0  0  0  0  0  0  0  0  0  0  0  0
  142.4357   78.2246  224.4504 H   0  0  0  0  0  0  0  0  0  0  0  0
  141.0582   76.4060  223.6712 H   0  0  0  0  0  0  0  0  0  0  0  0
  140.0424   75.1297  221.7961 H   0  0  0  0  0  0  0  0  0  0  0  0
  139.8648   76.1594  219.5354 H   0  0  0  0  0  0  0  0  0  0  0  0
  140.7402   78.4535  219.1350 H   0  0  0  0  0  0  0  0  0  0  0  0
  142.9998   80.1017  221.3723 H   0  0  0  0  0  0  0  0  0  0  0  0
  142.9682   78.7134  218.5494 H   0  0  0  0  0  0  0  0  0  0  0  0
  142.8550   80.1050  216.3520 H   0  0  0  0  0  0  0  0  0  0  0  0
  142.0521   82.6323  215.6623 H   0  0  0  0  0  0  0  0  0  0  0  0
  141.0710   84.7503  216.6143 H   0  0  0  0  0  0  0  0  0  0  0  0
  140.5575   84.9094  219.0602 H   0  0  0  0  0  0  0  0  0  0  0  0
  141.0276   82.9566  220.5833 H   0  0  0  0  0  0  0  0  0  0  0  0
  1  2  2  0
  2  3  2  0
  2  4  1  0
  4  5  1  0
  5  6  2  0
  6  7  1  0
  7  8  2  0
  8  9  1  0
  9 10  2  0
  2 11  1  0
 11 12  1  0
 12 13  1  0
 13 14  2  0
 14 15  1  0
 15 16  2  0
 16 17  1  0
 17 18  2  0
 18 19  1  0
 19 20  2  0
 20 21  1  0
 21 22  1  0
 22 23  2  0
 23 24  1  0
 24 25  1  0
 25 26  2  0
 26 27  1  0
 27 28  2  0
 28 29  1  0
 29 30  2  0
 10  5  1  0
 21 11  1  0
 30 22  1  0
 20 15  1  0
 30 25  1  0
  4 31  1  0
  4 32  1  0
  6 33  1  0
  7 34  1  0
  8 35  1  0
  9 36  1  0
 10 37  1  0
 12 38  1  0
 12 39  1  0
 13 40  1  0
 14 41  1  0
 16 42  1  0
 17 43  1  0
 18 44  1  0
 19 45  1  0
 21 46  1  1
 23 47  1  0
 24 48  1  0
 26 49  1  0
 27 50  1  0
 28 51  1  0
 29 52  1  0
M  END
>  <UniqueID>  (67) 
5

>  <SMILES>  (67) 
O=S(=O)(Cc1ccccc1)N1CC=Cc2ccccc2[C@H]1c1c[nH]c2ccccc12

>  <Energy>  (67) 
111.50652046134222

>  <Genealogy>  (67) 
O=S(=O)(Cc1ccccc1)N1CC=Cc2ccccc2[C@H]1c1c[nH]c2ccccc12 (3D coordinates assigned)
O=S(=O)(Cc1ccccc1)N1CC=Cc2ccccc2[C@H]1c1c[nH]c2ccccc12 (nonaromatic ring conformer: 111.50652046134222 kcal/mol)

>  <smiles>  (67) 
O=S(=O)(Cc1ccccc1)N1CC=Cc2ccccc2[C@H]1c1c[nH]c2ccccc12

>  <score_type>  (67) 
oracle

>  <origin>  (67) 
autodockgpu

>  <m_score__min__energy>  (67) 
-6.2800000000000002

>  <m_primary>  (67) 
energy

>  <meeko>  (67) 
{"free_energy": -4.97, "intermolecular_energy": -7.65, "internal_energy": -2.73, "cluster_size": 3, "cluster_id": 3, "rank_in_cluster": 2}

>  <energy>  (67) 
-5.3

>  <cluster_rmsd>  (67) 
0.6

>  <rmsd>  (67) 
270.43

>  <cluster>  (67) 
2

$$$$
GKGZHBJKEIVYHI-VWLOTQADNA-N
     RDKit          3D

 52 56  0  0  0  0  0  0  0  0999 V2000
  140.1950   84.2630  221.0810 O   0  0  0  0  0  0  0  0  0  0  0  0
  139.0520   83.3440  220.7520 S   0  0  0  0  0  0  0  0  0  0  0  0
  138.5280   83.7090  219.3910 O   0  0  0  0  0  0  0  0  0  0  0  0
  137.7480   83.5990  221.9540 C   0  0  0  0  0  0  0  0  0  0  0  0
  137.4060   82.3050  222.6350 C   0  0  0  0  0  0  0  0  0  0  0  0
  136.1450   81.7130  222.4430 C   0  0  0  0  0  0  0  0  0  0  0  0
  135.8410   80.4930  223.0530 C   0  0  0  0  0  0  0  0  0  0  0  0
  136.7930   79.8510  223.8510 C   0  0  0  0  0  0  0  0  0  0  0  0
  138.0520   80.4270  224.0370 C   0  0  0  0  0  0  0  0  0  0  0  0
  138.3610   81.6490  223.4290 C   0  0  0  0  0  0  0  0  0  0  0  0
  139.6620   81.6940  220.7460 N   0  0  0  0  0  0  0  0  0  0  0  0
  139.0750   80.8610  219.6850 C   0  0  0  0  0  0  0  0  0  0  0  0
  139.4730   79.3950  219.6370 C   0  0  0  0  0  0  0  0  0  0  0  0
  140.3340   78.6970  220.3980 C   0  0  0  0  0  0  0  0  0  0  0  0
  140.9870   79.0940  221.6700 C   0  0  0  0  0  0  0  0  0  0  0  0
  141.2020   78.0830  222.6240 C   0  0  0  0  0  0  0  0  0  0  0  0
  141.8370   78.3640  223.8340 C   0  0  0  0  0  0  0  0  0  0  0  0
  142.2630   79.6590  224.1120 C   0  0  0  0  0  0  0  0  0  0  0  0
  142.0380   80.6810  223.1910 C   0  0  0  0  0  0  0  0  0  0  0  0
  141.3690   80.4220  221.9730 C   0  0  0  0  0  0  0  0  0  0  0  0
  141.1110   81.5130  220.9580 C   0  0  1  0  0  0  0  0  0  0  0  0
  141.8470   81.3640  219.6410 C   0  0  0  0  0  0  0  0  0  0  0  0
  142.4770   80.2250  219.1330 C   0  0  0  0  0  0  0  0  0  0  0  0
  142.9580   80.4610  217.8920 N   0  0  0  0  0  0  0  0  0  0  0  0
  142.6230   81.7280  217.5980 C   0  0  0  0  0  0  0  0  0  0  0  0
  142.8840   82.4170  216.4140 C   0  0  0  0  0  0  0  0  0  0  0  0
  142.4180   83.7410  216.3070 C   0  0  0  0  0  0  0  0  0  0  0  0
  141.7050   84.3360  217.3710 C   0  0  0  0  0  0  0  0  0  0  0  0
  141.4540   83.6150  218.5530 C   0  0  0  0  0  0  0  0  0  0  0  0
  141.9360   82.3070  218.6330 C   0  0  0  0  0  0  0  0  0  0  0  0
  138.0855   84.3269  222.7065 H   0  0  0  0  0  0  0  0  0  0  0  0
  136.8542   83.9782  221.4370 H   0  0  0  0  0  0  0  0  0  0  0  0
  135.3956   82.2117  221.8107 H   0  0  0  0  0  0  0  0  0  0  0  0
  134.8510   80.0369  222.9051 H   0  0  0  0  0  0  0  0  0  0  0  0
  136.5505   78.8921  224.3324 H   0  0  0  0  0  0  0  0  0  0  0  0
  138.8014   79.9194  224.6621 H   0  0  0  0  0  0  0  0  0  0  0  0
  139.3551   82.0973  223.5734 H   0  0  0  0  0  0  0  0  0  0  0  0
  137.9820   80.9011  219.8025 H   0  0  0  0  0  0  0  0  0  0  0  0
  139.4660   81.2863  218.7489 H   0  0  0  0  0  0  0  0  0  0  0  0
  138.9749   78.8089  218.8506 H   0  0  0  0  0  0  0  0  0  0  0  0
  140.5895   77.6936  220.0266 H   0  0  0  0  0  0  0  0  0  0  0  0
  140.8650   77.0573  222.4132 H   0  0  0  0  0  0  0  0  0  0  0  0
  142.0009   77.5616  224.5684 H   0  0  0  0  0  0  0  0  0  0  0  0
  142.7778   79.8766  225.0594 H   0  0  0  0  0  0  0  0  0  0  0  0
  142.3850   81.7006  223.4146 H   0  0  0  0  0  0  0  0  0  0  0  0
  141.5369   82.4239  221.4039 H   0  0  0  0  0  0  0  0  0  0  0  0
  142.5688   79.2687  219.6688 H   0  0  0  0  0  0  0  0  0  0  0  0
  143.4670   79.7850  217.2810 H   0  0  0  0  0  0  0  0  0  0  0  0
  143.4362   81.9412  215.5902 H   0  0  0  0  0  0  0  0  0  0  0  0
  142.6104   84.3157  215.3890 H   0  0  0  0  0  0  0  0  0  0  0  0
  141.3433   85.3704  217.2750 H   0  0  0  0  0  0  0  0  0  0  0  0
  140.8964   84.0669  219.3866 H   0  0  0  0  0  0  0  0  0  0  0  0
  1  2  2  0
  2  3  2  0
  2  4  1  0
  4  5  1  0
  5  6  2  0
  6  7  1  0
  7  8  2  0
  8  9  1  0
  9 10  2  0
  2 11  1  0
 11 12  1  0
 12 13  1  0
 13 14  2  0
 14 15  1  0
 15 16  2  0
 16 17  1  0
 17 18  2  0
 18 19  1  0
 19 20  2  0
 20 21  1  0
 21 22  1  0
 22 23  2  0
 23 24  1  0
 24 25  1  0
 25 26  2  0
 26 27  1  0
 27 28  2  0
 28 29  1  0
 29 30  2  0
 10  5  1  0
 21 11  1  0
 30 22  1  0
 20 15  1  0
 30 25  1  0
  4 31  1  0
  4 32  1  0
  6 33  1  0
  7 34  1  0
  8 35  1  0
  9 36  1  0
 10 37  1  0
 12 38  1  0
 12 39  1  0
 13 40  1  0
 14 41  1  0
 16 42  1  0
 17 43  1  0
 18 44  1  0
 19 45  1  0
 21 46  1  1
 23 47  1  0
 24 48  1  0
 26 49  1  0
 27 50  1  0
 28 51  1  0
 29 52  1  0
M  END
>  <UniqueID>  (68) 
5

>  <SMILES>  (68) 
O=S(=O)(Cc1ccccc1)N1CC=Cc2ccccc2[C@H]1c1c[nH]c2ccccc12

>  <Energy>  (68) 
111.50652046134222

>  <Genealogy>  (68) 
O=S(=O)(Cc1ccccc1)N1CC=Cc2ccccc2[C@H]1c1c[nH]c2ccccc12 (3D coordinates assigned)
O=S(=O)(Cc1ccccc1)N1CC=Cc2ccccc2[C@H]1c1c[nH]c2ccccc12 (nonaromatic ring conformer: 111.50652046134222 kcal/mol)

>  <smiles>  (68) 
O=S(=O)(Cc1ccccc1)N1CC=Cc2ccccc2[C@H]1c1c[nH]c2ccccc12

>  <score_type>  (68) 
oracle

>  <origin>  (68) 
autodockgpu

>  <m_score__min__energy>  (68) 
-6.2800000000000002

>  <m_primary>  (68) 
energy

>  <meeko>  (68) 
{"free_energy": -4.79, "intermolecular_energy": -7.48, "internal_energy": -2.58, "cluster_size": 1, "cluster_id": 7, "rank_in_cluster": 1}

>  <energy>  (68) 
-5.59

>  <cluster_rmsd>  (68) 
0.0

>  <rmsd>  (68) 
270.36

>  <cluster>  (68) 
3

$$$$
GKGZHBJKEIVYHI-VWLOTQADNA-N
     RDKit          3D

 52 56  0  0  0  0  0  0  0  0999 V2000
  141.0740   74.7260  222.2480 O   0  0  0  0  0  0  0  0  0  0  0  0
  140.3790   75.1660  220.9890 S   0  0  0  0  0  0  0  0  0  0  0  0
  138.9920   74.5850  220.9870 O   0  0  0  0  0  0  0  0  0  0  0  0
  141.2750   74.5120  219.5820 C   0  0  0  0  0  0  0  0  0  0  0  0
  142.6400   74.0490  220.0030 C   0  0  0  0  0  0  0  0  0  0  0  0
  143.7140   74.9550  220.0510 C   0  0  0  0  0  0  0  0  0  0  0  0
  144.9760   74.5290  220.4730 C   0  0  0  0  0  0  0  0  0  0  0  0
  145.1740   73.1990  220.8570 C   0  0  0  0  0  0  0  0  0  0  0  0
  144.1100   72.2960  220.8230 C   0  0  0  0  0  0  0  0  0  0  0  0
  142.8440   72.7180  220.4010 C   0  0  0  0  0  0  0  0  0  0  0  0
  140.3030   76.9230  220.9940 N   0  0  0  0  0  0  0  0  0  0  0  0
  139.6030   77.4780  219.8240 C   0  0  0  0  0  0  0  0  0  0  0  0
  139.5430   78.9900  219.6890 C   0  0  0  0  0  0  0  0  0  0  0  0
  140.0060   79.9610  220.4950 C   0  0  0  0  0  0  0  0  0  0  0  0
  140.9180   79.8470  221.6610 C   0  0  0  0  0  0  0  0  0  0  0  0
  141.8180   80.9060  221.8770 C   0  0  0  0  0  0  0  0  0  0  0  0
  142.6900   80.8940  222.9660 C   0  0  0  0  0  0  0  0  0  0  0  0
  142.6800   79.8230  223.8530 C   0  0  0  0  0  0  0  0  0  0  0  0
  141.8130   78.7510  223.6450 C   0  0  0  0  0  0  0  0  0  0  0  0
  140.9440   78.7310  222.5300 C   0  0  0  0  0  0  0  0  0  0  0  0
  139.9960   77.5790  222.2780 C   0  0  1  0  0  0  0  0  0  0  0  0
  138.5220   77.9150  222.3890 C   0  0  0  0  0  0  0  0  0  0  0  0
  137.4340   77.1770  221.9170 C   0  0  0  0  0  0  0  0  0  0  0  0
  136.2700   77.7640  222.2750 N   0  0  0  0  0  0  0  0  0  0  0  0
  136.6050   78.8540  222.9840 C   0  0  0  0  0  0  0  0  0  0  0  0
  135.7410   79.7680  223.5860 C   0  0  0  0  0  0  0  0  0  0  0  0
  136.3100   80.8330  224.3090 C   0  0  0  0  0  0  0  0  0  0  0  0
  137.7120   80.9540  224.4180 C   0  0  0  0  0  0  0  0  0  0  0  0
  138.5600   80.0150  223.8030 C   0  0  0  0  0  0  0  0  0  0  0  0
  137.9670   78.9740  223.0850 C   0  0  0  0  0  0  0  0  0  0  0  0
  140.7179   73.6626  219.1599 H   0  0  0  0  0  0  0  0  0  0  0  0
  141.3830   75.3044  218.8267 H   0  0  0  0  0  0  0  0  0  0  0  0
  143.5602   76.0032  219.7552 H   0  0  0  0  0  0  0  0  0  0  0  0
  145.8145   75.2404  220.5032 H   0  0  0  0  0  0  0  0  0  0  0  0
  146.1688   72.8642  221.1860 H   0  0  0  0  0  0  0  0  0  0  0  0
  144.2668   71.2509  221.1284 H   0  0  0  0  0  0  0  0  0  0  0  0
  142.0066   72.0050  220.3811 H   0  0  0  0  0  0  0  0  0  0  0  0
  140.1037   77.0875  218.9258 H   0  0  0  0  0  0  0  0  0  0  0  0
  138.5555   77.1686  219.9540 H   0  0  0  0  0  0  0  0  0  0  0  0
  139.0367   79.3498  218.7811 H   0  0  0  0  0  0  0  0  0  0  0  0
  139.6623   80.9788  220.2584 H   0  0  0  0  0  0  0  0  0  0  0  0
  141.8346   81.7551  221.1779 H   0  0  0  0  0  0  0  0  0  0  0  0
  143.3854   81.7317  223.1230 H   0  0  0  0  0  0  0  0  0  0  0  0
  143.3570   79.8216  224.7200 H   0  0  0  0  0  0  0  0  0  0  0  0
  141.8051   77.9118  224.3561 H   0  0  0  0  0  0  0  0  0  0  0  0
  140.1760   76.8750  223.1039 H   0  0  0  0  0  0  0  0  0  0  0  0
  137.5133   76.2471  221.3347 H   0  0  0  0  0  0  0  0  0  0  0  0
  135.3070   77.4230  222.0590 H   0  0  0  0  0  0  0  0  0  0  0  0
  134.6498   79.6601  223.4986 H   0  0  0  0  0  0  0  0  0  0  0  0
  135.6581   81.5757  224.7921 H   0  0  0  0  0  0  0  0  0  0  0  0
  138.1450   81.7891  224.9883 H   0  0  0  0  0  0  0  0  0  0  0  0
  139.6538   80.0979  223.8848 H   0  0  0  0  0  0  0  0  0  0  0  0
  1  2  2  0
  2  3  2  0
  2  4  1  0
  4  5  1  0
  5  6  2  0
  6  7  1  0
  7  8  2  0
  8  9  1  0
  9 10  2  0
  2 11  1  0
 11 12  1  0
 12 13  1  0
 13 14  2  0
 14 15  1  0
 15 16  2  0
 16 17  1  0
 17 18  2  0
 18 19  1  0
 19 20  2  0
 20 21  1  0
 21 22  1  0
 22 23  2  0
 23 24  1  0
 24 25  1  0
 25 26  2  0
 26 27  1  0
 27 28  2  0
 28 29  1  0
 29 30  2  0
 10  5  1  0
 21 11  1  0
 30 22  1  0
 20 15  1  0
 30 25  1  0
  4 31  1  0
  4 32  1  0
  6 33  1  0
  7 34  1  0
  8 35  1  0
  9 36  1  0
 10 37  1  0
 12 38  1  0
 12 39  1  0
 13 40  1  0
 14 41  1  0
 16 42  1  0
 17 43  1  0
 18 44  1  0
 19 45  1  0
 21 46  1  1
 23 47  1  0
 24 48  1  0
 26 49  1  0
 27 50  1  0
 28 51  1  0
 29 52  1  0
M  END
>  <UniqueID>  (69) 
5

>  <SMILES>  (69) 
O=S(=O)(Cc1ccccc1)N1CC=Cc2ccccc2[C@H]1c1c[nH]c2ccccc12

>  <Energy>  (69) 
111.50652046134222

>  <Genealogy>  (69) 
O=S(=O)(Cc1ccccc1)N1CC=Cc2ccccc2[C@H]1c1c[nH]c2ccccc12 (3D coordinates assigned)
O=S(=O)(Cc1ccccc1)N1CC=Cc2ccccc2[C@H]1c1c[nH]c2ccccc12 (nonaromatic ring conformer: 111.50652046134222 kcal/mol)

>  <smiles>  (69) 
O=S(=O)(Cc1ccccc1)N1CC=Cc2ccccc2[C@H]1c1c[nH]c2ccccc12

>  <score_type>  (69) 
oracle

>  <origin>  (69) 
autodockgpu

>  <m_score__min__energy>  (69) 
-6.2800000000000002

>  <m_primary>  (69) 
energy

>  <meeko>  (69) 
{"free_energy": -6.28, "intermolecular_energy": -8.96, "internal_energy": -1.94, "cluster_size": 2, "cluster_id": 1, "rank_in_cluster": 1}

>  <energy>  (69) 
-4.97

>  <cluster_rmsd>  (69) 
1.21

>  <rmsd>  (69) 
269.95

>  <cluster>  (69) 
3

$$$$
GKGZHBJKEIVYHI-VWLOTQADNA-N
     RDKit          3D

 52 56  0  0  0  0  0  0  0  0999 V2000
  139.0700   82.6330  221.4080 O   0  0  0  0  0  0  0  0  0  0  0  0
  139.5560   81.2230  221.6040 S   0  0  0  0  0  0  0  0  0  0  0  0
  139.1110   80.4020  220.4250 O   0  0  0  0  0  0  0  0  0  0  0  0
  138.7970   80.5570  223.0840 C   0  0  0  0  0  0  0  0  0  0  0  0
  137.7900   79.5020  222.7240 C   0  0  0  0  0  0  0  0  0  0  0  0
  136.6370   79.8400  221.9950 C   0  0  0  0  0  0  0  0  0  0  0  0
  135.7180   78.8500  221.6350 C   0  0  0  0  0  0  0  0  0  0  0  0
  135.9470   77.5180  221.9920 C   0  0  0  0  0  0  0  0  0  0  0  0
  137.0960   77.1730  222.7060 C   0  0  0  0  0  0  0  0  0  0  0  0
  138.0190   78.1600  223.0690 C   0  0  0  0  0  0  0  0  0  0  0  0
  141.3120   81.2580  221.6940 N   0  0  0  0  0  0  0  0  0  0  0  0
  141.8190   81.5320  223.0490 C   0  0  0  0  0  0  0  0  0  0  0  0
  142.2490   80.3450  223.8940 C   0  0  0  0  0  0  0  0  0  0  0  0
  142.1380   79.0230  223.6700 C   0  0  0  0  0  0  0  0  0  0  0  0
  141.5130   78.3180  222.5230 C   0  0  0  0  0  0  0  0  0  0  0  0
  140.9870   77.0370  222.7670 C   0  0  0  0  0  0  0  0  0  0  0  0
  140.3560   76.3170  221.7530 C   0  0  0  0  0  0  0  0  0  0  0  0
  140.2440   76.8630  220.4780 C   0  0  0  0  0  0  0  0  0  0  0  0
  140.7810   78.1210  220.2080 C   0  0  0  0  0  0  0  0  0  0  0  0
  141.4500   78.8520  221.2150 C   0  0  0  0  0  0  0  0  0  0  0  0
  142.0440   80.2180  220.9480 C   0  0  1  0  0  0  0  0  0  0  0  0
  142.1910   80.5880  219.4850 C   0  0  0  0  0  0  0  0  0  0  0  0
  142.6360   79.7810  218.4350 C   0  0  0  0  0  0  0  0  0  0  0  0
  142.5550   80.4430  217.2590 N   0  0  0  0  0  0  0  0  0  0  0  0
  142.0440   81.6510  217.5460 C   0  0  0  0  0  0  0  0  0  0  0  0
  141.7540   82.6800  216.6510 C   0  0  0  0  0  0  0  0  0  0  0  0
  141.1960   83.8640  217.1670 C   0  0  0  0  0  0  0  0  0  0  0  0
  140.9370   83.9880  218.5500 C   0  0  0  0  0  0  0  0  0  0  0  0
  141.2370   82.9320  219.4300 C   0  0  0  0  0  0  0  0  0  0  0  0
  141.7990   81.7740  218.8900 C   0  0  0  0  0  0  0  0  0  0  0  0
  139.5750   80.1132  223.7226 H   0  0  0  0  0  0  0  0  0  0  0  0
  138.2869   81.3700  223.6214 H   0  0  0  0  0  0  0  0  0  0  0  0
  136.4572   80.8863  221.7069 H   0  0  0  0  0  0  0  0  0  0  0  0
  134.8135   79.1195  221.0700 H   0  0  0  0  0  0  0  0  0  0  0  0
  135.2212   76.7410  221.7101 H   0  0  0  0  0  0  0  0  0  0  0  0
  137.2759   76.1239  222.9835 H   0  0  0  0  0  0  0  0  0  0  0  0
  138.9265   77.8841  223.6261 H   0  0  0  0  0  0  0  0  0  0  0  0
  142.6905   82.1953  222.9461 H   0  0  0  0  0  0  0  0  0  0  0  0
  140.9601   81.9602  223.5866 H   0  0  0  0  0  0  0  0  0  0  0  0
  142.7308   80.6103  224.8466 H   0  0  0  0  0  0  0  0  0  0  0  0
  142.5710   78.3738  224.4453 H   0  0  0  0  0  0  0  0  0  0  0  0
  141.0744   76.5969  223.7713 H   0  0  0  0  0  0  0  0  0  0  0  0
  139.9468   75.3174  221.9611 H   0  0  0  0  0  0  0  0  0  0  0  0
  139.7315   76.3018  219.6827 H   0  0  0  0  0  0  0  0  0  0  0  0
  140.6827   78.5492  219.1995 H   0  0  0  0  0  0  0  0  0  0  0  0
  143.0785   80.1570  221.3170 H   0  0  0  0  0  0  0  0  0  0  0  0
  143.0016   78.7499  218.5493 H   0  0  0  0  0  0  0  0  0  0  0  0
  142.8170   80.0760  216.3170 H   0  0  0  0  0  0  0  0  0  0  0  0
  141.9552   82.5696  215.5752 H   0  0  0  0  0  0  0  0  0  0  0  0
  140.9601   84.6979  216.4895 H   0  0  0  0  0  0  0  0  0  0  0  0
  140.4975   84.9171  218.9419 H   0  0  0  0  0  0  0  0  0  0  0  0
  141.0353   83.0162  220.5081 H   0  0  0  0  0  0  0  0  0  0  0  0
  1  2  2  0
  2  3  2  0
  2  4  1  0
  4  5  1  0
  5  6  2  0
  6  7  1  0
  7  8  2  0
  8  9  1  0
  9 10  2  0
  2 11  1  0
 11 12  1  0
 12 13  1  0
 13 14  2  0
 14 15  1  0
 15 16  2  0
 16 17  1  0
 17 18  2  0
 18 19  1  0
 19 20  2  0
 20 21  1  0
 21 22  1  0
 22 23  2  0
 23 24  1  0
 24 25  1  0
 25 26  2  0
 26 27  1  0
 27 28  2  0
 28 29  1  0
 29 30  2  0
 10  5  1  0
 21 11  1  0
 30 22  1  0
 20 15  1  0
 30 25  1  0
  4 31  1  0
  4 32  1  0
  6 33  1  0
  7 34  1  0
  8 35  1  0
  9 36  1  0
 10 37  1  0
 12 38  1  0
 12 39  1  0
 13 40  1  0
 14 41  1  0
 16 42  1  0
 17 43  1  0
 18 44  1  0
 19 45  1  0
 21 46  1  1
 23 47  1  0
 24 48  1  0
 26 49  1  0
 27 50  1  0
 28 51  1  0
 29 52  1  0
M  END
>  <UniqueID>  (70) 
5

>  <SMILES>  (70) 
O=S(=O)(Cc1ccccc1)N1CC=Cc2ccccc2[C@H]1c1c[nH]c2ccccc12

>  <Energy>  (70) 
111.50652046134222

>  <Genealogy>  (70) 
O=S(=O)(Cc1ccccc1)N1CC=Cc2ccccc2[C@H]1c1c[nH]c2ccccc12 (3D coordinates assigned)
O=S(=O)(Cc1ccccc1)N1CC=Cc2ccccc2[C@H]1c1c[nH]c2ccccc12 (nonaromatic ring conformer: 111.50652046134222 kcal/mol)

>  <smiles>  (70) 
O=S(=O)(Cc1ccccc1)N1CC=Cc2ccccc2[C@H]1c1c[nH]c2ccccc12

>  <score_type>  (70) 
oracle

>  <origin>  (70) 
autodockgpu

>  <m_score__min__energy>  (70) 
-6.2800000000000002

>  <m_primary>  (70) 
energy

>  <meeko>  (70) 
{"free_energy": -4.71, "intermolecular_energy": -7.39, "internal_energy": -2.84, "cluster_size": 3, "cluster_id": 3, "rank_in_cluster": 3}

>  <energy>  (70) 
-4.71

>  <cluster_rmsd>  (70) 
1.17

>  <rmsd>  (70) 
270.0

>  <cluster>  (70) 
3

$$$$
GKGZHBJKEIVYHI-VWLOTQADNA-N
     RDKit          3D

 52 56  0  0  0  0  0  0  0  0999 V2000
  136.4130   79.5040  223.7140 O   0  0  0  0  0  0  0  0  0  0  0  0
  137.7620   80.0670  223.3610 S   0  0  0  0  0  0  0  0  0  0  0  0
  138.7800   79.4750  224.2970 O   0  0  0  0  0  0  0  0  0  0  0  0
  137.7240   81.8410  223.6050 C   0  0  0  0  0  0  0  0  0  0  0  0
  137.0600   82.1740  224.9100 C   0  0  0  0  0  0  0  0  0  0  0  0
  137.1570   81.2930  226.0010 C   0  0  0  0  0  0  0  0  0  0  0  0
  136.5640   81.6200  227.2240 C   0  0  0  0  0  0  0  0  0  0  0  0
  135.8790   82.8300  227.3690 C   0  0  0  0  0  0  0  0  0  0  0  0
  135.7880   83.7150  226.2930 C   0  0  0  0  0  0  0  0  0  0  0  0
  136.3790   83.3920  225.0670 C   0  0  0  0  0  0  0  0  0  0  0  0
  138.1250   79.6130  221.7010 N   0  0  0  0  0  0  0  0  0  0  0  0
  137.7050   80.6240  220.7170 C   0  0  0  0  0  0  0  0  0  0  0  0
  138.7490   81.6170  220.2370 C   0  0  0  0  0  0  0  0  0  0  0  0
  140.0360   81.7860  220.6030 C   0  0  0  0  0  0  0  0  0  0  0  0
  140.7930   81.1130  221.6880 C   0  0  0  0  0  0  0  0  0  0  0  0
  141.8340   81.8410  222.2910 C   0  0  0  0  0  0  0  0  0  0  0  0
  142.5770   81.2960  223.3380 C   0  0  0  0  0  0  0  0  0  0  0  0
  142.2950   80.0140  223.7970 C   0  0  0  0  0  0  0  0  0  0  0  0
  141.2830   79.2640  223.1980 C   0  0  0  0  0  0  0  0  0  0  0  0
  140.5410   79.7890  222.1150 C   0  0  0  0  0  0  0  0  0  0  0  0
  139.4390   78.9960  221.4450 C   0  0  1  0  0  0  0  0  0  0  0  0
  139.4240   77.5130  221.7580 C   0  0  0  0  0  0  0  0  0  0  0  0
  138.4290   76.7820  222.4120 C   0  0  0  0  0  0  0  0  0  0  0  0
  138.7420   75.4670  222.4350 N   0  0  0  0  0  0  0  0  0  0  0  0
  139.9130   75.3510  221.7860 C   0  0  0  0  0  0  0  0  0  0  0  0
  140.6250   74.1800  221.5330 C   0  0  0  0  0  0  0  0  0  0  0  0
  141.8270   74.2850  220.8080 C   0  0  0  0  0  0  0  0  0  0  0  0
  142.2800   75.5430  220.3530 C   0  0  0  0  0  0  0  0  0  0  0  0
  141.5380   76.7080  220.6200 C   0  0  0  0  0  0  0  0  0  0  0  0
  140.3550   76.5730  221.3490 C   0  0  0  0  0  0  0  0  0  0  0  0
  138.7535   82.2283  223.6126 H   0  0  0  0  0  0  0  0  0  0  0  0
  137.1535   82.3025  222.7855 H   0  0  0  0  0  0  0  0  0  0  0  0
  137.7012   80.3433  225.8921 H   0  0  0  0  0  0  0  0  0  0  0  0
  136.6365   80.9245  228.0731 H   0  0  0  0  0  0  0  0  0  0  0  0
  135.4114   83.0850  228.3315 H   0  0  0  0  0  0  0  0  0  0  0  0
  135.2507   84.6677  226.4095 H   0  0  0  0  0  0  0  0  0  0  0  0
  136.3101   84.0943  224.2232 H   0  0  0  0  0  0  0  0  0  0  0  0
  137.3313   80.0868  219.8328 H   0  0  0  0  0  0  0  0  0  0  0  0
  136.9611   81.2366  221.2474 H   0  0  0  0  0  0  0  0  0  0  0  0
  138.3971   82.3141  219.4623 H   0  0  0  0  0  0  0  0  0  0  0  0
  140.6028   82.5243  220.0167 H   0  0  0  0  0  0  0  0  0  0  0  0
  142.0656   82.8546  221.9319 H   0  0  0  0  0  0  0  0  0  0  0  0
  143.3861   81.8803  223.8007 H   0  0  0  0  0  0  0  0  0  0  0  0
  142.8707   79.5909  224.6334 H   0  0  0  0  0  0  0  0  0  0  0  0
  141.0599   78.2539  223.5719 H   0  0  0  0  0  0  0  0  0  0  0  0
  139.6657   79.0431  220.3697 H   0  0  0  0  0  0  0  0  0  0  0  0
  137.5172   77.2163  222.8479 H   0  0  0  0  0  0  0  0  0  0  0  0
  138.1750   74.6970  222.8540 H   0  0  0  0  0  0  0  0  0  0  0  0
  140.2595   73.2052  221.8884 H   0  0  0  0  0  0  0  0  0  0  0  0
  142.4172   73.3816  220.5945 H   0  0  0  0  0  0  0  0  0  0  0  0
  143.2199   75.6123  219.7857 H   0  0  0  0  0  0  0  0  0  0  0  0
  141.8785   77.6923  220.2662 H   0  0  0  0  0  0  0  0  0  0  0  0
  1  2  2  0
  2  3  2  0
  2  4  1  0
  4  5  1  0
  5  6  2  0
  6  7  1  0
  7  8  2  0
  8  9  1  0
  9 10  2  0
  2 11  1  0
 11 12  1  0
 12 13  1  0
 13 14  2  0
 14 15  1  0
 15 16  2  0
 16 17  1  0
 17 18  2  0
 18 19  1  0
 19 20  2  0
 20 21  1  0
 21 22  1  0
 22 23  2  0
 23 24  1  0
 24 25  1  0
 25 26  2  0
 26 27  1  0
 27 28  2  0
 28 29  1  0
 29 30  2  0
 10  5  1  0
 21 11  1  0
 30 22  1  0
 20 15  1  0
 30 25  1  0
  4 31  1  0
  4 32  1  0
  6 33  1  0
  7 34  1  0
  8 35  1  0
  9 36  1  0
 10 37  1  0
 12 38  1  0
 12 39  1  0
 13 40  1  0
 14 41  1  0
 16 42  1  0
 17 43  1  0
 18 44  1  0
 19 45  1  0
 21 46  1  6
 23 47  1  0
 24 48  1  0
 26 49  1  0
 27 50  1  0
 28 51  1  0
 29 52  1  0
M  END
>  <UniqueID>  (71) 
5

>  <SMILES>  (71) 
O=S(=O)(Cc1ccccc1)N1CC=Cc2ccccc2[C@H]1c1c[nH]c2ccccc12

>  <Energy>  (71) 
111.50652046134222

>  <Genealogy>  (71) 
O=S(=O)(Cc1ccccc1)N1CC=Cc2ccccc2[C@H]1c1c[nH]c2ccccc12 (3D coordinates assigned)
O=S(=O)(Cc1ccccc1)N1CC=Cc2ccccc2[C@H]1c1c[nH]c2ccccc12 (nonaromatic ring conformer: 111.50652046134222 kcal/mol)

>  <smiles>  (71) 
O=S(=O)(Cc1ccccc1)N1CC=Cc2ccccc2[C@H]1c1c[nH]c2ccccc12

>  <score_type>  (71) 
oracle

>  <origin>  (71) 
autodockgpu

>  <m_score__min__energy>  (71) 
-6.2800000000000002

>  <m_primary>  (71) 
energy

>  <meeko>  (71) 
{"free_energy": -5.79, "intermolecular_energy": -8.48, "internal_energy": -2.23, "cluster_size": 5, "cluster_id": 2, "rank_in_cluster": 2}

>  <energy>  (71) 
-5.23

>  <cluster_rmsd>  (71) 
0.0

>  <rmsd>  (71) 
269.4

>  <cluster>  (71) 
4

$$$$
GKGZHBJKEIVYHI-VWLOTQADNA-N
     RDKit          3D

 52 56  0  0  0  0  0  0  0  0999 V2000
  138.4680   79.8220  224.0990 O   0  0  0  0  0  0  0  0  0  0  0  0
  138.0600   80.7910  223.0240 S   0  0  0  0  0  0  0  0  0  0  0  0
  138.9710   81.9860  223.0940 O   0  0  0  0  0  0  0  0  0  0  0  0
  136.3830   81.3320  223.3480 C   0  0  0  0  0  0  0  0  0  0  0  0
  136.2980   81.9900  224.6950 C   0  0  0  0  0  0  0  0  0  0  0  0
  136.4140   81.2230  225.8680 C   0  0  0  0  0  0  0  0  0  0  0  0
  136.3650   81.8420  227.1200 C   0  0  0  0  0  0  0  0  0  0  0  0
  136.2090   83.2280  227.2110 C   0  0  0  0  0  0  0  0  0  0  0  0
  136.1050   83.9980  226.0500 C   0  0  0  0  0  0  0  0  0  0  0  0
  136.1530   83.3830  224.7940 C   0  0  0  0  0  0  0  0  0  0  0  0
  138.2310   79.9860  221.4710 N   0  0  0  0  0  0  0  0  0  0  0  0
  138.2220   80.9160  220.3290 C   0  0  0  0  0  0  0  0  0  0  0  0
  139.5630   81.3300  219.7470 C   0  0  0  0  0  0  0  0  0  0  0  0
  140.8160   81.0930  220.1720 C   0  0  0  0  0  0  0  0  0  0  0  0
  141.2680   80.3710  221.3880 C   0  0  0  0  0  0  0  0  0  0  0  0
  142.5070   80.7490  221.9360 C   0  0  0  0  0  0  0  0  0  0  0  0
  142.9920   80.1430  223.0940 C   0  0  0  0  0  0  0  0  0  0  0  0
  142.2510   79.1470  223.7220 C   0  0  0  0  0  0  0  0  0  0  0  0
  141.0320   78.7390  223.1820 C   0  0  0  0  0  0  0  0  0  0  0  0
  140.5380   79.3210  221.9920 C   0  0  0  0  0  0  0  0  0  0  0  0
  139.2190   78.8950  221.3840 C   0  0  1  0  0  0  0  0  0  0  0  0
  138.6520   77.5920  221.9100 C   0  0  0  0  0  0  0  0  0  0  0  0
  139.3080   76.3680  222.0630 C   0  0  0  0  0  0  0  0  0  0  0  0
  138.4900   75.4580  222.6370 N   0  0  0  0  0  0  0  0  0  0  0  0
  137.3300   76.0940  222.8680 C   0  0  0  0  0  0  0  0  0  0  0  0
  136.1850   75.5710  223.4690 C   0  0  0  0  0  0  0  0  0  0  0  0
  135.0810   76.4260  223.6380 C   0  0  0  0  0  0  0  0  0  0  0  0
  135.1480   77.7710  223.2120 C   0  0  0  0  0  0  0  0  0  0  0  0
  136.3170   78.2730  222.6120 C   0  0  0  0  0  0  0  0  0  0  0  0
  137.3930   77.3980  222.4500 C   0  0  0  0  0  0  0  0  0  0  0  0
  136.0776   82.0507  222.5733 H   0  0  0  0  0  0  0  0  0  0  0  0
  135.7163   80.4572  223.3348 H   0  0  0  0  0  0  0  0  0  0  0  0
  136.5437   80.1328  225.7999 H   0  0  0  0  0  0  0  0  0  0  0  0
  136.4493   81.2376  228.0352 H   0  0  0  0  0  0  0  0  0  0  0  0
  136.1681   83.7128  228.1975 H   0  0  0  0  0  0  0  0  0  0  0  0
  135.9852   85.0890  226.1233 H   0  0  0  0  0  0  0  0  0  0  0  0
  136.0769   83.9927  223.8816 H   0  0  0  0  0  0  0  0  0  0  0  0
  137.6460   80.4400  219.5218 H   0  0  0  0  0  0  0  0  0  0  0  0
  137.7931   81.8461  220.7302 H   0  0  0  0  0  0  0  0  0  0  0  0
  139.4975   81.9231  218.8229 H   0  0  0  0  0  0  0  0  0  0  0  0
  141.6171   81.4886  219.5303 H   0  0  0  0  0  0  0  0  0  0  0  0
  143.1012   81.5333  221.4443 H   0  0  0  0  0  0  0  0  0  0  0  0
  143.9614   80.4526  223.5115 H   0  0  0  0  0  0  0  0  0  0  0  0
  142.6270   78.6812  224.6449 H   0  0  0  0  0  0  0  0  0  0  0  0
  140.4482   77.9556  223.6874 H   0  0  0  0  0  0  0  0  0  0  0  0
  139.4448   78.6840  220.3283 H   0  0  0  0  0  0  0  0  0  0  0  0
  140.3467   76.1720  221.7584 H   0  0  0  0  0  0  0  0  0  0  0  0
  138.7240   74.4670  222.8710 H   0  0  0  0  0  0  0  0  0  0  0  0
  136.1467   74.5228  223.8004 H   0  0  0  0  0  0  0  0  0  0  0  0
  134.1605   76.0451  224.1044 H   0  0  0  0  0  0  0  0  0  0  0  0
  134.2791   78.4312  223.3506 H   0  0  0  0  0  0  0  0  0  0  0  0
  136.3814   79.3202  222.2814 H   0  0  0  0  0  0  0  0  0  0  0  0
  1  2  2  0
  2  3  2  0
  2  4  1  0
  4  5  1  0
  5  6  2  0
  6  7  1  0
  7  8  2  0
  8  9  1  0
  9 10  2  0
  2 11  1  0
 11 12  1  0
 12 13  1  0
 13 14  2  0
 14 15  1  0
 15 16  2  0
 16 17  1  0
 17 18  2  0
 18 19  1  0
 19 20  2  0
 20 21  1  0
 21 22  1  0
 22 23  2  0
 23 24  1  0
 24 25  1  0
 25 26  2  0
 26 27  1  0
 27 28  2  0
 28 29  1  0
 29 30  2  0
 10  5  1  0
 21 11  1  0
 30 22  1  0
 20 15  1  0
 30 25  1  0
  4 31  1  0
  4 32  1  0
  6 33  1  0
  7 34  1  0
  8 35  1  0
  9 36  1  0
 10 37  1  0
 12 38  1  0
 12 39  1  0
 13 40  1  0
 14 41  1  0
 16 42  1  0
 17 43  1  0
 18 44  1  0
 19 45  1  0
 21 46  1  6
 23 47  1  0
 24 48  1  0
 26 49  1  0
 27 50  1  0
 28 51  1  0
 29 52  1  0
M  END
>  <UniqueID>  (72) 
5

>  <SMILES>  (72) 
O=S(=O)(Cc1ccccc1)N1CC=Cc2ccccc2[C@H]1c1c[nH]c2ccccc12

>  <Energy>  (72) 
111.50652046134222

>  <Genealogy>  (72) 
O=S(=O)(Cc1ccccc1)N1CC=Cc2ccccc2[C@H]1c1c[nH]c2ccccc12 (3D coordinates assigned)
O=S(=O)(Cc1ccccc1)N1CC=Cc2ccccc2[C@H]1c1c[nH]c2ccccc12 (nonaromatic ring conformer: 111.50652046134222 kcal/mol)

>  <smiles>  (72) 
O=S(=O)(Cc1ccccc1)N1CC=Cc2ccccc2[C@H]1c1c[nH]c2ccccc12

>  <score_type>  (72) 
oracle

>  <origin>  (72) 
autodockgpu

>  <m_score__min__energy>  (72) 
-6.2800000000000002

>  <m_primary>  (72) 
energy

>  <meeko>  (72) 
{"free_energy": -5.3, "intermolecular_energy": -7.99, "internal_energy": -2.31, "cluster_size": 5, "cluster_id": 2, "rank_in_cluster": 5}

>  <energy>  (72) 
-5.09

>  <cluster_rmsd>  (72) 
0.37

>  <rmsd>  (72) 
269.4

>  <cluster>  (72) 
4

$$$$
GKGZHBJKEIVYHI-VWLOTQADNA-N
     RDKit          3D

 52 56  0  0  0  0  0  0  0  0999 V2000
  136.7750   79.2020  223.0900 O   0  0  0  0  0  0  0  0  0  0  0  0
  137.6740   80.3720  223.3810 S   0  0  0  0  0  0  0  0  0  0  0  0
  137.8050   80.5070  224.8740 O   0  0  0  0  0  0  0  0  0  0  0  0
  136.9070   81.8580  222.7380 C   0  0  0  0  0  0  0  0  0  0  0  0
  137.7750   82.4760  221.6800 C   0  0  0  0  0  0  0  0  0  0  0  0
  137.2760   82.6810  220.3820 C   0  0  0  0  0  0  0  0  0  0  0  0
  138.0750   83.2860  219.4080 C   0  0  0  0  0  0  0  0  0  0  0  0
  139.3730   83.6970  219.7230 C   0  0  0  0  0  0  0  0  0  0  0  0
  139.8720   83.5080  221.0140 C   0  0  0  0  0  0  0  0  0  0  0  0
  139.0760   82.9030  221.9930 C   0  0  0  0  0  0  0  0  0  0  0  0
  139.2440   80.0460  222.6590 N   0  0  0  0  0  0  0  0  0  0  0  0
  140.2870   79.7370  223.6510 C   0  0  0  0  0  0  0  0  0  0  0  0
  141.7030   79.5250  223.1430 C   0  0  0  0  0  0  0  0  0  0  0  0
  142.1900   79.5150  221.8890 C   0  0  0  0  0  0  0  0  0  0  0  0
  141.5350   79.9550  220.6320 C   0  0  0  0  0  0  0  0  0  0  0  0
  142.3530   80.5560  219.6580 C   0  0  0  0  0  0  0  0  0  0  0  0
  141.8240   80.9700  218.4360 C   0  0  0  0  0  0  0  0  0  0  0  0
  140.4710   80.7970  218.1680 C   0  0  0  0  0  0  0  0  0  0  0  0
  139.6360   80.2260  219.1290 C   0  0  0  0  0  0  0  0  0  0  0  0
  140.1480   79.8280  220.3850 C   0  0  0  0  0  0  0  0  0  0  0  0
  139.2640   79.2080  221.4460 C   0  0  1  0  0  0  0  0  0  0  0  0
  139.5660   77.7610  221.7780 C   0  0  0  0  0  0  0  0  0  0  0  0
  138.9670   76.9600  222.7530 C   0  0  0  0  0  0  0  0  0  0  0  0
  139.4500   75.6980  222.6960 N   0  0  0  0  0  0  0  0  0  0  0  0
  140.3330   75.6840  221.6840 C   0  0  0  0  0  0  0  0  0  0  0  0
  141.0740   74.5950  221.2260 C   0  0  0  0  0  0  0  0  0  0  0  0
  141.9290   74.7970  220.1260 C   0  0  0  0  0  0  0  0  0  0  0  0
  142.0170   76.0670  219.5140 C   0  0  0  0  0  0  0  0  0  0  0  0
  141.2550   77.1460  219.9960 C   0  0  0  0  0  0  0  0  0  0  0  0
  140.4230   76.9180  221.0930 C   0  0  0  0  0  0  0  0  0  0  0  0
  135.9298   81.6027  222.3023 H   0  0  0  0  0  0  0  0  0  0  0  0
  136.7766   82.5778  223.5595 H   0  0  0  0  0  0  0  0  0  0  0  0
  136.2528   82.3640  220.1319 H   0  0  0  0  0  0  0  0  0  0  0  0
  137.6817   83.4389  218.3922 H   0  0  0  0  0  0  0  0  0  0  0  0
  140.0020   84.1695  218.9541 H   0  0  0  0  0  0  0  0  0  0  0  0
  140.8926   83.8354  221.2615 H   0  0  0  0  0  0  0  0  0  0  0  0
  139.4701   82.7615  223.0102 H   0  0  0  0  0  0  0  0  0  0  0  0
  140.3163   80.5709  224.3677 H   0  0  0  0  0  0  0  0  0  0  0  0
  139.9929   78.7634  224.0701 H   0  0  0  0  0  0  0  0  0  0  0  0
  142.4526   79.3513  223.9291 H   0  0  0  0  0  0  0  0  0  0  0  0
  143.2138   79.1277  221.7804 H   0  0  0  0  0  0  0  0  0  0  0  0
  143.4239   80.7013  219.8630 H   0  0  0  0  0  0  0  0  0  0  0  0
  142.4782   81.4341  217.6832 H   0  0  0  0  0  0  0  0  0  0  0  0
  140.0584   81.1105  217.1977 H   0  0  0  0  0  0  0  0  0  0  0  0
  138.5681   80.0841  218.9069 H   0  0  0  0  0  0  0  0  0  0  0  0
  138.2586   79.1782  221.0007 H   0  0  0  0  0  0  0  0  0  0  0  0
  138.2073   77.3077  223.4685 H   0  0  0  0  0  0  0  0  0  0  0  0
  139.1740   74.8960  223.3040 H   0  0  0  0  0  0  0  0  0  0  0  0
  140.9930   73.6099  221.7087 H   0  0  0  0  0  0  0  0  0  0  0  0
  142.5318   73.9613  219.7410 H   0  0  0  0  0  0  0  0  0  0  0  0
  142.6868   76.2131  218.6537 H   0  0  0  0  0  0  0  0  0  0  0  0
  141.3128   78.1377  219.5237 H   0  0  0  0  0  0  0  0  0  0  0  0
  1  2  2  0
  2  3  2  0
  2  4  1  0
  4  5  1  0
  5  6  2  0
  6  7  1  0
  7  8  2  0
  8  9  1  0
  9 10  2  0
  2 11  1  0
 11 12  1  0
 12 13  1  0
 13 14  2  0
 14 15  1  0
 15 16  2  0
 16 17  1  0
 17 18  2  0
 18 19  1  0
 19 20  2  0
 20 21  1  0
 21 22  1  0
 22 23  2  0
 23 24  1  0
 24 25  1  0
 25 26  2  0
 26 27  1  0
 27 28  2  0
 28 29  1  0
 29 30  2  0
 10  5  1  0
 21 11  1  0
 30 22  1  0
 20 15  1  0
 30 25  1  0
  4 31  1  0
  4 32  1  0
  6 33  1  0
  7 34  1  0
  8 35  1  0
  9 36  1  0
 10 37  1  0
 12 38  1  0
 12 39  1  0
 13 40  1  0
 14 41  1  0
 16 42  1  0
 17 43  1  0
 18 44  1  0
 19 45  1  0
 21 46  1  6
 23 47  1  0
 24 48  1  0
 26 49  1  0
 27 50  1  0
 28 51  1  0
 29 52  1  0
M  END
>  <UniqueID>  (73) 
5

>  <SMILES>  (73) 
O=S(=O)(Cc1ccccc1)N1CC=Cc2ccccc2[C@H]1c1c[nH]c2ccccc12

>  <Energy>  (73) 
111.50652046134222

>  <Genealogy>  (73) 
O=S(=O)(Cc1ccccc1)N1CC=Cc2ccccc2[C@H]1c1c[nH]c2ccccc12 (3D coordinates assigned)
O=S(=O)(Cc1ccccc1)N1CC=Cc2ccccc2[C@H]1c1c[nH]c2ccccc12 (nonaromatic ring conformer: 111.50652046134222 kcal/mol)

>  <smiles>  (73) 
O=S(=O)(Cc1ccccc1)N1CC=Cc2ccccc2[C@H]1c1c[nH]c2ccccc12

>  <score_type>  (73) 
oracle

>  <origin>  (73) 
autodockgpu

>  <m_score__min__energy>  (73) 
-6.2800000000000002

>  <m_primary>  (73) 
energy

>  <meeko>  (73) 
{"free_energy": -4.21, "intermolecular_energy": -6.9, "internal_energy": -2.69, "cluster_size": 1, "cluster_id": 9, "rank_in_cluster": 1}

>  <energy>  (73) 
-4.84

>  <cluster_rmsd>  (73) 
0.0

>  <rmsd>  (73) 
269.11

>  <cluster>  (73) 
5

$$$$
GKGZHBJKEIVYHI-VWLOTQADNA-N
     RDKit          3D

 52 56  0  0  0  0  0  0  0  0999 V2000
  138.7420   77.5880  222.6410 O   0  0  0  0  0  0  0  0  0  0  0  0
  139.9050   76.8050  222.0980 S   0  0  0  0  0  0  0  0  0  0  0  0
  139.6250   75.3410  222.3010 O   0  0  0  0  0  0  0  0  0  0  0  0
  141.3720   77.2410  223.0280 C   0  0  0  0  0  0  0  0  0  0  0  0
  141.5210   78.7340  223.0980 C   0  0  0  0  0  0  0  0  0  0  0  0
  140.5000   79.5230  223.6560 C   0  0  0  0  0  0  0  0  0  0  0  0
  140.6540   80.9090  223.7490 C   0  0  0  0  0  0  0  0  0  0  0  0
  141.8280   81.5160  223.2940 C   0  0  0  0  0  0  0  0  0  0  0  0
  142.8520   80.7370  222.7490 C   0  0  0  0  0  0  0  0  0  0  0  0
  142.7020   79.3490  222.6540 C   0  0  0  0  0  0  0  0  0  0  0  0
  140.0520   77.1640  220.3830 N   0  0  0  0  0  0  0  0  0  0  0  0
  138.7800   77.5720  219.7630 C   0  0  0  0  0  0  0  0  0  0  0  0
  138.8080   77.9890  218.3030 C   0  0  0  0  0  0  0  0  0  0  0  0
  139.7670   77.8480  217.3700 C   0  0  0  0  0  0  0  0  0  0  0  0
  141.1350   77.2920  217.5170 C   0  0  0  0  0  0  0  0  0  0  0  0
  141.7090   76.6890  216.3830 C   0  0  0  0  0  0  0  0  0  0  0  0
  143.0020   76.1690  216.4260 C   0  0  0  0  0  0  0  0  0  0  0  0
  143.7410   76.2380  217.6020 C   0  0  0  0  0  0  0  0  0  0  0  0
  143.1840   76.8090  218.7450 C   0  0  0  0  0  0  0  0  0  0  0  0
  141.8640   77.3140  218.7290 C   0  0  0  0  0  0  0  0  0  0  0  0
  141.2330   77.9360  219.9570 C   0  0  1  0  0  0  0  0  0  0  0  0
  140.9180   79.4140  219.8460 C   0  0  0  0  0  0  0  0  0  0  0  0
  139.9800   80.1500  220.5740 C   0  0  0  0  0  0  0  0  0  0  0  0
  140.0430   81.4600  220.2450 N   0  0  0  0  0  0  0  0  0  0  0  0
  141.0230   81.5680  219.3320 C   0  0  0  0  0  0  0  0  0  0  0  0
  141.4740   82.7320  218.7120 C   0  0  0  0  0  0  0  0  0  0  0  0
  142.5380   82.6200  217.7980 C   0  0  0  0  0  0  0  0  0  0  0  0
  143.1230   81.3620  217.5330 C   0  0  0  0  0  0  0  0  0  0  0  0
  142.6490   80.2050  218.1760 C   0  0  0  0  0  0  0  0  0  0  0  0
  141.5870   80.3460  219.0710 C   0  0  0  0  0  0  0  0  0  0  0  0
  141.2887   76.8365  224.0475 H   0  0  0  0  0  0  0  0  0  0  0  0
  142.2535   76.8169  222.5249 H   0  0  0  0  0  0  0  0  0  0  0  0
  139.5772   79.0481  224.0205 H   0  0  0  0  0  0  0  0  0  0  0  0
  139.8501   81.5231  224.1809 H   0  0  0  0  0  0  0  0  0  0  0  0
  141.9458   82.6074  223.3650 H   0  0  0  0  0  0  0  0  0  0  0  0
  143.7769   81.2153  222.3943 H   0  0  0  0  0  0  0  0  0  0  0  0
  143.5123   78.7378  222.2300 H   0  0  0  0  0  0  0  0  0  0  0  0
  138.0855   76.7233  219.8490 H   0  0  0  0  0  0  0  0  0  0  0  0
  138.4852   78.4819  220.3064 H   0  0  0  0  0  0  0  0  0  0  0  0
  137.8937   78.4886  217.9502 H   0  0  0  0  0  0  0  0  0  0  0  0
  139.5005   78.1920  216.3597 H   0  0  0  0  0  0  0  0  0  0  0  0
  141.1300   76.6269  215.4498 H   0  0  0  0  0  0  0  0  0  0  0  0
  143.4377   75.7040  215.5294 H   0  0  0  0  0  0  0  0  0  0  0  0
  144.7666   75.8414  217.6302 H   0  0  0  0  0  0  0  0  0  0  0  0
  143.7779   76.8672  219.6691 H   0  0  0  0  0  0  0  0  0  0  0  0
  142.0081   77.8826  220.7357 H   0  0  0  0  0  0  0  0  0  0  0  0
  139.2860   79.7228  221.3129 H   0  0  0  0  0  0  0  0  0  0  0  0
  139.4610   82.2320  220.6390 H   0  0  0  0  0  0  0  0  0  0  0  0
  141.0131   83.7067  218.9301 H   0  0  0  0  0  0  0  0  0  0  0  0
  142.9164   83.5175  217.2868 H   0  0  0  0  0  0  0  0  0  0  0  0
  143.9557   81.2869  216.8182 H   0  0  0  0  0  0  0  0  0  0  0  0
  143.1001   79.2211  217.9802 H   0  0  0  0  0  0  0  0  0  0  0  0
  1  2  2  0
  2  3  2  0
  2  4  1  0
  4  5  1  0
  5  6  2  0
  6  7  1  0
  7  8  2  0
  8  9  1  0
  9 10  2  0
  2 11  1  0
 11 12  1  0
 12 13  1  0
 13 14  2  0
 14 15  1  0
 15 16  2  0
 16 17  1  0
 17 18  2  0
 18 19  1  0
 19 20  2  0
 20 21  1  0
 21 22  1  0
 22 23  2  0
 23 24  1  0
 24 25  1  0
 25 26  2  0
 26 27  1  0
 27 28  2  0
 28 29  1  0
 29 30  2  0
 10  5  1  0
 21 11  1  0
 30 22  1  0
 20 15  1  0
 30 25  1  0
  4 31  1  0
  4 32  1  0
  6 33  1  0
  7 34  1  0
  8 35  1  0
  9 36  1  0
 10 37  1  0
 12 38  1  0
 12 39  1  0
 13 40  1  0
 14 41  1  0
 16 42  1  0
 17 43  1  0
 18 44  1  0
 19 45  1  0
 21 46  1  1
 23 47  1  0
 24 48  1  0
 26 49  1  0
 27 50  1  0
 28 51  1  0
 29 52  1  0
M  END
>  <UniqueID>  (74) 
5

>  <SMILES>  (74) 
O=S(=O)(Cc1ccccc1)N1CC=Cc2ccccc2[C@H]1c1c[nH]c2ccccc12

>  <Energy>  (74) 
111.50652046134222

>  <Genealogy>  (74) 
O=S(=O)(Cc1ccccc1)N1CC=Cc2ccccc2[C@H]1c1c[nH]c2ccccc12 (3D coordinates assigned)
O=S(=O)(Cc1ccccc1)N1CC=Cc2ccccc2[C@H]1c1c[nH]c2ccccc12 (nonaromatic ring conformer: 111.50652046134222 kcal/mol)

>  <smiles>  (74) 
O=S(=O)(Cc1ccccc1)N1CC=Cc2ccccc2[C@H]1c1c[nH]c2ccccc12

>  <score_type>  (74) 
oracle

>  <origin>  (74) 
autodockgpu

>  <m_score__min__energy>  (74) 
-6.2800000000000002

>  <m_primary>  (74) 
energy

>  <meeko>  (74) 
{"free_energy": -4.8, "intermolecular_energy": -7.49, "internal_energy": -2.71, "cluster_size": 4, "cluster_id": 5, "rank_in_cluster": 2}

>  <energy>  (74) 
-4.8

>  <cluster_rmsd>  (74) 
0.13

>  <rmsd>  (74) 
269.16

>  <cluster>  (74) 
5

$$$$
GKGZHBJKEIVYHI-VWLOTQADNA-N
     RDKit          3D

 52 56  0  0  0  0  0  0  0  0999 V2000
  138.4650   79.7760  224.1370 O   0  0  0  0  0  0  0  0  0  0  0  0
  138.0200   80.7170  223.0530 S   0  0  0  0  0  0  0  0  0  0  0  0
  138.8850   81.9460  223.1100 O   0  0  0  0  0  0  0  0  0  0  0  0
  136.3230   81.1960  223.3720 C   0  0  0  0  0  0  0  0  0  0  0  0
  136.1010   81.3780  224.8460 C   0  0  0  0  0  0  0  0  0  0  0  0
  134.9340   80.8830  225.4540 C   0  0  0  0  0  0  0  0  0  0  0  0
  134.7440   81.0260  226.8320 C   0  0  0  0  0  0  0  0  0  0  0  0
  135.7190   81.6540  227.6120 C   0  0  0  0  0  0  0  0  0  0  0  0
  136.8870   82.1370  227.0170 C   0  0  0  0  0  0  0  0  0  0  0  0
  137.0810   81.9970  225.6390 C   0  0  0  0  0  0  0  0  0  0  0  0
  138.2200   79.9030  221.5070 N   0  0  0  0  0  0  0  0  0  0  0  0
  138.2100   80.8240  220.3590 C   0  0  0  0  0  0  0  0  0  0  0  0
  139.5500   81.3020  219.8260 C   0  0  0  0  0  0  0  0  0  0  0  0
  140.8030   81.0500  220.2470 C   0  0  0  0  0  0  0  0  0  0  0  0
  141.2500   80.3370  221.4700 C   0  0  0  0  0  0  0  0  0  0  0  0
  142.4750   80.7360  222.0340 C   0  0  0  0  0  0  0  0  0  0  0  0
  142.9550   80.1400  223.1990 C   0  0  0  0  0  0  0  0  0  0  0  0
  142.2220   79.1320  223.8180 C   0  0  0  0  0  0  0  0  0  0  0  0
  141.0160   78.7040  223.2630 C   0  0  0  0  0  0  0  0  0  0  0  0
  140.5300   79.2750  222.0650 C   0  0  0  0  0  0  0  0  0  0  0  0
  139.2260   78.8270  221.4400 C   0  0  1  0  0  0  0  0  0  0  0  0
  138.6720   77.5180  221.9640 C   0  0  0  0  0  0  0  0  0  0  0  0
  139.3430   76.3040  222.1280 C   0  0  0  0  0  0  0  0  0  0  0  0
  138.5300   75.3830  222.6960 N   0  0  0  0  0  0  0  0  0  0  0  0
  137.3590   76.0040  222.9120 C   0  0  0  0  0  0  0  0  0  0  0  0
  136.2160   75.4670  223.5010 C   0  0  0  0  0  0  0  0  0  0  0  0
  135.0980   76.3070  223.6550 C   0  0  0  0  0  0  0  0  0  0  0  0
  135.1500   77.6520  223.2260 C   0  0  0  0  0  0  0  0  0  0  0  0
  136.3190   78.1680  222.6370 C   0  0  0  0  0  0  0  0  0  0  0  0
  137.4090   77.3070  222.4900 C   0  0  0  0  0  0  0  0  0  0  0  0
  136.1094   82.1422  222.8533 H   0  0  0  0  0  0  0  0  0  0  0  0
  135.6528   80.4050  223.0042 H   0  0  0  0  0  0  0  0  0  0  0  0
  134.1681   80.3817  224.8439 H   0  0  0  0  0  0  0  0  0  0  0  0
  133.8262   80.6438  227.3026 H   0  0  0  0  0  0  0  0  0  0  0  0
  135.5665   81.7680  228.6954 H   0  0  0  0  0  0  0  0  0  0  0  0
  137.6549   82.6279  227.6329 H   0  0  0  0  0  0  0  0  0  0  0  0
  138.0045   82.3731  225.1746 H   0  0  0  0  0  0  0  0  0  0  0  0
  137.6908   80.3148  219.5337 H   0  0  0  0  0  0  0  0  0  0  0  0
  137.7201   81.7337  220.7364 H   0  0  0  0  0  0  0  0  0  0  0  0
  139.4851   81.9643  218.9502 H   0  0  0  0  0  0  0  0  0  0  0  0
  141.6065   81.4237  219.5953 H   0  0  0  0  0  0  0  0  0  0  0  0
  143.0625   81.5295  221.5490 H   0  0  0  0  0  0  0  0  0  0  0  0
  143.9133   80.4665  223.6292 H   0  0  0  0  0  0  0  0  0  0  0  0
  142.5939   78.6724  224.7456 H   0  0  0  0  0  0  0  0  0  0  0  0
  140.4370   77.9136  223.7631 H   0  0  0  0  0  0  0  0  0  0  0  0
  139.4699   78.6157  220.3884 H   0  0  0  0  0  0  0  0  0  0  0  0
  140.3877   76.1217  221.8359 H   0  0  0  0  0  0  0  0  0  0  0  0
  138.7760   74.3970  222.9350 H   0  0  0  0  0  0  0  0  0  0  0  0
  136.1887   74.4193  223.8350 H   0  0  0  0  0  0  0  0  0  0  0  0
  134.1779   75.9142  224.1122 H   0  0  0  0  0  0  0  0  0  0  0  0
  134.2705   78.3003  223.3533 H   0  0  0  0  0  0  0  0  0  0  0  0
  136.3727   79.2148  222.3033 H   0  0  0  0  0  0  0  0  0  0  0  0
  1  2  2  0
  2  3  2  0
  2  4  1  0
  4  5  1  0
  5  6  2  0
  6  7  1  0
  7  8  2  0
  8  9  1  0
  9 10  2  0
  2 11  1  0
 11 12  1  0
 12 13  1  0
 13 14  2  0
 14 15  1  0
 15 16  2  0
 16 17  1  0
 17 18  2  0
 18 19  1  0
 19 20  2  0
 20 21  1  0
 21 22  1  0
 22 23  2  0
 23 24  1  0
 24 25  1  0
 25 26  2  0
 26 27  1  0
 27 28  2  0
 28 29  1  0
 29 30  2  0
 10  5  1  0
 21 11  1  0
 30 22  1  0
 20 15  1  0
 30 25  1  0
  4 31  1  0
  4 32  1  0
  6 33  1  0
  7 34  1  0
  8 35  1  0
  9 36  1  0
 10 37  1  0
 12 38  1  0
 12 39  1  0
 13 40  1  0
 14 41  1  0
 16 42  1  0
 17 43  1  0
 18 44  1  0
 19 45  1  0
 21 46  1  6
 23 47  1  0
 24 48  1  0
 26 49  1  0
 27 50  1  0
 28 51  1  0
 29 52  1  0
M  END
>  <UniqueID>  (75) 
5

>  <SMILES>  (75) 
O=S(=O)(Cc1ccccc1)N1CC=Cc2ccccc2[C@H]1c1c[nH]c2ccccc12

>  <Energy>  (75) 
111.50652046134222

>  <Genealogy>  (75) 
O=S(=O)(Cc1ccccc1)N1CC=Cc2ccccc2[C@H]1c1c[nH]c2ccccc12 (3D coordinates assigned)
O=S(=O)(Cc1ccccc1)N1CC=Cc2ccccc2[C@H]1c1c[nH]c2ccccc12 (nonaromatic ring conformer: 111.50652046134222 kcal/mol)

>  <smiles>  (75) 
O=S(=O)(Cc1ccccc1)N1CC=Cc2ccccc2[C@H]1c1c[nH]c2ccccc12

>  <score_type>  (75) 
oracle

>  <origin>  (75) 
autodockgpu

>  <m_score__min__energy>  (75) 
-6.2800000000000002

>  <m_primary>  (75) 
energy

>  <meeko>  (75) 
{"free_energy": -5.72, "intermolecular_energy": -8.4, "internal_energy": -2.39, "cluster_size": 5, "cluster_id": 2, "rank_in_cluster": 3}

>  <energy>  (75) 
-4.78

>  <cluster_rmsd>  (75) 
0.06

>  <rmsd>  (75) 
269.14

>  <cluster>  (75) 
5

$$$$
GKGZHBJKEIVYHI-VWLOTQADNA-N
     RDKit          3D

 52 56  0  0  0  0  0  0  0  0999 V2000
  139.9380   76.5400  218.3810 O   0  0  0  0  0  0  0  0  0  0  0  0
  139.5610   76.9590  219.7760 S   0  0  0  0  0  0  0  0  0  0  0  0
  138.5960   75.9470  220.3290 O   0  0  0  0  0  0  0  0  0  0  0  0
  138.7390   78.5480  219.6930 C   0  0  0  0  0  0  0  0  0  0  0  0
  138.6670   79.1700  221.0580 C   0  0  0  0  0  0  0  0  0  0  0  0
  138.9600   78.4070  222.2020 C   0  0  0  0  0  0  0  0  0  0  0  0
  138.9230   78.9960  223.4690 C   0  0  0  0  0  0  0  0  0  0  0  0
  138.6020   80.3500  223.6030 C   0  0  0  0  0  0  0  0  0  0  0  0
  138.3210   81.1170  222.4710 C   0  0  0  0  0  0  0  0  0  0  0  0
  138.3570   80.5320  221.2000 C   0  0  0  0  0  0  0  0  0  0  0  0
  141.0260   76.9980  220.7480 N   0  0  0  0  0  0  0  0  0  0  0  0
  141.4130   75.6760  221.2700 C   0  0  0  0  0  0  0  0  0  0  0  0
  142.5010   74.9170  220.5320 C   0  0  0  0  0  0  0  0  0  0  0  0
  143.0840   75.1550  219.3450 C   0  0  0  0  0  0  0  0  0  0  0  0
  142.8450   76.2690  218.3940 C   0  0  0  0  0  0  0  0  0  0  0  0
  143.1120   76.0210  217.0350 C   0  0  0  0  0  0  0  0  0  0  0  0
  142.8860   77.0020  216.0710 C   0  0  0  0  0  0  0  0  0  0  0  0
  142.3950   78.2470  216.4470 C   0  0  0  0  0  0  0  0  0  0  0  0
  142.1460   78.5240  217.7910 C   0  0  0  0  0  0  0  0  0  0  0  0
  142.3980   77.5520  218.7860 C   0  0  0  0  0  0  0  0  0  0  0  0
  142.1400   77.8260  220.2520 C   0  0  1  0  0  0  0  0  0  0  0  0
  141.9490   79.2850  220.6150 C   0  0  0  0  0  0  0  0  0  0  0  0
  141.4710   80.3180  219.8040 C   0  0  0  0  0  0  0  0  0  0  0  0
  141.3690   81.4670  220.5090 N   0  0  0  0  0  0  0  0  0  0  0  0
  141.7560   81.1730  221.7600 C   0  0  0  0  0  0  0  0  0  0  0  0
  141.7990   82.0340  222.8560 C   0  0  0  0  0  0  0  0  0  0  0  0
  142.2160   81.5070  224.0920 C   0  0  0  0  0  0  0  0  0  0  0  0
  142.5710   80.1450  224.2040 C   0  0  0  0  0  0  0  0  0  0  0  0
  142.5150   79.2980  223.0820 C   0  0  0  0  0  0  0  0  0  0  0  0
  142.1060   79.8520  221.8680 C   0  0  0  0  0  0  0  0  0  0  0  0
  139.3013   79.2127  219.0206 H   0  0  0  0  0  0  0  0  0  0  0  0
  137.7174   78.4027  219.3119 H   0  0  0  0  0  0  0  0  0  0  0  0
  139.2192   77.3429  222.0996 H   0  0  0  0  0  0  0  0  0  0  0  0
  139.1467   78.3935  224.3617 H   0  0  0  0  0  0  0  0  0  0  0  0
  138.5708   80.8113  224.6011 H   0  0  0  0  0  0  0  0  0  0  0  0
  138.0709   82.1828  222.5781 H   0  0  0  0  0  0  0  0  0  0  0  0
  138.1418   81.1411  220.3097 H   0  0  0  0  0  0  0  0  0  0  0  0
  141.7566   75.8192  222.3051 H   0  0  0  0  0  0  0  0  0  0  0  0
  140.5122   75.0558  221.1519 H   0  0  0  0  0  0  0  0  0  0  0  0
  142.8739   74.0244  221.0557 H   0  0  0  0  0  0  0  0  0  0  0  0
  143.8439   74.4225  219.0351 H   0  0  0  0  0  0  0  0  0  0  0  0
  143.5043   75.0399  216.7293 H   0  0  0  0  0  0  0  0  0  0  0  0
  143.0963   76.7909  215.0121 H   0  0  0  0  0  0  0  0  0  0  0  0
  142.2026   79.0149  215.6833 H   0  0  0  0  0  0  0  0  0  0  0  0
  141.7496   79.5086  218.0797 H   0  0  0  0  0  0  0  0  0  0  0  0
  143.0696   77.5386  220.7650 H   0  0  0  0  0  0  0  0  0  0  0  0
  141.2135   80.2110  218.7399 H   0  0  0  0  0  0  0  0  0  0  0  0
  141.0350   82.3910  220.1520 H   0  0  0  0  0  0  0  0  0  0  0  0
  141.5157   83.0923  222.7573 H   0  0  0  0  0  0  0  0  0  0  0  0
  142.2658   82.1597  224.9760 H   0  0  0  0  0  0  0  0  0  0  0  0
  142.8938   79.7431  225.1758 H   0  0  0  0  0  0  0  0  0  0  0  0
  142.7846   78.2343  223.1590 H   0  0  0  0  0  0  0  0  0  0  0  0
  1  2  2  0
  2  3  2  0
  2  4  1  0
  4  5  1  0
  5  6  2  0
  6  7  1  0
  7  8  2  0
  8  9  1  0
  9 10  2  0
  2 11  1  0
 11 12  1  0
 12 13  1  0
 13 14  2  0
 14 15  1  0
 15 16  2  0
 16 17  1  0
 17 18  2  0
 18 19  1  0
 19 20  2  0
 20 21  1  0
 21 22  1  0
 22 23  2  0
 23 24  1  0
 24 25  1  0
 25 26  2  0
 26 27  1  0
 27 28  2  0
 28 29  1  0
 29 30  2  0
 10  5  1  0
 21 11  1  0
 30 22  1  0
 20 15  1  0
 30 25  1  0
  4 31  1  0
  4 32  1  0
  6 33  1  0
  7 34  1  0
  8 35  1  0
  9 36  1  0
 10 37  1  0
 12 38  1  0
 12 39  1  0
 13 40  1  0
 14 41  1  0
 16 42  1  0
 17 43  1  0
 18 44  1  0
 19 45  1  0
 21 46  1  1
 23 47  1  0
 24 48  1  0
 26 49  1  0
 27 50  1  0
 28 51  1  0
 29 52  1  0
M  END
>  <UniqueID>  (76) 
5

>  <SMILES>  (76) 
O=S(=O)(Cc1ccccc1)N1CC=Cc2ccccc2[C@H]1c1c[nH]c2ccccc12

>  <Energy>  (76) 
111.50652046134222

>  <Genealogy>  (76) 
O=S(=O)(Cc1ccccc1)N1CC=Cc2ccccc2[C@H]1c1c[nH]c2ccccc12 (3D coordinates assigned)
O=S(=O)(Cc1ccccc1)N1CC=Cc2ccccc2[C@H]1c1c[nH]c2ccccc12 (nonaromatic ring conformer: 111.50652046134222 kcal/mol)

>  <smiles>  (76) 
O=S(=O)(Cc1ccccc1)N1CC=Cc2ccccc2[C@H]1c1c[nH]c2ccccc12

>  <score_type>  (76) 
oracle

>  <origin>  (76) 
autodockgpu

>  <m_score__min__energy>  (76) 
-6.2800000000000002

>  <m_primary>  (76) 
energy

>  <meeko>  (76) 
{"free_energy": -4.44, "intermolecular_energy": -7.12, "internal_energy": -2.86, "cluster_size": 1, "cluster_id": 8, "rank_in_cluster": 1}

>  <energy>  (76) 
-4.63

>  <cluster_rmsd>  (76) 
0.43

>  <rmsd>  (76) 
269.11

>  <cluster>  (76) 
5

$$$$
GKGZHBJKEIVYHI-VWLOTQADNA-N
     RDKit          3D

 52 56  0  0  0  0  0  0  0  0999 V2000
  138.8990   82.5040  221.9370 O   0  0  0  0  0  0  0  0  0  0  0  0
  139.3950   81.1300  221.5800 S   0  0  0  0  0  0  0  0  0  0  0  0
  138.9860   80.8330  220.1630 O   0  0  0  0  0  0  0  0  0  0  0  0
  138.6100   79.9390  222.6630 C   0  0  0  0  0  0  0  0  0  0  0  0
  137.6590   80.6310  223.5970 C   0  0  0  0  0  0  0  0  0  0  0  0
  136.3560   80.9500  223.1760 C   0  0  0  0  0  0  0  0  0  0  0  0
  135.4630   81.5650  224.0570 C   0  0  0  0  0  0  0  0  0  0  0  0
  135.8590   81.8590  225.3650 C   0  0  0  0  0  0  0  0  0  0  0  0
  137.1480   81.5350  225.7950 C   0  0  0  0  0  0  0  0  0  0  0  0
  138.0460   80.9190  224.9160 C   0  0  0  0  0  0  0  0  0  0  0  0
  141.1480   81.1300  221.7200 N   0  0  0  0  0  0  0  0  0  0  0  0
  141.6210   81.3550  223.0960 C   0  0  0  0  0  0  0  0  0  0  0  0
  141.9160   80.1340  223.9490 C   0  0  0  0  0  0  0  0  0  0  0  0
  141.8540   78.8230  223.6530 C   0  0  0  0  0  0  0  0  0  0  0  0
  141.2570   78.1640  222.4640 C   0  0  0  0  0  0  0  0  0  0  0  0
  140.6970   76.8870  222.6510 C   0  0  0  0  0  0  0  0  0  0  0  0
  140.0890   76.2110  221.5940 C   0  0  0  0  0  0  0  0  0  0  0  0
  140.0350   76.7950  220.3330 C   0  0  0  0  0  0  0  0  0  0  0  0
  140.6050   78.0490  220.1190 C   0  0  0  0  0  0  0  0  0  0  0  0
  141.2520   78.7370  221.1710 C   0  0  0  0  0  0  0  0  0  0  0  0
  141.8820   80.0970  220.9650 C   0  0  1  0  0  0  0  0  0  0  0  0
  142.0830   80.5080  219.5200 C   0  0  0  0  0  0  0  0  0  0  0  0
  142.5300   79.7200  218.4570 C   0  0  0  0  0  0  0  0  0  0  0  0
  142.5050   80.4220  217.3010 N   0  0  0  0  0  0  0  0  0  0  0  0
  142.0300   81.6380  217.6140 C   0  0  0  0  0  0  0  0  0  0  0  0
  141.8020   82.7050  216.7460 C   0  0  0  0  0  0  0  0  0  0  0  0
  141.2720   83.8910  217.2860 C   0  0  0  0  0  0  0  0  0  0  0  0
  140.9790   83.9800  218.6650 C   0  0  0  0  0  0  0  0  0  0  0  0
  141.2160   82.8860  219.5170 C   0  0  0  0  0  0  0  0  0  0  0  0
  141.7510   81.7260  218.9540 C   0  0  0  0  0  0  0  0  0  0  0  0
  138.0554   79.2076  222.0567 H   0  0  0  0  0  0  0  0  0  0  0  0
  139.3843   79.4285  223.2544 H   0  0  0  0  0  0  0  0  0  0  0  0
  136.0386   80.7145  222.1494 H   0  0  0  0  0  0  0  0  0  0  0  0
  134.4467   81.8183  223.7209 H   0  0  0  0  0  0  0  0  0  0  0  0
  135.1551   82.3458  226.0561 H   0  0  0  0  0  0  0  0  0  0  0  0
  137.4574   81.7643  226.8254 H   0  0  0  0  0  0  0  0  0  0  0  0
  139.0583   80.6595  225.2593 H   0  0  0  0  0  0  0  0  0  0  0  0
  142.5482   81.9434  223.0326 H   0  0  0  0  0  0  0  0  0  0  0  0
  140.7795   81.8510  223.6018 H   0  0  0  0  0  0  0  0  0  0  0  0
  142.2325   80.3582  224.9784 H   0  0  0  0  0  0  0  0  0  0  0  0
  142.3075   78.1471  224.3929 H   0  0  0  0  0  0  0  0  0  0  0  0
  140.7394   76.4158  223.6440 H   0  0  0  0  0  0  0  0  0  0  0  0
  139.6517   75.2150  221.7576 H   0  0  0  0  0  0  0  0  0  0  0  0
  139.5420   76.2668  219.5036 H   0  0  0  0  0  0  0  0  0  0  0  0
  140.5508   78.5082  219.1209 H   0  0  0  0  0  0  0  0  0  0  0  0
  142.9027   80.0022  221.3639 H   0  0  0  0  0  0  0  0  0  0  0  0
  142.8570   78.6736  218.5473 H   0  0  0  0  0  0  0  0  0  0  0  0
  142.7810   80.0760  216.3550 H   0  0  0  0  0  0  0  0  0  0  0  0
  142.0293   82.6221  215.6729 H   0  0  0  0  0  0  0  0  0  0  0  0
  141.0846   84.7542  216.6305 H   0  0  0  0  0  0  0  0  0  0  0  0
  140.5625   84.9116  219.0756 H   0  0  0  0  0  0  0  0  0  0  0  0
  140.9873   82.9427  220.5915 H   0  0  0  0  0  0  0  0  0  0  0  0
  1  2  2  0
  2  3  2  0
  2  4  1  0
  4  5  1  0
  5  6  2  0
  6  7  1  0
  7  8  2  0
  8  9  1  0
  9 10  2  0
  2 11  1  0
 11 12  1  0
 12 13  1  0
 13 14  2  0
 14 15  1  0
 15 16  2  0
 16 17  1  0
 17 18  2  0
 18 19  1  0
 19 20  2  0
 20 21  1  0
 21 22  1  0
 22 23  2  0
 23 24  1  0
 24 25  1  0
 25 26  2  0
 26 27  1  0
 27 28  2  0
 28 29  1  0
 29 30  2  0
 10  5  1  0
 21 11  1  0
 30 22  1  0
 20 15  1  0
 30 25  1  0
  4 31  1  0
  4 32  1  0
  6 33  1  0
  7 34  1  0
  8 35  1  0
  9 36  1  0
 10 37  1  0
 12 38  1  0
 12 39  1  0
 13 40  1  0
 14 41  1  0
 16 42  1  0
 17 43  1  0
 18 44  1  0
 19 45  1  0
 21 46  1  1
 23 47  1  0
 24 48  1  0
 26 49  1  0
 27 50  1  0
 28 51  1  0
 29 52  1  0
M  END
>  <UniqueID>  (77) 
5

>  <SMILES>  (77) 
O=S(=O)(Cc1ccccc1)N1CC=Cc2ccccc2[C@H]1c1c[nH]c2ccccc12

>  <Energy>  (77) 
111.50652046134222

>  <Genealogy>  (77) 
O=S(=O)(Cc1ccccc1)N1CC=Cc2ccccc2[C@H]1c1c[nH]c2ccccc12 (3D coordinates assigned)
O=S(=O)(Cc1ccccc1)N1CC=Cc2ccccc2[C@H]1c1c[nH]c2ccccc12 (nonaromatic ring conformer: 111.50652046134222 kcal/mol)

>  <smiles>  (77) 
O=S(=O)(Cc1ccccc1)N1CC=Cc2ccccc2[C@H]1c1c[nH]c2ccccc12

>  <score_type>  (77) 
oracle

>  <origin>  (77) 
autodockgpu

>  <m_score__min__energy>  (77) 
-6.2800000000000002

>  <m_primary>  (77) 
energy

>  <meeko>  (77) 
{"free_energy": -5.59, "intermolecular_energy": -8.27, "internal_energy": -2.46, "cluster_size": 3, "cluster_id": 3, "rank_in_cluster": 1}

>  <energy>  (77) 
-4.8

>  <cluster_rmsd>  (77) 
0.0

>  <rmsd>  (77) 
269.4

>  <cluster>  (77) 
6

$$$$
GKGZHBJKEIVYHI-VWLOTQADNA-N
     RDKit          3D

 52 56  0  0  0  0  0  0  0  0999 V2000
  138.7540   78.5460  222.9510 O   0  0  0  0  0  0  0  0  0  0  0  0
  138.3250   79.0750  221.6100 S   0  0  0  0  0  0  0  0  0  0  0  0
  138.3800   80.5770  221.6550 O   0  0  0  0  0  0  0  0  0  0  0  0
  136.6320   78.5730  221.3120 C   0  0  0  0  0  0  0  0  0  0  0  0
  136.4260   77.1490  221.7420 C   0  0  0  0  0  0  0  0  0  0  0  0
  136.4450   76.1110  220.7930 C   0  0  0  0  0  0  0  0  0  0  0  0
  136.2850   74.7840  221.2000 C   0  0  0  0  0  0  0  0  0  0  0  0
  136.1130   74.4820  222.5540 C   0  0  0  0  0  0  0  0  0  0  0  0
  136.1040   75.5060  223.5030 C   0  0  0  0  0  0  0  0  0  0  0  0
  136.2640   76.8360  223.1010 C   0  0  0  0  0  0  0  0  0  0  0  0
  139.4430   78.4610  220.3990 N   0  0  0  0  0  0  0  0  0  0  0  0
  139.5620   79.3360  219.2210 C   0  0  0  0  0  0  0  0  0  0  0  0
  140.7720   80.2510  219.1420 C   0  0  0  0  0  0  0  0  0  0  0  0
  141.6920   80.5750  220.0720 C   0  0  0  0  0  0  0  0  0  0  0  0
  141.8170   80.0810  221.4660 C   0  0  0  0  0  0  0  0  0  0  0  0
  142.4490   80.9290  222.3930 C   0  0  0  0  0  0  0  0  0  0  0  0
  142.5820   80.5550  223.7300 C   0  0  0  0  0  0  0  0  0  0  0  0
  142.0900   79.3280  224.1620 C   0  0  0  0  0  0  0  0  0  0  0  0
  141.4810   78.4610  223.2560 C   0  0  0  0  0  0  0  0  0  0  0  0
  141.3650   78.8100  221.8910 C   0  0  0  0  0  0  0  0  0  0  0  0
  140.7110   77.8860  220.8850 C   0  0  1  0  0  0  0  0  0  0  0  0
  140.5300   76.4530  221.3420 C   0  0  0  0  0  0  0  0  0  0  0  0
  139.4740   75.9130  222.0810 C   0  0  0  0  0  0  0  0  0  0  0  0
  139.6300   74.5780  222.2270 N   0  0  0  0  0  0  0  0  0  0  0  0
  140.7590   74.2610  221.5740 C   0  0  0  0  0  0  0  0  0  0  0  0
  141.3210   72.9930  221.4250 C   0  0  0  0  0  0  0  0  0  0  0  0
  142.5050   72.8830  220.6730 C   0  0  0  0  0  0  0  0  0  0  0  0
  143.0900   74.0280  220.0890 C   0  0  0  0  0  0  0  0  0  0  0  0
  142.4990   75.2940  220.2530 C   0  0  0  0  0  0  0  0  0  0  0  0
  141.3300   75.3730  221.0120 C   0  0  0  0  0  0  0  0  0  0  0  0
  135.9545   79.2256  221.8822 H   0  0  0  0  0  0  0  0  0  0  0  0
  136.4189   78.6557  220.2360 H   0  0  0  0  0  0  0  0  0  0  0  0
  136.5862   76.3446  219.7274 H   0  0  0  0  0  0  0  0  0  0  0  0
  136.2944   73.9758  220.4539 H   0  0  0  0  0  0  0  0  0  0  0  0
  135.9847   73.4368  222.8720 H   0  0  0  0  0  0  0  0  0  0  0  0
  135.9709   75.2664  224.5683 H   0  0  0  0  0  0  0  0  0  0  0  0
  136.2629   77.6396  223.8522 H   0  0  0  0  0  0  0  0  0  0  0  0
  139.5803   78.6891  218.3315 H   0  0  0  0  0  0  0  0  0  0  0  0
  138.7015   80.0175  219.2921 H   0  0  0  0  0  0  0  0  0  0  0  0
  140.9223   80.7287  218.1626 H   0  0  0  0  0  0  0  0  0  0  0  0
  142.4527   81.3037  219.7553 H   0  0  0  0  0  0  0  0  0  0  0  0
  142.8436   81.9000  222.0592 H   0  0  0  0  0  0  0  0  0  0  0  0
  143.0764   81.2309  224.4433 H   0  0  0  0  0  0  0  0  0  0  0  0
  142.1815   79.0413  225.2200 H   0  0  0  0  0  0  0  0  0  0  0  0
  141.0868   77.4958  223.6067 H   0  0  0  0  0  0  0  0  0  0  0  0
  141.4269   77.8152  220.0529 H   0  0  0  0  0  0  0  0  0  0  0  0
  138.6327   76.4935  222.4875 H   0  0  0  0  0  0  0  0  0  0  0  0
  138.9870   73.9260  222.7300 H   0  0  0  0  0  0  0  0  0  0  0  0
  140.8536   72.1077  221.8807 H   0  0  0  0  0  0  0  0  0  0  0  0
  142.9780   71.8990  220.5391 H   0  0  0  0  0  0  0  0  0  0  0  0
  144.0147   73.9292  219.5015 H   0  0  0  0  0  0  0  0  0  0  0  0
  142.9432   76.1918  219.7983 H   0  0  0  0  0  0  0  0  0  0  0  0
  1  2  2  0
  2  3  2  0
  2  4  1  0
  4  5  1  0
  5  6  2  0
  6  7  1  0
  7  8  2  0
  8  9  1  0
  9 10  2  0
  2 11  1  0
 11 12  1  0
 12 13  1  0
 13 14  2  0
 14 15  1  0
 15 16  2  0
 16 17  1  0
 17 18  2  0
 18 19  1  0
 19 20  2  0
 20 21  1  0
 21 22  1  0
 22 23  2  0
 23 24  1  0
 24 25  1  0
 25 26  2  0
 26 27  1  0
 27 28  2  0
 28 29  1  0
 29 30  2  0
 10  5  1  0
 21 11  1  0
 30 22  1  0
 20 15  1  0
 30 25  1  0
  4 31  1  0
  4 32  1  0
  6 33  1  0
  7 34  1  0
  8 35  1  0
  9 36  1  0
 10 37  1  0
 12 38  1  0
 12 39  1  0
 13 40  1  0
 14 41  1  0
 16 42  1  0
 17 43  1  0
 18 44  1  0
 19 45  1  0
 21 46  1  6
 23 47  1  0
 24 48  1  0
 26 49  1  0
 27 50  1  0
 28 51  1  0
 29 52  1  0
M  END
>  <UniqueID>  (78) 
5

>  <SMILES>  (78) 
O=S(=O)(Cc1ccccc1)N1CC=Cc2ccccc2[C@H]1c1c[nH]c2ccccc12

>  <Energy>  (78) 
111.50652046134222

>  <Genealogy>  (78) 
O=S(=O)(Cc1ccccc1)N1CC=Cc2ccccc2[C@H]1c1c[nH]c2ccccc12 (3D coordinates assigned)
O=S(=O)(Cc1ccccc1)N1CC=Cc2ccccc2[C@H]1c1c[nH]c2ccccc12 (nonaromatic ring conformer: 111.50652046134222 kcal/mol)

>  <smiles>  (78) 
O=S(=O)(Cc1ccccc1)N1CC=Cc2ccccc2[C@H]1c1c[nH]c2ccccc12

>  <score_type>  (78) 
oracle

>  <origin>  (78) 
autodockgpu

>  <m_score__min__energy>  (78) 
-6.2800000000000002

>  <m_primary>  (78) 
energy

>  <meeko>  (78) 
{"free_energy": -4.8, "intermolecular_energy": -7.49, "internal_energy": -2.7, "cluster_size": 1, "cluster_id": 6, "rank_in_cluster": 1}

>  <energy>  (78) 
-4.79

>  <cluster_rmsd>  (78) 
0.0

>  <rmsd>  (78) 
269.99

>  <cluster>  (78) 
7

$$$$
GKGZHBJKEIVYHI-VWLOTQADNA-N
     RDKit          3D

 52 56  0  0  0  0  0  0  0  0999 V2000
  141.0420   74.6860  222.1540 O   0  0  0  0  0  0  0  0  0  0  0  0
  140.4430   75.1450  220.8530 S   0  0  0  0  0  0  0  0  0  0  0  0
  139.0460   74.5960  220.7560 O   0  0  0  0  0  0  0  0  0  0  0  0
  141.4160   74.4750  219.5070 C   0  0  0  0  0  0  0  0  0  0  0  0
  142.7590   74.0250  220.0070 C   0  0  0  0  0  0  0  0  0  0  0  0
  142.9660   72.6860  220.3800 C   0  0  0  0  0  0  0  0  0  0  0  0
  144.2250   72.2630  220.8160 C   0  0  0  0  0  0  0  0  0  0  0  0
  145.2870   73.1710  220.8750 C   0  0  0  0  0  0  0  0  0  0  0  0
  145.0920   74.5010  220.4950 C   0  0  0  0  0  0  0  0  0  0  0  0
  143.8340   74.9280  220.0590 C   0  0  0  0  0  0  0  0  0  0  0  0
  140.4060   76.9030  220.8600 N   0  0  0  0  0  0  0  0  0  0  0  0
  139.6990   77.4750  219.7020 C   0  0  0  0  0  0  0  0  0  0  0  0
  139.5730   78.9870  219.6270 C   0  0  0  0  0  0  0  0  0  0  0  0
  140.1410   79.9510  220.3730 C   0  0  0  0  0  0  0  0  0  0  0  0
  141.0790   79.8190  221.5160 C   0  0  0  0  0  0  0  0  0  0  0  0
  142.0000   80.8630  221.7150 C   0  0  0  0  0  0  0  0  0  0  0  0
  142.8960   80.8350  222.7820 C   0  0  0  0  0  0  0  0  0  0  0  0
  142.8900   79.7620  223.6670 C   0  0  0  0  0  0  0  0  0  0  0  0
  142.0020   78.7040  223.4760 C   0  0  0  0  0  0  0  0  0  0  0  0
  141.1070   78.7010  222.3820 C   0  0  0  0  0  0  0  0  0  0  0  0
  140.1350   77.5650  222.1490 C   0  0  1  0  0  0  0  0  0  0  0  0
  138.6700   77.9250  222.2880 C   0  0  0  0  0  0  0  0  0  0  0  0
  137.5670   77.2700  221.7350 C   0  0  0  0  0  0  0  0  0  0  0  0
  136.4150   77.8450  222.1480 N   0  0  0  0  0  0  0  0  0  0  0  0
  136.7720   78.8440  222.9720 C   0  0  0  0  0  0  0  0  0  0  0  0
  135.9270   79.7110  223.6640 C   0  0  0  0  0  0  0  0  0  0  0  0
  136.5170   80.6760  224.5000 C   0  0  0  0  0  0  0  0  0  0  0  0
  137.9210   80.7490  224.6280 C   0  0  0  0  0  0  0  0  0  0  0  0
  138.7490   79.8590  223.9200 C   0  0  0  0  0  0  0  0  0  0  0  0
  138.1360   78.9170  223.0920 C   0  0  0  0  0  0  0  0  0  0  0  0
  140.8860   73.6166  219.0685 H   0  0  0  0  0  0  0  0  0  0  0  0
  141.5612   75.2570  218.7471 H   0  0  0  0  0  0  0  0  0  0  0  0
  142.1342   71.9681  220.3287 H   0  0  0  0  0  0  0  0  0  0  0  0
  144.3805   71.2153  221.1128 H   0  0  0  0  0  0  0  0  0  0  0  0
  146.2766   72.8376  221.2209 H   0  0  0  0  0  0  0  0  0  0  0  0
  145.9291   75.2132  220.5388 H   0  0  0  0  0  0  0  0  0  0  0  0
  143.6855   75.9748  219.7556 H   0  0  0  0  0  0  0  0  0  0  0  0
  140.2299   77.1444  218.7971 H   0  0  0  0  0  0  0  0  0  0  0  0
  138.6645   77.1148  219.8026 H   0  0  0  0  0  0  0  0  0  0  0  0
  138.9076   79.3537  218.8315 H   0  0  0  0  0  0  0  0  0  0  0  0
  139.8730   80.9817  220.0977 H   0  0  0  0  0  0  0  0  0  0  0  0
  142.0133   81.7141  221.0183 H   0  0  0  0  0  0  0  0  0  0  0  0
  143.6079   81.6614  222.9243 H   0  0  0  0  0  0  0  0  0  0  0  0
  143.5864   79.7480  224.5184 H   0  0  0  0  0  0  0  0  0  0  0  0
  141.9980   77.8625  224.1844 H   0  0  0  0  0  0  0  0  0  0  0  0
  140.3193   76.8589  222.9721 H   0  0  0  0  0  0  0  0  0  0  0  0
  137.6273   76.4058  221.0572 H   0  0  0  0  0  0  0  0  0  0  0  0
  135.4450   77.5550  221.8920 H   0  0  0  0  0  0  0  0  0  0  0  0
  134.8341   79.6424  223.5594 H   0  0  0  0  0  0  0  0  0  0  0  0
  135.8802   81.3785  225.0578 H   0  0  0  0  0  0  0  0  0  0  0  0
  138.3707   81.5072  225.2860 H   0  0  0  0  0  0  0  0  0  0  0  0
  139.8439   79.9039  224.0157 H   0  0  0  0  0  0  0  0  0  0  0  0
  1  2  2  0
  2  3  2  0
  2  4  1  0
  4  5  1  0
  5  6  2  0
  6  7  1  0
  7  8  2  0
  8  9  1  0
  9 10  2  0
  2 11  1  0
 11 12  1  0
 12 13  1  0
 13 14  2  0
 14 15  1  0
 15 16  2  0
 16 17  1  0
 17 18  2  0
 18 19  1  0
 19 20  2  0
 20 21  1  0
 21 22  1  0
 22 23  2  0
 23 24  1  0
 24 25  1  0
 25 26  2  0
 26 27  1  0
 27 28  2  0
 28 29  1  0
 29 30  2  0
 10  5  1  0
 21 11  1  0
 30 22  1  0
 20 15  1  0
 30 25  1  0
  4 31  1  0
  4 32  1  0
  6 33  1  0
  7 34  1  0
  8 35  1  0
  9 36  1  0
 10 37  1  0
 12 38  1  0
 12 39  1  0
 13 40  1  0
 14 41  1  0
 16 42  1  0
 17 43  1  0
 18 44  1  0
 19 45  1  0
 21 46  1  1
 23 47  1  0
 24 48  1  0
 26 49  1  0
 27 50  1  0
 28 51  1  0
 29 52  1  0
M  END
>  <UniqueID>  (79) 
5

>  <SMILES>  (79) 
O=S(=O)(Cc1ccccc1)N1CC=Cc2ccccc2[C@H]1c1c[nH]c2ccccc12

>  <Energy>  (79) 
111.50652046134222

>  <Genealogy>  (79) 
O=S(=O)(Cc1ccccc1)N1CC=Cc2ccccc2[C@H]1c1c[nH]c2ccccc12 (3D coordinates assigned)
O=S(=O)(Cc1ccccc1)N1CC=Cc2ccccc2[C@H]1c1c[nH]c2ccccc12 (nonaromatic ring conformer: 111.50652046134222 kcal/mol)

>  <smiles>  (79) 
O=S(=O)(Cc1ccccc1)N1CC=Cc2ccccc2[C@H]1c1c[nH]c2ccccc12

>  <score_type>  (79) 
oracle

>  <origin>  (79) 
autodockgpu

>  <m_score__min__energy>  (79) 
-6.2800000000000002

>  <m_primary>  (79) 
energy

>  <meeko>  (79) 
{"free_energy": -5.87, "intermolecular_energy": -8.55, "internal_energy": -1.87, "cluster_size": 2, "cluster_id": 1, "rank_in_cluster": 2}

>  <energy>  (79) 
-4.44

>  <cluster_rmsd>  (79) 
0.0

>  <rmsd>  (79) 
269.59

>  <cluster>  (79) 
8

$$$$
GKGZHBJKEIVYHI-VWLOTQADNA-N
     RDKit          3D

 52 56  0  0  0  0  0  0  0  0999 V2000
  138.6040   77.5890  222.6510 O   0  0  0  0  0  0  0  0  0  0  0  0
  139.7700   76.8040  222.1170 S   0  0  0  0  0  0  0  0  0  0  0  0
  139.4880   75.3410  222.3200 O   0  0  0  0  0  0  0  0  0  0  0  0
  141.2320   77.2400  223.0550 C   0  0  0  0  0  0  0  0  0  0  0  0
  141.3810   78.7330  223.1240 C   0  0  0  0  0  0  0  0  0  0  0  0
  140.3660   79.5230  223.6910 C   0  0  0  0  0  0  0  0  0  0  0  0
  140.5210   80.9090  223.7820 C   0  0  0  0  0  0  0  0  0  0  0  0
  141.6910   81.5150  223.3160 C   0  0  0  0  0  0  0  0  0  0  0  0
  142.7100   80.7360  222.7620 C   0  0  0  0  0  0  0  0  0  0  0  0
  142.5590   79.3480  222.6680 C   0  0  0  0  0  0  0  0  0  0  0  0
  139.9270   77.1600  220.4020 N   0  0  0  0  0  0  0  0  0  0  0  0
  138.6580   77.5580  219.7720 C   0  0  0  0  0  0  0  0  0  0  0  0
  138.6940   77.9690  218.3100 C   0  0  0  0  0  0  0  0  0  0  0  0
  139.6610   77.8340  217.3850 C   0  0  0  0  0  0  0  0  0  0  0  0
  141.0330   77.2890  217.5440 C   0  0  0  0  0  0  0  0  0  0  0  0
  141.6200   76.6870  216.4170 C   0  0  0  0  0  0  0  0  0  0  0  0
  142.9160   76.1760  216.4710 C   0  0  0  0  0  0  0  0  0  0  0  0
  143.6450   76.2530  217.6520 C   0  0  0  0  0  0  0  0  0  0  0  0
  143.0750   76.8230  218.7900 C   0  0  0  0  0  0  0  0  0  0  0  0
  141.7510   77.3180  218.7620 C   0  0  0  0  0  0  0  0  0  0  0  0
  141.1070   77.9390  219.9830 C   0  0  1  0  0  0  0  0  0  0  0  0
  140.7820   79.4150  219.8660 C   0  0  0  0  0  0  0  0  0  0  0  0
  139.8440   80.1490  220.5960 C   0  0  0  0  0  0  0  0  0  0  0  0
  139.8970   81.4580  220.2590 N   0  0  0  0  0  0  0  0  0  0  0  0
  140.8710   81.5660  219.3400 C   0  0  0  0  0  0  0  0  0  0  0  0
  141.3110   82.7290  218.7100 C   0  0  0  0  0  0  0  0  0  0  0  0
  142.3700   82.6180  217.7900 C   0  0  0  0  0  0  0  0  0  0  0  0
  142.9610   81.3630  217.5280 C   0  0  0  0  0  0  0  0  0  0  0  0
  142.4980   80.2060  218.1810 C   0  0  0  0  0  0  0  0  0  0  0  0
  141.4400   80.3460  219.0820 C   0  0  0  0  0  0  0  0  0  0  0  0
  141.1427   76.8367  224.0745 H   0  0  0  0  0  0  0  0  0  0  0  0
  142.1162   76.8147  222.5577 H   0  0  0  0  0  0  0  0  0  0  0  0
  139.4464   79.0487  224.0644 H   0  0  0  0  0  0  0  0  0  0  0  0
  139.7212   81.5236  224.2209 H   0  0  0  0  0  0  0  0  0  0  0  0
  141.8097   82.6064  223.3855 H   0  0  0  0  0  0  0  0  0  0  0  0
  143.6319   81.2142  222.3994 H   0  0  0  0  0  0  0  0  0  0  0  0
  143.3649   78.7367  222.2359 H   0  0  0  0  0  0  0  0  0  0  0  0
  137.9676   76.7058  219.8568 H   0  0  0  0  0  0  0  0  0  0  0  0
  138.3543   78.4685  220.3094 H   0  0  0  0  0  0  0  0  0  0  0  0
  137.7775   78.4579  217.9480 H   0  0  0  0  0  0  0  0  0  0  0  0
  139.3997   78.1739  216.3720 H   0  0  0  0  0  0  0  0  0  0  0  0
  141.0486   76.6183  215.4796 H   0  0  0  0  0  0  0  0  0  0  0  0
  143.3617   75.7118  215.5789 H   0  0  0  0  0  0  0  0  0  0  0  0
  144.6732   75.8637  217.6890 H   0  0  0  0  0  0  0  0  0  0  0  0
  143.6613   76.8881  219.7185 H   0  0  0  0  0  0  0  0  0  0  0  0
  141.8772   77.8930  220.7671 H   0  0  0  0  0  0  0  0  0  0  0  0
  139.1574   79.7217  221.3416 H   0  0  0  0  0  0  0  0  0  0  0  0
  139.3130   82.2280  220.6530 H   0  0  0  0  0  0  0  0  0  0  0  0
  140.8454   83.7021  218.9251 H   0  0  0  0  0  0  0  0  0  0  0  0
  142.7397   83.5150  217.2716 H   0  0  0  0  0  0  0  0  0  0  0  0
  143.7895   81.2892  216.8081 H   0  0  0  0  0  0  0  0  0  0  0  0
  142.9541   79.2237  217.9883 H   0  0  0  0  0  0  0  0  0  0  0  0
  1  2  2  0
  2  3  2  0
  2  4  1  0
  4  5  1  0
  5  6  2  0
  6  7  1  0
  7  8  2  0
  8  9  1  0
  9 10  2  0
  2 11  1  0
 11 12  1  0
 12 13  1  0
 13 14  2  0
 14 15  1  0
 15 16  2  0
 16 17  1  0
 17 18  2  0
 18 19  1  0
 19 20  2  0
 20 21  1  0
 21 22  1  0
 22 23  2  0
 23 24  1  0
 24 25  1  0
 25 26  2  0
 26 27  1  0
 27 28  2  0
 28 29  1  0
 29 30  2  0
 10  5  1  0
 21 11  1  0
 30 22  1  0
 20 15  1  0
 30 25  1  0
  4 31  1  0
  4 32  1  0
  6 33  1  0
  7 34  1  0
  8 35  1  0
  9 36  1  0
 10 37  1  0
 12 38  1  0
 12 39  1  0
 13 40  1  0
 14 41  1  0
 16 42  1  0
 17 43  1  0
 18 44  1  0
 19 45  1  0
 21 46  1  1
 23 47  1  0
 24 48  1  0
 26 49  1  0
 27 50  1  0
 28 51  1  0
 29 52  1  0
M  END
>  <UniqueID>  (80) 
5

>  <SMILES>  (80) 
O=S(=O)(Cc1ccccc1)N1CC=Cc2ccccc2[C@H]1c1c[nH]c2ccccc12

>  <Energy>  (80) 
111.50652046134222

>  <Genealogy>  (80) 
O=S(=O)(Cc1ccccc1)N1CC=Cc2ccccc2[C@H]1c1c[nH]c2ccccc12 (3D coordinates assigned)
O=S(=O)(Cc1ccccc1)N1CC=Cc2ccccc2[C@H]1c1c[nH]c2ccccc12 (nonaromatic ring conformer: 111.50652046134222 kcal/mol)

>  <smiles>  (80) 
O=S(=O)(Cc1ccccc1)N1CC=Cc2ccccc2[C@H]1c1c[nH]c2ccccc12

>  <score_type>  (80) 
oracle

>  <origin>  (80) 
autodockgpu

>  <m_score__min__energy>  (80) 
-6.2800000000000002

>  <m_primary>  (80) 
energy

>  <meeko>  (80) 
{"free_energy": -4.84, "intermolecular_energy": -7.53, "internal_energy": -2.72, "cluster_size": 4, "cluster_id": 5, "rank_in_cluster": 1}

>  <energy>  (80) 
-4.21

>  <cluster_rmsd>  (80) 
0.0

>  <rmsd>  (80) 
269.92

>  <cluster>  (80) 
9

$$$$
