
     RDKit          3D

 49 52  0  0  0  0  0  0  0  0999 V2000
  140.7230   71.4570  221.3020 O   0  0  0  0  0  0  0  0  0  0  0  0
  140.3030   72.0680  222.3200 C   0  0  0  0  0  0  0  0  0  0  0  0
  139.8930   73.4410  222.2860 N   0  0  0  0  0  0  0  0  0  0  0  0
  139.9660   74.1300  221.0460 C   0  0  0  0  0  0  0  0  0  0  0  0
  140.8110   75.3220  221.0210 C   0  0  0  0  0  0  0  0  0  0  0  0
  141.0250   75.8430  222.1840 O   0  0  0  0  0  0  0  0  0  0  0  0
  141.4140   75.9810  219.9450 N   0  0  0  0  0  0  0  0  0  0  0  0
  141.1600   77.3200  219.3720 C   0  0  0  0  0  0  0  0  0  0  0  0
  142.5820   77.8030  218.9680 C   0  0  2  0  0  0  0  0  0  0  0  0
  142.5550   78.0530  217.5980 O   0  0  0  0  0  0  0  0  0  0  0  0
  143.4850   76.5890  219.2720 C   0  0  0  0  0  0  0  0  0  0  0  0
  142.4900   75.4980  219.0550 C   0  0  1  0  0  0  0  0  0  0  0  0
  142.9200   74.1420  219.2330 C   0  0  0  0  0  0  0  0  0  0  0  0
  142.3200   73.1350  218.4700 C   0  0  0  0  0  0  0  0  0  0  0  0
  142.6560   71.8090  218.6090 C   0  0  0  0  0  0  0  0  0  0  0  0
  143.6100   71.4120  219.5190 C   0  0  0  0  0  0  0  0  0  0  0  0
  144.0760   69.7400  219.7390 Cl  0  0  0  0  0  0  0  0  0  0  0  0
  144.2060   72.3930  220.2750 C   0  0  0  0  0  0  0  0  0  0  0  0
  143.8680   73.7180  220.1340 C   0  0  0  0  0  0  0  0  0  0  0  0
  140.2200   71.3710  223.6000 C   0  0  0  0  0  0  0  0  0  0  0  0
  139.6380   70.1080  223.6620 C   0  0  0  0  0  0  0  0  0  0  0  0
  139.5320   69.4060  224.8370 C   0  0  0  0  0  0  0  0  0  0  0  0
  140.0120   69.9490  226.0070 C   0  0  0  0  0  0  0  0  0  0  0  0
  139.9120   69.2540  227.1930 C   0  0  0  0  0  0  0  0  0  0  0  0
  140.3970   69.8180  228.3370 C   0  0  0  0  0  0  0  0  0  0  0  0
  140.9670   71.0560  228.2810 C   0  0  0  0  0  0  0  0  0  0  0  0
  141.0770   71.7720  227.0950 C   0  0  0  0  0  0  0  0  0  0  0  0
  140.5910   71.2120  225.9280 C   0  0  0  0  0  0  0  0  0  0  0  0
  140.6780   71.8770  224.7510 N   0  0  0  0  0  0  0  0  0  0  0  0
  139.5460   73.9310  223.1590 H   0  0  0  0  0  0  0  0  0  0  0  0
  140.3538   73.4275  220.2936 H   0  0  0  0  0  0  0  0  0  0  0  0
  138.9451   74.4876  220.8465 H   0  0  0  0  0  0  0  0  0  0  0  0
  140.5001   77.2558  218.4943 H   0  0  0  0  0  0  0  0  0  0  0  0
  140.6529   78.0015  220.0708 H   0  0  0  0  0  0  0  0  0  0  0  0
  142.9262   78.7091  219.4881 H   0  0  0  0  0  0  0  0  0  0  0  0
  143.2990   78.6470  217.3300 H   0  0  0  0  0  0  0  0  0  0  0  0
  144.3320   76.5197  218.5736 H   0  0  0  0  0  0  0  0  0  0  0  0
  143.9714   76.5964  220.2586 H   0  0  0  0  0  0  0  0  0  0  0  0
  142.2021   75.3627  218.0020 H   0  0  0  0  0  0  0  0  0  0  0  0
  141.5525   73.4136  217.7329 H   0  0  0  0  0  0  0  0  0  0  0  0
  142.1555   71.0545  217.9843 H   0  0  0  0  0  0  0  0  0  0  0  0
  144.9728   72.1107  221.0114 H   0  0  0  0  0  0  0  0  0  0  0  0
  144.3735   74.4649  220.7638 H   0  0  0  0  0  0  0  0  0  0  0  0
  139.2494   69.6567  222.7372 H   0  0  0  0  0  0  0  0  0  0  0  0
  139.0639   68.4106  224.8434 H   0  0  0  0  0  0  0  0  0  0  0  0
  139.4471   68.2573  227.2170 H   0  0  0  0  0  0  0  0  0  0  0  0
  140.3290   69.2801  229.2941 H   0  0  0  0  0  0  0  0  0  0  0  0
  141.3536   71.5039  229.2083 H   0  0  0  0  0  0  0  0  0  0  0  0
  141.5432   72.7683  227.0849 H   0  0  0  0  0  0  0  0  0  0  0  0
  1  2  2  0
  2  3  1  0
  3  4  1  0
  4  5  1  0
  5  6  2  0
  5  7  1  0
  7  8  1  0
  8  9  1  0
  9 10  1  0
  9 11  1  0
 11 12  1  0
 12 13  1  0
 13 14  2  0
 14 15  1  0
 15 16  2  0
 16 17  1  0
 16 18  1  0
 18 19  2  0
  2 20  1  0
 20 21  2  0
 21 22  1  0
 22 23  2  0
 23 24  1  0
 24 25  2  0
 25 26  1  0
 26 27  2  0
 27 28  1  0
 28 29  2  0
 12  7  1  0
 19 13  1  0
 29 20  1  0
 28 23  1  0
  3 30  1  0
  4 31  1  0
  4 32  1  0
  8 33  1  0
  8 34  1  0
  9 35  1  1
 10 36  1  0
 11 37  1  0
 11 38  1  0
 12 39  1  6
 14 40  1  0
 15 41  1  0
 18 42  1  0
 19 43  1  0
 21 44  1  0
 22 45  1  0
 24 46  1  0
 25 47  1  0
 26 48  1  0
 27 49  1  0
M  END
>  <smiles>  (1) 
O=C(NCC(=O)N1C[C@H](O)C[C@H]1c1ccc(Cl)cc1)c1ccc2ccccc2n1

>  <score_type>  (1) 
oracle

>  <origin>  (1) 
autodockgpu

>  <m_score__min__energy>  (1) 
-9.1999999999999993

>  <m_primary>  (1) 
energy

>  <meeko>  (1) 
{"free_energy": -7.89, "intermolecular_energy": -9.68, "internal_energy": -2.03, "cluster_size": 2, "cluster_id": 3, "rank_in_cluster": 1}

>  <energy>  (1) 
-9.2

>  <cluster_rmsd>  (1) 
0.0

>  <rmsd>  (1) 
271.93

>  <cluster>  (1) 
1

$$$$

     RDKit          3D

 49 52  0  0  0  0  0  0  0  0999 V2000
  138.8640   75.1790  221.8690 O   0  0  0  0  0  0  0  0  0  0  0  0
  140.0250   75.6440  222.0060 C   0  0  0  0  0  0  0  0  0  0  0  0
  141.2040   74.8440  221.8490 N   0  0  0  0  0  0  0  0  0  0  0  0
  141.0420   73.4710  221.5220 C   0  0  0  0  0  0  0  0  0  0  0  0
  141.8210   72.9840  220.3850 C   0  0  0  0  0  0  0  0  0  0  0  0
  141.1680   72.2000  219.5930 O   0  0  0  0  0  0  0  0  0  0  0  0
  143.1510   73.2320  220.0280 N   0  0  0  0  0  0  0  0  0  0  0  0
  144.3560   72.3850  220.1580 C   0  0  0  0  0  0  0  0  0  0  0  0
  145.1580   72.7190  218.8680 C   0  0  2  0  0  0  0  0  0  0  0  0
  146.3960   73.2120  219.2750 O   0  0  0  0  0  0  0  0  0  0  0  0
  144.3330   73.8370  218.1980 C   0  0  0  0  0  0  0  0  0  0  0  0
  143.7310   74.4470  219.4210 C   0  0  1  0  0  0  0  0  0  0  0  0
  142.8560   75.5720  219.2580 C   0  0  0  0  0  0  0  0  0  0  0  0
  141.7110   75.4310  218.4680 C   0  0  0  0  0  0  0  0  0  0  0  0
  140.8430   76.4720  218.2390 C   0  0  0  0  0  0  0  0  0  0  0  0
  141.0710   77.7160  218.7850 C   0  0  0  0  0  0  0  0  0  0  0  0
  140.0020   79.0770  218.5250 Cl  0  0  0  0  0  0  0  0  0  0  0  0
  142.1940   77.8670  219.5620 C   0  0  0  0  0  0  0  0  0  0  0  0
  143.0600   76.8230  219.7900 C   0  0  0  0  0  0  0  0  0  0  0  0
  140.2070   77.0540  222.3380 C   0  0  0  0  0  0  0  0  0  0  0  0
  139.0970   77.8880  222.4390 C   0  0  0  0  0  0  0  0  0  0  0  0
  139.2070   79.2210  222.7480 C   0  0  0  0  0  0  0  0  0  0  0  0
  140.4470   79.7740  222.9700 C   0  0  0  0  0  0  0  0  0  0  0  0
  140.5710   81.1110  223.2820 C   0  0  0  0  0  0  0  0  0  0  0  0
  141.8140   81.6310  223.4970 C   0  0  0  0  0  0  0  0  0  0  0  0
  142.9040   80.8170  223.3990 C   0  0  0  0  0  0  0  0  0  0  0  0
  142.8000   79.4680  223.0860 C   0  0  0  0  0  0  0  0  0  0  0  0
  141.5470   78.9270  222.8660 C   0  0  0  0  0  0  0  0  0  0  0  0
  141.4010   77.6150  222.5590 N   0  0  0  0  0  0  0  0  0  0  0  0
  142.1710   75.2610  221.9720 H   0  0  0  0  0  0  0  0  0  0  0  0
  141.3289   72.8795  222.4039 H   0  0  0  0  0  0  0  0  0  0  0  0
  139.9881   73.3601  221.2270 H   0  0  0  0  0  0  0  0  0  0  0  0
  144.9291   72.6482  221.0593 H   0  0  0  0  0  0  0  0  0  0  0  0
  144.1249   71.3144  220.2602 H   0  0  0  0  0  0  0  0  0  0  0  0
  145.3177   71.8673  218.1904 H   0  0  0  0  0  0  0  0  0  0  0  0
  146.3820   74.1990  219.3420 H   0  0  0  0  0  0  0  0  0  0  0  0
  144.9696   74.5491  217.6524 H   0  0  0  0  0  0  0  0  0  0  0  0
  143.6159   73.5029  217.4337 H   0  0  0  0  0  0  0  0  0  0  0  0
  144.4544   74.9862  220.0503 H   0  0  0  0  0  0  0  0  0  0  0  0
  141.4972   74.4523  218.0136 H   0  0  0  0  0  0  0  0  0  0  0  0
  139.9544   76.3095  217.6113 H   0  0  0  0  0  0  0  0  0  0  0  0
  142.4059   78.8476  220.0131 H   0  0  0  0  0  0  0  0  0  0  0  0
  143.9457   76.9949  220.4193 H   0  0  0  0  0  0  0  0  0  0  0  0
  138.0969   77.4641  222.2651 H   0  0  0  0  0  0  0  0  0  0  0  0
  138.3047   79.8463  222.8180 H   0  0  0  0  0  0  0  0  0  0  0  0
  139.6791   81.7505  223.3567 H   0  0  0  0  0  0  0  0  0  0  0  0
  141.9357   82.6953  223.7467 H   0  0  0  0  0  0  0  0  0  0  0  0
  143.9021   81.2448  223.5743 H   0  0  0  0  0  0  0  0  0  0  0  0
  143.7003   78.8400  223.0143 H   0  0  0  0  0  0  0  0  0  0  0  0
  1  2  2  0
  2  3  1  0
  3  4  1  0
  4  5  1  0
  5  6  2  0
  5  7  1  0
  7  8  1  0
  8  9  1  0
  9 10  1  0
  9 11  1  0
 11 12  1  0
 12 13  1  0
 13 14  2  0
 14 15  1  0
 15 16  2  0
 16 17  1  0
 16 18  1  0
 18 19  2  0
  2 20  1  0
 20 21  2  0
 21 22  1  0
 22 23  2  0
 23 24  1  0
 24 25  2  0
 25 26  1  0
 26 27  2  0
 27 28  1  0
 28 29  2  0
 12  7  1  0
 19 13  1  0
 29 20  1  0
 28 23  1  0
  3 30  1  0
  4 31  1  0
  4 32  1  0
  8 33  1  0
  8 34  1  0
  9 35  1  6
 10 36  1  0
 11 37  1  0
 11 38  1  0
 12 39  1  1
 14 40  1  0
 15 41  1  0
 18 42  1  0
 19 43  1  0
 21 44  1  0
 22 45  1  0
 24 46  1  0
 25 47  1  0
 26 48  1  0
 27 49  1  0
M  END
>  <smiles>  (2) 
O=C(NCC(=O)N1C[C@H](O)C[C@H]1c1ccc(Cl)cc1)c1ccc2ccccc2n1

>  <score_type>  (2) 
oracle

>  <origin>  (2) 
autodockgpu

>  <m_score__min__energy>  (2) 
-9.1999999999999993

>  <m_primary>  (2) 
energy

>  <meeko>  (2) 
{"free_energy": -7.53, "intermolecular_energy": -9.32, "internal_energy": -2.8, "cluster_size": 8, "cluster_id": 4, "rank_in_cluster": 7}

>  <energy>  (2) 
-9.15

>  <cluster_rmsd>  (2) 
0.09

>  <rmsd>  (2) 
271.93

>  <cluster>  (2) 
1

$$$$

     RDKit          3D

 49 52  0  0  0  0  0  0  0  0999 V2000
  140.3540   71.0330  221.4300 O   0  0  0  0  0  0  0  0  0  0  0  0
  140.0770   71.5760  222.5310 C   0  0  0  0  0  0  0  0  0  0  0  0
  139.8450   72.9840  222.6650 N   0  0  0  0  0  0  0  0  0  0  0  0
  139.9310   73.7900  221.4990 C   0  0  0  0  0  0  0  0  0  0  0  0
  140.4320   75.1490  221.6920 C   0  0  0  0  0  0  0  0  0  0  0  0
  139.9260   75.7580  222.7140 O   0  0  0  0  0  0  0  0  0  0  0  0
  141.3600   75.8850  220.9490 N   0  0  0  0  0  0  0  0  0  0  0  0
  142.4590   75.4380  220.0680 C   0  0  0  0  0  0  0  0  0  0  0  0
  142.4420   76.4920  218.9250 C   0  0  2  0  0  0  0  0  0  0  0  0
  143.6990   77.0950  218.9070 O   0  0  0  0  0  0  0  0  0  0  0  0
  141.3700   77.5080  219.3740 C   0  0  0  0  0  0  0  0  0  0  0  0
  141.5080   77.3530  220.8520 C   0  0  1  0  0  0  0  0  0  0  0  0
  140.6660   78.1470  221.6990 C   0  0  0  0  0  0  0  0  0  0  0  0
  141.1910   78.6570  222.8900 C   0  0  0  0  0  0  0  0  0  0  0  0
  140.4360   79.3980  223.7680 C   0  0  0  0  0  0  0  0  0  0  0  0
  139.1120   79.6720  223.5060 C   0  0  0  0  0  0  0  0  0  0  0  0
  138.1040   80.6080  224.5880 Cl  0  0  0  0  0  0  0  0  0  0  0  0
  138.5850   79.1760  222.3390 C   0  0  0  0  0  0  0  0  0  0  0  0
  139.3420   78.4350  221.4630 C   0  0  0  0  0  0  0  0  0  0  0  0
  139.9800   70.7590  223.7380 C   0  0  0  0  0  0  0  0  0  0  0  0
  139.3290   69.5300  223.6900 C   0  0  0  0  0  0  0  0  0  0  0  0
  139.2080   68.7200  224.7910 C   0  0  0  0  0  0  0  0  0  0  0  0
  139.7410   69.1160  225.9960 C   0  0  0  0  0  0  0  0  0  0  0  0
  139.6270   68.3110  227.1100 C   0  0  0  0  0  0  0  0  0  0  0  0
  140.1670   68.7300  228.2900 C   0  0  0  0  0  0  0  0  0  0  0  0
  140.8060   69.9340  228.3430 C   0  0  0  0  0  0  0  0  0  0  0  0
  140.9320   70.7590  227.2310 C   0  0  0  0  0  0  0  0  0  0  0  0
  140.3900   70.3470  226.0280 C   0  0  0  0  0  0  0  0  0  0  0  0
  140.4910   71.1210  224.9210 N   0  0  0  0  0  0  0  0  0  0  0  0
  139.6140   73.4150  223.6060 H   0  0  0  0  0  0  0  0  0  0  0  0
  140.6004   73.2828  220.7886 H   0  0  0  0  0  0  0  0  0  0  0  0
  138.8968   73.9044  221.1422 H   0  0  0  0  0  0  0  0  0  0  0  0
  143.4215   75.4478  220.6005 H   0  0  0  0  0  0  0  0  0  0  0  0
  142.3335   74.4062  219.7080 H   0  0  0  0  0  0  0  0  0  0  0  0
  142.2270   76.0849  217.9260 H   0  0  0  0  0  0  0  0  0  0  0  0
  143.9490   77.4240  219.8060 H   0  0  0  0  0  0  0  0  0  0  0  0
  141.6055   78.5301  219.0424 H   0  0  0  0  0  0  0  0  0  0  0  0
  140.3599   77.3394  218.9724 H   0  0  0  0  0  0  0  0  0  0  0  0
  142.4483   77.7574  221.2549 H   0  0  0  0  0  0  0  0  0  0  0  0
  142.2452   78.4584  223.1332 H   0  0  0  0  0  0  0  0  0  0  0  0
  140.8958   79.7773  224.6925 H   0  0  0  0  0  0  0  0  0  0  0  0
  137.5304   79.3767  222.0991 H   0  0  0  0  0  0  0  0  0  0  0  0
  138.8728   78.0595  220.5417 H   0  0  0  0  0  0  0  0  0  0  0  0
  138.8960   69.1960  222.7356 H   0  0  0  0  0  0  0  0  0  0  0  0
  138.6855   67.7554  224.7103 H   0  0  0  0  0  0  0  0  0  0  0  0
  139.1073   67.3435  227.0475 H   0  0  0  0  0  0  0  0  0  0  0  0
  140.0881   68.1031  229.1904 H   0  0  0  0  0  0  0  0  0  0  0  0
  141.2370   70.2640  229.2997 H   0  0  0  0  0  0  0  0  0  0  0  0
  141.4546   71.7240  227.3073 H   0  0  0  0  0  0  0  0  0  0  0  0
  1  2  2  0
  2  3  1  0
  3  4  1  0
  4  5  1  0
  5  6  2  0
  5  7  1  0
  7  8  1  0
  8  9  1  0
  9 10  1  0
  9 11  1  0
 11 12  1  0
 12 13  1  0
 13 14  2  0
 14 15  1  0
 15 16  2  0
 16 17  1  0
 16 18  1  0
 18 19  2  0
  2 20  1  0
 20 21  2  0
 21 22  1  0
 22 23  2  0
 23 24  1  0
 24 25  2  0
 25 26  1  0
 26 27  2  0
 27 28  1  0
 28 29  2  0
 12  7  1  0
 19 13  1  0
 29 20  1  0
 28 23  1  0
  3 30  1  0
  4 31  1  0
  4 32  1  0
  8 33  1  0
  8 34  1  0
  9 35  1  6
 10 36  1  0
 11 37  1  0
 11 38  1  0
 12 39  1  1
 14 40  1  0
 15 41  1  0
 18 42  1  0
 19 43  1  0
 21 44  1  0
 22 45  1  0
 24 46  1  0
 25 47  1  0
 26 48  1  0
 27 49  1  0
M  END
>  <smiles>  (3) 
O=C(NCC(=O)N1C[C@H](O)C[C@H]1c1ccc(Cl)cc1)c1ccc2ccccc2n1

>  <score_type>  (3) 
oracle

>  <origin>  (3) 
autodockgpu

>  <m_score__min__energy>  (3) 
-9.1999999999999993

>  <m_primary>  (3) 
energy

>  <meeko>  (3) 
{"free_energy": -8.88, "intermolecular_energy": -10.67, "internal_energy": -1.38, "cluster_size": 7, "cluster_id": 1, "rank_in_cluster": 5}

>  <energy>  (3) 
-9.13

>  <cluster_rmsd>  (3) 
0.12

>  <rmsd>  (3) 
271.9

>  <cluster>  (3) 
1

$$$$

     RDKit          3D

 49 52  0  0  0  0  0  0  0  0999 V2000
  141.4190   72.3160  222.1500 O   0  0  0  0  0  0  0  0  0  0  0  0
  140.3210   72.2320  222.7590 C   0  0  0  0  0  0  0  0  0  0  0  0
  139.1870   73.0430  222.4290 N   0  0  0  0  0  0  0  0  0  0  0  0
  139.3190   73.9760  221.3660 C   0  0  0  0  0  0  0  0  0  0  0  0
  140.0350   75.2120  221.6810 C   0  0  0  0  0  0  0  0  0  0  0  0
  139.6110   75.8130  222.7430 O   0  0  0  0  0  0  0  0  0  0  0  0
  141.0930   75.8380  221.0150 N   0  0  0  0  0  0  0  0  0  0  0  0
  142.1860   75.2700  220.1970 C   0  0  0  0  0  0  0  0  0  0  0  0
  142.3740   76.3330  219.0780 C   0  0  2  0  0  0  0  0  0  0  0  0
  143.6930   76.7770  219.1540 O   0  0  0  0  0  0  0  0  0  0  0  0
  141.4060   77.4670  219.4780 C   0  0  0  0  0  0  0  0  0  0  0  0
  141.4240   77.2770  220.9580 C   0  0  1  0  0  0  0  0  0  0  0  0
  140.6300   78.1580  221.7650 C   0  0  0  0  0  0  0  0  0  0  0  0
  141.1370   78.5920  222.9940 C   0  0  0  0  0  0  0  0  0  0  0  0
  140.4220   79.4100  223.8360 C   0  0  0  0  0  0  0  0  0  0  0  0
  139.1570   79.8390  223.5000 C   0  0  0  0  0  0  0  0  0  0  0  0
  138.2010   80.8790  224.5330 Cl  0  0  0  0  0  0  0  0  0  0  0  0
  138.6490   79.4190  222.2950 C   0  0  0  0  0  0  0  0  0  0  0  0
  139.3670   78.6010  221.4540 C   0  0  0  0  0  0  0  0  0  0  0  0
  140.1690   71.2740  223.8510 C   0  0  0  0  0  0  0  0  0  0  0  0
  139.4840   70.0820  223.6340 C   0  0  0  0  0  0  0  0  0  0  0  0
  139.3110   69.1450  224.6220 C   0  0  0  0  0  0  0  0  0  0  0  0
  139.8240   69.3700  225.8790 C   0  0  0  0  0  0  0  0  0  0  0  0
  139.6580   68.4360  226.8800 C   0  0  0  0  0  0  0  0  0  0  0  0
  140.1790   68.6870  228.1150 C   0  0  0  0  0  0  0  0  0  0  0  0
  140.8510   69.8540  228.3330 C   0  0  0  0  0  0  0  0  0  0  0  0
  141.0290   70.8070  227.3370 C   0  0  0  0  0  0  0  0  0  0  0  0
  140.5070   70.5660  226.0800 C   0  0  0  0  0  0  0  0  0  0  0  0
  140.6590   71.4690  225.0810 N   0  0  0  0  0  0  0  0  0  0  0  0
  138.2740   72.9530  222.9600 H   0  0  0  0  0  0  0  0  0  0  0  0
  139.8548   73.4769  220.5451 H   0  0  0  0  0  0  0  0  0  0  0  0
  138.2936   74.2841  221.1137 H   0  0  0  0  0  0  0  0  0  0  0  0
  143.1048   75.1540  220.7906 H   0  0  0  0  0  0  0  0  0  0  0  0
  141.9597   74.2663  219.8079 H   0  0  0  0  0  0  0  0  0  0  0  0
  142.1783   75.9686  218.0587 H   0  0  0  0  0  0  0  0  0  0  0  0
  143.7990   77.4590  219.8630 H   0  0  0  0  0  0  0  0  0  0  0  0
  141.7861   78.4566  219.1844 H   0  0  0  0  0  0  0  0  0  0  0  0
  140.4122   77.4289  219.0079 H   0  0  0  0  0  0  0  0  0  0  0  0
  142.3773   77.5576  221.4297 H   0  0  0  0  0  0  0  0  0  0  0  0
  142.1432   78.2674  223.2975 H   0  0  0  0  0  0  0  0  0  0  0  0
  140.8662   79.7264  224.7913 H   0  0  0  0  0  0  0  0  0  0  0  0
  137.6423   79.7451  221.9948 H   0  0  0  0  0  0  0  0  0  0  0  0
  138.9149   78.2910  220.5003 H   0  0  0  0  0  0  0  0  0  0  0  0
  139.0666   69.8839  222.6357 H   0  0  0  0  0  0  0  0  0  0  0  0
  138.7629   68.2153  224.4093 H   0  0  0  0  0  0  0  0  0  0  0  0
  139.1126   67.5009  226.6848 H   0  0  0  0  0  0  0  0  0  0  0  0
  140.0585   67.9555  228.9276 H   0  0  0  0  0  0  0  0  0  0  0  0
  141.2669   70.0477  229.3328 H   0  0  0  0  0  0  0  0  0  0  0  0
  141.5765   71.7380  227.5457 H   0  0  0  0  0  0  0  0  0  0  0  0
  1  2  2  0
  2  3  1  0
  3  4  1  0
  4  5  1  0
  5  6  2  0
  5  7  1  0
  7  8  1  0
  8  9  1  0
  9 10  1  0
  9 11  1  0
 11 12  1  0
 12 13  1  0
 13 14  2  0
 14 15  1  0
 15 16  2  0
 16 17  1  0
 16 18  1  0
 18 19  2  0
  2 20  1  0
 20 21  2  0
 21 22  1  0
 22 23  2  0
 23 24  1  0
 24 25  2  0
 25 26  1  0
 26 27  2  0
 27 28  1  0
 28 29  2  0
 12  7  1  0
 19 13  1  0
 29 20  1  0
 28 23  1  0
  3 30  1  0
  4 31  1  0
  4 32  1  0
  8 33  1  0
  8 34  1  0
  9 35  1  6
 10 36  1  0
 11 37  1  0
 11 38  1  0
 12 39  1  1
 14 40  1  0
 15 41  1  0
 18 42  1  0
 19 43  1  0
 21 44  1  0
 22 45  1  0
 24 46  1  0
 25 47  1  0
 26 48  1  0
 27 49  1  0
M  END
>  <smiles>  (4) 
O=C(NCC(=O)N1C[C@H](O)C[C@H]1c1ccc(Cl)cc1)c1ccc2ccccc2n1

>  <score_type>  (4) 
oracle

>  <origin>  (4) 
autodockgpu

>  <m_score__min__energy>  (4) 
-9.1999999999999993

>  <m_primary>  (4) 
energy

>  <meeko>  (4) 
{"free_energy": -9.13, "intermolecular_energy": -10.92, "internal_energy": -1.22, "cluster_size": 7, "cluster_id": 1, "rank_in_cluster": 3}

>  <energy>  (4) 
-8.98

>  <cluster_rmsd>  (4) 
0.55

>  <rmsd>  (4) 
271.88

>  <cluster>  (4) 
1

$$$$

     RDKit          3D

 49 52  0  0  0  0  0  0  0  0999 V2000
  140.7000   71.3950  221.2760 O   0  0  0  0  0  0  0  0  0  0  0  0
  140.2960   72.0320  222.2830 C   0  0  0  0  0  0  0  0  0  0  0  0
  139.9130   73.4120  222.2250 N   0  0  0  0  0  0  0  0  0  0  0  0
  139.9950   74.0770  220.9720 C   0  0  0  0  0  0  0  0  0  0  0  0
  140.6960   75.3600  220.9690 C   0  0  0  0  0  0  0  0  0  0  0  0
  140.7060   75.9590  222.1140 O   0  0  0  0  0  0  0  0  0  0  0  0
  141.3460   76.0320  219.9300 N   0  0  0  0  0  0  0  0  0  0  0  0
  141.1080   77.3730  219.3540 C   0  0  0  0  0  0  0  0  0  0  0  0
  142.5440   77.8730  219.0270 C   0  0  2  0  0  0  0  0  0  0  0  0
  142.5850   78.1330  217.6590 O   0  0  0  0  0  0  0  0  0  0  0  0
  143.4430   76.6660  219.3680 C   0  0  0  0  0  0  0  0  0  0  0  0
  142.4710   75.5670  219.0920 C   0  0  1  0  0  0  0  0  0  0  0  0
  142.9050   74.2130  219.2830 C   0  0  0  0  0  0  0  0  0  0  0  0
  142.4420   73.2240  218.4100 C   0  0  0  0  0  0  0  0  0  0  0  0
  142.7880   71.9010  218.5490 C   0  0  0  0  0  0  0  0  0  0  0  0
  143.6150   71.4890  219.5700 C   0  0  0  0  0  0  0  0  0  0  0  0
  144.0860   69.8190  219.7960 Cl  0  0  0  0  0  0  0  0  0  0  0  0
  144.0760   72.4520  220.4350 C   0  0  0  0  0  0  0  0  0  0  0  0
  143.7290   73.7750  220.2930 C   0  0  0  0  0  0  0  0  0  0  0  0
  140.2030   71.3610  223.5760 C   0  0  0  0  0  0  0  0  0  0  0  0
  139.6100   70.1040  223.6610 C   0  0  0  0  0  0  0  0  0  0  0  0
  139.4950   69.4260  224.8490 C   0  0  0  0  0  0  0  0  0  0  0  0
  139.9760   69.9870  226.0090 C   0  0  0  0  0  0  0  0  0  0  0  0
  139.8670   69.3160  227.2080 C   0  0  0  0  0  0  0  0  0  0  0  0
  140.3530   69.8980  228.3420 C   0  0  0  0  0  0  0  0  0  0  0  0
  140.9350   71.1300  228.2640 C   0  0  0  0  0  0  0  0  0  0  0  0
  141.0540   71.8220  227.0650 C   0  0  0  0  0  0  0  0  0  0  0  0
  140.5660   71.2440  225.9080 C   0  0  0  0  0  0  0  0  0  0  0  0
  140.6630   71.8850  224.7180 N   0  0  0  0  0  0  0  0  0  0  0  0
  139.5780   73.9260  223.0900 H   0  0  0  0  0  0  0  0  0  0  0  0
  140.5150   73.4084  220.2702 H   0  0  0  0  0  0  0  0  0  0  0  0
  138.9566   74.3072  220.6914 H   0  0  0  0  0  0  0  0  0  0  0  0
  140.4947   77.3089  218.4431 H   0  0  0  0  0  0  0  0  0  0  0  0
  140.5588   78.0442  220.0306 H   0  0  0  0  0  0  0  0  0  0  0  0
  142.8514   78.7784  219.5708 H   0  0  0  0  0  0  0  0  0  0  0  0
  143.3320   78.7410  217.4340 H   0  0  0  0  0  0  0  0  0  0  0  0
  144.3253   76.6106  218.7134 H   0  0  0  0  0  0  0  0  0  0  0  0
  143.8785   76.6704  220.3781 H   0  0  0  0  0  0  0  0  0  0  0  0
  142.2390   75.4380  218.0245 H   0  0  0  0  0  0  0  0  0  0  0  0
  141.7776   73.5148  217.5830 H   0  0  0  0  0  0  0  0  0  0  0  0
  142.3987   71.1608  217.8344 H   0  0  0  0  0  0  0  0  0  0  0  0
  144.7392   72.1573  221.2616 H   0  0  0  0  0  0  0  0  0  0  0  0
  144.1240   74.5079  221.0118 H   0  0  0  0  0  0  0  0  0  0  0  0
  139.2201   69.6380  222.7440 H   0  0  0  0  0  0  0  0  0  0  0  0
  139.0185   68.4348  224.8732 H   0  0  0  0  0  0  0  0  0  0  0  0
  139.3941   68.3237  227.2499 H   0  0  0  0  0  0  0  0  0  0  0  0
  140.2766   69.3797  229.3092 H   0  0  0  0  0  0  0  0  0  0  0  0
  141.3239   71.5918  229.1835 H   0  0  0  0  0  0  0  0  0  0  0  0
  141.5289   72.8138  227.0369 H   0  0  0  0  0  0  0  0  0  0  0  0
  1  2  2  0
  2  3  1  0
  3  4  1  0
  4  5  1  0
  5  6  2  0
  5  7  1  0
  7  8  1  0
  8  9  1  0
  9 10  1  0
  9 11  1  0
 11 12  1  0
 12 13  1  0
 13 14  2  0
 14 15  1  0
 15 16  2  0
 16 17  1  0
 16 18  1  0
 18 19  2  0
  2 20  1  0
 20 21  2  0
 21 22  1  0
 22 23  2  0
 23 24  1  0
 24 25  2  0
 25 26  1  0
 26 27  2  0
 27 28  1  0
 28 29  2  0
 12  7  1  0
 19 13  1  0
 29 20  1  0
 28 23  1  0
  3 30  1  0
  4 31  1  0
  4 32  1  0
  8 33  1  0
  8 34  1  0
  9 35  1  1
 10 36  1  0
 11 37  1  0
 11 38  1  0
 12 39  1  6
 14 40  1  0
 15 41  1  0
 18 42  1  0
 19 43  1  0
 21 44  1  0
 22 45  1  0
 24 46  1  0
 25 47  1  0
 26 48  1  0
 27 49  1  0
M  END
>  <smiles>  (5) 
O=C(NCC(=O)N1C[C@H](O)C[C@H]1c1ccc(Cl)cc1)c1ccc2ccccc2n1

>  <score_type>  (5) 
oracle

>  <origin>  (5) 
autodockgpu

>  <m_score__min__energy>  (5) 
-9.1999999999999993

>  <m_primary>  (5) 
energy

>  <meeko>  (5) 
{"free_energy": -7.85, "intermolecular_energy": -9.64, "internal_energy": -2.09, "cluster_size": 2, "cluster_id": 3, "rank_in_cluster": 2}

>  <energy>  (5) 
-8.88

>  <cluster_rmsd>  (5) 
0.55

>  <rmsd>  (5) 
271.88

>  <cluster>  (5) 
1

$$$$

     RDKit          3D

 49 52  0  0  0  0  0  0  0  0999 V2000
  140.0750   70.9980  221.4450 O   0  0  0  0  0  0  0  0  0  0  0  0
  139.9100   71.5490  222.5640 C   0  0  0  0  0  0  0  0  0  0  0  0
  139.7380   72.9640  222.7150 N   0  0  0  0  0  0  0  0  0  0  0  0
  139.7530   73.7670  221.5430 C   0  0  0  0  0  0  0  0  0  0  0  0
  140.2450   75.1340  221.7070 C   0  0  0  0  0  0  0  0  0  0  0  0
  139.6700   75.7920  222.6590 O   0  0  0  0  0  0  0  0  0  0  0  0
  141.2280   75.8320  220.9990 N   0  0  0  0  0  0  0  0  0  0  0  0
  142.2920   75.3450  220.0950 C   0  0  0  0  0  0  0  0  0  0  0  0
  142.3580   76.4510  219.0040 C   0  0  2  0  0  0  0  0  0  0  0  0
  143.6560   76.9560  219.0130 O   0  0  0  0  0  0  0  0  0  0  0  0
  141.3650   77.5220  219.5020 C   0  0  0  0  0  0  0  0  0  0  0  0
  141.4870   77.2870  220.9720 C   0  0  1  0  0  0  0  0  0  0  0  0
  140.7050   78.1010  221.8570 C   0  0  0  0  0  0  0  0  0  0  0  0
  139.4110   78.4670  221.4750 C   0  0  0  0  0  0  0  0  0  0  0  0
  138.6150   79.2720  222.2550 C   0  0  0  0  0  0  0  0  0  0  0  0
  139.0670   79.7600  223.4610 C   0  0  0  0  0  0  0  0  0  0  0  0
  138.0990   80.7890  224.4920 Cl  0  0  0  0  0  0  0  0  0  0  0  0
  140.3380   79.4080  223.8460 C   0  0  0  0  0  0  0  0  0  0  0  0
  141.1320   78.6020  223.0640 C   0  0  0  0  0  0  0  0  0  0  0  0
  139.8880   70.7350  223.7760 C   0  0  0  0  0  0  0  0  0  0  0  0
  139.2670   69.4890  223.7610 C   0  0  0  0  0  0  0  0  0  0  0  0
  139.2160   68.6810  224.8690 C   0  0  0  0  0  0  0  0  0  0  0  0
  139.7910   69.0950  226.0480 C   0  0  0  0  0  0  0  0  0  0  0  0
  139.7470   68.2930  227.1680 C   0  0  0  0  0  0  0  0  0  0  0  0
  140.3260   68.7310  228.3230 C   0  0  0  0  0  0  0  0  0  0  0  0
  140.9350   69.9510  228.3430 C   0  0  0  0  0  0  0  0  0  0  0  0
  140.9910   70.7740  227.2250 C   0  0  0  0  0  0  0  0  0  0  0  0
  140.4080   70.3430  226.0480 C   0  0  0  0  0  0  0  0  0  0  0  0
  140.4400   71.1150  224.9350 N   0  0  0  0  0  0  0  0  0  0  0  0
  139.6020   73.4020  223.6700 H   0  0  0  0  0  0  0  0  0  0  0  0
  140.3920   73.2665  220.8006 H   0  0  0  0  0  0  0  0  0  0  0  0
  138.7006   73.8659  221.2387 H   0  0  0  0  0  0  0  0  0  0  0  0
  143.2513   75.2556  220.6257 H   0  0  0  0  0  0  0  0  0  0  0  0
  142.0886   74.3444  219.6859 H   0  0  0  0  0  0  0  0  0  0  0  0
  142.1153   76.1102  217.9867 H   0  0  0  0  0  0  0  0  0  0  0  0
  143.8370   77.4590  219.8460 H   0  0  0  0  0  0  0  0  0  0  0  0
  141.6778   78.5380  219.2192 H   0  0  0  0  0  0  0  0  0  0  0  0
  140.3461   77.4491  219.0939 H   0  0  0  0  0  0  0  0  0  0  0  0
  142.4540   77.5999  221.3926 H   0  0  0  0  0  0  0  0  0  0  0  0
  139.0159   78.0980  220.5170 H   0  0  0  0  0  0  0  0  0  0  0  0
  137.6026   79.5301  221.9110 H   0  0  0  0  0  0  0  0  0  0  0  0
  140.7305   79.7802  224.8038 H   0  0  0  0  0  0  0  0  0  0  0  0
  142.1431   78.3496  223.4162 H   0  0  0  0  0  0  0  0  0  0  0  0
  138.8007   69.1399  222.8279 H   0  0  0  0  0  0  0  0  0  0  0  0
  138.7156   67.7029  224.8144 H   0  0  0  0  0  0  0  0  0  0  0  0
  139.2511   67.3118  227.1311 H   0  0  0  0  0  0  0  0  0  0  0  0
  140.3019   68.1068  229.2284 H   0  0  0  0  0  0  0  0  0  0  0  0
  141.3990   70.2962  229.2787 H   0  0  0  0  0  0  0  0  0  0  0  0
  141.4910   71.7525  227.2756 H   0  0  0  0  0  0  0  0  0  0  0  0
  1  2  2  0
  2  3  1  0
  3  4  1  0
  4  5  1  0
  5  6  2  0
  5  7  1  0
  7  8  1  0
  8  9  1  0
  9 10  1  0
  9 11  1  0
 11 12  1  0
 12 13  1  0
 13 14  2  0
 14 15  1  0
 15 16  2  0
 16 17  1  0
 16 18  1  0
 18 19  2  0
  2 20  1  0
 20 21  2  0
 21 22  1  0
 22 23  2  0
 23 24  1  0
 24 25  2  0
 25 26  1  0
 26 27  2  0
 27 28  1  0
 28 29  2  0
 12  7  1  0
 19 13  1  0
 29 20  1  0
 28 23  1  0
  3 30  1  0
  4 31  1  0
  4 32  1  0
  8 33  1  0
  8 34  1  0
  9 35  1  6
 10 36  1  0
 11 37  1  0
 11 38  1  0
 12 39  1  1
 14 40  1  0
 15 41  1  0
 18 42  1  0
 19 43  1  0
 21 44  1  0
 22 45  1  0
 24 46  1  0
 25 47  1  0
 26 48  1  0
 27 49  1  0
M  END
>  <smiles>  (6) 
O=C(NCC(=O)N1C[C@H](O)C[C@H]1c1ccc(Cl)cc1)c1ccc2ccccc2n1

>  <score_type>  (6) 
oracle

>  <origin>  (6) 
autodockgpu

>  <m_score__min__energy>  (6) 
-9.1999999999999993

>  <m_primary>  (6) 
energy

>  <meeko>  (6) 
{"free_energy": -8.98, "intermolecular_energy": -10.77, "internal_energy": -1.28, "cluster_size": 7, "cluster_id": 1, "rank_in_cluster": 4}

>  <energy>  (6) 
-8.74

>  <cluster_rmsd>  (6) 
0.68

>  <rmsd>  (6) 
271.92

>  <cluster>  (6) 
1

$$$$

     RDKit          3D

 49 52  0  0  0  0  0  0  0  0999 V2000
  138.8890   75.1750  221.8930 O   0  0  0  0  0  0  0  0  0  0  0  0
  140.0490   75.6480  222.0090 C   0  0  0  0  0  0  0  0  0  0  0  0
  141.2310   74.8570  221.8330 N   0  0  0  0  0  0  0  0  0  0  0  0
  141.0730   73.4820  221.5120 C   0  0  0  0  0  0  0  0  0  0  0  0
  141.8560   72.9930  220.3790 C   0  0  0  0  0  0  0  0  0  0  0  0
  141.2220   72.1650  219.6160 O   0  0  0  0  0  0  0  0  0  0  0  0
  143.1710   73.2770  219.9980 N   0  0  0  0  0  0  0  0  0  0  0  0
  144.4100   72.4860  220.1540 C   0  0  0  0  0  0  0  0  0  0  0  0
  145.1880   72.7940  218.8430 C   0  0  2  0  0  0  0  0  0  0  0  0
  146.4090   73.3540  219.2150 O   0  0  0  0  0  0  0  0  0  0  0  0
  144.3130   73.8470  218.1320 C   0  0  0  0  0  0  0  0  0  0  0  0
  143.6970   74.4870  219.3320 C   0  0  1  0  0  0  0  0  0  0  0  0
  142.7760   75.5670  219.1270 C   0  0  0  0  0  0  0  0  0  0  0  0
  143.0580   76.8140  219.6930 C   0  0  0  0  0  0  0  0  0  0  0  0
  142.2080   77.8870  219.5690 C   0  0  0  0  0  0  0  0  0  0  0  0
  141.0250   77.7750  218.8720 C   0  0  0  0  0  0  0  0  0  0  0  0
  139.9050   79.1070  218.6830 Cl  0  0  0  0  0  0  0  0  0  0  0  0
  140.7370   76.5550  218.3120 C   0  0  0  0  0  0  0  0  0  0  0  0
  141.5900   75.4830  218.4380 C   0  0  0  0  0  0  0  0  0  0  0  0
  140.2260   77.0600  222.3350 C   0  0  0  0  0  0  0  0  0  0  0  0
  139.1140   77.8910  222.4370 C   0  0  0  0  0  0  0  0  0  0  0  0
  139.2190   79.2250  222.7410 C   0  0  0  0  0  0  0  0  0  0  0  0
  140.4580   79.7840  222.9570 C   0  0  0  0  0  0  0  0  0  0  0  0
  140.5770   81.1230  223.2630 C   0  0  0  0  0  0  0  0  0  0  0  0
  141.8190   81.6480  223.4720 C   0  0  0  0  0  0  0  0  0  0  0  0
  142.9120   80.8380  223.3730 C   0  0  0  0  0  0  0  0  0  0  0  0
  142.8120   79.4870  223.0660 C   0  0  0  0  0  0  0  0  0  0  0  0
  141.5600   78.9410  222.8520 C   0  0  0  0  0  0  0  0  0  0  0  0
  141.4190   77.6280  222.5500 N   0  0  0  0  0  0  0  0  0  0  0  0
  142.1960   75.2810  221.9390 H   0  0  0  0  0  0  0  0  0  0  0  0
  141.3595   72.8950  222.3971 H   0  0  0  0  0  0  0  0  0  0  0  0
  140.0200   73.3665  221.2157 H   0  0  0  0  0  0  0  0  0  0  0  0
  144.9788   72.8120  221.0373 H   0  0  0  0  0  0  0  0  0  0  0  0
  144.2232   71.4126  220.3057 H   0  0  0  0  0  0  0  0  0  0  0  0
  145.3768   71.9197  218.2028 H   0  0  0  0  0  0  0  0  0  0  0  0
  146.3360   74.3370  219.3080 H   0  0  0  0  0  0  0  0  0  0  0  0
  144.9159   74.5586  217.5488 H   0  0  0  0  0  0  0  0  0  0  0  0
  143.6037   73.4503  217.3907 H   0  0  0  0  0  0  0  0  0  0  0  0
  144.4026   75.0826  219.9298 H   0  0  0  0  0  0  0  0  0  0  0  0
  143.9935   76.9409  220.2576 H   0  0  0  0  0  0  0  0  0  0  0  0
  142.4759   78.8479  220.0325 H   0  0  0  0  0  0  0  0  0  0  0  0
  139.8005   76.4315  217.7483 H   0  0  0  0  0  0  0  0  0  0  0  0
  141.3133   74.5261  217.9714 H   0  0  0  0  0  0  0  0  0  0  0  0
  138.1150   77.4629  222.2678 H   0  0  0  0  0  0  0  0  0  0  0  0
  138.3143   79.8467  222.8119 H   0  0  0  0  0  0  0  0  0  0  0  0
  139.6829   81.7594  223.3376 H   0  0  0  0  0  0  0  0  0  0  0  0
  141.9376   82.7136  223.7178 H   0  0  0  0  0  0  0  0  0  0  0  0
  143.9091   81.2705  223.5425 H   0  0  0  0  0  0  0  0  0  0  0  0
  143.7142   78.8618  222.9943 H   0  0  0  0  0  0  0  0  0  0  0  0
  1  2  2  0
  2  3  1  0
  3  4  1  0
  4  5  1  0
  5  6  2  0
  5  7  1  0
  7  8  1  0
  8  9  1  0
  9 10  1  0
  9 11  1  0
 11 12  1  0
 12 13  1  0
 13 14  2  0
 14 15  1  0
 15 16  2  0
 16 17  1  0
 16 18  1  0
 18 19  2  0
  2 20  1  0
 20 21  2  0
 21 22  1  0
 22 23  2  0
 23 24  1  0
 24 25  2  0
 25 26  1  0
 26 27  2  0
 27 28  1  0
 28 29  2  0
 12  7  1  0
 19 13  1  0
 29 20  1  0
 28 23  1  0
  3 30  1  0
  4 31  1  0
  4 32  1  0
  8 33  1  0
  8 34  1  0
  9 35  1  6
 10 36  1  0
 11 37  1  0
 11 38  1  0
 12 39  1  1
 14 40  1  0
 15 41  1  0
 18 42  1  0
 19 43  1  0
 21 44  1  0
 22 45  1  0
 24 46  1  0
 25 47  1  0
 26 48  1  0
 27 49  1  0
M  END
>  <smiles>  (7) 
O=C(NCC(=O)N1C[C@H](O)C[C@H]1c1ccc(Cl)cc1)c1ccc2ccccc2n1

>  <score_type>  (7) 
oracle

>  <origin>  (7) 
autodockgpu

>  <m_score__min__energy>  (7) 
-9.1999999999999993

>  <m_primary>  (7) 
energy

>  <meeko>  (7) 
{"free_energy": -7.54, "intermolecular_energy": -9.33, "internal_energy": -2.85, "cluster_size": 8, "cluster_id": 4, "rank_in_cluster": 6}

>  <energy>  (7) 
-8.58

>  <cluster_rmsd>  (7) 
1.05

>  <rmsd>  (7) 
271.84

>  <cluster>  (7) 
1

$$$$

     RDKit          3D

 49 52  0  0  0  0  0  0  0  0999 V2000
  138.8800   75.1580  221.8830 O   0  0  0  0  0  0  0  0  0  0  0  0
  140.0440   75.6220  221.9980 C   0  0  0  0  0  0  0  0  0  0  0  0
  141.2190   74.8170  221.8360 N   0  0  0  0  0  0  0  0  0  0  0  0
  141.0490   73.4400  221.5290 C   0  0  0  0  0  0  0  0  0  0  0  0
  141.8720   72.9180  220.4400 C   0  0  0  0  0  0  0  0  0  0  0  0
  141.2800   72.0340  219.7070 O   0  0  0  0  0  0  0  0  0  0  0  0
  143.1870   73.2220  220.0750 N   0  0  0  0  0  0  0  0  0  0  0  0
  144.4360   72.4480  220.2450 C   0  0  0  0  0  0  0  0  0  0  0  0
  145.2250   72.7690  218.9440 C   0  0  2  0  0  0  0  0  0  0  0  0
  146.4330   73.3460  219.3310 O   0  0  0  0  0  0  0  0  0  0  0  0
  144.3430   73.8090  218.2230 C   0  0  0  0  0  0  0  0  0  0  0  0
  143.7040   74.4390  219.4160 C   0  0  1  0  0  0  0  0  0  0  0  0
  142.7700   75.5060  219.2010 C   0  0  0  0  0  0  0  0  0  0  0  0
  143.0710   76.7790  219.6940 C   0  0  0  0  0  0  0  0  0  0  0  0
  142.2110   77.8430  219.5560 C   0  0  0  0  0  0  0  0  0  0  0  0
  140.9990   77.6950  218.9180 C   0  0  0  0  0  0  0  0  0  0  0  0
  139.8660   79.0130  218.7160 Cl  0  0  0  0  0  0  0  0  0  0  0  0
  140.6920   76.4490  218.4300 C   0  0  0  0  0  0  0  0  0  0  0  0
  141.5540   75.3860  218.5690 C   0  0  0  0  0  0  0  0  0  0  0  0
  140.2340   77.0360  222.3090 C   0  0  0  0  0  0  0  0  0  0  0  0
  139.1310   77.8830  222.3730 C   0  0  0  0  0  0  0  0  0  0  0  0
  139.2480   79.2200  222.6610 C   0  0  0  0  0  0  0  0  0  0  0  0
  140.4890   79.7650  222.8990 C   0  0  0  0  0  0  0  0  0  0  0  0
  140.6210   81.1050  223.1900 C   0  0  0  0  0  0  0  0  0  0  0  0
  141.8640   81.6160  223.4210 C   0  0  0  0  0  0  0  0  0  0  0  0
  142.9480   80.7900  223.3590 C   0  0  0  0  0  0  0  0  0  0  0  0
  142.8360   79.4360  223.0680 C   0  0  0  0  0  0  0  0  0  0  0  0
  141.5820   78.9050  222.8320 C   0  0  0  0  0  0  0  0  0  0  0  0
  141.4290   77.5890  222.5440 N   0  0  0  0  0  0  0  0  0  0  0  0
  142.1880   75.2330  221.9410 H   0  0  0  0  0  0  0  0  0  0  0  0
  141.2843   72.8621  222.4349 H   0  0  0  0  0  0  0  0  0  0  0  0
  140.0083   73.3396  221.1873 H   0  0  0  0  0  0  0  0  0  0  0  0
  144.9894   72.7808  221.1355 H   0  0  0  0  0  0  0  0  0  0  0  0
  144.2628   71.3719  220.3931 H   0  0  0  0  0  0  0  0  0  0  0  0
  145.4346   71.8983  218.3053 H   0  0  0  0  0  0  0  0  0  0  0  0
  146.3620   74.3330  219.3610 H   0  0  0  0  0  0  0  0  0  0  0  0
  144.9420   74.5297  217.6470 H   0  0  0  0  0  0  0  0  0  0  0  0
  143.6484   73.4023  217.4733 H   0  0  0  0  0  0  0  0  0  0  0  0
  144.3946   75.0437  220.0221 H   0  0  0  0  0  0  0  0  0  0  0  0
  144.0296   76.9350  220.2105 H   0  0  0  0  0  0  0  0  0  0  0  0
  142.4946   78.8258  219.9606 H   0  0  0  0  0  0  0  0  0  0  0  0
  139.7322   76.2968  217.9146 H   0  0  0  0  0  0  0  0  0  0  0  0
  141.2612   74.4073  218.1611 H   0  0  0  0  0  0  0  0  0  0  0  0
  138.1304   77.4661  222.1862 H   0  0  0  0  0  0  0  0  0  0  0  0
  138.3508   79.8551  222.7015 H   0  0  0  0  0  0  0  0  0  0  0  0
  139.7346   81.7548  223.2355 H   0  0  0  0  0  0  0  0  0  0  0  0
  141.9913   82.6833  223.6549 H   0  0  0  0  0  0  0  0  0  0  0  0
  143.9468   81.2112  223.5461 H   0  0  0  0  0  0  0  0  0  0  0  0
  143.7306   78.7973  223.0261 H   0  0  0  0  0  0  0  0  0  0  0  0
  1  2  2  0
  2  3  1  0
  3  4  1  0
  4  5  1  0
  5  6  2  0
  5  7  1  0
  7  8  1  0
  8  9  1  0
  9 10  1  0
  9 11  1  0
 11 12  1  0
 12 13  1  0
 13 14  2  0
 14 15  1  0
 15 16  2  0
 16 17  1  0
 16 18  1  0
 18 19  2  0
  2 20  1  0
 20 21  2  0
 21 22  1  0
 22 23  2  0
 23 24  1  0
 24 25  2  0
 25 26  1  0
 26 27  2  0
 27 28  1  0
 28 29  2  0
 12  7  1  0
 19 13  1  0
 29 20  1  0
 28 23  1  0
  3 30  1  0
  4 31  1  0
  4 32  1  0
  8 33  1  0
  8 34  1  0
  9 35  1  6
 10 36  1  0
 11 37  1  0
 11 38  1  0
 12 39  1  1
 14 40  1  0
 15 41  1  0
 18 42  1  0
 19 43  1  0
 21 44  1  0
 22 45  1  0
 24 46  1  0
 25 47  1  0
 26 48  1  0
 27 49  1  0
M  END
>  <smiles>  (8) 
O=C(NCC(=O)N1C[C@H](O)C[C@H]1c1ccc(Cl)cc1)c1ccc2ccccc2n1

>  <score_type>  (8) 
oracle

>  <origin>  (8) 
autodockgpu

>  <m_score__min__energy>  (8) 
-9.1999999999999993

>  <m_primary>  (8) 
energy

>  <meeko>  (8) 
{"free_energy": -7.54, "intermolecular_energy": -9.33, "internal_energy": -2.86, "cluster_size": 8, "cluster_id": 4, "rank_in_cluster": 5}

>  <energy>  (8) 
-8.47

>  <cluster_rmsd>  (8) 
0.0

>  <rmsd>  (8) 
271.47

>  <cluster>  (8) 
2

$$$$

     RDKit          3D

 49 52  0  0  0  0  0  0  0  0999 V2000
  141.2490   71.8000  221.3760 O   0  0  0  0  0  0  0  0  0  0  0  0
  140.5990   72.3120  222.3240 C   0  0  0  0  0  0  0  0  0  0  0  0
  140.1100   73.6590  222.2910 N   0  0  0  0  0  0  0  0  0  0  0  0
  140.3740   74.4370  221.1320 C   0  0  0  0  0  0  0  0  0  0  0  0
  140.8270   75.8070  221.3670 C   0  0  0  0  0  0  0  0  0  0  0  0
  140.5310   76.2690  222.5370 O   0  0  0  0  0  0  0  0  0  0  0  0
  141.5220   76.6860  220.5300 N   0  0  0  0  0  0  0  0  0  0  0  0
  142.4990   76.4190  219.4530 C   0  0  0  0  0  0  0  0  0  0  0  0
  142.1630   77.5110  218.3980 C   0  0  2  0  0  0  0  0  0  0  0  0
  143.3180   78.2670  218.2120 O   0  0  0  0  0  0  0  0  0  0  0  0
  141.0720   78.3630  219.0820 C   0  0  0  0  0  0  0  0  0  0  0  0
  141.4780   78.1630  220.5040 C   0  0  1  0  0  0  0  0  0  0  0  0
  140.7070   78.8070  221.5270 C   0  0  0  0  0  0  0  0  0  0  0  0
  139.3180   78.8830  221.3820 C   0  0  0  0  0  0  0  0  0  0  0  0
  138.5170   79.5140  222.3040 C   0  0  0  0  0  0  0  0  0  0  0  0
  139.0570   80.1060  223.4240 C   0  0  0  0  0  0  0  0  0  0  0  0
  138.0850   80.9220  224.6280 Cl  0  0  0  0  0  0  0  0  0  0  0  0
  140.4200   80.0370  223.5770 C   0  0  0  0  0  0  0  0  0  0  0  0
  141.2200   79.4060  222.6540 C   0  0  0  0  0  0  0  0  0  0  0  0
  140.3170   71.5220  223.5190 C   0  0  0  0  0  0  0  0  0  0  0  0
  139.6150   70.3260  223.4070 C   0  0  0  0  0  0  0  0  0  0  0  0
  139.3210   69.5420  224.4940 C   0  0  0  0  0  0  0  0  0  0  0  0
  139.7260   69.9320  225.7510 C   0  0  0  0  0  0  0  0  0  0  0  0
  139.4380   69.1530  226.8510 C   0  0  0  0  0  0  0  0  0  0  0  0
  139.8530   69.5660  228.0830 C   0  0  0  0  0  0  0  0  0  0  0  0
  140.5420   70.7380  228.1990 C   0  0  0  0  0  0  0  0  0  0  0  0
  140.8420   71.5350  227.1020 C   0  0  0  0  0  0  0  0  0  0  0  0
  140.4280   71.1300  225.8470 C   0  0  0  0  0  0  0  0  0  0  0  0
  140.7000   71.8790  224.7510 N   0  0  0  0  0  0  0  0  0  0  0  0
  139.5660   74.0650  223.1050 H   0  0  0  0  0  0  0  0  0  0  0  0
  141.1521   73.9207  220.5506 H   0  0  0  0  0  0  0  0  0  0  0  0
  139.4091   74.5297  220.6120 H   0  0  0  0  0  0  0  0  0  0  0  0
  143.5306   76.5271  219.8192 H   0  0  0  0  0  0  0  0  0  0  0  0
  142.4355   75.3960  219.0537 H   0  0  0  0  0  0  0  0  0  0  0  0
  141.8290   77.1241  217.4239 H   0  0  0  0  0  0  0  0  0  0  0  0
  143.3560   78.6400  217.2960 H   0  0  0  0  0  0  0  0  0  0  0  0
  141.1257   79.4200  218.7824 H   0  0  0  0  0  0  0  0  0  0  0  0
  140.0350   78.0853  218.8423 H   0  0  0  0  0  0  0  0  0  0  0  0
  142.4193   78.6653  220.7717 H   0  0  0  0  0  0  0  0  0  0  0  0
  138.8503   78.4219  220.4996 H   0  0  0  0  0  0  0  0  0  0  0  0
  137.4291   79.5465  222.1448 H   0  0  0  0  0  0  0  0  0  0  0  0
  140.8838   80.4987  224.4612 H   0  0  0  0  0  0  0  0  0  0  0  0
  142.3067   79.3792  222.8224 H   0  0  0  0  0  0  0  0  0  0  0  0
  139.2837   69.9970  222.4110 H   0  0  0  0  0  0  0  0  0  0  0  0
  138.7627   68.6035  224.3615 H   0  0  0  0  0  0  0  0  0  0  0  0
  138.8812   68.2112  226.7369 H   0  0  0  0  0  0  0  0  0  0  0  0
  139.6343   68.9600  228.9745 H   0  0  0  0  0  0  0  0  0  0  0  0
  140.8716   71.0631  229.1969 H   0  0  0  0  0  0  0  0  0  0  0  0
  141.4004   72.4740  227.2299 H   0  0  0  0  0  0  0  0  0  0  0  0
  1  2  2  0
  2  3  1  0
  3  4  1  0
  4  5  1  0
  5  6  2  0
  5  7  1  0
  7  8  1  0
  8  9  1  0
  9 10  1  0
  9 11  1  0
 11 12  1  0
 12 13  1  0
 13 14  2  0
 14 15  1  0
 15 16  2  0
 16 17  1  0
 16 18  1  0
 18 19  2  0
  2 20  1  0
 20 21  2  0
 21 22  1  0
 22 23  2  0
 23 24  1  0
 24 25  2  0
 25 26  1  0
 26 27  2  0
 27 28  1  0
 28 29  2  0
 12  7  1  0
 19 13  1  0
 29 20  1  0
 28 23  1  0
  3 30  1  0
  4 31  1  0
  4 32  1  0
  8 33  1  0
  8 34  1  0
  9 35  1  6
 10 36  1  0
 11 37  1  0
 11 38  1  0
 12 39  1  6
 14 40  1  0
 15 41  1  0
 18 42  1  0
 19 43  1  0
 21 44  1  0
 22 45  1  0
 24 46  1  0
 25 47  1  0
 26 48  1  0
 27 49  1  0
M  END
>  <smiles>  (9) 
O=C(NCC(=O)N1C[C@H](O)C[C@H]1c1ccc(Cl)cc1)c1ccc2ccccc2n1

>  <score_type>  (9) 
oracle

>  <origin>  (9) 
autodockgpu

>  <m_score__min__energy>  (9) 
-9.1999999999999993

>  <m_primary>  (9) 
energy

>  <meeko>  (9) 
{"free_energy": -8.58, "intermolecular_energy": -10.37, "internal_energy": -1.43, "cluster_size": 7, "cluster_id": 1, "rank_in_cluster": 7}

>  <energy>  (9) 
-8.04

>  <cluster_rmsd>  (9) 
0.54

>  <rmsd>  (9) 
271.26

>  <cluster>  (9) 
2

$$$$

     RDKit          3D

 49 52  0  0  0  0  0  0  0  0999 V2000
  136.2370   77.2500  222.7070 O   0  0  0  0  0  0  0  0  0  0  0  0
  136.4190   76.0800  223.1320 C   0  0  0  0  0  0  0  0  0  0  0  0
  137.5010   75.2520  222.6870 N   0  0  0  0  0  0  0  0  0  0  0  0
  138.4010   75.7880  221.7270 C   0  0  0  0  0  0  0  0  0  0  0  0
  139.7570   75.2420  221.7410 C   0  0  0  0  0  0  0  0  0  0  0  0
  139.8630   74.1060  222.3480 O   0  0  0  0  0  0  0  0  0  0  0  0
  140.9440   75.7550  221.2090 N   0  0  0  0  0  0  0  0  0  0  0  0
  142.0710   75.0740  220.5370 C   0  0  0  0  0  0  0  0  0  0  0  0
  142.4950   76.0950  219.4440 C   0  0  2  0  0  0  0  0  0  0  0  0
  143.8300   76.4160  219.6810 O   0  0  0  0  0  0  0  0  0  0  0  0
  141.5970   77.3210  219.7130 C   0  0  0  0  0  0  0  0  0  0  0  0
  141.4140   77.1560  221.1860 C   0  0  1  0  0  0  0  0  0  0  0  0
  140.6130   78.1200  221.8830 C   0  0  0  0  0  0  0  0  0  0  0  0
  140.9820   78.4980  223.1770 C   0  0  0  0  0  0  0  0  0  0  0  0
  140.2460   79.3920  223.9190 C   0  0  0  0  0  0  0  0  0  0  0  0
  139.0990   79.9580  223.4110 C   0  0  0  0  0  0  0  0  0  0  0  0
  138.1240   81.0990  224.3110 Cl  0  0  0  0  0  0  0  0  0  0  0  0
  138.7270   79.5940  222.1400 C   0  0  0  0  0  0  0  0  0  0  0  0
  139.4650   78.7010  221.3990 C   0  0  0  0  0  0  0  0  0  0  0  0
  135.5050   75.5180  224.1220 C   0  0  0  0  0  0  0  0  0  0  0  0
  134.7010   76.3660  224.8790 C   0  0  0  0  0  0  0  0  0  0  0  0
  133.8230   75.8950  225.8240 C   0  0  0  0  0  0  0  0  0  0  0  0
  133.7160   74.5410  226.0470 C   0  0  0  0  0  0  0  0  0  0  0  0
  132.8380   74.0560  226.9920 C   0  0  0  0  0  0  0  0  0  0  0  0
  132.7540   72.7090  227.1910 C   0  0  0  0  0  0  0  0  0  0  0  0
  133.5400   71.8740  226.4510 C   0  0  0  0  0  0  0  0  0  0  0  0
  134.4300   72.3440  225.4940 C   0  0  0  0  0  0  0  0  0  0  0  0
  134.5260   73.7070  225.2820 C   0  0  0  0  0  0  0  0  0  0  0  0
  135.3820   74.2060  224.3580 N   0  0  0  0  0  0  0  0  0  0  0  0
  137.6300   74.2690  223.0610 H   0  0  0  0  0  0  0  0  0  0  0  0
  137.9756   75.6057  220.7291 H   0  0  0  0  0  0  0  0  0  0  0  0
  138.5084   76.8520  221.9847 H   0  0  0  0  0  0  0  0  0  0  0  0
  142.8945   74.8838  221.2411 H   0  0  0  0  0  0  0  0  0  0  0  0
  141.8009   74.0890  220.1286 H   0  0  0  0  0  0  0  0  0  0  0  0
  142.3929   75.7319  218.4107 H   0  0  0  0  0  0  0  0  0  0  0  0
  143.9080   77.2500  220.2070 H   0  0  0  0  0  0  0  0  0  0  0  0
  142.1024   78.2655  219.4632 H   0  0  0  0  0  0  0  0  0  0  0  0
  140.6699   77.3676  219.1228 H   0  0  0  0  0  0  0  0  0  0  0  0
  142.3240   77.3555  221.7710 H   0  0  0  0  0  0  0  0  0  0  0  0
  141.8926   78.0655  223.6172 H   0  0  0  0  0  0  0  0  0  0  0  0
  140.5789   79.6584  224.9330 H   0  0  0  0  0  0  0  0  0  0  0  0
  137.8153   80.0279  221.7035 H   0  0  0  0  0  0  0  0  0  0  0  0
  139.1253   78.4430  220.3851 H   0  0  0  0  0  0  0  0  0  0  0  0
  134.7716   77.4513  224.7143 H   0  0  0  0  0  0  0  0  0  0  0  0
  133.2061   76.5988  226.4020 H   0  0  0  0  0  0  0  0  0  0  0  0
  132.2131   74.7459  227.5781 H   0  0  0  0  0  0  0  0  0  0  0  0
  132.0600   72.3001  227.9401 H   0  0  0  0  0  0  0  0  0  0  0  0
  133.4659   70.7894  226.6186 H   0  0  0  0  0  0  0  0  0  0  0  0
  135.0485   71.6433  224.9140 H   0  0  0  0  0  0  0  0  0  0  0  0
  1  2  2  0
  2  3  1  0
  3  4  1  0
  4  5  1  0
  5  6  2  0
  5  7  1  0
  7  8  1  0
  8  9  1  0
  9 10  1  0
  9 11  1  0
 11 12  1  0
 12 13  1  0
 13 14  2  0
 14 15  1  0
 15 16  2  0
 16 17  1  0
 16 18  1  0
 18 19  2  0
  2 20  1  0
 20 21  2  0
 21 22  1  0
 22 23  2  0
 23 24  1  0
 24 25  2  0
 25 26  1  0
 26 27  2  0
 27 28  1  0
 28 29  2  0
 12  7  1  0
 19 13  1  0
 29 20  1  0
 28 23  1  0
  3 30  1  0
  4 31  1  0
  4 32  1  0
  8 33  1  0
  8 34  1  0
  9 35  1  6
 10 36  1  0
 11 37  1  0
 11 38  1  0
 12 39  1  1
 14 40  1  0
 15 41  1  0
 18 42  1  0
 19 43  1  0
 21 44  1  0
 22 45  1  0
 24 46  1  0
 25 47  1  0
 26 48  1  0
 27 49  1  0
M  END
>  <smiles>  (10) 
O=C(NCC(=O)N1C[C@H](O)C[C@H]1c1ccc(Cl)cc1)c1ccc2ccccc2n1

>  <score_type>  (10) 
oracle

>  <origin>  (10) 
autodockgpu

>  <m_score__min__energy>  (10) 
-9.1999999999999993

>  <m_primary>  (10) 
energy

>  <meeko>  (10) 
{"free_energy": -7.77, "intermolecular_energy": -9.56, "internal_energy": -2.07, "cluster_size": 1, "cluster_id": 5, "rank_in_cluster": 1}

>  <energy>  (10) 
-7.89

>  <cluster_rmsd>  (10) 
0.0

>  <rmsd>  (10) 
271.16

>  <cluster>  (10) 
3

$$$$

     RDKit          3D

 49 52  0  0  0  0  0  0  0  0999 V2000
  140.0630   73.6100  222.3290 O   0  0  0  0  0  0  0  0  0  0  0  0
  140.0340   72.3570  222.2160 C   0  0  0  0  0  0  0  0  0  0  0  0
  139.9720   71.6940  220.9460 N   0  0  0  0  0  0  0  0  0  0  0  0
  139.9450   72.4970  219.7740 C   0  0  0  0  0  0  0  0  0  0  0  0
  141.2190   73.0920  219.3740 C   0  0  0  0  0  0  0  0  0  0  0  0
  141.2030   73.6390  218.2030 O   0  0  0  0  0  0  0  0  0  0  0  0
  142.4390   73.1590  220.0540 N   0  0  0  0  0  0  0  0  0  0  0  0
  143.3270   72.0830  220.5450 C   0  0  0  0  0  0  0  0  0  0  0  0
  144.7480   72.6660  220.3040 C   0  0  2  0  0  0  0  0  0  0  0  0
  145.3860   72.7100  221.5420 O   0  0  0  0  0  0  0  0  0  0  0  0
  144.4800   74.0960  219.7910 C   0  0  0  0  0  0  0  0  0  0  0  0
  143.1870   74.3560  220.4910 C   0  0  1  0  0  0  0  0  0  0  0  0
  142.5520   75.6260  220.2930 C   0  0  0  0  0  0  0  0  0  0  0  0
  141.4580   75.9690  221.0940 C   0  0  0  0  0  0  0  0  0  0  0  0
  140.7780   77.1530  220.9410 C   0  0  0  0  0  0  0  0  0  0  0  0
  141.1500   78.0640  219.9770 C   0  0  0  0  0  0  0  0  0  0  0  0
  140.3200   79.5850  219.7370 Cl  0  0  0  0  0  0  0  0  0  0  0  0
  142.2230   77.7380  219.1840 C   0  0  0  0  0  0  0  0  0  0  0  0
  142.9020   76.5520  219.3390 C   0  0  0  0  0  0  0  0  0  0  0  0
  140.0650   71.5200  223.4120 C   0  0  0  0  0  0  0  0  0  0  0  0
  139.5760   70.2170  223.3560 C   0  0  0  0  0  0  0  0  0  0  0  0
  139.5790   69.3850  224.4480 C   0  0  0  0  0  0  0  0  0  0  0  0
  140.0790   69.8320  225.6500 C   0  0  0  0  0  0  0  0  0  0  0  0
  140.0880   69.0060  226.7540 C   0  0  0  0  0  0  0  0  0  0  0  0
  140.5900   69.4770  227.9310 C   0  0  0  0  0  0  0  0  0  0  0  0
  141.0700   70.7530  227.9910 C   0  0  0  0  0  0  0  0  0  0  0  0
  141.0690   71.6000  226.8890 C   0  0  0  0  0  0  0  0  0  0  0  0
  140.5640   71.1360  225.6890 C   0  0  0  0  0  0  0  0  0  0  0  0
  140.5450   71.9300  224.5920 N   0  0  0  0  0  0  0  0  0  0  0  0
  139.9460   70.6370  220.8800 H   0  0  0  0  0  0  0  0  0  0  0  0
  139.5921   71.8680  218.9434 H   0  0  0  0  0  0  0  0  0  0  0  0
  139.2841   73.3439  220.0106 H   0  0  0  0  0  0  0  0  0  0  0  0
  143.1563   71.8862  221.6137 H   0  0  0  0  0  0  0  0  0  0  0  0
  143.1618   71.1200  220.0397 H   0  0  0  0  0  0  0  0  0  0  0  0
  145.3695   72.0902  219.6025 H   0  0  0  0  0  0  0  0  0  0  0  0
  145.2220   71.8810  222.0570 H   0  0  0  0  0  0  0  0  0  0  0  0
  145.2662   74.7999  220.1017 H   0  0  0  0  0  0  0  0  0  0  0  0
  144.4573   74.2100  218.6972 H   0  0  0  0  0  0  0  0  0  0  0  0
  143.2874   74.4747  221.5800 H   0  0  0  0  0  0  0  0  0  0  0  0
  141.1304   75.2660  221.8740 H   0  0  0  0  0  0  0  0  0  0  0  0
  139.9243   77.3767  221.5977 H   0  0  0  0  0  0  0  0  0  0  0  0
  142.5476   78.4435  218.4050 H   0  0  0  0  0  0  0  0  0  0  0  0
  143.7540   76.3371  218.6772 H   0  0  0  0  0  0  0  0  0  0  0  0
  139.1734   69.8416  222.4037 H   0  0  0  0  0  0  0  0  0  0  0  0
  139.1824   68.3626  224.3625 H   0  0  0  0  0  0  0  0  0  0  0  0
  139.6954   67.9807  226.6861 H   0  0  0  0  0  0  0  0  0  0  0  0
  140.6079   68.8345  228.8237 H   0  0  0  0  0  0  0  0  0  0  0  0
  141.4719   71.1243  228.9452 H   0  0  0  0  0  0  0  0  0  0  0  0
  141.4639   72.6234  226.9706 H   0  0  0  0  0  0  0  0  0  0  0  0
  1  2  2  0
  2  3  1  0
  3  4  1  0
  4  5  1  0
  5  6  2  0
  5  7  1  0
  7  8  1  0
  8  9  1  0
  9 10  1  0
  9 11  1  0
 11 12  1  0
 12 13  1  0
 13 14  2  0
 14 15  1  0
 15 16  2  0
 16 17  1  0
 16 18  1  0
 18 19  2  0
  2 20  1  0
 20 21  2  0
 21 22  1  0
 22 23  2  0
 23 24  1  0
 24 25  2  0
 25 26  1  0
 26 27  2  0
 27 28  1  0
 28 29  2  0
 12  7  1  0
 19 13  1  0
 29 20  1  0
 28 23  1  0
  3 30  1  0
  4 31  1  0
  4 32  1  0
  8 33  1  0
  8 34  1  0
  9 35  1  6
 10 36  1  0
 11 37  1  0
 11 38  1  0
 12 39  1  1
 14 40  1  0
 15 41  1  0
 18 42  1  0
 19 43  1  0
 21 44  1  0
 22 45  1  0
 24 46  1  0
 25 47  1  0
 26 48  1  0
 27 49  1  0
M  END
>  <smiles>  (11) 
O=C(NCC(=O)N1C[C@H](O)C[C@H]1c1ccc(Cl)cc1)c1ccc2ccccc2n1

>  <score_type>  (11) 
oracle

>  <origin>  (11) 
autodockgpu

>  <m_score__min__energy>  (11) 
-9.1999999999999993

>  <m_primary>  (11) 
energy

>  <meeko>  (11) 
{"free_energy": -8.04, "intermolecular_energy": -9.83, "internal_energy": -1.66, "cluster_size": 2, "cluster_id": 2, "rank_in_cluster": 2}

>  <energy>  (11) 
-7.85

>  <cluster_rmsd>  (11) 
0.12

>  <rmsd>  (11) 
271.16

>  <cluster>  (11) 
3

$$$$

     RDKit          3D

 49 52  0  0  0  0  0  0  0  0999 V2000
  138.8690   75.2050  221.8700 O   0  0  0  0  0  0  0  0  0  0  0  0
  140.0340   75.6580  222.0190 C   0  0  0  0  0  0  0  0  0  0  0  0
  141.2060   74.8450  221.8750 N   0  0  0  0  0  0  0  0  0  0  0  0
  141.0330   73.4740  221.5470 C   0  0  0  0  0  0  0  0  0  0  0  0
  141.8510   72.9680  220.4460 C   0  0  0  0  0  0  0  0  0  0  0  0
  141.2470   72.1130  219.6880 O   0  0  0  0  0  0  0  0  0  0  0  0
  143.1710   73.2610  220.0920 N   0  0  0  0  0  0  0  0  0  0  0  0
  144.4120   72.4760  220.2670 C   0  0  0  0  0  0  0  0  0  0  0  0
  145.2130   72.7950  218.9730 C   0  0  2  0  0  0  0  0  0  0  0  0
  146.4230   73.3590  219.3710 O   0  0  0  0  0  0  0  0  0  0  0  0
  144.3450   73.8460  218.2500 C   0  0  0  0  0  0  0  0  0  0  0  0
  143.7030   74.4770  219.4410 C   0  0  1  0  0  0  0  0  0  0  0  0
  142.7800   75.5530  219.2240 C   0  0  0  0  0  0  0  0  0  0  0  0
  143.0860   76.8200  219.7300 C   0  0  0  0  0  0  0  0  0  0  0  0
  142.2370   77.8920  219.5910 C   0  0  0  0  0  0  0  0  0  0  0  0
  141.0310   77.7590  218.9380 C   0  0  0  0  0  0  0  0  0  0  0  0
  139.9120   79.0880  218.7330 Cl  0  0  0  0  0  0  0  0  0  0  0  0
  140.7200   76.5190  218.4370 C   0  0  0  0  0  0  0  0  0  0  0  0
  141.5720   75.4480  218.5770 C   0  0  0  0  0  0  0  0  0  0  0  0
  140.2270   77.0660  222.3530 C   0  0  0  0  0  0  0  0  0  0  0  0
  139.1240   77.9060  222.4690 C   0  0  0  0  0  0  0  0  0  0  0  0
  139.2440   79.2370  222.7800 C   0  0  0  0  0  0  0  0  0  0  0  0
  140.4900   79.7840  222.9890 C   0  0  0  0  0  0  0  0  0  0  0  0
  140.6240   81.1190  223.3030 C   0  0  0  0  0  0  0  0  0  0  0  0
  141.8720   81.6310  223.5050 C   0  0  0  0  0  0  0  0  0  0  0  0
  142.9570   80.8120  223.3920 C   0  0  0  0  0  0  0  0  0  0  0  0
  142.8420   79.4640  223.0770 C   0  0  0  0  0  0  0  0  0  0  0  0
  141.5830   78.9310  222.8700 C   0  0  0  0  0  0  0  0  0  0  0  0
  141.4280   77.6210  222.5610 N   0  0  0  0  0  0  0  0  0  0  0  0
  142.1760   75.2520  222.0080 H   0  0  0  0  0  0  0  0  0  0  0  0
  141.2713   72.8815  222.4426 H   0  0  0  0  0  0  0  0  0  0  0  0
  139.9907   73.3805  221.2080 H   0  0  0  0  0  0  0  0  0  0  0  0
  144.9621   72.8005  221.1626 H   0  0  0  0  0  0  0  0  0  0  0  0
  144.2284   71.4008  220.4092 H   0  0  0  0  0  0  0  0  0  0  0  0
  145.4194   71.9253  218.3319 H   0  0  0  0  0  0  0  0  0  0  0  0
  146.3750   74.3480  219.3610 H   0  0  0  0  0  0  0  0  0  0  0  0
  144.9544   74.5636  217.6811 H   0  0  0  0  0  0  0  0  0  0  0  0
  143.6521   73.4484  217.4938 H   0  0  0  0  0  0  0  0  0  0  0  0
  144.3943   75.0737  220.0543 H   0  0  0  0  0  0  0  0  0  0  0  0
  144.0401   76.9640  220.2581 H   0  0  0  0  0  0  0  0  0  0  0  0
  142.5242   78.8691  220.0066 H   0  0  0  0  0  0  0  0  0  0  0  0
  139.7648   76.3783  217.9100 H   0  0  0  0  0  0  0  0  0  0  0  0
  141.2766   74.4752  218.1571 H   0  0  0  0  0  0  0  0  0  0  0  0
  138.1197   77.4881  222.3055 H   0  0  0  0  0  0  0  0  0  0  0  0
  138.3456   79.8664  222.8623 H   0  0  0  0  0  0  0  0  0  0  0  0
  139.7365   81.7631  223.3896 H   0  0  0  0  0  0  0  0  0  0  0  0
  142.0022   82.6939  223.7566 H   0  0  0  0  0  0  0  0  0  0  0  0
  143.9593   81.2343  223.5563 H   0  0  0  0  0  0  0  0  0  0  0  0
  143.7377   78.8310  222.9936 H   0  0  0  0  0  0  0  0  0  0  0  0
  1  2  2  0
  2  3  1  0
  3  4  1  0
  4  5  1  0
  5  6  2  0
  5  7  1  0
  7  8  1  0
  8  9  1  0
  9 10  1  0
  9 11  1  0
 11 12  1  0
 12 13  1  0
 13 14  2  0
 14 15  1  0
 15 16  2  0
 16 17  1  0
 16 18  1  0
 18 19  2  0
  2 20  1  0
 20 21  2  0
 21 22  1  0
 22 23  2  0
 23 24  1  0
 24 25  2  0
 25 26  1  0
 26 27  2  0
 27 28  1  0
 28 29  2  0
 12  7  1  0
 19 13  1  0
 29 20  1  0
 28 23  1  0
  3 30  1  0
  4 31  1  0
  4 32  1  0
  8 33  1  0
  8 34  1  0
  9 35  1  6
 10 36  1  0
 11 37  1  0
 11 38  1  0
 12 39  1  1
 14 40  1  0
 15 41  1  0
 18 42  1  0
 19 43  1  0
 21 44  1  0
 22 45  1  0
 24 46  1  0
 25 47  1  0
 26 48  1  0
 27 49  1  0
M  END
>  <smiles>  (12) 
O=C(NCC(=O)N1C[C@H](O)C[C@H]1c1ccc(Cl)cc1)c1ccc2ccccc2n1

>  <score_type>  (12) 
oracle

>  <origin>  (12) 
autodockgpu

>  <m_score__min__energy>  (12) 
-9.1999999999999993

>  <m_primary>  (12) 
energy

>  <meeko>  (12) 
{"free_energy": -7.55, "intermolecular_energy": -9.34, "internal_energy": -2.87, "cluster_size": 8, "cluster_id": 4, "rank_in_cluster": 3}

>  <energy>  (12) 
-7.8

>  <cluster_rmsd>  (12) 
0.0

>  <rmsd>  (12) 
271.51

>  <cluster>  (12) 
4

$$$$

     RDKit          3D

 49 52  0  0  0  0  0  0  0  0999 V2000
  138.8710   75.1740  221.9560 O   0  0  0  0  0  0  0  0  0  0  0  0
  140.0350   75.6410  222.0480 C   0  0  0  0  0  0  0  0  0  0  0  0
  141.2090   74.8410  221.8610 N   0  0  0  0  0  0  0  0  0  0  0  0
  141.0380   73.4640  221.5560 C   0  0  0  0  0  0  0  0  0  0  0  0
  141.8650   72.9380  220.4710 C   0  0  0  0  0  0  0  0  0  0  0  0
  141.2740   72.0530  219.7380 O   0  0  0  0  0  0  0  0  0  0  0  0
  143.1810   73.2400  220.1090 N   0  0  0  0  0  0  0  0  0  0  0  0
  144.4290   72.4660  220.2840 C   0  0  0  0  0  0  0  0  0  0  0  0
  145.2220   72.7830  218.9850 C   0  0  2  0  0  0  0  0  0  0  0  0
  146.4290   73.3600  219.3740 O   0  0  0  0  0  0  0  0  0  0  0  0
  144.3430   73.8240  218.2590 C   0  0  0  0  0  0  0  0  0  0  0  0
  143.7000   74.4560  219.4490 C   0  0  1  0  0  0  0  0  0  0  0  0
  142.7680   75.5230  219.2300 C   0  0  0  0  0  0  0  0  0  0  0  0
  143.0720   76.7990  219.7150 C   0  0  0  0  0  0  0  0  0  0  0  0
  142.2140   77.8630  219.5730 C   0  0  0  0  0  0  0  0  0  0  0  0
  141.0010   77.7140  218.9380 C   0  0  0  0  0  0  0  0  0  0  0  0
  139.8700   79.0330  218.7300 Cl  0  0  0  0  0  0  0  0  0  0  0  0
  140.6910   76.4650  218.4570 C   0  0  0  0  0  0  0  0  0  0  0  0
  141.5520   75.4020  218.6010 C   0  0  0  0  0  0  0  0  0  0  0  0
  140.2260   77.0560  222.3570 C   0  0  0  0  0  0  0  0  0  0  0  0
  139.1220   77.9000  222.4380 C   0  0  0  0  0  0  0  0  0  0  0  0
  139.2410   79.2370  222.7250 C   0  0  0  0  0  0  0  0  0  0  0  0
  140.4840   79.7850  222.9440 C   0  0  0  0  0  0  0  0  0  0  0  0
  140.6160   81.1260  223.2330 C   0  0  0  0  0  0  0  0  0  0  0  0
  141.8620   81.6400  223.4460 C   0  0  0  0  0  0  0  0  0  0  0  0
  142.9470   80.8160  223.3670 C   0  0  0  0  0  0  0  0  0  0  0  0
  142.8340   79.4620  223.0770 C   0  0  0  0  0  0  0  0  0  0  0  0
  141.5780   78.9280  222.8600 C   0  0  0  0  0  0  0  0  0  0  0  0
  141.4240   77.6120  222.5740 N   0  0  0  0  0  0  0  0  0  0  0  0
  142.1790   75.2610  221.9460 H   0  0  0  0  0  0  0  0  0  0  0  0
  141.2685   72.8875  222.4640 H   0  0  0  0  0  0  0  0  0  0  0  0
  139.9986   73.3649  221.2100 H   0  0  0  0  0  0  0  0  0  0  0  0
  144.9801   72.8006  221.1752 H   0  0  0  0  0  0  0  0  0  0  0  0
  144.2546   71.3903  220.4339 H   0  0  0  0  0  0  0  0  0  0  0  0
  145.4323   71.9104  218.3491 H   0  0  0  0  0  0  0  0  0  0  0  0
  146.3670   74.3480  219.3770 H   0  0  0  0  0  0  0  0  0  0  0  0
  144.9449   74.5435  217.6845 H   0  0  0  0  0  0  0  0  0  0  0  0
  143.6508   73.4172  217.5071 H   0  0  0  0  0  0  0  0  0  0  0  0
  144.3887   75.0617  220.0563 H   0  0  0  0  0  0  0  0  0  0  0  0
  144.0320   76.9565  220.2284 H   0  0  0  0  0  0  0  0  0  0  0  0
  142.5000   78.8474  219.9720 H   0  0  0  0  0  0  0  0  0  0  0  0
  139.7302   76.3112  217.9439 H   0  0  0  0  0  0  0  0  0  0  0  0
  141.2572   74.4215  218.1989 H   0  0  0  0  0  0  0  0  0  0  0  0
  138.1196   77.4810  222.2661 H   0  0  0  0  0  0  0  0  0  0  0  0
  138.3431   79.8701  222.7799 H   0  0  0  0  0  0  0  0  0  0  0  0
  139.7287   81.7735  223.2912 H   0  0  0  0  0  0  0  0  0  0  0  0
  141.9905   82.7073  223.6789 H   0  0  0  0  0  0  0  0  0  0  0  0
  143.9476   81.2393  223.5392 H   0  0  0  0  0  0  0  0  0  0  0  0
  143.7294   78.8256  223.0210 H   0  0  0  0  0  0  0  0  0  0  0  0
  1  2  2  0
  2  3  1  0
  3  4  1  0
  4  5  1  0
  5  6  2  0
  5  7  1  0
  7  8  1  0
  8  9  1  0
  9 10  1  0
  9 11  1  0
 11 12  1  0
 12 13  1  0
 13 14  2  0
 14 15  1  0
 15 16  2  0
 16 17  1  0
 16 18  1  0
 18 19  2  0
  2 20  1  0
 20 21  2  0
 21 22  1  0
 22 23  2  0
 23 24  1  0
 24 25  2  0
 25 26  1  0
 26 27  2  0
 27 28  1  0
 28 29  2  0
 12  7  1  0
 19 13  1  0
 29 20  1  0
 28 23  1  0
  3 30  1  0
  4 31  1  0
  4 32  1  0
  8 33  1  0
  8 34  1  0
  9 35  1  6
 10 36  1  0
 11 37  1  0
 11 38  1  0
 12 39  1  1
 14 40  1  0
 15 41  1  0
 18 42  1  0
 19 43  1  0
 21 44  1  0
 22 45  1  0
 24 46  1  0
 25 47  1  0
 26 48  1  0
 27 49  1  0
M  END
>  <smiles>  (13) 
O=C(NCC(=O)N1C[C@H](O)C[C@H]1c1ccc(Cl)cc1)c1ccc2ccccc2n1

>  <score_type>  (13) 
oracle

>  <origin>  (13) 
autodockgpu

>  <m_score__min__energy>  (13) 
-9.1999999999999993

>  <m_primary>  (13) 
energy

>  <meeko>  (13) 
{"free_energy": -7.57, "intermolecular_energy": -9.36, "internal_energy": -2.85, "cluster_size": 8, "cluster_id": 4, "rank_in_cluster": 2}

>  <energy>  (13) 
-7.57

>  <cluster_rmsd>  (13) 
1.05

>  <rmsd>  (13) 
271.44

>  <cluster>  (13) 
4

$$$$

     RDKit          3D

 49 52  0  0  0  0  0  0  0  0999 V2000
  141.3700   72.2350  222.0590 O   0  0  0  0  0  0  0  0  0  0  0  0
  140.3050   72.1900  222.7280 C   0  0  0  0  0  0  0  0  0  0  0  0
  139.1870   73.0460  222.4640 N   0  0  0  0  0  0  0  0  0  0  0  0
  139.2960   73.9800  221.3990 C   0  0  0  0  0  0  0  0  0  0  0  0
  139.9650   75.2410  221.7150 C   0  0  0  0  0  0  0  0  0  0  0  0
  139.4430   75.8810  222.7080 O   0  0  0  0  0  0  0  0  0  0  0  0
  141.0670   75.8550  221.1130 N   0  0  0  0  0  0  0  0  0  0  0  0
  142.1970   75.2750  220.3560 C   0  0  0  0  0  0  0  0  0  0  0  0
  142.4620   76.3390  219.2540 C   0  0  2  0  0  0  0  0  0  0  0  0
  143.7800   76.7650  219.4060 O   0  0  0  0  0  0  0  0  0  0  0  0
  141.4880   77.4840  219.6020 C   0  0  0  0  0  0  0  0  0  0  0  0
  141.4200   77.2890  221.0810 C   0  0  1  0  0  0  0  0  0  0  0  0
  140.5930   78.1780  221.8450 C   0  0  0  0  0  0  0  0  0  0  0  0
  141.0700   78.6650  223.0660 C   0  0  0  0  0  0  0  0  0  0  0  0
  140.3230   79.4940  223.8690 C   0  0  0  0  0  0  0  0  0  0  0  0
  139.0550   79.8820  223.4990 C   0  0  0  0  0  0  0  0  0  0  0  0
  138.0590   80.9330  224.4820 Cl  0  0  0  0  0  0  0  0  0  0  0  0
  138.5750   79.4090  222.3010 C   0  0  0  0  0  0  0  0  0  0  0  0
  139.3250   78.5810  221.5000 C   0  0  0  0  0  0  0  0  0  0  0  0
  140.1770   71.2320  223.8230 C   0  0  0  0  0  0  0  0  0  0  0  0
  139.5180   70.0250  223.6120 C   0  0  0  0  0  0  0  0  0  0  0  0
  139.3680   69.0880  224.6030 C   0  0  0  0  0  0  0  0  0  0  0  0
  139.8790   69.3280  225.8580 C   0  0  0  0  0  0  0  0  0  0  0  0
  139.7360   68.3940  226.8620 C   0  0  0  0  0  0  0  0  0  0  0  0
  140.2540   68.6610  228.0960 C   0  0  0  0  0  0  0  0  0  0  0  0
  140.9010   69.8430  228.3070 C   0  0  0  0  0  0  0  0  0  0  0  0
  141.0560   70.7960  227.3080 C   0  0  0  0  0  0  0  0  0  0  0  0
  140.5360   70.5390  226.0530 C   0  0  0  0  0  0  0  0  0  0  0  0
  140.6660   71.4420  225.0510 N   0  0  0  0  0  0  0  0  0  0  0  0
  138.3020   72.9880  223.0450 H   0  0  0  0  0  0  0  0  0  0  0  0
  139.8562   73.4972  220.5847 H   0  0  0  0  0  0  0  0  0  0  0  0
  138.2626   74.2514  221.1372 H   0  0  0  0  0  0  0  0  0  0  0  0
  143.0791   75.1448  221.0002 H   0  0  0  0  0  0  0  0  0  0  0  0
  141.9800   74.2757  219.9507 H   0  0  0  0  0  0  0  0  0  0  0  0
  142.3197   75.9803  218.2239 H   0  0  0  0  0  0  0  0  0  0  0  0
  143.8420   77.5050  220.0600 H   0  0  0  0  0  0  0  0  0  0  0  0
  141.8968   78.4694  219.3340 H   0  0  0  0  0  0  0  0  0  0  0  0
  140.5221   77.4606  219.0762 H   0  0  0  0  0  0  0  0  0  0  0  0
  142.3487   77.5550  221.6071 H   0  0  0  0  0  0  0  0  0  0  0  0
  142.0785   78.3745  223.3956 H   0  0  0  0  0  0  0  0  0  0  0  0
  140.7442   79.8521  224.8200 H   0  0  0  0  0  0  0  0  0  0  0  0
  137.5656   79.7003  221.9751 H   0  0  0  0  0  0  0  0  0  0  0  0
  138.8957   78.2289  220.5504 H   0  0  0  0  0  0  0  0  0  0  0  0
  139.1026   69.8145  222.6155 H   0  0  0  0  0  0  0  0  0  0  0  0
  138.8398   68.1459  224.3945 H   0  0  0  0  0  0  0  0  0  0  0  0
  139.2114   67.4462  226.6709 H   0  0  0  0  0  0  0  0  0  0  0  0
  140.1508   67.9306  228.9120 H   0  0  0  0  0  0  0  0  0  0  0  0
  141.3153   70.0493  229.3049 H   0  0  0  0  0  0  0  0  0  0  0  0
  141.5837   71.7393  227.5122 H   0  0  0  0  0  0  0  0  0  0  0  0
  1  2  2  0
  2  3  1  0
  3  4  1  0
  4  5  1  0
  5  6  2  0
  5  7  1  0
  7  8  1  0
  8  9  1  0
  9 10  1  0
  9 11  1  0
 11 12  1  0
 12 13  1  0
 13 14  2  0
 14 15  1  0
 15 16  2  0
 16 17  1  0
 16 18  1  0
 18 19  2  0
  2 20  1  0
 20 21  2  0
 21 22  1  0
 22 23  2  0
 23 24  1  0
 24 25  2  0
 25 26  1  0
 26 27  2  0
 27 28  1  0
 28 29  2  0
 12  7  1  0
 19 13  1  0
 29 20  1  0
 28 23  1  0
  3 30  1  0
  4 31  1  0
  4 32  1  0
  8 33  1  0
  8 34  1  0
  9 35  1  6
 10 36  1  0
 11 37  1  0
 11 38  1  0
 12 39  1  1
 14 40  1  0
 15 41  1  0
 18 42  1  0
 19 43  1  0
 21 44  1  0
 22 45  1  0
 24 46  1  0
 25 47  1  0
 26 48  1  0
 27 49  1  0
M  END
>  <smiles>  (14) 
O=C(NCC(=O)N1C[C@H](O)C[C@H]1c1ccc(Cl)cc1)c1ccc2ccccc2n1

>  <score_type>  (14) 
oracle

>  <origin>  (14) 
autodockgpu

>  <m_score__min__energy>  (14) 
-9.1999999999999993

>  <m_primary>  (14) 
energy

>  <meeko>  (14) 
{"free_energy": -9.2, "intermolecular_energy": -10.99, "internal_energy": -1.18, "cluster_size": 7, "cluster_id": 1, "rank_in_cluster": 1}

>  <energy>  (14) 
-7.55

>  <cluster_rmsd>  (14) 
1.03

>  <rmsd>  (14) 
271.44

>  <cluster>  (14) 
4

$$$$

     RDKit          3D

 49 52  0  0  0  0  0  0  0  0999 V2000
  138.8980   75.1000  221.9420 O   0  0  0  0  0  0  0  0  0  0  0  0
  140.0570   75.5830  222.0360 C   0  0  0  0  0  0  0  0  0  0  0  0
  141.2410   74.7990  221.8410 N   0  0  0  0  0  0  0  0  0  0  0  0
  141.0870   73.4220  221.5270 C   0  0  0  0  0  0  0  0  0  0  0  0
  141.7980   72.9500  220.3400 C   0  0  0  0  0  0  0  0  0  0  0  0
  141.0890   72.2020  219.5620 O   0  0  0  0  0  0  0  0  0  0  0  0
  143.1130   73.1800  219.9230 N   0  0  0  0  0  0  0  0  0  0  0  0
  144.3070   72.3100  219.9830 C   0  0  0  0  0  0  0  0  0  0  0  0
  145.0530   72.6480  218.6610 C   0  0  2  0  0  0  0  0  0  0  0  0
  146.3180   73.1130  219.0140 O   0  0  0  0  0  0  0  0  0  0  0  0
  144.2170   73.7900  218.0460 C   0  0  0  0  0  0  0  0  0  0  0  0
  143.6860   74.3930  219.3050 C   0  0  1  0  0  0  0  0  0  0  0  0
  142.8250   75.5360  219.1990 C   0  0  0  0  0  0  0  0  0  0  0  0
  141.6490   75.4310  218.4490 C   0  0  0  0  0  0  0  0  0  0  0  0
  140.7920   76.4910  218.2760 C   0  0  0  0  0  0  0  0  0  0  0  0
  141.0600   77.7190  218.8400 C   0  0  0  0  0  0  0  0  0  0  0  0
  140.0060   79.1020  218.6500 Cl  0  0  0  0  0  0  0  0  0  0  0  0
  142.2130   77.8330  219.5780 C   0  0  0  0  0  0  0  0  0  0  0  0
  143.0690   76.7710  219.7510 C   0  0  0  0  0  0  0  0  0  0  0  0
  140.2290   76.9970  222.3540 C   0  0  0  0  0  0  0  0  0  0  0  0
  139.1160   77.8310  222.4220 C   0  0  0  0  0  0  0  0  0  0  0  0
  139.2170   79.1670  222.7170 C   0  0  0  0  0  0  0  0  0  0  0  0
  140.4520   79.7260  222.9570 C   0  0  0  0  0  0  0  0  0  0  0  0
  140.5670   81.0670  223.2550 C   0  0  0  0  0  0  0  0  0  0  0  0
  141.8040   81.5920  223.4880 C   0  0  0  0  0  0  0  0  0  0  0  0
  142.8980   80.7790  223.4220 C   0  0  0  0  0  0  0  0  0  0  0  0
  142.8020   79.4250  223.1240 C   0  0  0  0  0  0  0  0  0  0  0  0
  141.5550   78.8800  222.8850 C   0  0  0  0  0  0  0  0  0  0  0  0
  141.4180   77.5640  222.5910 N   0  0  0  0  0  0  0  0  0  0  0  0
  142.2050   75.2310  221.9270 H   0  0  0  0  0  0  0  0  0  0  0  0
  141.4458   72.8387  222.3879 H   0  0  0  0  0  0  0  0  0  0  0  0
  140.0182   73.2872  221.3045 H   0  0  0  0  0  0  0  0  0  0  0  0
  144.9272   72.5497  220.8593 H   0  0  0  0  0  0  0  0  0  0  0  0
  144.0609   71.2424  220.0811 H   0  0  0  0  0  0  0  0  0  0  0  0
  145.1649   71.8031  217.9656 H   0  0  0  0  0  0  0  0  0  0  0  0
  146.3800   74.0950  218.9050 H   0  0  0  0  0  0  0  0  0  0  0  0
  144.8395   74.4984  217.4797 H   0  0  0  0  0  0  0  0  0  0  0  0
  143.4581   73.4795  217.3128 H   0  0  0  0  0  0  0  0  0  0  0  0
  144.4487   74.9097  219.9061 H   0  0  0  0  0  0  0  0  0  0  0  0
  141.4017   74.4665  217.9815 H   0  0  0  0  0  0  0  0  0  0  0  0
  139.8783   76.3571  217.6783 H   0  0  0  0  0  0  0  0  0  0  0  0
  142.4579   78.7994  220.0428 H   0  0  0  0  0  0  0  0  0  0  0  0
  143.9796   76.9145  220.3512 H   0  0  0  0  0  0  0  0  0  0  0  0
  138.1204   77.4034  222.2324 H   0  0  0  0  0  0  0  0  0  0  0  0
  138.3122   79.7909  222.7617 H   0  0  0  0  0  0  0  0  0  0  0  0
  139.6726   81.7054  223.3042 H   0  0  0  0  0  0  0  0  0  0  0  0
  141.9186   82.6597  223.7267 H   0  0  0  0  0  0  0  0  0  0  0  0
  143.8917   81.2110  223.6115 H   0  0  0  0  0  0  0  0  0  0  0  0
  143.7042   78.7973  223.0791 H   0  0  0  0  0  0  0  0  0  0  0  0
  1  2  2  0
  2  3  1  0
  3  4  1  0
  4  5  1  0
  5  6  2  0
  5  7  1  0
  7  8  1  0
  8  9  1  0
  9 10  1  0
  9 11  1  0
 11 12  1  0
 12 13  1  0
 13 14  2  0
 14 15  1  0
 15 16  2  0
 16 17  1  0
 16 18  1  0
 18 19  2  0
  2 20  1  0
 20 21  2  0
 21 22  1  0
 22 23  2  0
 23 24  1  0
 24 25  2  0
 25 26  1  0
 26 27  2  0
 27 28  1  0
 28 29  2  0
 12  7  1  0
 19 13  1  0
 29 20  1  0
 28 23  1  0
  3 30  1  0
  4 31  1  0
  4 32  1  0
  8 33  1  0
  8 34  1  0
  9 35  1  6
 10 36  1  0
 11 37  1  0
 11 38  1  0
 12 39  1  1
 14 40  1  0
 15 41  1  0
 18 42  1  0
 19 43  1  0
 21 44  1  0
 22 45  1  0
 24 46  1  0
 25 47  1  0
 26 48  1  0
 27 49  1  0
M  END
>  <smiles>  (15) 
O=C(NCC(=O)N1C[C@H](O)C[C@H]1c1ccc(Cl)cc1)c1ccc2ccccc2n1

>  <score_type>  (15) 
oracle

>  <origin>  (15) 
autodockgpu

>  <m_score__min__energy>  (15) 
-9.1999999999999993

>  <m_primary>  (15) 
energy

>  <meeko>  (15) 
{"free_energy": -7.52, "intermolecular_energy": -9.31, "internal_energy": -2.83, "cluster_size": 8, "cluster_id": 4, "rank_in_cluster": 8}

>  <energy>  (15) 
-7.55

>  <cluster_rmsd>  (15) 
1.01

>  <rmsd>  (15) 
271.36

>  <cluster>  (15) 
4

$$$$

     RDKit          3D

 49 52  0  0  0  0  0  0  0  0999 V2000
  138.9400   75.5260  221.1750 O   0  0  0  0  0  0  0  0  0  0  0  0
  140.0300   75.8380  221.7210 C   0  0  0  0  0  0  0  0  0  0  0  0
  141.1150   74.9140  221.8730 N   0  0  0  0  0  0  0  0  0  0  0  0
  140.9420   73.5940  221.3790 C   0  0  0  0  0  0  0  0  0  0  0  0
  141.7330   73.2390  220.2020 C   0  0  0  0  0  0  0  0  0  0  0  0
  141.0310   72.9970  219.1450 O   0  0  0  0  0  0  0  0  0  0  0  0
  143.1180   73.1190  220.0460 N   0  0  0  0  0  0  0  0  0  0  0  0
  144.0380   72.0240  220.4210 C   0  0  0  0  0  0  0  0  0  0  0  0
  145.0690   72.0200  219.2570 C   0  0  2  0  0  0  0  0  0  0  0  0
  146.3240   72.2380  219.8230 O   0  0  0  0  0  0  0  0  0  0  0  0
  144.6560   73.2290  218.3920 C   0  0  0  0  0  0  0  0  0  0  0  0
  144.0670   74.0890  219.4600 C   0  0  1  0  0  0  0  0  0  0  0  0
  143.5380   75.3690  219.0870 C   0  0  0  0  0  0  0  0  0  0  0  0
  143.5710   75.7490  217.7420 C   0  0  0  0  0  0  0  0  0  0  0  0
  143.1140   76.9720  217.3120 C   0  0  0  0  0  0  0  0  0  0  0  0
  142.5980   77.8880  218.2030 C   0  0  0  0  0  0  0  0  0  0  0  0
  142.0040   79.4590  217.7130 Cl  0  0  0  0  0  0  0  0  0  0  0  0
  142.5620   77.5250  219.5280 C   0  0  0  0  0  0  0  0  0  0  0  0
  143.0190   76.3010  219.9540 C   0  0  0  0  0  0  0  0  0  0  0  0
  140.2220   77.1930  222.2300 C   0  0  0  0  0  0  0  0  0  0  0  0
  139.1170   77.9620  222.5840 C   0  0  0  0  0  0  0  0  0  0  0  0
  139.2380   79.2410  223.0680 C   0  0  0  0  0  0  0  0  0  0  0  0
  140.4840   79.8040  223.2170 C   0  0  0  0  0  0  0  0  0  0  0  0
  140.6180   81.0870  223.7020 C   0  0  0  0  0  0  0  0  0  0  0  0
  141.8680   81.6180  223.8390 C   0  0  0  0  0  0  0  0  0  0  0  0
  142.9540   80.8690  223.4930 C   0  0  0  0  0  0  0  0  0  0  0  0
  142.8390   79.5740  223.0020 C   0  0  0  0  0  0  0  0  0  0  0  0
  141.5790   79.0230  222.8590 C   0  0  0  0  0  0  0  0  0  0  0  0
  141.4240   77.7630  222.3840 N   0  0  0  0  0  0  0  0  0  0  0  0
  142.0210   75.2040  222.3390 H   0  0  0  0  0  0  0  0  0  0  0  0
  141.2082   72.8955  222.1860 H   0  0  0  0  0  0  0  0  0  0  0  0
  139.8915   73.5339  221.0582 H   0  0  0  0  0  0  0  0  0  0  0  0
  144.5288   72.2319  221.3832 H   0  0  0  0  0  0  0  0  0  0  0  0
  143.5302   71.0573  220.5539 H   0  0  0  0  0  0  0  0  0  0  0  0
  145.0990   71.0897  218.6708 H   0  0  0  0  0  0  0  0  0  0  0  0
  146.3700   71.8700  220.7400 H   0  0  0  0  0  0  0  0  0  0  0  0
  145.5218   73.7057  217.9091 H   0  0  0  0  0  0  0  0  0  0  0  0
  143.9898   73.0008  217.5469 H   0  0  0  0  0  0  0  0  0  0  0  0
  144.8106   74.4994  220.1590 H   0  0  0  0  0  0  0  0  0  0  0  0
  143.9771   75.0442  217.0015 H   0  0  0  0  0  0  0  0  0  0  0  0
  143.1608   77.2230  216.2420 H   0  0  0  0  0  0  0  0  0  0  0  0
  142.1569   78.2324  220.2666 H   0  0  0  0  0  0  0  0  0  0  0  0
  142.9677   76.0587  221.0257 H   0  0  0  0  0  0  0  0  0  0  0  0
  138.1117   77.5298  222.4720 H   0  0  0  0  0  0  0  0  0  0  0  0
  138.3390   79.8152  223.3365 H   0  0  0  0  0  0  0  0  0  0  0  0
  139.7295   81.6753  223.9750 H   0  0  0  0  0  0  0  0  0  0  0  0
  141.9981   82.6399  224.2247 H   0  0  0  0  0  0  0  0  0  0  0  0
  143.9572   81.3057  223.6067 H   0  0  0  0  0  0  0  0  0  0  0  0
  143.7356   78.9969  222.7316 H   0  0  0  0  0  0  0  0  0  0  0  0
  1  2  2  0
  2  3  1  0
  3  4  1  0
  4  5  1  0
  5  6  2  0
  5  7  1  0
  7  8  1  0
  8  9  1  0
  9 10  1  0
  9 11  1  0
 11 12  1  0
 12 13  1  0
 13 14  2  0
 14 15  1  0
 15 16  2  0
 16 17  1  0
 16 18  1  0
 18 19  2  0
  2 20  1  0
 20 21  2  0
 21 22  1  0
 22 23  2  0
 23 24  1  0
 24 25  2  0
 25 26  1  0
 26 27  2  0
 27 28  1  0
 28 29  2  0
 12  7  1  0
 19 13  1  0
 29 20  1  0
 28 23  1  0
  3 30  1  0
  4 31  1  0
  4 32  1  0
  8 33  1  0
  8 34  1  0
  9 35  1  6
 10 36  1  0
 11 37  1  0
 11 38  1  0
 12 39  1  1
 14 40  1  0
 15 41  1  0
 18 42  1  0
 19 43  1  0
 21 44  1  0
 22 45  1  0
 24 46  1  0
 25 47  1  0
 26 48  1  0
 27 49  1  0
M  END
>  <smiles>  (16) 
O=C(NCC(=O)N1C[C@H](O)C[C@H]1c1ccc(Cl)cc1)c1ccc2ccccc2n1

>  <score_type>  (16) 
oracle

>  <origin>  (16) 
autodockgpu

>  <m_score__min__energy>  (16) 
-9.1999999999999993

>  <m_primary>  (16) 
energy

>  <meeko>  (16) 
{"free_energy": -7.8, "intermolecular_energy": -9.59, "internal_energy": -2.23, "cluster_size": 8, "cluster_id": 4, "rank_in_cluster": 1}

>  <energy>  (16) 
-7.54

>  <cluster_rmsd>  (16) 
1.05

>  <rmsd>  (16) 
271.41

>  <cluster>  (16) 
4

$$$$

     RDKit          3D

 49 52  0  0  0  0  0  0  0  0999 V2000
  141.3720   72.2970  222.1290 O   0  0  0  0  0  0  0  0  0  0  0  0
  140.2960   72.1970  222.7740 C   0  0  0  0  0  0  0  0  0  0  0  0
  139.1440   73.0000  222.4890 N   0  0  0  0  0  0  0  0  0  0  0  0
  139.2310   73.9430  221.4300 C   0  0  0  0  0  0  0  0  0  0  0  0
  139.9090   75.2000  221.7440 C   0  0  0  0  0  0  0  0  0  0  0  0
  139.3920   75.8470  222.7360 O   0  0  0  0  0  0  0  0  0  0  0  0
  141.0160   75.8050  221.1400 N   0  0  0  0  0  0  0  0  0  0  0  0
  142.1150   75.2210  220.3400 C   0  0  0  0  0  0  0  0  0  0  0  0
  142.3870   76.3160  219.2700 C   0  0  2  0  0  0  0  0  0  0  0  0
  143.7190   76.7010  219.4090 O   0  0  0  0  0  0  0  0  0  0  0  0
  141.4520   77.4740  219.6780 C   0  0  0  0  0  0  0  0  0  0  0  0
  141.4080   77.2300  221.1500 C   0  0  1  0  0  0  0  0  0  0  0  0
  140.6220   78.1130  221.9610 C   0  0  0  0  0  0  0  0  0  0  0  0
  139.3630   78.5130  221.5030 C   0  0  0  0  0  0  0  0  0  0  0  0
  138.5660   79.3830  222.2090 C   0  0  0  0  0  0  0  0  0  0  0  0
  138.9820   79.9050  223.4140 C   0  0  0  0  0  0  0  0  0  0  0  0
  138.0110   81.0160  224.3530 Cl  0  0  0  0  0  0  0  0  0  0  0  0
  140.2180   79.5190  223.8740 C   0  0  0  0  0  0  0  0  0  0  0  0
  141.0130   78.6490  223.1660 C   0  0  0  0  0  0  0  0  0  0  0  0
  140.1900   71.2290  223.8620 C   0  0  0  0  0  0  0  0  0  0  0  0
  139.5710   70.0020  223.6380 C   0  0  0  0  0  0  0  0  0  0  0  0
  139.4440   69.0540  224.6220 C   0  0  0  0  0  0  0  0  0  0  0  0
  139.9370   69.3020  225.8820 C   0  0  0  0  0  0  0  0  0  0  0  0
  139.8150   68.3580  226.8790 C   0  0  0  0  0  0  0  0  0  0  0  0
  140.3140   68.6330  228.1190 C   0  0  0  0  0  0  0  0  0  0  0  0
  140.9210   69.8340  228.3440 C   0  0  0  0  0  0  0  0  0  0  0  0
  141.0530   70.7980  227.3520 C   0  0  0  0  0  0  0  0  0  0  0  0
  140.5530   70.5330  226.0910 C   0  0  0  0  0  0  0  0  0  0  0  0
  140.6610   71.4460  225.0960 N   0  0  0  0  0  0  0  0  0  0  0  0
  138.2500   72.8960  223.0500 H   0  0  0  0  0  0  0  0  0  0  0  0
  139.7727   73.4670  220.5994 H   0  0  0  0  0  0  0  0  0  0  0  0
  138.1928   74.2179  221.1921 H   0  0  0  0  0  0  0  0  0  0  0  0
  143.0058   75.0447  220.9608 H   0  0  0  0  0  0  0  0  0  0  0  0
  141.8629   74.2425  219.9053 H   0  0  0  0  0  0  0  0  0  0  0  0
  142.2141   75.9977  218.2313 H   0  0  0  0  0  0  0  0  0  0  0  0
  143.8110   77.4370  220.0640 H   0  0  0  0  0  0  0  0  0  0  0  0
  141.8824   78.4568  219.4354 H   0  0  0  0  0  0  0  0  0  0  0  0
  140.4754   77.4945  219.1722 H   0  0  0  0  0  0  0  0  0  0  0  0
  142.3539   77.4529  221.6653 H   0  0  0  0  0  0  0  0  0  0  0  0
  138.9972   78.1177  220.5439 H   0  0  0  0  0  0  0  0  0  0  0  0
  137.5824   79.6661  221.8059 H   0  0  0  0  0  0  0  0  0  0  0  0
  140.5807   79.9163  224.8335 H   0  0  0  0  0  0  0  0  0  0  0  0
  141.9950   78.3722  223.5771 H   0  0  0  0  0  0  0  0  0  0  0  0
  139.1697   69.7850  222.6371 H   0  0  0  0  0  0  0  0  0  0  0  0
  138.9484   68.0966  224.4034 H   0  0  0  0  0  0  0  0  0  0  0  0
  139.3219   67.3956  226.6777 H   0  0  0  0  0  0  0  0  0  0  0  0
  140.2277   67.8938  228.9290 H   0  0  0  0  0  0  0  0  0  0  0  0
  141.3202   70.0468  229.3467 H   0  0  0  0  0  0  0  0  0  0  0  0
  141.5475   71.7568  227.5669 H   0  0  0  0  0  0  0  0  0  0  0  0
  1  2  2  0
  2  3  1  0
  3  4  1  0
  4  5  1  0
  5  6  2  0
  5  7  1  0
  7  8  1  0
  8  9  1  0
  9 10  1  0
  9 11  1  0
 11 12  1  0
 12 13  1  0
 13 14  2  0
 14 15  1  0
 15 16  2  0
 16 17  1  0
 16 18  1  0
 18 19  2  0
  2 20  1  0
 20 21  2  0
 21 22  1  0
 22 23  2  0
 23 24  1  0
 24 25  2  0
 25 26  1  0
 26 27  2  0
 27 28  1  0
 28 29  2  0
 12  7  1  0
 19 13  1  0
 29 20  1  0
 28 23  1  0
  3 30  1  0
  4 31  1  0
  4 32  1  0
  8 33  1  0
  8 34  1  0
  9 35  1  6
 10 36  1  0
 11 37  1  0
 11 38  1  0
 12 39  1  1
 14 40  1  0
 15 41  1  0
 18 42  1  0
 19 43  1  0
 21 44  1  0
 22 45  1  0
 24 46  1  0
 25 47  1  0
 26 48  1  0
 27 49  1  0
M  END
>  <smiles>  (17) 
O=C(NCC(=O)N1C[C@H](O)C[C@H]1c1ccc(Cl)cc1)c1ccc2ccccc2n1

>  <score_type>  (17) 
oracle

>  <origin>  (17) 
autodockgpu

>  <m_score__min__energy>  (17) 
-9.1999999999999993

>  <m_primary>  (17) 
energy

>  <meeko>  (17) 
{"free_energy": -9.15, "intermolecular_energy": -10.94, "internal_energy": -1.16, "cluster_size": 7, "cluster_id": 1, "rank_in_cluster": 2}

>  <energy>  (17) 
-7.54

>  <cluster_rmsd>  (17) 
1.04

>  <rmsd>  (17) 
271.39

>  <cluster>  (17) 
4

$$$$

     RDKit          3D

 49 52  0  0  0  0  0  0  0  0999 V2000
  140.9570   71.4930  221.4590 O   0  0  0  0  0  0  0  0  0  0  0  0
  140.4210   72.0040  222.4760 C   0  0  0  0  0  0  0  0  0  0  0  0
  139.9730   73.3640  222.5170 N   0  0  0  0  0  0  0  0  0  0  0  0
  140.1440   74.1590  221.3520 C   0  0  0  0  0  0  0  0  0  0  0  0
  140.6600   75.5110  221.5660 C   0  0  0  0  0  0  0  0  0  0  0  0
  140.3670   76.0120  222.7200 O   0  0  0  0  0  0  0  0  0  0  0  0
  141.4100   76.3360  220.7230 N   0  0  0  0  0  0  0  0  0  0  0  0
  142.3960   75.9990  219.6740 C   0  0  0  0  0  0  0  0  0  0  0  0
  142.1310   77.0780  218.5850 C   0  0  2  0  0  0  0  0  0  0  0  0
  143.3220   77.7770  218.4050 O   0  0  0  0  0  0  0  0  0  0  0  0
  141.0650   77.9940  219.2240 C   0  0  0  0  0  0  0  0  0  0  0  0
  141.4330   77.8120  220.6590 C   0  0  1  0  0  0  0  0  0  0  0  0
  140.6700   78.5160  221.6490 C   0  0  0  0  0  0  0  0  0  0  0  0
  139.2980   78.6940  221.4470 C   0  0  0  0  0  0  0  0  0  0  0  0
  138.5080   79.3850  222.3340 C   0  0  0  0  0  0  0  0  0  0  0  0
  139.0440   79.9410  223.4750 C   0  0  0  0  0  0  0  0  0  0  0  0
  138.0860   80.8320  224.6370 Cl  0  0  0  0  0  0  0  0  0  0  0  0
  140.3910   79.7730  223.6840 C   0  0  0  0  0  0  0  0  0  0  0  0
  141.1790   79.0800  222.7950 C   0  0  0  0  0  0  0  0  0  0  0  0
  140.2350   71.1970  223.6790 C   0  0  0  0  0  0  0  0  0  0  0  0
  139.5870   69.9680  223.5930 C   0  0  0  0  0  0  0  0  0  0  0  0
  139.3840   69.1670  224.6890 C   0  0  0  0  0  0  0  0  0  0  0  0
  139.8280   69.5720  225.9270 C   0  0  0  0  0  0  0  0  0  0  0  0
  139.6310   68.7770  227.0360 C   0  0  0  0  0  0  0  0  0  0  0  0
  140.0840   69.2050  228.2490 C   0  0  0  0  0  0  0  0  0  0  0  0
  140.7190   70.4090  228.3390 C   0  0  0  0  0  0  0  0  0  0  0  0
  140.9270   71.2240  227.2330 C   0  0  0  0  0  0  0  0  0  0  0  0
  140.4750   70.8030  225.9970 C   0  0  0  0  0  0  0  0  0  0  0  0
  140.6580   71.5680  224.8940 N   0  0  0  0  0  0  0  0  0  0  0  0
  139.5260   73.7690  223.3880 H   0  0  0  0  0  0  0  0  0  0  0  0
  140.8443   73.6334  220.6862 H   0  0  0  0  0  0  0  0  0  0  0  0
  139.1354   74.2903  220.9331 H   0  0  0  0  0  0  0  0  0  0  0  0
  143.4237   76.0706  220.0597 H   0  0  0  0  0  0  0  0  0  0  0  0
  142.2948   74.9701  219.2984 H   0  0  0  0  0  0  0  0  0  0  0  0
  141.8004   76.6817  217.6136 H   0  0  0  0  0  0  0  0  0  0  0  0
  143.8260   77.8460  219.2540 H   0  0  0  0  0  0  0  0  0  0  0  0
  141.1717   79.0398  218.9000 H   0  0  0  0  0  0  0  0  0  0  0  0
  140.0217   77.7564  218.9687 H   0  0  0  0  0  0  0  0  0  0  0  0
  142.3908   78.2779  220.9340 H   0  0  0  0  0  0  0  0  0  0  0  0
  138.8345   78.2657  220.5461 H   0  0  0  0  0  0  0  0  0  0  0  0
  137.4327   79.4958  222.1302 H   0  0  0  0  0  0  0  0  0  0  0  0
  140.8513   80.2037  224.5854 H   0  0  0  0  0  0  0  0  0  0  0  0
  142.2529   78.9733  223.0080 H   0  0  0  0  0  0  0  0  0  0  0  0
  139.2248   69.6267  222.6120 H   0  0  0  0  0  0  0  0  0  0  0  0
  138.8670   68.2024  224.5779 H   0  0  0  0  0  0  0  0  0  0  0  0
  139.1151   67.8099  226.9436 H   0  0  0  0  0  0  0  0  0  0  0  0
  139.9388   68.5854  229.1462 H   0  0  0  0  0  0  0  0  0  0  0  0
  141.0791   70.7466  229.3220 H   0  0  0  0  0  0  0  0  0  0  0  0
  141.4435   72.1893  227.3397 H   0  0  0  0  0  0  0  0  0  0  0  0
  1  2  2  0
  2  3  1  0
  3  4  1  0
  4  5  1  0
  5  6  2  0
  5  7  1  0
  7  8  1  0
  8  9  1  0
  9 10  1  0
  9 11  1  0
 11 12  1  0
 12 13  1  0
 13 14  2  0
 14 15  1  0
 15 16  2  0
 16 17  1  0
 16 18  1  0
 18 19  2  0
  2 20  1  0
 20 21  2  0
 21 22  1  0
 22 23  2  0
 23 24  1  0
 24 25  2  0
 25 26  1  0
 26 27  2  0
 27 28  1  0
 28 29  2  0
 12  7  1  0
 19 13  1  0
 29 20  1  0
 28 23  1  0
  3 30  1  0
  4 31  1  0
  4 32  1  0
  8 33  1  0
  8 34  1  0
  9 35  1  6
 10 36  1  0
 11 37  1  0
 11 38  1  0
 12 39  1  6
 14 40  1  0
 15 41  1  0
 18 42  1  0
 19 43  1  0
 21 44  1  0
 22 45  1  0
 24 46  1  0
 25 47  1  0
 26 48  1  0
 27 49  1  0
M  END
>  <smiles>  (18) 
O=C(NCC(=O)N1C[C@H](O)C[C@H]1c1ccc(Cl)cc1)c1ccc2ccccc2n1

>  <score_type>  (18) 
oracle

>  <origin>  (18) 
autodockgpu

>  <m_score__min__energy>  (18) 
-9.1999999999999993

>  <m_primary>  (18) 
energy

>  <meeko>  (18) 
{"free_energy": -8.74, "intermolecular_energy": -10.53, "internal_energy": -1.44, "cluster_size": 7, "cluster_id": 1, "rank_in_cluster": 6}

>  <energy>  (18) 
-7.53

>  <cluster_rmsd>  (18) 
0.99

>  <rmsd>  (18) 
271.4

>  <cluster>  (18) 
4

$$$$

     RDKit          3D

 49 52  0  0  0  0  0  0  0  0999 V2000
  139.9490   73.4760  222.5310 O   0  0  0  0  0  0  0  0  0  0  0  0
  140.1480   72.2350  222.4750 C   0  0  0  0  0  0  0  0  0  0  0  0
  140.4020   71.5450  221.2450 N   0  0  0  0  0  0  0  0  0  0  0  0
  140.4310   72.3060  220.0450 C   0  0  0  0  0  0  0  0  0  0  0  0
  141.7540   72.5570  219.4750 C   0  0  0  0  0  0  0  0  0  0  0  0
  141.7830   72.5470  218.1830 O   0  0  0  0  0  0  0  0  0  0  0  0
  142.9780   72.8010  220.1050 N   0  0  0  0  0  0  0  0  0  0  0  0
  144.0570   71.8720  220.5040 C   0  0  0  0  0  0  0  0  0  0  0  0
  145.3470   72.6970  220.2320 C   0  0  2  0  0  0  0  0  0  0  0  0
  146.0300   72.7970  221.4420 O   0  0  0  0  0  0  0  0  0  0  0  0
  144.8180   74.0820  219.8020 C   0  0  0  0  0  0  0  0  0  0  0  0
  143.5360   74.0880  220.5680 C   0  0  1  0  0  0  0  0  0  0  0  0
  142.6880   75.2400  220.4610 C   0  0  0  0  0  0  0  0  0  0  0  0
  143.0290   76.2510  219.5580 C   0  0  0  0  0  0  0  0  0  0  0  0
  142.2840   77.3980  219.4230 C   0  0  0  0  0  0  0  0  0  0  0  0
  141.1540   77.6010  220.1840 C   0  0  0  0  0  0  0  0  0  0  0  0
  140.1690   79.0420  220.0550 Cl  0  0  0  0  0  0  0  0  0  0  0  0
  140.8080   76.6140  221.0740 C   0  0  0  0  0  0  0  0  0  0  0  0
  141.5560   75.4680  221.2070 C   0  0  0  0  0  0  0  0  0  0  0  0
  140.1250   71.4410  223.7000 C   0  0  0  0  0  0  0  0  0  0  0  0
  139.5730   70.1630  223.6850 C   0  0  0  0  0  0  0  0  0  0  0  0
  139.5240   69.3720  224.8050 C   0  0  0  0  0  0  0  0  0  0  0  0
  140.0320   69.8360  225.9970 C   0  0  0  0  0  0  0  0  0  0  0  0
  139.9900   69.0510  227.1290 C   0  0  0  0  0  0  0  0  0  0  0  0
  140.5020   69.5390  228.2960 C   0  0  0  0  0  0  0  0  0  0  0  0
  141.0430   70.7910  228.3150 C   0  0  0  0  0  0  0  0  0  0  0  0
  141.0950   71.5970  227.1850 C   0  0  0  0  0  0  0  0  0  0  0  0
  140.5810   71.1160  225.9960 C   0  0  0  0  0  0  0  0  0  0  0  0
  140.6120   71.8700  224.8700 N   0  0  0  0  0  0  0  0  0  0  0  0
  140.5650   70.4980  221.2260 H   0  0  0  0  0  0  0  0  0  0  0  0
  139.8368   71.7683  219.2915 H   0  0  0  0  0  0  0  0  0  0  0  0
  140.0316   73.2954  220.3125 H   0  0  0  0  0  0  0  0  0  0  0  0
  143.9755   71.6049  221.5680 H   0  0  0  0  0  0  0  0  0  0  0  0
  144.0303   70.9168  219.9591 H   0  0  0  0  0  0  0  0  0  0  0  0
  146.0199   72.2642  219.4771 H   0  0  0  0  0  0  0  0  0  0  0  0
  145.9790   71.9500  221.9510 H   0  0  0  0  0  0  0  0  0  0  0  0
  145.4893   74.8955  220.1143 H   0  0  0  0  0  0  0  0  0  0  0  0
  144.7226   74.2370  218.7172 H   0  0  0  0  0  0  0  0  0  0  0  0
  143.6695   74.1752  221.6564 H   0  0  0  0  0  0  0  0  0  0  0  0
  143.9254   76.1241  218.9333 H   0  0  0  0  0  0  0  0  0  0  0  0
  142.5943   78.1643  218.6974 H   0  0  0  0  0  0  0  0  0  0  0  0
  139.9100   76.7435  221.6960 H   0  0  0  0  0  0  0  0  0  0  0  0
  141.2377   74.7075  221.9353 H   0  0  0  0  0  0  0  0  0  0  0  0
  139.1616   69.7737  222.7420 H   0  0  0  0  0  0  0  0  0  0  0  0
  139.0790   68.3675  224.7503 H   0  0  0  0  0  0  0  0  0  0  0  0
  139.5493   68.0438  227.0923 H   0  0  0  0  0  0  0  0  0  0  0  0
  140.4787   68.9294  229.2113 H   0  0  0  0  0  0  0  0  0  0  0  0
  141.4532   71.1765  229.2600 H   0  0  0  0  0  0  0  0  0  0  0  0
  141.5384   72.6024  227.2358 H   0  0  0  0  0  0  0  0  0  0  0  0
  1  2  2  0
  2  3  1  0
  3  4  1  0
  4  5  1  0
  5  6  2  0
  5  7  1  0
  7  8  1  0
  8  9  1  0
  9 10  1  0
  9 11  1  0
 11 12  1  0
 12 13  1  0
 13 14  2  0
 14 15  1  0
 15 16  2  0
 16 17  1  0
 16 18  1  0
 18 19  2  0
  2 20  1  0
 20 21  2  0
 21 22  1  0
 22 23  2  0
 23 24  1  0
 24 25  2  0
 25 26  1  0
 26 27  2  0
 27 28  1  0
 28 29  2  0
 12  7  1  0
 19 13  1  0
 29 20  1  0
 28 23  1  0
  3 30  1  0
  4 31  1  0
  4 32  1  0
  8 33  1  0
  8 34  1  0
  9 35  1  6
 10 36  1  0
 11 37  1  0
 11 38  1  0
 12 39  1  1
 14 40  1  0
 15 41  1  0
 18 42  1  0
 19 43  1  0
 21 44  1  0
 22 45  1  0
 24 46  1  0
 25 47  1  0
 26 48  1  0
 27 49  1  0
M  END
>  <smiles>  (19) 
O=C(NCC(=O)N1C[C@H](O)C[C@H]1c1ccc(Cl)cc1)c1ccc2ccccc2n1

>  <score_type>  (19) 
oracle

>  <origin>  (19) 
autodockgpu

>  <m_score__min__energy>  (19) 
-9.1999999999999993

>  <m_primary>  (19) 
energy

>  <meeko>  (19) 
{"free_energy": -8.47, "intermolecular_energy": -10.26, "internal_energy": -1.54, "cluster_size": 2, "cluster_id": 2, "rank_in_cluster": 1}

>  <energy>  (19) 
-7.52

>  <cluster_rmsd>  (19) 
1.02

>  <rmsd>  (19) 
271.34

>  <cluster>  (19) 
4

$$$$

     RDKit          3D

 49 52  0  0  0  0  0  0  0  0999 V2000
  138.8900   75.1690  221.8900 O   0  0  0  0  0  0  0  0  0  0  0  0
  140.0500   75.6370  222.0280 C   0  0  0  0  0  0  0  0  0  0  0  0
  141.2300   74.8400  221.8670 N   0  0  0  0  0  0  0  0  0  0  0  0
  141.0710   73.4680  221.5360 C   0  0  0  0  0  0  0  0  0  0  0  0
  141.7770   73.0100  220.3400 C   0  0  0  0  0  0  0  0  0  0  0  0
  141.0570   72.2870  219.5460 O   0  0  0  0  0  0  0  0  0  0  0  0
  143.0950   73.2280  219.9290 N   0  0  0  0  0  0  0  0  0  0  0  0
  144.2840   72.3510  220.0020 C   0  0  0  0  0  0  0  0  0  0  0  0
  145.0390   72.6760  218.6820 C   0  0  2  0  0  0  0  0  0  0  0  0
  146.3050   73.1360  219.0380 O   0  0  0  0  0  0  0  0  0  0  0  0
  144.2130   73.8180  218.0540 C   0  0  0  0  0  0  0  0  0  0  0  0
  143.6790   74.4330  219.3050 C   0  0  1  0  0  0  0  0  0  0  0  0
  142.8260   75.5800  219.1860 C   0  0  0  0  0  0  0  0  0  0  0  0
  141.6640   75.4830  218.4140 C   0  0  0  0  0  0  0  0  0  0  0  0
  140.8150   76.5480  218.2280 C   0  0  0  0  0  0  0  0  0  0  0  0
  141.0790   77.7730  218.8010 C   0  0  0  0  0  0  0  0  0  0  0  0
  140.0350   79.1620  218.5950 Cl  0  0  0  0  0  0  0  0  0  0  0  0
  142.2180   77.8800  219.5610 C   0  0  0  0  0  0  0  0  0  0  0  0
  143.0650   76.8130  219.7460 C   0  0  0  0  0  0  0  0  0  0  0  0
  140.2280   77.0460  222.3650 C   0  0  0  0  0  0  0  0  0  0  0  0
  139.1150   77.8710  222.4950 C   0  0  0  0  0  0  0  0  0  0  0  0
  139.2210   79.2030  222.8100 C   0  0  0  0  0  0  0  0  0  0  0  0
  140.4620   79.7650  223.0080 C   0  0  0  0  0  0  0  0  0  0  0  0
  140.5820   81.1000  223.3260 C   0  0  0  0  0  0  0  0  0  0  0  0
  141.8260   81.6280  223.5170 C   0  0  0  0  0  0  0  0  0  0  0  0
  142.9200   80.8230  223.3890 C   0  0  0  0  0  0  0  0  0  0  0  0
  142.8190   79.4750  223.0710 C   0  0  0  0  0  0  0  0  0  0  0  0
  141.5650   78.9260  222.8750 C   0  0  0  0  0  0  0  0  0  0  0  0
  141.4230   77.6150  222.5620 N   0  0  0  0  0  0  0  0  0  0  0  0
  142.1960   75.2590  221.9910 H   0  0  0  0  0  0  0  0  0  0  0  0
  141.4312   72.8726  222.3879 H   0  0  0  0  0  0  0  0  0  0  0  0
  140.0010   73.3386  221.3159 H   0  0  0  0  0  0  0  0  0  0  0  0
  144.9006   72.5930  220.8802 H   0  0  0  0  0  0  0  0  0  0  0  0
  144.0313   71.2855  220.1061 H   0  0  0  0  0  0  0  0  0  0  0  0
  145.1498   71.8255  217.9933 H   0  0  0  0  0  0  0  0  0  0  0  0
  146.3700   74.1180  218.9330 H   0  0  0  0  0  0  0  0  0  0  0  0
  144.8426   74.5186  217.4858 H   0  0  0  0  0  0  0  0  0  0  0  0
  143.4563   73.5065  217.3189 H   0  0  0  0  0  0  0  0  0  0  0  0
  144.4417   74.9493  219.9064 H   0  0  0  0  0  0  0  0  0  0  0  0
  141.4209   74.5210  217.9391 H   0  0  0  0  0  0  0  0  0  0  0  0
  139.9120   76.4205  217.6129 H   0  0  0  0  0  0  0  0  0  0  0  0
  142.4586   78.8437  220.0336 H   0  0  0  0  0  0  0  0  0  0  0  0
  143.9650   76.9503  220.3633 H   0  0  0  0  0  0  0  0  0  0  0  0
  138.1147   77.4406  222.3398 H   0  0  0  0  0  0  0  0  0  0  0  0
  138.3155   79.8204  222.9041 H   0  0  0  0  0  0  0  0  0  0  0  0
  139.6871   81.7320  223.4247 H   0  0  0  0  0  0  0  0  0  0  0  0
  141.9453   82.6915  223.7715 H   0  0  0  0  0  0  0  0  0  0  0  0
  143.9186   81.2576  223.5434 H   0  0  0  0  0  0  0  0  0  0  0  0
  143.7220   78.8539  222.9765 H   0  0  0  0  0  0  0  0  0  0  0  0
  1  2  2  0
  2  3  1  0
  3  4  1  0
  4  5  1  0
  5  6  2  0
  5  7  1  0
  7  8  1  0
  8  9  1  0
  9 10  1  0
  9 11  1  0
 11 12  1  0
 12 13  1  0
 13 14  2  0
 14 15  1  0
 15 16  2  0
 16 17  1  0
 16 18  1  0
 18 19  2  0
  2 20  1  0
 20 21  2  0
 21 22  1  0
 22 23  2  0
 23 24  1  0
 24 25  2  0
 25 26  1  0
 26 27  2  0
 27 28  1  0
 28 29  2  0
 12  7  1  0
 19 13  1  0
 29 20  1  0
 28 23  1  0
  3 30  1  0
  4 31  1  0
  4 32  1  0
  8 33  1  0
  8 34  1  0
  9 35  1  6
 10 36  1  0
 11 37  1  0
 11 38  1  0
 12 39  1  1
 14 40  1  0
 15 41  1  0
 18 42  1  0
 19 43  1  0
 21 44  1  0
 22 45  1  0
 24 46  1  0
 25 47  1  0
 26 48  1  0
 27 49  1  0
M  END
>  <smiles>  (20) 
O=C(NCC(=O)N1C[C@H](O)C[C@H]1c1ccc(Cl)cc1)c1ccc2ccccc2n1

>  <score_type>  (20) 
oracle

>  <origin>  (20) 
autodockgpu

>  <m_score__min__energy>  (20) 
-9.1999999999999993

>  <m_primary>  (20) 
energy

>  <meeko>  (20) 
{"free_energy": -7.55, "intermolecular_energy": -9.34, "internal_energy": -2.83, "cluster_size": 8, "cluster_id": 4, "rank_in_cluster": 4}

>  <energy>  (20) 
-7.77

>  <cluster_rmsd>  (20) 
0.0

>  <rmsd>  (20) 
271.22

>  <cluster>  (20) 
5

$$$$
