
     RDKit          3D

 55 60  0  0  1  0  0  0  0  0999 V2000
  139.6380   75.2910  222.3520 O   0  0  0  0  0  0  0  0  0  0  0  0
  140.5850   75.6880  221.5700 C   0  0  0  0  0  0  0  0  0  0  0  0
  141.5310   74.6950  221.1480 C   0  0  0  0  0  0  0  0  0  0  0  0
  141.4160   73.3280  221.0100 C   0  0  0  0  0  0  0  0  0  0  0  0
  142.6310   72.7840  220.6140 C   0  0  0  0  0  0  0  0  0  0  0  0
  143.1250   71.5440  220.3420 C   0  0  0  0  0  0  0  0  0  0  0  0
  144.4430   71.3030  219.9700 C   0  0  0  0  0  0  0  0  0  0  0  0
  144.8700   70.0240  219.7140 F   0  0  0  0  0  0  0  0  0  0  0  0
  145.2960   72.3890  219.8690 C   0  0  0  0  0  0  0  0  0  0  0  0
  144.8000   73.6300  220.1410 C   0  0  0  0  0  0  0  0  0  0  0  0
  143.4870   73.8570  220.5120 C   0  0  0  0  0  0  0  0  0  0  0  0
  142.8310   74.9540  220.8250 N   0  0  0  0  0  0  0  0  0  0  0  0
  140.5750   77.0530  221.2160 N   0  0  0  0  0  0  0  0  0  0  0  0
  140.0770   77.7640  220.0670 C   0  0  0  0  0  0  0  0  0  0  0  0
  141.0500   78.8970  219.9250 C   0  0  1  0  0  0  0  0  0  0  0  0
  142.2110   78.4390  219.0940 C   0  0  0  0  0  0  0  0  0  0  0  0
  142.5510   79.6140  218.2420 C   0  0  0  0  0  0  0  0  0  0  0  0
  141.5860   80.6230  218.5290 N   0  0  0  0  0  0  0  0  0  0  0  0
  141.5390   81.6960  217.6620 C   0  0  2  0  0  0  0  0  0  0  0  0
  142.6530   81.9490  216.7280 C   0  0  0  0  0  0  0  0  0  0  0  0
  143.3350   83.2450  217.1220 C   0  0  0  0  0  0  0  0  0  0  0  0
  142.2530   83.9660  217.7680 N   0  0  0  0  0  0  0  0  0  0  0  0
  141.4530   82.9990  218.4640 C   0  0  0  0  0  0  0  0  0  0  0  0
  140.4840   80.1210  219.2230 C   0  0  0  0  0  0  0  0  0  0  0  0
  141.4270   79.1970  221.3230 C   0  0  0  0  0  0  0  0  0  0  0  0
  141.9740   80.3040  221.9860 C   0  0  0  0  0  0  0  0  0  0  0  0
  142.2290   80.2560  223.3590 C   0  0  0  0  0  0  0  0  0  0  0  0
  141.9550   79.1240  224.1010 C   0  0  0  0  0  0  0  0  0  0  0  0
  141.4210   78.0530  223.4330 C   0  0  0  0  0  0  0  0  0  0  0  0
  141.1520   78.0670  222.0630 C   0  0  0  0  0  0  0  0  0  0  0  0
  140.4958   72.7520  221.1877 H   0  0  0  0  0  0  0  0  0  0  0  0
  142.4427   70.6848  220.4211 H   0  0  0  0  0  0  0  0  0  0  0  0
  146.3478   72.2542  219.5766 H   0  0  0  0  0  0  0  0  0  0  0  0
  145.4775   74.4929  220.0614 H   0  0  0  0  0  0  0  0  0  0  0  0
  143.2850   75.9150  220.8160 H   0  0  0  0  0  0  0  0  0  0  0  0
  140.0823   77.1236  219.1727 H   0  0  0  0  0  0  0  0  0  0  0  0
  139.0353   78.0983  220.1815 H   0  0  0  0  0  0  0  0  0  0  0  0
  143.0623   78.1643  219.7342 H   0  0  0  0  0  0  0  0  0  0  0  0
  141.9703   77.5469  218.4971 H   0  0  0  0  0  0  0  0  0  0  0  0
  143.5613   79.9767  218.4825 H   0  0  0  0  0  0  0  0  0  0  0  0
  142.5367   79.3458  217.1753 H   0  0  0  0  0  0  0  0  0  0  0  0
  140.6725   81.4071  217.0490 H   0  0  0  0  0  0  0  0  0  0  0  0
  143.3747   81.1205  216.7801 H   0  0  0  0  0  0  0  0  0  0  0  0
  142.2693   82.0256  215.6999 H   0  0  0  0  0  0  0  0  0  0  0  0
  144.1673   83.0640  217.8181 H   0  0  0  0  0  0  0  0  0  0  0  0
  143.7877   83.7847  216.2771 H   0  0  0  0  0  0  0  0  0  0  0  0
  141.7310   84.5390  217.0830 H   0  0  0  0  0  0  0  0  0  0  0  0
  141.8439   82.8448  219.4806 H   0  0  0  0  0  0  0  0  0  0  0  0
  140.4110   83.3395  218.5545 H   0  0  0  0  0  0  0  0  0  0  0  0
  140.1072   80.8550  219.9505 H   0  0  0  0  0  0  0  0  0  0  0  0
  139.6294   79.8896  218.5702 H   0  0  0  0  0  0  0  0  0  0  0  0
  142.2046   81.2188  221.4204 H   0  0  0  0  0  0  0  0  0  0  0  0
  142.6566   81.1376  223.8589 H   0  0  0  0  0  0  0  0  0  0  0  0
  142.1566   79.0836  225.1816 H   0  0  0  0  0  0  0  0  0  0  0  0
  141.1938   77.1399  224.0027 H   0  0  0  0  0  0  0  0  0  0  0  0
  1  2  2  0
  2  3  1  0
  3  4  2  0
  4  5  1  0
  5  6  2  0
  6  7  1  0
  7  8  1  0
  7  9  2  0
  9 10  1  0
 10 11  2  0
 11 12  1  0
  2 13  1  0
 13 14  1  0
 15 14  1  1
 15 16  1  0
 16 17  1  0
 17 18  1  0
 18 19  1  0
 19 20  1  0
 20 21  1  0
 21 22  1  0
 22 23  1  0
 18 24  1  0
 15 25  1  0
 25 26  2  0
 26 27  1  0
 27 28  2  0
 28 29  1  0
 29 30  2  0
 12  3  1  0
 30 13  1  0
 11  5  1  0
 24 15  1  0
 30 25  1  0
 23 19  1  0
  4 31  1  0
  6 32  1  0
  9 33  1  0
 10 34  1  0
 12 35  1  0
 14 36  1  0
 14 37  1  0
 16 38  1  0
 16 39  1  0
 17 40  1  0
 17 41  1  0
 19 42  1  6
 20 43  1  0
 20 44  1  0
 21 45  1  0
 21 46  1  0
 22 47  1  0
 23 48  1  0
 23 49  1  0
 24 50  1  0
 24 51  1  0
 26 52  1  0
 27 53  1  0
 28 54  1  0
 29 55  1  0
M  END
>  <smiles>  (1) 
O=C(c1cc2cc(F)ccc2[nH]1)N1CC2(CCN(C3CCNC3)C2)c2ccccc21

>  <score_type>  (1) 
oracle

>  <origin>  (1) 
autodockgpu

>  <m_score__min__energy>  (1) 
-8.1400000000000006

>  <m_primary>  (1) 
energy

>  <meeko>  (1) 
{"free_energy": -7.97, "intermolecular_energy": -8.87, "internal_energy": -1.19, "cluster_size": 12, "cluster_id": 2, "rank_in_cluster": 5}

>  <energy>  (1) 
-8.14

>  <cluster_rmsd>  (1) 
0.0

>  <rmsd>  (1) 
271.91

>  <cluster>  (1) 
1

$$$$

     RDKit          3D

 55 60  0  0  1  0  0  0  0  0999 V2000
  139.6710   75.2710  222.3540 O   0  0  0  0  0  0  0  0  0  0  0  0
  140.6140   75.6640  221.5640 C   0  0  0  0  0  0  0  0  0  0  0  0
  141.5580   74.6700  221.1420 C   0  0  0  0  0  0  0  0  0  0  0  0
  141.4370   73.3050  220.9900 C   0  0  0  0  0  0  0  0  0  0  0  0
  142.6520   72.7570  220.6020 C   0  0  0  0  0  0  0  0  0  0  0  0
  143.1410   71.5170  220.3230 C   0  0  0  0  0  0  0  0  0  0  0  0
  144.4620   71.2710  219.9620 C   0  0  0  0  0  0  0  0  0  0  0  0
  144.8830   69.9920  219.6980 F   0  0  0  0  0  0  0  0  0  0  0  0
  145.3220   72.3530  219.8800 C   0  0  0  0  0  0  0  0  0  0  0  0
  144.8310   73.5940  220.1590 C   0  0  0  0  0  0  0  0  0  0  0  0
  143.5150   73.8260  220.5190 C   0  0  0  0  0  0  0  0  0  0  0  0
  142.8630   74.9240  220.8350 N   0  0  0  0  0  0  0  0  0  0  0  0
  140.6010   77.0270  221.2030 N   0  0  0  0  0  0  0  0  0  0  0  0
  140.1050   77.7310  220.0480 C   0  0  0  0  0  0  0  0  0  0  0  0
  141.0750   78.8650  219.9030 C   0  0  1  0  0  0  0  0  0  0  0  0
  142.2400   78.4060  219.0780 C   0  0  0  0  0  0  0  0  0  0  0  0
  142.5790   79.5780  218.2210 C   0  0  0  0  0  0  0  0  0  0  0  0
  141.6100   80.5850  218.4990 N   0  0  0  0  0  0  0  0  0  0  0  0
  141.5630   81.6530  217.6250 C   0  0  2  0  0  0  0  0  0  0  0  0
  142.6860   81.9130  216.7040 C   0  0  0  0  0  0  0  0  0  0  0  0
  143.3490   83.2170  217.0990 C   0  0  0  0  0  0  0  0  0  0  0  0
  142.2520   83.9310  217.7280 N   0  0  0  0  0  0  0  0  0  0  0  0
  141.4540   82.9590  218.4190 C   0  0  0  0  0  0  0  0  0  0  0  0
  140.5080   80.0830  219.1920 C   0  0  0  0  0  0  0  0  0  0  0  0
  141.4460   79.1750  221.3000 C   0  0  0  0  0  0  0  0  0  0  0  0
  141.9880   80.2870  221.9590 C   0  0  0  0  0  0  0  0  0  0  0  0
  142.2380   80.2470  223.3330 C   0  0  0  0  0  0  0  0  0  0  0  0
  141.9650   79.1190  224.0800 C   0  0  0  0  0  0  0  0  0  0  0  0
  141.4370   78.0430  223.4170 C   0  0  0  0  0  0  0  0  0  0  0  0
  141.1720   78.0480  222.0450 C   0  0  0  0  0  0  0  0  0  0  0  0
  140.5116   72.7330  221.1527 H   0  0  0  0  0  0  0  0  0  0  0  0
  142.4526   70.6614  220.3866 H   0  0  0  0  0  0  0  0  0  0  0  0
  146.3759   72.2148  219.5966 H   0  0  0  0  0  0  0  0  0  0  0  0
  145.5147   74.4533  220.0948 H   0  0  0  0  0  0  0  0  0  0  0  0
  143.3230   75.8820  220.8400 H   0  0  0  0  0  0  0  0  0  0  0  0
  140.1148   77.0858  219.1572 H   0  0  0  0  0  0  0  0  0  0  0  0
  139.0622   78.0635  220.1574 H   0  0  0  0  0  0  0  0  0  0  0  0
  143.0901   78.1372  219.7222 H   0  0  0  0  0  0  0  0  0  0  0  0
  142.0040   77.5100  218.4851 H   0  0  0  0  0  0  0  0  0  0  0  0
  143.5871   79.9453  218.4632 H   0  0  0  0  0  0  0  0  0  0  0  0
  142.5692   79.3041  217.1557 H   0  0  0  0  0  0  0  0  0  0  0  0
  140.7076   81.3516  217.0025 H   0  0  0  0  0  0  0  0  0  0  0  0
  143.4157   81.0925  216.7696 H   0  0  0  0  0  0  0  0  0  0  0  0
  142.3144   81.9804  215.6709 H   0  0  0  0  0  0  0  0  0  0  0  0
  144.1745   83.0482  217.8062 H   0  0  0  0  0  0  0  0  0  0  0  0
  143.8062   83.7567  216.2566 H   0  0  0  0  0  0  0  0  0  0  0  0
  141.7330   84.4950  217.0330 H   0  0  0  0  0  0  0  0  0  0  0  0
  141.8343   82.8140  219.4409 H   0  0  0  0  0  0  0  0  0  0  0  0
  140.4074   83.2890  218.4951 H   0  0  0  0  0  0  0  0  0  0  0  0
  140.1262   80.8198  219.9140 H   0  0  0  0  0  0  0  0  0  0  0  0
  139.6568   79.8447  218.5373 H   0  0  0  0  0  0  0  0  0  0  0  0
  142.2186   81.1993  221.3893 H   0  0  0  0  0  0  0  0  0  0  0  0
  142.6611   81.1327  223.8296 H   0  0  0  0  0  0  0  0  0  0  0  0
  142.1630   79.0856  225.1615 H   0  0  0  0  0  0  0  0  0  0  0  0
  141.2110   77.1325  223.9914 H   0  0  0  0  0  0  0  0  0  0  0  0
  1  2  2  0
  2  3  1  0
  3  4  2  0
  4  5  1  0
  5  6  2  0
  6  7  1  0
  7  8  1  0
  7  9  2  0
  9 10  1  0
 10 11  2  0
 11 12  1  0
  2 13  1  0
 13 14  1  0
 15 14  1  1
 15 16  1  0
 16 17  1  0
 17 18  1  0
 18 19  1  0
 19 20  1  0
 20 21  1  0
 21 22  1  0
 22 23  1  0
 18 24  1  0
 15 25  1  0
 25 26  2  0
 26 27  1  0
 27 28  2  0
 28 29  1  0
 29 30  2  0
 12  3  1  0
 30 13  1  0
 11  5  1  0
 24 15  1  0
 30 25  1  0
 23 19  1  0
  4 31  1  0
  6 32  1  0
  9 33  1  0
 10 34  1  0
 12 35  1  0
 14 36  1  0
 14 37  1  0
 16 38  1  0
 16 39  1  0
 17 40  1  0
 17 41  1  0
 19 42  1  6
 20 43  1  0
 20 44  1  0
 21 45  1  0
 21 46  1  0
 22 47  1  0
 23 48  1  0
 23 49  1  0
 24 50  1  0
 24 51  1  0
 26 52  1  0
 27 53  1  0
 28 54  1  0
 29 55  1  0
M  END
>  <smiles>  (2) 
O=C(c1cc2cc(F)ccc2[nH]1)N1CC2(CCN(C3CCNC3)C2)c2ccccc21

>  <score_type>  (2) 
oracle

>  <origin>  (2) 
autodockgpu

>  <m_score__min__energy>  (2) 
-8.1400000000000006

>  <m_primary>  (2) 
energy

>  <meeko>  (2) 
{"free_energy": -7.98, "intermolecular_energy": -8.87, "internal_energy": -1.19, "cluster_size": 12, "cluster_id": 2, "rank_in_cluster": 2}

>  <energy>  (2) 
-8.12

>  <cluster_rmsd>  (2) 
0.03

>  <rmsd>  (2) 
271.9

>  <cluster>  (2) 
1

$$$$

     RDKit          3D

 55 60  0  0  1  0  0  0  0  0999 V2000
  139.6660   75.2830  222.3610 O   0  0  0  0  0  0  0  0  0  0  0  0
  140.6090   75.6710  221.5710 C   0  0  0  0  0  0  0  0  0  0  0  0
  141.5490   74.6730  221.1500 C   0  0  0  0  0  0  0  0  0  0  0  0
  141.4240   73.3070  221.0060 C   0  0  0  0  0  0  0  0  0  0  0  0
  142.6360   72.7540  220.6140 C   0  0  0  0  0  0  0  0  0  0  0  0
  143.1210   71.5120  220.3400 C   0  0  0  0  0  0  0  0  0  0  0  0
  144.4400   71.2610  219.9740 C   0  0  0  0  0  0  0  0  0  0  0  0
  144.8570   69.9800  219.7150 F   0  0  0  0  0  0  0  0  0  0  0  0
  145.3010   72.3400  219.8830 C   0  0  0  0  0  0  0  0  0  0  0  0
  144.8150   73.5830  220.1560 C   0  0  0  0  0  0  0  0  0  0  0  0
  143.5010   73.8210  220.5210 C   0  0  0  0  0  0  0  0  0  0  0  0
  142.8530   74.9220  220.8350 N   0  0  0  0  0  0  0  0  0  0  0  0
  140.6020   77.0330  221.2070 N   0  0  0  0  0  0  0  0  0  0  0  0
  140.1080   77.7370  220.0510 C   0  0  0  0  0  0  0  0  0  0  0  0
  141.0820   78.8680  219.9030 C   0  0  1  0  0  0  0  0  0  0  0  0
  142.2450   78.4030  219.0790 C   0  0  0  0  0  0  0  0  0  0  0  0
  142.5880   79.5720  218.2200 C   0  0  0  0  0  0  0  0  0  0  0  0
  141.6240   80.5830  218.4960 N   0  0  0  0  0  0  0  0  0  0  0  0
  141.5800   81.6500  217.6210 C   0  0  2  0  0  0  0  0  0  0  0  0
  142.7090   81.9120  216.7080 C   0  0  0  0  0  0  0  0  0  0  0  0
  143.3660   83.2190  217.1070 C   0  0  0  0  0  0  0  0  0  0  0  0
  142.2620   83.9300  217.7260 N   0  0  0  0  0  0  0  0  0  0  0  0
  141.4610   82.9570  218.4130 C   0  0  0  0  0  0  0  0  0  0  0  0
  140.5190   80.0870  219.1910 C   0  0  0  0  0  0  0  0  0  0  0  0
  141.4550   79.1780  221.3000 C   0  0  0  0  0  0  0  0  0  0  0  0
  142.0010   80.2900  221.9570 C   0  0  0  0  0  0  0  0  0  0  0  0
  142.2520   80.2510  223.3310 C   0  0  0  0  0  0  0  0  0  0  0  0
  141.9750   79.1250  224.0800 C   0  0  0  0  0  0  0  0  0  0  0  0
  141.4420   78.0500  223.4190 C   0  0  0  0  0  0  0  0  0  0  0  0
  141.1770   78.0540  222.0470 C   0  0  0  0  0  0  0  0  0  0  0  0
  140.4983   72.7380  221.1769 H   0  0  0  0  0  0  0  0  0  0  0  0
  142.4312   70.6582  220.4120 H   0  0  0  0  0  0  0  0  0  0  0  0
  146.3535   72.1976  219.5968 H   0  0  0  0  0  0  0  0  0  0  0  0
  145.5006   74.4401  220.0828 H   0  0  0  0  0  0  0  0  0  0  0  0
  143.3150   75.8790  220.8320 H   0  0  0  0  0  0  0  0  0  0  0  0
  140.1151   77.0902  219.1613 H   0  0  0  0  0  0  0  0  0  0  0  0
  139.0665   78.0734  220.1607 H   0  0  0  0  0  0  0  0  0  0  0  0
  143.0942   78.1323  219.7236 H   0  0  0  0  0  0  0  0  0  0  0  0
  142.0058   77.5067  218.4879 H   0  0  0  0  0  0  0  0  0  0  0  0
  143.5977   79.9357  218.4612 H   0  0  0  0  0  0  0  0  0  0  0  0
  142.5763   79.2960  217.1553 H   0  0  0  0  0  0  0  0  0  0  0  0
  140.7298   81.3459  216.9927 H   0  0  0  0  0  0  0  0  0  0  0  0
  143.4403   81.0934  216.7798 H   0  0  0  0  0  0  0  0  0  0  0  0
  142.3449   81.9773  215.6721 H   0  0  0  0  0  0  0  0  0  0  0  0
  144.1862   83.0533  217.8210 H   0  0  0  0  0  0  0  0  0  0  0  0
  143.8289   83.7591  216.2679 H   0  0  0  0  0  0  0  0  0  0  0  0
  141.7470   84.4920  217.0270 H   0  0  0  0  0  0  0  0  0  0  0  0
  141.8339   82.8145  219.4380 H   0  0  0  0  0  0  0  0  0  0  0  0
  140.4130   83.2842  218.4813 H   0  0  0  0  0  0  0  0  0  0  0  0
  140.1410   80.8266  219.9122 H   0  0  0  0  0  0  0  0  0  0  0  0
  139.6658   79.8519  218.5377 H   0  0  0  0  0  0  0  0  0  0  0  0
  142.2337   81.2008  221.3858 H   0  0  0  0  0  0  0  0  0  0  0  0
  142.6791   81.1357  223.8260 H   0  0  0  0  0  0  0  0  0  0  0  0
  142.1738   79.0923  225.1614 H   0  0  0  0  0  0  0  0  0  0  0  0
  141.2119   77.1415  223.9950 H   0  0  0  0  0  0  0  0  0  0  0  0
  1  2  2  0
  2  3  1  0
  3  4  2  0
  4  5  1  0
  5  6  2  0
  6  7  1  0
  7  8  1  0
  7  9  2  0
  9 10  1  0
 10 11  2  0
 11 12  1  0
  2 13  1  0
 13 14  1  0
 15 14  1  1
 15 16  1  0
 16 17  1  0
 17 18  1  0
 18 19  1  0
 19 20  1  0
 20 21  1  0
 21 22  1  0
 22 23  1  0
 18 24  1  0
 15 25  1  0
 25 26  2  0
 26 27  1  0
 27 28  2  0
 28 29  1  0
 29 30  2  0
 12  3  1  0
 30 13  1  0
 11  5  1  0
 24 15  1  0
 30 25  1  0
 23 19  1  0
  4 31  1  0
  6 32  1  0
  9 33  1  0
 10 34  1  0
 12 35  1  0
 14 36  1  0
 14 37  1  0
 16 38  1  0
 16 39  1  0
 17 40  1  0
 17 41  1  0
 19 42  1  6
 20 43  1  0
 20 44  1  0
 21 45  1  0
 21 46  1  0
 22 47  1  0
 23 48  1  0
 23 49  1  0
 24 50  1  0
 24 51  1  0
 26 52  1  0
 27 53  1  0
 28 54  1  0
 29 55  1  0
M  END
>  <smiles>  (3) 
O=C(c1cc2cc(F)ccc2[nH]1)N1CC2(CCN(C3CCNC3)C2)c2ccccc21

>  <score_type>  (3) 
oracle

>  <origin>  (3) 
autodockgpu

>  <m_score__min__energy>  (3) 
-8.1400000000000006

>  <m_primary>  (3) 
energy

>  <meeko>  (3) 
{"free_energy": -7.97, "intermolecular_energy": -8.87, "internal_energy": -1.19, "cluster_size": 12, "cluster_id": 2, "rank_in_cluster": 4}

>  <energy>  (3) 
-8.12

>  <cluster_rmsd>  (3) 
0.09

>  <rmsd>  (3) 
271.86

>  <cluster>  (3) 
1

$$$$

     RDKit          3D

 55 60  0  0  1  0  0  0  0  0999 V2000
  139.6270   75.2990  222.3520 O   0  0  0  0  0  0  0  0  0  0  0  0
  140.5720   75.6870  221.5640 C   0  0  0  0  0  0  0  0  0  0  0  0
  141.5140   74.6880  221.1460 C   0  0  0  0  0  0  0  0  0  0  0  0
  141.3880   73.3220  220.9990 C   0  0  0  0  0  0  0  0  0  0  0  0
  142.6010   72.7690  220.6130 C   0  0  0  0  0  0  0  0  0  0  0  0
  143.0870   71.5260  220.3400 C   0  0  0  0  0  0  0  0  0  0  0  0
  144.4070   71.2750  219.9800 C   0  0  0  0  0  0  0  0  0  0  0  0
  144.8240   69.9940  219.7220 F   0  0  0  0  0  0  0  0  0  0  0  0
  145.2700   72.3530  219.8950 C   0  0  0  0  0  0  0  0  0  0  0  0
  144.7830   73.5970  220.1680 C   0  0  0  0  0  0  0  0  0  0  0  0
  143.4680   73.8350  220.5270 C   0  0  0  0  0  0  0  0  0  0  0  0
  142.8190   74.9360  220.8380 N   0  0  0  0  0  0  0  0  0  0  0  0
  140.5660   77.0480  221.1980 N   0  0  0  0  0  0  0  0  0  0  0  0
  140.0780   77.7510  220.0380 C   0  0  0  0  0  0  0  0  0  0  0  0
  141.0510   78.8820  219.8960 C   0  0  1  0  0  0  0  0  0  0  0  0
  142.2200   78.4180  219.0790 C   0  0  0  0  0  0  0  0  0  0  0  0
  142.5680   79.5860  218.2210 C   0  0  0  0  0  0  0  0  0  0  0  0
  141.6000   80.5970  218.4900 N   0  0  0  0  0  0  0  0  0  0  0  0
  141.5610   81.6620  217.6140 C   0  0  2  0  0  0  0  0  0  0  0  0
  142.7000   81.9310  216.7150 C   0  0  0  0  0  0  0  0  0  0  0  0
  143.3430   83.2430  217.1220 C   0  0  0  0  0  0  0  0  0  0  0  0
  142.2260   83.9470  217.7260 N   0  0  0  0  0  0  0  0  0  0  0  0
  141.4230   82.9690  218.4030 C   0  0  0  0  0  0  0  0  0  0  0  0
  140.4920   80.1000  219.1790 C   0  0  0  0  0  0  0  0  0  0  0  0
  141.4160   79.1940  221.2950 C   0  0  0  0  0  0  0  0  0  0  0  0
  141.9570   80.3070  221.9530 C   0  0  0  0  0  0  0  0  0  0  0  0
  142.1990   80.2700  223.3290 C   0  0  0  0  0  0  0  0  0  0  0  0
  141.9190   79.1440  224.0780 C   0  0  0  0  0  0  0  0  0  0  0  0
  141.3910   78.0680  223.4140 C   0  0  0  0  0  0  0  0  0  0  0  0
  141.1350   78.0700  222.0410 C   0  0  0  0  0  0  0  0  0  0  0  0
  140.4607   72.7537  221.1638 H   0  0  0  0  0  0  0  0  0  0  0  0
  142.3965   70.6724  220.4081 H   0  0  0  0  0  0  0  0  0  0  0  0
  146.3238   72.2099  219.6139 H   0  0  0  0  0  0  0  0  0  0  0  0
  145.4695   74.4538  220.0995 H   0  0  0  0  0  0  0  0  0  0  0  0
  143.2820   75.8930  220.8390 H   0  0  0  0  0  0  0  0  0  0  0  0
  140.0914   77.1038  219.1487 H   0  0  0  0  0  0  0  0  0  0  0  0
  139.0353   78.0861  220.1407 H   0  0  0  0  0  0  0  0  0  0  0  0
  143.0654   78.1485  219.7292 H   0  0  0  0  0  0  0  0  0  0  0  0
  141.9847   77.5214  218.4868 H   0  0  0  0  0  0  0  0  0  0  0  0
  143.5757   79.9510  218.4686 H   0  0  0  0  0  0  0  0  0  0  0  0
  142.5643   79.3090  217.1564 H   0  0  0  0  0  0  0  0  0  0  0  0
  140.7214   81.3511  216.9749 H   0  0  0  0  0  0  0  0  0  0  0  0
  143.4358   81.1174  216.7965 H   0  0  0  0  0  0  0  0  0  0  0  0
  142.3489   81.9932  215.6744 H   0  0  0  0  0  0  0  0  0  0  0  0
  144.1548   83.0832  217.8469 H   0  0  0  0  0  0  0  0  0  0  0  0
  143.8133   83.7857  216.2888 H   0  0  0  0  0  0  0  0  0  0  0  0
  141.7160   84.5050  217.0190 H   0  0  0  0  0  0  0  0  0  0  0  0
  141.7835   82.8298  219.4329 H   0  0  0  0  0  0  0  0  0  0  0  0
  140.3720   83.2891  218.4570 H   0  0  0  0  0  0  0  0  0  0  0  0
  140.1089   80.8399  219.8972 H   0  0  0  0  0  0  0  0  0  0  0  0
  139.6435   79.8629  218.5204 H   0  0  0  0  0  0  0  0  0  0  0  0
  142.1930   81.2170  221.3818 H   0  0  0  0  0  0  0  0  0  0  0  0
  142.6212   81.1560  223.8257 H   0  0  0  0  0  0  0  0  0  0  0  0
  142.1115   79.1123  225.1606 H   0  0  0  0  0  0  0  0  0  0  0  0
  141.1578   77.1599  223.9893 H   0  0  0  0  0  0  0  0  0  0  0  0
  1  2  2  0
  2  3  1  0
  3  4  2  0
  4  5  1  0
  5  6  2  0
  6  7  1  0
  7  8  1  0
  7  9  2  0
  9 10  1  0
 10 11  2  0
 11 12  1  0
  2 13  1  0
 13 14  1  0
 15 14  1  1
 15 16  1  0
 16 17  1  0
 17 18  1  0
 18 19  1  0
 19 20  1  0
 20 21  1  0
 21 22  1  0
 22 23  1  0
 18 24  1  0
 15 25  1  0
 25 26  2  0
 26 27  1  0
 27 28  2  0
 28 29  1  0
 29 30  2  0
 12  3  1  0
 30 13  1  0
 11  5  1  0
 24 15  1  0
 30 25  1  0
 23 19  1  0
  4 31  1  0
  6 32  1  0
  9 33  1  0
 10 34  1  0
 12 35  1  0
 14 36  1  0
 14 37  1  0
 16 38  1  0
 16 39  1  0
 17 40  1  0
 17 41  1  0
 19 42  1  6
 20 43  1  0
 20 44  1  0
 21 45  1  0
 21 46  1  0
 22 47  1  0
 23 48  1  0
 23 49  1  0
 24 50  1  0
 24 51  1  0
 26 52  1  0
 27 53  1  0
 28 54  1  0
 29 55  1  0
M  END
>  <smiles>  (4) 
O=C(c1cc2cc(F)ccc2[nH]1)N1CC2(CCN(C3CCNC3)C2)c2ccccc21

>  <score_type>  (4) 
oracle

>  <origin>  (4) 
autodockgpu

>  <m_score__min__energy>  (4) 
-8.1400000000000006

>  <m_primary>  (4) 
energy

>  <meeko>  (4) 
{"free_energy": -7.97, "intermolecular_energy": -8.86, "internal_energy": -1.19, "cluster_size": 12, "cluster_id": 2, "rank_in_cluster": 7}

>  <energy>  (4) 
-8.09

>  <cluster_rmsd>  (4) 
0.1

>  <rmsd>  (4) 
271.91

>  <cluster>  (4) 
1

$$$$

     RDKit          3D

 55 60  0  0  1  0  0  0  0  0999 V2000
  140.4360   78.3400  219.3320 O   0  0  0  0  0  0  0  0  0  0  0  0
  140.7410   77.8040  220.4660 C   0  0  0  0  0  0  0  0  0  0  0  0
  141.4710   76.5690  220.4190 C   0  0  0  0  0  0  0  0  0  0  0  0
  141.0920   75.2760  220.7110 C   0  0  0  0  0  0  0  0  0  0  0  0
  142.1710   74.4160  220.5610 C   0  0  0  0  0  0  0  0  0  0  0  0
  142.4130   73.0840  220.7140 C   0  0  0  0  0  0  0  0  0  0  0  0
  143.6530   72.4940  220.4970 C   0  0  0  0  0  0  0  0  0  0  0  0
  143.8200   71.1440  220.6740 F   0  0  0  0  0  0  0  0  0  0  0  0
  144.6980   73.3110  220.1020 C   0  0  0  0  0  0  0  0  0  0  0  0
  144.4560   74.6440  219.9480 C   0  0  0  0  0  0  0  0  0  0  0  0
  143.2170   75.2210  220.1690 C   0  0  0  0  0  0  0  0  0  0  0  0
  142.7910   76.4630  220.0920 N   0  0  0  0  0  0  0  0  0  0  0  0
  140.3270   78.4990  221.6200 N   0  0  0  0  0  0  0  0  0  0  0  0
  139.0780   78.5520  222.3370 C   0  0  0  0  0  0  0  0  0  0  0  0
  139.0460   79.9600  222.8520 C   0  0  1  0  0  0  0  0  0  0  0  0
  138.4410   80.8470  221.8050 C   0  0  0  0  0  0  0  0  0  0  0  0
  137.6040   81.8150  222.5690 C   0  0  0  0  0  0  0  0  0  0  0  0
  137.6780   81.4310  223.9390 N   0  0  0  0  0  0  0  0  0  0  0  0
  136.7660   82.0160  224.7940 C   0  0  2  0  0  0  0  0  0  0  0  0
  137.1550   82.3680  226.1730 C   0  0  0  0  0  0  0  0  0  0  0  0
  136.3830   81.4900  227.1380 C   0  0  0  0  0  0  0  0  0  0  0  0
  135.1840   81.1900  226.3740 N   0  0  0  0  0  0  0  0  0  0  0  0
  135.5770   81.0700  224.9980 C   0  0  0  0  0  0  0  0  0  0  0  0
  138.2030   80.1480  224.1030 C   0  0  0  0  0  0  0  0  0  0  0  0
  140.4710   80.2610  223.1070 C   0  0  0  0  0  0  0  0  0  0  0  0
  141.1630   81.1890  223.8970 C   0  0  0  0  0  0  0  0  0  0  0  0
  142.5600   81.2180  223.9010 C   0  0  0  0  0  0  0  0  0  0  0  0
  143.2990   80.3430  223.1310 C   0  0  0  0  0  0  0  0  0  0  0  0
  142.6030   79.4440  222.3650 C   0  0  0  0  0  0  0  0  0  0  0  0
  141.2080   79.3860  222.3380 C   0  0  0  0  0  0  0  0  0  0  0  0
  140.0810   74.9703  221.0183 H   0  0  0  0  0  0  0  0  0  0  0  0
  141.5794   72.4383  221.0272 H   0  0  0  0  0  0  0  0  0  0  0  0
  145.6994   72.8951  219.9168 H   0  0  0  0  0  0  0  0  0  0  0  0
  145.2862   75.2930  219.6326 H   0  0  0  0  0  0  0  0  0  0  0  0
  143.4220   77.2690  219.8040 H   0  0  0  0  0  0  0  0  0  0  0  0
  138.2282   78.3566  221.6664 H   0  0  0  0  0  0  0  0  0  0  0  0
  139.0021   77.7967  223.1331 H   0  0  0  0  0  0  0  0  0  0  0  0
  139.2256   81.3728  221.2411 H   0  0  0  0  0  0  0  0  0  0  0  0
  137.8542   80.2804  221.0670 H   0  0  0  0  0  0  0  0  0  0  0  0
  137.9928   82.8359  222.4403 H   0  0  0  0  0  0  0  0  0  0  0  0
  136.5636   81.8052  222.2119 H   0  0  0  0  0  0  0  0  0  0  0  0
  136.5902   82.9640  224.2644 H   0  0  0  0  0  0  0  0  0  0  0  0
  138.2344   82.2033  226.3060 H   0  0  0  0  0  0  0  0  0  0  0  0
  136.9270   83.4265  226.3668 H   0  0  0  0  0  0  0  0  0  0  0  0
  136.9422   80.5745  227.3814 H   0  0  0  0  0  0  0  0  0  0  0  0
  136.1842   81.9647  228.1102 H   0  0  0  0  0  0  0  0  0  0  0  0
  134.4490   81.8970  226.5490 H   0  0  0  0  0  0  0  0  0  0  0  0
  135.8748   80.0342  224.7780 H   0  0  0  0  0  0  0  0  0  0  0  0
  134.7459   81.3292  224.3256 H   0  0  0  0  0  0  0  0  0  0  0  0
  138.8226   80.0875  225.0099 H   0  0  0  0  0  0  0  0  0  0  0  0
  137.4292   79.3756  224.2240 H   0  0  0  0  0  0  0  0  0  0  0  0
  140.6013   81.9010  224.5196 H   0  0  0  0  0  0  0  0  0  0  0  0
  143.0816   81.9536  224.5310 H   0  0  0  0  0  0  0  0  0  0  0  0
  144.3988   80.3659  223.1319 H   0  0  0  0  0  0  0  0  0  0  0  0
  143.1696   78.7355  221.7429 H   0  0  0  0  0  0  0  0  0  0  0  0
  1  2  2  0
  2  3  1  0
  3  4  2  0
  4  5  1  0
  5  6  2  0
  6  7  1  0
  7  8  1  0
  7  9  2  0
  9 10  1  0
 10 11  2  0
 11 12  1  0
  2 13  1  0
 13 14  1  0
 15 14  1  6
 15 16  1  0
 16 17  1  0
 17 18  1  0
 18 19  1  0
 19 20  1  0
 20 21  1  0
 21 22  1  0
 22 23  1  0
 18 24  1  0
 15 25  1  0
 25 26  2  0
 26 27  1  0
 27 28  2  0
 28 29  1  0
 29 30  2  0
 12  3  1  0
 30 13  1  0
 11  5  1  0
 24 15  1  0
 30 25  1  0
 23 19  1  0
  4 31  1  0
  6 32  1  0
  9 33  1  0
 10 34  1  0
 12 35  1  0
 14 36  1  0
 14 37  1  0
 16 38  1  0
 16 39  1  0
 17 40  1  0
 17 41  1  0
 19 42  1  6
 20 43  1  0
 20 44  1  0
 21 45  1  0
 21 46  1  0
 22 47  1  0
 23 48  1  0
 23 49  1  0
 24 50  1  0
 24 51  1  0
 26 52  1  0
 27 53  1  0
 28 54  1  0
 29 55  1  0
M  END
>  <smiles>  (5) 
O=C(c1cc2cc(F)ccc2[nH]1)N1CC2(CCN(C3CCNC3)C2)c2ccccc21

>  <score_type>  (5) 
oracle

>  <origin>  (5) 
autodockgpu

>  <m_score__min__energy>  (5) 
-8.1400000000000006

>  <m_primary>  (5) 
energy

>  <meeko>  (5) 
{"free_energy": -7.99, "intermolecular_energy": -8.88, "internal_energy": -1.14, "cluster_size": 7, "cluster_id": 1, "rank_in_cluster": 7}

>  <energy>  (5) 
-8.01

>  <cluster_rmsd>  (5) 
0.42

>  <rmsd>  (5) 
271.83

>  <cluster>  (5) 
1

$$$$

     RDKit          3D

 55 60  0  0  1  0  0  0  0  0999 V2000
  139.7570   75.5480  222.3000 O   0  0  0  0  0  0  0  0  0  0  0  0
  140.7140   75.9330  221.5240 C   0  0  0  0  0  0  0  0  0  0  0  0
  141.6660   74.9340  221.1300 C   0  0  0  0  0  0  0  0  0  0  0  0
  142.8710   75.0360  220.4670 C   0  0  0  0  0  0  0  0  0  0  0  0
  143.4140   73.7740  220.2660 C   0  0  0  0  0  0  0  0  0  0  0  0
  144.5280   73.2510  219.6830 C   0  0  0  0  0  0  0  0  0  0  0  0
  144.8010   71.8880  219.6230 C   0  0  0  0  0  0  0  0  0  0  0  0
  145.9450   71.4350  219.0150 F   0  0  0  0  0  0  0  0  0  0  0  0
  143.8850   71.0200  220.1900 C   0  0  0  0  0  0  0  0  0  0  0  0
  142.7700   71.5440  220.7740 C   0  0  0  0  0  0  0  0  0  0  0  0
  142.5090   72.9020  220.8270 C   0  0  0  0  0  0  0  0  0  0  0  0
  141.5040   73.5940  221.3220 N   0  0  0  0  0  0  0  0  0  0  0  0
  140.7090   77.2920  221.1490 N   0  0  0  0  0  0  0  0  0  0  0  0
  140.1940   77.9900  219.9980 C   0  0  0  0  0  0  0  0  0  0  0  0
  141.1730   79.1120  219.8190 C   0  0  1  0  0  0  0  0  0  0  0  0
  142.3140   78.6310  218.9730 C   0  0  0  0  0  0  0  0  0  0  0  0
  142.6470   79.7900  218.0970 C   0  0  0  0  0  0  0  0  0  0  0  0
  141.6960   80.8110  218.3860 N   0  0  0  0  0  0  0  0  0  0  0  0
  141.6410   81.8710  217.5030 C   0  0  2  0  0  0  0  0  0  0  0  0
  142.8090   82.2050  216.6650 C   0  0  0  0  0  0  0  0  0  0  0  0
  143.3500   83.5530  217.0980 C   0  0  0  0  0  0  0  0  0  0  0  0
  142.1630   84.1910  217.6380 N   0  0  0  0  0  0  0  0  0  0  0  0
  141.3840   83.1680  218.2760 C   0  0  0  0  0  0  0  0  0  0  0  0
  140.6040   80.3290  219.1090 C   0  0  0  0  0  0  0  0  0  0  0  0
  141.5800   79.4310  221.2050 C   0  0  0  0  0  0  0  0  0  0  0  0
  142.1490   80.5440  221.8390 C   0  0  0  0  0  0  0  0  0  0  0  0
  142.4310   80.5150  223.2080 C   0  0  0  0  0  0  0  0  0  0  0  0
  142.1620   79.3970  223.9730 C   0  0  0  0  0  0  0  0  0  0  0  0
  141.6060   78.3200  223.3330 C   0  0  0  0  0  0  0  0  0  0  0  0
  141.3110   78.3150  221.9680 C   0  0  0  0  0  0  0  0  0  0  0  0
  143.3345   75.9799  220.1443 H   0  0  0  0  0  0  0  0  0  0  0  0
  145.2532   73.9456  219.2340 H   0  0  0  0  0  0  0  0  0  0  0  0
  144.0523   69.9330  220.1701 H   0  0  0  0  0  0  0  0  0  0  0  0
  142.0422   70.8535  221.2252 H   0  0  0  0  0  0  0  0  0  0  0  0
  140.6790   73.1360  221.8110 H   0  0  0  0  0  0  0  0  0  0  0  0
  140.1763   77.3357  219.1139 H   0  0  0  0  0  0  0  0  0  0  0  0
  139.1576   78.3351  220.1278 H   0  0  0  0  0  0  0  0  0  0  0  0
  143.1752   78.3587  219.6009 H   0  0  0  0  0  0  0  0  0  0  0  0
  142.0546   77.7319  218.3948 H   0  0  0  0  0  0  0  0  0  0  0  0
  143.6644   80.1480  218.3131 H   0  0  0  0  0  0  0  0  0  0  0  0
  142.6103   79.5055  217.0351 H   0  0  0  0  0  0  0  0  0  0  0  0
  140.8566   81.5099  216.8215 H   0  0  0  0  0  0  0  0  0  0  0  0
  143.5862   81.4368  216.7907 H   0  0  0  0  0  0  0  0  0  0  0  0
  142.5115   82.2436  215.6067 H   0  0  0  0  0  0  0  0  0  0  0  0
  144.1300   83.4434  217.8658 H   0  0  0  0  0  0  0  0  0  0  0  0
  143.8309   84.1207  216.2878 H   0  0  0  0  0  0  0  0  0  0  0  0
  141.6600   84.7160  216.9020 H   0  0  0  0  0  0  0  0  0  0  0  0
  141.6962   83.0525  219.3244 H   0  0  0  0  0  0  0  0  0  0  0  0
  140.3145   83.4253  218.2718 H   0  0  0  0  0  0  0  0  0  0  0  0
  140.2473   81.0774  219.8319 H   0  0  0  0  0  0  0  0  0  0  0  0
  139.7353   80.0944  218.4763 H   0  0  0  0  0  0  0  0  0  0  0  0
  142.3756   81.4479  221.2545 H   0  0  0  0  0  0  0  0  0  0  0  0
  142.8761   81.4004  223.6854 H   0  0  0  0  0  0  0  0  0  0  0  0
  142.3845   79.3720  225.0500 H   0  0  0  0  0  0  0  0  0  0  0  0
  141.3819   77.4182  223.9216 H   0  0  0  0  0  0  0  0  0  0  0  0
  1  2  2  0
  2  3  1  0
  3  4  2  0
  4  5  1  0
  5  6  2  0
  6  7  1  0
  7  8  1  0
  7  9  2  0
  9 10  1  0
 10 11  2  0
 11 12  1  0
  2 13  1  0
 13 14  1  0
 15 14  1  1
 15 16  1  0
 16 17  1  0
 17 18  1  0
 18 19  1  0
 19 20  1  0
 20 21  1  0
 21 22  1  0
 22 23  1  0
 18 24  1  0
 15 25  1  0
 25 26  2  0
 26 27  1  0
 27 28  2  0
 28 29  1  0
 29 30  2  0
 12  3  1  0
 30 13  1  0
 11  5  1  0
 24 15  1  0
 30 25  1  0
 23 19  1  0
  4 31  1  0
  6 32  1  0
  9 33  1  0
 10 34  1  0
 12 35  1  0
 14 36  1  0
 14 37  1  0
 16 38  1  0
 16 39  1  0
 17 40  1  0
 17 41  1  0
 19 42  1  6
 20 43  1  0
 20 44  1  0
 21 45  1  0
 21 46  1  0
 22 47  1  0
 23 48  1  0
 23 49  1  0
 24 50  1  0
 24 51  1  0
 26 52  1  0
 27 53  1  0
 28 54  1  0
 29 55  1  0
M  END
>  <smiles>  (6) 
O=C(c1cc2cc(F)ccc2[nH]1)N1CC2(CCN(C3CCNC3)C2)c2ccccc21

>  <score_type>  (6) 
oracle

>  <origin>  (6) 
autodockgpu

>  <m_score__min__energy>  (6) 
-8.1400000000000006

>  <m_primary>  (6) 
energy

>  <meeko>  (6) 
{"free_energy": -7.59, "intermolecular_energy": -8.49, "internal_energy": -1.35, "cluster_size": 12, "cluster_id": 2, "rank_in_cluster": 11}

>  <energy>  (6) 
-8.0

>  <cluster_rmsd>  (6) 
0.35

>  <rmsd>  (6) 
271.82

>  <cluster>  (6) 
1

$$$$

     RDKit          3D

 55 60  0  0  1  0  0  0  0  0999 V2000
  138.5540   77.1140  222.9530 O   0  0  0  0  0  0  0  0  0  0  0  0
  139.5860   77.0800  222.1790 C   0  0  0  0  0  0  0  0  0  0  0  0
  140.1570   75.7880  221.9220 C   0  0  0  0  0  0  0  0  0  0  0  0
  141.3170   75.4170  221.2760 C   0  0  0  0  0  0  0  0  0  0  0  0
  141.4200   74.0330  221.2350 C   0  0  0  0  0  0  0  0  0  0  0  0
  142.2940   73.1140  220.7390 C   0  0  0  0  0  0  0  0  0  0  0  0
  142.1110   71.7390  220.8440 C   0  0  0  0  0  0  0  0  0  0  0  0
  143.0350   70.8730  220.3160 F   0  0  0  0  0  0  0  0  0  0  0  0
  140.9750   71.2860  221.4910 C   0  0  0  0  0  0  0  0  0  0  0  0
  140.1010   72.2060  221.9880 C   0  0  0  0  0  0  0  0  0  0  0  0
  140.2930   73.5720  221.8760 C   0  0  0  0  0  0  0  0  0  0  0  0
  139.5750   74.6040  222.2670 N   0  0  0  0  0  0  0  0  0  0  0  0
  140.0300   78.3170  221.6690 N   0  0  0  0  0  0  0  0  0  0  0  0
  139.7070   79.0580  220.4760 C   0  0  0  0  0  0  0  0  0  0  0  0
  141.0010   79.7400  220.1440 C   0  0  1  0  0  0  0  0  0  0  0  0
  141.8330   78.8190  219.3030 C   0  0  0  0  0  0  0  0  0  0  0  0
  142.4850   79.7090  218.3010 C   0  0  0  0  0  0  0  0  0  0  0  0
  141.9770   81.0220  218.5250 N   0  0  0  0  0  0  0  0  0  0  0  0
  142.2310   81.9580  217.5430 C   0  0  2  0  0  0  0  0  0  0  0  0
  143.6080   82.1760  217.0590 C   0  0  0  0  0  0  0  0  0  0  0  0
  144.0520   83.5680  217.4640 C   0  0  0  0  0  0  0  0  0  0  0  0
  142.7860   84.2740  217.5410 N   0  0  0  0  0  0  0  0  0  0  0  0
  141.8110   83.3460  218.0370 C   0  0  0  0  0  0  0  0  0  0  0  0
  140.8430   81.0200  219.3390 C   0  0  0  0  0  0  0  0  0  0  0  0
  141.5970   80.0020  221.4710 C   0  0  0  0  0  0  0  0  0  0  0  0
  142.5660   80.8860  221.9660 C   0  0  0  0  0  0  0  0  0  0  0  0
  142.9220   80.8680  223.3170 C   0  0  0  0  0  0  0  0  0  0  0  0
  142.3370   79.9840  224.2020 C   0  0  0  0  0  0  0  0  0  0  0  0
  141.3920   79.1280  223.6980 C   0  0  0  0  0  0  0  0  0  0  0  0
  141.0120   79.1200  222.3540 C   0  0  0  0  0  0  0  0  0  0  0  0
  142.0541   76.1161  220.8542 H   0  0  0  0  0  0  0  0  0  0  0  0
  143.1959   73.4797  220.2262 H   0  0  0  0  0  0  0  0  0  0  0  0
  140.7819   70.2088  221.6016 H   0  0  0  0  0  0  0  0  0  0  0  0
  139.1987   71.8452  222.5034 H   0  0  0  0  0  0  0  0  0  0  0  0
  138.6560   74.4970  222.7900 H   0  0  0  0  0  0  0  0  0  0  0  0
  139.3950   78.3845  219.6642 H   0  0  0  0  0  0  0  0  0  0  0  0
  138.8698   79.7582  220.6131 H   0  0  0  0  0  0  0  0  0  0  0  0
  142.5884   78.3080  219.9180 H   0  0  0  0  0  0  0  0  0  0  0  0
  141.2311   78.0293  218.8296 H   0  0  0  0  0  0  0  0  0  0  0  0
  143.5765   79.6968  218.4370 H   0  0  0  0  0  0  0  0  0  0  0  0
  142.2715   79.3725  217.2757 H   0  0  0  0  0  0  0  0  0  0  0  0
  141.6693   81.5138  216.7080 H   0  0  0  0  0  0  0  0  0  0  0  0
  144.2800   81.4286  217.5061 H   0  0  0  0  0  0  0  0  0  0  0  0
  143.6401   82.0766  215.9640 H   0  0  0  0  0  0  0  0  0  0  0  0
  144.5643   83.5574  218.4374 H   0  0  0  0  0  0  0  0  0  0  0  0
  144.7744   84.0239  216.7710 H   0  0  0  0  0  0  0  0  0  0  0  0
  142.5460   84.7010  216.6300 H   0  0  0  0  0  0  0  0  0  0  0  0
  141.7928   83.3673  219.1366 H   0  0  0  0  0  0  0  0  0  0  0  0
  140.8029   83.6039  217.6805 H   0  0  0  0  0  0  0  0  0  0  0  0
  140.8273   81.9013  219.9971 H   0  0  0  0  0  0  0  0  0  0  0  0
  139.9020   81.0610  218.7709 H   0  0  0  0  0  0  0  0  0  0  0  0
  143.0506   81.6005  221.2844 H   0  0  0  0  0  0  0  0  0  0  0  0
  143.6836   81.5722  223.6830 H   0  0  0  0  0  0  0  0  0  0  0  0
  142.6171   79.9673  225.2656 H   0  0  0  0  0  0  0  0  0  0  0  0
  140.9110   78.4148  224.3836 H   0  0  0  0  0  0  0  0  0  0  0  0
  1  2  2  0
  2  3  1  0
  3  4  2  0
  4  5  1  0
  5  6  2  0
  6  7  1  0
  7  8  1  0
  7  9  2  0
  9 10  1  0
 10 11  2  0
 11 12  1  0
  2 13  1  0
 13 14  1  0
 15 14  1  1
 15 16  1  0
 16 17  1  0
 17 18  1  0
 18 19  1  0
 19 20  1  0
 20 21  1  0
 21 22  1  0
 22 23  1  0
 18 24  1  0
 15 25  1  0
 25 26  2  0
 26 27  1  0
 27 28  2  0
 28 29  1  0
 29 30  2  0
 12  3  1  0
 30 13  1  0
 11  5  1  0
 24 15  1  0
 30 25  1  0
 23 19  1  0
  4 31  1  0
  6 32  1  0
  9 33  1  0
 10 34  1  0
 12 35  1  0
 14 36  1  0
 14 37  1  0
 16 38  1  0
 16 39  1  0
 17 40  1  0
 17 41  1  0
 19 42  1  6
 20 43  1  0
 20 44  1  0
 21 45  1  0
 21 46  1  0
 22 47  1  0
 23 48  1  0
 23 49  1  0
 24 50  1  0
 24 51  1  0
 26 52  1  0
 27 53  1  0
 28 54  1  0
 29 55  1  0
M  END
>  <smiles>  (7) 
O=C(c1cc2cc(F)ccc2[nH]1)N1CC2(CCN(C3CCNC3)C2)c2ccccc21

>  <score_type>  (7) 
oracle

>  <origin>  (7) 
autodockgpu

>  <m_score__min__energy>  (7) 
-8.1400000000000006

>  <m_primary>  (7) 
energy

>  <meeko>  (7) 
{"free_energy": -7.57, "intermolecular_energy": -8.47, "internal_energy": -1.37, "cluster_size": 12, "cluster_id": 2, "rank_in_cluster": 12}

>  <energy>  (7) 
-7.99

>  <cluster_rmsd>  (7) 
0.34

>  <rmsd>  (7) 
271.76

>  <cluster>  (7) 
1

$$$$

     RDKit          3D

 55 60  0  0  1  0  0  0  0  0999 V2000
  141.1030   78.6670  219.4380 O   0  0  0  0  0  0  0  0  0  0  0  0
  141.2020   78.0230  220.5520 C   0  0  0  0  0  0  0  0  0  0  0  0
  141.8040   76.7220  220.4930 C   0  0  0  0  0  0  0  0  0  0  0  0
  141.3220   75.4790  220.8460 C   0  0  0  0  0  0  0  0  0  0  0  0
  142.3010   74.5140  220.6520 C   0  0  0  0  0  0  0  0  0  0  0  0
  142.4220   73.1690  220.8260 C   0  0  0  0  0  0  0  0  0  0  0  0
  143.5820   72.4550  220.5460 C   0  0  0  0  0  0  0  0  0  0  0  0
  143.6290   71.0990  220.7500 F   0  0  0  0  0  0  0  0  0  0  0  0
  144.6710   73.1560  220.0600 C   0  0  0  0  0  0  0  0  0  0  0  0
  144.5490   74.5020  219.8840 C   0  0  0  0  0  0  0  0  0  0  0  0
  143.3900   75.2030  220.1680 C   0  0  0  0  0  0  0  0  0  0  0  0
  143.0820   76.4790  220.0840 N   0  0  0  0  0  0  0  0  0  0  0  0
  140.7120   78.6780  221.7000 N   0  0  0  0  0  0  0  0  0  0  0  0
  139.4210   78.7010  222.3400 C   0  0  0  0  0  0  0  0  0  0  0  0
  139.3470   80.0920  222.8970 C   0  0  1  0  0  0  0  0  0  0  0  0
  138.8010   81.0090  221.8430 C   0  0  0  0  0  0  0  0  0  0  0  0
  137.9100   81.9460  222.5850 C   0  0  0  0  0  0  0  0  0  0  0  0
  137.9030   81.5190  223.9440 N   0  0  0  0  0  0  0  0  0  0  0  0
  136.9350   82.0700  224.7590 C   0  0  2  0  0  0  0  0  0  0  0  0
  137.1960   82.2670  226.1980 C   0  0  0  0  0  0  0  0  0  0  0  0
  136.2880   81.3460  226.9890 C   0  0  0  0  0  0  0  0  0  0  0  0
  135.1620   81.1890  226.0840 N   0  0  0  0  0  0  0  0  0  0  0  0
  135.6890   81.1790  224.7490 C   0  0  0  0  0  0  0  0  0  0  0  0
  138.4270   80.2340  224.0980 C   0  0  0  0  0  0  0  0  0  0  0  0
  140.7510   80.3920  223.2480 C   0  0  0  0  0  0  0  0  0  0  0  0
  141.3860   81.2980  224.1100 C   0  0  0  0  0  0  0  0  0  0  0  0
  142.7800   81.3340  224.2010 C   0  0  0  0  0  0  0  0  0  0  0  0
  143.5710   80.4880  223.4500 C   0  0  0  0  0  0  0  0  0  0  0  0
  142.9310   79.6110  222.6150 C   0  0  0  0  0  0  0  0  0  0  0  0
  141.5400   79.5460  222.4990 C   0  0  0  0  0  0  0  0  0  0  0  0
  140.3089   75.2809  221.2261 H   0  0  0  0  0  0  0  0  0  0  0  0
  141.5524   72.6155  221.2100 H   0  0  0  0  0  0  0  0  0  0  0  0
  145.6125   72.6397  219.8214 H   0  0  0  0  0  0  0  0  0  0  0  0
  145.4150   75.0590  219.4969 H   0  0  0  0  0  0  0  0  0  0  0  0
  143.7670   77.2120  219.7320 H   0  0  0  0  0  0  0  0  0  0  0  0
  138.6155   78.5228  221.6124 H   0  0  0  0  0  0  0  0  0  0  0  0
  139.3019   77.9200  223.1054 H   0  0  0  0  0  0  0  0  0  0  0  0
  139.6146   81.5580  221.3464 H   0  0  0  0  0  0  0  0  0  0  0  0
  138.2663   80.4634  221.0515 H   0  0  0  0  0  0  0  0  0  0  0  0
  138.2968   82.9732  222.5129 H   0  0  0  0  0  0  0  0  0  0  0  0
  136.8936   81.9400  222.1645 H   0  0  0  0  0  0  0  0  0  0  0  0
  136.8583   83.0721  224.3119 H   0  0  0  0  0  0  0  0  0  0  0  0
  138.2470   82.0295  226.4191 H   0  0  0  0  0  0  0  0  0  0  0  0
  136.9995   83.3135  226.4740 H   0  0  0  0  0  0  0  0  0  0  0  0
  136.7755   80.3812  227.1928 H   0  0  0  0  0  0  0  0  0  0  0  0
  136.0120   81.7360  227.9798 H   0  0  0  0  0  0  0  0  0  0  0  0
  134.4470   81.9160  226.2560 H   0  0  0  0  0  0  0  0  0  0  0  0
  135.9589   80.1537  224.4560 H   0  0  0  0  0  0  0  0  0  0  0  0
  134.9450   81.5485  224.0279 H   0  0  0  0  0  0  0  0  0  0  0  0
  138.9897   80.1470  225.0392 H   0  0  0  0  0  0  0  0  0  0  0  0
  137.6531   79.4537  224.1450 H   0  0  0  0  0  0  0  0  0  0  0  0
  140.7817   81.9860  224.7195 H   0  0  0  0  0  0  0  0  0  0  0  0
  143.2568   82.0513  224.8852 H   0  0  0  0  0  0  0  0  0  0  0  0
  144.6684   80.5169  223.5192 H   0  0  0  0  0  0  0  0  0  0  0  0
  143.5404   78.9259  222.0074 H   0  0  0  0  0  0  0  0  0  0  0  0
  1  2  2  0
  2  3  1  0
  3  4  2  0
  4  5  1  0
  5  6  2  0
  6  7  1  0
  7  8  1  0
  7  9  2  0
  9 10  1  0
 10 11  2  0
 11 12  1  0
  2 13  1  0
 13 14  1  0
 15 14  1  6
 15 16  1  0
 16 17  1  0
 17 18  1  0
 18 19  1  0
 19 20  1  0
 20 21  1  0
 21 22  1  0
 22 23  1  0
 18 24  1  0
 15 25  1  0
 25 26  2  0
 26 27  1  0
 27 28  2  0
 28 29  1  0
 29 30  2  0
 12  3  1  0
 30 13  1  0
 11  5  1  0
 24 15  1  0
 30 25  1  0
 23 19  1  0
  4 31  1  0
  6 32  1  0
  9 33  1  0
 10 34  1  0
 12 35  1  0
 14 36  1  0
 14 37  1  0
 16 38  1  0
 16 39  1  0
 17 40  1  0
 17 41  1  0
 19 42  1  6
 20 43  1  0
 20 44  1  0
 21 45  1  0
 21 46  1  0
 22 47  1  0
 23 48  1  0
 23 49  1  0
 24 50  1  0
 24 51  1  0
 26 52  1  0
 27 53  1  0
 28 54  1  0
 29 55  1  0
M  END
>  <smiles>  (8) 
O=C(c1cc2cc(F)ccc2[nH]1)N1CC2(CCN(C3CCNC3)C2)c2ccccc21

>  <score_type>  (8) 
oracle

>  <origin>  (8) 
autodockgpu

>  <m_score__min__energy>  (8) 
-8.1400000000000006

>  <m_primary>  (8) 
energy

>  <meeko>  (8) 
{"free_energy": -8.09, "intermolecular_energy": -8.99, "internal_energy": -1.13, "cluster_size": 7, "cluster_id": 1, "rank_in_cluster": 4}

>  <energy>  (8) 
-7.98

>  <cluster_rmsd>  (8) 
0.0

>  <rmsd>  (8) 
270.62

>  <cluster>  (8) 
2

$$$$

     RDKit          3D

 55 60  0  0  1  0  0  0  0  0999 V2000
  141.1750   78.6380  219.4220 O   0  0  0  0  0  0  0  0  0  0  0  0
  141.2500   77.9830  220.5310 C   0  0  0  0  0  0  0  0  0  0  0  0
  141.8480   76.6800  220.4700 C   0  0  0  0  0  0  0  0  0  0  0  0
  141.3600   75.4370  220.8180 C   0  0  0  0  0  0  0  0  0  0  0  0
  142.3360   74.4690  220.6230 C   0  0  0  0  0  0  0  0  0  0  0  0
  142.4510   73.1230  220.7940 C   0  0  0  0  0  0  0  0  0  0  0  0
  143.6100   72.4050  220.5150 C   0  0  0  0  0  0  0  0  0  0  0  0
  143.6510   71.0490  220.7160 F   0  0  0  0  0  0  0  0  0  0  0  0
  144.7030   73.1040  220.0360 C   0  0  0  0  0  0  0  0  0  0  0  0
  144.5870   74.4520  219.8640 C   0  0  0  0  0  0  0  0  0  0  0  0
  143.4300   75.1560  220.1460 C   0  0  0  0  0  0  0  0  0  0  0  0
  143.1260   76.4330  220.0650 N   0  0  0  0  0  0  0  0  0  0  0  0
  140.7410   78.6280  221.6770 N   0  0  0  0  0  0  0  0  0  0  0  0
  139.4450   78.6330  222.3050 C   0  0  0  0  0  0  0  0  0  0  0  0
  139.3470   80.0210  222.8650 C   0  0  1  0  0  0  0  0  0  0  0  0
  138.7990   80.9330  221.8090 C   0  0  0  0  0  0  0  0  0  0  0  0
  137.8900   81.8570  222.5450 C   0  0  0  0  0  0  0  0  0  0  0  0
  137.8760   81.4260  223.9030 N   0  0  0  0  0  0  0  0  0  0  0  0
  136.8940   81.9630  224.7110 C   0  0  2  0  0  0  0  0  0  0  0  0
  137.2020   82.3520  226.1000 C   0  0  0  0  0  0  0  0  0  0  0  0
  136.4440   81.4390  227.0430 C   0  0  0  0  0  0  0  0  0  0  0  0
  135.3000   81.0590  226.2330 N   0  0  0  0  0  0  0  0  0  0  0  0
  135.7580   80.9490  224.8770 C   0  0  0  0  0  0  0  0  0  0  0  0
  138.4150   80.1480  224.0590 C   0  0  0  0  0  0  0  0  0  0  0  0
  140.7450   80.3380  223.2300 C   0  0  0  0  0  0  0  0  0  0  0  0
  141.3600   81.2500  224.0990 C   0  0  0  0  0  0  0  0  0  0  0  0
  142.7530   81.3040  224.2030 C   0  0  0  0  0  0  0  0  0  0  0  0
  143.5620   80.4710  223.4570 C   0  0  0  0  0  0  0  0  0  0  0  0
  142.9400   79.5870  222.6130 C   0  0  0  0  0  0  0  0  0  0  0  0
  141.5520   79.5050  222.4850 C   0  0  0  0  0  0  0  0  0  0  0  0
  140.3453   75.2415  221.1950 H   0  0  0  0  0  0  0  0  0  0  0  0
  141.5782   72.5719  221.1743 H   0  0  0  0  0  0  0  0  0  0  0  0
  145.6436   72.5851  219.7993 H   0  0  0  0  0  0  0  0  0  0  0  0
  145.4566   75.0070  219.4821 H   0  0  0  0  0  0  0  0  0  0  0  0
  143.8150   77.1650  219.7180 H   0  0  0  0  0  0  0  0  0  0  0  0
  138.6486   78.4462  221.5696 H   0  0  0  0  0  0  0  0  0  0  0  0
  139.3297   77.8487  223.0676 H   0  0  0  0  0  0  0  0  0  0  0  0
  139.6100   81.4933  221.3208 H   0  0  0  0  0  0  0  0  0  0  0  0
  138.2780   80.3825  221.0118 H   0  0  0  0  0  0  0  0  0  0  0  0
  138.2649   82.8891  222.4791 H   0  0  0  0  0  0  0  0  0  0  0  0
  136.8776   81.8400  222.1152 H   0  0  0  0  0  0  0  0  0  0  0  0
  136.6831   82.8927  224.1622 H   0  0  0  0  0  0  0  0  0  0  0  0
  138.2827   82.2544  226.2802 H   0  0  0  0  0  0  0  0  0  0  0  0
  136.9027   83.3967  226.2705 H   0  0  0  0  0  0  0  0  0  0  0  0
  137.0464   80.5619  227.3218 H   0  0  0  0  0  0  0  0  0  0  0  0
  136.1754   81.9106  227.9998 H   0  0  0  0  0  0  0  0  0  0  0  0
  134.5160   81.7210  226.3670 H   0  0  0  0  0  0  0  0  0  0  0  0
  136.1274   79.9311  224.6833 H   0  0  0  0  0  0  0  0  0  0  0  0
  134.9422   81.1498  224.1669 H   0  0  0  0  0  0  0  0  0  0  0  0
  138.9708   80.0662  225.0047 H   0  0  0  0  0  0  0  0  0  0  0  0
  137.6510   79.3575  224.0982 H   0  0  0  0  0  0  0  0  0  0  0  0
  140.7412   81.9289  224.7042 H   0  0  0  0  0  0  0  0  0  0  0  0
  143.2139   82.0254  224.8938 H   0  0  0  0  0  0  0  0  0  0  0  0
  144.6583   80.5143  223.5360 H   0  0  0  0  0  0  0  0  0  0  0  0
  143.5634   78.9113  222.0090 H   0  0  0  0  0  0  0  0  0  0  0  0
  1  2  2  0
  2  3  1  0
  3  4  2  0
  4  5  1  0
  5  6  2  0
  6  7  1  0
  7  8  1  0
  7  9  2  0
  9 10  1  0
 10 11  2  0
 11 12  1  0
  2 13  1  0
 13 14  1  0
 15 14  1  6
 15 16  1  0
 16 17  1  0
 17 18  1  0
 18 19  1  0
 19 20  1  0
 20 21  1  0
 21 22  1  0
 22 23  1  0
 18 24  1  0
 15 25  1  0
 25 26  2  0
 26 27  1  0
 27 28  2  0
 28 29  1  0
 29 30  2  0
 12  3  1  0
 30 13  1  0
 11  5  1  0
 24 15  1  0
 30 25  1  0
 23 19  1  0
  4 31  1  0
  6 32  1  0
  9 33  1  0
 10 34  1  0
 12 35  1  0
 14 36  1  0
 14 37  1  0
 16 38  1  0
 16 39  1  0
 17 40  1  0
 17 41  1  0
 19 42  1  6
 20 43  1  0
 20 44  1  0
 21 45  1  0
 21 46  1  0
 22 47  1  0
 23 48  1  0
 23 49  1  0
 24 50  1  0
 24 51  1  0
 26 52  1  0
 27 53  1  0
 28 54  1  0
 29 55  1  0
M  END
>  <smiles>  (9) 
O=C(c1cc2cc(F)ccc2[nH]1)N1CC2(CCN(C3CCNC3)C2)c2ccccc21

>  <score_type>  (9) 
oracle

>  <origin>  (9) 
autodockgpu

>  <m_score__min__energy>  (9) 
-8.1400000000000006

>  <m_primary>  (9) 
energy

>  <meeko>  (9) 
{"free_energy": -8.12, "intermolecular_energy": -9.02, "internal_energy": -1.13, "cluster_size": 7, "cluster_id": 1, "rank_in_cluster": 2}

>  <energy>  (9) 
-7.98

>  <cluster_rmsd>  (9) 
0.01

>  <rmsd>  (9) 
270.61

>  <cluster>  (9) 
2

$$$$

     RDKit          3D

 55 60  0  0  1  0  0  0  0  0999 V2000
  139.6350   75.2670  222.3480 O   0  0  0  0  0  0  0  0  0  0  0  0
  140.5790   75.6560  221.5590 C   0  0  0  0  0  0  0  0  0  0  0  0
  141.5200   74.6580  221.1380 C   0  0  0  0  0  0  0  0  0  0  0  0
  141.4000   73.2900  221.0080 C   0  0  0  0  0  0  0  0  0  0  0  0
  142.6100   72.7390  220.6110 C   0  0  0  0  0  0  0  0  0  0  0  0
  143.0990   71.4970  220.3440 C   0  0  0  0  0  0  0  0  0  0  0  0
  144.4150   71.2490  219.9680 C   0  0  0  0  0  0  0  0  0  0  0  0
  144.8360   69.9670  219.7170 F   0  0  0  0  0  0  0  0  0  0  0  0
  145.2710   72.3300  219.8580 C   0  0  0  0  0  0  0  0  0  0  0  0
  144.7810   73.5740  220.1250 C   0  0  0  0  0  0  0  0  0  0  0  0
  143.4700   73.8090  220.5000 C   0  0  0  0  0  0  0  0  0  0  0  0
  142.8190   74.9100  220.8090 N   0  0  0  0  0  0  0  0  0  0  0  0
  140.5710   77.0180  221.1960 N   0  0  0  0  0  0  0  0  0  0  0  0
  140.0790   77.7230  220.0390 C   0  0  0  0  0  0  0  0  0  0  0  0
  141.0520   78.8540  219.8930 C   0  0  1  0  0  0  0  0  0  0  0  0
  142.2160   78.3890  219.0700 C   0  0  0  0  0  0  0  0  0  0  0  0
  142.5610   79.5580  218.2120 C   0  0  0  0  0  0  0  0  0  0  0  0
  141.5960   80.5700  218.4880 N   0  0  0  0  0  0  0  0  0  0  0  0
  141.5530   81.6370  217.6130 C   0  0  2  0  0  0  0  0  0  0  0  0
  142.6720   81.8850  216.6840 C   0  0  0  0  0  0  0  0  0  0  0  0
  143.3500   83.1830  217.0730 C   0  0  0  0  0  0  0  0  0  0  0  0
  142.2640   83.9080  217.7080 N   0  0  0  0  0  0  0  0  0  0  0  0
  141.4610   82.9450  218.4060 C   0  0  0  0  0  0  0  0  0  0  0  0
  140.4910   80.0730  219.1810 C   0  0  0  0  0  0  0  0  0  0  0  0
  141.4240   79.1630  221.2910 C   0  0  0  0  0  0  0  0  0  0  0  0
  141.9690   80.2740  221.9490 C   0  0  0  0  0  0  0  0  0  0  0  0
  142.2180   80.2350  223.3230 C   0  0  0  0  0  0  0  0  0  0  0  0
  141.9410   79.1090  224.0720 C   0  0  0  0  0  0  0  0  0  0  0  0
  141.4090   78.0340  223.4090 C   0  0  0  0  0  0  0  0  0  0  0  0
  141.1460   78.0380  222.0370 C   0  0  0  0  0  0  0  0  0  0  0  0
  140.4783   72.7185  221.1924 H   0  0  0  0  0  0  0  0  0  0  0  0
  142.4142   70.6405  220.4305 H   0  0  0  0  0  0  0  0  0  0  0  0
  146.3212   72.1894  219.5624 H   0  0  0  0  0  0  0  0  0  0  0  0
  145.4618   74.4336  220.0380 H   0  0  0  0  0  0  0  0  0  0  0  0
  143.2770   75.8690  220.7930 H   0  0  0  0  0  0  0  0  0  0  0  0
  140.0880   77.0766  219.1490 H   0  0  0  0  0  0  0  0  0  0  0  0
  139.0372   78.0592  220.1473 H   0  0  0  0  0  0  0  0  0  0  0  0
  143.0642   78.1174  219.7156 H   0  0  0  0  0  0  0  0  0  0  0  0
  141.9769   77.4933  218.4780 H   0  0  0  0  0  0  0  0  0  0  0  0
  143.5706   79.9211  218.4547 H   0  0  0  0  0  0  0  0  0  0  0  0
  142.5510   79.2828  217.1470 H   0  0  0  0  0  0  0  0  0  0  0  0
  140.6907   81.3430  216.9965 H   0  0  0  0  0  0  0  0  0  0  0  0
  143.3942   81.0576  216.7456 H   0  0  0  0  0  0  0  0  0  0  0  0
  142.2941   81.9546  215.6533 H   0  0  0  0  0  0  0  0  0  0  0  0
  144.1784   83.0072  217.7751 H   0  0  0  0  0  0  0  0  0  0  0  0
  143.8070   83.7173  216.2270 H   0  0  0  0  0  0  0  0  0  0  0  0
  141.7460   84.4760  217.0160 H   0  0  0  0  0  0  0  0  0  0  0  0
  141.8463   82.7979  219.4258 H   0  0  0  0  0  0  0  0  0  0  0  0
  140.4181   83.2850  218.4886 H   0  0  0  0  0  0  0  0  0  0  0  0
  140.1118   80.8120  219.9021 H   0  0  0  0  0  0  0  0  0  0  0  0
  139.6392   79.8377  218.5259 H   0  0  0  0  0  0  0  0  0  0  0  0
  142.2028   81.1849  221.3784 H   0  0  0  0  0  0  0  0  0  0  0  0
  142.6437   81.1200  223.8185 H   0  0  0  0  0  0  0  0  0  0  0  0
  142.1386   79.0760  225.1536 H   0  0  0  0  0  0  0  0  0  0  0  0
  141.1782   77.1252  223.9842 H   0  0  0  0  0  0  0  0  0  0  0  0
  1  2  2  0
  2  3  1  0
  3  4  2  0
  4  5  1  0
  5  6  2  0
  6  7  1  0
  7  8  1  0
  7  9  2  0
  9 10  1  0
 10 11  2  0
 11 12  1  0
  2 13  1  0
 13 14  1  0
 15 14  1  1
 15 16  1  0
 16 17  1  0
 17 18  1  0
 18 19  1  0
 19 20  1  0
 20 21  1  0
 21 22  1  0
 22 23  1  0
 18 24  1  0
 15 25  1  0
 25 26  2  0
 26 27  1  0
 27 28  2  0
 28 29  1  0
 29 30  2  0
 12  3  1  0
 30 13  1  0
 11  5  1  0
 24 15  1  0
 30 25  1  0
 23 19  1  0
  4 31  1  0
  6 32  1  0
  9 33  1  0
 10 34  1  0
 12 35  1  0
 14 36  1  0
 14 37  1  0
 16 38  1  0
 16 39  1  0
 17 40  1  0
 17 41  1  0
 19 42  1  6
 20 43  1  0
 20 44  1  0
 21 45  1  0
 21 46  1  0
 22 47  1  0
 23 48  1  0
 23 49  1  0
 24 50  1  0
 24 51  1  0
 26 52  1  0
 27 53  1  0
 28 54  1  0
 29 55  1  0
M  END
>  <smiles>  (10) 
O=C(c1cc2cc(F)ccc2[nH]1)N1CC2(CCN(C3CCNC3)C2)c2ccccc21

>  <score_type>  (10) 
oracle

>  <origin>  (10) 
autodockgpu

>  <m_score__min__energy>  (10) 
-8.1400000000000006

>  <m_primary>  (10) 
energy

>  <meeko>  (10) 
{"free_energy": -7.97, "intermolecular_energy": -8.86, "internal_energy": -1.19, "cluster_size": 12, "cluster_id": 2, "rank_in_cluster": 6}

>  <energy>  (10) 
-7.97

>  <cluster_rmsd>  (10) 
0.03

>  <rmsd>  (10) 
270.6

>  <cluster>  (10) 
2

$$$$

     RDKit          3D

 55 60  0  0  1  0  0  0  0  0999 V2000
  139.5720   75.5510  222.4370 O   0  0  0  0  0  0  0  0  0  0  0  0
  140.5210   75.8890  221.6310 C   0  0  0  0  0  0  0  0  0  0  0  0
  141.4170   74.8480  221.2170 C   0  0  0  0  0  0  0  0  0  0  0  0
  141.2570   73.4800  221.1540 C   0  0  0  0  0  0  0  0  0  0  0  0
  142.4340   72.8790  220.7310 C   0  0  0  0  0  0  0  0  0  0  0  0
  142.8790   71.6130  220.5000 C   0  0  0  0  0  0  0  0  0  0  0  0
  144.1710   71.3120  220.0800 C   0  0  0  0  0  0  0  0  0  0  0  0
  144.5480   70.0100  219.8710 F   0  0  0  0  0  0  0  0  0  0  0  0
  145.0490   72.3640  219.8860 C   0  0  0  0  0  0  0  0  0  0  0  0
  144.6030   73.6320  220.1160 C   0  0  0  0  0  0  0  0  0  0  0  0
  143.3160   73.9190  220.5360 C   0  0  0  0  0  0  0  0  0  0  0  0
  142.7070   75.0500  220.8210 N   0  0  0  0  0  0  0  0  0  0  0  0
  140.5620   77.2450  221.2440 N   0  0  0  0  0  0  0  0  0  0  0  0
  140.0730   77.9500  220.0870 C   0  0  0  0  0  0  0  0  0  0  0  0
  141.0890   79.0360  219.9000 C   0  0  1  0  0  0  0  0  0  0  0  0
  142.2140   78.5100  219.0580 C   0  0  0  0  0  0  0  0  0  0  0  0
  142.5870   79.6490  218.1730 C   0  0  0  0  0  0  0  0  0  0  0  0
  141.6710   80.7050  218.4520 N   0  0  0  0  0  0  0  0  0  0  0  0
  141.6530   81.7580  217.5610 C   0  0  2  0  0  0  0  0  0  0  0  0
  142.8200   82.0250  216.6980 C   0  0  0  0  0  0  0  0  0  0  0  0
  143.4370   83.3470  217.1070 C   0  0  0  0  0  0  0  0  0  0  0  0
  142.2940   84.0500  217.6630 N   0  0  0  0  0  0  0  0  0  0  0  0
  141.4770   83.0740  218.3260 C   0  0  0  0  0  0  0  0  0  0  0  0
  140.5630   80.2660  219.1790 C   0  0  0  0  0  0  0  0  0  0  0  0
  141.5070   79.3530  221.2830 C   0  0  0  0  0  0  0  0  0  0  0  0
  142.1130   80.4510  221.9090 C   0  0  0  0  0  0  0  0  0  0  0  0
  142.3920   80.4230  223.2780 C   0  0  0  0  0  0  0  0  0  0  0  0
  142.0850   79.3220  224.0520 C   0  0  0  0  0  0  0  0  0  0  0  0
  141.4930   78.2600  223.4200 C   0  0  0  0  0  0  0  0  0  0  0  0
  141.1990   78.2530  222.0550 C   0  0  0  0  0  0  0  0  0  0  0  0
  140.3301   72.9426  221.4031 H   0  0  0  0  0  0  0  0  0  0  0  0
  142.1768   70.7804  220.6543 H   0  0  0  0  0  0  0  0  0  0  0  0
  146.0818   72.1817  219.5542 H   0  0  0  0  0  0  0  0  0  0  0  0
  145.3007   74.4680  219.9600 H   0  0  0  0  0  0  0  0  0  0  0  0
  143.1880   75.9950  220.7430 H   0  0  0  0  0  0  0  0  0  0  0  0
  140.0343   77.2892  219.2085 H   0  0  0  0  0  0  0  0  0  0  0  0
  139.0488   78.3313  220.2124 H   0  0  0  0  0  0  0  0  0  0  0  0
  143.0651   78.2137  219.6887 H   0  0  0  0  0  0  0  0  0  0  0  0
  141.9240   77.6159  218.4865 H   0  0  0  0  0  0  0  0  0  0  0  0
  143.6159   79.9738  218.3873 H   0  0  0  0  0  0  0  0  0  0  0  0
  142.5414   79.3568  217.1135 H   0  0  0  0  0  0  0  0  0  0  0  0
  140.8382   81.4311  216.8983 H   0  0  0  0  0  0  0  0  0  0  0  0
  143.5596   81.2194  216.8165 H   0  0  0  0  0  0  0  0  0  0  0  0
  142.5041   82.0696  215.6453 H   0  0  0  0  0  0  0  0  0  0  0  0
  144.2251   83.2047  217.8611 H   0  0  0  0  0  0  0  0  0  0  0  0
  143.9305   83.8820  216.2822 H   0  0  0  0  0  0  0  0  0  0  0  0
  141.8040   84.5930  216.9330 H   0  0  0  0  0  0  0  0  0  0  0  0
  141.8034   82.9523  219.3694 H   0  0  0  0  0  0  0  0  0  0  0  0
  140.4220   83.3852  218.3397 H   0  0  0  0  0  0  0  0  0  0  0  0
  140.2320   81.0323  219.8954 H   0  0  0  0  0  0  0  0  0  0  0  0
  139.6873   80.0555  218.5475 H   0  0  0  0  0  0  0  0  0  0  0  0
  142.3711   81.3420  221.3178 H   0  0  0  0  0  0  0  0  0  0  0  0
  142.8663   81.2967  223.7488 H   0  0  0  0  0  0  0  0  0  0  0  0
  142.3060   79.2982  225.1293 H   0  0  0  0  0  0  0  0  0  0  0  0
  141.2374   77.3714  224.0159 H   0  0  0  0  0  0  0  0  0  0  0  0
  1  2  2  0
  2  3  1  0
  3  4  2  0
  4  5  1  0
  5  6  2  0
  6  7  1  0
  7  8  1  0
  7  9  2  0
  9 10  1  0
 10 11  2  0
 11 12  1  0
  2 13  1  0
 13 14  1  0
 15 14  1  1
 15 16  1  0
 16 17  1  0
 17 18  1  0
 18 19  1  0
 19 20  1  0
 20 21  1  0
 21 22  1  0
 22 23  1  0
 18 24  1  0
 15 25  1  0
 25 26  2  0
 26 27  1  0
 27 28  2  0
 28 29  1  0
 29 30  2  0
 12  3  1  0
 30 13  1  0
 11  5  1  0
 24 15  1  0
 30 25  1  0
 23 19  1  0
  4 31  1  0
  6 32  1  0
  9 33  1  0
 10 34  1  0
 12 35  1  0
 14 36  1  0
 14 37  1  0
 16 38  1  0
 16 39  1  0
 17 40  1  0
 17 41  1  0
 19 42  1  6
 20 43  1  0
 20 44  1  0
 21 45  1  0
 21 46  1  0
 22 47  1  0
 23 48  1  0
 23 49  1  0
 24 50  1  0
 24 51  1  0
 26 52  1  0
 27 53  1  0
 28 54  1  0
 29 55  1  0
M  END
>  <smiles>  (11) 
O=C(c1cc2cc(F)ccc2[nH]1)N1CC2(CCN(C3CCNC3)C2)c2ccccc21

>  <score_type>  (11) 
oracle

>  <origin>  (11) 
autodockgpu

>  <m_score__min__energy>  (11) 
-8.1400000000000006

>  <m_primary>  (11) 
energy

>  <meeko>  (11) 
{"free_energy": -7.94, "intermolecular_energy": -8.83, "internal_energy": -1.2, "cluster_size": 12, "cluster_id": 2, "rank_in_cluster": 10}

>  <energy>  (11) 
-7.97

>  <cluster_rmsd>  (11) 
0.02

>  <rmsd>  (11) 
270.62

>  <cluster>  (11) 
2

$$$$

     RDKit          3D

 55 60  0  0  1  0  0  0  0  0999 V2000
  139.6690   75.2640  222.3490 O   0  0  0  0  0  0  0  0  0  0  0  0
  140.6140   75.6580  221.5630 C   0  0  0  0  0  0  0  0  0  0  0  0
  141.5580   74.6630  221.1410 C   0  0  0  0  0  0  0  0  0  0  0  0
  141.4380   73.2980  220.9940 C   0  0  0  0  0  0  0  0  0  0  0  0
  142.6520   72.7500  220.6020 C   0  0  0  0  0  0  0  0  0  0  0  0
  143.1420   71.5100  220.3260 C   0  0  0  0  0  0  0  0  0  0  0  0
  144.4610   71.2640  219.9610 C   0  0  0  0  0  0  0  0  0  0  0  0
  144.8830   69.9850  219.7000 F   0  0  0  0  0  0  0  0  0  0  0  0
  145.3200   72.3460  219.8740 C   0  0  0  0  0  0  0  0  0  0  0  0
  144.8290   73.5880  220.1500 C   0  0  0  0  0  0  0  0  0  0  0  0
  143.5140   73.8190  220.5140 C   0  0  0  0  0  0  0  0  0  0  0  0
  142.8620   74.9180  220.8290 N   0  0  0  0  0  0  0  0  0  0  0  0
  140.6040   77.0220  221.2050 N   0  0  0  0  0  0  0  0  0  0  0  0
  140.1050   77.7300  220.0540 C   0  0  0  0  0  0  0  0  0  0  0  0
  141.0780   78.8620  219.9080 C   0  0  1  0  0  0  0  0  0  0  0  0
  142.2380   78.4010  219.0770 C   0  0  0  0  0  0  0  0  0  0  0  0
  142.5780   79.5740  218.2210 C   0  0  0  0  0  0  0  0  0  0  0  0
  141.6140   80.5840  218.5060 N   0  0  0  0  0  0  0  0  0  0  0  0
  141.5660   81.6540  217.6360 C   0  0  2  0  0  0  0  0  0  0  0  0
  142.6870   81.9150  216.7120 C   0  0  0  0  0  0  0  0  0  0  0  0
  143.3540   83.2170  217.1090 C   0  0  0  0  0  0  0  0  0  0  0  0
  142.2590   83.9310  217.7430 N   0  0  0  0  0  0  0  0  0  0  0  0
  141.4610   82.9580  218.4340 C   0  0  0  0  0  0  0  0  0  0  0  0
  140.5120   80.0840  219.2030 C   0  0  0  0  0  0  0  0  0  0  0  0
  141.4570   79.1660  221.3050 C   0  0  0  0  0  0  0  0  0  0  0  0
  142.0050   80.2750  221.9640 C   0  0  0  0  0  0  0  0  0  0  0  0
  142.2620   80.2310  223.3370 C   0  0  0  0  0  0  0  0  0  0  0  0
  141.9880   79.1010  224.0820 C   0  0  0  0  0  0  0  0  0  0  0  0
  141.4530   78.0290  223.4180 C   0  0  0  0  0  0  0  0  0  0  0  0
  141.1830   78.0390  222.0480 C   0  0  0  0  0  0  0  0  0  0  0  0
  140.5141   72.7254  221.1628 H   0  0  0  0  0  0  0  0  0  0  0  0
  142.4550   70.6537  220.3958 H   0  0  0  0  0  0  0  0  0  0  0  0
  146.3734   72.2073  219.5891 H   0  0  0  0  0  0  0  0  0  0  0  0
  145.5113   74.4479  220.0799 H   0  0  0  0  0  0  0  0  0  0  0  0
  143.3200   75.8770  220.8300 H   0  0  0  0  0  0  0  0  0  0  0  0
  140.1093   77.0870  219.1615 H   0  0  0  0  0  0  0  0  0  0  0  0
  139.0635   78.0649  220.1683 H   0  0  0  0  0  0  0  0  0  0  0  0
  143.0898   78.1276  219.7171 H   0  0  0  0  0  0  0  0  0  0  0  0
  141.9962   77.5074  218.4828 H   0  0  0  0  0  0  0  0  0  0  0  0
  143.5887   79.9368  218.4596 H   0  0  0  0  0  0  0  0  0  0  0  0
  142.5626   79.3028  217.1551 H   0  0  0  0  0  0  0  0  0  0  0  0
  140.7082   81.3557  217.0153 H   0  0  0  0  0  0  0  0  0  0  0  0
  143.4153   81.0929  216.7728 H   0  0  0  0  0  0  0  0  0  0  0  0
  142.3122   81.9864  215.6803 H   0  0  0  0  0  0  0  0  0  0  0  0
  144.1810   83.0447  217.8136 H   0  0  0  0  0  0  0  0  0  0  0  0
  143.8105   83.7583  216.2672 H   0  0  0  0  0  0  0  0  0  0  0  0
  141.7400   84.4980  217.0510 H   0  0  0  0  0  0  0  0  0  0  0  0
  141.8439   82.8096  219.4545 H   0  0  0  0  0  0  0  0  0  0  0  0
  140.4151   83.2893  218.5140 H   0  0  0  0  0  0  0  0  0  0  0  0
  140.1361   80.8202  219.9287 H   0  0  0  0  0  0  0  0  0  0  0  0
  139.6568   79.8509  218.5516 H   0  0  0  0  0  0  0  0  0  0  0  0
  142.2349   81.1882  221.3954 H   0  0  0  0  0  0  0  0  0  0  0  0
  142.6909   81.1137  223.8339 H   0  0  0  0  0  0  0  0  0  0  0  0
  142.1907   79.0634  225.1625 H   0  0  0  0  0  0  0  0  0  0  0  0
  141.2255   77.1178  223.9907 H   0  0  0  0  0  0  0  0  0  0  0  0
  1  2  2  0
  2  3  1  0
  3  4  2  0
  4  5  1  0
  5  6  2  0
  6  7  1  0
  7  8  1  0
  7  9  2  0
  9 10  1  0
 10 11  2  0
 11 12  1  0
  2 13  1  0
 13 14  1  0
 15 14  1  1
 15 16  1  0
 16 17  1  0
 17 18  1  0
 18 19  1  0
 19 20  1  0
 20 21  1  0
 21 22  1  0
 22 23  1  0
 18 24  1  0
 15 25  1  0
 25 26  2  0
 26 27  1  0
 27 28  2  0
 28 29  1  0
 29 30  2  0
 12  3  1  0
 30 13  1  0
 11  5  1  0
 24 15  1  0
 30 25  1  0
 23 19  1  0
  4 31  1  0
  6 32  1  0
  9 33  1  0
 10 34  1  0
 12 35  1  0
 14 36  1  0
 14 37  1  0
 16 38  1  0
 16 39  1  0
 17 40  1  0
 17 41  1  0
 19 42  1  6
 20 43  1  0
 20 44  1  0
 21 45  1  0
 21 46  1  0
 22 47  1  0
 23 48  1  0
 23 49  1  0
 24 50  1  0
 24 51  1  0
 26 52  1  0
 27 53  1  0
 28 54  1  0
 29 55  1  0
M  END
>  <smiles>  (12) 
O=C(c1cc2cc(F)ccc2[nH]1)N1CC2(CCN(C3CCNC3)C2)c2ccccc21

>  <score_type>  (12) 
oracle

>  <origin>  (12) 
autodockgpu

>  <m_score__min__energy>  (12) 
-8.1400000000000006

>  <m_primary>  (12) 
energy

>  <meeko>  (12) 
{"free_energy": -7.98, "intermolecular_energy": -8.87, "internal_energy": -1.19, "cluster_size": 12, "cluster_id": 2, "rank_in_cluster": 1}

>  <energy>  (12) 
-7.97

>  <cluster_rmsd>  (12) 
0.05

>  <rmsd>  (12) 
270.63

>  <cluster>  (12) 
2

$$$$

     RDKit          3D

 55 60  0  0  1  0  0  0  0  0999 V2000
  141.2320   78.6350  219.3840 O   0  0  0  0  0  0  0  0  0  0  0  0
  141.2880   77.9820  220.4960 C   0  0  0  0  0  0  0  0  0  0  0  0
  141.8920   76.6820  220.4510 C   0  0  0  0  0  0  0  0  0  0  0  0
  141.4020   75.4380  220.7880 C   0  0  0  0  0  0  0  0  0  0  0  0
  142.3860   74.4730  220.6170 C   0  0  0  0  0  0  0  0  0  0  0  0
  142.5030   73.1280  220.7920 C   0  0  0  0  0  0  0  0  0  0  0  0
  143.6710   72.4150  220.5400 C   0  0  0  0  0  0  0  0  0  0  0  0
  143.7140   71.0590  220.7430 F   0  0  0  0  0  0  0  0  0  0  0  0
  144.7720   73.1180  220.0840 C   0  0  0  0  0  0  0  0  0  0  0  0
  144.6540   74.4650  219.9080 C   0  0  0  0  0  0  0  0  0  0  0  0
  143.4870   75.1640  220.1640 C   0  0  0  0  0  0  0  0  0  0  0  0
  143.1810   76.4400  220.0740 N   0  0  0  0  0  0  0  0  0  0  0  0
  140.7530   78.6280  221.6300 N   0  0  0  0  0  0  0  0  0  0  0  0
  139.4460   78.6240  222.2350 C   0  0  0  0  0  0  0  0  0  0  0  0
  139.3270   80.0140  222.7880 C   0  0  1  0  0  0  0  0  0  0  0  0
  138.7900   80.9170  221.7180 C   0  0  0  0  0  0  0  0  0  0  0  0
  137.8600   81.8360  222.4340 C   0  0  0  0  0  0  0  0  0  0  0  0
  137.8260   81.4110  223.7930 N   0  0  0  0  0  0  0  0  0  0  0  0
  136.8250   81.9420  224.5820 C   0  0  2  0  0  0  0  0  0  0  0  0
  137.1160   82.3810  225.9600 C   0  0  0  0  0  0  0  0  0  0  0  0
  136.3790   81.4740  226.9260 C   0  0  0  0  0  0  0  0  0  0  0  0
  135.2510   81.0380  226.1230 N   0  0  0  0  0  0  0  0  0  0  0  0
  135.7180   80.9010  224.7730 C   0  0  0  0  0  0  0  0  0  0  0  0
  138.3730   80.1380  223.9640 C   0  0  0  0  0  0  0  0  0  0  0  0
  140.7150   80.3450  223.1760 C   0  0  0  0  0  0  0  0  0  0  0  0
  141.3070   81.2650  224.0520 C   0  0  0  0  0  0  0  0  0  0  0  0
  142.6970   81.3310  224.1800 C   0  0  0  0  0  0  0  0  0  0  0  0
  143.5260   80.5010  223.4520 C   0  0  0  0  0  0  0  0  0  0  0  0
  142.9270   79.6100  222.6010 C   0  0  0  0  0  0  0  0  0  0  0  0
  141.5420   79.5150  222.4490 C   0  0  0  0  0  0  0  0  0  0  0  0
  140.3795   75.2387  221.1412 H   0  0  0  0  0  0  0  0  0  0  0  0
  141.6243   72.5734  221.1531 H   0  0  0  0  0  0  0  0  0  0  0  0
  145.7197   72.6027  219.8686 H   0  0  0  0  0  0  0  0  0  0  0  0
  145.5292   75.0236  219.5447 H   0  0  0  0  0  0  0  0  0  0  0  0
  143.8740   77.1740  219.7410 H   0  0  0  0  0  0  0  0  0  0  0  0
  138.6642   78.4278  221.4864 H   0  0  0  0  0  0  0  0  0  0  0  0
  139.3235   77.8414  222.9982 H   0  0  0  0  0  0  0  0  0  0  0  0
  139.6047   81.4823  221.2419 H   0  0  0  0  0  0  0  0  0  0  0  0
  138.2882   80.3588  220.9138 H   0  0  0  0  0  0  0  0  0  0  0  0
  138.2268   82.8711  222.3701 H   0  0  0  0  0  0  0  0  0  0  0  0
  136.8555   81.8079  221.9866 H   0  0  0  0  0  0  0  0  0  0  0  0
  136.5892   82.8487  224.0056 H   0  0  0  0  0  0  0  0  0  0  0  0
  138.1982   82.3195  226.1472 H   0  0  0  0  0  0  0  0  0  0  0  0
  136.7874   83.4216  226.0987 H   0  0  0  0  0  0  0  0  0  0  0  0
  137.0048   80.6230  227.2329 H   0  0  0  0  0  0  0  0  0  0  0  0
  136.0919   81.9655  227.8673 H   0  0  0  0  0  0  0  0  0  0  0  0
  134.4480   81.6810  226.2360 H   0  0  0  0  0  0  0  0  0  0  0  0
  136.1174   79.8890  224.6109 H   0  0  0  0  0  0  0  0  0  0  0  0
  134.9003   81.0568  224.0539 H   0  0  0  0  0  0  0  0  0  0  0  0
  138.9124   80.0648  224.9199 H   0  0  0  0  0  0  0  0  0  0  0  0
  137.6151   79.3413  223.9927 H   0  0  0  0  0  0  0  0  0  0  0  0
  140.6721   81.9408  224.6438 H   0  0  0  0  0  0  0  0  0  0  0  0
  143.1399   82.0594  224.8752 H   0  0  0  0  0  0  0  0  0  0  0  0
  144.6203   80.5529  223.5510 H   0  0  0  0  0  0  0  0  0  0  0  0
  143.5667   78.9382  222.0099 H   0  0  0  0  0  0  0  0  0  0  0  0
  1  2  2  0
  2  3  1  0
  3  4  2  0
  4  5  1  0
  5  6  2  0
  6  7  1  0
  7  8  1  0
  7  9  2  0
  9 10  1  0
 10 11  2  0
 11 12  1  0
  2 13  1  0
 13 14  1  0
 15 14  1  6
 15 16  1  0
 16 17  1  0
 17 18  1  0
 18 19  1  0
 19 20  1  0
 20 21  1  0
 21 22  1  0
 22 23  1  0
 18 24  1  0
 15 25  1  0
 25 26  2  0
 26 27  1  0
 27 28  2  0
 28 29  1  0
 29 30  2  0
 12  3  1  0
 30 13  1  0
 11  5  1  0
 24 15  1  0
 30 25  1  0
 23 19  1  0
  4 31  1  0
  6 32  1  0
  9 33  1  0
 10 34  1  0
 12 35  1  0
 14 36  1  0
 14 37  1  0
 16 38  1  0
 16 39  1  0
 17 40  1  0
 17 41  1  0
 19 42  1  6
 20 43  1  0
 20 44  1  0
 21 45  1  0
 21 46  1  0
 22 47  1  0
 23 48  1  0
 23 49  1  0
 24 50  1  0
 24 51  1  0
 26 52  1  0
 27 53  1  0
 28 54  1  0
 29 55  1  0
M  END
>  <smiles>  (13) 
O=C(c1cc2cc(F)ccc2[nH]1)N1CC2(CCN(C3CCNC3)C2)c2ccccc21

>  <score_type>  (13) 
oracle

>  <origin>  (13) 
autodockgpu

>  <m_score__min__energy>  (13) 
-8.1400000000000006

>  <m_primary>  (13) 
energy

>  <meeko>  (13) 
{"free_energy": -8.12, "intermolecular_energy": -9.01, "internal_energy": -1.13, "cluster_size": 7, "cluster_id": 1, "rank_in_cluster": 3}

>  <energy>  (13) 
-7.97

>  <cluster_rmsd>  (13) 
0.04

>  <rmsd>  (13) 
270.59

>  <cluster>  (13) 
2

$$$$

     RDKit          3D

 55 60  0  0  1  0  0  0  0  0999 V2000
  139.6270   75.3040  222.3520 O   0  0  0  0  0  0  0  0  0  0  0  0
  140.5740   75.7010  221.5700 C   0  0  0  0  0  0  0  0  0  0  0  0
  141.5200   74.7090  221.1490 C   0  0  0  0  0  0  0  0  0  0  0  0
  141.4060   73.3410  221.0120 C   0  0  0  0  0  0  0  0  0  0  0  0
  142.6200   72.7970  220.6160 C   0  0  0  0  0  0  0  0  0  0  0  0
  143.1150   71.5580  220.3450 C   0  0  0  0  0  0  0  0  0  0  0  0
  144.4340   71.3170  219.9730 C   0  0  0  0  0  0  0  0  0  0  0  0
  144.8600   70.0380  219.7180 F   0  0  0  0  0  0  0  0  0  0  0  0
  145.2860   72.4030  219.8720 C   0  0  0  0  0  0  0  0  0  0  0  0
  144.7900   73.6430  220.1430 C   0  0  0  0  0  0  0  0  0  0  0  0
  143.4760   73.8710  220.5140 C   0  0  0  0  0  0  0  0  0  0  0  0
  142.8200   74.9680  220.8260 N   0  0  0  0  0  0  0  0  0  0  0  0
  140.5640   77.0660  221.2160 N   0  0  0  0  0  0  0  0  0  0  0  0
  140.0660   77.7770  220.0650 C   0  0  0  0  0  0  0  0  0  0  0  0
  141.0390   78.9100  219.9240 C   0  0  1  0  0  0  0  0  0  0  0  0
  142.2000   78.4520  219.0940 C   0  0  0  0  0  0  0  0  0  0  0  0
  142.5410   79.6270  218.2420 C   0  0  0  0  0  0  0  0  0  0  0  0
  141.5750   80.6350  218.5270 N   0  0  0  0  0  0  0  0  0  0  0  0
  141.5290   81.7070  217.6590 C   0  0  2  0  0  0  0  0  0  0  0  0
  142.6570   81.9790  216.7480 C   0  0  0  0  0  0  0  0  0  0  0  0
  143.3100   83.2850  217.1560 C   0  0  0  0  0  0  0  0  0  0  0  0
  142.2040   83.9890  217.7790 N   0  0  0  0  0  0  0  0  0  0  0  0
  141.4060   83.0080  218.4600 C   0  0  0  0  0  0  0  0  0  0  0  0
  140.4730   80.1330  219.2210 C   0  0  0  0  0  0  0  0  0  0  0  0
  141.4150   79.2110  221.3220 C   0  0  0  0  0  0  0  0  0  0  0  0
  141.9600   80.3190  221.9850 C   0  0  0  0  0  0  0  0  0  0  0  0
  142.2140   80.2710  223.3580 C   0  0  0  0  0  0  0  0  0  0  0  0
  141.9400   79.1400  224.1010 C   0  0  0  0  0  0  0  0  0  0  0  0
  141.4070   78.0680  223.4330 C   0  0  0  0  0  0  0  0  0  0  0  0
  141.1400   78.0810  222.0620 C   0  0  0  0  0  0  0  0  0  0  0  0
  140.4862   72.7648  221.1907 H   0  0  0  0  0  0  0  0  0  0  0  0
  142.4333   70.6984  220.4247 H   0  0  0  0  0  0  0  0  0  0  0  0
  146.3380   72.2685  219.5800 H   0  0  0  0  0  0  0  0  0  0  0  0
  145.4676   74.5058  220.0630 H   0  0  0  0  0  0  0  0  0  0  0  0
  143.2740   75.9290  220.8170 H   0  0  0  0  0  0  0  0  0  0  0  0
  140.0723   77.1363  219.1709 H   0  0  0  0  0  0  0  0  0  0  0  0
  139.0240   78.1108  220.1780 H   0  0  0  0  0  0  0  0  0  0  0  0
  143.0508   78.1772  219.7348 H   0  0  0  0  0  0  0  0  0  0  0  0
  141.9594   77.5600  218.4969 H   0  0  0  0  0  0  0  0  0  0  0  0
  143.5506   79.9904  218.4843 H   0  0  0  0  0  0  0  0  0  0  0  0
  142.5290   79.3585  217.1754 H   0  0  0  0  0  0  0  0  0  0  0  0
  140.6806   81.4039  217.0278 H   0  0  0  0  0  0  0  0  0  0  0  0
  143.3908   81.1622  216.8140 H   0  0  0  0  0  0  0  0  0  0  0  0
  142.2925   82.0506  215.7126 H   0  0  0  0  0  0  0  0  0  0  0  0
  144.1302   83.1168  217.8694 H   0  0  0  0  0  0  0  0  0  0  0  0
  143.7718   83.8318  216.3207 H   0  0  0  0  0  0  0  0  0  0  0  0
  141.6870   84.5540  217.0840 H   0  0  0  0  0  0  0  0  0  0  0  0
  141.7798   82.8596  219.4838 H   0  0  0  0  0  0  0  0  0  0  0  0
  140.3570   83.3313  218.5309 H   0  0  0  0  0  0  0  0  0  0  0  0
  140.0956   80.8674  219.9478 H   0  0  0  0  0  0  0  0  0  0  0  0
  139.6188   79.9007  218.5680 H   0  0  0  0  0  0  0  0  0  0  0  0
  142.1897   81.2342  221.4196 H   0  0  0  0  0  0  0  0  0  0  0  0
  142.6413   81.1529  223.8576 H   0  0  0  0  0  0  0  0  0  0  0  0
  142.1406   79.1008  225.1818 H   0  0  0  0  0  0  0  0  0  0  0  0
  141.1790   77.1553  224.0031 H   0  0  0  0  0  0  0  0  0  0  0  0
  1  2  2  0
  2  3  1  0
  3  4  2  0
  4  5  1  0
  5  6  2  0
  6  7  1  0
  7  8  1  0
  7  9  2  0
  9 10  1  0
 10 11  2  0
 11 12  1  0
  2 13  1  0
 13 14  1  0
 15 14  1  1
 15 16  1  0
 16 17  1  0
 17 18  1  0
 18 19  1  0
 19 20  1  0
 20 21  1  0
 21 22  1  0
 22 23  1  0
 18 24  1  0
 15 25  1  0
 25 26  2  0
 26 27  1  0
 27 28  2  0
 28 29  1  0
 29 30  2  0
 12  3  1  0
 30 13  1  0
 11  5  1  0
 24 15  1  0
 30 25  1  0
 23 19  1  0
  4 31  1  0
  6 32  1  0
  9 33  1  0
 10 34  1  0
 12 35  1  0
 14 36  1  0
 14 37  1  0
 16 38  1  0
 16 39  1  0
 17 40  1  0
 17 41  1  0
 19 42  1  6
 20 43  1  0
 20 44  1  0
 21 45  1  0
 21 46  1  0
 22 47  1  0
 23 48  1  0
 23 49  1  0
 24 50  1  0
 24 51  1  0
 26 52  1  0
 27 53  1  0
 28 54  1  0
 29 55  1  0
M  END
>  <smiles>  (14) 
O=C(c1cc2cc(F)ccc2[nH]1)N1CC2(CCN(C3CCNC3)C2)c2ccccc21

>  <score_type>  (14) 
oracle

>  <origin>  (14) 
autodockgpu

>  <m_score__min__energy>  (14) 
-8.1400000000000006

>  <m_primary>  (14) 
energy

>  <meeko>  (14) 
{"free_energy": -7.96, "intermolecular_energy": -8.86, "internal_energy": -1.19, "cluster_size": 12, "cluster_id": 2, "rank_in_cluster": 8}

>  <energy>  (14) 
-7.97

>  <cluster_rmsd>  (14) 
0.05

>  <rmsd>  (14) 
270.6

>  <cluster>  (14) 
2

$$$$

     RDKit          3D

 55 60  0  0  1  0  0  0  0  0999 V2000
  141.1930   78.6550  219.4360 O   0  0  0  0  0  0  0  0  0  0  0  0
  141.2570   77.9980  220.5450 C   0  0  0  0  0  0  0  0  0  0  0  0
  141.8470   76.6920  220.4870 C   0  0  0  0  0  0  0  0  0  0  0  0
  141.3500   75.4510  220.8270 C   0  0  0  0  0  0  0  0  0  0  0  0
  142.3220   74.4780  220.6400 C   0  0  0  0  0  0  0  0  0  0  0  0
  142.4280   73.1310  220.8090 C   0  0  0  0  0  0  0  0  0  0  0  0
  143.5850   72.4070  220.5400 C   0  0  0  0  0  0  0  0  0  0  0  0
  143.6170   71.0500  220.7380 F   0  0  0  0  0  0  0  0  0  0  0  0
  144.6880   73.1020  220.0730 C   0  0  0  0  0  0  0  0  0  0  0  0
  144.5810   74.4500  219.9030 C   0  0  0  0  0  0  0  0  0  0  0  0
  143.4240   75.1590  220.1760 C   0  0  0  0  0  0  0  0  0  0  0  0
  143.1290   76.4390  220.0940 N   0  0  0  0  0  0  0  0  0  0  0  0
  140.7430   78.6450  221.6880 N   0  0  0  0  0  0  0  0  0  0  0  0
  139.4440   78.6520  222.3110 C   0  0  0  0  0  0  0  0  0  0  0  0
  139.3460   80.0400  222.8690 C   0  0  1  0  0  0  0  0  0  0  0  0
  138.8030   80.9520  221.8090 C   0  0  0  0  0  0  0  0  0  0  0  0
  137.8910   81.8770  222.5400 C   0  0  0  0  0  0  0  0  0  0  0  0
  137.8710   81.4480  223.8990 N   0  0  0  0  0  0  0  0  0  0  0  0
  136.8860   81.9860  224.7020 C   0  0  2  0  0  0  0  0  0  0  0  0
  137.1880   82.3760  226.0920 C   0  0  0  0  0  0  0  0  0  0  0  0
  136.4240   81.4640  227.0320 C   0  0  0  0  0  0  0  0  0  0  0  0
  135.2840   81.0850  226.2170 N   0  0  0  0  0  0  0  0  0  0  0  0
  135.7480   80.9730  224.8630 C   0  0  0  0  0  0  0  0  0  0  0  0
  138.4090   80.1690  224.0580 C   0  0  0  0  0  0  0  0  0  0  0  0
  140.7420   80.3570  223.2390 C   0  0  0  0  0  0  0  0  0  0  0  0
  141.3540   81.2690  224.1100 C   0  0  0  0  0  0  0  0  0  0  0  0
  142.7460   81.3220  224.2200 C   0  0  0  0  0  0  0  0  0  0  0  0
  143.5580   80.4870  223.4780 C   0  0  0  0  0  0  0  0  0  0  0  0
  142.9390   79.6030  222.6330 C   0  0  0  0  0  0  0  0  0  0  0  0
  141.5510   79.5220  222.4990 C   0  0  0  0  0  0  0  0  0  0  0  0
  140.3306   75.2600  221.1934 H   0  0  0  0  0  0  0  0  0  0  0  0
  141.5484   72.5841  221.1794 H   0  0  0  0  0  0  0  0  0  0  0  0
  145.6281   72.5785  219.8447 H   0  0  0  0  0  0  0  0  0  0  0  0
  145.4569   75.0015  219.5306 H   0  0  0  0  0  0  0  0  0  0  0  0
  143.8250   77.1670  219.7560 H   0  0  0  0  0  0  0  0  0  0  0  0
  138.6502   78.4656  221.5726 H   0  0  0  0  0  0  0  0  0  0  0  0
  139.3244   77.8684  223.0737 H   0  0  0  0  0  0  0  0  0  0  0  0
  139.6165   81.5115  221.3241 H   0  0  0  0  0  0  0  0  0  0  0  0
  138.2855   80.4011  221.0098 H   0  0  0  0  0  0  0  0  0  0  0  0
  138.2663   82.9089  222.4743 H   0  0  0  0  0  0  0  0  0  0  0  0
  136.8804   81.8592  222.1059 H   0  0  0  0  0  0  0  0  0  0  0  0
  136.6784   82.9156  224.1517 H   0  0  0  0  0  0  0  0  0  0  0  0
  138.2678   82.2773  226.2774 H   0  0  0  0  0  0  0  0  0  0  0  0
  136.8894   83.4212  226.2603 H   0  0  0  0  0  0  0  0  0  0  0  0
  137.0240   80.5863  227.3142 H   0  0  0  0  0  0  0  0  0  0  0  0
  136.1512   81.9365  227.9872 H   0  0  0  0  0  0  0  0  0  0  0  0
  134.5000   81.7480  226.3480 H   0  0  0  0  0  0  0  0  0  0  0  0
  136.1172   79.9546  224.6719 H   0  0  0  0  0  0  0  0  0  0  0  0
  134.9359   81.1736  224.1487 H   0  0  0  0  0  0  0  0  0  0  0  0
  138.9605   80.0875  225.0062 H   0  0  0  0  0  0  0  0  0  0  0  0
  137.6442   79.3792  224.0939 H   0  0  0  0  0  0  0  0  0  0  0  0
  140.7332   81.9488  224.7121 H   0  0  0  0  0  0  0  0  0  0  0  0
  143.2045   82.0438  224.9120 H   0  0  0  0  0  0  0  0  0  0  0  0
  144.6540   80.5295  223.5615 H   0  0  0  0  0  0  0  0  0  0  0  0
  143.5643   78.9259  222.0325 H   0  0  0  0  0  0  0  0  0  0  0  0
  1  2  2  0
  2  3  1  0
  3  4  2  0
  4  5  1  0
  5  6  2  0
  6  7  1  0
  7  8  1  0
  7  9  2  0
  9 10  1  0
 10 11  2  0
 11 12  1  0
  2 13  1  0
 13 14  1  0
 15 14  1  6
 15 16  1  0
 16 17  1  0
 17 18  1  0
 18 19  1  0
 19 20  1  0
 20 21  1  0
 21 22  1  0
 22 23  1  0
 18 24  1  0
 15 25  1  0
 25 26  2  0
 26 27  1  0
 27 28  2  0
 28 29  1  0
 29 30  2  0
 12  3  1  0
 30 13  1  0
 11  5  1  0
 24 15  1  0
 30 25  1  0
 23 19  1  0
  4 31  1  0
  6 32  1  0
  9 33  1  0
 10 34  1  0
 12 35  1  0
 14 36  1  0
 14 37  1  0
 16 38  1  0
 16 39  1  0
 17 40  1  0
 17 41  1  0
 19 42  1  6
 20 43  1  0
 20 44  1  0
 21 45  1  0
 21 46  1  0
 22 47  1  0
 23 48  1  0
 23 49  1  0
 24 50  1  0
 24 51  1  0
 26 52  1  0
 27 53  1  0
 28 54  1  0
 29 55  1  0
M  END
>  <smiles>  (15) 
O=C(c1cc2cc(F)ccc2[nH]1)N1CC2(CCN(C3CCNC3)C2)c2ccccc21

>  <score_type>  (15) 
oracle

>  <origin>  (15) 
autodockgpu

>  <m_score__min__energy>  (15) 
-8.1400000000000006

>  <m_primary>  (15) 
energy

>  <meeko>  (15) 
{"free_energy": -8.14, "intermolecular_energy": -9.03, "internal_energy": -1.13, "cluster_size": 7, "cluster_id": 1, "rank_in_cluster": 1}

>  <energy>  (15) 
-7.96

>  <cluster_rmsd>  (15) 
0.07

>  <rmsd>  (15) 
270.62

>  <cluster>  (15) 
2

$$$$

     RDKit          3D

 55 60  0  0  1  0  0  0  0  0999 V2000
  139.6570   73.8900  222.3570 O   0  0  0  0  0  0  0  0  0  0  0  0
  140.3050   74.8060  221.7200 C   0  0  0  0  0  0  0  0  0  0  0  0
  140.1110   76.1580  222.1610 C   0  0  0  0  0  0  0  0  0  0  0  0
  138.9640   76.9010  222.3430 C   0  0  0  0  0  0  0  0  0  0  0  0
  139.2870   78.1910  222.7400 C   0  0  0  0  0  0  0  0  0  0  0  0
  138.6170   79.3370  223.0440 C   0  0  0  0  0  0  0  0  0  0  0  0
  139.2430   80.5250  223.4060 C   0  0  0  0  0  0  0  0  0  0  0  0
  138.5000   81.6410  223.6970 F   0  0  0  0  0  0  0  0  0  0  0  0
  140.6260   80.5360  223.4610 C   0  0  0  0  0  0  0  0  0  0  0  0
  141.2960   79.3890  223.1570 C   0  0  0  0  0  0  0  0  0  0  0  0
  140.6620   78.2130  222.7960 C   0  0  0  0  0  0  0  0  0  0  0  0
  141.1200   77.0270  222.4580 N   0  0  0  0  0  0  0  0  0  0  0  0
  141.1350   74.3700  220.6670 N   0  0  0  0  0  0  0  0  0  0  0  0
  141.5370   73.0640  220.2110 C   0  0  0  0  0  0  0  0  0  0  0  0
  142.9290   73.2980  219.7050 C   0  0  1  0  0  0  0  0  0  0  0  0
  143.8910   73.1570  220.8470 C   0  0  0  0  0  0  0  0  0  0  0  0
  145.0740   72.4660  220.2580 C   0  0  0  0  0  0  0  0  0  0  0  0
  144.7480   72.1730  218.9030 N   0  0  0  0  0  0  0  0  0  0  0  0
  145.5840   71.2960  218.2430 C   0  0  2  0  0  0  0  0  0  0  0  0
  145.0370   70.3410  217.2590 C   0  0  0  0  0  0  0  0  0  0  0  0
  145.2020   68.9350  217.8000 C   0  0  0  0  0  0  0  0  0  0  0  0
  146.3580   69.0830  218.6660 N   0  0  0  0  0  0  0  0  0  0  0  0
  146.2780   70.3860  219.2620 C   0  0  0  0  0  0  0  0  0  0  0  0
  143.3830   72.3070  218.6450 C   0  0  0  0  0  0  0  0  0  0  0  0
  142.8690   74.6760  219.1710 C   0  0  0  0  0  0  0  0  0  0  0  0
  143.6260   75.4180  218.2540 C   0  0  0  0  0  0  0  0  0  0  0  0
  143.2990   76.7470  217.9730 C   0  0  0  0  0  0  0  0  0  0  0  0
  142.2300   77.3690  218.5860 C   0  0  0  0  0  0  0  0  0  0  0  0
  141.5030   76.6260  219.4800 C   0  0  0  0  0  0  0  0  0  0  0  0
  141.8010   75.2950  219.7840 C   0  0  0  0  0  0  0  0  0  0  0  0
  137.9407   76.5256  222.1949 H   0  0  0  0  0  0  0  0  0  0  0  0
  137.5180   79.3222  223.0008 H   0  0  0  0  0  0  0  0  0  0  0  0
  141.1712   81.4487  223.7433 H   0  0  0  0  0  0  0  0  0  0  0  0
  142.3951   79.3983  223.2007 H   0  0  0  0  0  0  0  0  0  0  0  0
  142.1580   76.7990  222.4300 H   0  0  0  0  0  0  0  0  0  0  0  0
  141.5334   72.3381  221.0375 H   0  0  0  0  0  0  0  0  0  0  0  0
  140.8635   72.6441  219.4494 H   0  0  0  0  0  0  0  0  0  0  0  0
  144.1740   74.1444  221.2407 H   0  0  0  0  0  0  0  0  0  0  0  0
  143.4587   72.5989  221.6906 H   0  0  0  0  0  0  0  0  0  0  0  0
  145.9560   73.1218  220.3018 H   0  0  0  0  0  0  0  0  0  0  0  0
  145.3112   71.5470  220.8141 H   0  0  0  0  0  0  0  0  0  0  0  0
  146.2023   72.0106  217.6799 H   0  0  0  0  0  0  0  0  0  0  0  0
  143.9699   70.5508  217.0937 H   0  0  0  0  0  0  0  0  0  0  0  0
  145.5737   70.4396  216.3039 H   0  0  0  0  0  0  0  0  0  0  0  0
  144.3147   68.6176  218.3674 H   0  0  0  0  0  0  0  0  0  0  0  0
  145.3253   68.1694  217.0198 H   0  0  0  0  0  0  0  0  0  0  0  0
  147.2340   68.9030  218.1450 H   0  0  0  0  0  0  0  0  0  0  0  0
  145.6917   70.3420  220.1917 H   0  0  0  0  0  0  0  0  0  0  0  0
  147.2785   70.7669  219.5149 H   0  0  0  0  0  0  0  0  0  0  0  0
  143.2090   72.7029  217.6336 H   0  0  0  0  0  0  0  0  0  0  0  0
  142.8391   71.3517  218.6841 H   0  0  0  0  0  0  0  0  0  0  0  0
  144.4851   74.9499  217.7511 H   0  0  0  0  0  0  0  0  0  0  0  0
  143.9060   77.3093  217.2482 H   0  0  0  0  0  0  0  0  0  0  0  0
  141.9725   78.4157  218.3667 H   0  0  0  0  0  0  0  0  0  0  0  0
  140.6457   77.0994  219.9810 H   0  0  0  0  0  0  0  0  0  0  0  0
  1  2  2  0
  2  3  1  0
  3  4  2  0
  4  5  1  0
  5  6  2  0
  6  7  1  0
  7  8  1  0
  7  9  2  0
  9 10  1  0
 10 11  2  0
 11 12  1  0
  2 13  1  0
 13 14  1  0
 15 14  1  1
 15 16  1  0
 16 17  1  0
 17 18  1  0
 18 19  1  0
 19 20  1  0
 20 21  1  0
 21 22  1  0
 22 23  1  0
 18 24  1  0
 15 25  1  0
 25 26  2  0
 26 27  1  0
 27 28  2  0
 28 29  1  0
 29 30  2  0
 12  3  1  0
 30 13  1  0
 11  5  1  0
 24 15  1  0
 30 25  1  0
 23 19  1  0
  4 31  1  0
  6 32  1  0
  9 33  1  0
 10 34  1  0
 12 35  1  0
 14 36  1  0
 14 37  1  0
 16 38  1  0
 16 39  1  0
 17 40  1  0
 17 41  1  0
 19 42  1  6
 20 43  1  0
 20 44  1  0
 21 45  1  0
 21 46  1  0
 22 47  1  0
 23 48  1  0
 23 49  1  0
 24 50  1  0
 24 51  1  0
 26 52  1  0
 27 53  1  0
 28 54  1  0
 29 55  1  0
M  END
>  <smiles>  (16) 
O=C(c1cc2cc(F)ccc2[nH]1)N1CC2(CCN(C3CCNC3)C2)c2ccccc21

>  <score_type>  (16) 
oracle

>  <origin>  (16) 
autodockgpu

>  <m_score__min__energy>  (16) 
-8.1400000000000006

>  <m_primary>  (16) 
energy

>  <meeko>  (16) 
{"free_energy": -7.87, "intermolecular_energy": -8.77, "internal_energy": -1.17, "cluster_size": 1, "cluster_id": 3, "rank_in_cluster": 1}

>  <energy>  (16) 
-7.94

>  <cluster_rmsd>  (16) 
0.25

>  <rmsd>  (16) 
270.65

>  <cluster>  (16) 
2

$$$$

     RDKit          3D

 55 60  0  0  1  0  0  0  0  0999 V2000
  139.5670   75.5760  222.4680 O   0  0  0  0  0  0  0  0  0  0  0  0
  140.5120   75.9090  221.6530 C   0  0  0  0  0  0  0  0  0  0  0  0
  141.4010   74.8630  221.2370 C   0  0  0  0  0  0  0  0  0  0  0  0
  141.2330   73.4960  221.1700 C   0  0  0  0  0  0  0  0  0  0  0  0
  142.4070   72.8890  220.7460 C   0  0  0  0  0  0  0  0  0  0  0  0
  142.8440   71.6210  220.5120 C   0  0  0  0  0  0  0  0  0  0  0  0
  144.1340   71.3140  220.0910 C   0  0  0  0  0  0  0  0  0  0  0  0
  144.5030   70.0090  219.8780 F   0  0  0  0  0  0  0  0  0  0  0  0
  145.0180   72.3610  219.9010 C   0  0  0  0  0  0  0  0  0  0  0  0
  144.5800   73.6310  220.1350 C   0  0  0  0  0  0  0  0  0  0  0  0
  143.2940   73.9240  220.5540 C   0  0  0  0  0  0  0  0  0  0  0  0
  142.6930   75.0580  220.8430 N   0  0  0  0  0  0  0  0  0  0  0  0
  140.5550   77.2630  221.2620 N   0  0  0  0  0  0  0  0  0  0  0  0
  140.0670   77.9640  220.1020 C   0  0  0  0  0  0  0  0  0  0  0  0
  141.0850   79.0490  219.9120 C   0  0  1  0  0  0  0  0  0  0  0  0
  142.2100   78.5180  219.0740 C   0  0  0  0  0  0  0  0  0  0  0  0
  142.5850   79.6540  218.1850 C   0  0  0  0  0  0  0  0  0  0  0  0
  141.6700   80.7120  218.4600 N   0  0  0  0  0  0  0  0  0  0  0  0
  141.6540   81.7620  217.5650 C   0  0  2  0  0  0  0  0  0  0  0  0
  142.8300   82.0370  216.7170 C   0  0  0  0  0  0  0  0  0  0  0  0
  143.4290   83.3670  217.1300 C   0  0  0  0  0  0  0  0  0  0  0  0
  142.2720   84.0600  217.6680 N   0  0  0  0  0  0  0  0  0  0  0  0
  141.4550   83.0780  218.3230 C   0  0  0  0  0  0  0  0  0  0  0  0
  140.5610   80.2770  219.1870 C   0  0  0  0  0  0  0  0  0  0  0  0
  141.5010   79.3700  221.2950 C   0  0  0  0  0  0  0  0  0  0  0  0
  142.1080   80.4690  221.9170 C   0  0  0  0  0  0  0  0  0  0  0  0
  142.3860   80.4460  223.2870 C   0  0  0  0  0  0  0  0  0  0  0  0
  142.0770   79.3480  224.0640 C   0  0  0  0  0  0  0  0  0  0  0  0
  141.4840   78.2840  223.4360 C   0  0  0  0  0  0  0  0  0  0  0  0
  141.1910   78.2730  222.0700 C   0  0  0  0  0  0  0  0  0  0  0  0
  140.3028   72.9634  221.4169 H   0  0  0  0  0  0  0  0  0  0  0  0
  142.1370   70.7922  220.6644 H   0  0  0  0  0  0  0  0  0  0  0  0
  146.0498   72.1735  219.5690 H   0  0  0  0  0  0  0  0  0  0  0  0
  145.2832   74.4632  219.9833 H   0  0  0  0  0  0  0  0  0  0  0  0
  143.1790   76.0000  220.7680 H   0  0  0  0  0  0  0  0  0  0  0  0
  140.0283   77.3001  219.2258 H   0  0  0  0  0  0  0  0  0  0  0  0
  139.0430   78.3464  220.2250 H   0  0  0  0  0  0  0  0  0  0  0  0
  143.0600   78.2231  219.7069 H   0  0  0  0  0  0  0  0  0  0  0  0
  141.9201   77.6217  218.5060 H   0  0  0  0  0  0  0  0  0  0  0  0
  143.6141   79.9783  218.3987 H   0  0  0  0  0  0  0  0  0  0  0  0
  142.5397   79.3583  217.1265 H   0  0  0  0  0  0  0  0  0  0  0  0
  140.8515   81.4255  216.8922 H   0  0  0  0  0  0  0  0  0  0  0  0
  143.5755   81.2389  216.8484 H   0  0  0  0  0  0  0  0  0  0  0  0
  142.5282   82.0748  215.6599 H   0  0  0  0  0  0  0  0  0  0  0  0
  144.2082   83.2349  217.8951 H   0  0  0  0  0  0  0  0  0  0  0  0
  143.9285   83.9042  216.3103 H   0  0  0  0  0  0  0  0  0  0  0  0
  141.7870   84.5970  216.9290 H   0  0  0  0  0  0  0  0  0  0  0  0
  141.7681   82.9627  219.3712 H   0  0  0  0  0  0  0  0  0  0  0  0
  140.3970   83.3791  218.3211 H   0  0  0  0  0  0  0  0  0  0  0  0
  140.2303   81.0459  219.9007 H   0  0  0  0  0  0  0  0  0  0  0  0
  139.6855   80.0657  218.5555 H   0  0  0  0  0  0  0  0  0  0  0  0
  142.3680   81.3573  221.3225 H   0  0  0  0  0  0  0  0  0  0  0  0
  142.8607   81.3209  223.7552 H   0  0  0  0  0  0  0  0  0  0  0  0
  142.2973   79.3278  225.1415 H   0  0  0  0  0  0  0  0  0  0  0  0
  141.2269   77.3979  224.0350 H   0  0  0  0  0  0  0  0  0  0  0  0
  1  2  2  0
  2  3  1  0
  3  4  2  0
  4  5  1  0
  5  6  2  0
  6  7  1  0
  7  8  1  0
  7  9  2  0
  9 10  1  0
 10 11  2  0
 11 12  1  0
  2 13  1  0
 13 14  1  0
 15 14  1  1
 15 16  1  0
 16 17  1  0
 17 18  1  0
 18 19  1  0
 19 20  1  0
 20 21  1  0
 21 22  1  0
 22 23  1  0
 18 24  1  0
 15 25  1  0
 25 26  2  0
 26 27  1  0
 27 28  2  0
 28 29  1  0
 29 30  2  0
 12  3  1  0
 30 13  1  0
 11  5  1  0
 24 15  1  0
 30 25  1  0
 23 19  1  0
  4 31  1  0
  6 32  1  0
  9 33  1  0
 10 34  1  0
 12 35  1  0
 14 36  1  0
 14 37  1  0
 16 38  1  0
 16 39  1  0
 17 40  1  0
 17 41  1  0
 19 42  1  6
 20 43  1  0
 20 44  1  0
 21 45  1  0
 21 46  1  0
 22 47  1  0
 23 48  1  0
 23 49  1  0
 24 50  1  0
 24 51  1  0
 26 52  1  0
 27 53  1  0
 28 54  1  0
 29 55  1  0
M  END
>  <smiles>  (17) 
O=C(c1cc2cc(F)ccc2[nH]1)N1CC2(CCN(C3CCNC3)C2)c2ccccc21

>  <score_type>  (17) 
oracle

>  <origin>  (17) 
autodockgpu

>  <m_score__min__energy>  (17) 
-8.1400000000000006

>  <m_primary>  (17) 
energy

>  <meeko>  (17) 
{"free_energy": -7.94, "intermolecular_energy": -8.83, "internal_energy": -1.2, "cluster_size": 12, "cluster_id": 2, "rank_in_cluster": 9}

>  <energy>  (17) 
-7.94

>  <cluster_rmsd>  (17) 
0.23

>  <rmsd>  (17) 
270.64

>  <cluster>  (17) 
2

$$$$

     RDKit          3D

 55 60  0  0  1  0  0  0  0  0999 V2000
  139.6540   75.2550  222.3540 O   0  0  0  0  0  0  0  0  0  0  0  0
  140.5960   75.6470  221.5640 C   0  0  0  0  0  0  0  0  0  0  0  0
  141.5410   74.6520  221.1450 C   0  0  0  0  0  0  0  0  0  0  0  0
  141.4190   73.2870  220.9930 C   0  0  0  0  0  0  0  0  0  0  0  0
  142.6350   72.7380  220.6070 C   0  0  0  0  0  0  0  0  0  0  0  0
  143.1250   71.4980  220.3310 C   0  0  0  0  0  0  0  0  0  0  0  0
  144.4460   71.2520  219.9730 C   0  0  0  0  0  0  0  0  0  0  0  0
  144.8680   69.9730  219.7110 F   0  0  0  0  0  0  0  0  0  0  0  0
  145.3070   72.3330  219.8940 C   0  0  0  0  0  0  0  0  0  0  0  0
  144.8160   73.5740  220.1710 C   0  0  0  0  0  0  0  0  0  0  0  0
  143.4990   73.8070  220.5270 C   0  0  0  0  0  0  0  0  0  0  0  0
  142.8470   74.9050  220.8420 N   0  0  0  0  0  0  0  0  0  0  0  0
  140.5820   77.0090  221.1980 N   0  0  0  0  0  0  0  0  0  0  0  0
  140.0890   77.7080  220.0390 C   0  0  0  0  0  0  0  0  0  0  0  0
  141.0570   78.8440  219.8950 C   0  0  1  0  0  0  0  0  0  0  0  0
  142.2270   78.3850  219.0760 C   0  0  0  0  0  0  0  0  0  0  0  0
  142.5680   79.5550  218.2170 C   0  0  0  0  0  0  0  0  0  0  0  0
  141.5960   80.5610  218.4880 N   0  0  0  0  0  0  0  0  0  0  0  0
  141.5500   81.6260  217.6120 C   0  0  2  0  0  0  0  0  0  0  0  0
  142.6790   81.8900  216.6990 C   0  0  0  0  0  0  0  0  0  0  0  0
  143.3330   83.1990  217.0960 C   0  0  0  0  0  0  0  0  0  0  0  0
  142.2260   83.9080  217.7140 N   0  0  0  0  0  0  0  0  0  0  0  0
  141.4280   82.9340  218.4010 C   0  0  0  0  0  0  0  0  0  0  0  0
  140.4910   80.0590  219.1790 C   0  0  0  0  0  0  0  0  0  0  0  0
  141.4230   79.1580  221.2930 C   0  0  0  0  0  0  0  0  0  0  0  0
  141.9600   80.2730  221.9510 C   0  0  0  0  0  0  0  0  0  0  0  0
  142.2050   80.2380  223.3260 C   0  0  0  0  0  0  0  0  0  0  0  0
  141.9310   79.1110  224.0760 C   0  0  0  0  0  0  0  0  0  0  0  0
  141.4070   78.0320  223.4130 C   0  0  0  0  0  0  0  0  0  0  0  0
  141.1480   78.0330  222.0400 C   0  0  0  0  0  0  0  0  0  0  0  0
  140.4929   72.7157  221.1541 H   0  0  0  0  0  0  0  0  0  0  0  0
  142.4368   70.6422  220.3948 H   0  0  0  0  0  0  0  0  0  0  0  0
  146.3618   72.1939  219.6145 H   0  0  0  0  0  0  0  0  0  0  0  0
  145.5004   74.4329  220.1085 H   0  0  0  0  0  0  0  0  0  0  0  0
  143.3070   75.8630  220.8480 H   0  0  0  0  0  0  0  0  0  0  0  0
  140.1043   77.0602  219.1501 H   0  0  0  0  0  0  0  0  0  0  0  0
  139.0448   78.0380  220.1427 H   0  0  0  0  0  0  0  0  0  0  0  0
  143.0747   78.1196  219.7248 H   0  0  0  0  0  0  0  0  0  0  0  0
  141.9951   77.4871  218.4844 H   0  0  0  0  0  0  0  0  0  0  0  0
  143.5745   79.9247  218.4626 H   0  0  0  0  0  0  0  0  0  0  0  0
  142.5636   79.2781  217.1524 H   0  0  0  0  0  0  0  0  0  0  0  0
  140.7007   81.3181  216.9844 H   0  0  0  0  0  0  0  0  0  0  0  0
  143.4123   81.0733  216.7721 H   0  0  0  0  0  0  0  0  0  0  0  0
  142.3148   81.9534  215.6630 H   0  0  0  0  0  0  0  0  0  0  0  0
  144.1535   83.0365  217.8104 H   0  0  0  0  0  0  0  0  0  0  0  0
  143.7951   83.7390  216.2565 H   0  0  0  0  0  0  0  0  0  0  0  0
  141.7100   84.4680  217.0130 H   0  0  0  0  0  0  0  0  0  0  0  0
  141.8008   82.7940  219.4264 H   0  0  0  0  0  0  0  0  0  0  0  0
  140.3791   83.2587  218.4674 H   0  0  0  0  0  0  0  0  0  0  0  0
  140.1057   80.7972  219.8977 H   0  0  0  0  0  0  0  0  0  0  0  0
  139.6424   79.8180  218.5219 H   0  0  0  0  0  0  0  0  0  0  0  0
  142.1907   81.1841  221.3795 H   0  0  0  0  0  0  0  0  0  0  0  0
  142.6246   81.1260  223.8213 H   0  0  0  0  0  0  0  0  0  0  0  0
  142.1249   79.0808  225.1584 H   0  0  0  0  0  0  0  0  0  0  0  0
  141.1797   77.1227  223.9887 H   0  0  0  0  0  0  0  0  0  0  0  0
  1  2  2  0
  2  3  1  0
  3  4  2  0
  4  5  1  0
  5  6  2  0
  6  7  1  0
  7  8  1  0
  7  9  2  0
  9 10  1  0
 10 11  2  0
 11 12  1  0
  2 13  1  0
 13 14  1  0
 15 14  1  1
 15 16  1  0
 16 17  1  0
 17 18  1  0
 18 19  1  0
 19 20  1  0
 20 21  1  0
 21 22  1  0
 22 23  1  0
 18 24  1  0
 15 25  1  0
 25 26  2  0
 26 27  1  0
 27 28  2  0
 28 29  1  0
 29 30  2  0
 12  3  1  0
 30 13  1  0
 11  5  1  0
 24 15  1  0
 30 25  1  0
 23 19  1  0
  4 31  1  0
  6 32  1  0
  9 33  1  0
 10 34  1  0
 12 35  1  0
 14 36  1  0
 14 37  1  0
 16 38  1  0
 16 39  1  0
 17 40  1  0
 17 41  1  0
 19 42  1  6
 20 43  1  0
 20 44  1  0
 21 45  1  0
 21 46  1  0
 22 47  1  0
 23 48  1  0
 23 49  1  0
 24 50  1  0
 24 51  1  0
 26 52  1  0
 27 53  1  0
 28 54  1  0
 29 55  1  0
M  END
>  <smiles>  (18) 
O=C(c1cc2cc(F)ccc2[nH]1)N1CC2(CCN(C3CCNC3)C2)c2ccccc21

>  <score_type>  (18) 
oracle

>  <origin>  (18) 
autodockgpu

>  <m_score__min__energy>  (18) 
-8.1400000000000006

>  <m_primary>  (18) 
energy

>  <meeko>  (18) 
{"free_energy": -7.97, "intermolecular_energy": -8.87, "internal_energy": -1.19, "cluster_size": 12, "cluster_id": 2, "rank_in_cluster": 3}

>  <energy>  (18) 
-7.59

>  <cluster_rmsd>  (18) 
0.95

>  <rmsd>  (18) 
270.58

>  <cluster>  (18) 
2

$$$$

     RDKit          3D

 55 60  0  0  1  0  0  0  0  0999 V2000
  140.2370   78.3980  219.3930 O   0  0  0  0  0  0  0  0  0  0  0  0
  140.6280   77.8930  220.5140 C   0  0  0  0  0  0  0  0  0  0  0  0
  141.3970   76.6830  220.4440 C   0  0  0  0  0  0  0  0  0  0  0  0
  141.0670   75.3760  220.7320 C   0  0  0  0  0  0  0  0  0  0  0  0
  142.1700   74.5530  220.5550 C   0  0  0  0  0  0  0  0  0  0  0  0
  142.4580   73.2290  220.6920 C   0  0  0  0  0  0  0  0  0  0  0  0
  143.7130   72.6820  220.4450 C   0  0  0  0  0  0  0  0  0  0  0  0
  143.9280   71.3360  220.6080 F   0  0  0  0  0  0  0  0  0  0  0  0
  144.7220   73.5360  220.0360 C   0  0  0  0  0  0  0  0  0  0  0  0
  144.4330   74.8610  219.8980 C   0  0  0  0  0  0  0  0  0  0  0  0
  143.1810   75.3950  220.1480 C   0  0  0  0  0  0  0  0  0  0  0  0
  142.7130   76.6230  220.0890 N   0  0  0  0  0  0  0  0  0  0  0  0
  140.2590   78.5940  221.6810 N   0  0  0  0  0  0  0  0  0  0  0  0
  139.0290   78.6790  222.4260 C   0  0  0  0  0  0  0  0  0  0  0  0
  139.0490   80.0850  222.9470 C   0  0  1  0  0  0  0  0  0  0  0  0
  138.4460   80.9940  221.9170 C   0  0  0  0  0  0  0  0  0  0  0  0
  137.6540   81.9810  222.7040 C   0  0  0  0  0  0  0  0  0  0  0  0
  137.7480   81.5890  224.0710 N   0  0  0  0  0  0  0  0  0  0  0  0
  136.8720   82.1960  224.9480 C   0  0  2  0  0  0  0  0  0  0  0  0
  137.2490   82.3960  226.3600 C   0  0  0  0  0  0  0  0  0  0  0  0
  136.3610   81.5280  227.2310 C   0  0  0  0  0  0  0  0  0  0  0  0
  135.1650   81.4160  226.4160 N   0  0  0  0  0  0  0  0  0  0  0  0
  135.5880   81.3650  225.0450 C   0  0  0  0  0  0  0  0  0  0  0  0
  138.2400   80.2910  224.2170 C   0  0  0  0  0  0  0  0  0  0  0  0
  140.4870   80.3440  223.1710 C   0  0  0  0  0  0  0  0  0  0  0  0
  141.2220   81.2490  223.9500 C   0  0  0  0  0  0  0  0  0  0  0  0
  142.6200   81.2380  223.9230 C   0  0  0  0  0  0  0  0  0  0  0  0
  143.3160   80.3450  223.1320 C   0  0  0  0  0  0  0  0  0  0  0  0
  142.5780   79.4700  222.3790 C   0  0  0  0  0  0  0  0  0  0  0  0
  141.1810   79.4520  222.3820 C   0  0  0  0  0  0  0  0  0  0  0  0
  140.0726   75.0347  221.0555 H   0  0  0  0  0  0  0  0  0  0  0  0
  141.6525   72.5538  221.0164 H   0  0  0  0  0  0  0  0  0  0  0  0
  145.7326   73.1550  219.8273 H   0  0  0  0  0  0  0  0  0  0  0  0
  145.2349   75.5396  219.5717 H   0  0  0  0  0  0  0  0  0  0  0  0
  143.3110   77.4510  219.7950 H   0  0  0  0  0  0  0  0  0  0  0  0
  138.1591   78.5109  221.7741 H   0  0  0  0  0  0  0  0  0  0  0  0
  138.9494   77.9225  223.2206 H   0  0  0  0  0  0  0  0  0  0  0  0
  139.2323   81.5004  221.3380 H   0  0  0  0  0  0  0  0  0  0  0  0
  137.8274   80.4479  221.1896 H   0  0  0  0  0  0  0  0  0  0  0  0
  138.0681   82.9913  222.5705 H   0  0  0  0  0  0  0  0  0  0  0  0
  136.6059   82.0014  222.3707 H   0  0  0  0  0  0  0  0  0  0  0  0
  136.8101   83.1957  224.4932 H   0  0  0  0  0  0  0  0  0  0  0  0
  138.3015   82.1112  226.5055 H   0  0  0  0  0  0  0  0  0  0  0  0
  137.1223   83.4537  226.6343 H   0  0  0  0  0  0  0  0  0  0  0  0
  136.8165   80.5431  227.4115 H   0  0  0  0  0  0  0  0  0  0  0  0
  136.1797   81.9412  228.2342 H   0  0  0  0  0  0  0  0  0  0  0  0
  134.4990   82.1780  226.6300 H   0  0  0  0  0  0  0  0  0  0  0  0
  135.7867   80.3246  224.7482 H   0  0  0  0  0  0  0  0  0  0  0  0
  134.8095   81.7608  224.3762 H   0  0  0  0  0  0  0  0  0  0  0  0
  138.8778   80.2084  225.1094 H   0  0  0  0  0  0  0  0  0  0  0  0
  137.4473   79.5404  224.3516 H   0  0  0  0  0  0  0  0  0  0  0  0
  140.6945   81.9736  224.5876 H   0  0  0  0  0  0  0  0  0  0  0  0
  143.1767   81.9550  224.5443 H   0  0  0  0  0  0  0  0  0  0  0  0
  144.4157   80.3366  223.1076 H   0  0  0  0  0  0  0  0  0  0  0  0
  143.1103   78.7480  221.7423 H   0  0  0  0  0  0  0  0  0  0  0  0
  1  2  2  0
  2  3  1  0
  3  4  2  0
  4  5  1  0
  5  6  2  0
  6  7  1  0
  7  8  1  0
  7  9  2  0
  9 10  1  0
 10 11  2  0
 11 12  1  0
  2 13  1  0
 13 14  1  0
 15 14  1  6
 15 16  1  0
 16 17  1  0
 17 18  1  0
 18 19  1  0
 19 20  1  0
 20 21  1  0
 21 22  1  0
 22 23  1  0
 18 24  1  0
 15 25  1  0
 25 26  2  0
 26 27  1  0
 27 28  2  0
 28 29  1  0
 29 30  2  0
 12  3  1  0
 30 13  1  0
 11  5  1  0
 24 15  1  0
 30 25  1  0
 23 19  1  0
  4 31  1  0
  6 32  1  0
  9 33  1  0
 10 34  1  0
 12 35  1  0
 14 36  1  0
 14 37  1  0
 16 38  1  0
 16 39  1  0
 17 40  1  0
 17 41  1  0
 19 42  1  6
 20 43  1  0
 20 44  1  0
 21 45  1  0
 21 46  1  0
 22 47  1  0
 23 48  1  0
 23 49  1  0
 24 50  1  0
 24 51  1  0
 26 52  1  0
 27 53  1  0
 28 54  1  0
 29 55  1  0
M  END
>  <smiles>  (19) 
O=C(c1cc2cc(F)ccc2[nH]1)N1CC2(CCN(C3CCNC3)C2)c2ccccc21

>  <score_type>  (19) 
oracle

>  <origin>  (19) 
autodockgpu

>  <m_score__min__energy>  (19) 
-8.1400000000000006

>  <m_primary>  (19) 
energy

>  <meeko>  (19) 
{"free_energy": -8.01, "intermolecular_energy": -8.9, "internal_energy": -1.14, "cluster_size": 7, "cluster_id": 1, "rank_in_cluster": 5}

>  <energy>  (19) 
-7.57

>  <cluster_rmsd>  (19) 
1.59

>  <rmsd>  (19) 
270.77

>  <cluster>  (19) 
2

$$$$

     RDKit          3D

 55 60  0  0  1  0  0  0  0  0999 V2000
  140.3820   78.3480  219.3660 O   0  0  0  0  0  0  0  0  0  0  0  0
  140.7270   77.8260  220.4950 C   0  0  0  0  0  0  0  0  0  0  0  0
  141.4740   76.6030  220.4390 C   0  0  0  0  0  0  0  0  0  0  0  0
  141.1170   75.3040  220.7330 C   0  0  0  0  0  0  0  0  0  0  0  0
  142.2070   74.4590  220.5710 C   0  0  0  0  0  0  0  0  0  0  0  0
  142.4690   73.1310  220.7190 C   0  0  0  0  0  0  0  0  0  0  0  0
  143.7160   72.5590  220.4870 C   0  0  0  0  0  0  0  0  0  0  0  0
  143.9040   71.2110  220.6610 F   0  0  0  0  0  0  0  0  0  0  0  0
  144.7440   73.3920  220.0820 C   0  0  0  0  0  0  0  0  0  0  0  0
  144.4810   74.7220  219.9330 C   0  0  0  0  0  0  0  0  0  0  0  0
  143.2370   75.2800  220.1680 C   0  0  0  0  0  0  0  0  0  0  0  0
  142.7920   76.5160  220.0970 N   0  0  0  0  0  0  0  0  0  0  0  0
  140.3340   78.5260  221.6540 N   0  0  0  0  0  0  0  0  0  0  0  0
  139.0970   78.5890  222.3900 C   0  0  0  0  0  0  0  0  0  0  0  0
  139.0820   79.9980  222.9040 C   0  0  1  0  0  0  0  0  0  0  0  0
  138.4680   80.8880  221.8640 C   0  0  0  0  0  0  0  0  0  0  0  0
  137.6490   81.8620  222.6390 C   0  0  0  0  0  0  0  0  0  0  0  0
  137.7410   81.4800  224.0090 N   0  0  0  0  0  0  0  0  0  0  0  0
  136.8460   82.0720  224.8760 C   0  0  2  0  0  0  0  0  0  0  0  0
  137.2480   82.3920  226.2590 C   0  0  0  0  0  0  0  0  0  0  0  0
  136.4580   81.5170  227.2120 C   0  0  0  0  0  0  0  0  0  0  0  0
  135.2500   81.2590  226.4480 N   0  0  0  0  0  0  0  0  0  0  0  0
  135.6360   81.1520  225.0690 C   0  0  0  0  0  0  0  0  0  0  0  0
  138.2600   80.1930  224.1660 C   0  0  0  0  0  0  0  0  0  0  0  0
  140.5140   80.2890  223.1360 C   0  0  0  0  0  0  0  0  0  0  0  0
  141.2230   81.2130  223.9150 C   0  0  0  0  0  0  0  0  0  0  0  0
  142.6200   81.2330  223.8980 C   0  0  0  0  0  0  0  0  0  0  0  0
  143.3420   80.3510  223.1180 C   0  0  0  0  0  0  0  0  0  0  0  0
  142.6280   79.4560  222.3640 C   0  0  0  0  0  0  0  0  0  0  0  0
  141.2320   79.4080  222.3580 C   0  0  0  0  0  0  0  0  0  0  0  0
  140.1137   74.9834  221.0501 H   0  0  0  0  0  0  0  0  0  0  0  0
  141.6481   72.4730  221.0402 H   0  0  0  0  0  0  0  0  0  0  0  0
  145.7492   72.9912  219.8849 H   0  0  0  0  0  0  0  0  0  0  0  0
  145.2983   75.3836  219.6101 H   0  0  0  0  0  0  0  0  0  0  0  0
  143.4080   77.3310  219.8030 H   0  0  0  0  0  0  0  0  0  0  0  0
  138.2357   78.3987  221.7328 H   0  0  0  0  0  0  0  0  0  0  0  0
  139.0286   77.8354  223.1884 H   0  0  0  0  0  0  0  0  0  0  0  0
  139.2479   81.4079  221.2882 H   0  0  0  0  0  0  0  0  0  0  0  0
  137.8671   80.3247  221.1349 H   0  0  0  0  0  0  0  0  0  0  0  0
  138.0422   82.8802  222.5027 H   0  0  0  0  0  0  0  0  0  0  0  0
  136.6033   81.8577  222.2977 H   0  0  0  0  0  0  0  0  0  0  0  0
  136.6906   83.0321  224.3622 H   0  0  0  0  0  0  0  0  0  0  0  0
  138.3236   82.1992  226.3854 H   0  0  0  0  0  0  0  0  0  0  0  0
  137.0466   83.4524  226.4710 H   0  0  0  0  0  0  0  0  0  0  0  0
  136.9956   80.5843  227.4381 H   0  0  0  0  0  0  0  0  0  0  0  0
  136.2740   81.9802  228.1926 H   0  0  0  0  0  0  0  0  0  0  0  0
  134.5330   81.9790  226.6370 H   0  0  0  0  0  0  0  0  0  0  0  0
  135.9084   80.1131  224.8314 H   0  0  0  0  0  0  0  0  0  0  0  0
  134.8093   81.4420  224.4038 H   0  0  0  0  0  0  0  0  0  0  0  0
  138.8928   80.1290  225.0635 H   0  0  0  0  0  0  0  0  0  0  0  0
  137.4827   79.4261  224.2991 H   0  0  0  0  0  0  0  0  0  0  0  0
  140.6751   81.9288  224.5454 H   0  0  0  0  0  0  0  0  0  0  0  0
  143.1558   81.9663  224.5186 H   0  0  0  0  0  0  0  0  0  0  0  0
  144.4418   80.3660  223.1025 H   0  0  0  0  0  0  0  0  0  0  0  0
  143.1800   78.7426  221.7345 H   0  0  0  0  0  0  0  0  0  0  0  0
  1  2  2  0
  2  3  1  0
  3  4  2  0
  4  5  1  0
  5  6  2  0
  6  7  1  0
  7  8  1  0
  7  9  2  0
  9 10  1  0
 10 11  2  0
 11 12  1  0
  2 13  1  0
 13 14  1  0
 15 14  1  6
 15 16  1  0
 16 17  1  0
 17 18  1  0
 18 19  1  0
 19 20  1  0
 20 21  1  0
 21 22  1  0
 22 23  1  0
 18 24  1  0
 15 25  1  0
 25 26  2  0
 26 27  1  0
 27 28  2  0
 28 29  1  0
 29 30  2  0
 12  3  1  0
 30 13  1  0
 11  5  1  0
 24 15  1  0
 30 25  1  0
 23 19  1  0
  4 31  1  0
  6 32  1  0
  9 33  1  0
 10 34  1  0
 12 35  1  0
 14 36  1  0
 14 37  1  0
 16 38  1  0
 16 39  1  0
 17 40  1  0
 17 41  1  0
 19 42  1  6
 20 43  1  0
 20 44  1  0
 21 45  1  0
 21 46  1  0
 22 47  1  0
 23 48  1  0
 23 49  1  0
 24 50  1  0
 24 51  1  0
 26 52  1  0
 27 53  1  0
 28 54  1  0
 29 55  1  0
M  END
>  <smiles>  (20) 
O=C(c1cc2cc(F)ccc2[nH]1)N1CC2(CCN(C3CCNC3)C2)c2ccccc21

>  <score_type>  (20) 
oracle

>  <origin>  (20) 
autodockgpu

>  <m_score__min__energy>  (20) 
-8.1400000000000006

>  <m_primary>  (20) 
energy

>  <meeko>  (20) 
{"free_energy": -8.0, "intermolecular_energy": -8.89, "internal_energy": -1.14, "cluster_size": 7, "cluster_id": 1, "rank_in_cluster": 6}

>  <energy>  (20) 
-7.87

>  <cluster_rmsd>  (20) 
0.0

>  <rmsd>  (20) 
270.26

>  <cluster>  (20) 
3

$$$$

     RDKit          3D

 55 60  0  0  1  0  0  0  0  0999 V2000
  138.8730   75.9740  219.8800 O   0  0  0  0  0  0  0  0  0  0  0  0
  139.7970   75.8800  220.7570 C   0  0  0  0  0  0  0  0  0  0  0  0
  140.3860   77.1150  221.2030 C   0  0  0  0  0  0  0  0  0  0  0  0
  140.8680   77.2920  222.4940 C   0  0  0  0  0  0  0  0  0  0  0  0
  141.3740   78.5720  222.6380 C   0  0  0  0  0  0  0  0  0  0  0  0
  141.9560   79.2360  223.6970 C   0  0  0  0  0  0  0  0  0  0  0  0
  142.3750   80.5450  223.5370 C   0  0  0  0  0  0  0  0  0  0  0  0
  142.9440   81.1640  224.6100 F   0  0  0  0  0  0  0  0  0  0  0  0
  142.2090   81.1780  222.3180 C   0  0  0  0  0  0  0  0  0  0  0  0
  141.6220   80.4890  221.2710 C   0  0  0  0  0  0  0  0  0  0  0  0
  141.1980   79.1730  221.4240 C   0  0  0  0  0  0  0  0  0  0  0  0
  140.6060   78.2820  220.5880 N   0  0  0  0  0  0  0  0  0  0  0  0
  140.1410   74.5760  221.1880 N   0  0  0  0  0  0  0  0  0  0  0  0
  139.3320   73.6670  221.9730 C   0  0  0  0  0  0  0  0  0  0  0  0
  140.1380   72.4180  222.0480 C   0  0  2  0  0  0  0  0  0  0  0  0
  139.3600   71.3090  221.3300 C   0  0  0  0  0  0  0  0  0  0  0  0
  138.3940   70.9240  222.4300 C   0  0  0  0  0  0  0  0  0  0  0  0
  139.0810   71.1480  223.6550 N   0  0  0  0  0  0  0  0  0  0  0  0
  139.1110   70.0500  224.5500 C   0  0  2  0  0  0  0  0  0  0  0  0
  140.3890   69.8450  225.3130 C   0  0  0  0  0  0  0  0  0  0  0  0
  140.0980   68.4680  225.9320 C   0  0  0  0  0  0  0  0  0  0  0  0
  139.1890   67.8020  225.0550 N   0  0  0  0  0  0  0  0  0  0  0  0
  138.9360   68.6920  223.9320 C   0  0  0  0  0  0  0  0  0  0  0  0
  140.2860   71.8380  223.4170 C   0  0  0  0  0  0  0  0  0  0  0  0
  141.4210   72.6830  221.3780 C   0  0  0  0  0  0  0  0  0  0  0  0
  142.5130   71.8520  221.2300 C   0  0  0  0  0  0  0  0  0  0  0  0
  143.6460   72.2720  220.5660 C   0  0  0  0  0  0  0  0  0  0  0  0
  143.6490   73.5500  220.0550 C   0  0  0  0  0  0  0  0  0  0  0  0
  142.5480   74.3750  220.2100 C   0  0  0  0  0  0  0  0  0  0  0  0
  141.4000   73.9770  220.8730 C   0  0  0  0  0  0  0  0  0  0  0  0
  140.8501   76.5276  223.2848 H   0  0  0  0  0  0  0  0  0  0  0  0
  142.0865   78.7279  224.6638 H   0  0  0  0  0  0  0  0  0  0  0  0
  142.5402   82.2182  222.1824 H   0  0  0  0  0  0  0  0  0  0  0  0
  141.4884   80.9907  220.3012 H   0  0  0  0  0  0  0  0  0  0  0  0
  140.3810   78.5290  219.6200 H   0  0  0  0  0  0  0  0  0  0  0  0
  139.1537   74.0753  222.9787 H   0  0  0  0  0  0  0  0  0  0  0  0
  138.3409   73.4983  221.5266 H   0  0  0  0  0  0  0  0  0  0  0  0
  138.8370   71.6864  220.4389 H   0  0  0  0  0  0  0  0  0  0  0  0
  139.9751   70.4850  220.9394 H   0  0  0  0  0  0  0  0  0  0  0  0
  137.4898   71.5484  222.3797 H   0  0  0  0  0  0  0  0  0  0  0  0
  138.0738   69.8759  222.3348 H   0  0  0  0  0  0  0  0  0  0  0  0
  138.2679   70.3640  225.1830 H   0  0  0  0  0  0  0  0  0  0  0  0
  141.2644   69.8188  224.6474 H   0  0  0  0  0  0  0  0  0  0  0  0
  140.6364   70.6388  226.0332 H   0  0  0  0  0  0  0  0  0  0  0  0
  141.0292   67.8894  226.0219 H   0  0  0  0  0  0  0  0  0  0  0  0
  139.6680   68.5723  226.9391 H   0  0  0  0  0  0  0  0  0  0  0  0
  139.5600   66.8630  224.7250 H   0  0  0  0  0  0  0  0  0  0  0  0
  139.6619   68.5269  223.1222 H   0  0  0  0  0  0  0  0  0  0  0  0
  137.9496   68.5443  223.4681 H   0  0  0  0  0  0  0  0  0  0  0  0
  140.4279   72.6356  224.1611 H   0  0  0  0  0  0  0  0  0  0  0  0
  141.1617   71.1765  223.4921 H   0  0  0  0  0  0  0  0  0  0  0  0
  142.4788   70.8357  221.6496 H   0  0  0  0  0  0  0  0  0  0  0  0
  144.5163   71.6095  220.4488 H   0  0  0  0  0  0  0  0  0  0  0  0
  144.5350   73.9196  219.5181 H   0  0  0  0  0  0  0  0  0  0  0  0
  142.5873   75.3902  219.7882 H   0  0  0  0  0  0  0  0  0  0  0  0
  1  2  2  0
  2  3  1  0
  3  4  2  0
  4  5  1  0
  5  6  2  0
  6  7  1  0
  7  8  1  0
  7  9  2  0
  9 10  1  0
 10 11  2  0
 11 12  1  0
  2 13  1  0
 13 14  1  0
 15 14  1  1
 15 16  1  0
 16 17  1  0
 17 18  1  0
 18 19  1  0
 19 20  1  0
 20 21  1  0
 21 22  1  0
 22 23  1  0
 18 24  1  0
 15 25  1  0
 25 26  2  0
 26 27  1  0
 27 28  2  0
 28 29  1  0
 29 30  2  0
 12  3  1  0
 30 13  1  0
 11  5  1  0
 24 15  1  0
 30 25  1  0
 23 19  1  0
  4 31  1  0
  6 32  1  0
  9 33  1  0
 10 34  1  0
 12 35  1  0
 14 36  1  0
 14 37  1  0
 16 38  1  0
 16 39  1  0
 17 40  1  0
 17 41  1  0
 19 42  1  1
 20 43  1  0
 20 44  1  0
 21 45  1  0
 21 46  1  0
 22 47  1  0
 23 48  1  0
 23 49  1  0
 24 50  1  0
 24 51  1  0
 26 52  1  0
 27 53  1  0
 28 54  1  0
 29 55  1  0
M  END
>  <smiles>  (21) 
O=C(c1cc2cc(F)ccc2[nH]1)N1CC2(CCN(C3CCNC3)C2)c2ccccc21

>  <score_type>  (21) 
oracle

>  <origin>  (21) 
autodockgpu

>  <m_score__min__energy>  (21) 
-8.3800000000000008

>  <m_primary>  (21) 
energy

>  <meeko>  (21) 
{"free_energy": -8.19, "intermolecular_energy": -9.09, "internal_energy": -1.18, "cluster_size": 20, "cluster_id": 1, "rank_in_cluster": 20}

>  <energy>  (21) 
-8.38

>  <cluster_rmsd>  (21) 
0.0

>  <rmsd>  (21) 
271.21

>  <cluster>  (21) 
1

$$$$

     RDKit          3D

 55 60  0  0  1  0  0  0  0  0999 V2000
  138.9830   76.1220  220.1410 O   0  0  0  0  0  0  0  0  0  0  0  0
  139.8870   75.9710  221.0300 C   0  0  0  0  0  0  0  0  0  0  0  0
  140.4840   77.1740  221.5480 C   0  0  0  0  0  0  0  0  0  0  0  0
  140.1770   78.4360  221.0550 C   0  0  0  0  0  0  0  0  0  0  0  0
  140.8960   79.3990  221.7390 C   0  0  0  0  0  0  0  0  0  0  0  0
  140.9550   80.7730  221.6390 C   0  0  0  0  0  0  0  0  0  0  0  0
  141.7890   81.4860  222.4820 C   0  0  0  0  0  0  0  0  0  0  0  0
  141.8170   82.8420  222.3480 F   0  0  0  0  0  0  0  0  0  0  0  0
  142.5570   80.8170  223.4180 C   0  0  0  0  0  0  0  0  0  0  0  0
  142.4800   79.4380  223.4990 C   0  0  0  0  0  0  0  0  0  0  0  0
  141.6440   78.7150  222.6550 C   0  0  0  0  0  0  0  0  0  0  0  0
  141.3790   77.3900  222.5190 N   0  0  0  0  0  0  0  0  0  0  0  0
  140.2030   74.6430  221.4040 N   0  0  0  0  0  0  0  0  0  0  0  0
  139.3830   73.7240  222.1650 C   0  0  0  0  0  0  0  0  0  0  0  0
  140.1570   72.4520  222.1780 C   0  0  2  0  0  0  0  0  0  0  0  0
  139.3380   71.3940  221.4300 C   0  0  0  0  0  0  0  0  0  0  0  0
  138.3800   70.9900  222.5300 C   0  0  0  0  0  0  0  0  0  0  0  0
  139.0930   71.1480  223.7510 N   0  0  0  0  0  0  0  0  0  0  0  0
  139.1080   70.0140  224.6010 C   0  0  2  0  0  0  0  0  0  0  0  0
  140.3640   69.7930  225.3960 C   0  0  0  0  0  0  0  0  0  0  0  0
  140.0710   68.3880  225.9500 C   0  0  0  0  0  0  0  0  0  0  0  0
  139.1990   67.7490  225.0180 N   0  0  0  0  0  0  0  0  0  0  0  0
  138.9700   68.6800  223.9240 C   0  0  0  0  0  0  0  0  0  0  0  0
  140.3110   71.8150  223.5200 C   0  0  0  0  0  0  0  0  0  0  0  0
  141.4360   72.7120  221.4970 C   0  0  0  0  0  0  0  0  0  0  0  0
  142.5030   71.8590  221.2980 C   0  0  0  0  0  0  0  0  0  0  0  0
  143.6360   72.2760  220.6320 C   0  0  0  0  0  0  0  0  0  0  0  0
  143.6640   73.5730  220.1710 C   0  0  0  0  0  0  0  0  0  0  0  0
  142.5880   74.4200  220.3770 C   0  0  0  0  0  0  0  0  0  0  0  0
  141.4410   74.0250  221.0430 C   0  0  0  0  0  0  0  0  0  0  0  0
  139.4664   78.6393  220.2403 H   0  0  0  0  0  0  0  0  0  0  0  0
  140.3421   81.2997  220.8927 H   0  0  0  0  0  0  0  0  0  0  0  0
  143.2228   81.3763  224.0917 H   0  0  0  0  0  0  0  0  0  0  0  0
  143.0900   78.9048  224.2431 H   0  0  0  0  0  0  0  0  0  0  0  0
  141.8360   76.6910  223.1110 H   0  0  0  0  0  0  0  0  0  0  0  0
  139.2305   74.0962  223.1888 H   0  0  0  0  0  0  0  0  0  0  0  0
  138.3816   73.5984  221.7276 H   0  0  0  0  0  0  0  0  0  0  0  0
  138.8109   71.8208  220.5640 H   0  0  0  0  0  0  0  0  0  0  0  0
  139.9244   70.5706  220.9962 H   0  0  0  0  0  0  0  0  0  0  0  0
  137.4916   71.6385  222.5199 H   0  0  0  0  0  0  0  0  0  0  0  0
  138.0309   69.9551  222.3992 H   0  0  0  0  0  0  0  0  0  0  0  0
  138.2406   70.2919  225.2177 H   0  0  0  0  0  0  0  0  0  0  0  0
  141.2603   69.8038  224.7584 H   0  0  0  0  0  0  0  0  0  0  0  0
  140.5783   70.5599  226.1549 H   0  0  0  0  0  0  0  0  0  0  0  0
  141.0060   67.8167  226.0463 H   0  0  0  0  0  0  0  0  0  0  0  0
  139.6085   68.4459  226.9464 H   0  0  0  0  0  0  0  0  0  0  0  0
  139.5910   66.8280  224.6620 H   0  0  0  0  0  0  0  0  0  0  0  0
  139.7230   68.5560  223.1318 H   0  0  0  0  0  0  0  0  0  0  0  0
  138.0007   68.5396  223.4232 H   0  0  0  0  0  0  0  0  0  0  0  0
  140.4857   72.5786  224.2922 H   0  0  0  0  0  0  0  0  0  0  0  0
  141.1699   71.1286  223.5544 H   0  0  0  0  0  0  0  0  0  0  0  0
  142.4483   70.8280  221.6776 H   0  0  0  0  0  0  0  0  0  0  0  0
  144.4869   71.5969  220.4747 H   0  0  0  0  0  0  0  0  0  0  0  0
  144.5505   73.9404  219.6333 H   0  0  0  0  0  0  0  0  0  0  0  0
  142.6475   75.4499  219.9953 H   0  0  0  0  0  0  0  0  0  0  0  0
  1  2  2  0
  2  3  1  0
  3  4  2  0
  4  5  1  0
  5  6  2  0
  6  7  1  0
  7  8  1  0
  7  9  2  0
  9 10  1  0
 10 11  2  0
 11 12  1  0
  2 13  1  0
 13 14  1  0
 15 14  1  1
 15 16  1  0
 16 17  1  0
 17 18  1  0
 18 19  1  0
 19 20  1  0
 20 21  1  0
 21 22  1  0
 22 23  1  0
 18 24  1  0
 15 25  1  0
 25 26  2  0
 26 27  1  0
 27 28  2  0
 28 29  1  0
 29 30  2  0
 12  3  1  0
 30 13  1  0
 11  5  1  0
 24 15  1  0
 30 25  1  0
 23 19  1  0
  4 31  1  0
  6 32  1  0
  9 33  1  0
 10 34  1  0
 12 35  1  0
 14 36  1  0
 14 37  1  0
 16 38  1  0
 16 39  1  0
 17 40  1  0
 17 41  1  0
 19 42  1  1
 20 43  1  0
 20 44  1  0
 21 45  1  0
 21 46  1  0
 22 47  1  0
 23 48  1  0
 23 49  1  0
 24 50  1  0
 24 51  1  0
 26 52  1  0
 27 53  1  0
 28 54  1  0
 29 55  1  0
M  END
>  <smiles>  (22) 
O=C(c1cc2cc(F)ccc2[nH]1)N1CC2(CCN(C3CCNC3)C2)c2ccccc21

>  <score_type>  (22) 
oracle

>  <origin>  (22) 
autodockgpu

>  <m_score__min__energy>  (22) 
-8.3800000000000008

>  <m_primary>  (22) 
energy

>  <meeko>  (22) 
{"free_energy": -8.37, "intermolecular_energy": -9.26, "internal_energy": -1.08, "cluster_size": 20, "cluster_id": 1, "rank_in_cluster": 10}

>  <energy>  (22) 
-8.38

>  <cluster_rmsd>  (22) 
0.03

>  <rmsd>  (22) 
271.18

>  <cluster>  (22) 
1

$$$$

     RDKit          3D

 55 60  0  0  1  0  0  0  0  0999 V2000
  139.1210   76.0570  219.9230 O   0  0  0  0  0  0  0  0  0  0  0  0
  139.9740   75.9110  220.8610 C   0  0  0  0  0  0  0  0  0  0  0  0
  140.5420   77.1170  221.4040 C   0  0  0  0  0  0  0  0  0  0  0  0
  140.2540   78.3770  220.8950 C   0  0  0  0  0  0  0  0  0  0  0  0
  140.9370   79.3450  221.6110 C   0  0  0  0  0  0  0  0  0  0  0  0
  140.9960   80.7180  221.5110 C   0  0  0  0  0  0  0  0  0  0  0  0
  141.7870   81.4350  222.3910 C   0  0  0  0  0  0  0  0  0  0  0  0
  141.8160   82.7910  222.2550 F   0  0  0  0  0  0  0  0  0  0  0  0
  142.5120   80.7710  223.3640 C   0  0  0  0  0  0  0  0  0  0  0  0
  142.4360   79.3920  223.4430 C   0  0  0  0  0  0  0  0  0  0  0  0
  141.6430   78.6640  222.5620 C   0  0  0  0  0  0  0  0  0  0  0  0
  141.3890   77.3380  222.4160 N   0  0  0  0  0  0  0  0  0  0  0  0
  140.2690   74.5850  221.2600 N   0  0  0  0  0  0  0  0  0  0  0  0
  139.4300   73.6910  222.0300 C   0  0  0  0  0  0  0  0  0  0  0  0
  140.1860   72.4090  222.0700 C   0  0  2  0  0  0  0  0  0  0  0  0
  139.3580   71.3490  221.3330 C   0  0  0  0  0  0  0  0  0  0  0  0
  138.3860   70.9780  222.4310 C   0  0  0  0  0  0  0  0  0  0  0  0
  139.0910   71.1460  223.6550 N   0  0  0  0  0  0  0  0  0  0  0  0
  139.0840   70.0260  224.5240 C   0  0  2  0  0  0  0  0  0  0  0  0
  140.3010   69.8420  225.3850 C   0  0  0  0  0  0  0  0  0  0  0  0
  140.0070   68.4410  225.9470 C   0  0  0  0  0  0  0  0  0  0  0  0
  139.1940   67.7700  224.9830 N   0  0  0  0  0  0  0  0  0  0  0  0
  139.0040   68.6800  223.8630 C   0  0  0  0  0  0  0  0  0  0  0  0
  140.3210   71.7920  223.4230 C   0  0  0  0  0  0  0  0  0  0  0  0
  141.4740   72.6390  221.3950 C   0  0  0  0  0  0  0  0  0  0  0  0
  142.5300   71.7690  221.2180 C   0  0  0  0  0  0  0  0  0  0  0  0
  143.6740   72.1580  220.5540 C   0  0  0  0  0  0  0  0  0  0  0  0
  143.7240   73.4470  220.0730 C   0  0  0  0  0  0  0  0  0  0  0  0
  142.6580   74.3120  220.2560 C   0  0  0  0  0  0  0  0  0  0  0  0
  141.5010   73.9450  220.9190 C   0  0  0  0  0  0  0  0  0  0  0  0
  139.5818   78.5763  220.0474 H   0  0  0  0  0  0  0  0  0  0  0  0
  140.4173   81.2413  220.7356 H   0  0  0  0  0  0  0  0  0  0  0  0
  143.1426   81.3338  224.0679 H   0  0  0  0  0  0  0  0  0  0  0  0
  143.0125   78.8621  224.2156 H   0  0  0  0  0  0  0  0  0  0  0  0
  141.8200   76.6420  223.0310 H   0  0  0  0  0  0  0  0  0  0  0  0
  139.2751   74.0825  223.0462 H   0  0  0  0  0  0  0  0  0  0  0  0
  138.4300   73.5723  221.5874 H   0  0  0  0  0  0  0  0  0  0  0  0
  138.8441   71.7679  220.4552 H   0  0  0  0  0  0  0  0  0  0  0  0
  139.9363   70.5101  220.9185 H   0  0  0  0  0  0  0  0  0  0  0  0
  137.5074   71.6392  222.4026 H   0  0  0  0  0  0  0  0  0  0  0  0
  138.0229   69.9462  222.3146 H   0  0  0  0  0  0  0  0  0  0  0  0
  138.1820   70.2969  225.0923 H   0  0  0  0  0  0  0  0  0  0  0  0
  141.2283   69.8603  224.7936 H   0  0  0  0  0  0  0  0  0  0  0  0
  140.4616   70.6248  226.1409 H   0  0  0  0  0  0  0  0  0  0  0  0
  140.9465   67.8895  226.0992 H   0  0  0  0  0  0  0  0  0  0  0  0
  139.4944   68.5057  226.9181 H   0  0  0  0  0  0  0  0  0  0  0  0
  139.6200   66.8520  224.6630 H   0  0  0  0  0  0  0  0  0  0  0  0
  139.7982   68.5577  223.1118 H   0  0  0  0  0  0  0  0  0  0  0  0
  138.0640   68.5140  223.3164 H   0  0  0  0  0  0  0  0  0  0  0  0
  140.5008   72.5655  224.1842 H   0  0  0  0  0  0  0  0  0  0  0  0
  141.1698   71.0943  223.4755 H   0  0  0  0  0  0  0  0  0  0  0  0
  142.4579   70.7454  221.6142 H   0  0  0  0  0  0  0  0  0  0  0  0
  144.5158   71.4640  220.4137 H   0  0  0  0  0  0  0  0  0  0  0  0
  144.6202   73.7936  219.5376 H   0  0  0  0  0  0  0  0  0  0  0  0
  142.7348   75.3343  219.8571 H   0  0  0  0  0  0  0  0  0  0  0  0
  1  2  2  0
  2  3  1  0
  3  4  2  0
  4  5  1  0
  5  6  2  0
  6  7  1  0
  7  8  1  0
  7  9  2  0
  9 10  1  0
 10 11  2  0
 11 12  1  0
  2 13  1  0
 13 14  1  0
 15 14  1  1
 15 16  1  0
 16 17  1  0
 17 18  1  0
 18 19  1  0
 19 20  1  0
 20 21  1  0
 21 22  1  0
 22 23  1  0
 18 24  1  0
 15 25  1  0
 25 26  2  0
 26 27  1  0
 27 28  2  0
 28 29  1  0
 29 30  2  0
 12  3  1  0
 30 13  1  0
 11  5  1  0
 24 15  1  0
 30 25  1  0
 23 19  1  0
  4 31  1  0
  6 32  1  0
  9 33  1  0
 10 34  1  0
 12 35  1  0
 14 36  1  0
 14 37  1  0
 16 38  1  0
 16 39  1  0
 17 40  1  0
 17 41  1  0
 19 42  1  1
 20 43  1  0
 20 44  1  0
 21 45  1  0
 21 46  1  0
 22 47  1  0
 23 48  1  0
 23 49  1  0
 24 50  1  0
 24 51  1  0
 26 52  1  0
 27 53  1  0
 28 54  1  0
 29 55  1  0
M  END
>  <smiles>  (23) 
O=C(c1cc2cc(F)ccc2[nH]1)N1CC2(CCN(C3CCNC3)C2)c2ccccc21

>  <score_type>  (23) 
oracle

>  <origin>  (23) 
autodockgpu

>  <m_score__min__energy>  (23) 
-8.3800000000000008

>  <m_primary>  (23) 
energy

>  <meeko>  (23) 
{"free_energy": -8.37, "intermolecular_energy": -9.27, "internal_energy": -1.08, "cluster_size": 20, "cluster_id": 1, "rank_in_cluster": 9}

>  <energy>  (23) 
-8.38

>  <cluster_rmsd>  (23) 
0.03

>  <rmsd>  (23) 
271.18

>  <cluster>  (23) 
1

$$$$

     RDKit          3D

 55 60  0  0  1  0  0  0  0  0999 V2000
  139.1160   76.0780  219.9920 O   0  0  0  0  0  0  0  0  0  0  0  0
  139.9760   75.9290  220.9240 C   0  0  0  0  0  0  0  0  0  0  0  0
  140.5430   77.1340  221.4710 C   0  0  0  0  0  0  0  0  0  0  0  0
  140.2500   78.3950  220.9690 C   0  0  0  0  0  0  0  0  0  0  0  0
  140.9340   79.3610  221.6860 C   0  0  0  0  0  0  0  0  0  0  0  0
  140.9890   80.7350  221.5930 C   0  0  0  0  0  0  0  0  0  0  0  0
  141.7830   81.4500  222.4720 C   0  0  0  0  0  0  0  0  0  0  0  0
  141.8080   82.8070  222.3430 F   0  0  0  0  0  0  0  0  0  0  0  0
  142.5140   80.7830  223.4380 C   0  0  0  0  0  0  0  0  0  0  0  0
  142.4420   79.4030  223.5110 C   0  0  0  0  0  0  0  0  0  0  0  0
  141.6460   78.6780  222.6300 C   0  0  0  0  0  0  0  0  0  0  0  0
  141.3950   77.3520  222.4790 N   0  0  0  0  0  0  0  0  0  0  0  0
  140.2770   74.6020  221.3140 N   0  0  0  0  0  0  0  0  0  0  0  0
  139.4450   73.7010  222.0840 C   0  0  0  0  0  0  0  0  0  0  0  0
  140.2050   72.4210  222.1130 C   0  0  2  0  0  0  0  0  0  0  0  0
  139.3760   71.3630  221.3750 C   0  0  0  0  0  0  0  0  0  0  0  0
  138.4120   70.9820  222.4770 C   0  0  0  0  0  0  0  0  0  0  0  0
  139.1230   71.1450  223.6980 N   0  0  0  0  0  0  0  0  0  0  0  0
  139.1240   70.0210  224.5600 C   0  0  2  0  0  0  0  0  0  0  0  0
  140.3700   69.8040  225.3720 C   0  0  0  0  0  0  0  0  0  0  0  0
  140.0650   68.4070  225.9380 C   0  0  0  0  0  0  0  0  0  0  0  0
  139.2010   67.7610  225.0040 N   0  0  0  0  0  0  0  0  0  0  0  0
  138.9880   68.6810  223.8970 C   0  0  0  0  0  0  0  0  0  0  0  0
  140.3490   71.7970  223.4620 C   0  0  0  0  0  0  0  0  0  0  0  0
  141.4880   72.6590  221.4320 C   0  0  0  0  0  0  0  0  0  0  0  0
  142.5460   71.7920  221.2450 C   0  0  0  0  0  0  0  0  0  0  0  0
  143.6850   72.1890  220.5760 C   0  0  0  0  0  0  0  0  0  0  0  0
  143.7280   73.4810  220.1010 C   0  0  0  0  0  0  0  0  0  0  0  0
  142.6610   74.3410  220.2950 C   0  0  0  0  0  0  0  0  0  0  0  0
  141.5080   73.9670  220.9630 C   0  0  0  0  0  0  0  0  0  0  0  0
  139.5736   78.5965  220.1253 H   0  0  0  0  0  0  0  0  0  0  0  0
  140.4044   81.2607  220.8236 H   0  0  0  0  0  0  0  0  0  0  0  0
  143.1466   81.3440  224.1416 H   0  0  0  0  0  0  0  0  0  0  0  0
  143.0236   78.8706  224.2781 H   0  0  0  0  0  0  0  0  0  0  0  0
  141.8310   76.6540  223.0880 H   0  0  0  0  0  0  0  0  0  0  0  0
  139.2947   74.0866  223.1032 H   0  0  0  0  0  0  0  0  0  0  0  0
  138.4430   73.5815  221.6463 H   0  0  0  0  0  0  0  0  0  0  0  0
  138.8552   71.7855  220.5030 H   0  0  0  0  0  0  0  0  0  0  0  0
  139.9545   70.5286  220.9518 H   0  0  0  0  0  0  0  0  0  0  0  0
  137.5309   71.6402  222.4577 H   0  0  0  0  0  0  0  0  0  0  0  0
  138.0523   69.9495  222.3566 H   0  0  0  0  0  0  0  0  0  0  0  0
  138.2507   70.3092  225.1636 H   0  0  0  0  0  0  0  0  0  0  0  0
  141.2736   69.8042  224.7447 H   0  0  0  0  0  0  0  0  0  0  0  0
  140.5787   70.5785  226.1247 H   0  0  0  0  0  0  0  0  0  0  0  0
  140.9965   67.8331  226.0512 H   0  0  0  0  0  0  0  0  0  0  0  0
  139.5915   68.4781  226.9283 H   0  0  0  0  0  0  0  0  0  0  0  0
  139.5930   66.8350  224.6620 H   0  0  0  0  0  0  0  0  0  0  0  0
  139.7492   68.5451  223.1147 H   0  0  0  0  0  0  0  0  0  0  0  0
  138.0237   68.5390  223.3871 H   0  0  0  0  0  0  0  0  0  0  0  0
  140.5301   72.5671  224.2263 H   0  0  0  0  0  0  0  0  0  0  0  0
  141.2004   71.1018  223.5055 H   0  0  0  0  0  0  0  0  0  0  0  0
  142.4794   70.7662  221.6365 H   0  0  0  0  0  0  0  0  0  0  0  0
  144.5284   71.4987  220.4273 H   0  0  0  0  0  0  0  0  0  0  0  0
  144.6197   73.8332  219.5617 H   0  0  0  0  0  0  0  0  0  0  0  0
  142.7325   75.3657  219.9014 H   0  0  0  0  0  0  0  0  0  0  0  0
  1  2  2  0
  2  3  1  0
  3  4  2  0
  4  5  1  0
  5  6  2  0
  6  7  1  0
  7  8  1  0
  7  9  2  0
  9 10  1  0
 10 11  2  0
 11 12  1  0
  2 13  1  0
 13 14  1  0
 15 14  1  1
 15 16  1  0
 16 17  1  0
 17 18  1  0
 18 19  1  0
 19 20  1  0
 20 21  1  0
 21 22  1  0
 22 23  1  0
 18 24  1  0
 15 25  1  0
 25 26  2  0
 26 27  1  0
 27 28  2  0
 28 29  1  0
 29 30  2  0
 12  3  1  0
 30 13  1  0
 11  5  1  0
 24 15  1  0
 30 25  1  0
 23 19  1  0
  4 31  1  0
  6 32  1  0
  9 33  1  0
 10 34  1  0
 12 35  1  0
 14 36  1  0
 14 37  1  0
 16 38  1  0
 16 39  1  0
 17 40  1  0
 17 41  1  0
 19 42  1  1
 20 43  1  0
 20 44  1  0
 21 45  1  0
 21 46  1  0
 22 47  1  0
 23 48  1  0
 23 49  1  0
 24 50  1  0
 24 51  1  0
 26 52  1  0
 27 53  1  0
 28 54  1  0
 29 55  1  0
M  END
>  <smiles>  (24) 
O=C(c1cc2cc(F)ccc2[nH]1)N1CC2(CCN(C3CCNC3)C2)c2ccccc21

>  <score_type>  (24) 
oracle

>  <origin>  (24) 
autodockgpu

>  <m_score__min__energy>  (24) 
-8.3800000000000008

>  <m_primary>  (24) 
energy

>  <meeko>  (24) 
{"free_energy": -8.38, "intermolecular_energy": -9.27, "internal_energy": -1.08, "cluster_size": 20, "cluster_id": 1, "rank_in_cluster": 1}

>  <energy>  (24) 
-8.37

>  <cluster_rmsd>  (24) 
0.08

>  <rmsd>  (24) 
271.21

>  <cluster>  (24) 
1

$$$$

     RDKit          3D

 55 60  0  0  1  0  0  0  0  0999 V2000
  138.8640   75.9160  219.8820 O   0  0  0  0  0  0  0  0  0  0  0  0
  139.7890   75.8250  220.7580 C   0  0  0  0  0  0  0  0  0  0  0  0
  140.3760   77.0620  221.2000 C   0  0  0  0  0  0  0  0  0  0  0  0
  140.8670   77.2410  222.4870 C   0  0  0  0  0  0  0  0  0  0  0  0
  141.3700   78.5220  222.6280 C   0  0  0  0  0  0  0  0  0  0  0  0
  141.9570   79.1890  223.6820 C   0  0  0  0  0  0  0  0  0  0  0  0
  142.3700   80.4990  223.5200 C   0  0  0  0  0  0  0  0  0  0  0  0
  142.9450   81.1200  224.5890 F   0  0  0  0  0  0  0  0  0  0  0  0
  142.1920   81.1310  222.3020 C   0  0  0  0  0  0  0  0  0  0  0  0
  141.6000   80.4410  221.2600 C   0  0  0  0  0  0  0  0  0  0  0  0
  141.1820   79.1240  221.4160 C   0  0  0  0  0  0  0  0  0  0  0  0
  140.5870   78.2310  220.5830 N   0  0  0  0  0  0  0  0  0  0  0  0
  140.1340   74.5230  221.1930 N   0  0  0  0  0  0  0  0  0  0  0  0
  139.3320   73.6200  221.9920 C   0  0  0  0  0  0  0  0  0  0  0  0
  140.1350   72.3700  222.0660 C   0  0  2  0  0  0  0  0  0  0  0  0
  139.3470   71.2580  221.3630 C   0  0  0  0  0  0  0  0  0  0  0  0
  138.3920   70.8830  222.4750 C   0  0  0  0  0  0  0  0  0  0  0  0
  139.0930   71.1120  223.6910 N   0  0  0  0  0  0  0  0  0  0  0  0
  139.1300   70.0190  224.5920 C   0  0  2  0  0  0  0  0  0  0  0  0
  140.4170   69.8130  225.3390 C   0  0  0  0  0  0  0  0  0  0  0  0
  140.1290   68.4400  225.9710 C   0  0  0  0  0  0  0  0  0  0  0  0
  139.2050   67.7740  225.1100 N   0  0  0  0  0  0  0  0  0  0  0  0
  138.9400   68.6580  223.9850 C   0  0  0  0  0  0  0  0  0  0  0  0
  140.2970   71.7970  223.4370 C   0  0  0  0  0  0  0  0  0  0  0  0
  141.4120   72.6290  221.3800 C   0  0  0  0  0  0  0  0  0  0  0  0
  142.5000   71.7940  221.2260 C   0  0  0  0  0  0  0  0  0  0  0  0
  143.6270   72.2070  220.5470 C   0  0  0  0  0  0  0  0  0  0  0  0
  143.6270   73.4830  220.0280 C   0  0  0  0  0  0  0  0  0  0  0  0
  142.5300   74.3110  220.1900 C   0  0  0  0  0  0  0  0  0  0  0  0
  141.3880   73.9200  220.8680 C   0  0  0  0  0  0  0  0  0  0  0  0
  140.8573   76.4765  223.2779 H   0  0  0  0  0  0  0  0  0  0  0  0
  142.0964   78.6814  224.6479 H   0  0  0  0  0  0  0  0  0  0  0  0
  142.5183   82.1724  222.1639 H   0  0  0  0  0  0  0  0  0  0  0  0
  141.4574   80.9424  220.2914 H   0  0  0  0  0  0  0  0  0  0  0  0
  140.3530   78.4770  219.6180 H   0  0  0  0  0  0  0  0  0  0  0  0
  139.1655   74.0346  222.9972 H   0  0  0  0  0  0  0  0  0  0  0  0
  138.3360   73.4507  221.5568 H   0  0  0  0  0  0  0  0  0  0  0  0
  138.8158   71.6308  220.4748 H   0  0  0  0  0  0  0  0  0  0  0  0
  139.9561   70.4299  220.9714 H   0  0  0  0  0  0  0  0  0  0  0  0
  137.4894   71.5102  222.4308 H   0  0  0  0  0  0  0  0  0  0  0  0
  138.0672   69.8355  222.3896 H   0  0  0  0  0  0  0  0  0  0  0  0
  138.2968   70.3405  225.2342 H   0  0  0  0  0  0  0  0  0  0  0  0
  141.2832   69.7791  224.6619 H   0  0  0  0  0  0  0  0  0  0  0  0
  140.6770   70.6101  226.0510 H   0  0  0  0  0  0  0  0  0  0  0  0
  141.0588   67.8577  226.0512 H   0  0  0  0  0  0  0  0  0  0  0  0
  139.7143   68.5514  226.9837 H   0  0  0  0  0  0  0  0  0  0  0  0
  139.5660   66.8310  224.7800 H   0  0  0  0  0  0  0  0  0  0  0  0
  139.6535   68.4845  223.1660 H   0  0  0  0  0  0  0  0  0  0  0  0
  137.9465   68.5120  223.5360 H   0  0  0  0  0  0  0  0  0  0  0  0
  140.4490   72.5982  224.1753 H   0  0  0  0  0  0  0  0  0  0  0  0
  141.1719   71.1339  223.5067 H   0  0  0  0  0  0  0  0  0  0  0  0
  142.4676   70.7806  221.6526 H   0  0  0  0  0  0  0  0  0  0  0  0
  144.4944   71.5417  220.4243 H   0  0  0  0  0  0  0  0  0  0  0  0
  144.5079   73.8475  219.4792 H   0  0  0  0  0  0  0  0  0  0  0  0
  142.5670   75.3235  219.7616 H   0  0  0  0  0  0  0  0  0  0  0  0
  1  2  2  0
  2  3  1  0
  3  4  2  0
  4  5  1  0
  5  6  2  0
  6  7  1  0
  7  8  1  0
  7  9  2  0
  9 10  1  0
 10 11  2  0
 11 12  1  0
  2 13  1  0
 13 14  1  0
 15 14  1  1
 15 16  1  0
 16 17  1  0
 17 18  1  0
 18 19  1  0
 19 20  1  0
 20 21  1  0
 21 22  1  0
 22 23  1  0
 18 24  1  0
 15 25  1  0
 25 26  2  0
 26 27  1  0
 27 28  2  0
 28 29  1  0
 29 30  2  0
 12  3  1  0
 30 13  1  0
 11  5  1  0
 24 15  1  0
 30 25  1  0
 23 19  1  0
  4 31  1  0
  6 32  1  0
  9 33  1  0
 10 34  1  0
 12 35  1  0
 14 36  1  0
 14 37  1  0
 16 38  1  0
 16 39  1  0
 17 40  1  0
 17 41  1  0
 19 42  1  1
 20 43  1  0
 20 44  1  0
 21 45  1  0
 21 46  1  0
 22 47  1  0
 23 48  1  0
 23 49  1  0
 24 50  1  0
 24 51  1  0
 26 52  1  0
 27 53  1  0
 28 54  1  0
 29 55  1  0
M  END
>  <smiles>  (25) 
O=C(c1cc2cc(F)ccc2[nH]1)N1CC2(CCN(C3CCNC3)C2)c2ccccc21

>  <score_type>  (25) 
oracle

>  <origin>  (25) 
autodockgpu

>  <m_score__min__energy>  (25) 
-8.3800000000000008

>  <m_primary>  (25) 
energy

>  <meeko>  (25) 
{"free_energy": -8.19, "intermolecular_energy": -9.09, "internal_energy": -1.18, "cluster_size": 20, "cluster_id": 1, "rank_in_cluster": 18}

>  <energy>  (25) 
-8.37

>  <cluster_rmsd>  (25) 
0.04

>  <rmsd>  (25) 
271.18

>  <cluster>  (25) 
1

$$$$

     RDKit          3D

 55 60  0  0  1  0  0  0  0  0999 V2000
  139.0460   76.0620  220.0160 O   0  0  0  0  0  0  0  0  0  0  0  0
  139.9220   75.9170  220.9340 C   0  0  0  0  0  0  0  0  0  0  0  0
  140.4940   77.1230  221.4700 C   0  0  0  0  0  0  0  0  0  0  0  0
  140.1810   78.3840  220.9800 C   0  0  0  0  0  0  0  0  0  0  0  0
  140.8760   79.3520  221.6830 C   0  0  0  0  0  0  0  0  0  0  0  0
  140.9210   80.7270  221.5920 C   0  0  0  0  0  0  0  0  0  0  0  0
  141.7310   81.4440  222.4540 C   0  0  0  0  0  0  0  0  0  0  0  0
  141.7450   82.8020  222.3290 F   0  0  0  0  0  0  0  0  0  0  0  0
  142.4910   80.7790  223.3990 C   0  0  0  0  0  0  0  0  0  0  0  0
  142.4300   79.3980  223.4690 C   0  0  0  0  0  0  0  0  0  0  0  0
  141.6170   78.6710  222.6070 C   0  0  0  0  0  0  0  0  0  0  0  0
  141.3700   77.3430  222.4580 N   0  0  0  0  0  0  0  0  0  0  0  0
  140.2320   74.5900  221.3200 N   0  0  0  0  0  0  0  0  0  0  0  0
  139.4090   73.6820  222.0900 C   0  0  0  0  0  0  0  0  0  0  0  0
  140.1770   72.4070  222.1140 C   0  0  2  0  0  0  0  0  0  0  0  0
  139.3530   71.3450  221.3760 C   0  0  0  0  0  0  0  0  0  0  0  0
  138.3940   70.9560  222.4800 C   0  0  0  0  0  0  0  0  0  0  0  0
  139.1070   71.1220  223.7000 N   0  0  0  0  0  0  0  0  0  0  0  0
  139.1180   69.9960  224.5600 C   0  0  2  0  0  0  0  0  0  0  0  0
  140.3720   69.7780  225.3590 C   0  0  0  0  0  0  0  0  0  0  0  0
  140.0740   68.3790  225.9250 C   0  0  0  0  0  0  0  0  0  0  0  0
  139.2010   67.7340  224.9980 N   0  0  0  0  0  0  0  0  0  0  0  0
  138.9760   68.6560  223.8940 C   0  0  0  0  0  0  0  0  0  0  0  0
  140.3290   71.7810  223.4620 C   0  0  0  0  0  0  0  0  0  0  0  0
  141.4570   72.6550  221.4310 C   0  0  0  0  0  0  0  0  0  0  0  0
  142.5200   71.7960  221.2390 C   0  0  0  0  0  0  0  0  0  0  0  0
  143.6540   72.2020  220.5690 C   0  0  0  0  0  0  0  0  0  0  0  0
  143.6880   73.4940  220.0960 C   0  0  0  0  0  0  0  0  0  0  0  0
  142.6160   74.3470  220.2950 C   0  0  0  0  0  0  0  0  0  0  0  0
  141.4670   73.9640  220.9650 C   0  0  0  0  0  0  0  0  0  0  0  0
  139.4828   78.5840  220.1539 H   0  0  0  0  0  0  0  0  0  0  0  0
  140.3158   81.2512  220.8377 H   0  0  0  0  0  0  0  0  0  0  0  0
  143.1375   81.3421  224.0882 H   0  0  0  0  0  0  0  0  0  0  0  0
  143.0347   78.8671  224.2190 H   0  0  0  0  0  0  0  0  0  0  0  0
  141.8260   76.6470  223.0530 H   0  0  0  0  0  0  0  0  0  0  0  0
  139.2592   74.0643  223.1105 H   0  0  0  0  0  0  0  0  0  0  0  0
  138.4066   73.5568  221.6547 H   0  0  0  0  0  0  0  0  0  0  0  0
  138.8274   71.7657  220.5061 H   0  0  0  0  0  0  0  0  0  0  0  0
  139.9357   70.5150  220.9498 H   0  0  0  0  0  0  0  0  0  0  0  0
  137.5085   71.6084  222.4637 H   0  0  0  0  0  0  0  0  0  0  0  0
  138.0409   69.9213  222.3590 H   0  0  0  0  0  0  0  0  0  0  0  0
  138.2512   70.2823  225.1737 H   0  0  0  0  0  0  0  0  0  0  0  0
  141.2693   69.7804  224.7227 H   0  0  0  0  0  0  0  0  0  0  0  0
  140.5874   70.5509  226.1115 H   0  0  0  0  0  0  0  0  0  0  0  0
  141.0072   67.8057  226.0275 H   0  0  0  0  0  0  0  0  0  0  0  0
  139.6105   68.4474  226.9202 H   0  0  0  0  0  0  0  0  0  0  0  0
  139.5910   66.8090  224.6500 H   0  0  0  0  0  0  0  0  0  0  0  0
  139.7294   68.5223  223.1038 H   0  0  0  0  0  0  0  0  0  0  0  0
  138.0071   68.5142  223.3929 H   0  0  0  0  0  0  0  0  0  0  0  0
  140.5083   72.5506  224.2273 H   0  0  0  0  0  0  0  0  0  0  0  0
  141.1844   71.0906  223.5019 H   0  0  0  0  0  0  0  0  0  0  0  0
  142.4612   70.7687  221.6277 H   0  0  0  0  0  0  0  0  0  0  0  0
  144.5018   71.5177  220.4177 H   0  0  0  0  0  0  0  0  0  0  0  0
  144.5758   73.8524  219.5544 H   0  0  0  0  0  0  0  0  0  0  0  0
  142.6801   75.3731  219.9039 H   0  0  0  0  0  0  0  0  0  0  0  0
  1  2  2  0
  2  3  1  0
  3  4  2  0
  4  5  1  0
  5  6  2  0
  6  7  1  0
  7  8  1  0
  7  9  2  0
  9 10  1  0
 10 11  2  0
 11 12  1  0
  2 13  1  0
 13 14  1  0
 15 14  1  1
 15 16  1  0
 16 17  1  0
 17 18  1  0
 18 19  1  0
 19 20  1  0
 20 21  1  0
 21 22  1  0
 22 23  1  0
 18 24  1  0
 15 25  1  0
 25 26  2  0
 26 27  1  0
 27 28  2  0
 28 29  1  0
 29 30  2  0
 12  3  1  0
 30 13  1  0
 11  5  1  0
 24 15  1  0
 30 25  1  0
 23 19  1  0
  4 31  1  0
  6 32  1  0
  9 33  1  0
 10 34  1  0
 12 35  1  0
 14 36  1  0
 14 37  1  0
 16 38  1  0
 16 39  1  0
 17 40  1  0
 17 41  1  0
 19 42  1  1
 20 43  1  0
 20 44  1  0
 21 45  1  0
 21 46  1  0
 22 47  1  0
 23 48  1  0
 23 49  1  0
 24 50  1  0
 24 51  1  0
 26 52  1  0
 27 53  1  0
 28 54  1  0
 29 55  1  0
M  END
>  <smiles>  (26) 
O=C(c1cc2cc(F)ccc2[nH]1)N1CC2(CCN(C3CCNC3)C2)c2ccccc21

>  <score_type>  (26) 
oracle

>  <origin>  (26) 
autodockgpu

>  <m_score__min__energy>  (26) 
-8.3800000000000008

>  <m_primary>  (26) 
energy

>  <meeko>  (26) 
{"free_energy": -8.37, "intermolecular_energy": -9.27, "internal_energy": -1.08, "cluster_size": 20, "cluster_id": 1, "rank_in_cluster": 5}

>  <energy>  (26) 
-8.37

>  <cluster_rmsd>  (26) 
0.04

>  <rmsd>  (26) 
271.17

>  <cluster>  (26) 
1

$$$$

     RDKit          3D

 55 60  0  0  1  0  0  0  0  0999 V2000
  138.9420   76.1070  220.1310 O   0  0  0  0  0  0  0  0  0  0  0  0
  139.8560   75.9590  221.0100 C   0  0  0  0  0  0  0  0  0  0  0  0
  140.4590   77.1640  221.5170 C   0  0  0  0  0  0  0  0  0  0  0  0
  140.1460   78.4240  221.0230 C   0  0  0  0  0  0  0  0  0  0  0  0
  140.8730   79.3900  221.6950 C   0  0  0  0  0  0  0  0  0  0  0  0
  140.9310   80.7640  221.5890 C   0  0  0  0  0  0  0  0  0  0  0  0
  141.7740   81.4790  222.4190 C   0  0  0  0  0  0  0  0  0  0  0  0
  141.8000   82.8350  222.2800 F   0  0  0  0  0  0  0  0  0  0  0  0
  142.5540   80.8140  223.3490 C   0  0  0  0  0  0  0  0  0  0  0  0
  142.4780   79.4360  223.4360 C   0  0  0  0  0  0  0  0  0  0  0  0
  141.6320   78.7090  222.6040 C   0  0  0  0  0  0  0  0  0  0  0  0
  141.3660   77.3840  222.4760 N   0  0  0  0  0  0  0  0  0  0  0  0
  140.1770   74.6320  221.3860 N   0  0  0  0  0  0  0  0  0  0  0  0
  139.3640   73.7160  222.1580 C   0  0  0  0  0  0  0  0  0  0  0  0
  140.1390   72.4450  222.1680 C   0  0  2  0  0  0  0  0  0  0  0  0
  139.3140   71.3830  221.4310 C   0  0  0  0  0  0  0  0  0  0  0  0
  138.3660   70.9830  222.5400 C   0  0  0  0  0  0  0  0  0  0  0  0
  139.0900   71.1440  223.7550 N   0  0  0  0  0  0  0  0  0  0  0  0
  139.1130   70.0130  224.6080 C   0  0  2  0  0  0  0  0  0  0  0  0
  140.3810   69.7870  225.3810 C   0  0  0  0  0  0  0  0  0  0  0  0
  140.0900   68.3860  225.9450 C   0  0  0  0  0  0  0  0  0  0  0  0
  139.1960   67.7500  225.0320 N   0  0  0  0  0  0  0  0  0  0  0  0
  138.9540   68.6790  223.9380 C   0  0  0  0  0  0  0  0  0  0  0  0
  140.3050   71.8110  223.5110 C   0  0  0  0  0  0  0  0  0  0  0  0
  141.4120   72.7030  221.4750 C   0  0  0  0  0  0  0  0  0  0  0  0
  142.4770   71.8500  221.2690 C   0  0  0  0  0  0  0  0  0  0  0  0
  143.6040   72.2650  220.5920 C   0  0  0  0  0  0  0  0  0  0  0  0
  143.6270   73.5610  220.1270 C   0  0  0  0  0  0  0  0  0  0  0  0
  142.5520   74.4070  220.3390 C   0  0  0  0  0  0  0  0  0  0  0  0
  141.4120   74.0140  221.0170 C   0  0  0  0  0  0  0  0  0  0  0  0
  139.4258   78.6242  220.2160 H   0  0  0  0  0  0  0  0  0  0  0  0
  140.3097   81.2881  220.8479 H   0  0  0  0  0  0  0  0  0  0  0  0
  143.2278   81.3761  224.0124 H   0  0  0  0  0  0  0  0  0  0  0  0
  143.0965   78.9057  224.1751 H   0  0  0  0  0  0  0  0  0  0  0  0
  141.8300   76.6870  223.0650 H   0  0  0  0  0  0  0  0  0  0  0  0
  139.2208   74.0919  223.1818 H   0  0  0  0  0  0  0  0  0  0  0  0
  138.3583   73.5886  221.7310 H   0  0  0  0  0  0  0  0  0  0  0  0
  138.7793   71.8059  220.5677 H   0  0  0  0  0  0  0  0  0  0  0  0
  139.8973   70.5582  220.9957 H   0  0  0  0  0  0  0  0  0  0  0  0
  137.4779   71.6321  222.5358 H   0  0  0  0  0  0  0  0  0  0  0  0
  138.0152   69.9479  222.4152 H   0  0  0  0  0  0  0  0  0  0  0  0
  138.2587   70.2979  225.2396 H   0  0  0  0  0  0  0  0  0  0  0  0
  141.2658   69.7903  224.7275 H   0  0  0  0  0  0  0  0  0  0  0  0
  140.6132   70.5551  226.1334 H   0  0  0  0  0  0  0  0  0  0  0  0
  141.0231   67.8089  226.0250 H   0  0  0  0  0  0  0  0  0  0  0  0
  139.6475   68.4498  226.9500 H   0  0  0  0  0  0  0  0  0  0  0  0
  139.5760   66.8250  224.6720 H   0  0  0  0  0  0  0  0  0  0  0  0
  139.6921   68.5472  223.1332 H   0  0  0  0  0  0  0  0  0  0  0  0
  137.9754   68.5436  223.4543 H   0  0  0  0  0  0  0  0  0  0  0  0
  140.4862   72.5767  224.2797 H   0  0  0  0  0  0  0  0  0  0  0  0
  141.1643   71.1249  223.5392 H   0  0  0  0  0  0  0  0  0  0  0  0
  142.4258   70.8201  221.6520 H   0  0  0  0  0  0  0  0  0  0  0  0
  144.4538   71.5857  220.4292 H   0  0  0  0  0  0  0  0  0  0  0  0
  144.5089   73.9278  219.5814 H   0  0  0  0  0  0  0  0  0  0  0  0
  142.6066   75.4352  219.9520 H   0  0  0  0  0  0  0  0  0  0  0  0
  1  2  2  0
  2  3  1  0
  3  4  2  0
  4  5  1  0
  5  6  2  0
  6  7  1  0
  7  8  1  0
  7  9  2  0
  9 10  1  0
 10 11  2  0
 11 12  1  0
  2 13  1  0
 13 14  1  0
 15 14  1  1
 15 16  1  0
 16 17  1  0
 17 18  1  0
 18 19  1  0
 19 20  1  0
 20 21  1  0
 21 22  1  0
 22 23  1  0
 18 24  1  0
 15 25  1  0
 25 26  2  0
 26 27  1  0
 27 28  2  0
 28 29  1  0
 29 30  2  0
 12  3  1  0
 30 13  1  0
 11  5  1  0
 24 15  1  0
 30 25  1  0
 23 19  1  0
  4 31  1  0
  6 32  1  0
  9 33  1  0
 10 34  1  0
 12 35  1  0
 14 36  1  0
 14 37  1  0
 16 38  1  0
 16 39  1  0
 17 40  1  0
 17 41  1  0
 19 42  1  1
 20 43  1  0
 20 44  1  0
 21 45  1  0
 21 46  1  0
 22 47  1  0
 23 48  1  0
 23 49  1  0
 24 50  1  0
 24 51  1  0
 26 52  1  0
 27 53  1  0
 28 54  1  0
 29 55  1  0
M  END
>  <smiles>  (27) 
O=C(c1cc2cc(F)ccc2[nH]1)N1CC2(CCN(C3CCNC3)C2)c2ccccc21

>  <score_type>  (27) 
oracle

>  <origin>  (27) 
autodockgpu

>  <m_score__min__energy>  (27) 
-8.3800000000000008

>  <m_primary>  (27) 
energy

>  <meeko>  (27) 
{"free_energy": -8.36, "intermolecular_energy": -9.26, "internal_energy": -1.08, "cluster_size": 20, "cluster_id": 1, "rank_in_cluster": 11}

>  <energy>  (27) 
-8.37

>  <cluster_rmsd>  (27) 
0.05

>  <rmsd>  (27) 
271.19

>  <cluster>  (27) 
1

$$$$

     RDKit          3D

 55 60  0  0  1  0  0  0  0  0999 V2000
  138.8820   75.9430  219.8710 O   0  0  0  0  0  0  0  0  0  0  0  0
  139.8030   75.8520  220.7510 C   0  0  0  0  0  0  0  0  0  0  0  0
  140.3870   77.0890  221.1970 C   0  0  0  0  0  0  0  0  0  0  0  0
  140.8710   77.2680  222.4870 C   0  0  0  0  0  0  0  0  0  0  0  0
  141.3740   78.5490  222.6310 C   0  0  0  0  0  0  0  0  0  0  0  0
  141.9550   79.2150  223.6890 C   0  0  0  0  0  0  0  0  0  0  0  0
  142.3690   80.5250  223.5290 C   0  0  0  0  0  0  0  0  0  0  0  0
  142.9370   81.1460  224.6010 F   0  0  0  0  0  0  0  0  0  0  0  0
  142.1980   81.1580  222.3100 C   0  0  0  0  0  0  0  0  0  0  0  0
  141.6120   80.4680  221.2640 C   0  0  0  0  0  0  0  0  0  0  0  0
  141.1930   79.1500  221.4180 C   0  0  0  0  0  0  0  0  0  0  0  0
  140.6030   78.2580  220.5820 N   0  0  0  0  0  0  0  0  0  0  0  0
  140.1470   74.5500  221.1870 N   0  0  0  0  0  0  0  0  0  0  0  0
  139.3410   73.6460  221.9800 C   0  0  0  0  0  0  0  0  0  0  0  0
  140.1440   72.3960  222.0580 C   0  0  2  0  0  0  0  0  0  0  0  0
  139.3600   71.2850  221.3490 C   0  0  0  0  0  0  0  0  0  0  0  0
  138.4000   70.9070  222.4560 C   0  0  0  0  0  0  0  0  0  0  0  0
  139.0940   71.1360  223.6760 N   0  0  0  0  0  0  0  0  0  0  0  0
  139.1270   70.0420  224.5760 C   0  0  2  0  0  0  0  0  0  0  0  0
  140.4110   69.8350  225.3290 C   0  0  0  0  0  0  0  0  0  0  0  0
  140.1200   68.4620  225.9580 C   0  0  0  0  0  0  0  0  0  0  0  0
  139.1990   67.7970  225.0930 N   0  0  0  0  0  0  0  0  0  0  0  0
  138.9400   68.6820  223.9670 C   0  0  0  0  0  0  0  0  0  0  0  0
  140.2990   71.8220  223.4290 C   0  0  0  0  0  0  0  0  0  0  0  0
  141.4250   72.6560  221.3790 C   0  0  0  0  0  0  0  0  0  0  0  0
  142.5140   71.8220  221.2290 C   0  0  0  0  0  0  0  0  0  0  0  0
  143.6440   72.2360  220.5570 C   0  0  0  0  0  0  0  0  0  0  0  0
  143.6460   73.5120  220.0390 C   0  0  0  0  0  0  0  0  0  0  0  0
  142.5480   74.3400  220.1960 C   0  0  0  0  0  0  0  0  0  0  0  0
  141.4030   73.9480  220.8680 C   0  0  0  0  0  0  0  0  0  0  0  0
  140.8565   76.5035  223.2778 H   0  0  0  0  0  0  0  0  0  0  0  0
  142.0887   78.7071  224.6555 H   0  0  0  0  0  0  0  0  0  0  0  0
  142.5249   82.1995  222.1743 H   0  0  0  0  0  0  0  0  0  0  0  0
  141.4750   80.9694  220.2946 H   0  0  0  0  0  0  0  0  0  0  0  0
  140.3740   78.5040  219.6150 H   0  0  0  0  0  0  0  0  0  0  0  0
  139.1682   74.0597  222.9845 H   0  0  0  0  0  0  0  0  0  0  0  0
  138.3479   73.4765  221.5383 H   0  0  0  0  0  0  0  0  0  0  0  0
  138.8326   71.6593  220.4592 H   0  0  0  0  0  0  0  0  0  0  0  0
  139.9714   70.4582  220.9584 H   0  0  0  0  0  0  0  0  0  0  0  0
  137.4964   71.5325  222.4077 H   0  0  0  0  0  0  0  0  0  0  0  0
  138.0779   69.8589  222.3678 H   0  0  0  0  0  0  0  0  0  0  0  0
  138.2908   70.3630  225.2146 H   0  0  0  0  0  0  0  0  0  0  0  0
  141.2803   69.8017  224.6558 H   0  0  0  0  0  0  0  0  0  0  0  0
  140.6679   70.6314  226.0430 H   0  0  0  0  0  0  0  0  0  0  0  0
  141.0493   67.8793  226.0411 H   0  0  0  0  0  0  0  0  0  0  0  0
  139.7012   68.5726  226.9691 H   0  0  0  0  0  0  0  0  0  0  0  0
  139.5620   66.8540  224.7630 H   0  0  0  0  0  0  0  0  0  0  0  0
  139.6578   68.5090  223.1516 H   0  0  0  0  0  0  0  0  0  0  0  0
  137.9489   68.5365  223.5125 H   0  0  0  0  0  0  0  0  0  0  0  0
  140.4466   72.6226  224.1688 H   0  0  0  0  0  0  0  0  0  0  0  0
  141.1739   71.1594  223.5027 H   0  0  0  0  0  0  0  0  0  0  0  0
  142.4797   70.8078  221.6536 H   0  0  0  0  0  0  0  0  0  0  0  0
  144.5125   71.5714  220.4388 H   0  0  0  0  0  0  0  0  0  0  0  0
  144.5295   73.8770  219.4947 H   0  0  0  0  0  0  0  0  0  0  0  0
  142.5869   75.3528  219.7685 H   0  0  0  0  0  0  0  0  0  0  0  0
  1  2  2  0
  2  3  1  0
  3  4  2  0
  4  5  1  0
  5  6  2  0
  6  7  1  0
  7  8  1  0
  7  9  2  0
  9 10  1  0
 10 11  2  0
 11 12  1  0
  2 13  1  0
 13 14  1  0
 15 14  1  1
 15 16  1  0
 16 17  1  0
 17 18  1  0
 18 19  1  0
 19 20  1  0
 20 21  1  0
 21 22  1  0
 22 23  1  0
 18 24  1  0
 15 25  1  0
 25 26  2  0
 26 27  1  0
 27 28  2  0
 28 29  1  0
 29 30  2  0
 12  3  1  0
 30 13  1  0
 11  5  1  0
 24 15  1  0
 30 25  1  0
 23 19  1  0
  4 31  1  0
  6 32  1  0
  9 33  1  0
 10 34  1  0
 12 35  1  0
 14 36  1  0
 14 37  1  0
 16 38  1  0
 16 39  1  0
 17 40  1  0
 17 41  1  0
 19 42  1  1
 20 43  1  0
 20 44  1  0
 21 45  1  0
 21 46  1  0
 22 47  1  0
 23 48  1  0
 23 49  1  0
 24 50  1  0
 24 51  1  0
 26 52  1  0
 27 53  1  0
 28 54  1  0
 29 55  1  0
M  END
>  <smiles>  (28) 
O=C(c1cc2cc(F)ccc2[nH]1)N1CC2(CCN(C3CCNC3)C2)c2ccccc21

>  <score_type>  (28) 
oracle

>  <origin>  (28) 
autodockgpu

>  <m_score__min__energy>  (28) 
-8.3800000000000008

>  <m_primary>  (28) 
energy

>  <meeko>  (28) 
{"free_energy": -8.2, "intermolecular_energy": -9.09, "internal_energy": -1.18, "cluster_size": 20, "cluster_id": 1, "rank_in_cluster": 17}

>  <energy>  (28) 
-8.37

>  <cluster_rmsd>  (28) 
0.06

>  <rmsd>  (28) 
271.2

>  <cluster>  (28) 
1

$$$$

     RDKit          3D

 55 60  0  0  1  0  0  0  0  0999 V2000
  138.8250   76.0850  220.3080 O   0  0  0  0  0  0  0  0  0  0  0  0
  139.7730   75.9360  221.1500 C   0  0  0  0  0  0  0  0  0  0  0  0
  140.3960   77.1400  221.6340 C   0  0  0  0  0  0  0  0  0  0  0  0
  140.0690   78.4000  221.1490 C   0  0  0  0  0  0  0  0  0  0  0  0
  140.8220   79.3650  221.7940 C   0  0  0  0  0  0  0  0  0  0  0  0
  140.8800   80.7380  221.6850 C   0  0  0  0  0  0  0  0  0  0  0  0
  141.7540   81.4530  222.4830 C   0  0  0  0  0  0  0  0  0  0  0  0
  141.7780   82.8090  222.3420 F   0  0  0  0  0  0  0  0  0  0  0  0
  142.5640   80.7870  223.3860 C   0  0  0  0  0  0  0  0  0  0  0  0
  142.4880   79.4090  223.4770 C   0  0  0  0  0  0  0  0  0  0  0  0
  141.6110   78.6830  222.6770 C   0  0  0  0  0  0  0  0  0  0  0  0
  141.3370   77.3580  222.5600 N   0  0  0  0  0  0  0  0  0  0  0  0
  140.1060   74.6090  221.5120 N   0  0  0  0  0  0  0  0  0  0  0  0
  139.3150   73.6850  222.2980 C   0  0  0  0  0  0  0  0  0  0  0  0
  140.0940   72.4170  222.2840 C   0  0  2  0  0  0  0  0  0  0  0  0
  139.2570   71.3560  221.5610 C   0  0  0  0  0  0  0  0  0  0  0  0
  138.3360   70.9470  222.6890 C   0  0  0  0  0  0  0  0  0  0  0  0
  139.0860   71.1050  223.8880 N   0  0  0  0  0  0  0  0  0  0  0  0
  139.1330   69.9700  224.7350 C   0  0  2  0  0  0  0  0  0  0  0  0
  140.4300   69.7270  225.4530 C   0  0  0  0  0  0  0  0  0  0  0  0
  140.1480   68.3270  226.0230 C   0  0  0  0  0  0  0  0  0  0  0  0
  139.2100   67.7040  225.1450 N   0  0  0  0  0  0  0  0  0  0  0  0
  138.9310   68.6400  224.0670 C   0  0  0  0  0  0  0  0  0  0  0  0
  140.2940   71.7780  223.6200 C   0  0  0  0  0  0  0  0  0  0  0  0
  141.3500   72.6830  221.5630 C   0  0  0  0  0  0  0  0  0  0  0  0
  142.4140   71.8350  221.3290 C   0  0  0  0  0  0  0  0  0  0  0  0
  143.5230   72.2580  220.6280 C   0  0  0  0  0  0  0  0  0  0  0  0
  143.5310   73.5560  220.1680 C   0  0  0  0  0  0  0  0  0  0  0  0
  142.4580   74.3970  220.4100 C   0  0  0  0  0  0  0  0  0  0  0  0
  141.3350   73.9970  221.1110 C   0  0  0  0  0  0  0  0  0  0  0  0
  139.3216   78.6009  220.3674 H   0  0  0  0  0  0  0  0  0  0  0  0
  140.2336   81.2627  220.9661 H   0  0  0  0  0  0  0  0  0  0  0  0
  143.2615   81.3481  224.0252 H   0  0  0  0  0  0  0  0  0  0  0  0
  143.1317   78.8781  224.1938 H   0  0  0  0  0  0  0  0  0  0  0  0
  141.8200   76.6620  223.1330 H   0  0  0  0  0  0  0  0  0  0  0  0
  139.1942   74.0551  223.3268 H   0  0  0  0  0  0  0  0  0  0  0  0
  138.3005   73.5556  221.8931 H   0  0  0  0  0  0  0  0  0  0  0  0
  138.7014   71.7811  220.7121 H   0  0  0  0  0  0  0  0  0  0  0  0
  139.8334   70.5356  221.1086 H   0  0  0  0  0  0  0  0  0  0  0  0
  137.4455   71.5925  222.7079 H   0  0  0  0  0  0  0  0  0  0  0  0
  137.9868   69.9111  222.5671 H   0  0  0  0  0  0  0  0  0  0  0  0
  138.3094   70.2615  225.4033 H   0  0  0  0  0  0  0  0  0  0  0  0
  141.2865   69.7239  224.7628 H   0  0  0  0  0  0  0  0  0  0  0  0
  140.7019   70.4892  226.1981 H   0  0  0  0  0  0  0  0  0  0  0  0
  141.0775   67.7400  226.0620 H   0  0  0  0  0  0  0  0  0  0  0  0
  139.7481   68.3910  227.0457 H   0  0  0  0  0  0  0  0  0  0  0  0
  139.5640   66.7770  224.7660 H   0  0  0  0  0  0  0  0  0  0  0  0
  139.6322   68.5042  223.2305 H   0  0  0  0  0  0  0  0  0  0  0  0
  137.9310   68.5170  223.6257 H   0  0  0  0  0  0  0  0  0  0  0  0
  140.4899   72.5410  224.3878 H   0  0  0  0  0  0  0  0  0  0  0  0
  141.1567   71.0956  223.6261 H   0  0  0  0  0  0  0  0  0  0  0  0
  142.3761   70.8033  221.7087 H   0  0  0  0  0  0  0  0  0  0  0  0
  144.3714   71.5828  220.4427 H   0  0  0  0  0  0  0  0  0  0  0  0
  144.3982   73.9283  219.6029 H   0  0  0  0  0  0  0  0  0  0  0  0
  142.5006   75.4277  220.0282 H   0  0  0  0  0  0  0  0  0  0  0  0
  1  2  2  0
  2  3  1  0
  3  4  2  0
  4  5  1  0
  5  6  2  0
  6  7  1  0
  7  8  1  0
  7  9  2  0
  9 10  1  0
 10 11  2  0
 11 12  1  0
  2 13  1  0
 13 14  1  0
 15 14  1  1
 15 16  1  0
 16 17  1  0
 17 18  1  0
 18 19  1  0
 19 20  1  0
 20 21  1  0
 21 22  1  0
 22 23  1  0
 18 24  1  0
 15 25  1  0
 25 26  2  0
 26 27  1  0
 27 28  2  0
 28 29  1  0
 29 30  2  0
 12  3  1  0
 30 13  1  0
 11  5  1  0
 24 15  1  0
 30 25  1  0
 23 19  1  0
  4 31  1  0
  6 32  1  0
  9 33  1  0
 10 34  1  0
 12 35  1  0
 14 36  1  0
 14 37  1  0
 16 38  1  0
 16 39  1  0
 17 40  1  0
 17 41  1  0
 19 42  1  1
 20 43  1  0
 20 44  1  0
 21 45  1  0
 21 46  1  0
 22 47  1  0
 23 48  1  0
 23 49  1  0
 24 50  1  0
 24 51  1  0
 26 52  1  0
 27 53  1  0
 28 54  1  0
 29 55  1  0
M  END
>  <smiles>  (29) 
O=C(c1cc2cc(F)ccc2[nH]1)N1CC2(CCN(C3CCNC3)C2)c2ccccc21

>  <score_type>  (29) 
oracle

>  <origin>  (29) 
autodockgpu

>  <m_score__min__energy>  (29) 
-8.3800000000000008

>  <m_primary>  (29) 
energy

>  <meeko>  (29) 
{"free_energy": -8.35, "intermolecular_energy": -9.25, "internal_energy": -1.09, "cluster_size": 20, "cluster_id": 1, "rank_in_cluster": 13}

>  <energy>  (29) 
-8.37

>  <cluster_rmsd>  (29) 
0.06

>  <rmsd>  (29) 
271.16

>  <cluster>  (29) 
1

$$$$

     RDKit          3D

 55 60  0  0  1  0  0  0  0  0999 V2000
  139.0230   76.0950  220.0540 O   0  0  0  0  0  0  0  0  0  0  0  0
  139.9140   75.9430  220.9560 C   0  0  0  0  0  0  0  0  0  0  0  0
  140.5030   77.1450  221.4850 C   0  0  0  0  0  0  0  0  0  0  0  0
  140.1950   78.4080  220.9970 C   0  0  0  0  0  0  0  0  0  0  0  0
  140.9060   79.3700  221.6920 C   0  0  0  0  0  0  0  0  0  0  0  0
  140.9610   80.7450  221.6000 C   0  0  0  0  0  0  0  0  0  0  0  0
  141.7870   81.4550  222.4520 C   0  0  0  0  0  0  0  0  0  0  0  0
  141.8110   82.8130  222.3260 F   0  0  0  0  0  0  0  0  0  0  0  0
  142.5510   80.7840  223.3900 C   0  0  0  0  0  0  0  0  0  0  0  0
  142.4780   79.4050  223.4620 C   0  0  0  0  0  0  0  0  0  0  0  0
  141.6500   78.6830  222.6090 C   0  0  0  0  0  0  0  0  0  0  0  0
  141.3910   77.3580  222.4630 N   0  0  0  0  0  0  0  0  0  0  0  0
  140.2250   74.6140  221.3320 N   0  0  0  0  0  0  0  0  0  0  0  0
  139.3990   73.6990  222.0920 C   0  0  0  0  0  0  0  0  0  0  0  0
  140.1680   72.4240  222.1090 C   0  0  2  0  0  0  0  0  0  0  0  0
  139.3490   71.3680  221.3590 C   0  0  0  0  0  0  0  0  0  0  0  0
  138.3850   70.9690  222.4560 C   0  0  0  0  0  0  0  0  0  0  0  0
  139.0950   71.1250  223.6800 N   0  0  0  0  0  0  0  0  0  0  0  0
  139.1030   69.9920  224.5310 C   0  0  2  0  0  0  0  0  0  0  0  0
  140.3490   69.7770  225.3430 C   0  0  0  0  0  0  0  0  0  0  0  0
  140.0550   68.3720  225.8940 C   0  0  0  0  0  0  0  0  0  0  0  0
  139.1980   67.7280  224.9510 N   0  0  0  0  0  0  0  0  0  0  0  0
  138.9800   68.6570  223.8530 C   0  0  0  0  0  0  0  0  0  0  0  0
  140.3160   71.7880  223.4520 C   0  0  0  0  0  0  0  0  0  0  0  0
  141.4510   72.6790  221.4320 C   0  0  0  0  0  0  0  0  0  0  0  0
  142.5150   71.8220  221.2370 C   0  0  0  0  0  0  0  0  0  0  0  0
  143.6520   72.2340  220.5740 C   0  0  0  0  0  0  0  0  0  0  0  0
  143.6860   73.5310  220.1120 C   0  0  0  0  0  0  0  0  0  0  0  0
  142.6120   74.3810  220.3140 C   0  0  0  0  0  0  0  0  0  0  0  0
  141.4610   73.9910  220.9770 C   0  0  0  0  0  0  0  0  0  0  0  0
  139.4896   78.6134  220.1783 H   0  0  0  0  0  0  0  0  0  0  0  0
  140.3511   81.2741  220.8529 H   0  0  0  0  0  0  0  0  0  0  0  0
  143.2099   81.3418  224.0717 H   0  0  0  0  0  0  0  0  0  0  0  0
  143.0853   78.8698  224.2068 H   0  0  0  0  0  0  0  0  0  0  0  0
  141.8470   76.6580  223.0540 H   0  0  0  0  0  0  0  0  0  0  0  0
  139.2449   74.0732  223.1149 H   0  0  0  0  0  0  0  0  0  0  0  0
  138.3984   73.5767  221.6518 H   0  0  0  0  0  0  0  0  0  0  0  0
  138.8270   71.7953  220.4901 H   0  0  0  0  0  0  0  0  0  0  0  0
  139.9344   70.5421  220.9286 H   0  0  0  0  0  0  0  0  0  0  0  0
  137.4995   71.6214  222.4423 H   0  0  0  0  0  0  0  0  0  0  0  0
  138.0315   69.9356  222.3248 H   0  0  0  0  0  0  0  0  0  0  0  0
  138.2261   70.2664  225.1358 H   0  0  0  0  0  0  0  0  0  0  0  0
  141.2537   69.7912  224.7175 H   0  0  0  0  0  0  0  0  0  0  0  0
  140.5497   70.5454  226.1041 H   0  0  0  0  0  0  0  0  0  0  0  0
  140.9912   67.8049  226.0032 H   0  0  0  0  0  0  0  0  0  0  0  0
  139.5790   68.4289  226.8841 H   0  0  0  0  0  0  0  0  0  0  0  0
  139.5980   66.8090  224.6010 H   0  0  0  0  0  0  0  0  0  0  0  0
  139.7444   68.5357  223.0713 H   0  0  0  0  0  0  0  0  0  0  0  0
  138.0184   68.5120  223.3388 H   0  0  0  0  0  0  0  0  0  0  0  0
  140.4907   72.5519  224.2240 H   0  0  0  0  0  0  0  0  0  0  0  0
  141.1726   71.0990  223.4898 H   0  0  0  0  0  0  0  0  0  0  0  0
  142.4551   70.7916  221.6173 H   0  0  0  0  0  0  0  0  0  0  0  0
  144.5008   71.5515  220.4198 H   0  0  0  0  0  0  0  0  0  0  0  0
  144.5755   73.8952  219.5771 H   0  0  0  0  0  0  0  0  0  0  0  0
  142.6760   75.4103  219.9313 H   0  0  0  0  0  0  0  0  0  0  0  0
  1  2  2  0
  2  3  1  0
  3  4  2  0
  4  5  1  0
  5  6  2  0
  6  7  1  0
  7  8  1  0
  7  9  2  0
  9 10  1  0
 10 11  2  0
 11 12  1  0
  2 13  1  0
 13 14  1  0
 15 14  1  1
 15 16  1  0
 16 17  1  0
 17 18  1  0
 18 19  1  0
 19 20  1  0
 20 21  1  0
 21 22  1  0
 22 23  1  0
 18 24  1  0
 15 25  1  0
 25 26  2  0
 26 27  1  0
 27 28  2  0
 28 29  1  0
 29 30  2  0
 12  3  1  0
 30 13  1  0
 11  5  1  0
 24 15  1  0
 30 25  1  0
 23 19  1  0
  4 31  1  0
  6 32  1  0
  9 33  1  0
 10 34  1  0
 12 35  1  0
 14 36  1  0
 14 37  1  0
 16 38  1  0
 16 39  1  0
 17 40  1  0
 17 41  1  0
 19 42  1  1
 20 43  1  0
 20 44  1  0
 21 45  1  0
 21 46  1  0
 22 47  1  0
 23 48  1  0
 23 49  1  0
 24 50  1  0
 24 51  1  0
 26 52  1  0
 27 53  1  0
 28 54  1  0
 29 55  1  0
M  END
>  <smiles>  (30) 
O=C(c1cc2cc(F)ccc2[nH]1)N1CC2(CCN(C3CCNC3)C2)c2ccccc21

>  <score_type>  (30) 
oracle

>  <origin>  (30) 
autodockgpu

>  <m_score__min__energy>  (30) 
-8.3800000000000008

>  <m_primary>  (30) 
energy

>  <meeko>  (30) 
{"free_energy": -8.37, "intermolecular_energy": -9.27, "internal_energy": -1.08, "cluster_size": 20, "cluster_id": 1, "rank_in_cluster": 7}

>  <energy>  (30) 
-8.37

>  <cluster_rmsd>  (30) 
0.09

>  <rmsd>  (30) 
271.24

>  <cluster>  (30) 
1

$$$$

     RDKit          3D

 55 60  0  0  1  0  0  0  0  0999 V2000
  139.1280   76.0620  219.9440 O   0  0  0  0  0  0  0  0  0  0  0  0
  139.9800   75.9160  220.8830 C   0  0  0  0  0  0  0  0  0  0  0  0
  140.5430   77.1220  221.4310 C   0  0  0  0  0  0  0  0  0  0  0  0
  140.2420   78.3840  220.9320 C   0  0  0  0  0  0  0  0  0  0  0  0
  140.9240   79.3510  221.6500 C   0  0  0  0  0  0  0  0  0  0  0  0
  140.9730   80.7250  221.5590 C   0  0  0  0  0  0  0  0  0  0  0  0
  141.7650   81.4420  222.4380 C   0  0  0  0  0  0  0  0  0  0  0  0
  141.7830   82.7990  222.3120 F   0  0  0  0  0  0  0  0  0  0  0  0
  142.5020   80.7760  223.4010 C   0  0  0  0  0  0  0  0  0  0  0  0
  142.4360   79.3960  223.4720 C   0  0  0  0  0  0  0  0  0  0  0  0
  141.6420   78.6690  222.5910 C   0  0  0  0  0  0  0  0  0  0  0  0
  141.3960   77.3420  222.4380 N   0  0  0  0  0  0  0  0  0  0  0  0
  140.2780   74.5900  221.2790 N   0  0  0  0  0  0  0  0  0  0  0  0
  139.4430   73.6930  222.0500 C   0  0  0  0  0  0  0  0  0  0  0  0
  140.2000   72.4120  222.0860 C   0  0  2  0  0  0  0  0  0  0  0  0
  139.3720   71.3520  221.3500 C   0  0  0  0  0  0  0  0  0  0  0  0
  138.4040   70.9780  222.4510 C   0  0  0  0  0  0  0  0  0  0  0  0
  139.1120   71.1450  223.6740 N   0  0  0  0  0  0  0  0  0  0  0  0
  139.1090   70.0240  224.5410 C   0  0  2  0  0  0  0  0  0  0  0  0
  140.3460   69.8170  225.3680 C   0  0  0  0  0  0  0  0  0  0  0  0
  140.0430   68.4200  225.9360 C   0  0  0  0  0  0  0  0  0  0  0  0
  139.1920   67.7660  224.9940 N   0  0  0  0  0  0  0  0  0  0  0  0
  138.9870   68.6810  223.8810 C   0  0  0  0  0  0  0  0  0  0  0  0
  140.3400   71.7930  223.4390 C   0  0  0  0  0  0  0  0  0  0  0  0
  141.4860   72.6450  221.4080 C   0  0  0  0  0  0  0  0  0  0  0  0
  142.5430   71.7760  221.2270 C   0  0  0  0  0  0  0  0  0  0  0  0
  143.6840   72.1690  220.5600 C   0  0  0  0  0  0  0  0  0  0  0  0
  143.7300   73.4580  220.0800 C   0  0  0  0  0  0  0  0  0  0  0  0
  142.6640   74.3210  220.2670 C   0  0  0  0  0  0  0  0  0  0  0  0
  141.5090   73.9510  220.9340 C   0  0  0  0  0  0  0  0  0  0  0  0
  139.5622   78.5845  220.0908 H   0  0  0  0  0  0  0  0  0  0  0  0
  140.3852   81.2493  220.7911 H   0  0  0  0  0  0  0  0  0  0  0  0
  143.1345   81.3385  224.1036 H   0  0  0  0  0  0  0  0  0  0  0  0
  143.0209   78.8650  224.2375 H   0  0  0  0  0  0  0  0  0  0  0  0
  141.8370   76.6450  223.0440 H   0  0  0  0  0  0  0  0  0  0  0  0
  139.2907   74.0826  223.0674 H   0  0  0  0  0  0  0  0  0  0  0  0
  138.4421   73.5735  221.6097 H   0  0  0  0  0  0  0  0  0  0  0  0
  138.8547   71.7712  220.4744 H   0  0  0  0  0  0  0  0  0  0  0  0
  139.9503   70.5147  220.9323 H   0  0  0  0  0  0  0  0  0  0  0  0
  137.5244   71.6380  222.4262 H   0  0  0  0  0  0  0  0  0  0  0  0
  138.0426   69.9456  222.3342 H   0  0  0  0  0  0  0  0  0  0  0  0
  138.2277   70.3097  225.1341 H   0  0  0  0  0  0  0  0  0  0  0  0
  141.2568   69.8202  224.7513 H   0  0  0  0  0  0  0  0  0  0  0  0
  140.5411   70.5954  226.1204 H   0  0  0  0  0  0  0  0  0  0  0  0
  140.9765   67.8517  226.0610 H   0  0  0  0  0  0  0  0  0  0  0  0
  139.5590   68.4915  226.9212 H   0  0  0  0  0  0  0  0  0  0  0  0
  139.5930   66.8400  224.6610 H   0  0  0  0  0  0  0  0  0  0  0  0
  139.7577   68.5461  223.1078 H   0  0  0  0  0  0  0  0  0  0  0  0
  138.0294   68.5324  223.3606 H   0  0  0  0  0  0  0  0  0  0  0  0
  140.5209   72.5658  224.2006 H   0  0  0  0  0  0  0  0  0  0  0  0
  141.1899   71.0964  223.4879 H   0  0  0  0  0  0  0  0  0  0  0  0
  142.4739   70.7517  221.6219 H   0  0  0  0  0  0  0  0  0  0  0  0
  144.5271   71.4772  220.4167 H   0  0  0  0  0  0  0  0  0  0  0  0
  144.6238   73.8064  219.5418 H   0  0  0  0  0  0  0  0  0  0  0  0
  142.7379   75.3437  219.8688 H   0  0  0  0  0  0  0  0  0  0  0  0
  1  2  2  0
  2  3  1  0
  3  4  2  0
  4  5  1  0
  5  6  2  0
  6  7  1  0
  7  8  1  0
  7  9  2  0
  9 10  1  0
 10 11  2  0
 11 12  1  0
  2 13  1  0
 13 14  1  0
 15 14  1  1
 15 16  1  0
 16 17  1  0
 17 18  1  0
 18 19  1  0
 19 20  1  0
 20 21  1  0
 21 22  1  0
 22 23  1  0
 18 24  1  0
 15 25  1  0
 25 26  2  0
 26 27  1  0
 27 28  2  0
 28 29  1  0
 29 30  2  0
 12  3  1  0
 30 13  1  0
 11  5  1  0
 24 15  1  0
 30 25  1  0
 23 19  1  0
  4 31  1  0
  6 32  1  0
  9 33  1  0
 10 34  1  0
 12 35  1  0
 14 36  1  0
 14 37  1  0
 16 38  1  0
 16 39  1  0
 17 40  1  0
 17 41  1  0
 19 42  1  1
 20 43  1  0
 20 44  1  0
 21 45  1  0
 21 46  1  0
 22 47  1  0
 23 48  1  0
 23 49  1  0
 24 50  1  0
 24 51  1  0
 26 52  1  0
 27 53  1  0
 28 54  1  0
 29 55  1  0
M  END
>  <smiles>  (31) 
O=C(c1cc2cc(F)ccc2[nH]1)N1CC2(CCN(C3CCNC3)C2)c2ccccc21

>  <score_type>  (31) 
oracle

>  <origin>  (31) 
autodockgpu

>  <m_score__min__energy>  (31) 
-8.3800000000000008

>  <m_primary>  (31) 
energy

>  <meeko>  (31) 
{"free_energy": -8.38, "intermolecular_energy": -9.27, "internal_energy": -1.08, "cluster_size": 20, "cluster_id": 1, "rank_in_cluster": 3}

>  <energy>  (31) 
-8.36

>  <cluster_rmsd>  (31) 
0.09

>  <rmsd>  (31) 
271.21

>  <cluster>  (31) 
1

$$$$

     RDKit          3D

 55 60  0  0  1  0  0  0  0  0999 V2000
  139.0840   76.0810  219.9840 O   0  0  0  0  0  0  0  0  0  0  0  0
  139.9520   75.9340  220.9100 C   0  0  0  0  0  0  0  0  0  0  0  0
  140.5220   77.1390  221.4510 C   0  0  0  0  0  0  0  0  0  0  0  0
  140.2180   78.4010  220.9550 C   0  0  0  0  0  0  0  0  0  0  0  0
  140.9080   79.3680  221.6650 C   0  0  0  0  0  0  0  0  0  0  0  0
  140.9580   80.7420  221.5740 C   0  0  0  0  0  0  0  0  0  0  0  0
  141.7610   81.4580  222.4430 C   0  0  0  0  0  0  0  0  0  0  0  0
  141.7800   82.8150  222.3170 F   0  0  0  0  0  0  0  0  0  0  0  0
  142.5080   80.7910  223.3980 C   0  0  0  0  0  0  0  0  0  0  0  0
  142.4420   79.4110  223.4690 C   0  0  0  0  0  0  0  0  0  0  0  0
  141.6360   78.6850  222.5980 C   0  0  0  0  0  0  0  0  0  0  0  0
  141.3880   77.3580  222.4480 N   0  0  0  0  0  0  0  0  0  0  0  0
  140.2570   74.6070  221.2980 N   0  0  0  0  0  0  0  0  0  0  0  0
  139.4300   73.7030  222.0680 C   0  0  0  0  0  0  0  0  0  0  0  0
  140.1940   72.4250  222.0940 C   0  0  2  0  0  0  0  0  0  0  0  0
  139.3670   71.3650  221.3570 C   0  0  0  0  0  0  0  0  0  0  0  0
  138.4050   70.9810  222.4600 C   0  0  0  0  0  0  0  0  0  0  0  0
  139.1190   71.1450  223.6800 N   0  0  0  0  0  0  0  0  0  0  0  0
  139.1250   70.0200  224.5410 C   0  0  2  0  0  0  0  0  0  0  0  0
  140.3720   69.8060  225.3510 C   0  0  0  0  0  0  0  0  0  0  0  0
  140.0730   68.4070  225.9160 C   0  0  0  0  0  0  0  0  0  0  0  0
  139.2090   67.7600  224.9820 N   0  0  0  0  0  0  0  0  0  0  0  0
  138.9920   68.6800  223.8760 C   0  0  0  0  0  0  0  0  0  0  0  0
  140.3420   71.8000  223.4430 C   0  0  0  0  0  0  0  0  0  0  0  0
  141.4750   72.6680  221.4110 C   0  0  0  0  0  0  0  0  0  0  0  0
  142.5350   71.8050  221.2210 C   0  0  0  0  0  0  0  0  0  0  0  0
  143.6720   72.2060  220.5510 C   0  0  0  0  0  0  0  0  0  0  0  0
  143.7100   73.4980  220.0780 C   0  0  0  0  0  0  0  0  0  0  0  0
  142.6410   74.3550  220.2740 C   0  0  0  0  0  0  0  0  0  0  0  0
  141.4900   73.9760  220.9440 C   0  0  0  0  0  0  0  0  0  0  0  0
  139.5300   78.6019  220.1206 H   0  0  0  0  0  0  0  0  0  0  0  0
  140.3617   81.2672  220.8134 H   0  0  0  0  0  0  0  0  0  0  0  0
  143.1482   81.3528  224.0941 H   0  0  0  0  0  0  0  0  0  0  0  0
  143.0365   78.8791  224.2264 H   0  0  0  0  0  0  0  0  0  0  0  0
  141.8340   76.6610  223.0490 H   0  0  0  0  0  0  0  0  0  0  0  0
  139.2805   74.0869  223.0879 H   0  0  0  0  0  0  0  0  0  0  0  0
  138.4275   73.5809  221.6320 H   0  0  0  0  0  0  0  0  0  0  0  0
  138.8441   71.7862  220.4857 H   0  0  0  0  0  0  0  0  0  0  0  0
  139.9473   70.5322  220.9332 H   0  0  0  0  0  0  0  0  0  0  0  0
  137.5225   71.6374  222.4428 H   0  0  0  0  0  0  0  0  0  0  0  0
  138.0464   69.9481  222.3395 H   0  0  0  0  0  0  0  0  0  0  0  0
  138.2520   70.3049  225.1465 H   0  0  0  0  0  0  0  0  0  0  0  0
  141.2748   69.8101  224.7226 H   0  0  0  0  0  0  0  0  0  0  0  0
  140.5786   70.5802  226.1046 H   0  0  0  0  0  0  0  0  0  0  0  0
  141.0066   67.8359  226.0264 H   0  0  0  0  0  0  0  0  0  0  0  0
  139.6017   68.4747  226.9076 H   0  0  0  0  0  0  0  0  0  0  0  0
  139.6040   66.8350  224.6390 H   0  0  0  0  0  0  0  0  0  0  0  0
  139.7527   68.5471  223.0926 H   0  0  0  0  0  0  0  0  0  0  0  0
  138.0278   68.5356  223.3667 H   0  0  0  0  0  0  0  0  0  0  0  0
  140.5222   72.5700  224.2076 H   0  0  0  0  0  0  0  0  0  0  0  0
  141.1954   71.1072  223.4848 H   0  0  0  0  0  0  0  0  0  0  0  0
  142.4720   70.7784  221.6111 H   0  0  0  0  0  0  0  0  0  0  0  0
  144.5173   71.5185  220.4002 H   0  0  0  0  0  0  0  0  0  0  0  0
  144.6000   73.8535  219.5381 H   0  0  0  0  0  0  0  0  0  0  0  0
  142.7086   75.3802  219.8810 H   0  0  0  0  0  0  0  0  0  0  0  0
  1  2  2  0
  2  3  1  0
  3  4  2  0
  4  5  1  0
  5  6  2  0
  6  7  1  0
  7  8  1  0
  7  9  2  0
  9 10  1  0
 10 11  2  0
 11 12  1  0
  2 13  1  0
 13 14  1  0
 15 14  1  1
 15 16  1  0
 16 17  1  0
 17 18  1  0
 18 19  1  0
 19 20  1  0
 20 21  1  0
 21 22  1  0
 22 23  1  0
 18 24  1  0
 15 25  1  0
 25 26  2  0
 26 27  1  0
 27 28  2  0
 28 29  1  0
 29 30  2  0
 12  3  1  0
 30 13  1  0
 11  5  1  0
 24 15  1  0
 30 25  1  0
 23 19  1  0
  4 31  1  0
  6 32  1  0
  9 33  1  0
 10 34  1  0
 12 35  1  0
 14 36  1  0
 14 37  1  0
 16 38  1  0
 16 39  1  0
 17 40  1  0
 17 41  1  0
 19 42  1  1
 20 43  1  0
 20 44  1  0
 21 45  1  0
 21 46  1  0
 22 47  1  0
 23 48  1  0
 23 49  1  0
 24 50  1  0
 24 51  1  0
 26 52  1  0
 27 53  1  0
 28 54  1  0
 29 55  1  0
M  END
>  <smiles>  (32) 
O=C(c1cc2cc(F)ccc2[nH]1)N1CC2(CCN(C3CCNC3)C2)c2ccccc21

>  <score_type>  (32) 
oracle

>  <origin>  (32) 
autodockgpu

>  <m_score__min__energy>  (32) 
-8.3800000000000008

>  <m_primary>  (32) 
energy

>  <meeko>  (32) 
{"free_energy": -8.38, "intermolecular_energy": -9.27, "internal_energy": -1.08, "cluster_size": 20, "cluster_id": 1, "rank_in_cluster": 2}

>  <energy>  (32) 
-8.36

>  <cluster_rmsd>  (32) 
0.07

>  <rmsd>  (32) 
271.2

>  <cluster>  (32) 
1

$$$$

     RDKit          3D

 55 60  0  0  1  0  0  0  0  0999 V2000
  139.0070   76.0870  220.0750 O   0  0  0  0  0  0  0  0  0  0  0  0
  139.9000   75.9400  220.9760 C   0  0  0  0  0  0  0  0  0  0  0  0
  140.4850   77.1450  221.5010 C   0  0  0  0  0  0  0  0  0  0  0  0
  140.1790   78.4060  221.0040 C   0  0  0  0  0  0  0  0  0  0  0  0
  140.8860   79.3730  221.6970 C   0  0  0  0  0  0  0  0  0  0  0  0
  140.9410   80.7470  221.5970 C   0  0  0  0  0  0  0  0  0  0  0  0
  141.7610   81.4630  222.4500 C   0  0  0  0  0  0  0  0  0  0  0  0
  141.7850   82.8190  222.3160 F   0  0  0  0  0  0  0  0  0  0  0  0
  142.5200   80.7970  223.3960 C   0  0  0  0  0  0  0  0  0  0  0  0
  142.4480   79.4180  223.4760 C   0  0  0  0  0  0  0  0  0  0  0  0
  141.6250   78.6910  222.6220 C   0  0  0  0  0  0  0  0  0  0  0  0
  141.3670   77.3650  222.4830 N   0  0  0  0  0  0  0  0  0  0  0  0
  140.2150   74.6130  221.3560 N   0  0  0  0  0  0  0  0  0  0  0  0
  139.3940   73.6980  222.1200 C   0  0  0  0  0  0  0  0  0  0  0  0
  140.1670   72.4260  222.1390 C   0  0  2  0  0  0  0  0  0  0  0  0
  139.3490   71.3640  221.3940 C   0  0  0  0  0  0  0  0  0  0  0  0
  138.3900   70.9660  222.4950 C   0  0  0  0  0  0  0  0  0  0  0  0
  139.1020   71.1280  223.7160 N   0  0  0  0  0  0  0  0  0  0  0  0
  139.1160   69.9970  224.5710 C   0  0  2  0  0  0  0  0  0  0  0  0
  140.3710   69.7780  225.3660 C   0  0  0  0  0  0  0  0  0  0  0  0
  140.0770   68.3760  225.9250 C   0  0  0  0  0  0  0  0  0  0  0  0
  139.2030   67.7340  224.9970 N   0  0  0  0  0  0  0  0  0  0  0  0
  138.9750   68.6620  223.8990 C   0  0  0  0  0  0  0  0  0  0  0  0
  140.3200   71.7940  223.4840 C   0  0  0  0  0  0  0  0  0  0  0  0
  141.4470   72.6820  221.4580 C   0  0  0  0  0  0  0  0  0  0  0  0
  142.5140   71.8290  221.2630 C   0  0  0  0  0  0  0  0  0  0  0  0
  143.6480   72.2420  220.5960 C   0  0  0  0  0  0  0  0  0  0  0  0
  143.6770   73.5380  220.1310 C   0  0  0  0  0  0  0  0  0  0  0  0
  142.6010   74.3850  220.3320 C   0  0  0  0  0  0  0  0  0  0  0  0
  141.4530   73.9940  220.9990 C   0  0  0  0  0  0  0  0  0  0  0  0
  139.4777   78.6062  220.1805 H   0  0  0  0  0  0  0  0  0  0  0  0
  140.3358   81.2710  220.8426 H   0  0  0  0  0  0  0  0  0  0  0  0
  143.1747   81.3591  224.0782 H   0  0  0  0  0  0  0  0  0  0  0  0
  143.0514   78.8875  224.2273 H   0  0  0  0  0  0  0  0  0  0  0  0
  141.8200   76.6690  223.0810 H   0  0  0  0  0  0  0  0  0  0  0  0
  139.2408   74.0746  223.1421 H   0  0  0  0  0  0  0  0  0  0  0  0
  138.3928   73.5711  221.6823 H   0  0  0  0  0  0  0  0  0  0  0  0
  138.8231   71.7866  220.5252 H   0  0  0  0  0  0  0  0  0  0  0  0
  139.9357   70.5386  220.9644 H   0  0  0  0  0  0  0  0  0  0  0  0
  137.5025   71.6157  222.4815 H   0  0  0  0  0  0  0  0  0  0  0  0
  138.0398   69.9310  222.3682 H   0  0  0  0  0  0  0  0  0  0  0  0
  138.2497   70.2780  225.1879 H   0  0  0  0  0  0  0  0  0  0  0  0
  141.2672   69.7857  224.7282 H   0  0  0  0  0  0  0  0  0  0  0  0
  140.5862   70.5475  226.1220 H   0  0  0  0  0  0  0  0  0  0  0  0
  141.0115   67.8040  226.0222 H   0  0  0  0  0  0  0  0  0  0  0  0
  139.6156   68.4385  226.9216 H   0  0  0  0  0  0  0  0  0  0  0  0
  139.5940   66.8110  224.6440 H   0  0  0  0  0  0  0  0  0  0  0  0
  139.7273   68.5338  223.1068 H   0  0  0  0  0  0  0  0  0  0  0  0
  138.0053   68.5217  223.3991 H   0  0  0  0  0  0  0  0  0  0  0  0
  140.4938   72.5606  224.2535 H   0  0  0  0  0  0  0  0  0  0  0  0
  141.1790   71.1080  223.5221 H   0  0  0  0  0  0  0  0  0  0  0  0
  142.4589   70.7997  221.6471 H   0  0  0  0  0  0  0  0  0  0  0  0
  144.4981   71.5614  220.4410 H   0  0  0  0  0  0  0  0  0  0  0  0
  144.5647   73.9038  219.5942 H   0  0  0  0  0  0  0  0  0  0  0  0
  142.6608   75.4130  219.9451 H   0  0  0  0  0  0  0  0  0  0  0  0
  1  2  2  0
  2  3  1  0
  3  4  2  0
  4  5  1  0
  5  6  2  0
  6  7  1  0
  7  8  1  0
  7  9  2  0
  9 10  1  0
 10 11  2  0
 11 12  1  0
  2 13  1  0
 13 14  1  0
 15 14  1  1
 15 16  1  0
 16 17  1  0
 17 18  1  0
 18 19  1  0
 19 20  1  0
 20 21  1  0
 21 22  1  0
 22 23  1  0
 18 24  1  0
 15 25  1  0
 25 26  2  0
 26 27  1  0
 27 28  2  0
 28 29  1  0
 29 30  2  0
 12  3  1  0
 30 13  1  0
 11  5  1  0
 24 15  1  0
 30 25  1  0
 23 19  1  0
  4 31  1  0
  6 32  1  0
  9 33  1  0
 10 34  1  0
 12 35  1  0
 14 36  1  0
 14 37  1  0
 16 38  1  0
 16 39  1  0
 17 40  1  0
 17 41  1  0
 19 42  1  1
 20 43  1  0
 20 44  1  0
 21 45  1  0
 21 46  1  0
 22 47  1  0
 23 48  1  0
 23 49  1  0
 24 50  1  0
 24 51  1  0
 26 52  1  0
 27 53  1  0
 28 54  1  0
 29 55  1  0
M  END
>  <smiles>  (33) 
O=C(c1cc2cc(F)ccc2[nH]1)N1CC2(CCN(C3CCNC3)C2)c2ccccc21

>  <score_type>  (33) 
oracle

>  <origin>  (33) 
autodockgpu

>  <m_score__min__energy>  (33) 
-8.3800000000000008

>  <m_primary>  (33) 
energy

>  <meeko>  (33) 
{"free_energy": -8.37, "intermolecular_energy": -9.27, "internal_energy": -1.08, "cluster_size": 20, "cluster_id": 1, "rank_in_cluster": 8}

>  <energy>  (33) 
-8.35

>  <cluster_rmsd>  (33) 
0.19

>  <rmsd>  (33) 
271.26

>  <cluster>  (33) 
1

$$$$

     RDKit          3D

 55 60  0  0  1  0  0  0  0  0999 V2000
  138.7330   76.1140  220.3810 O   0  0  0  0  0  0  0  0  0  0  0  0
  139.7110   75.9550  221.1870 C   0  0  0  0  0  0  0  0  0  0  0  0
  140.3580   77.1520  221.6530 C   0  0  0  0  0  0  0  0  0  0  0  0
  140.0260   78.4160  221.1810 C   0  0  0  0  0  0  0  0  0  0  0  0
  140.8070   79.3740  221.8040 C   0  0  0  0  0  0  0  0  0  0  0  0
  140.8720   80.7470  221.6960 C   0  0  0  0  0  0  0  0  0  0  0  0
  141.7760   81.4530  222.4680 C   0  0  0  0  0  0  0  0  0  0  0  0
  141.8070   82.8090  222.3280 F   0  0  0  0  0  0  0  0  0  0  0  0
  142.6090   80.7790  223.3440 C   0  0  0  0  0  0  0  0  0  0  0  0
  142.5240   79.4010  223.4340 C   0  0  0  0  0  0  0  0  0  0  0  0
  141.6170   78.6840  222.6610 C   0  0  0  0  0  0  0  0  0  0  0  0
  141.3290   77.3620  222.5500 N   0  0  0  0  0  0  0  0  0  0  0  0
  140.0500   74.6240  221.5300 N   0  0  0  0  0  0  0  0  0  0  0  0
  139.2580   73.6830  222.2940 C   0  0  0  0  0  0  0  0  0  0  0  0
  140.0450   72.4200  222.2660 C   0  0  2  0  0  0  0  0  0  0  0  0
  139.2200   71.3650  221.5190 C   0  0  0  0  0  0  0  0  0  0  0  0
  138.2920   70.9320  222.6340 C   0  0  0  0  0  0  0  0  0  0  0  0
  139.0320   71.0760  223.8410 N   0  0  0  0  0  0  0  0  0  0  0  0
  139.0790   69.9280  224.6700 C   0  0  2  0  0  0  0  0  0  0  0  0
  140.3590   69.7020  225.4240 C   0  0  0  0  0  0  0  0  0  0  0  0
  140.0920   68.2860  225.9610 C   0  0  0  0  0  0  0  0  0  0  0  0
  139.1960   67.6570  225.0440 N   0  0  0  0  0  0  0  0  0  0  0  0
  138.9300   68.6050  223.9730 C   0  0  0  0  0  0  0  0  0  0  0  0
  140.2380   71.7600  223.5930 C   0  0  0  0  0  0  0  0  0  0  0  0
  141.3050   72.7050  221.5600 C   0  0  0  0  0  0  0  0  0  0  0  0
  142.3750   71.8680  221.3210 C   0  0  0  0  0  0  0  0  0  0  0  0
  143.4870   72.3080  220.6350 C   0  0  0  0  0  0  0  0  0  0  0  0
  143.4910   73.6140  220.1970 C   0  0  0  0  0  0  0  0  0  0  0  0
  142.4110   74.4440  220.4440 C   0  0  0  0  0  0  0  0  0  0  0  0
  141.2850   74.0260  221.1300 C   0  0  0  0  0  0  0  0  0  0  0  0
  139.2559   78.6246  220.4237 H   0  0  0  0  0  0  0  0  0  0  0  0
  140.2076   81.2784  220.9987 H   0  0  0  0  0  0  0  0  0  0  0  0
  143.3309   81.3330  223.9620 H   0  0  0  0  0  0  0  0  0  0  0  0
  143.1854   78.8631  224.1291 H   0  0  0  0  0  0  0  0  0  0  0  0
  141.8240   76.6600  223.1070 H   0  0  0  0  0  0  0  0  0  0  0  0
  139.1262   74.0356  223.3276 H   0  0  0  0  0  0  0  0  0  0  0  0
  138.2477   73.5542  221.8785 H   0  0  0  0  0  0  0  0  0  0  0  0
  138.6684   71.8002  220.6726 H   0  0  0  0  0  0  0  0  0  0  0  0
  139.8051   70.5556  221.0580 H   0  0  0  0  0  0  0  0  0  0  0  0
  137.3972   71.5714  222.6561 H   0  0  0  0  0  0  0  0  0  0  0  0
  137.9502   69.8960  222.4931 H   0  0  0  0  0  0  0  0  0  0  0  0
  138.2284   70.1887  225.3169 H   0  0  0  0  0  0  0  0  0  0  0  0
  141.2362   69.7305  224.7609 H   0  0  0  0  0  0  0  0  0  0  0  0
  140.5902   70.4569  226.1900 H   0  0  0  0  0  0  0  0  0  0  0  0
  141.0332   67.7197  226.0190 H   0  0  0  0  0  0  0  0  0  0  0  0
  139.6593   68.3232  226.9716 H   0  0  0  0  0  0  0  0  0  0  0  0
  139.5840   66.7450  224.6600 H   0  0  0  0  0  0  0  0  0  0  0  0
  139.6609   68.5000  223.1577 H   0  0  0  0  0  0  0  0  0  0  0  0
  137.9480   68.4667  223.4970 H   0  0  0  0  0  0  0  0  0  0  0  0
  140.4237   72.5113  224.3747 H   0  0  0  0  0  0  0  0  0  0  0  0
  141.1043   71.0821  223.5942 H   0  0  0  0  0  0  0  0  0  0  0  0
  142.3404   70.8303  221.6844 H   0  0  0  0  0  0  0  0  0  0  0  0
  144.3401   71.6403  220.4443 H   0  0  0  0  0  0  0  0  0  0  0  0
  144.3607   74.0011  219.6457 H   0  0  0  0  0  0  0  0  0  0  0  0
  142.4500   75.4809  220.0789 H   0  0  0  0  0  0  0  0  0  0  0  0
  1  2  2  0
  2  3  1  0
  3  4  2  0
  4  5  1  0
  5  6  2  0
  6  7  1  0
  7  8  1  0
  7  9  2  0
  9 10  1  0
 10 11  2  0
 11 12  1  0
  2 13  1  0
 13 14  1  0
 15 14  1  1
 15 16  1  0
 16 17  1  0
 17 18  1  0
 18 19  1  0
 19 20  1  0
 20 21  1  0
 21 22  1  0
 22 23  1  0
 18 24  1  0
 15 25  1  0
 25 26  2  0
 26 27  1  0
 27 28  2  0
 28 29  1  0
 29 30  2  0
 12  3  1  0
 30 13  1  0
 11  5  1  0
 24 15  1  0
 30 25  1  0
 23 19  1  0
  4 31  1  0
  6 32  1  0
  9 33  1  0
 10 34  1  0
 12 35  1  0
 14 36  1  0
 14 37  1  0
 16 38  1  0
 16 39  1  0
 17 40  1  0
 17 41  1  0
 19 42  1  1
 20 43  1  0
 20 44  1  0
 21 45  1  0
 21 46  1  0
 22 47  1  0
 23 48  1  0
 23 49  1  0
 24 50  1  0
 24 51  1  0
 26 52  1  0
 27 53  1  0
 28 54  1  0
 29 55  1  0
M  END
>  <smiles>  (34) 
O=C(c1cc2cc(F)ccc2[nH]1)N1CC2(CCN(C3CCNC3)C2)c2ccccc21

>  <score_type>  (34) 
oracle

>  <origin>  (34) 
autodockgpu

>  <m_score__min__energy>  (34) 
-8.3800000000000008

>  <m_primary>  (34) 
energy

>  <meeko>  (34) 
{"free_energy": -8.34, "intermolecular_energy": -9.23, "internal_energy": -1.09, "cluster_size": 20, "cluster_id": 1, "rank_in_cluster": 15}

>  <energy>  (34) 
-8.34

>  <cluster_rmsd>  (34) 
0.22

>  <rmsd>  (34) 
271.24

>  <cluster>  (34) 
1

$$$$

     RDKit          3D

 55 60  0  0  1  0  0  0  0  0999 V2000
  138.7470   76.1170  220.3830 O   0  0  0  0  0  0  0  0  0  0  0  0
  139.7230   75.9570  221.1910 C   0  0  0  0  0  0  0  0  0  0  0  0
  140.3680   77.1540  221.6620 C   0  0  0  0  0  0  0  0  0  0  0  0
  140.0420   78.4180  221.1860 C   0  0  0  0  0  0  0  0  0  0  0  0
  140.8180   79.3750  221.8150 C   0  0  0  0  0  0  0  0  0  0  0  0
  140.8860   80.7480  221.7060 C   0  0  0  0  0  0  0  0  0  0  0  0
  141.7850   81.4530  222.4860 C   0  0  0  0  0  0  0  0  0  0  0  0
  141.8180   82.8090  222.3450 F   0  0  0  0  0  0  0  0  0  0  0  0
  142.6090   80.7780  223.3690 C   0  0  0  0  0  0  0  0  0  0  0  0
  142.5220   79.4010  223.4590 C   0  0  0  0  0  0  0  0  0  0  0  0
  141.6210   78.6850  222.6790 C   0  0  0  0  0  0  0  0  0  0  0  0
  141.3320   77.3620  222.5660 N   0  0  0  0  0  0  0  0  0  0  0  0
  140.0620   74.6250  221.5320 N   0  0  0  0  0  0  0  0  0  0  0  0
  139.2680   73.6800  222.2880 C   0  0  0  0  0  0  0  0  0  0  0  0
  140.0570   72.4190  222.2600 C   0  0  2  0  0  0  0  0  0  0  0  0
  139.2380   71.3650  221.5050 C   0  0  0  0  0  0  0  0  0  0  0  0
  138.3060   70.9270  222.6130 C   0  0  0  0  0  0  0  0  0  0  0  0
  139.0390   71.0680  223.8250 N   0  0  0  0  0  0  0  0  0  0  0  0
  139.0830   69.9170  224.6500 C   0  0  2  0  0  0  0  0  0  0  0  0
  140.3600   69.6910  225.4100 C   0  0  0  0  0  0  0  0  0  0  0  0
  140.0920   68.2720  225.9410 C   0  0  0  0  0  0  0  0  0  0  0  0
  139.2020   67.6450  225.0180 N   0  0  0  0  0  0  0  0  0  0  0  0
  138.9390   68.5970  223.9490 C   0  0  0  0  0  0  0  0  0  0  0  0
  140.2440   71.7560  223.5860 C   0  0  0  0  0  0  0  0  0  0  0  0
  141.3210   72.7090  221.5620 C   0  0  0  0  0  0  0  0  0  0  0  0
  142.3940   71.8740  221.3260 C   0  0  0  0  0  0  0  0  0  0  0  0
  143.5090   72.3190  220.6480 C   0  0  0  0  0  0  0  0  0  0  0  0
  143.5130   73.6260  220.2140 C   0  0  0  0  0  0  0  0  0  0  0  0
  142.4310   74.4540  220.4570 C   0  0  0  0  0  0  0  0  0  0  0  0
  141.3010   74.0310  221.1360 C   0  0  0  0  0  0  0  0  0  0  0  0
  139.2792   78.6270  220.4215 H   0  0  0  0  0  0  0  0  0  0  0  0
  140.2287   81.2799  221.0024 H   0  0  0  0  0  0  0  0  0  0  0  0
  143.3261   81.3313  223.9932 H   0  0  0  0  0  0  0  0  0  0  0  0
  143.1770   78.8627  224.1599 H   0  0  0  0  0  0  0  0  0  0  0  0
  141.8220   76.6600  223.1270 H   0  0  0  0  0  0  0  0  0  0  0  0
  139.1299   74.0287  223.3221 H   0  0  0  0  0  0  0  0  0  0  0  0
  138.2603   73.5507  221.8663 H   0  0  0  0  0  0  0  0  0  0  0  0
  138.6899   71.8020  220.6573 H   0  0  0  0  0  0  0  0  0  0  0  0
  139.8269   70.5583  221.0442 H   0  0  0  0  0  0  0  0  0  0  0  0
  137.4100   71.5648  222.6325 H   0  0  0  0  0  0  0  0  0  0  0  0
  137.9673   69.8907  222.4667 H   0  0  0  0  0  0  0  0  0  0  0  0
  138.2282   70.1738  225.2930 H   0  0  0  0  0  0  0  0  0  0  0  0
  141.2406   69.7232  224.7515 H   0  0  0  0  0  0  0  0  0  0  0  0
  140.5863   70.4438  226.1795 H   0  0  0  0  0  0  0  0  0  0  0  0
  141.0337   67.7068  226.0018 H   0  0  0  0  0  0  0  0  0  0  0  0
  139.6540   68.3053  226.9495 H   0  0  0  0  0  0  0  0  0  0  0  0
  139.5920   66.7350  224.6330 H   0  0  0  0  0  0  0  0  0  0  0  0
  139.6734   68.4958  223.1364 H   0  0  0  0  0  0  0  0  0  0  0  0
  137.9590   68.4590  223.4689 H   0  0  0  0  0  0  0  0  0  0  0  0
  140.4229   72.5057  224.3708 H   0  0  0  0  0  0  0  0  0  0  0  0
  141.1122   71.0806  223.5904 H   0  0  0  0  0  0  0  0  0  0  0  0
  142.3591   70.8349  221.6852 H   0  0  0  0  0  0  0  0  0  0  0  0
  144.3648   71.6539  220.4604 H   0  0  0  0  0  0  0  0  0  0  0  0
  144.3851   74.0158  219.6686 H   0  0  0  0  0  0  0  0  0  0  0  0
  142.4705   75.4921  220.0954 H   0  0  0  0  0  0  0  0  0  0  0  0
  1  2  2  0
  2  3  1  0
  3  4  2  0
  4  5  1  0
  5  6  2  0
  6  7  1  0
  7  8  1  0
  7  9  2  0
  9 10  1  0
 10 11  2  0
 11 12  1  0
  2 13  1  0
 13 14  1  0
 15 14  1  1
 15 16  1  0
 16 17  1  0
 17 18  1  0
 18 19  1  0
 19 20  1  0
 20 21  1  0
 21 22  1  0
 22 23  1  0
 18 24  1  0
 15 25  1  0
 25 26  2  0
 26 27  1  0
 27 28  2  0
 28 29  1  0
 29 30  2  0
 12  3  1  0
 30 13  1  0
 11  5  1  0
 24 15  1  0
 30 25  1  0
 23 19  1  0
  4 31  1  0
  6 32  1  0
  9 33  1  0
 10 34  1  0
 12 35  1  0
 14 36  1  0
 14 37  1  0
 16 38  1  0
 16 39  1  0
 17 40  1  0
 17 41  1  0
 19 42  1  1
 20 43  1  0
 20 44  1  0
 21 45  1  0
 21 46  1  0
 22 47  1  0
 23 48  1  0
 23 49  1  0
 24 50  1  0
 24 51  1  0
 26 52  1  0
 27 53  1  0
 28 54  1  0
 29 55  1  0
M  END
>  <smiles>  (35) 
O=C(c1cc2cc(F)ccc2[nH]1)N1CC2(CCN(C3CCNC3)C2)c2ccccc21

>  <score_type>  (35) 
oracle

>  <origin>  (35) 
autodockgpu

>  <m_score__min__energy>  (35) 
-8.3800000000000008

>  <m_primary>  (35) 
energy

>  <meeko>  (35) 
{"free_energy": -8.34, "intermolecular_energy": -9.24, "internal_energy": -1.09, "cluster_size": 20, "cluster_id": 1, "rank_in_cluster": 14}

>  <energy>  (35) 
-8.34

>  <cluster_rmsd>  (35) 
0.22

>  <rmsd>  (35) 
271.23

>  <cluster>  (35) 
1

$$$$

     RDKit          3D

 55 60  0  0  1  0  0  0  0  0999 V2000
  139.0540   76.0670  220.0020 O   0  0  0  0  0  0  0  0  0  0  0  0
  139.9270   75.9210  220.9220 C   0  0  0  0  0  0  0  0  0  0  0  0
  140.5000   77.1270  221.4590 C   0  0  0  0  0  0  0  0  0  0  0  0
  140.1900   78.3880  220.9680 C   0  0  0  0  0  0  0  0  0  0  0  0
  140.8850   79.3550  221.6730 C   0  0  0  0  0  0  0  0  0  0  0  0
  140.9310   80.7300  221.5830 C   0  0  0  0  0  0  0  0  0  0  0  0
  141.7400   81.4460  222.4470 C   0  0  0  0  0  0  0  0  0  0  0  0
  141.7560   82.8030  222.3220 F   0  0  0  0  0  0  0  0  0  0  0  0
  142.4960   80.7800  223.3940 C   0  0  0  0  0  0  0  0  0  0  0  0
  142.4320   79.3990  223.4650 C   0  0  0  0  0  0  0  0  0  0  0  0
  141.6210   78.6730  222.5990 C   0  0  0  0  0  0  0  0  0  0  0  0
  141.3730   77.3460  222.4500 N   0  0  0  0  0  0  0  0  0  0  0  0
  140.2360   74.5940  221.3080 N   0  0  0  0  0  0  0  0  0  0  0  0
  139.4090   73.6850  222.0730 C   0  0  0  0  0  0  0  0  0  0  0  0
  140.1770   72.4100  222.0990 C   0  0  2  0  0  0  0  0  0  0  0  0
  139.3570   71.3490  221.3560 C   0  0  0  0  0  0  0  0  0  0  0  0
  138.3930   70.9590  222.4550 C   0  0  0  0  0  0  0  0  0  0  0  0
  139.1020   71.1220  223.6780 N   0  0  0  0  0  0  0  0  0  0  0  0
  139.1080   69.9950  224.5360 C   0  0  2  0  0  0  0  0  0  0  0  0
  140.3550   69.7830  225.3480 C   0  0  0  0  0  0  0  0  0  0  0  0
  140.0580   68.3810  225.9090 C   0  0  0  0  0  0  0  0  0  0  0  0
  139.1970   67.7340  224.9720 N   0  0  0  0  0  0  0  0  0  0  0  0
  138.9800   68.6560  223.8680 C   0  0  0  0  0  0  0  0  0  0  0  0
  140.3240   71.7820  223.4460 C   0  0  0  0  0  0  0  0  0  0  0  0
  141.4600   72.6590  221.4200 C   0  0  0  0  0  0  0  0  0  0  0  0
  142.5240   71.8000  221.2320 C   0  0  0  0  0  0  0  0  0  0  0  0
  143.6610   72.2060  220.5670 C   0  0  0  0  0  0  0  0  0  0  0  0
  143.6970   73.5000  220.0970 C   0  0  0  0  0  0  0  0  0  0  0  0
  142.6240   74.3530  220.2920 C   0  0  0  0  0  0  0  0  0  0  0  0
  141.4730   73.9680  220.9570 C   0  0  0  0  0  0  0  0  0  0  0  0
  139.4941   78.5890  220.1401 H   0  0  0  0  0  0  0  0  0  0  0  0
  140.3275   81.2550  220.8280 H   0  0  0  0  0  0  0  0  0  0  0  0
  143.1421   81.3422  224.0843 H   0  0  0  0  0  0  0  0  0  0  0  0
  143.0320   78.8673  224.2182 H   0  0  0  0  0  0  0  0  0  0  0  0
  141.8260   76.6480  223.0460 H   0  0  0  0  0  0  0  0  0  0  0  0
  139.2543   74.0660  223.0932 H   0  0  0  0  0  0  0  0  0  0  0  0
  138.4086   73.5604  221.6328 H   0  0  0  0  0  0  0  0  0  0  0  0
  138.8355   71.7705  220.4840 H   0  0  0  0  0  0  0  0  0  0  0  0
  139.9417   70.5195  220.9316 H   0  0  0  0  0  0  0  0  0  0  0  0
  137.5084   71.6125  222.4365 H   0  0  0  0  0  0  0  0  0  0  0  0
  138.0387   69.9251  222.3306 H   0  0  0  0  0  0  0  0  0  0  0  0
  138.2323   70.2754  225.1398 H   0  0  0  0  0  0  0  0  0  0  0  0
  141.2590   69.7911  224.7213 H   0  0  0  0  0  0  0  0  0  0  0  0
  140.5585   70.5560  226.1037 H   0  0  0  0  0  0  0  0  0  0  0  0
  140.9928   67.8118  226.0195 H   0  0  0  0  0  0  0  0  0  0  0  0
  139.5847   68.4452  226.8999 H   0  0  0  0  0  0  0  0  0  0  0  0
  139.5950   66.8110  224.6270 H   0  0  0  0  0  0  0  0  0  0  0  0
  139.7427   68.5269  223.0860 H   0  0  0  0  0  0  0  0  0  0  0  0
  138.0171   68.5103  223.3566 H   0  0  0  0  0  0  0  0  0  0  0  0
  140.4997   72.5504  224.2133 H   0  0  0  0  0  0  0  0  0  0  0  0
  141.1797   71.0921  223.4881 H   0  0  0  0  0  0  0  0  0  0  0  0
  142.4634   70.7725  221.6200 H   0  0  0  0  0  0  0  0  0  0  0  0
  144.5088   71.5213  220.4171 H   0  0  0  0  0  0  0  0  0  0  0  0
  144.5877   73.8597  219.5610 H   0  0  0  0  0  0  0  0  0  0  0  0
  142.6891   75.3795  219.9021 H   0  0  0  0  0  0  0  0  0  0  0  0
  1  2  2  0
  2  3  1  0
  3  4  2  0
  4  5  1  0
  5  6  2  0
  6  7  1  0
  7  8  1  0
  7  9  2  0
  9 10  1  0
 10 11  2  0
 11 12  1  0
  2 13  1  0
 13 14  1  0
 15 14  1  1
 15 16  1  0
 16 17  1  0
 17 18  1  0
 18 19  1  0
 19 20  1  0
 20 21  1  0
 21 22  1  0
 22 23  1  0
 18 24  1  0
 15 25  1  0
 25 26  2  0
 26 27  1  0
 27 28  2  0
 28 29  1  0
 29 30  2  0
 12  3  1  0
 30 13  1  0
 11  5  1  0
 24 15  1  0
 30 25  1  0
 23 19  1  0
  4 31  1  0
  6 32  1  0
  9 33  1  0
 10 34  1  0
 12 35  1  0
 14 36  1  0
 14 37  1  0
 16 38  1  0
 16 39  1  0
 17 40  1  0
 17 41  1  0
 19 42  1  1
 20 43  1  0
 20 44  1  0
 21 45  1  0
 21 46  1  0
 22 47  1  0
 23 48  1  0
 23 49  1  0
 24 50  1  0
 24 51  1  0
 26 52  1  0
 27 53  1  0
 28 54  1  0
 29 55  1  0
M  END
>  <smiles>  (36) 
O=C(c1cc2cc(F)ccc2[nH]1)N1CC2(CCN(C3CCNC3)C2)c2ccccc21

>  <score_type>  (36) 
oracle

>  <origin>  (36) 
autodockgpu

>  <m_score__min__energy>  (36) 
-8.3800000000000008

>  <m_primary>  (36) 
energy

>  <meeko>  (36) 
{"free_energy": -8.37, "intermolecular_energy": -9.27, "internal_energy": -1.08, "cluster_size": 20, "cluster_id": 1, "rank_in_cluster": 6}

>  <energy>  (36) 
-8.33

>  <cluster_rmsd>  (36) 
0.09

>  <rmsd>  (36) 
271.17

>  <cluster>  (36) 
1

$$$$

     RDKit          3D

 55 60  0  0  1  0  0  0  0  0999 V2000
  139.1310   75.9940  219.9060 O   0  0  0  0  0  0  0  0  0  0  0  0
  139.9680   75.8630  220.8620 C   0  0  0  0  0  0  0  0  0  0  0  0
  140.5060   77.0780  221.4140 C   0  0  0  0  0  0  0  0  0  0  0  0
  140.2050   78.3330  220.8990 C   0  0  0  0  0  0  0  0  0  0  0  0
  140.8600   79.3110  221.6260 C   0  0  0  0  0  0  0  0  0  0  0  0
  140.8980   80.6860  221.5270 C   0  0  0  0  0  0  0  0  0  0  0  0
  141.6620   81.4160  222.4190 C   0  0  0  0  0  0  0  0  0  0  0  0
  141.6710   82.7730  222.2840 F   0  0  0  0  0  0  0  0  0  0  0  0
  142.3830   80.7640  223.4040 C   0  0  0  0  0  0  0  0  0  0  0  0
  142.3290   79.3840  223.4820 C   0  0  0  0  0  0  0  0  0  0  0  0
  141.5620   78.6430  222.5890 C   0  0  0  0  0  0  0  0  0  0  0  0
  141.3330   77.3130  222.4390 N   0  0  0  0  0  0  0  0  0  0  0  0
  140.2740   74.5420  221.2690 N   0  0  0  0  0  0  0  0  0  0  0  0
  139.4490   73.6500  222.0570 C   0  0  0  0  0  0  0  0  0  0  0  0
  140.2120   72.3730  222.1000 C   0  0  2  0  0  0  0  0  0  0  0  0
  139.3820   71.3020  221.3830 C   0  0  0  0  0  0  0  0  0  0  0  0
  138.4250   70.9360  222.4960 C   0  0  0  0  0  0  0  0  0  0  0  0
  139.1440   71.1180  223.7110 N   0  0  0  0  0  0  0  0  0  0  0  0
  139.1520   70.0070  224.5900 C   0  0  2  0  0  0  0  0  0  0  0  0
  140.4120   69.7910  225.3800 C   0  0  0  0  0  0  0  0  0  0  0  0
  140.1070   68.4050  225.9720 C   0  0  0  0  0  0  0  0  0  0  0  0
  139.2190   67.7530  225.0650 N   0  0  0  0  0  0  0  0  0  0  0  0
  138.9920   68.6580  223.9480 C   0  0  0  0  0  0  0  0  0  0  0  0
  140.3670   71.7690  223.4580 C   0  0  0  0  0  0  0  0  0  0  0  0
  141.4910   72.6030  221.4080 C   0  0  0  0  0  0  0  0  0  0  0  0
  142.5500   71.7370  221.2270 C   0  0  0  0  0  0  0  0  0  0  0  0
  143.6830   72.1260  220.5460 C   0  0  0  0  0  0  0  0  0  0  0  0
  143.7210   73.4110  220.0520 C   0  0  0  0  0  0  0  0  0  0  0  0
  142.6530   74.2710  220.2400 C   0  0  0  0  0  0  0  0  0  0  0  0
  141.5050   73.9040  220.9200 C   0  0  0  0  0  0  0  0  0  0  0  0
  139.5438   78.5211  220.0403 H   0  0  0  0  0  0  0  0  0  0  0  0
  140.3233   81.1996  220.7422 H   0  0  0  0  0  0  0  0  0  0  0  0
  142.9928   81.3374  224.1177 H   0  0  0  0  0  0  0  0  0  0  0  0
  142.9023   78.8638  224.2634 H   0  0  0  0  0  0  0  0  0  0  0  0
  141.7660   76.6240  223.0610 H   0  0  0  0  0  0  0  0  0  0  0  0
  139.3038   74.0500  223.0714 H   0  0  0  0  0  0  0  0  0  0  0  0
  138.4447   73.5217  221.6270 H   0  0  0  0  0  0  0  0  0  0  0  0
  138.8555   71.7097  220.5074 H   0  0  0  0  0  0  0  0  0  0  0  0
  139.9602   70.4625  220.9695 H   0  0  0  0  0  0  0  0  0  0  0  0
  137.5429   71.5928  222.4724 H   0  0  0  0  0  0  0  0  0  0  0  0
  138.0657   69.9015  222.3929 H   0  0  0  0  0  0  0  0  0  0  0  0
  138.2936   70.3111  225.2070 H   0  0  0  0  0  0  0  0  0  0  0  0
  141.3029   69.7745  224.7349 H   0  0  0  0  0  0  0  0  0  0  0  0
  140.6421   70.5743  226.1172 H   0  0  0  0  0  0  0  0  0  0  0  0
  141.0359   67.8248  226.0747 H   0  0  0  0  0  0  0  0  0  0  0  0
  139.6542   68.4944  226.9705 H   0  0  0  0  0  0  0  0  0  0  0  0
  139.5980   66.8180  224.7290 H   0  0  0  0  0  0  0  0  0  0  0  0
  139.7369   68.5043  223.1533 H   0  0  0  0  0  0  0  0  0  0  0  0
  138.0173   68.5166  223.4581 H   0  0  0  0  0  0  0  0  0  0  0  0
  140.5513   72.5506  224.2097 H   0  0  0  0  0  0  0  0  0  0  0  0
  141.2205   71.0768  223.5065 H   0  0  0  0  0  0  0  0  0  0  0  0
  142.4886   70.7169  221.6340 H   0  0  0  0  0  0  0  0  0  0  0  0
  144.5267   71.4351  220.4021 H   0  0  0  0  0  0  0  0  0  0  0  0
  144.6089   73.7572  219.5026 H   0  0  0  0  0  0  0  0  0  0  0  0
  142.7196   75.2901  219.8313 H   0  0  0  0  0  0  0  0  0  0  0  0
  1  2  2  0
  2  3  1  0
  3  4  2  0
  4  5  1  0
  5  6  2  0
  6  7  1  0
  7  8  1  0
  7  9  2  0
  9 10  1  0
 10 11  2  0
 11 12  1  0
  2 13  1  0
 13 14  1  0
 15 14  1  1
 15 16  1  0
 16 17  1  0
 17 18  1  0
 18 19  1  0
 19 20  1  0
 20 21  1  0
 21 22  1  0
 22 23  1  0
 18 24  1  0
 15 25  1  0
 25 26  2  0
 26 27  1  0
 27 28  2  0
 28 29  1  0
 29 30  2  0
 12  3  1  0
 30 13  1  0
 11  5  1  0
 24 15  1  0
 30 25  1  0
 23 19  1  0
  4 31  1  0
  6 32  1  0
  9 33  1  0
 10 34  1  0
 12 35  1  0
 14 36  1  0
 14 37  1  0
 16 38  1  0
 16 39  1  0
 17 40  1  0
 17 41  1  0
 19 42  1  1
 20 43  1  0
 20 44  1  0
 21 45  1  0
 21 46  1  0
 22 47  1  0
 23 48  1  0
 23 49  1  0
 24 50  1  0
 24 51  1  0
 26 52  1  0
 27 53  1  0
 28 54  1  0
 29 55  1  0
M  END
>  <smiles>  (37) 
O=C(c1cc2cc(F)ccc2[nH]1)N1CC2(CCN(C3CCNC3)C2)c2ccccc21

>  <score_type>  (37) 
oracle

>  <origin>  (37) 
autodockgpu

>  <m_score__min__energy>  (37) 
-8.3800000000000008

>  <m_primary>  (37) 
energy

>  <meeko>  (37) 
{"free_energy": -8.33, "intermolecular_energy": -9.22, "internal_energy": -1.07, "cluster_size": 20, "cluster_id": 1, "rank_in_cluster": 16}

>  <energy>  (37) 
-8.2

>  <cluster_rmsd>  (37) 
1.04

>  <rmsd>  (37) 
271.09

>  <cluster>  (37) 
1

$$$$

     RDKit          3D

 55 60  0  0  1  0  0  0  0  0999 V2000
  139.0100   76.1350  220.0780 O   0  0  0  0  0  0  0  0  0  0  0  0
  139.9050   75.9840  220.9770 C   0  0  0  0  0  0  0  0  0  0  0  0
  140.4950   77.1860  221.5030 C   0  0  0  0  0  0  0  0  0  0  0  0
  140.1870   78.4490  221.0130 C   0  0  0  0  0  0  0  0  0  0  0  0
  140.9000   79.4120  221.7050 C   0  0  0  0  0  0  0  0  0  0  0  0
  140.9560   80.7860  221.6100 C   0  0  0  0  0  0  0  0  0  0  0  0
  141.7840   81.4980  222.4600 C   0  0  0  0  0  0  0  0  0  0  0  0
  141.8090   82.8550  222.3310 F   0  0  0  0  0  0  0  0  0  0  0  0
  142.5490   80.8280  223.3980 C   0  0  0  0  0  0  0  0  0  0  0  0
  142.4760   79.4480  223.4720 C   0  0  0  0  0  0  0  0  0  0  0  0
  141.6460   78.7260  222.6210 C   0  0  0  0  0  0  0  0  0  0  0  0
  141.3850   77.4010  222.4790 N   0  0  0  0  0  0  0  0  0  0  0  0
  140.2170   74.6550  221.3530 N   0  0  0  0  0  0  0  0  0  0  0  0
  139.3890   73.7350  222.1040 C   0  0  0  0  0  0  0  0  0  0  0  0
  140.1630   72.4640  222.1240 C   0  0  2  0  0  0  0  0  0  0  0  0
  139.3530   71.4060  221.3660 C   0  0  0  0  0  0  0  0  0  0  0  0
  138.3830   71.0010  222.4550 C   0  0  0  0  0  0  0  0  0  0  0  0
  139.0830   71.1570  223.6840 N   0  0  0  0  0  0  0  0  0  0  0  0
  139.0890   70.0220  224.5330 C   0  0  2  0  0  0  0  0  0  0  0  0
  140.3250   69.8160  225.3610 C   0  0  0  0  0  0  0  0  0  0  0  0
  140.0360   68.4070  225.9050 C   0  0  0  0  0  0  0  0  0  0  0  0
  139.1970   67.7580  224.9490 N   0  0  0  0  0  0  0  0  0  0  0  0
  138.9860   68.6880  223.8500 C   0  0  0  0  0  0  0  0  0  0  0  0
  140.3030   71.8250  223.4670 C   0  0  0  0  0  0  0  0  0  0  0  0
  141.4500   72.7240  221.4570 C   0  0  0  0  0  0  0  0  0  0  0  0
  142.5190   71.8720  221.2680 C   0  0  0  0  0  0  0  0  0  0  0  0
  143.6580   72.2900  220.6140 C   0  0  0  0  0  0  0  0  0  0  0  0
  143.6910   73.5880  220.1560 C   0  0  0  0  0  0  0  0  0  0  0  0
  142.6130   74.4340  220.3510 C   0  0  0  0  0  0  0  0  0  0  0  0
  141.4590   74.0380  221.0050 C   0  0  0  0  0  0  0  0  0  0  0  0
  139.4803   78.6534  220.1952 H   0  0  0  0  0  0  0  0  0  0  0  0
  140.3457   81.3138  220.8624 H   0  0  0  0  0  0  0  0  0  0  0  0
  143.2087   81.3866  224.0782 H   0  0  0  0  0  0  0  0  0  0  0  0
  143.0845   78.9133  224.2162 H   0  0  0  0  0  0  0  0  0  0  0  0
  141.8410   76.7010  223.0700 H   0  0  0  0  0  0  0  0  0  0  0  0
  139.2252   74.1060  223.1265 H   0  0  0  0  0  0  0  0  0  0  0  0
  138.3924   73.6095  221.6557 H   0  0  0  0  0  0  0  0  0  0  0  0
  138.8354   71.8330  220.4943 H   0  0  0  0  0  0  0  0  0  0  0  0
  139.9446   70.5832  220.9382 H   0  0  0  0  0  0  0  0  0  0  0  0
  137.4950   71.6500  222.4362 H   0  0  0  0  0  0  0  0  0  0  0  0
  138.0348   69.9665  222.3190 H   0  0  0  0  0  0  0  0  0  0  0  0
  138.2020   70.2874  225.1270 H   0  0  0  0  0  0  0  0  0  0  0  0
  141.2380   69.8396  224.7479 H   0  0  0  0  0  0  0  0  0  0  0  0
  140.5085   70.5843  226.1265 H   0  0  0  0  0  0  0  0  0  0  0  0
  140.9756   67.8478  226.0253 H   0  0  0  0  0  0  0  0  0  0  0  0
  139.5467   68.4572  226.8889 H   0  0  0  0  0  0  0  0  0  0  0  0
  139.6100   66.8430  224.6030 H   0  0  0  0  0  0  0  0  0  0  0  0
  139.7617   68.5749  223.0783 H   0  0  0  0  0  0  0  0  0  0  0  0
  138.0327   68.5364  223.3225 H   0  0  0  0  0  0  0  0  0  0  0  0
  140.4690   72.5876  224.2421 H   0  0  0  0  0  0  0  0  0  0  0  0
  141.1619   71.1390  223.5096 H   0  0  0  0  0  0  0  0  0  0  0  0
  142.4611   70.8407  221.6461 H   0  0  0  0  0  0  0  0  0  0  0  0
  144.5101   71.6109  220.4634 H   0  0  0  0  0  0  0  0  0  0  0  0
  144.5837   73.9566  219.6295 H   0  0  0  0  0  0  0  0  0  0  0  0
  142.6759   75.4641  219.9703 H   0  0  0  0  0  0  0  0  0  0  0  0
  1  2  2  0
  2  3  1  0
  3  4  2  0
  4  5  1  0
  5  6  2  0
  6  7  1  0
  7  8  1  0
  7  9  2  0
  9 10  1  0
 10 11  2  0
 11 12  1  0
  2 13  1  0
 13 14  1  0
 15 14  1  1
 15 16  1  0
 16 17  1  0
 17 18  1  0
 18 19  1  0
 19 20  1  0
 20 21  1  0
 21 22  1  0
 22 23  1  0
 18 24  1  0
 15 25  1  0
 25 26  2  0
 26 27  1  0
 27 28  2  0
 28 29  1  0
 29 30  2  0
 12  3  1  0
 30 13  1  0
 11  5  1  0
 24 15  1  0
 30 25  1  0
 23 19  1  0
  4 31  1  0
  6 32  1  0
  9 33  1  0
 10 34  1  0
 12 35  1  0
 14 36  1  0
 14 37  1  0
 16 38  1  0
 16 39  1  0
 17 40  1  0
 17 41  1  0
 19 42  1  1
 20 43  1  0
 20 44  1  0
 21 45  1  0
 21 46  1  0
 22 47  1  0
 23 48  1  0
 23 49  1  0
 24 50  1  0
 24 51  1  0
 26 52  1  0
 27 53  1  0
 28 54  1  0
 29 55  1  0
M  END
>  <smiles>  (38) 
O=C(c1cc2cc(F)ccc2[nH]1)N1CC2(CCN(C3CCNC3)C2)c2ccccc21

>  <score_type>  (38) 
oracle

>  <origin>  (38) 
autodockgpu

>  <m_score__min__energy>  (38) 
-8.3800000000000008

>  <m_primary>  (38) 
energy

>  <meeko>  (38) 
{"free_energy": -8.37, "intermolecular_energy": -9.27, "internal_energy": -1.08, "cluster_size": 20, "cluster_id": 1, "rank_in_cluster": 4}

>  <energy>  (38) 
-8.19

>  <cluster_rmsd>  (38) 
1.05

>  <rmsd>  (38) 
271.08

>  <cluster>  (38) 
1

$$$$

     RDKit          3D

 55 60  0  0  1  0  0  0  0  0999 V2000
  138.8750   75.9490  219.8890 O   0  0  0  0  0  0  0  0  0  0  0  0
  139.8000   75.8580  220.7650 C   0  0  0  0  0  0  0  0  0  0  0  0
  140.3850   77.0960  221.2090 C   0  0  0  0  0  0  0  0  0  0  0  0
  140.8800   77.2720  222.4960 C   0  0  0  0  0  0  0  0  0  0  0  0
  141.3800   78.5540  222.6390 C   0  0  0  0  0  0  0  0  0  0  0  0
  141.9690   79.2190  223.6930 C   0  0  0  0  0  0  0  0  0  0  0  0
  142.3770   80.5310  223.5330 C   0  0  0  0  0  0  0  0  0  0  0  0
  142.9540   81.1500  224.6020 F   0  0  0  0  0  0  0  0  0  0  0  0
  142.1940   81.1660  222.3180 C   0  0  0  0  0  0  0  0  0  0  0  0
  141.6000   80.4780  221.2750 C   0  0  0  0  0  0  0  0  0  0  0  0
  141.1870   79.1590  221.4290 C   0  0  0  0  0  0  0  0  0  0  0  0
  140.5910   78.2660  220.5950 N   0  0  0  0  0  0  0  0  0  0  0  0
  140.1470   74.5560  221.2000 N   0  0  0  0  0  0  0  0  0  0  0  0
  139.3420   73.6480  221.9900 C   0  0  0  0  0  0  0  0  0  0  0  0
  140.1500   72.4000  222.0660 C   0  0  2  0  0  0  0  0  0  0  0  0
  139.3700   71.2880  221.3540 C   0  0  0  0  0  0  0  0  0  0  0  0
  138.4090   70.9060  222.4580 C   0  0  0  0  0  0  0  0  0  0  0  0
  139.1010   71.1340  223.6800 N   0  0  0  0  0  0  0  0  0  0  0  0
  139.1350   70.0380  224.5780 C   0  0  2  0  0  0  0  0  0  0  0  0
  140.4120   69.8450  225.3460 C   0  0  0  0  0  0  0  0  0  0  0  0
  140.1290   68.4670  225.9690 C   0  0  0  0  0  0  0  0  0  0  0  0
  139.2280   67.7930  225.0910 N   0  0  0  0  0  0  0  0  0  0  0  0
  138.9720   68.6770  223.9640 C   0  0  0  0  0  0  0  0  0  0  0  0
  140.3030   71.8240  223.4360 C   0  0  0  0  0  0  0  0  0  0  0  0
  141.4300   72.6660  221.3900 C   0  0  0  0  0  0  0  0  0  0  0  0
  142.5230   71.8360  221.2410 C   0  0  0  0  0  0  0  0  0  0  0  0
  143.6520   72.2550  220.5710 C   0  0  0  0  0  0  0  0  0  0  0  0
  143.6520   73.5320  220.0560 C   0  0  0  0  0  0  0  0  0  0  0  0
  142.5500   74.3560  220.2120 C   0  0  0  0  0  0  0  0  0  0  0  0
  141.4060   73.9580  220.8810 C   0  0  0  0  0  0  0  0  0  0  0  0
  140.8749   76.5050  223.2845 H   0  0  0  0  0  0  0  0  0  0  0  0
  142.1139   78.7088  224.6567 H   0  0  0  0  0  0  0  0  0  0  0  0
  142.5178   82.2085  222.1822 H   0  0  0  0  0  0  0  0  0  0  0  0
  141.4521   80.9822  220.3086 H   0  0  0  0  0  0  0  0  0  0  0  0
  140.3540   78.5140  219.6310 H   0  0  0  0  0  0  0  0  0  0  0  0
  139.1663   74.0588  222.9952 H   0  0  0  0  0  0  0  0  0  0  0  0
  138.3498   73.4766  221.5470 H   0  0  0  0  0  0  0  0  0  0  0  0
  138.8434   71.6623  220.4637 H   0  0  0  0  0  0  0  0  0  0  0  0
  139.9843   70.4632  220.9636 H   0  0  0  0  0  0  0  0  0  0  0  0
  137.5043   71.5299  222.4094 H   0  0  0  0  0  0  0  0  0  0  0  0
  138.0888   69.8576  222.3671 H   0  0  0  0  0  0  0  0  0  0  0  0
  138.2866   70.3470  225.2063 H   0  0  0  0  0  0  0  0  0  0  0  0
  141.2898   69.8232  224.6834 H   0  0  0  0  0  0  0  0  0  0  0  0
  140.6511   70.6430  226.0643 H   0  0  0  0  0  0  0  0  0  0  0  0
  141.0640   67.8953  226.0635 H   0  0  0  0  0  0  0  0  0  0  0  0
  139.6956   68.5708  226.9747 H   0  0  0  0  0  0  0  0  0  0  0  0
  139.6060   66.8560  224.7640 H   0  0  0  0  0  0  0  0  0  0  0  0
  139.7017   68.5145  223.1571 H   0  0  0  0  0  0  0  0  0  0  0  0
  137.9883   68.5204  223.4972 H   0  0  0  0  0  0  0  0  0  0  0  0
  140.4465   72.6238  224.1774 H   0  0  0  0  0  0  0  0  0  0  0  0
  141.1796   71.1636  223.5099 H   0  0  0  0  0  0  0  0  0  0  0  0
  142.4922   70.8214  221.6649 H   0  0  0  0  0  0  0  0  0  0  0  0
  144.5222   71.5928  220.4519 H   0  0  0  0  0  0  0  0  0  0  0  0
  144.5360   73.9012  219.5154 H   0  0  0  0  0  0  0  0  0  0  0  0
  142.5856   75.3696  219.7862 H   0  0  0  0  0  0  0  0  0  0  0  0
  1  2  2  0
  2  3  1  0
  3  4  2  0
  4  5  1  0
  5  6  2  0
  6  7  1  0
  7  8  1  0
  7  9  2  0
  9 10  1  0
 10 11  2  0
 11 12  1  0
  2 13  1  0
 13 14  1  0
 15 14  1  1
 15 16  1  0
 16 17  1  0
 17 18  1  0
 18 19  1  0
 19 20  1  0
 20 21  1  0
 21 22  1  0
 22 23  1  0
 18 24  1  0
 15 25  1  0
 25 26  2  0
 26 27  1  0
 27 28  2  0
 28 29  1  0
 29 30  2  0
 12  3  1  0
 30 13  1  0
 11  5  1  0
 24 15  1  0
 30 25  1  0
 23 19  1  0
  4 31  1  0
  6 32  1  0
  9 33  1  0
 10 34  1  0
 12 35  1  0
 14 36  1  0
 14 37  1  0
 16 38  1  0
 16 39  1  0
 17 40  1  0
 17 41  1  0
 19 42  1  1
 20 43  1  0
 20 44  1  0
 21 45  1  0
 21 46  1  0
 22 47  1  0
 23 48  1  0
 23 49  1  0
 24 50  1  0
 24 51  1  0
 26 52  1  0
 27 53  1  0
 28 54  1  0
 29 55  1  0
M  END
>  <smiles>  (39) 
O=C(c1cc2cc(F)ccc2[nH]1)N1CC2(CCN(C3CCNC3)C2)c2ccccc21

>  <score_type>  (39) 
oracle

>  <origin>  (39) 
autodockgpu

>  <m_score__min__energy>  (39) 
-8.3800000000000008

>  <m_primary>  (39) 
energy

>  <meeko>  (39) 
{"free_energy": -8.19, "intermolecular_energy": -9.09, "internal_energy": -1.18, "cluster_size": 20, "cluster_id": 1, "rank_in_cluster": 19}

>  <energy>  (39) 
-8.19

>  <cluster_rmsd>  (39) 
1.04

>  <rmsd>  (39) 
271.1

>  <cluster>  (39) 
1

$$$$

     RDKit          3D

 55 60  0  0  1  0  0  0  0  0999 V2000
  139.0110   76.1220  220.0570 O   0  0  0  0  0  0  0  0  0  0  0  0
  139.9010   75.9720  220.9610 C   0  0  0  0  0  0  0  0  0  0  0  0
  140.4870   77.1750  221.4890 C   0  0  0  0  0  0  0  0  0  0  0  0
  140.1700   78.4390  221.0050 C   0  0  0  0  0  0  0  0  0  0  0  0
  140.8810   79.4030  221.6970 C   0  0  0  0  0  0  0  0  0  0  0  0
  140.9300   80.7780  221.6080 C   0  0  0  0  0  0  0  0  0  0  0  0
  141.7570   81.4900  222.4560 C   0  0  0  0  0  0  0  0  0  0  0  0
  141.7740   82.8480  222.3330 F   0  0  0  0  0  0  0  0  0  0  0  0
  142.5300   80.8210  223.3880 C   0  0  0  0  0  0  0  0  0  0  0  0
  142.4650   79.4410  223.4580 C   0  0  0  0  0  0  0  0  0  0  0  0
  141.6350   78.7170  222.6080 C   0  0  0  0  0  0  0  0  0  0  0  0
  141.3810   77.3910  222.4610 N   0  0  0  0  0  0  0  0  0  0  0  0
  140.2120   74.6440  221.3410 N   0  0  0  0  0  0  0  0  0  0  0  0
  139.3820   73.7260  222.0930 C   0  0  0  0  0  0  0  0  0  0  0  0
  140.1550   72.4550  222.1170 C   0  0  2  0  0  0  0  0  0  0  0  0
  139.3460   71.3950  221.3600 C   0  0  0  0  0  0  0  0  0  0  0  0
  138.3740   70.9930  222.4470 C   0  0  0  0  0  0  0  0  0  0  0  0
  139.0710   71.1520  223.6780 N   0  0  0  0  0  0  0  0  0  0  0  0
  139.0750   70.0190  224.5290 C   0  0  2  0  0  0  0  0  0  0  0  0
  140.2990   69.8280  225.3790 C   0  0  0  0  0  0  0  0  0  0  0  0
  140.0150   68.4170  225.9220 C   0  0  0  0  0  0  0  0  0  0  0  0
  139.2000   67.7570  224.9530 N   0  0  0  0  0  0  0  0  0  0  0  0
  138.9980   68.6830  223.8480 C   0  0  0  0  0  0  0  0  0  0  0  0
  140.2920   71.8190  223.4620 C   0  0  0  0  0  0  0  0  0  0  0  0
  141.4430   72.7130  221.4520 C   0  0  0  0  0  0  0  0  0  0  0  0
  142.5130   71.8600  221.2680 C   0  0  0  0  0  0  0  0  0  0  0  0
  143.6540   72.2760  220.6160 C   0  0  0  0  0  0  0  0  0  0  0  0
  143.6880   73.5730  220.1540 C   0  0  0  0  0  0  0  0  0  0  0  0
  142.6100   74.4190  220.3450 C   0  0  0  0  0  0  0  0  0  0  0  0
  141.4540   74.0260  220.9970 C   0  0  0  0  0  0  0  0  0  0  0  0
  139.4584   78.6427  220.1913 H   0  0  0  0  0  0  0  0  0  0  0  0
  140.3136   81.3059  220.8654 H   0  0  0  0  0  0  0  0  0  0  0  0
  143.1900   81.3810  224.0669 H   0  0  0  0  0  0  0  0  0  0  0  0
  143.0796   78.9073  224.1978 H   0  0  0  0  0  0  0  0  0  0  0  0
  141.8430   76.6920  223.0480 H   0  0  0  0  0  0  0  0  0  0  0  0
  139.2168   74.0994  223.1144 H   0  0  0  0  0  0  0  0  0  0  0  0
  138.3860   73.6001  221.6435 H   0  0  0  0  0  0  0  0  0  0  0  0
  138.8304   71.8200  220.4862 H   0  0  0  0  0  0  0  0  0  0  0  0
  139.9384   70.5709  220.9358 H   0  0  0  0  0  0  0  0  0  0  0  0
  137.4861   71.6420  222.4244 H   0  0  0  0  0  0  0  0  0  0  0  0
  138.0262   69.9581  222.3127 H   0  0  0  0  0  0  0  0  0  0  0  0
  138.1750   70.2761  225.1068 H   0  0  0  0  0  0  0  0  0  0  0  0
  141.2221   69.8595  224.7817 H   0  0  0  0  0  0  0  0  0  0  0  0
  140.4613   70.6002  226.1454 H   0  0  0  0  0  0  0  0  0  0  0  0
  140.9580   67.8679  226.0605 H   0  0  0  0  0  0  0  0  0  0  0  0
  139.5079   68.4646  226.8970 H   0  0  0  0  0  0  0  0  0  0  0  0
  139.6290   66.8460  224.6160 H   0  0  0  0  0  0  0  0  0  0  0  0
  139.7880   68.5765  223.0900 H   0  0  0  0  0  0  0  0  0  0  0  0
  138.0555   68.5202  223.3047 H   0  0  0  0  0  0  0  0  0  0  0  0
  140.4567   72.5834  224.2357 H   0  0  0  0  0  0  0  0  0  0  0  0
  141.1505   71.1328  223.5081 H   0  0  0  0  0  0  0  0  0  0  0  0
  142.4539   70.8297  221.6487 H   0  0  0  0  0  0  0  0  0  0  0  0
  144.5067   71.5966  220.4699 H   0  0  0  0  0  0  0  0  0  0  0  0
  144.5815   73.9401  219.6277 H   0  0  0  0  0  0  0  0  0  0  0  0
  142.6744   75.4482  219.9622 H   0  0  0  0  0  0  0  0  0  0  0  0
  1  2  2  0
  2  3  1  0
  3  4  2  0
  4  5  1  0
  5  6  2  0
  6  7  1  0
  7  8  1  0
  7  9  2  0
  9 10  1  0
 10 11  2  0
 11 12  1  0
  2 13  1  0
 13 14  1  0
 15 14  1  1
 15 16  1  0
 16 17  1  0
 17 18  1  0
 18 19  1  0
 19 20  1  0
 20 21  1  0
 21 22  1  0
 22 23  1  0
 18 24  1  0
 15 25  1  0
 25 26  2  0
 26 27  1  0
 27 28  2  0
 28 29  1  0
 29 30  2  0
 12  3  1  0
 30 13  1  0
 11  5  1  0
 24 15  1  0
 30 25  1  0
 23 19  1  0
  4 31  1  0
  6 32  1  0
  9 33  1  0
 10 34  1  0
 12 35  1  0
 14 36  1  0
 14 37  1  0
 16 38  1  0
 16 39  1  0
 17 40  1  0
 17 41  1  0
 19 42  1  1
 20 43  1  0
 20 44  1  0
 21 45  1  0
 21 46  1  0
 22 47  1  0
 23 48  1  0
 23 49  1  0
 24 50  1  0
 24 51  1  0
 26 52  1  0
 27 53  1  0
 28 54  1  0
 29 55  1  0
M  END
>  <smiles>  (40) 
O=C(c1cc2cc(F)ccc2[nH]1)N1CC2(CCN(C3CCNC3)C2)c2ccccc21

>  <score_type>  (40) 
oracle

>  <origin>  (40) 
autodockgpu

>  <m_score__min__energy>  (40) 
-8.3800000000000008

>  <m_primary>  (40) 
energy

>  <meeko>  (40) 
{"free_energy": -8.36, "intermolecular_energy": -9.26, "internal_energy": -1.08, "cluster_size": 20, "cluster_id": 1, "rank_in_cluster": 12}

>  <energy>  (40) 
-8.19

>  <cluster_rmsd>  (40) 
1.04

>  <rmsd>  (40) 
271.09

>  <cluster>  (40) 
1

$$$$

     RDKit          3D

 55 60  0  0  1  0  0  0  0  0999 V2000
  139.6500   73.7390  222.3230 O   0  0  0  0  0  0  0  0  0  0  0  0
  140.4560   74.5200  221.7000 C   0  0  0  0  0  0  0  0  0  0  0  0
  141.6740   73.9030  221.2190 C   0  0  0  0  0  0  0  0  0  0  0  0
  141.9630   72.5820  220.9430 C   0  0  0  0  0  0  0  0  0  0  0  0
  143.2900   72.5380  220.5150 C   0  0  0  0  0  0  0  0  0  0  0  0
  144.1390   71.5350  220.1030 C   0  0  0  0  0  0  0  0  0  0  0  0
  145.4440   71.7660  219.7200 C   0  0  0  0  0  0  0  0  0  0  0  0
  146.2740   70.7530  219.3130 F   0  0  0  0  0  0  0  0  0  0  0  0
  145.8830   73.0720  219.7630 C   0  0  0  0  0  0  0  0  0  0  0  0
  145.0940   74.1290  220.1640 C   0  0  0  0  0  0  0  0  0  0  0  0
  143.7830   73.8250  220.5390 C   0  0  0  0  0  0  0  0  0  0  0  0
  142.7970   74.6370  220.9650 N   0  0  0  0  0  0  0  0  0  0  0  0
  140.0720   75.8510  221.5580 N   0  0  0  0  0  0  0  0  0  0  0  0
  140.8360   76.9230  220.8830 C   0  0  0  0  0  0  0  0  0  0  0  0
  140.6450   78.0330  221.8910 C   0  0  1  0  0  0  0  0  0  0  0  0
  141.4480   77.8030  223.1540 C   0  0  0  0  0  0  0  0  0  0  0  0
  141.4330   79.2260  223.7300 C   0  0  0  0  0  0  0  0  0  0  0  0
  141.7940   80.0050  222.5590 N   0  0  0  0  0  0  0  0  0  0  0  0
  141.3020   81.3660  222.6100 C   0  0  1  0  0  0  0  0  0  0  0  0
  141.4150   82.0900  221.3060 C   0  0  0  0  0  0  0  0  0  0  0  0
  139.9900   82.4260  220.9660 C   0  0  0  0  0  0  0  0  0  0  0  0
  139.2650   82.4040  222.2390 N   0  0  0  0  0  0  0  0  0  0  0  0
  139.7940   81.2290  222.8680 C   0  0  0  0  0  0  0  0  0  0  0  0
  141.0770   79.3780  221.4470 C   0  0  0  0  0  0  0  0  0  0  0  0
  139.2090   77.8870  222.2170 C   0  0  0  0  0  0  0  0  0  0  0  0
  138.1920   78.7110  222.6530 C   0  0  0  0  0  0  0  0  0  0  0  0
  136.9180   78.2390  222.8770 C   0  0  0  0  0  0  0  0  0  0  0  0
  136.5940   76.8950  222.6720 C   0  0  0  0  0  0  0  0  0  0  0  0
  137.6180   76.0480  222.2310 C   0  0  0  0  0  0  0  0  0  0  0  0
  138.8940   76.5360  222.0090 C   0  0  0  0  0  0  0  0  0  0  0  0
  141.2778   71.7271  221.0417 H   0  0  0  0  0  0  0  0  0  0  0  0
  143.7594   70.5029  220.0782 H   0  0  0  0  0  0  0  0  0  0  0  0
  146.9196   73.2823  219.4608 H   0  0  0  0  0  0  0  0  0  0  0  0
  145.4774   75.1598  220.1875 H   0  0  0  0  0  0  0  0  0  0  0  0
  142.9030   75.6650  221.0770 H   0  0  0  0  0  0  0  0  0  0  0  0
  141.8963   76.6572  220.7604 H   0  0  0  0  0  0  0  0  0  0  0  0
  140.5109   77.1578  219.8587 H   0  0  0  0  0  0  0  0  0  0  0  0
  140.9576   77.0835  223.8262 H   0  0  0  0  0  0  0  0  0  0  0  0
  142.4482   77.3721  222.9996 H   0  0  0  0  0  0  0  0  0  0  0  0
  140.4355   79.4992  224.1047 H   0  0  0  0  0  0  0  0  0  0  0  0
  142.0987   79.3718  224.5935 H   0  0  0  0  0  0  0  0  0  0  0  0
  141.8795   81.9217  223.3635 H   0  0  0  0  0  0  0  0  0  0  0  0
  142.0190   83.0029  221.4143 H   0  0  0  0  0  0  0  0  0  0  0  0
  141.9120   81.4936  220.5267 H   0  0  0  0  0  0  0  0  0  0  0  0
  139.9299   83.4239  220.5072 H   0  0  0  0  0  0  0  0  0  0  0  0
  139.5653   81.7135  220.2436 H   0  0  0  0  0  0  0  0  0  0  0  0
  138.2360   82.2020  222.0570 H   0  0  0  0  0  0  0  0  0  0  0  0
  139.5739   81.2214  223.9457 H   0  0  0  0  0  0  0  0  0  0  0  0
  139.3655   80.2929  222.4806 H   0  0  0  0  0  0  0  0  0  0  0  0
  140.1990   79.9837  221.1783 H   0  0  0  0  0  0  0  0  0  0  0  0
  141.7277   79.3014  220.5634 H   0  0  0  0  0  0  0  0  0  0  0  0
  138.4051   79.7761  222.8268 H   0  0  0  0  0  0  0  0  0  0  0  0
  136.1393   78.9340  223.2244 H   0  0  0  0  0  0  0  0  0  0  0  0
  135.5760   76.5180  222.8498 H   0  0  0  0  0  0  0  0  0  0  0  0
  137.4059   74.9824  222.0590 H   0  0  0  0  0  0  0  0  0  0  0  0
  1  2  2  0
  2  3  1  0
  3  4  2  0
  4  5  1  0
  5  6  2  0
  6  7  1  0
  7  8  1  0
  7  9  2  0
  9 10  1  0
 10 11  2  0
 11 12  1  0
  2 13  1  0
 13 14  1  0
 15 14  1  6
 15 16  1  0
 16 17  1  0
 17 18  1  0
 18 19  1  0
 19 20  1  0
 20 21  1  0
 21 22  1  0
 22 23  1  0
 18 24  1  0
 15 25  1  0
 25 26  2  0
 26 27  1  0
 27 28  2  0
 28 29  1  0
 29 30  2  0
 12  3  1  0
 30 13  1  0
 11  5  1  0
 24 15  1  0
 30 25  1  0
 23 19  1  0
  4 31  1  0
  6 32  1  0
  9 33  1  0
 10 34  1  0
 12 35  1  0
 14 36  1  0
 14 37  1  0
 16 38  1  0
 16 39  1  0
 17 40  1  0
 17 41  1  0
 19 42  1  1
 20 43  1  0
 20 44  1  0
 21 45  1  0
 21 46  1  0
 22 47  1  0
 23 48  1  0
 23 49  1  0
 24 50  1  0
 24 51  1  0
 26 52  1  0
 27 53  1  0
 28 54  1  0
 29 55  1  0
M  END
>  <smiles>  (41) 
O=C(c1cc2cc(F)ccc2[nH]1)N1CC2(CCN(C3CCNC3)C2)c2ccccc21

>  <score_type>  (41) 
oracle

>  <origin>  (41) 
autodockgpu

>  <m_score__min__energy>  (41) 
-8.2599999999999998

>  <m_primary>  (41) 
energy

>  <meeko>  (41) 
{"free_energy": -8.24, "intermolecular_energy": -9.14, "internal_energy": -1.13, "cluster_size": 9, "cluster_id": 1, "rank_in_cluster": 3}

>  <energy>  (41) 
-8.26

>  <cluster_rmsd>  (41) 
0.0

>  <rmsd>  (41) 
271.33

>  <cluster>  (41) 
1

$$$$

     RDKit          3D

 55 60  0  0  1  0  0  0  0  0999 V2000
  139.9210   74.6070  222.3190 O   0  0  0  0  0  0  0  0  0  0  0  0
  140.7940   75.1270  221.5350 C   0  0  0  0  0  0  0  0  0  0  0  0
  141.8440   74.2330  221.0930 C   0  0  0  0  0  0  0  0  0  0  0  0
  141.8260   72.8740  220.8560 C   0  0  0  0  0  0  0  0  0  0  0  0
  143.1120   72.5140  220.4540 C   0  0  0  0  0  0  0  0  0  0  0  0
  143.7130   71.3310  220.0850 C   0  0  0  0  0  0  0  0  0  0  0  0
  145.0400   71.2460  219.7200 C   0  0  0  0  0  0  0  0  0  0  0  0
  145.6210   70.0580  219.3550 F   0  0  0  0  0  0  0  0  0  0  0  0
  145.7680   72.4170  219.7380 C   0  0  0  0  0  0  0  0  0  0  0  0
  145.2370   73.6390  220.0960 C   0  0  0  0  0  0  0  0  0  0  0  0
  143.8860   73.6540  220.4540 C   0  0  0  0  0  0  0  0  0  0  0  0
  143.1080   74.6830  220.8410 N   0  0  0  0  0  0  0  0  0  0  0  0
  140.6340   76.4690  221.2010 N   0  0  0  0  0  0  0  0  0  0  0  0
  139.8810   77.0090  220.0480 C   0  0  0  0  0  0  0  0  0  0  0  0
  140.8630   78.0580  219.5830 C   0  0  1  0  0  0  0  0  0  0  0  0
  142.0820   77.4490  218.9230 C   0  0  0  0  0  0  0  0  0  0  0  0
  142.6130   78.6820  218.1770 C   0  0  0  0  0  0  0  0  0  0  0  0
  141.3980   79.1740  217.5520 N   0  0  0  0  0  0  0  0  0  0  0  0
  141.4360   80.5970  217.2840 C   0  0  1  0  0  0  0  0  0  0  0  0
  142.2340   81.3720  218.2830 C   0  0  0  0  0  0  0  0  0  0  0  0
  143.3280   81.9880  217.4580 C   0  0  0  0  0  0  0  0  0  0  0  0
  142.8160   82.0190  216.0850 N   0  0  0  0  0  0  0  0  0  0  0  0
  142.2070   80.7270  215.9610 C   0  0  0  0  0  0  0  0  0  0  0  0
  140.3520   79.0010  218.5610 C   0  0  0  0  0  0  0  0  0  0  0  0
  141.2800   78.6590  220.8700 C   0  0  0  0  0  0  0  0  0  0  0  0
  141.7500   79.8830  221.2980 C   0  0  0  0  0  0  0  0  0  0  0  0
  142.0660   80.1210  222.6180 C   0  0  0  0  0  0  0  0  0  0  0  0
  141.9230   79.1270  223.5900 C   0  0  0  0  0  0  0  0  0  0  0  0
  141.4470   77.8790  223.1680 C   0  0  0  0  0  0  0  0  0  0  0  0
  141.1340   77.6550  221.8380 C   0  0  0  0  0  0  0  0  0  0  0  0
  140.9617   72.2021  220.9636 H   0  0  0  0  0  0  0  0  0  0  0  0
  143.1073   70.4128  220.0813 H   0  0  0  0  0  0  0  0  0  0  0  0
  146.8292   72.3745  219.4515 H   0  0  0  0  0  0  0  0  0  0  0  0
  145.8460   74.5550  220.0995 H   0  0  0  0  0  0  0  0  0  0  0  0
  143.4450   75.6620  220.9280 H   0  0  0  0  0  0  0  0  0  0  0  0
  139.7026   76.2433  219.2787 H   0  0  0  0  0  0  0  0  0  0  0  0
  138.8715   77.3801  220.2786 H   0  0  0  0  0  0  0  0  0  0  0  0
  142.8048   77.0750  219.6630 H   0  0  0  0  0  0  0  0  0  0  0  0
  141.8814   76.5713  218.2910 H   0  0  0  0  0  0  0  0  0  0  0  0
  143.0380   79.4219  218.8712 H   0  0  0  0  0  0  0  0  0  0  0  0
  143.4301   78.4679  217.4724 H   0  0  0  0  0  0  0  0  0  0  0  0
  140.4064   80.9841  217.2919 H   0  0  0  0  0  0  0  0  0  0  0  0
  141.6181   82.1479  218.7612 H   0  0  0  0  0  0  0  0  0  0  0  0
  142.6168   80.7465  219.1029 H   0  0  0  0  0  0  0  0  0  0  0  0
  143.5465   83.0072  217.8095 H   0  0  0  0  0  0  0  0  0  0  0  0
  144.2643   81.4152  217.5305 H   0  0  0  0  0  0  0  0  0  0  0  0
  143.6340   82.0250  215.4030 H   0  0  0  0  0  0  0  0  0  0  0  0
  141.5258   80.6893  215.0981 H   0  0  0  0  0  0  0  0  0  0  0  0
  142.9296   79.9150  215.7919 H   0  0  0  0  0  0  0  0  0  0  0  0
  140.1184   79.9691  219.0281 H   0  0  0  0  0  0  0  0  0  0  0  0
  139.4335   78.6088  218.1001 H   0  0  0  0  0  0  0  0  0  0  0  0
  141.8763   80.6928  220.5643 H   0  0  0  0  0  0  0  0  0  0  0  0
  142.4383   81.1133  222.9126 H   0  0  0  0  0  0  0  0  0  0  0  0
  142.1741   79.3170  224.6440 H   0  0  0  0  0  0  0  0  0  0  0  0
  141.3206   77.0685  223.9009 H   0  0  0  0  0  0  0  0  0  0  0  0
  1  2  2  0
  2  3  1  0
  3  4  2  0
  4  5  1  0
  5  6  2  0
  6  7  1  0
  7  8  1  0
  7  9  2  0
  9 10  1  0
 10 11  2  0
 11 12  1  0
  2 13  1  0
 13 14  1  0
 15 14  1  1
 15 16  1  0
 16 17  1  0
 17 18  1  0
 18 19  1  0
 19 20  1  0
 20 21  1  0
 21 22  1  0
 22 23  1  0
 18 24  1  0
 15 25  1  0
 25 26  2  0
 26 27  1  0
 27 28  2  0
 28 29  1  0
 29 30  2  0
 12  3  1  0
 30 13  1  0
 11  5  1  0
 24 15  1  0
 30 25  1  0
 23 19  1  0
  4 31  1  0
  6 32  1  0
  9 33  1  0
 10 34  1  0
 12 35  1  0
 14 36  1  0
 14 37  1  0
 16 38  1  0
 16 39  1  0
 17 40  1  0
 17 41  1  0
 19 42  1  6
 20 43  1  0
 20 44  1  0
 21 45  1  0
 21 46  1  0
 22 47  1  0
 23 48  1  0
 23 49  1  0
 24 50  1  0
 24 51  1  0
 26 52  1  0
 27 53  1  0
 28 54  1  0
 29 55  1  0
M  END
>  <smiles>  (42) 
O=C(c1cc2cc(F)ccc2[nH]1)N1CC2(CCN(C3CCNC3)C2)c2ccccc21

>  <score_type>  (42) 
oracle

>  <origin>  (42) 
autodockgpu

>  <m_score__min__energy>  (42) 
-8.2599999999999998

>  <m_primary>  (42) 
energy

>  <meeko>  (42) 
{"free_energy": -8.05, "intermolecular_energy": -8.94, "internal_energy": -1.37, "cluster_size": 10, "cluster_id": 2, "rank_in_cluster": 1}

>  <energy>  (42) 
-8.25

>  <cluster_rmsd>  (42) 
0.05

>  <rmsd>  (42) 
271.3

>  <cluster>  (42) 
1

$$$$

     RDKit          3D

 55 60  0  0  1  0  0  0  0  0999 V2000
  139.6550   73.7730  222.3320 O   0  0  0  0  0  0  0  0  0  0  0  0
  140.4580   74.5520  221.7030 C   0  0  0  0  0  0  0  0  0  0  0  0
  141.6760   73.9350  221.2220 C   0  0  0  0  0  0  0  0  0  0  0  0
  141.9440   72.6250  220.8790 C   0  0  0  0  0  0  0  0  0  0  0  0
  143.2810   72.5740  220.4870 C   0  0  0  0  0  0  0  0  0  0  0  0
  144.1210   71.5760  220.0430 C   0  0  0  0  0  0  0  0  0  0  0  0
  145.4410   71.7980  219.7100 C   0  0  0  0  0  0  0  0  0  0  0  0
  146.2600   70.7900  219.2700 F   0  0  0  0  0  0  0  0  0  0  0  0
  145.9070   73.0890  219.8410 C   0  0  0  0  0  0  0  0  0  0  0  0
  145.1290   74.1400  220.2780 C   0  0  0  0  0  0  0  0  0  0  0  0
  143.8010   73.8460  220.5980 C   0  0  0  0  0  0  0  0  0  0  0  0
  142.8210   74.6550  221.0420 N   0  0  0  0  0  0  0  0  0  0  0  0
  140.0710   75.8810  221.5540 N   0  0  0  0  0  0  0  0  0  0  0  0
  140.8300   76.9500  220.8700 C   0  0  0  0  0  0  0  0  0  0  0  0
  140.6410   78.0660  221.8720 C   0  0  1  0  0  0  0  0  0  0  0  0
  141.4490   77.8450  223.1330 C   0  0  0  0  0  0  0  0  0  0  0  0
  141.4330   79.2720  223.7010 C   0  0  0  0  0  0  0  0  0  0  0  0
  141.7880   80.0440  222.5240 N   0  0  0  0  0  0  0  0  0  0  0  0
  141.2940   81.4040  222.5680 C   0  0  1  0  0  0  0  0  0  0  0  0
  141.4360   82.1340  221.2710 C   0  0  0  0  0  0  0  0  0  0  0  0
  140.0200   82.4690  220.8990 C   0  0  0  0  0  0  0  0  0  0  0  0
  139.2650   82.4420  222.1540 N   0  0  0  0  0  0  0  0  0  0  0  0
  139.7800   81.2650  222.7900 C   0  0  0  0  0  0  0  0  0  0  0  0
  141.0680   79.4100  221.4180 C   0  0  0  0  0  0  0  0  0  0  0  0
  139.2060   77.9190  222.2050 C   0  0  0  0  0  0  0  0  0  0  0  0
  138.1890   78.7430  222.6390 C   0  0  0  0  0  0  0  0  0  0  0  0
  136.9160   78.2700  222.8700 C   0  0  0  0  0  0  0  0  0  0  0  0
  136.5950   76.9250  222.6750 C   0  0  0  0  0  0  0  0  0  0  0  0
  137.6180   76.0770  222.2350 C   0  0  0  0  0  0  0  0  0  0  0  0
  138.8930   76.5670  222.0050 C   0  0  0  0  0  0  0  0  0  0  0  0
  141.2376   71.7823  220.9092 H   0  0  0  0  0  0  0  0  0  0  0  0
  143.7206   70.5557  219.9499 H   0  0  0  0  0  0  0  0  0  0  0  0
  146.9569   73.2915  219.5827 H   0  0  0  0  0  0  0  0  0  0  0  0
  145.5334   75.1588  220.3701 H   0  0  0  0  0  0  0  0  0  0  0  0
  142.9460   75.6720  221.2150 H   0  0  0  0  0  0  0  0  0  0  0  0
  141.8903   76.6854  220.7448 H   0  0  0  0  0  0  0  0  0  0  0  0
  140.5002   77.1780  219.8457 H   0  0  0  0  0  0  0  0  0  0  0  0
  140.9626   77.1284  223.8112 H   0  0  0  0  0  0  0  0  0  0  0  0
  142.4496   77.4153  222.9774 H   0  0  0  0  0  0  0  0  0  0  0  0
  140.4363   79.5455  224.0777 H   0  0  0  0  0  0  0  0  0  0  0  0
  142.1013   79.4246  224.5613 H   0  0  0  0  0  0  0  0  0  0  0  0
  141.8542   81.9566  223.3366 H   0  0  0  0  0  0  0  0  0  0  0  0
  142.0356   83.0475  221.3978 H   0  0  0  0  0  0  0  0  0  0  0  0
  141.9522   81.5419  220.5009 H   0  0  0  0  0  0  0  0  0  0  0  0
  139.9694   83.4683  220.4421 H   0  0  0  0  0  0  0  0  0  0  0  0
  139.6135   81.7581  220.1646 H   0  0  0  0  0  0  0  0  0  0  0  0
  138.2400   82.2400  221.9470 H   0  0  0  0  0  0  0  0  0  0  0  0
  139.5347   81.2526  223.8622 H   0  0  0  0  0  0  0  0  0  0  0  0
  139.3614   80.3303  222.3886 H   0  0  0  0  0  0  0  0  0  0  0  0
  140.1875   80.0123  221.1496 H   0  0  0  0  0  0  0  0  0  0  0  0
  141.7147   79.3305  220.5318 H   0  0  0  0  0  0  0  0  0  0  0  0
  138.4005   79.8095  222.8057 H   0  0  0  0  0  0  0  0  0  0  0  0
  136.1368   78.9656  223.2149 H   0  0  0  0  0  0  0  0  0  0  0  0
  135.5787   76.5470  222.8598 H   0  0  0  0  0  0  0  0  0  0  0  0
  137.4072   75.0101  222.0701 H   0  0  0  0  0  0  0  0  0  0  0  0
  1  2  2  0
  2  3  1  0
  3  4  2  0
  4  5  1  0
  5  6  2  0
  6  7  1  0
  7  8  1  0
  7  9  2  0
  9 10  1  0
 10 11  2  0
 11 12  1  0
  2 13  1  0
 13 14  1  0
 15 14  1  6
 15 16  1  0
 16 17  1  0
 17 18  1  0
 18 19  1  0
 19 20  1  0
 20 21  1  0
 21 22  1  0
 22 23  1  0
 18 24  1  0
 15 25  1  0
 25 26  2  0
 26 27  1  0
 27 28  2  0
 28 29  1  0
 29 30  2  0
 12  3  1  0
 30 13  1  0
 11  5  1  0
 24 15  1  0
 30 25  1  0
 23 19  1  0
  4 31  1  0
  6 32  1  0
  9 33  1  0
 10 34  1  0
 12 35  1  0
 14 36  1  0
 14 37  1  0
 16 38  1  0
 16 39  1  0
 17 40  1  0
 17 41  1  0
 19 42  1  1
 20 43  1  0
 20 44  1  0
 21 45  1  0
 21 46  1  0
 22 47  1  0
 23 48  1  0
 23 49  1  0
 24 50  1  0
 24 51  1  0
 26 52  1  0
 27 53  1  0
 28 54  1  0
 29 55  1  0
M  END
>  <smiles>  (43) 
O=C(c1cc2cc(F)ccc2[nH]1)N1CC2(CCN(C3CCNC3)C2)c2ccccc21

>  <score_type>  (43) 
oracle

>  <origin>  (43) 
autodockgpu

>  <m_score__min__energy>  (43) 
-8.2599999999999998

>  <m_primary>  (43) 
energy

>  <meeko>  (43) 
{"free_energy": -8.26, "intermolecular_energy": -9.15, "internal_energy": -1.14, "cluster_size": 9, "cluster_id": 1, "rank_in_cluster": 1}

>  <energy>  (43) 
-8.24

>  <cluster_rmsd>  (43) 
0.07

>  <rmsd>  (43) 
271.33

>  <cluster>  (43) 
1

$$$$

     RDKit          3D

 55 60  0  0  1  0  0  0  0  0999 V2000
  139.7590   74.8710  222.3540 O   0  0  0  0  0  0  0  0  0  0  0  0
  140.6570   75.3650  221.5810 C   0  0  0  0  0  0  0  0  0  0  0  0
  141.6850   74.4400  221.1510 C   0  0  0  0  0  0  0  0  0  0  0  0
  141.6440   73.0730  220.9700 C   0  0  0  0  0  0  0  0  0  0  0  0
  142.9150   72.6800  220.5510 C   0  0  0  0  0  0  0  0  0  0  0  0
  143.4920   71.4750  220.2160 C   0  0  0  0  0  0  0  0  0  0  0  0
  144.8090   71.3580  219.8220 C   0  0  0  0  0  0  0  0  0  0  0  0
  145.3650   70.1480  219.4920 F   0  0  0  0  0  0  0  0  0  0  0  0
  145.5510   72.5190  219.7750 C   0  0  0  0  0  0  0  0  0  0  0  0
  145.0440   73.7610  220.0960 C   0  0  0  0  0  0  0  0  0  0  0  0
  143.7030   73.8090  220.4860 C   0  0  0  0  0  0  0  0  0  0  0  0
  142.9480   74.8620  220.8490 N   0  0  0  0  0  0  0  0  0  0  0  0
  140.5430   76.7120  221.2480 N   0  0  0  0  0  0  0  0  0  0  0  0
  139.7800   77.2800  220.1150 C   0  0  0  0  0  0  0  0  0  0  0  0
  140.7910   78.2880  219.6200 C   0  0  1  0  0  0  0  0  0  0  0  0
  141.9640   77.6280  218.9270 C   0  0  0  0  0  0  0  0  0  0  0  0
  142.5240   78.8370  218.1640 C   0  0  0  0  0  0  0  0  0  0  0  0
  141.3130   79.3770  217.5710 N   0  0  0  0  0  0  0  0  0  0  0  0
  141.4010   80.7970  217.2980 C   0  0  1  0  0  0  0  0  0  0  0  0
  142.2230   81.5470  218.2970 C   0  0  0  0  0  0  0  0  0  0  0  0
  143.3400   82.1230  217.4720 C   0  0  0  0  0  0  0  0  0  0  0  0
  142.8340   82.1650  216.0990 N   0  0  0  0  0  0  0  0  0  0  0  0
  142.1800   80.8950  215.9770 C   0  0  0  0  0  0  0  0  0  0  0  0
  140.2890   79.2490  218.6100 C   0  0  0  0  0  0  0  0  0  0  0  0
  141.2680   78.8730  220.8920 C   0  0  0  0  0  0  0  0  0  0  0  0
  141.7990   80.0770  221.3040 C   0  0  0  0  0  0  0  0  0  0  0  0
  142.1610   80.3050  222.6140 C   0  0  0  0  0  0  0  0  0  0  0  0
  142.0050   79.3190  223.5920 C   0  0  0  0  0  0  0  0  0  0  0  0
  141.4680   78.0910  223.1870 C   0  0  0  0  0  0  0  0  0  0  0  0
  141.1080   77.8780  221.8670 C   0  0  0  0  0  0  0  0  0  0  0  0
  140.7745   72.4177  221.1264 H   0  0  0  0  0  0  0  0  0  0  0  0
  142.8753   70.5654  220.2648 H   0  0  0  0  0  0  0  0  0  0  0  0
  146.6042   72.4512  219.4648 H   0  0  0  0  0  0  0  0  0  0  0  0
  145.6642   74.6682  220.0474 H   0  0  0  0  0  0  0  0  0  0  0  0
  143.2990   75.8390  220.8880 H   0  0  0  0  0  0  0  0  0  0  0  0
  139.5493   76.5209  219.3530 H   0  0  0  0  0  0  0  0  0  0  0  0
  138.7931   77.6919  220.3725 H   0  0  0  0  0  0  0  0  0  0  0  0
  142.6915   77.2248  219.6469 H   0  0  0  0  0  0  0  0  0  0  0  0
  141.7092   76.7588  218.3029 H   0  0  0  0  0  0  0  0  0  0  0  0
  142.9975   79.5600  218.8445 H   0  0  0  0  0  0  0  0  0  0  0  0
  143.3123   78.5890  217.4380 H   0  0  0  0  0  0  0  0  0  0  0  0
  140.3856   81.2200  217.3012 H   0  0  0  0  0  0  0  0  0  0  0  0
  141.6331   82.3449  218.7717 H   0  0  0  0  0  0  0  0  0  0  0  0
  142.5823   80.9112  219.1196 H   0  0  0  0  0  0  0  0  0  0  0  0
  143.5913   83.1359  217.8198 H   0  0  0  0  0  0  0  0  0  0  0  0
  144.2564   81.5196  217.5498 H   0  0  0  0  0  0  0  0  0  0  0  0
  143.6530   82.1410  215.4180 H   0  0  0  0  0  0  0  0  0  0  0  0
  141.5005   80.8787  215.1121 H   0  0  0  0  0  0  0  0  0  0  0  0
  142.8737   80.0573  215.8126 H   0  0  0  0  0  0  0  0  0  0  0  0
  140.1080   80.2268  219.0804 H   0  0  0  0  0  0  0  0  0  0  0  0
  139.3423   78.8938  218.1768 H   0  0  0  0  0  0  0  0  0  0  0  0
  141.9378   80.8797  220.5648 H   0  0  0  0  0  0  0  0  0  0  0  0
  142.5809   81.2820  222.8953 H   0  0  0  0  0  0  0  0  0  0  0  0
  142.2926   79.5004  224.6381 H   0  0  0  0  0  0  0  0  0  0  0  0
  141.3307   77.2871  223.9251 H   0  0  0  0  0  0  0  0  0  0  0  0
  1  2  2  0
  2  3  1  0
  3  4  2  0
  4  5  1  0
  5  6  2  0
  6  7  1  0
  7  8  1  0
  7  9  2  0
  9 10  1  0
 10 11  2  0
 11 12  1  0
  2 13  1  0
 13 14  1  0
 15 14  1  1
 15 16  1  0
 16 17  1  0
 17 18  1  0
 18 19  1  0
 19 20  1  0
 20 21  1  0
 21 22  1  0
 22 23  1  0
 18 24  1  0
 15 25  1  0
 25 26  2  0
 26 27  1  0
 27 28  2  0
 28 29  1  0
 29 30  2  0
 12  3  1  0
 30 13  1  0
 11  5  1  0
 24 15  1  0
 30 25  1  0
 23 19  1  0
  4 31  1  0
  6 32  1  0
  9 33  1  0
 10 34  1  0
 12 35  1  0
 14 36  1  0
 14 37  1  0
 16 38  1  0
 16 39  1  0
 17 40  1  0
 17 41  1  0
 19 42  1  6
 20 43  1  0
 20 44  1  0
 21 45  1  0
 21 46  1  0
 22 47  1  0
 23 48  1  0
 23 49  1  0
 24 50  1  0
 24 51  1  0
 26 52  1  0
 27 53  1  0
 28 54  1  0
 29 55  1  0
M  END
>  <smiles>  (44) 
O=C(c1cc2cc(F)ccc2[nH]1)N1CC2(CCN(C3CCNC3)C2)c2ccccc21

>  <score_type>  (44) 
oracle

>  <origin>  (44) 
autodockgpu

>  <m_score__min__energy>  (44) 
-8.2599999999999998

>  <m_primary>  (44) 
energy

>  <meeko>  (44) 
{"free_energy": -7.99, "intermolecular_energy": -8.88, "internal_energy": -1.37, "cluster_size": 10, "cluster_id": 2, "rank_in_cluster": 9}

>  <energy>  (44) 
-8.24

>  <cluster_rmsd>  (44) 
0.07

>  <rmsd>  (44) 
271.34

>  <cluster>  (44) 
1

$$$$

     RDKit          3D

 55 60  0  0  1  0  0  0  0  0999 V2000
  139.9350   74.6580  222.3270 O   0  0  0  0  0  0  0  0  0  0  0  0
  140.8050   75.1830  221.5430 C   0  0  0  0  0  0  0  0  0  0  0  0
  141.8590   74.2960  221.0990 C   0  0  0  0  0  0  0  0  0  0  0  0
  141.8530   72.9330  220.8820 C   0  0  0  0  0  0  0  0  0  0  0  0
  143.1370   72.5820  220.4670 C   0  0  0  0  0  0  0  0  0  0  0  0
  143.7470   71.4010  220.1050 C   0  0  0  0  0  0  0  0  0  0  0  0
  145.0700   71.3260  219.7220 C   0  0  0  0  0  0  0  0  0  0  0  0
  145.6580   70.1390  219.3660 F   0  0  0  0  0  0  0  0  0  0  0  0
  145.7830   72.5050  219.7130 C   0  0  0  0  0  0  0  0  0  0  0  0
  145.2440   73.7250  220.0620 C   0  0  0  0  0  0  0  0  0  0  0  0
  143.8990   73.7310  220.4390 C   0  0  0  0  0  0  0  0  0  0  0  0
  143.1140   74.7560  220.8220 N   0  0  0  0  0  0  0  0  0  0  0  0
  140.6390   76.5260  221.2130 N   0  0  0  0  0  0  0  0  0  0  0  0
  139.8850   77.0640  220.0600 C   0  0  0  0  0  0  0  0  0  0  0  0
  140.8630   78.1200  219.5990 C   0  0  1  0  0  0  0  0  0  0  0  0
  142.0860   77.5180  218.9390 C   0  0  0  0  0  0  0  0  0  0  0  0
  142.6120   78.7560  218.1970 C   0  0  0  0  0  0  0  0  0  0  0  0
  141.3950   79.2430  217.5710 N   0  0  0  0  0  0  0  0  0  0  0  0
  141.4260   80.6660  217.3060 C   0  0  1  0  0  0  0  0  0  0  0  0
  142.2320   81.4410  218.3000 C   0  0  0  0  0  0  0  0  0  0  0  0
  143.3160   82.0630  217.4650 C   0  0  0  0  0  0  0  0  0  0  0  0
  142.7910   82.0960  216.0980 N   0  0  0  0  0  0  0  0  0  0  0  0
  142.1840   80.8030  215.9770 C   0  0  0  0  0  0  0  0  0  0  0  0
  140.3480   79.0630  218.5780 C   0  0  0  0  0  0  0  0  0  0  0  0
  141.2740   78.7200  220.8870 C   0  0  0  0  0  0  0  0  0  0  0  0
  141.7370   79.9450  221.3190 C   0  0  0  0  0  0  0  0  0  0  0  0
  142.0490   80.1810  222.6400 C   0  0  0  0  0  0  0  0  0  0  0  0
  141.9100   79.1850  223.6100 C   0  0  0  0  0  0  0  0  0  0  0  0
  141.4420   77.9350  223.1840 C   0  0  0  0  0  0  0  0  0  0  0  0
  141.1310   77.7130  221.8530 C   0  0  0  0  0  0  0  0  0  0  0  0
  140.9981   72.2531  221.0118 H   0  0  0  0  0  0  0  0  0  0  0  0
  143.1521   70.4759  220.1222 H   0  0  0  0  0  0  0  0  0  0  0  0
  146.8401   72.4710  219.4108 H   0  0  0  0  0  0  0  0  0  0  0  0
  145.8431   74.6474  220.0445 H   0  0  0  0  0  0  0  0  0  0  0  0
  143.4410   75.7400  220.8910 H   0  0  0  0  0  0  0  0  0  0  0  0
  139.7122   76.2990  219.2887 H   0  0  0  0  0  0  0  0  0  0  0  0
  138.8730   77.4289  220.2894 H   0  0  0  0  0  0  0  0  0  0  0  0
  142.8096   77.1454  219.6790 H   0  0  0  0  0  0  0  0  0  0  0  0
  141.8905   76.6409  218.3045 H   0  0  0  0  0  0  0  0  0  0  0  0
  143.0318   79.4964  218.8939 H   0  0  0  0  0  0  0  0  0  0  0  0
  143.4316   78.5482  217.4934 H   0  0  0  0  0  0  0  0  0  0  0  0
  140.3950   81.0492  217.3241 H   0  0  0  0  0  0  0  0  0  0  0  0
  141.6186   82.2135  218.7867 H   0  0  0  0  0  0  0  0  0  0  0  0
  142.6250   80.8145  219.1143 H   0  0  0  0  0  0  0  0  0  0  0  0
  143.5347   83.0820  217.8169 H   0  0  0  0  0  0  0  0  0  0  0  0
  144.2547   81.4928  217.5266 H   0  0  0  0  0  0  0  0  0  0  0  0
  143.6010   82.1060  215.4070 H   0  0  0  0  0  0  0  0  0  0  0  0
  141.4947   80.7660  215.1206 H   0  0  0  0  0  0  0  0  0  0  0  0
  142.9076   79.9937  215.7994 H   0  0  0  0  0  0  0  0  0  0  0  0
  140.1089   80.0290  219.0468 H   0  0  0  0  0  0  0  0  0  0  0  0
  139.4318   78.6675  218.1152 H   0  0  0  0  0  0  0  0  0  0  0  0
  141.8608   80.7573  220.5877 H   0  0  0  0  0  0  0  0  0  0  0  0
  142.4153   81.1747  222.9374 H   0  0  0  0  0  0  0  0  0  0  0  0
  142.1578   79.3745  224.6648 H   0  0  0  0  0  0  0  0  0  0  0  0
  141.3204   77.1215  223.9144 H   0  0  0  0  0  0  0  0  0  0  0  0
  1  2  2  0
  2  3  1  0
  3  4  2  0
  4  5  1  0
  5  6  2  0
  6  7  1  0
  7  8  1  0
  7  9  2  0
  9 10  1  0
 10 11  2  0
 11 12  1  0
  2 13  1  0
 13 14  1  0
 15 14  1  1
 15 16  1  0
 16 17  1  0
 17 18  1  0
 18 19  1  0
 19 20  1  0
 20 21  1  0
 21 22  1  0
 22 23  1  0
 18 24  1  0
 15 25  1  0
 25 26  2  0
 26 27  1  0
 27 28  2  0
 28 29  1  0
 29 30  2  0
 12  3  1  0
 30 13  1  0
 11  5  1  0
 24 15  1  0
 30 25  1  0
 23 19  1  0
  4 31  1  0
  6 32  1  0
  9 33  1  0
 10 34  1  0
 12 35  1  0
 14 36  1  0
 14 37  1  0
 16 38  1  0
 16 39  1  0
 17 40  1  0
 17 41  1  0
 19 42  1  6
 20 43  1  0
 20 44  1  0
 21 45  1  0
 21 46  1  0
 22 47  1  0
 23 48  1  0
 23 49  1  0
 24 50  1  0
 24 51  1  0
 26 52  1  0
 27 53  1  0
 28 54  1  0
 29 55  1  0
M  END
>  <smiles>  (45) 
O=C(c1cc2cc(F)ccc2[nH]1)N1CC2(CCN(C3CCNC3)C2)c2ccccc21

>  <score_type>  (45) 
oracle

>  <origin>  (45) 
autodockgpu

>  <m_score__min__energy>  (45) 
-8.2599999999999998

>  <m_primary>  (45) 
energy

>  <meeko>  (45) 
{"free_energy": -8.05, "intermolecular_energy": -8.94, "internal_energy": -1.37, "cluster_size": 10, "cluster_id": 2, "rank_in_cluster": 3}

>  <energy>  (45) 
-8.23

>  <cluster_rmsd>  (45) 
0.08

>  <rmsd>  (45) 
271.36

>  <cluster>  (45) 
1

$$$$

     RDKit          3D

 55 60  0  0  1  0  0  0  0  0999 V2000
  139.7320   73.7430  222.3350 O   0  0  0  0  0  0  0  0  0  0  0  0
  140.5260   74.5140  221.6840 C   0  0  0  0  0  0  0  0  0  0  0  0
  141.7390   73.8900  221.2000 C   0  0  0  0  0  0  0  0  0  0  0  0
  142.0030   72.5770  220.8650 C   0  0  0  0  0  0  0  0  0  0  0  0
  143.3370   72.5200  220.4630 C   0  0  0  0  0  0  0  0  0  0  0  0
  144.1700   71.5170  220.0200 C   0  0  0  0  0  0  0  0  0  0  0  0
  145.4880   71.7340  219.6760 C   0  0  0  0  0  0  0  0  0  0  0  0
  146.3030   70.7200  219.2370 F   0  0  0  0  0  0  0  0  0  0  0  0
  145.9580   73.0240  219.7930 C   0  0  0  0  0  0  0  0  0  0  0  0
  145.1860   74.0800  220.2280 C   0  0  0  0  0  0  0  0  0  0  0  0
  143.8600   73.7920  220.5600 C   0  0  0  0  0  0  0  0  0  0  0  0
  142.8850   74.6070  221.0050 N   0  0  0  0  0  0  0  0  0  0  0  0
  140.1370   75.8400  221.5200 N   0  0  0  0  0  0  0  0  0  0  0  0
  140.9110   76.9120  220.8570 C   0  0  0  0  0  0  0  0  0  0  0  0
  140.6830   78.0290  221.8490 C   0  0  1  0  0  0  0  0  0  0  0  0
  141.4510   77.8160  223.1370 C   0  0  0  0  0  0  0  0  0  0  0  0
  141.4080   79.2440  223.7000 C   0  0  0  0  0  0  0  0  0  0  0  0
  141.7970   80.0160  222.5320 N   0  0  0  0  0  0  0  0  0  0  0  0
  141.2920   81.3730  222.5570 C   0  0  1  0  0  0  0  0  0  0  0  0
  141.2750   82.0280  221.2120 C   0  0  0  0  0  0  0  0  0  0  0  0
  139.8210   82.3320  220.9880 C   0  0  0  0  0  0  0  0  0  0  0  0
  139.2160   82.3720  222.3210 N   0  0  0  0  0  0  0  0  0  0  0  0
  139.8160   81.2370  222.9600 C   0  0  0  0  0  0  0  0  0  0  0  0
  141.1160   79.3740  221.4060 C   0  0  0  0  0  0  0  0  0  0  0  0
  139.2390   77.8740  222.1360 C   0  0  0  0  0  0  0  0  0  0  0  0
  138.2040   78.6930  222.5350 C   0  0  0  0  0  0  0  0  0  0  0  0
  136.9270   78.2130  222.7260 C   0  0  0  0  0  0  0  0  0  0  0  0
  136.6200   76.8650  222.5240 C   0  0  0  0  0  0  0  0  0  0  0  0
  137.6620   76.0220  222.1200 C   0  0  0  0  0  0  0  0  0  0  0  0
  138.9400   76.5190  221.9310 C   0  0  0  0  0  0  0  0  0  0  0  0
  141.2955   71.7357  220.9072 H   0  0  0  0  0  0  0  0  0  0  0  0
  143.7663   70.4971  219.9367 H   0  0  0  0  0  0  0  0  0  0  0  0
  147.0062   73.2219  219.5247 H   0  0  0  0  0  0  0  0  0  0  0  0
  145.5937   75.0984  220.3096 H   0  0  0  0  0  0  0  0  0  0  0  0
  143.0130   75.6250  221.1690 H   0  0  0  0  0  0  0  0  0  0  0  0
  141.9764   76.6538  220.7665 H   0  0  0  0  0  0  0  0  0  0  0  0
  140.6129   77.1350  219.8219 H   0  0  0  0  0  0  0  0  0  0  0  0
  140.9469   77.0983  223.8009 H   0  0  0  0  0  0  0  0  0  0  0  0
  142.4586   77.3919  223.0154 H   0  0  0  0  0  0  0  0  0  0  0  0
  140.3980   79.5124  224.0432 H   0  0  0  0  0  0  0  0  0  0  0  0
  142.0470   79.4028  224.5812 H   0  0  0  0  0  0  0  0  0  0  0  0
  141.9283   81.9728  223.2243 H   0  0  0  0  0  0  0  0  0  0  0  0
  141.8734   82.9510  221.2166 H   0  0  0  0  0  0  0  0  0  0  0  0
  141.7070   81.3958  220.4222 H   0  0  0  0  0  0  0  0  0  0  0  0
  139.7051   83.3032  220.4846 H   0  0  0  0  0  0  0  0  0  0  0  0
  139.3420   81.5776  220.3466 H   0  0  0  0  0  0  0  0  0  0  0  0
  138.1770   82.1520  222.2460 H   0  0  0  0  0  0  0  0  0  0  0  0
  139.6957   81.2857  224.0523 H   0  0  0  0  0  0  0  0  0  0  0  0
  139.3664   80.2777  222.6641 H   0  0  0  0  0  0  0  0  0  0  0  0
  140.2408   79.9701  221.1084 H   0  0  0  0  0  0  0  0  0  0  0  0
  141.7914   79.2958  220.5413 H   0  0  0  0  0  0  0  0  0  0  0  0
  138.4039   79.7611  222.7058 H   0  0  0  0  0  0  0  0  0  0  0  0
  136.1331   78.9048  223.0439 H   0  0  0  0  0  0  0  0  0  0  0  0
  135.6003   76.4815  222.6763 H   0  0  0  0  0  0  0  0  0  0  0  0
  137.4631   74.9534  221.9509 H   0  0  0  0  0  0  0  0  0  0  0  0
  1  2  2  0
  2  3  1  0
  3  4  2  0
  4  5  1  0
  5  6  2  0
  6  7  1  0
  7  8  1  0
  7  9  2  0
  9 10  1  0
 10 11  2  0
 11 12  1  0
  2 13  1  0
 13 14  1  0
 15 14  1  6
 15 16  1  0
 16 17  1  0
 17 18  1  0
 18 19  1  0
 19 20  1  0
 20 21  1  0
 21 22  1  0
 22 23  1  0
 18 24  1  0
 15 25  1  0
 25 26  2  0
 26 27  1  0
 27 28  2  0
 28 29  1  0
 29 30  2  0
 12  3  1  0
 30 13  1  0
 11  5  1  0
 24 15  1  0
 30 25  1  0
 23 19  1  0
  4 31  1  0
  6 32  1  0
  9 33  1  0
 10 34  1  0
 12 35  1  0
 14 36  1  0
 14 37  1  0
 16 38  1  0
 16 39  1  0
 17 40  1  0
 17 41  1  0
 19 42  1  1
 20 43  1  0
 20 44  1  0
 21 45  1  0
 21 46  1  0
 22 47  1  0
 23 48  1  0
 23 49  1  0
 24 50  1  0
 24 51  1  0
 26 52  1  0
 27 53  1  0
 28 54  1  0
 29 55  1  0
M  END
>  <smiles>  (46) 
O=C(c1cc2cc(F)ccc2[nH]1)N1CC2(CCN(C3CCNC3)C2)c2ccccc21

>  <score_type>  (46) 
oracle

>  <origin>  (46) 
autodockgpu

>  <m_score__min__energy>  (46) 
-8.2599999999999998

>  <m_primary>  (46) 
energy

>  <meeko>  (46) 
{"free_energy": -8.19, "intermolecular_energy": -9.08, "internal_energy": -1.2, "cluster_size": 9, "cluster_id": 1, "rank_in_cluster": 9}

>  <energy>  (46) 
-8.22

>  <cluster_rmsd>  (46) 
0.11

>  <rmsd>  (46) 
271.32

>  <cluster>  (46) 
1

$$$$

     RDKit          3D

 55 60  0  0  1  0  0  0  0  0999 V2000
  139.8820   74.7410  222.3110 O   0  0  0  0  0  0  0  0  0  0  0  0
  140.7570   75.2530  221.5240 C   0  0  0  0  0  0  0  0  0  0  0  0
  141.8000   74.3510  221.0830 C   0  0  0  0  0  0  0  0  0  0  0  0
  141.7740   72.9900  220.8570 C   0  0  0  0  0  0  0  0  0  0  0  0
  143.0550   72.6210  220.4490 C   0  0  0  0  0  0  0  0  0  0  0  0
  143.6490   71.4330  220.0850 C   0  0  0  0  0  0  0  0  0  0  0  0
  144.9730   71.3380  219.7120 C   0  0  0  0  0  0  0  0  0  0  0  0
  145.5450   70.1440  219.3530 F   0  0  0  0  0  0  0  0  0  0  0  0
  145.7060   72.5060  219.7160 C   0  0  0  0  0  0  0  0  0  0  0  0
  145.1830   73.7330  220.0680 C   0  0  0  0  0  0  0  0  0  0  0  0
  143.8350   73.7570  220.4350 C   0  0  0  0  0  0  0  0  0  0  0  0
  143.0640   74.7930  220.8190 N   0  0  0  0  0  0  0  0  0  0  0  0
  140.6060   76.5960  221.1890 N   0  0  0  0  0  0  0  0  0  0  0  0
  139.8460   77.1390  220.0430 C   0  0  0  0  0  0  0  0  0  0  0  0
  140.8330   78.1780  219.5630 C   0  0  1  0  0  0  0  0  0  0  0  0
  142.0380   77.5550  218.8910 C   0  0  0  0  0  0  0  0  0  0  0  0
  142.5720   78.7800  218.1360 C   0  0  0  0  0  0  0  0  0  0  0  0
  141.3550   79.2820  217.5230 N   0  0  0  0  0  0  0  0  0  0  0  0
  141.4040   80.7040  217.2500 C   0  0  1  0  0  0  0  0  0  0  0  0
  142.1860   81.4800  218.2620 C   0  0  0  0  0  0  0  0  0  0  0  0
  143.2970   82.0890  217.4550 C   0  0  0  0  0  0  0  0  0  0  0  0
  142.8130   82.1160  216.0730 N   0  0  0  0  0  0  0  0  0  0  0  0
  142.2000   80.8260  215.9420 C   0  0  0  0  0  0  0  0  0  0  0  0
  140.3190   79.1230  218.5440 C   0  0  0  0  0  0  0  0  0  0  0  0
  141.2700   78.7780  220.8430 C   0  0  0  0  0  0  0  0  0  0  0  0
  141.7570   79.9990  221.2620 C   0  0  0  0  0  0  0  0  0  0  0  0
  142.0900   80.2370  222.5780 C   0  0  0  0  0  0  0  0  0  0  0  0
  141.9490   79.2480  223.5540 C   0  0  0  0  0  0  0  0  0  0  0  0
  141.4560   78.0040  223.1410 C   0  0  0  0  0  0  0  0  0  0  0  0
  141.1250   77.7790  221.8160 C   0  0  0  0  0  0  0  0  0  0  0  0
  140.9074   72.3231  220.9761 H   0  0  0  0  0  0  0  0  0  0  0  0
  143.0390   70.5176  220.0922 H   0  0  0  0  0  0  0  0  0  0  0  0
  146.7650   72.4566  219.4227 H   0  0  0  0  0  0  0  0  0  0  0  0
  145.7961   74.6463  220.0601 H   0  0  0  0  0  0  0  0  0  0  0  0
  143.4070   75.7710  220.8960 H   0  0  0  0  0  0  0  0  0  0  0  0
  139.6520   76.3724  219.2784 H   0  0  0  0  0  0  0  0  0  0  0  0
  138.8427   77.5205  220.2836 H   0  0  0  0  0  0  0  0  0  0  0  0
  142.7656   77.1758  219.6237 H   0  0  0  0  0  0  0  0  0  0  0  0
  141.8216   76.6775  218.2640 H   0  0  0  0  0  0  0  0  0  0  0  0
  143.0118   79.5177  218.8233 H   0  0  0  0  0  0  0  0  0  0  0  0
  143.3791   78.5560  217.4229 H   0  0  0  0  0  0  0  0  0  0  0  0
  140.3760   81.0953  217.2364 H   0  0  0  0  0  0  0  0  0  0  0  0
  141.5640   82.2597  218.7259 H   0  0  0  0  0  0  0  0  0  0  0  0
  142.5510   80.8564  219.0914 H   0  0  0  0  0  0  0  0  0  0  0  0
  143.5118   83.1090  217.8063 H   0  0  0  0  0  0  0  0  0  0  0  0
  144.2295   81.5130  217.5478 H   0  0  0  0  0  0  0  0  0  0  0  0
  143.6430   82.1160  215.4060 H   0  0  0  0  0  0  0  0  0  0  0  0
  141.5350   80.7886  215.0666 H   0  0  0  0  0  0  0  0  0  0  0  0
  142.9218   80.0101  215.7893 H   0  0  0  0  0  0  0  0  0  0  0  0
  140.1004   80.0949  219.0106 H   0  0  0  0  0  0  0  0  0  0  0  0
  139.3911   78.7389  218.0952 H   0  0  0  0  0  0  0  0  0  0  0  0
  141.8831   80.8055  220.5247 H   0  0  0  0  0  0  0  0  0  0  0  0
  142.4748   81.2265  222.8657 H   0  0  0  0  0  0  0  0  0  0  0  0
  142.2144   79.4384  224.6044 H   0  0  0  0  0  0  0  0  0  0  0  0
  141.3304   77.1968  223.8777 H   0  0  0  0  0  0  0  0  0  0  0  0
  1  2  2  0
  2  3  1  0
  3  4  2  0
  4  5  1  0
  5  6  2  0
  6  7  1  0
  7  8  1  0
  7  9  2  0
  9 10  1  0
 10 11  2  0
 11 12  1  0
  2 13  1  0
 13 14  1  0
 15 14  1  1
 15 16  1  0
 16 17  1  0
 17 18  1  0
 18 19  1  0
 19 20  1  0
 20 21  1  0
 21 22  1  0
 22 23  1  0
 18 24  1  0
 15 25  1  0
 25 26  2  0
 26 27  1  0
 27 28  2  0
 28 29  1  0
 29 30  2  0
 12  3  1  0
 30 13  1  0
 11  5  1  0
 24 15  1  0
 30 25  1  0
 23 19  1  0
  4 31  1  0
  6 32  1  0
  9 33  1  0
 10 34  1  0
 12 35  1  0
 14 36  1  0
 14 37  1  0
 16 38  1  0
 16 39  1  0
 17 40  1  0
 17 41  1  0
 19 42  1  6
 20 43  1  0
 20 44  1  0
 21 45  1  0
 21 46  1  0
 22 47  1  0
 23 48  1  0
 23 49  1  0
 24 50  1  0
 24 51  1  0
 26 52  1  0
 27 53  1  0
 28 54  1  0
 29 55  1  0
M  END
>  <smiles>  (47) 
O=C(c1cc2cc(F)ccc2[nH]1)N1CC2(CCN(C3CCNC3)C2)c2ccccc21

>  <score_type>  (47) 
oracle

>  <origin>  (47) 
autodockgpu

>  <m_score__min__energy>  (47) 
-8.2599999999999998

>  <m_primary>  (47) 
energy

>  <meeko>  (47) 
{"free_energy": -8.04, "intermolecular_energy": -8.93, "internal_energy": -1.37, "cluster_size": 10, "cluster_id": 2, "rank_in_cluster": 7}

>  <energy>  (47) 
-8.19

>  <cluster_rmsd>  (47) 
0.13

>  <rmsd>  (47) 
271.31

>  <cluster>  (47) 
1

$$$$

     RDKit          3D

 55 60  0  0  1  0  0  0  0  0999 V2000
  139.9720   74.6300  222.2980 O   0  0  0  0  0  0  0  0  0  0  0  0
  140.8390   75.1630  221.5160 C   0  0  0  0  0  0  0  0  0  0  0  0
  141.9060   74.2870  221.0800 C   0  0  0  0  0  0  0  0  0  0  0  0
  141.9110   72.9270  220.8440 C   0  0  0  0  0  0  0  0  0  0  0  0
  143.2040   72.5880  220.4470 C   0  0  0  0  0  0  0  0  0  0  0  0
  143.8260   71.4150  220.0810 C   0  0  0  0  0  0  0  0  0  0  0  0
  145.1560   71.3520  219.7210 C   0  0  0  0  0  0  0  0  0  0  0  0
  145.7580   70.1730  219.3600 F   0  0  0  0  0  0  0  0  0  0  0  0
  145.8640   72.5350  219.7400 C   0  0  0  0  0  0  0  0  0  0  0  0
  145.3110   73.7470  220.0950 C   0  0  0  0  0  0  0  0  0  0  0  0
  143.9600   73.7410  220.4480 C   0  0  0  0  0  0  0  0  0  0  0  0
  143.1630   74.7570  220.8310 N   0  0  0  0  0  0  0  0  0  0  0  0
  140.6590   76.5020  221.1820 N   0  0  0  0  0  0  0  0  0  0  0  0
  139.9050   77.0290  220.0230 C   0  0  0  0  0  0  0  0  0  0  0  0
  140.8730   78.0950  219.5650 C   0  0  1  0  0  0  0  0  0  0  0  0
  142.1060   77.5070  218.9140 C   0  0  0  0  0  0  0  0  0  0  0  0
  142.6220   78.7490  218.1720 C   0  0  0  0  0  0  0  0  0  0  0  0
  141.4030   79.2200  217.5380 N   0  0  0  0  0  0  0  0  0  0  0  0
  141.4180   80.6430  217.2690 C   0  0  1  0  0  0  0  0  0  0  0  0
  142.1970   81.4320  218.2740 C   0  0  0  0  0  0  0  0  0  0  0  0
  143.2850   82.0670  217.4560 C   0  0  0  0  0  0  0  0  0  0  0  0
  142.7820   82.0880  216.0800 N   0  0  0  0  0  0  0  0  0  0  0  0
  142.1960   80.7860  215.9520 C   0  0  0  0  0  0  0  0  0  0  0  0
  140.3520   79.0290  218.5390 C   0  0  0  0  0  0  0  0  0  0  0  0
  141.2690   78.7030  220.8540 C   0  0  0  0  0  0  0  0  0  0  0  0
  141.7150   79.9350  221.2860 C   0  0  0  0  0  0  0  0  0  0  0  0
  142.0170   80.1780  222.6080 C   0  0  0  0  0  0  0  0  0  0  0  0
  141.8840   79.1820  223.5790 C   0  0  0  0  0  0  0  0  0  0  0  0
  141.4330   77.9260  223.1540 C   0  0  0  0  0  0  0  0  0  0  0  0
  141.1330   77.6970  221.8220 C   0  0  0  0  0  0  0  0  0  0  0  0
  141.0574   72.2412  220.9491 H   0  0  0  0  0  0  0  0  0  0  0  0
  143.2357   70.4868  220.0755 H   0  0  0  0  0  0  0  0  0  0  0  0
  146.9266   72.5105  219.4569 H   0  0  0  0  0  0  0  0  0  0  0  0
  145.9047   74.6730  220.0999 H   0  0  0  0  0  0  0  0  0  0  0  0
  143.4840   75.7410  220.9190 H   0  0  0  0  0  0  0  0  0  0  0  0
  139.7454   76.2603  219.2525 H   0  0  0  0  0  0  0  0  0  0  0  0
  138.8876   77.3828  220.2460 H   0  0  0  0  0  0  0  0  0  0  0  0
  142.8296   77.1448  219.6591 H   0  0  0  0  0  0  0  0  0  0  0  0
  141.9245   76.6264  218.2803 H   0  0  0  0  0  0  0  0  0  0  0  0
  143.0292   79.4959  218.8693 H   0  0  0  0  0  0  0  0  0  0  0  0
  143.4481   78.5492  217.4737 H   0  0  0  0  0  0  0  0  0  0  0  0
  140.3818   81.0122  217.2689 H   0  0  0  0  0  0  0  0  0  0  0  0
  141.5649   82.1969  218.7486 H   0  0  0  0  0  0  0  0  0  0  0  0
  142.5856   80.8130  219.0961 H   0  0  0  0  0  0  0  0  0  0  0  0
  143.4828   83.0902  217.8082 H   0  0  0  0  0  0  0  0  0  0  0  0
  144.2309   81.5112  217.5352 H   0  0  0  0  0  0  0  0  0  0  0  0
  143.6040   82.1090  215.4030 H   0  0  0  0  0  0  0  0  0  0  0  0
  141.5218   80.7367  215.0842 H   0  0  0  0  0  0  0  0  0  0  0  0
  142.9335   79.9864  215.7883 H   0  0  0  0  0  0  0  0  0  0  0  0
  140.0977   79.9928  219.0041 H   0  0  0  0  0  0  0  0  0  0  0  0
  139.4437   78.6210  218.0716 H   0  0  0  0  0  0  0  0  0  0  0  0
  141.8329   80.7470  220.5534 H   0  0  0  0  0  0  0  0  0  0  0  0
  142.3700   81.1765  222.9053 H   0  0  0  0  0  0  0  0  0  0  0  0
  142.1239   79.3766  224.6347 H   0  0  0  0  0  0  0  0  0  0  0  0
  141.3160   77.1133  223.8860 H   0  0  0  0  0  0  0  0  0  0  0  0
  1  2  2  0
  2  3  1  0
  3  4  2  0
  4  5  1  0
  5  6  2  0
  6  7  1  0
  7  8  1  0
  7  9  2  0
  9 10  1  0
 10 11  2  0
 11 12  1  0
  2 13  1  0
 13 14  1  0
 15 14  1  1
 15 16  1  0
 16 17  1  0
 17 18  1  0
 18 19  1  0
 19 20  1  0
 20 21  1  0
 21 22  1  0
 22 23  1  0
 18 24  1  0
 15 25  1  0
 25 26  2  0
 26 27  1  0
 27 28  2  0
 28 29  1  0
 29 30  2  0
 12  3  1  0
 30 13  1  0
 11  5  1  0
 24 15  1  0
 30 25  1  0
 23 19  1  0
  4 31  1  0
  6 32  1  0
  9 33  1  0
 10 34  1  0
 12 35  1  0
 14 36  1  0
 14 37  1  0
 16 38  1  0
 16 39  1  0
 17 40  1  0
 17 41  1  0
 19 42  1  6
 20 43  1  0
 20 44  1  0
 21 45  1  0
 21 46  1  0
 22 47  1  0
 23 48  1  0
 23 49  1  0
 24 50  1  0
 24 51  1  0
 26 52  1  0
 27 53  1  0
 28 54  1  0
 29 55  1  0
M  END
>  <smiles>  (48) 
O=C(c1cc2cc(F)ccc2[nH]1)N1CC2(CCN(C3CCNC3)C2)c2ccccc21

>  <score_type>  (48) 
oracle

>  <origin>  (48) 
autodockgpu

>  <m_score__min__energy>  (48) 
-8.2599999999999998

>  <m_primary>  (48) 
energy

>  <meeko>  (48) 
{"free_energy": -8.05, "intermolecular_energy": -8.94, "internal_energy": -1.37, "cluster_size": 10, "cluster_id": 2, "rank_in_cluster": 4}

>  <energy>  (48) 
-8.19

>  <cluster_rmsd>  (48) 
0.11

>  <rmsd>  (48) 
271.33

>  <cluster>  (48) 
1

$$$$

     RDKit          3D

 55 60  0  0  1  0  0  0  0  0999 V2000
  139.7100   73.7690  222.3340 O   0  0  0  0  0  0  0  0  0  0  0  0
  140.5050   74.5470  221.6940 C   0  0  0  0  0  0  0  0  0  0  0  0
  141.7250   73.9320  221.2150 C   0  0  0  0  0  0  0  0  0  0  0  0
  141.9980   72.6210  220.8780 C   0  0  0  0  0  0  0  0  0  0  0  0
  143.3350   72.5740  220.4850 C   0  0  0  0  0  0  0  0  0  0  0  0
  144.1780   71.5770  220.0450 C   0  0  0  0  0  0  0  0  0  0  0  0
  145.4960   71.8020  219.7090 C   0  0  0  0  0  0  0  0  0  0  0  0
  146.3190   70.7950  219.2730 F   0  0  0  0  0  0  0  0  0  0  0  0
  145.9580   73.0950  219.8330 C   0  0  0  0  0  0  0  0  0  0  0  0
  145.1770   74.1450  220.2660 C   0  0  0  0  0  0  0  0  0  0  0  0
  143.8500   73.8480  220.5890 C   0  0  0  0  0  0  0  0  0  0  0  0
  142.8680   74.6560  221.0300 N   0  0  0  0  0  0  0  0  0  0  0  0
  140.1100   75.8720  221.5330 N   0  0  0  0  0  0  0  0  0  0  0  0
  140.8710   76.9440  220.8550 C   0  0  0  0  0  0  0  0  0  0  0  0
  140.6580   78.0630  221.8490 C   0  0  1  0  0  0  0  0  0  0  0  0
  141.4490   77.8540  223.1230 C   0  0  0  0  0  0  0  0  0  0  0  0
  141.4130   79.2840  223.6830 C   0  0  0  0  0  0  0  0  0  0  0  0
  141.7800   80.0530  222.5080 N   0  0  0  0  0  0  0  0  0  0  0  0
  141.2740   81.4100  222.5380 C   0  0  1  0  0  0  0  0  0  0  0  0
  141.2350   82.0630  221.1930 C   0  0  0  0  0  0  0  0  0  0  0  0
  139.7770   82.3640  220.9910 C   0  0  0  0  0  0  0  0  0  0  0  0
  139.1920   82.4040  222.3330 N   0  0  0  0  0  0  0  0  0  0  0  0
  139.8040   81.2710  222.9640 C   0  0  0  0  0  0  0  0  0  0  0  0
  141.0810   79.4080  221.3950 C   0  0  0  0  0  0  0  0  0  0  0  0
  139.2200   77.9060  222.1610 C   0  0  0  0  0  0  0  0  0  0  0  0
  138.1900   78.7240  222.5760 C   0  0  0  0  0  0  0  0  0  0  0  0
  136.9180   78.2420  222.7910 C   0  0  0  0  0  0  0  0  0  0  0  0
  136.6100   76.8930  222.5980 C   0  0  0  0  0  0  0  0  0  0  0  0
  137.6460   76.0510  222.1770 C   0  0  0  0  0  0  0  0  0  0  0  0
  138.9200   76.5500  221.9640 C   0  0  0  0  0  0  0  0  0  0  0  0
  141.2952   71.7755  220.9129 H   0  0  0  0  0  0  0  0  0  0  0  0
  143.7813   70.5547  219.9578 H   0  0  0  0  0  0  0  0  0  0  0  0
  147.0068   73.2999  219.5722 H   0  0  0  0  0  0  0  0  0  0  0  0
  145.5780   75.1656  220.3530 H   0  0  0  0  0  0  0  0  0  0  0  0
  142.9890   75.6740  221.1980 H   0  0  0  0  0  0  0  0  0  0  0  0
  141.9352   76.6873  220.7470 H   0  0  0  0  0  0  0  0  0  0  0  0
  140.5551   77.1646  219.8247 H   0  0  0  0  0  0  0  0  0  0  0  0
  140.9582   77.1369  223.7975 H   0  0  0  0  0  0  0  0  0  0  0  0
  142.4550   77.4311  222.9848 H   0  0  0  0  0  0  0  0  0  0  0  0
  140.4085   79.5514  224.0428 H   0  0  0  0  0  0  0  0  0  0  0  0
  142.0669   79.4462  224.5526 H   0  0  0  0  0  0  0  0  0  0  0  0
  141.9200   82.0124  223.1936 H   0  0  0  0  0  0  0  0  0  0  0  0
  141.8317   82.9871  221.1872 H   0  0  0  0  0  0  0  0  0  0  0  0
  141.6560   81.4306  220.3975 H   0  0  0  0  0  0  0  0  0  0  0  0
  139.6516   83.3345  220.4886 H   0  0  0  0  0  0  0  0  0  0  0  0
  139.2899   81.6079  220.3577 H   0  0  0  0  0  0  0  0  0  0  0  0
  138.1530   82.1820  222.2740 H   0  0  0  0  0  0  0  0  0  0  0  0
  139.7003   81.3206  224.0580 H   0  0  0  0  0  0  0  0  0  0  0  0
  139.3520   80.3103  222.6762 H   0  0  0  0  0  0  0  0  0  0  0  0
  140.1998   80.0021  221.1111 H   0  0  0  0  0  0  0  0  0  0  0  0
  141.7412   79.3293  220.5187 H   0  0  0  0  0  0  0  0  0  0  0  0
  138.3905   79.7931  222.7401 H   0  0  0  0  0  0  0  0  0  0  0  0
  136.1285   78.9331  223.1214 H   0  0  0  0  0  0  0  0  0  0  0  0
  135.5941   76.5079  222.7700 H   0  0  0  0  0  0  0  0  0  0  0  0
  137.4460   74.9817  222.0137 H   0  0  0  0  0  0  0  0  0  0  0  0
  1  2  2  0
  2  3  1  0
  3  4  2  0
  4  5  1  0
  5  6  2  0
  6  7  1  0
  7  8  1  0
  7  9  2  0
  9 10  1  0
 10 11  2  0
 11 12  1  0
  2 13  1  0
 13 14  1  0
 15 14  1  6
 15 16  1  0
 16 17  1  0
 17 18  1  0
 18 19  1  0
 19 20  1  0
 20 21  1  0
 21 22  1  0
 22 23  1  0
 18 24  1  0
 15 25  1  0
 25 26  2  0
 26 27  1  0
 27 28  2  0
 28 29  1  0
 29 30  2  0
 12  3  1  0
 30 13  1  0
 11  5  1  0
 24 15  1  0
 30 25  1  0
 23 19  1  0
  4 31  1  0
  6 32  1  0
  9 33  1  0
 10 34  1  0
 12 35  1  0
 14 36  1  0
 14 37  1  0
 16 38  1  0
 16 39  1  0
 17 40  1  0
 17 41  1  0
 19 42  1  1
 20 43  1  0
 20 44  1  0
 21 45  1  0
 21 46  1  0
 22 47  1  0
 23 48  1  0
 23 49  1  0
 24 50  1  0
 24 51  1  0
 26 52  1  0
 27 53  1  0
 28 54  1  0
 29 55  1  0
M  END
>  <smiles>  (49) 
O=C(c1cc2cc(F)ccc2[nH]1)N1CC2(CCN(C3CCNC3)C2)c2ccccc21

>  <score_type>  (49) 
oracle

>  <origin>  (49) 
autodockgpu

>  <m_score__min__energy>  (49) 
-8.2599999999999998

>  <m_primary>  (49) 
energy

>  <meeko>  (49) 
{"free_energy": -8.19, "intermolecular_energy": -9.08, "internal_energy": -1.2, "cluster_size": 9, "cluster_id": 1, "rank_in_cluster": 8}

>  <energy>  (49) 
-8.19

>  <cluster_rmsd>  (49) 
0.12

>  <rmsd>  (49) 
271.31

>  <cluster>  (49) 
1

$$$$

     RDKit          3D

 55 60  0  0  1  0  0  0  0  0999 V2000
  139.7330   73.7490  222.3110 O   0  0  0  0  0  0  0  0  0  0  0  0
  140.5290   74.5200  221.6640 C   0  0  0  0  0  0  0  0  0  0  0  0
  141.7400   73.8950  221.1750 C   0  0  0  0  0  0  0  0  0  0  0  0
  141.9990   72.5820  220.8370 C   0  0  0  0  0  0  0  0  0  0  0  0
  143.3320   72.5230  220.4310 C   0  0  0  0  0  0  0  0  0  0  0  0
  144.1630   71.5190  219.9850 C   0  0  0  0  0  0  0  0  0  0  0  0
  145.4800   71.7330  219.6370 C   0  0  0  0  0  0  0  0  0  0  0  0
  146.2910   70.7190  219.1950 F   0  0  0  0  0  0  0  0  0  0  0  0
  145.9530   73.0230  219.7540 C   0  0  0  0  0  0  0  0  0  0  0  0
  145.1840   74.0800  220.1930 C   0  0  0  0  0  0  0  0  0  0  0  0
  143.8580   73.7930  220.5290 C   0  0  0  0  0  0  0  0  0  0  0  0
  142.8860   74.6100  220.9780 N   0  0  0  0  0  0  0  0  0  0  0  0
  140.1450   75.8490  221.5070 N   0  0  0  0  0  0  0  0  0  0  0  0
  140.9270   76.9240  220.8590 C   0  0  0  0  0  0  0  0  0  0  0  0
  140.6940   78.0330  221.8590 C   0  0  1  0  0  0  0  0  0  0  0  0
  141.4530   77.8080  223.1500 C   0  0  0  0  0  0  0  0  0  0  0  0
  141.4100   79.2320  223.7240 C   0  0  0  0  0  0  0  0  0  0  0  0
  141.8090   80.0110  222.5660 N   0  0  0  0  0  0  0  0  0  0  0  0
  141.3090   81.3700  222.5980 C   0  0  1  0  0  0  0  0  0  0  0  0
  141.3270   82.0450  221.2630 C   0  0  0  0  0  0  0  0  0  0  0  0
  139.8800   82.3570  221.0070 C   0  0  0  0  0  0  0  0  0  0  0  0
  139.2420   82.3790  222.3250 N   0  0  0  0  0  0  0  0  0  0  0  0
  139.8220   81.2330  222.9610 C   0  0  0  0  0  0  0  0  0  0  0  0
  141.1350   79.3810  221.4290 C   0  0  0  0  0  0  0  0  0  0  0  0
  139.2480   77.8810  222.1340 C   0  0  0  0  0  0  0  0  0  0  0  0
  138.2130   78.7000  222.5320 C   0  0  0  0  0  0  0  0  0  0  0  0
  136.9330   78.2210  222.7100 C   0  0  0  0  0  0  0  0  0  0  0  0
  136.6230   76.8760  222.4950 C   0  0  0  0  0  0  0  0  0  0  0  0
  137.6660   76.0330  222.0920 C   0  0  0  0  0  0  0  0  0  0  0  0
  138.9470   76.5280  221.9150 C   0  0  0  0  0  0  0  0  0  0  0  0
  141.2895   71.7425  220.8797 H   0  0  0  0  0  0  0  0  0  0  0  0
  143.7574   70.4998  219.9027 H   0  0  0  0  0  0  0  0  0  0  0  0
  147.0007   73.2195  219.4824 H   0  0  0  0  0  0  0  0  0  0  0  0
  145.5934   75.0977  220.2746 H   0  0  0  0  0  0  0  0  0  0  0  0
  143.0170   75.6270  221.1430 H   0  0  0  0  0  0  0  0  0  0  0  0
  141.9924   76.6637  220.7746 H   0  0  0  0  0  0  0  0  0  0  0  0
  140.6379   77.1566  219.8235 H   0  0  0  0  0  0  0  0  0  0  0  0
  140.9428   77.0864  223.8050 H   0  0  0  0  0  0  0  0  0  0  0  0
  142.4603   77.3822  223.0316 H   0  0  0  0  0  0  0  0  0  0  0  0
  140.3983   79.5006  224.0622 H   0  0  0  0  0  0  0  0  0  0  0  0
  142.0432   79.3821  224.6109 H   0  0  0  0  0  0  0  0  0  0  0  0
  141.9312   81.9574  223.2893 H   0  0  0  0  0  0  0  0  0  0  0  0
  141.9277   82.9659  221.2963 H   0  0  0  0  0  0  0  0  0  0  0  0
  141.7766   81.4230  220.4750 H   0  0  0  0  0  0  0  0  0  0  0  0
  139.7795   83.3360  220.5155 H   0  0  0  0  0  0  0  0  0  0  0  0
  139.4151   81.6139  220.3424 H   0  0  0  0  0  0  0  0  0  0  0  0
  138.2040   82.1640  222.2200 H   0  0  0  0  0  0  0  0  0  0  0  0
  139.6739   81.2652  224.0505 H   0  0  0  0  0  0  0  0  0  0  0  0
  139.3774   80.2799  222.6386 H   0  0  0  0  0  0  0  0  0  0  0  0
  140.2642   79.9824  221.1292 H   0  0  0  0  0  0  0  0  0  0  0  0
  141.8164   79.3079  220.5686 H   0  0  0  0  0  0  0  0  0  0  0  0
  138.4145   79.7662  222.7126 H   0  0  0  0  0  0  0  0  0  0  0  0
  136.1388   78.9124  223.0281 H   0  0  0  0  0  0  0  0  0  0  0  0
  135.6010   76.4945  222.6365 H   0  0  0  0  0  0  0  0  0  0  0  0
  137.4655   74.9661  221.9141 H   0  0  0  0  0  0  0  0  0  0  0  0
  1  2  2  0
  2  3  1  0
  3  4  2  0
  4  5  1  0
  5  6  2  0
  6  7  1  0
  7  8  1  0
  7  9  2  0
  9 10  1  0
 10 11  2  0
 11 12  1  0
  2 13  1  0
 13 14  1  0
 15 14  1  6
 15 16  1  0
 16 17  1  0
 17 18  1  0
 18 19  1  0
 19 20  1  0
 20 21  1  0
 21 22  1  0
 22 23  1  0
 18 24  1  0
 15 25  1  0
 25 26  2  0
 26 27  1  0
 27 28  2  0
 28 29  1  0
 29 30  2  0
 12  3  1  0
 30 13  1  0
 11  5  1  0
 24 15  1  0
 30 25  1  0
 23 19  1  0
  4 31  1  0
  6 32  1  0
  9 33  1  0
 10 34  1  0
 12 35  1  0
 14 36  1  0
 14 37  1  0
 16 38  1  0
 16 39  1  0
 17 40  1  0
 17 41  1  0
 19 42  1  1
 20 43  1  0
 20 44  1  0
 21 45  1  0
 21 46  1  0
 22 47  1  0
 23 48  1  0
 23 49  1  0
 24 50  1  0
 24 51  1  0
 26 52  1  0
 27 53  1  0
 28 54  1  0
 29 55  1  0
M  END
>  <smiles>  (50) 
O=C(c1cc2cc(F)ccc2[nH]1)N1CC2(CCN(C3CCNC3)C2)c2ccccc21

>  <score_type>  (50) 
oracle

>  <origin>  (50) 
autodockgpu

>  <m_score__min__energy>  (50) 
-8.2599999999999998

>  <m_primary>  (50) 
energy

>  <meeko>  (50) 
{"free_energy": -8.19, "intermolecular_energy": -9.09, "internal_energy": -1.19, "cluster_size": 9, "cluster_id": 1, "rank_in_cluster": 7}

>  <energy>  (50) 
-8.05

>  <cluster_rmsd>  (50) 
0.0

>  <rmsd>  (50) 
270.58

>  <cluster>  (50) 
2

$$$$

     RDKit          3D

 55 60  0  0  1  0  0  0  0  0999 V2000
  139.8750   74.7700  222.3260 O   0  0  0  0  0  0  0  0  0  0  0  0
  140.7530   75.2820  221.5420 C   0  0  0  0  0  0  0  0  0  0  0  0
  141.7920   74.3780  221.0970 C   0  0  0  0  0  0  0  0  0  0  0  0
  141.7670   73.0150  220.8850 C   0  0  0  0  0  0  0  0  0  0  0  0
  143.0440   72.6450  220.4650 C   0  0  0  0  0  0  0  0  0  0  0  0
  143.6370   71.4550  220.1050 C   0  0  0  0  0  0  0  0  0  0  0  0
  144.9560   71.3610  219.7170 C   0  0  0  0  0  0  0  0  0  0  0  0
  145.5280   70.1640  219.3620 F   0  0  0  0  0  0  0  0  0  0  0  0
  145.6860   72.5300  219.6990 C   0  0  0  0  0  0  0  0  0  0  0  0
  145.1640   73.7590  220.0450 C   0  0  0  0  0  0  0  0  0  0  0  0
  143.8210   73.7840  220.4290 C   0  0  0  0  0  0  0  0  0  0  0  0
  143.0520   74.8210  220.8120 N   0  0  0  0  0  0  0  0  0  0  0  0
  140.6070   76.6270  221.2130 N   0  0  0  0  0  0  0  0  0  0  0  0
  139.8480   77.1790  220.0700 C   0  0  0  0  0  0  0  0  0  0  0  0
  140.8390   78.2160  219.5950 C   0  0  1  0  0  0  0  0  0  0  0  0
  142.0410   77.5910  218.9190 C   0  0  0  0  0  0  0  0  0  0  0  0
  142.5800   78.8180  218.1700 C   0  0  0  0  0  0  0  0  0  0  0  0
  141.3650   79.3280  217.5600 N   0  0  0  0  0  0  0  0  0  0  0  0
  141.4190   80.7510  217.2930 C   0  0  1  0  0  0  0  0  0  0  0  0
  142.2300   81.5140  218.2910 C   0  0  0  0  0  0  0  0  0  0  0  0
  143.3280   82.1190  217.4620 C   0  0  0  0  0  0  0  0  0  0  0  0
  142.8110   82.1580  216.0910 N   0  0  0  0  0  0  0  0  0  0  0  0
  142.1860   80.8740  215.9680 C   0  0  0  0  0  0  0  0  0  0  0  0
  140.3280   79.1680  218.5810 C   0  0  0  0  0  0  0  0  0  0  0  0
  141.2790   78.8090  220.8770 C   0  0  0  0  0  0  0  0  0  0  0  0
  141.7700   80.0250  221.3020 C   0  0  0  0  0  0  0  0  0  0  0  0
  142.1040   80.2560  222.6190 C   0  0  0  0  0  0  0  0  0  0  0  0
  141.9590   79.2630  223.5900 C   0  0  0  0  0  0  0  0  0  0  0  0
  141.4620   78.0220  223.1720 C   0  0  0  0  0  0  0  0  0  0  0  0
  141.1300   77.8050  221.8460 C   0  0  0  0  0  0  0  0  0  0  0  0
  140.9037   72.3471  221.0214 H   0  0  0  0  0  0  0  0  0  0  0  0
  143.0300   70.5379  220.1283 H   0  0  0  0  0  0  0  0  0  0  0  0
  146.7412   72.4802  219.3924 H   0  0  0  0  0  0  0  0  0  0  0  0
  145.7746   74.6736  220.0198 H   0  0  0  0  0  0  0  0  0  0  0  0
  143.3930   75.8000  220.8750 H   0  0  0  0  0  0  0  0  0  0  0  0
  139.6503   76.4171  219.3016 H   0  0  0  0  0  0  0  0  0  0  0  0
  138.8464   77.5633  220.3131 H   0  0  0  0  0  0  0  0  0  0  0  0
  142.7673   77.2048  219.6493 H   0  0  0  0  0  0  0  0  0  0  0  0
  141.8204   76.7177  218.2875 H   0  0  0  0  0  0  0  0  0  0  0  0
  143.0229   79.5503  218.8610 H   0  0  0  0  0  0  0  0  0  0  0  0
  143.3860   78.5944  217.4556 H   0  0  0  0  0  0  0  0  0  0  0  0
  140.3943   81.1507  217.3042 H   0  0  0  0  0  0  0  0  0  0  0  0
  141.6253   82.2960  218.7736 H   0  0  0  0  0  0  0  0  0  0  0  0
  142.6086   80.8824  219.1081 H   0  0  0  0  0  0  0  0  0  0  0  0
  143.5595   83.1351  217.8141 H   0  0  0  0  0  0  0  0  0  0  0  0
  144.2579   81.5354  217.5299 H   0  0  0  0  0  0  0  0  0  0  0  0
  143.6260   82.1550  215.4050 H   0  0  0  0  0  0  0  0  0  0  0  0
  141.5010   80.8458  215.1078 H   0  0  0  0  0  0  0  0  0  0  0  0
  142.8982   80.0537  215.7952 H   0  0  0  0  0  0  0  0  0  0  0  0
  140.1132   80.1384  219.0525 H   0  0  0  0  0  0  0  0  0  0  0  0
  139.3983   78.7899  218.1307 H   0  0  0  0  0  0  0  0  0  0  0  0
  141.8990   80.8346  220.5686 H   0  0  0  0  0  0  0  0  0  0  0  0
  142.4927   81.2427  222.9112 H   0  0  0  0  0  0  0  0  0  0  0  0
  142.2245   79.4480  224.6413 H   0  0  0  0  0  0  0  0  0  0  0  0
  141.3343   77.2117  223.9049 H   0  0  0  0  0  0  0  0  0  0  0  0
  1  2  2  0
  2  3  1  0
  3  4  2  0
  4  5  1  0
  5  6  2  0
  6  7  1  0
  7  8  1  0
  7  9  2  0
  9 10  1  0
 10 11  2  0
 11 12  1  0
  2 13  1  0
 13 14  1  0
 15 14  1  1
 15 16  1  0
 16 17  1  0
 17 18  1  0
 18 19  1  0
 19 20  1  0
 20 21  1  0
 21 22  1  0
 22 23  1  0
 18 24  1  0
 15 25  1  0
 25 26  2  0
 26 27  1  0
 27 28  2  0
 28 29  1  0
 29 30  2  0
 12  3  1  0
 30 13  1  0
 11  5  1  0
 24 15  1  0
 30 25  1  0
 23 19  1  0
  4 31  1  0
  6 32  1  0
  9 33  1  0
 10 34  1  0
 12 35  1  0
 14 36  1  0
 14 37  1  0
 16 38  1  0
 16 39  1  0
 17 40  1  0
 17 41  1  0
 19 42  1  6
 20 43  1  0
 20 44  1  0
 21 45  1  0
 21 46  1  0
 22 47  1  0
 23 48  1  0
 23 49  1  0
 24 50  1  0
 24 51  1  0
 26 52  1  0
 27 53  1  0
 28 54  1  0
 29 55  1  0
M  END
>  <smiles>  (51) 
O=C(c1cc2cc(F)ccc2[nH]1)N1CC2(CCN(C3CCNC3)C2)c2ccccc21

>  <score_type>  (51) 
oracle

>  <origin>  (51) 
autodockgpu

>  <m_score__min__energy>  (51) 
-8.2599999999999998

>  <m_primary>  (51) 
energy

>  <meeko>  (51) 
{"free_energy": -8.04, "intermolecular_energy": -8.93, "internal_energy": -1.37, "cluster_size": 10, "cluster_id": 2, "rank_in_cluster": 8}

>  <energy>  (51) 
-8.05

>  <cluster_rmsd>  (51) 
0.09

>  <rmsd>  (51) 
270.59

>  <cluster>  (51) 
2

$$$$

     RDKit          3D

 55 60  0  0  1  0  0  0  0  0999 V2000
  139.6740   73.7550  222.3210 O   0  0  0  0  0  0  0  0  0  0  0  0
  140.4770   74.5290  221.6850 C   0  0  0  0  0  0  0  0  0  0  0  0
  141.6940   73.9060  221.2080 C   0  0  0  0  0  0  0  0  0  0  0  0
  141.9610   72.5930  220.8770 C   0  0  0  0  0  0  0  0  0  0  0  0
  143.2970   72.5380  220.4830 C   0  0  0  0  0  0  0  0  0  0  0  0
  144.1350   71.5350  220.0480 C   0  0  0  0  0  0  0  0  0  0  0  0
  145.4550   71.7530  219.7110 C   0  0  0  0  0  0  0  0  0  0  0  0
  146.2730   70.7400  219.2790 F   0  0  0  0  0  0  0  0  0  0  0  0
  145.9220   73.0450  219.8280 C   0  0  0  0  0  0  0  0  0  0  0  0
  145.1450   74.1000  220.2570 C   0  0  0  0  0  0  0  0  0  0  0  0
  143.8180   73.8100  220.5810 C   0  0  0  0  0  0  0  0  0  0  0  0
  142.8390   74.6240  221.0190 N   0  0  0  0  0  0  0  0  0  0  0  0
  140.0910   75.8570  221.5260 N   0  0  0  0  0  0  0  0  0  0  0  0
  140.8580   76.9230  220.8460 C   0  0  0  0  0  0  0  0  0  0  0  0
  140.6570   78.0430  221.8410 C   0  0  1  0  0  0  0  0  0  0  0  0
  141.4500   77.8280  223.1120 C   0  0  0  0  0  0  0  0  0  0  0  0
  141.4270   79.2570  223.6730 C   0  0  0  0  0  0  0  0  0  0  0  0
  141.7960   80.0240  222.4970 N   0  0  0  0  0  0  0  0  0  0  0  0
  141.3010   81.3850  222.5300 C   0  0  1  0  0  0  0  0  0  0  0  0
  141.4270   82.0980  221.2210 C   0  0  0  0  0  0  0  0  0  0  0  0
  140.0060   82.4270  220.8620 C   0  0  0  0  0  0  0  0  0  0  0  0
  139.2660   82.4150  222.1260 N   0  0  0  0  0  0  0  0  0  0  0  0
  139.7900   81.2470  222.7720 C   0  0  0  0  0  0  0  0  0  0  0  0
  141.0890   79.3850  221.3860 C   0  0  0  0  0  0  0  0  0  0  0  0
  139.2180   77.8970  222.1570 C   0  0  0  0  0  0  0  0  0  0  0  0
  138.1970   78.7230  222.5760 C   0  0  0  0  0  0  0  0  0  0  0  0
  136.9210   78.2510  222.7950 C   0  0  0  0  0  0  0  0  0  0  0  0
  136.6020   76.9040  222.6020 C   0  0  0  0  0  0  0  0  0  0  0  0
  137.6310   76.0550  222.1770 C   0  0  0  0  0  0  0  0  0  0  0  0
  138.9080   76.5440  221.9610 C   0  0  0  0  0  0  0  0  0  0  0  0
  141.2545   71.7508  220.9165 H   0  0  0  0  0  0  0  0  0  0  0  0
  143.7336   70.5142  219.9656 H   0  0  0  0  0  0  0  0  0  0  0  0
  146.9712   73.2448  219.5648 H   0  0  0  0  0  0  0  0  0  0  0  0
  145.5502   75.1193  220.3399 H   0  0  0  0  0  0  0  0  0  0  0  0
  142.9650   75.6430  221.1820 H   0  0  0  0  0  0  0  0  0  0  0  0
  141.9198   76.6580  220.7344 H   0  0  0  0  0  0  0  0  0  0  0  0
  140.5405   77.1465  219.8168 H   0  0  0  0  0  0  0  0  0  0  0  0
  140.9559   77.1144  223.7877 H   0  0  0  0  0  0  0  0  0  0  0  0
  142.4524   77.3979  222.9701 H   0  0  0  0  0  0  0  0  0  0  0  0
  140.4259   79.5319  224.0365 H   0  0  0  0  0  0  0  0  0  0  0  0
  142.0850   79.4135  224.5405 H   0  0  0  0  0  0  0  0  0  0  0  0
  141.8693   81.9484  223.2847 H   0  0  0  0  0  0  0  0  0  0  0  0
  142.0274   83.0134  221.3282 H   0  0  0  0  0  0  0  0  0  0  0  0
  141.9344   81.4961  220.4527 H   0  0  0  0  0  0  0  0  0  0  0  0
  139.9488   83.4205  220.3933 H   0  0  0  0  0  0  0  0  0  0  0  0
  139.5915   81.7064  220.1416 H   0  0  0  0  0  0  0  0  0  0  0  0
  138.2390   82.2100  221.9340 H   0  0  0  0  0  0  0  0  0  0  0  0
  139.5575   81.2490  223.8471 H   0  0  0  0  0  0  0  0  0  0  0  0
  139.3679   80.3064  222.3886 H   0  0  0  0  0  0  0  0  0  0  0  0
  140.2116   79.9859  221.1048 H   0  0  0  0  0  0  0  0  0  0  0  0
  141.7459   79.3016  220.5077 H   0  0  0  0  0  0  0  0  0  0  0  0
  138.4070   79.7902  222.7404 H   0  0  0  0  0  0  0  0  0  0  0  0
  136.1381   78.9481  223.1283 H   0  0  0  0  0  0  0  0  0  0  0  0
  135.5838   76.5262  222.7769 H   0  0  0  0  0  0  0  0  0  0  0  0
  137.4224   74.9875  222.0129 H   0  0  0  0  0  0  0  0  0  0  0  0
  1  2  2  0
  2  3  1  0
  3  4  2  0
  4  5  1  0
  5  6  2  0
  6  7  1  0
  7  8  1  0
  7  9  2  0
  9 10  1  0
 10 11  2  0
 11 12  1  0
  2 13  1  0
 13 14  1  0
 15 14  1  6
 15 16  1  0
 16 17  1  0
 17 18  1  0
 18 19  1  0
 19 20  1  0
 20 21  1  0
 21 22  1  0
 22 23  1  0
 18 24  1  0
 15 25  1  0
 25 26  2  0
 26 27  1  0
 27 28  2  0
 28 29  1  0
 29 30  2  0
 12  3  1  0
 30 13  1  0
 11  5  1  0
 24 15  1  0
 30 25  1  0
 23 19  1  0
  4 31  1  0
  6 32  1  0
  9 33  1  0
 10 34  1  0
 12 35  1  0
 14 36  1  0
 14 37  1  0
 16 38  1  0
 16 39  1  0
 17 40  1  0
 17 41  1  0
 19 42  1  1
 20 43  1  0
 20 44  1  0
 21 45  1  0
 21 46  1  0
 22 47  1  0
 23 48  1  0
 23 49  1  0
 24 50  1  0
 24 51  1  0
 26 52  1  0
 27 53  1  0
 28 54  1  0
 29 55  1  0
M  END
>  <smiles>  (52) 
O=C(c1cc2cc(F)ccc2[nH]1)N1CC2(CCN(C3CCNC3)C2)c2ccccc21

>  <score_type>  (52) 
oracle

>  <origin>  (52) 
autodockgpu

>  <m_score__min__energy>  (52) 
-8.2599999999999998

>  <m_primary>  (52) 
energy

>  <meeko>  (52) 
{"free_energy": -8.25, "intermolecular_energy": -9.14, "internal_energy": -1.14, "cluster_size": 9, "cluster_id": 1, "rank_in_cluster": 2}

>  <energy>  (52) 
-8.05

>  <cluster_rmsd>  (52) 
0.07

>  <rmsd>  (52) 
270.6

>  <cluster>  (52) 
2

$$$$

     RDKit          3D

 55 60  0  0  1  0  0  0  0  0999 V2000
  137.4840   82.9110  222.0970 O   0  0  0  0  0  0  0  0  0  0  0  0
  137.8810   81.9730  222.8790 C   0  0  0  0  0  0  0  0  0  0  0  0
  137.3660   82.0310  224.2300 C   0  0  0  0  0  0  0  0  0  0  0  0
  137.4800   81.1340  225.2740 C   0  0  0  0  0  0  0  0  0  0  0  0
  136.7880   81.6800  226.3550 C   0  0  0  0  0  0  0  0  0  0  0  0
  136.5430   81.2750  227.6480 C   0  0  0  0  0  0  0  0  0  0  0  0
  135.8070   82.0240  228.5430 C   0  0  0  0  0  0  0  0  0  0  0  0
  135.5740   81.6020  229.8270 F   0  0  0  0  0  0  0  0  0  0  0  0
  135.3100   83.2260  228.0870 C   0  0  0  0  0  0  0  0  0  0  0  0
  135.5130   83.6990  226.8080 C   0  0  0  0  0  0  0  0  0  0  0  0
  136.2670   82.8910  225.9530 C   0  0  0  0  0  0  0  0  0  0  0  0
  136.6240   83.0890  224.6700 N   0  0  0  0  0  0  0  0  0  0  0  0
  138.7460   81.0220  222.3460 N   0  0  0  0  0  0  0  0  0  0  0  0
  138.5210   80.2040  221.1340 C   0  0  0  0  0  0  0  0  0  0  0  0
  138.9910   78.8640  221.6510 C   0  0  1  0  0  0  0  0  0  0  0  0
  138.0180   78.2590  222.6400 C   0  0  0  0  0  0  0  0  0  0  0  0
  138.4940   76.7990  222.6080 C   0  0  0  0  0  0  0  0  0  0  0  0
  138.5890   76.5690  221.1770 N   0  0  0  0  0  0  0  0  0  0  0  0
  139.5430   75.5350  220.8320 C   0  0  1  0  0  0  0  0  0  0  0  0
  140.3220   75.8320  219.5900 C   0  0  0  0  0  0  0  0  0  0  0  0
  141.7450   75.8810  220.0720 C   0  0  0  0  0  0  0  0  0  0  0  0
  141.7670   75.1080  221.3150 N   0  0  0  0  0  0  0  0  0  0  0  0
  140.5730   75.5550  221.9710 C   0  0  0  0  0  0  0  0  0  0  0  0
  139.1470   77.8050  220.6260 C   0  0  0  0  0  0  0  0  0  0  0  0
  140.2210   79.2480  222.3800 C   0  0  0  0  0  0  0  0  0  0  0  0
  141.4120   78.6430  222.7210 C   0  0  0  0  0  0  0  0  0  0  0  0
  142.3840   79.3020  223.4420 C   0  0  0  0  0  0  0  0  0  0  0  0
  142.2060   80.6230  223.8630 C   0  0  0  0  0  0  0  0  0  0  0  0
  141.0000   81.2480  223.5230 C   0  0  0  0  0  0  0  0  0  0  0  0
  140.0330   80.5730  222.7980 C   0  0  0  0  0  0  0  0  0  0  0  0
  138.0144   80.1727  225.2564 H   0  0  0  0  0  0  0  0  0  0  0  0
  136.9526   80.3105  227.9826 H   0  0  0  0  0  0  0  0  0  0  0  0
  134.7192   83.8414  228.7814 H   0  0  0  0  0  0  0  0  0  0  0  0
  135.1020   84.6642  226.4772 H   0  0  0  0  0  0  0  0  0  0  0  0
  136.3600   83.9300  224.1200 H   0  0  0  0  0  0  0  0  0  0  0  0
  137.4603   80.1832  220.8433 H   0  0  0  0  0  0  0  0  0  0  0  0
  139.0284   80.5611  220.2257 H   0  0  0  0  0  0  0  0  0  0  0  0
  138.1226   78.7023  223.6413 H   0  0  0  0  0  0  0  0  0  0  0  0
  136.9549   78.4090  222.4006 H   0  0  0  0  0  0  0  0  0  0  0  0
  139.4700   76.6815  223.1016 H   0  0  0  0  0  0  0  0  0  0  0  0
  137.8343   76.0956  223.1372 H   0  0  0  0  0  0  0  0  0  0  0  0
  138.9994   74.5910  220.6795 H   0  0  0  0  0  0  0  0  0  0  0  0
  140.1874   75.0369  218.8418 H   0  0  0  0  0  0  0  0  0  0  0  0
  140.0042   76.7626  219.0970 H   0  0  0  0  0  0  0  0  0  0  0  0
  142.4181   75.4304  219.3278 H   0  0  0  0  0  0  0  0  0  0  0  0
  142.0857   76.9149  220.2299 H   0  0  0  0  0  0  0  0  0  0  0  0
  142.5770   75.4370  221.9230 H   0  0  0  0  0  0  0  0  0  0  0  0
  140.2837   74.8694  222.7811 H   0  0  0  0  0  0  0  0  0  0  0  0
  140.6778   76.5391  222.4513 H   0  0  0  0  0  0  0  0  0  0  0  0
  140.2125   77.6637  220.3920 H   0  0  0  0  0  0  0  0  0  0  0  0
  138.6246   78.0848  219.6993 H   0  0  0  0  0  0  0  0  0  0  0  0
  141.5916   77.6038  222.4083 H   0  0  0  0  0  0  0  0  0  0  0  0
  143.3186   78.7781  223.6912 H   0  0  0  0  0  0  0  0  0  0  0  0
  142.9817   81.1500  224.4380 H   0  0  0  0  0  0  0  0  0  0  0  0
  140.8190   82.2870  223.8355 H   0  0  0  0  0  0  0  0  0  0  0  0
  1  2  2  0
  2  3  1  0
  3  4  2  0
  4  5  1  0
  5  6  2  0
  6  7  1  0
  7  8  1  0
  7  9  2  0
  9 10  1  0
 10 11  2  0
 11 12  1  0
  2 13  1  0
 13 14  1  0
 15 14  1  6
 15 16  1  0
 16 17  1  0
 17 18  1  0
 18 19  1  0
 19 20  1  0
 20 21  1  0
 21 22  1  0
 22 23  1  0
 18 24  1  0
 15 25  1  0
 25 26  2  0
 26 27  1  0
 27 28  2  0
 28 29  1  0
 29 30  2  0
 12  3  1  0
 30 13  1  0
 11  5  1  0
 24 15  1  0
 30 25  1  0
 23 19  1  0
  4 31  1  0
  6 32  1  0
  9 33  1  0
 10 34  1  0
 12 35  1  0
 14 36  1  0
 14 37  1  0
 16 38  1  0
 16 39  1  0
 17 40  1  0
 17 41  1  0
 19 42  1  6
 20 43  1  0
 20 44  1  0
 21 45  1  0
 21 46  1  0
 22 47  1  0
 23 48  1  0
 23 49  1  0
 24 50  1  0
 24 51  1  0
 26 52  1  0
 27 53  1  0
 28 54  1  0
 29 55  1  0
M  END
>  <smiles>  (53) 
O=C(c1cc2cc(F)ccc2[nH]1)N1CC2(CCN(C3CCNC3)C2)c2ccccc21

>  <score_type>  (53) 
oracle

>  <origin>  (53) 
autodockgpu

>  <m_score__min__energy>  (53) 
-8.2599999999999998

>  <m_primary>  (53) 
energy

>  <meeko>  (53) 
{"free_energy": -7.43, "intermolecular_energy": -8.32, "internal_energy": -1.73, "cluster_size": 1, "cluster_id": 3, "rank_in_cluster": 1}

>  <energy>  (53) 
-8.05

>  <cluster_rmsd>  (53) 
0.09

>  <rmsd>  (53) 
270.6

>  <cluster>  (53) 
2

$$$$

     RDKit          3D

 55 60  0  0  1  0  0  0  0  0999 V2000
  139.7010   73.7890  222.3280 O   0  0  0  0  0  0  0  0  0  0  0  0
  140.5060   74.5670  221.6990 C   0  0  0  0  0  0  0  0  0  0  0  0
  141.7210   73.9470  221.2170 C   0  0  0  0  0  0  0  0  0  0  0  0
  141.9860   72.6360  220.8750 C   0  0  0  0  0  0  0  0  0  0  0  0
  143.3220   72.5820  220.4790 C   0  0  0  0  0  0  0  0  0  0  0  0
  144.1580   71.5820  220.0340 C   0  0  0  0  0  0  0  0  0  0  0  0
  145.4780   71.8000  219.6980 C   0  0  0  0  0  0  0  0  0  0  0  0
  146.2940   70.7900  219.2570 F   0  0  0  0  0  0  0  0  0  0  0  0
  145.9470   73.0900  219.8260 C   0  0  0  0  0  0  0  0  0  0  0  0
  145.1730   74.1430  220.2640 C   0  0  0  0  0  0  0  0  0  0  0  0
  143.8450   73.8530  220.5870 C   0  0  0  0  0  0  0  0  0  0  0  0
  142.8680   74.6650  221.0330 N   0  0  0  0  0  0  0  0  0  0  0  0
  140.1230   75.8980  221.5530 N   0  0  0  0  0  0  0  0  0  0  0  0
  140.9020   76.9740  220.9040 C   0  0  0  0  0  0  0  0  0  0  0  0
  140.6820   78.0790  221.9110 C   0  0  1  0  0  0  0  0  0  0  0  0
  141.4520   77.8450  223.1930 C   0  0  0  0  0  0  0  0  0  0  0  0
  141.4190   79.2660  223.7760 C   0  0  0  0  0  0  0  0  0  0  0  0
  141.8090   80.0500  222.6180 N   0  0  0  0  0  0  0  0  0  0  0  0
  141.3130   81.4100  222.6620 C   0  0  1  0  0  0  0  0  0  0  0  0
  141.4140   82.1250  221.3520 C   0  0  0  0  0  0  0  0  0  0  0  0
  139.9860   82.4530  221.0190 C   0  0  0  0  0  0  0  0  0  0  0  0
  139.2700   82.4390  222.2970 N   0  0  0  0  0  0  0  0  0  0  0  0
  139.8070   81.2700  222.9310 C   0  0  0  0  0  0  0  0  0  0  0  0
  141.1230   79.4280  221.4840 C   0  0  0  0  0  0  0  0  0  0  0  0
  139.2380   77.9290  222.1990 C   0  0  0  0  0  0  0  0  0  0  0  0
  138.2090   78.7480  222.6110 C   0  0  0  0  0  0  0  0  0  0  0  0
  136.9300   78.2730  222.8000 C   0  0  0  0  0  0  0  0  0  0  0  0
  136.6140   76.9290  222.5800 C   0  0  0  0  0  0  0  0  0  0  0  0
  137.6510   76.0860  222.1620 C   0  0  0  0  0  0  0  0  0  0  0  0
  138.9320   76.5780  221.9760 C   0  0  0  0  0  0  0  0  0  0  0  0
  141.2783   71.7945  220.9085 H   0  0  0  0  0  0  0  0  0  0  0  0
  143.7546   70.5628  219.9423 H   0  0  0  0  0  0  0  0  0  0  0  0
  146.9965   73.2899  219.5642 H   0  0  0  0  0  0  0  0  0  0  0  0
  145.5804   75.1607  220.3547 H   0  0  0  0  0  0  0  0  0  0  0  0
  142.9950   75.6820  221.2040 H   0  0  0  0  0  0  0  0  0  0  0  0
  141.9658   76.7108  220.8086 H   0  0  0  0  0  0  0  0  0  0  0  0
  140.6037   77.2127  219.8725 H   0  0  0  0  0  0  0  0  0  0  0  0
  140.9458   77.1212  223.8487 H   0  0  0  0  0  0  0  0  0  0  0  0
  142.4570   77.4172  223.0625 H   0  0  0  0  0  0  0  0  0  0  0  0
  140.4116   79.5358  224.1258 H   0  0  0  0  0  0  0  0  0  0  0  0
  142.0611   79.4093  224.6576 H   0  0  0  0  0  0  0  0  0  0  0  0
  141.8943   81.9728  223.4072 H   0  0  0  0  0  0  0  0  0  0  0  0
  142.0151   83.0410  221.4496 H   0  0  0  0  0  0  0  0  0  0  0  0
  141.9079   81.5246  220.5738 H   0  0  0  0  0  0  0  0  0  0  0  0
  139.9191   83.4469  220.5523 H   0  0  0  0  0  0  0  0  0  0  0  0
  139.5589   81.7331  220.3054 H   0  0  0  0  0  0  0  0  0  0  0  0
  138.2400   82.2330  222.1230 H   0  0  0  0  0  0  0  0  0  0  0  0
  139.5940   81.2694  224.0102 H   0  0  0  0  0  0  0  0  0  0  0  0
  139.3790   80.3297  222.5532 H   0  0  0  0  0  0  0  0  0  0  0  0
  140.2512   80.0335  221.1952 H   0  0  0  0  0  0  0  0  0  0  0  0
  141.7964   79.3575  220.6171 H   0  0  0  0  0  0  0  0  0  0  0  0
  138.4153   79.8128  222.7944 H   0  0  0  0  0  0  0  0  0  0  0  0
  136.1414   78.9650  223.1307 H   0  0  0  0  0  0  0  0  0  0  0  0
  135.5925   76.5493  222.7292 H   0  0  0  0  0  0  0  0  0  0  0  0
  137.4457   75.0209  221.9793 H   0  0  0  0  0  0  0  0  0  0  0  0
  1  2  2  0
  2  3  1  0
  3  4  2  0
  4  5  1  0
  5  6  2  0
  6  7  1  0
  7  8  1  0
  7  9  2  0
  9 10  1  0
 10 11  2  0
 11 12  1  0
  2 13  1  0
 13 14  1  0
 15 14  1  6
 15 16  1  0
 16 17  1  0
 17 18  1  0
 18 19  1  0
 19 20  1  0
 20 21  1  0
 21 22  1  0
 22 23  1  0
 18 24  1  0
 15 25  1  0
 25 26  2  0
 26 27  1  0
 27 28  2  0
 28 29  1  0
 29 30  2  0
 12  3  1  0
 30 13  1  0
 11  5  1  0
 24 15  1  0
 30 25  1  0
 23 19  1  0
  4 31  1  0
  6 32  1  0
  9 33  1  0
 10 34  1  0
 12 35  1  0
 14 36  1  0
 14 37  1  0
 16 38  1  0
 16 39  1  0
 17 40  1  0
 17 41  1  0
 19 42  1  1
 20 43  1  0
 20 44  1  0
 21 45  1  0
 21 46  1  0
 22 47  1  0
 23 48  1  0
 23 49  1  0
 24 50  1  0
 24 51  1  0
 26 52  1  0
 27 53  1  0
 28 54  1  0
 29 55  1  0
M  END
>  <smiles>  (54) 
O=C(c1cc2cc(F)ccc2[nH]1)N1CC2(CCN(C3CCNC3)C2)c2ccccc21

>  <score_type>  (54) 
oracle

>  <origin>  (54) 
autodockgpu

>  <m_score__min__energy>  (54) 
-8.2599999999999998

>  <m_primary>  (54) 
energy

>  <meeko>  (54) 
{"free_energy": -8.23, "intermolecular_energy": -9.13, "internal_energy": -1.16, "cluster_size": 9, "cluster_id": 1, "rank_in_cluster": 5}

>  <energy>  (54) 
-8.04

>  <cluster_rmsd>  (54) 
0.08

>  <rmsd>  (54) 
270.61

>  <cluster>  (54) 
2

$$$$

     RDKit          3D

 55 60  0  0  1  0  0  0  0  0999 V2000
  139.9390   74.6760  222.2910 O   0  0  0  0  0  0  0  0  0  0  0  0
  140.8130   75.2400  221.5380 C   0  0  0  0  0  0  0  0  0  0  0  0
  141.8950   74.3870  221.0950 C   0  0  0  0  0  0  0  0  0  0  0  0
  141.9300   73.0260  220.8650 C   0  0  0  0  0  0  0  0  0  0  0  0
  143.2270   72.7170  220.4560 C   0  0  0  0  0  0  0  0  0  0  0  0
  143.8730   71.5570  220.0890 C   0  0  0  0  0  0  0  0  0  0  0  0
  145.2000   71.5240  219.7150 C   0  0  0  0  0  0  0  0  0  0  0  0
  145.8260   70.3580  219.3530 F   0  0  0  0  0  0  0  0  0  0  0  0
  145.8800   72.7230  219.7230 C   0  0  0  0  0  0  0  0  0  0  0  0
  145.3020   73.9240  220.0780 C   0  0  0  0  0  0  0  0  0  0  0  0
  143.9550   73.8870  220.4450 C   0  0  0  0  0  0  0  0  0  0  0  0
  143.1380   74.8850  220.8320 N   0  0  0  0  0  0  0  0  0  0  0  0
  140.6230   76.5860  221.2380 N   0  0  0  0  0  0  0  0  0  0  0  0
  139.8430   77.1370  220.1080 C   0  0  0  0  0  0  0  0  0  0  0  0
  140.7990   78.2150  219.6530 C   0  0  1  0  0  0  0  0  0  0  0  0
  142.0190   77.6430  218.9620 C   0  0  0  0  0  0  0  0  0  0  0  0
  142.5160   78.9030  218.2370 C   0  0  0  0  0  0  0  0  0  0  0  0
  141.2830   79.3860  217.6400 N   0  0  0  0  0  0  0  0  0  0  0  0
  141.2900   80.8140  217.4040 C   0  0  1  0  0  0  0  0  0  0  0  0
  140.6830   81.6070  218.5170 C   0  0  0  0  0  0  0  0  0  0  0  0
  141.8140   82.4770  218.9870 C   0  0  0  0  0  0  0  0  0  0  0  0
  142.7440   82.5600  217.8580 N   0  0  0  0  0  0  0  0  0  0  0  0
  142.7770   81.2040  217.3940 C   0  0  0  0  0  0  0  0  0  0  0  0
  140.2550   79.1710  218.6600 C   0  0  0  0  0  0  0  0  0  0  0  0
  141.2230   78.7950  220.9470 C   0  0  0  0  0  0  0  0  0  0  0  0
  141.6760   80.0170  221.3960 C   0  0  0  0  0  0  0  0  0  0  0  0
  142.0060   80.2320  222.7160 C   0  0  0  0  0  0  0  0  0  0  0  0
  141.8960   79.2140  223.6670 C   0  0  0  0  0  0  0  0  0  0  0  0
  141.4380   77.9670  223.2240 C   0  0  0  0  0  0  0  0  0  0  0  0
  141.1090   77.7670  221.8940 C   0  0  0  0  0  0  0  0  0  0  0  0
  141.0944   72.3202  220.9820 H   0  0  0  0  0  0  0  0  0  0  0  0
  143.3051   70.6150  220.0945 H   0  0  0  0  0  0  0  0  0  0  0  0
  146.9404   72.7220  219.4306 H   0  0  0  0  0  0  0  0  0  0  0  0
  145.8734   74.8639  220.0723 H   0  0  0  0  0  0  0  0  0  0  0  0
  143.4370   75.8780  220.9120 H   0  0  0  0  0  0  0  0  0  0  0  0
  139.6678   76.3854  219.3242 H   0  0  0  0  0  0  0  0  0  0  0  0
  138.8301   77.4835  220.3610 H   0  0  0  0  0  0  0  0  0  0  0  0
  142.7593   77.2657  219.6828 H   0  0  0  0  0  0  0  0  0  0  0  0
  141.8254   76.7760  218.3133 H   0  0  0  0  0  0  0  0  0  0  0  0
  142.9368   79.6349  218.9421 H   0  0  0  0  0  0  0  0  0  0  0  0
  143.3268   78.7205  217.5164 H   0  0  0  0  0  0  0  0  0  0  0  0
  140.7222   81.0207  216.4849 H   0  0  0  0  0  0  0  0  0  0  0  0
  139.8434   82.2170  218.1524 H   0  0  0  0  0  0  0  0  0  0  0  0
  140.2687   80.9749  219.3163 H   0  0  0  0  0  0  0  0  0  0  0  0
  141.4433   83.4778  219.2532 H   0  0  0  0  0  0  0  0  0  0  0  0
  142.2990   82.0641  219.8838 H   0  0  0  0  0  0  0  0  0  0  0  0
  143.7230   82.7710  218.2200 H   0  0  0  0  0  0  0  0  0  0  0  0
  143.1979   81.1408  216.3797 H   0  0  0  0  0  0  0  0  0  0  0  0
  143.4078   80.5449  218.0085 H   0  0  0  0  0  0  0  0  0  0  0  0
  140.0104   80.1239  219.1522 H   0  0  0  0  0  0  0  0  0  0  0  0
  139.3370   78.7721  218.2038 H   0  0  0  0  0  0  0  0  0  0  0  0
  141.7770   80.8450  220.6789 H   0  0  0  0  0  0  0  0  0  0  0  0
  142.3632   81.2246  223.0277 H   0  0  0  0  0  0  0  0  0  0  0  0
  142.1586   79.3853  224.7214 H   0  0  0  0  0  0  0  0  0  0  0  0
  141.3386   77.1379  223.9400 H   0  0  0  0  0  0  0  0  0  0  0  0
  1  2  2  0
  2  3  1  0
  3  4  2  0
  4  5  1  0
  5  6  2  0
  6  7  1  0
  7  8  1  0
  7  9  2  0
  9 10  1  0
 10 11  2  0
 11 12  1  0
  2 13  1  0
 13 14  1  0
 15 14  1  1
 15 16  1  0
 16 17  1  0
 17 18  1  0
 18 19  1  0
 19 20  1  0
 20 21  1  0
 21 22  1  0
 22 23  1  0
 18 24  1  0
 15 25  1  0
 25 26  2  0
 26 27  1  0
 27 28  2  0
 28 29  1  0
 29 30  2  0
 12  3  1  0
 30 13  1  0
 11  5  1  0
 24 15  1  0
 30 25  1  0
 23 19  1  0
  4 31  1  0
  6 32  1  0
  9 33  1  0
 10 34  1  0
 12 35  1  0
 14 36  1  0
 14 37  1  0
 16 38  1  0
 16 39  1  0
 17 40  1  0
 17 41  1  0
 19 42  1  6
 20 43  1  0
 20 44  1  0
 21 45  1  0
 21 46  1  0
 22 47  1  0
 23 48  1  0
 23 49  1  0
 24 50  1  0
 24 51  1  0
 26 52  1  0
 27 53  1  0
 28 54  1  0
 29 55  1  0
M  END
>  <smiles>  (55) 
O=C(c1cc2cc(F)ccc2[nH]1)N1CC2(CCN(C3CCNC3)C2)c2ccccc21

>  <score_type>  (55) 
oracle

>  <origin>  (55) 
autodockgpu

>  <m_score__min__energy>  (55) 
-8.2599999999999998

>  <m_primary>  (55) 
energy

>  <meeko>  (55) 
{"free_energy": -7.74, "intermolecular_energy": -8.64, "internal_energy": -1.53, "cluster_size": 10, "cluster_id": 2, "rank_in_cluster": 10}

>  <energy>  (55) 
-8.04

>  <cluster_rmsd>  (55) 
0.1

>  <rmsd>  (55) 
270.59

>  <cluster>  (55) 
2

$$$$

     RDKit          3D

 55 60  0  0  1  0  0  0  0  0999 V2000
  139.7280   73.7590  222.3170 O   0  0  0  0  0  0  0  0  0  0  0  0
  140.5280   74.5290  221.6750 C   0  0  0  0  0  0  0  0  0  0  0  0
  141.7400   73.9030  221.1910 C   0  0  0  0  0  0  0  0  0  0  0  0
  142.0010   72.5890  220.8570 C   0  0  0  0  0  0  0  0  0  0  0  0
  143.3350   72.5290  220.4550 C   0  0  0  0  0  0  0  0  0  0  0  0
  144.1660   71.5240  220.0130 C   0  0  0  0  0  0  0  0  0  0  0  0
  145.4850   71.7380  219.6680 C   0  0  0  0  0  0  0  0  0  0  0  0
  146.2970   70.7220  219.2310 F   0  0  0  0  0  0  0  0  0  0  0  0
  145.9570   73.0270  219.7840 C   0  0  0  0  0  0  0  0  0  0  0  0
  145.1870   74.0850  220.2190 C   0  0  0  0  0  0  0  0  0  0  0  0
  143.8610   73.8000  220.5510 C   0  0  0  0  0  0  0  0  0  0  0  0
  142.8870   74.6170  220.9950 N   0  0  0  0  0  0  0  0  0  0  0  0
  140.1460   75.8580  221.5180 N   0  0  0  0  0  0  0  0  0  0  0  0
  140.9320   76.9330  220.8730 C   0  0  0  0  0  0  0  0  0  0  0  0
  140.6970   78.0420  221.8730 C   0  0  1  0  0  0  0  0  0  0  0  0
  141.4500   77.8150  223.1660 C   0  0  0  0  0  0  0  0  0  0  0  0
  141.4070   79.2380  223.7410 C   0  0  0  0  0  0  0  0  0  0  0  0
  141.8120   80.0180  222.5850 N   0  0  0  0  0  0  0  0  0  0  0  0
  141.3130   81.3770  222.6160 C   0  0  1  0  0  0  0  0  0  0  0  0
  141.3660   82.0630  221.2880 C   0  0  0  0  0  0  0  0  0  0  0  0
  139.9260   82.3800  220.9990 C   0  0  0  0  0  0  0  0  0  0  0  0
  139.2550   82.3930  222.3010 N   0  0  0  0  0  0  0  0  0  0  0  0
  139.8180   81.2400  222.9420 C   0  0  0  0  0  0  0  0  0  0  0  0
  141.1410   79.3890  221.4460 C   0  0  0  0  0  0  0  0  0  0  0  0
  139.2500   77.8910  222.1420 C   0  0  0  0  0  0  0  0  0  0  0  0
  138.2140   78.7110  222.5370 C   0  0  0  0  0  0  0  0  0  0  0  0
  136.9330   78.2340  222.7100 C   0  0  0  0  0  0  0  0  0  0  0  0
  136.6220   76.8890  222.4930 C   0  0  0  0  0  0  0  0  0  0  0  0
  137.6660   76.0460  222.0930 C   0  0  0  0  0  0  0  0  0  0  0  0
  138.9480   76.5390  221.9210 C   0  0  0  0  0  0  0  0  0  0  0  0
  141.2917   71.7493  220.8998 H   0  0  0  0  0  0  0  0  0  0  0  0
  143.7603   70.5048  219.9312 H   0  0  0  0  0  0  0  0  0  0  0  0
  147.0054   73.2230  219.5149 H   0  0  0  0  0  0  0  0  0  0  0  0
  145.5968   75.1025  220.3004 H   0  0  0  0  0  0  0  0  0  0  0  0
  143.0170   75.6350  221.1590 H   0  0  0  0  0  0  0  0  0  0  0  0
  141.9974   76.6713  220.7921 H   0  0  0  0  0  0  0  0  0  0  0  0
  140.6467   77.1665  219.8366 H   0  0  0  0  0  0  0  0  0  0  0  0
  140.9361   77.0936  223.8184 H   0  0  0  0  0  0  0  0  0  0  0  0
  142.4572   77.3879  223.0512 H   0  0  0  0  0  0  0  0  0  0  0  0
  140.3944   79.5078  224.0754 H   0  0  0  0  0  0  0  0  0  0  0  0
  142.0369   79.3862  224.6305 H   0  0  0  0  0  0  0  0  0  0  0  0
  141.9184   81.9578  223.3275 H   0  0  0  0  0  0  0  0  0  0  0  0
  141.9673   82.9824  221.3441 H   0  0  0  0  0  0  0  0  0  0  0  0
  141.8343   81.4471  220.5061 H   0  0  0  0  0  0  0  0  0  0  0  0
  139.8396   83.3630  220.5129 H   0  0  0  0  0  0  0  0  0  0  0  0
  139.4764   81.6428  220.3175 H   0  0  0  0  0  0  0  0  0  0  0  0
  138.2200   82.1800  222.1690 H   0  0  0  0  0  0  0  0  0  0  0  0
  139.6439   81.2638  224.0279 H   0  0  0  0  0  0  0  0  0  0  0  0
  139.3796   80.2904  222.6014 H   0  0  0  0  0  0  0  0  0  0  0  0
  140.2719   79.9916  221.1436 H   0  0  0  0  0  0  0  0  0  0  0  0
  141.8256   79.3152  220.5881 H   0  0  0  0  0  0  0  0  0  0  0  0
  138.4162   79.7768  222.7192 H   0  0  0  0  0  0  0  0  0  0  0  0
  136.1386   78.9263  223.0255 H   0  0  0  0  0  0  0  0  0  0  0  0
  135.5992   76.5082  222.6307 H   0  0  0  0  0  0  0  0  0  0  0  0
  137.4651   74.9795  221.9134 H   0  0  0  0  0  0  0  0  0  0  0  0
  1  2  2  0
  2  3  1  0
  3  4  2  0
  4  5  1  0
  5  6  2  0
  6  7  1  0
  7  8  1  0
  7  9  2  0
  9 10  1  0
 10 11  2  0
 11 12  1  0
  2 13  1  0
 13 14  1  0
 15 14  1  6
 15 16  1  0
 16 17  1  0
 17 18  1  0
 18 19  1  0
 19 20  1  0
 20 21  1  0
 21 22  1  0
 22 23  1  0
 18 24  1  0
 15 25  1  0
 25 26  2  0
 26 27  1  0
 27 28  2  0
 28 29  1  0
 29 30  2  0
 12  3  1  0
 30 13  1  0
 11  5  1  0
 24 15  1  0
 30 25  1  0
 23 19  1  0
  4 31  1  0
  6 32  1  0
  9 33  1  0
 10 34  1  0
 12 35  1  0
 14 36  1  0
 14 37  1  0
 16 38  1  0
 16 39  1  0
 17 40  1  0
 17 41  1  0
 19 42  1  1
 20 43  1  0
 20 44  1  0
 21 45  1  0
 21 46  1  0
 22 47  1  0
 23 48  1  0
 23 49  1  0
 24 50  1  0
 24 51  1  0
 26 52  1  0
 27 53  1  0
 28 54  1  0
 29 55  1  0
M  END
>  <smiles>  (56) 
O=C(c1cc2cc(F)ccc2[nH]1)N1CC2(CCN(C3CCNC3)C2)c2ccccc21

>  <score_type>  (56) 
oracle

>  <origin>  (56) 
autodockgpu

>  <m_score__min__energy>  (56) 
-8.2599999999999998

>  <m_primary>  (56) 
energy

>  <meeko>  (56) 
{"free_energy": -8.22, "intermolecular_energy": -9.11, "internal_energy": -1.18, "cluster_size": 9, "cluster_id": 1, "rank_in_cluster": 6}

>  <energy>  (56) 
-8.04

>  <cluster_rmsd>  (56) 
0.12

>  <rmsd>  (56) 
270.58

>  <cluster>  (56) 
2

$$$$

     RDKit          3D

 55 60  0  0  1  0  0  0  0  0999 V2000
  139.9040   74.7000  222.3280 O   0  0  0  0  0  0  0  0  0  0  0  0
  140.7770   75.2180  221.5420 C   0  0  0  0  0  0  0  0  0  0  0  0
  141.8240   74.3220  221.0990 C   0  0  0  0  0  0  0  0  0  0  0  0
  141.8080   72.9590  220.8820 C   0  0  0  0  0  0  0  0  0  0  0  0
  143.0890   72.5990  220.4660 C   0  0  0  0  0  0  0  0  0  0  0  0
  143.6900   71.4140  220.1050 C   0  0  0  0  0  0  0  0  0  0  0  0
  145.0130   71.3290  219.7220 C   0  0  0  0  0  0  0  0  0  0  0  0
  145.5930   70.1370  219.3660 F   0  0  0  0  0  0  0  0  0  0  0  0
  145.7350   72.5030  219.7120 C   0  0  0  0  0  0  0  0  0  0  0  0
  145.2040   73.7270  220.0600 C   0  0  0  0  0  0  0  0  0  0  0  0
  143.8590   73.7420  220.4380 C   0  0  0  0  0  0  0  0  0  0  0  0
  143.0820   74.7730  220.8210 N   0  0  0  0  0  0  0  0  0  0  0  0
  140.6190   76.5610  221.2100 N   0  0  0  0  0  0  0  0  0  0  0  0
  139.8630   77.1030  220.0610 C   0  0  0  0  0  0  0  0  0  0  0  0
  140.8470   78.1500  219.5920 C   0  0  1  0  0  0  0  0  0  0  0  0
  142.0610   77.5370  218.9270 C   0  0  0  0  0  0  0  0  0  0  0  0
  142.5920   78.7690  218.1800 C   0  0  0  0  0  0  0  0  0  0  0  0
  141.3760   79.2660  217.5600 N   0  0  0  0  0  0  0  0  0  0  0  0
  141.4170   80.6880  217.2920 C   0  0  1  0  0  0  0  0  0  0  0  0
  142.2280   81.4590  218.2850 C   0  0  0  0  0  0  0  0  0  0  0  0
  143.3160   82.0730  217.4500 C   0  0  0  0  0  0  0  0  0  0  0  0
  142.7930   82.1060  216.0830 N   0  0  0  0  0  0  0  0  0  0  0  0
  142.1770   80.8170  215.9630 C   0  0  0  0  0  0  0  0  0  0  0  0
  140.3340   79.0960  218.5730 C   0  0  0  0  0  0  0  0  0  0  0  0
  141.2710   78.7490  220.8780 C   0  0  0  0  0  0  0  0  0  0  0  0
  141.7460   79.9710  221.3050 C   0  0  0  0  0  0  0  0  0  0  0  0
  142.0680   80.2070  222.6230 C   0  0  0  0  0  0  0  0  0  0  0  0
  141.9260   79.2130  223.5950 C   0  0  0  0  0  0  0  0  0  0  0  0
  141.4450   77.9670  223.1740 C   0  0  0  0  0  0  0  0  0  0  0  0
  141.1250   77.7450  221.8460 C   0  0  0  0  0  0  0  0  0  0  0  0
  140.9483   72.2852  221.0124 H   0  0  0  0  0  0  0  0  0  0  0  0
  143.0883   70.4933  220.1227 H   0  0  0  0  0  0  0  0  0  0  0  0
  146.7919   72.4612  219.4101 H   0  0  0  0  0  0  0  0  0  0  0  0
  145.8089   74.6455  220.0410 H   0  0  0  0  0  0  0  0  0  0  0  0
  143.4170   75.7550  220.8880 H   0  0  0  0  0  0  0  0  0  0  0  0
  139.6792   76.3380  219.2922 H   0  0  0  0  0  0  0  0  0  0  0  0
  138.8555   77.4769  220.2958 H   0  0  0  0  0  0  0  0  0  0  0  0
  142.7857   77.1603  219.6638 H   0  0  0  0  0  0  0  0  0  0  0  0
  141.8554   76.6600  218.2956 H   0  0  0  0  0  0  0  0  0  0  0  0
  143.0221   79.5068  218.8732 H   0  0  0  0  0  0  0  0  0  0  0  0
  143.4052   78.5527  217.4715 H   0  0  0  0  0  0  0  0  0  0  0  0
  140.3888   81.0785  217.3085 H   0  0  0  0  0  0  0  0  0  0  0  0
  141.6195   82.2361  218.7707 H   0  0  0  0  0  0  0  0  0  0  0  0
  142.6169   80.8308  219.0999 H   0  0  0  0  0  0  0  0  0  0  0  0
  143.5399   83.0915  217.8000 H   0  0  0  0  0  0  0  0  0  0  0  0
  144.2514   81.4977  217.5138 H   0  0  0  0  0  0  0  0  0  0  0  0
  143.6040   82.1100  215.3930 H   0  0  0  0  0  0  0  0  0  0  0  0
  141.4881   80.7836  215.1061 H   0  0  0  0  0  0  0  0  0  0  0  0
  142.8947   80.0022  215.7868 H   0  0  0  0  0  0  0  0  0  0  0  0
  140.1057   80.0645  219.0420 H   0  0  0  0  0  0  0  0  0  0  0  0
  139.4118   78.7076  218.1161 H   0  0  0  0  0  0  0  0  0  0  0  0
  141.8714   80.7810  220.5714 H   0  0  0  0  0  0  0  0  0  0  0  0
  142.4446   81.1979  222.9166 H   0  0  0  0  0  0  0  0  0  0  0  0
  142.1817   79.4017  224.6481 H   0  0  0  0  0  0  0  0  0  0  0  0
  141.3202   77.1561  223.9067 H   0  0  0  0  0  0  0  0  0  0  0  0
  1  2  2  0
  2  3  1  0
  3  4  2  0
  4  5  1  0
  5  6  2  0
  6  7  1  0
  7  8  1  0
  7  9  2  0
  9 10  1  0
 10 11  2  0
 11 12  1  0
  2 13  1  0
 13 14  1  0
 15 14  1  1
 15 16  1  0
 16 17  1  0
 17 18  1  0
 18 19  1  0
 19 20  1  0
 20 21  1  0
 21 22  1  0
 22 23  1  0
 18 24  1  0
 15 25  1  0
 25 26  2  0
 26 27  1  0
 27 28  2  0
 28 29  1  0
 29 30  2  0
 12  3  1  0
 30 13  1  0
 11  5  1  0
 24 15  1  0
 30 25  1  0
 23 19  1  0
  4 31  1  0
  6 32  1  0
  9 33  1  0
 10 34  1  0
 12 35  1  0
 14 36  1  0
 14 37  1  0
 16 38  1  0
 16 39  1  0
 17 40  1  0
 17 41  1  0
 19 42  1  6
 20 43  1  0
 20 44  1  0
 21 45  1  0
 21 46  1  0
 22 47  1  0
 23 48  1  0
 23 49  1  0
 24 50  1  0
 24 51  1  0
 26 52  1  0
 27 53  1  0
 28 54  1  0
 29 55  1  0
M  END
>  <smiles>  (57) 
O=C(c1cc2cc(F)ccc2[nH]1)N1CC2(CCN(C3CCNC3)C2)c2ccccc21

>  <score_type>  (57) 
oracle

>  <origin>  (57) 
autodockgpu

>  <m_score__min__energy>  (57) 
-8.2599999999999998

>  <m_primary>  (57) 
energy

>  <meeko>  (57) 
{"free_energy": -8.05, "intermolecular_energy": -8.94, "internal_energy": -1.37, "cluster_size": 10, "cluster_id": 2, "rank_in_cluster": 2}

>  <energy>  (57) 
-8.04

>  <cluster_rmsd>  (57) 
0.15

>  <rmsd>  (57) 
270.6

>  <cluster>  (57) 
2

$$$$

     RDKit          3D

 55 60  0  0  1  0  0  0  0  0999 V2000
  139.9020   74.6970  222.3120 O   0  0  0  0  0  0  0  0  0  0  0  0
  140.7780   75.2190  221.5330 C   0  0  0  0  0  0  0  0  0  0  0  0
  141.8290   74.3270  221.0920 C   0  0  0  0  0  0  0  0  0  0  0  0
  141.8180   72.9640  220.8730 C   0  0  0  0  0  0  0  0  0  0  0  0
  143.1020   72.6090  220.4620 C   0  0  0  0  0  0  0  0  0  0  0  0
  143.7080   71.4250  220.1020 C   0  0  0  0  0  0  0  0  0  0  0  0
  145.0320   71.3450  219.7230 C   0  0  0  0  0  0  0  0  0  0  0  0
  145.6160   70.1550  219.3680 F   0  0  0  0  0  0  0  0  0  0  0  0
  145.7510   72.5210  219.7180 C   0  0  0  0  0  0  0  0  0  0  0  0
  145.2150   73.7430  220.0660 C   0  0  0  0  0  0  0  0  0  0  0  0
  143.8690   73.7540  220.4380 C   0  0  0  0  0  0  0  0  0  0  0  0
  143.0870   74.7820  220.8200 N   0  0  0  0  0  0  0  0  0  0  0  0
  140.6190   76.5630  221.2040 N   0  0  0  0  0  0  0  0  0  0  0  0
  139.8640   77.1070  220.0550 C   0  0  0  0  0  0  0  0  0  0  0  0
  140.8470   78.1570  219.5900 C   0  0  1  0  0  0  0  0  0  0  0  0
  142.0630   77.5470  218.9250 C   0  0  0  0  0  0  0  0  0  0  0  0
  142.5950   78.7820  218.1820 C   0  0  0  0  0  0  0  0  0  0  0  0
  141.3790   79.2780  217.5620 N   0  0  0  0  0  0  0  0  0  0  0  0
  141.4190   80.7020  217.2980 C   0  0  1  0  0  0  0  0  0  0  0  0
  142.2380   81.4690  218.2860 C   0  0  0  0  0  0  0  0  0  0  0  0
  143.3200   82.0840  217.4430 C   0  0  0  0  0  0  0  0  0  0  0  0
  142.7850   82.1210  216.0800 N   0  0  0  0  0  0  0  0  0  0  0  0
  142.1670   80.8330  215.9620 C   0  0  0  0  0  0  0  0  0  0  0  0
  140.3350   79.1040  218.5730 C   0  0  0  0  0  0  0  0  0  0  0  0
  141.2690   78.7530  220.8780 C   0  0  0  0  0  0  0  0  0  0  0  0
  141.7420   79.9740  221.3090 C   0  0  0  0  0  0  0  0  0  0  0  0
  142.0610   80.2080  222.6280 C   0  0  0  0  0  0  0  0  0  0  0  0
  141.9190   79.2110  223.5970 C   0  0  0  0  0  0  0  0  0  0  0  0
  141.4400   77.9660  223.1730 C   0  0  0  0  0  0  0  0  0  0  0  0
  141.1230   77.7460  221.8430 C   0  0  0  0  0  0  0  0  0  0  0  0
  140.9600   72.2873  220.9988 H   0  0  0  0  0  0  0  0  0  0  0  0
  143.1092   70.5024  220.1175 H   0  0  0  0  0  0  0  0  0  0  0  0
  146.8093   72.4827  219.4204 H   0  0  0  0  0  0  0  0  0  0  0  0
  145.8176   74.6632  220.0513 H   0  0  0  0  0  0  0  0  0  0  0  0
  143.4190   75.7640  220.8900 H   0  0  0  0  0  0  0  0  0  0  0  0
  139.6826   76.3437  219.2840 H   0  0  0  0  0  0  0  0  0  0  0  0
  138.8556   77.4788  220.2893 H   0  0  0  0  0  0  0  0  0  0  0  0
  142.7867   77.1686  219.6619 H   0  0  0  0  0  0  0  0  0  0  0  0
  141.8590   76.6719  218.2905 H   0  0  0  0  0  0  0  0  0  0  0  0
  143.0231   79.5186  218.8778 H   0  0  0  0  0  0  0  0  0  0  0  0
  143.4102   78.5692  217.4748 H   0  0  0  0  0  0  0  0  0  0  0  0
  140.3917   81.0944  217.3249 H   0  0  0  0  0  0  0  0  0  0  0  0
  141.6343   82.2455  218.7786 H   0  0  0  0  0  0  0  0  0  0  0  0
  142.6327   80.8386  219.0964 H   0  0  0  0  0  0  0  0  0  0  0  0
  143.5482   83.1014  217.7936 H   0  0  0  0  0  0  0  0  0  0  0  0
  144.2552   81.5075  217.4974 H   0  0  0  0  0  0  0  0  0  0  0  0
  143.5900   82.1270  215.3830 H   0  0  0  0  0  0  0  0  0  0  0  0
  141.4704   80.8023  215.1113 H   0  0  0  0  0  0  0  0  0  0  0  0
  142.8820   80.0178  215.7770 H   0  0  0  0  0  0  0  0  0  0  0  0
  140.1045   80.0710  219.0439 H   0  0  0  0  0  0  0  0  0  0  0  0
  139.4143   78.7154  218.1134 H   0  0  0  0  0  0  0  0  0  0  0  0
  141.8684   80.7857  220.5774 H   0  0  0  0  0  0  0  0  0  0  0  0
  142.4349   81.1990  222.9247 H   0  0  0  0  0  0  0  0  0  0  0  0
  142.1735   79.3972  224.6508 H   0  0  0  0  0  0  0  0  0  0  0  0
  141.3140   77.1537  223.9040 H   0  0  0  0  0  0  0  0  0  0  0  0
  1  2  2  0
  2  3  1  0
  3  4  2  0
  4  5  1  0
  5  6  2  0
  6  7  1  0
  7  8  1  0
  7  9  2  0
  9 10  1  0
 10 11  2  0
 11 12  1  0
  2 13  1  0
 13 14  1  0
 15 14  1  1
 15 16  1  0
 16 17  1  0
 17 18  1  0
 18 19  1  0
 19 20  1  0
 20 21  1  0
 21 22  1  0
 22 23  1  0
 18 24  1  0
 15 25  1  0
 25 26  2  0
 26 27  1  0
 27 28  2  0
 28 29  1  0
 29 30  2  0
 12  3  1  0
 30 13  1  0
 11  5  1  0
 24 15  1  0
 30 25  1  0
 23 19  1  0
  4 31  1  0
  6 32  1  0
  9 33  1  0
 10 34  1  0
 12 35  1  0
 14 36  1  0
 14 37  1  0
 16 38  1  0
 16 39  1  0
 17 40  1  0
 17 41  1  0
 19 42  1  6
 20 43  1  0
 20 44  1  0
 21 45  1  0
 21 46  1  0
 22 47  1  0
 23 48  1  0
 23 49  1  0
 24 50  1  0
 24 51  1  0
 26 52  1  0
 27 53  1  0
 28 54  1  0
 29 55  1  0
M  END
>  <smiles>  (58) 
O=C(c1cc2cc(F)ccc2[nH]1)N1CC2(CCN(C3CCNC3)C2)c2ccccc21

>  <score_type>  (58) 
oracle

>  <origin>  (58) 
autodockgpu

>  <m_score__min__energy>  (58) 
-8.2599999999999998

>  <m_primary>  (58) 
energy

>  <meeko>  (58) 
{"free_energy": -8.04, "intermolecular_energy": -8.93, "internal_energy": -1.36, "cluster_size": 10, "cluster_id": 2, "rank_in_cluster": 6}

>  <energy>  (58) 
-7.99

>  <cluster_rmsd>  (58) 
0.24

>  <rmsd>  (58) 
270.61

>  <cluster>  (58) 
2

$$$$

     RDKit          3D

 55 60  0  0  1  0  0  0  0  0999 V2000
  139.9580   74.6280  222.3010 O   0  0  0  0  0  0  0  0  0  0  0  0
  140.8290   75.1630  221.5250 C   0  0  0  0  0  0  0  0  0  0  0  0
  141.8920   74.2840  221.0850 C   0  0  0  0  0  0  0  0  0  0  0  0
  141.8940   72.9240  220.8500 C   0  0  0  0  0  0  0  0  0  0  0  0
  143.1850   72.5830  220.4480 C   0  0  0  0  0  0  0  0  0  0  0  0
  143.8040   71.4090  220.0810 C   0  0  0  0  0  0  0  0  0  0  0  0
  145.1330   71.3430  219.7150 C   0  0  0  0  0  0  0  0  0  0  0  0
  145.7310   70.1630  219.3530 F   0  0  0  0  0  0  0  0  0  0  0  0
  145.8420   72.5250  219.7310 C   0  0  0  0  0  0  0  0  0  0  0  0
  145.2930   73.7390  220.0880 C   0  0  0  0  0  0  0  0  0  0  0  0
  143.9430   73.7350  220.4460 C   0  0  0  0  0  0  0  0  0  0  0  0
  143.1500   74.7520  220.8310 N   0  0  0  0  0  0  0  0  0  0  0  0
  140.6560   76.5050  221.1990 N   0  0  0  0  0  0  0  0  0  0  0  0
  139.9030   77.0430  220.0450 C   0  0  0  0  0  0  0  0  0  0  0  0
  140.8760   78.1060  219.5910 C   0  0  1  0  0  0  0  0  0  0  0  0
  142.1050   77.5150  218.9340 C   0  0  0  0  0  0  0  0  0  0  0  0
  142.6260   78.7580  218.1990 C   0  0  0  0  0  0  0  0  0  0  0  0
  141.4090   79.2400  217.5700 N   0  0  0  0  0  0  0  0  0  0  0  0
  141.4320   80.6650  217.3100 C   0  0  1  0  0  0  0  0  0  0  0  0
  142.2310   81.4410  218.3080 C   0  0  0  0  0  0  0  0  0  0  0  0
  143.3120   82.0730  217.4780 C   0  0  0  0  0  0  0  0  0  0  0  0
  142.7900   82.1070  216.1100 N   0  0  0  0  0  0  0  0  0  0  0  0
  142.1910   80.8100  215.9820 C   0  0  0  0  0  0  0  0  0  0  0  0
  140.3590   79.0500  218.5720 C   0  0  0  0  0  0  0  0  0  0  0  0
  141.2780   78.7040  220.8830 C   0  0  0  0  0  0  0  0  0  0  0  0
  141.7320   79.9310  221.3220 C   0  0  0  0  0  0  0  0  0  0  0  0
  142.0370   80.1640  222.6450 C   0  0  0  0  0  0  0  0  0  0  0  0
  141.9000   79.1630  223.6100 C   0  0  0  0  0  0  0  0  0  0  0  0
  141.4420   77.9130  223.1780 C   0  0  0  0  0  0  0  0  0  0  0  0
  141.1380   77.6930  221.8450 C   0  0  0  0  0  0  0  0  0  0  0  0
  141.0399   72.2394  220.9591 H   0  0  0  0  0  0  0  0  0  0  0  0
  143.2123   70.4817  220.0795 H   0  0  0  0  0  0  0  0  0  0  0  0
  146.9034   72.4987  219.4434 H   0  0  0  0  0  0  0  0  0  0  0  0
  145.8885   74.6638  220.0906 H   0  0  0  0  0  0  0  0  0  0  0  0
  143.4720   75.7360  220.9160 H   0  0  0  0  0  0  0  0  0  0  0  0
  139.7373   76.2797  219.2704 H   0  0  0  0  0  0  0  0  0  0  0  0
  138.8882   77.4014  220.2723 H   0  0  0  0  0  0  0  0  0  0  0  0
  142.8279   77.1443  219.6756 H   0  0  0  0  0  0  0  0  0  0  0  0
  141.9176   76.6392  218.2954 H   0  0  0  0  0  0  0  0  0  0  0  0
  143.0386   79.4983  218.9002 H   0  0  0  0  0  0  0  0  0  0  0  0
  143.4495   78.5576  217.4978 H   0  0  0  0  0  0  0  0  0  0  0  0
  140.3991   81.0429  217.3279 H   0  0  0  0  0  0  0  0  0  0  0  0
  141.6117   82.2077  218.7966 H   0  0  0  0  0  0  0  0  0  0  0  0
  142.6266   80.8138  219.1205 H   0  0  0  0  0  0  0  0  0  0  0  0
  143.5228   83.0923  217.8339 H   0  0  0  0  0  0  0  0  0  0  0  0
  144.2544   81.5091  217.5398 H   0  0  0  0  0  0  0  0  0  0  0  0
  143.6020   82.1250  215.4210 H   0  0  0  0  0  0  0  0  0  0  0  0
  141.5033   80.7721  215.1243 H   0  0  0  0  0  0  0  0  0  0  0  0
  142.9190   80.0054  215.8016 H   0  0  0  0  0  0  0  0  0  0  0  0
  140.1123   80.0126  219.0437 H   0  0  0  0  0  0  0  0  0  0  0  0
  139.4468   78.6512  218.1042 H   0  0  0  0  0  0  0  0  0  0  0  0
  141.8539   80.7468  220.5943 H   0  0  0  0  0  0  0  0  0  0  0  0
  142.3958   81.1587  222.9479 H   0  0  0  0  0  0  0  0  0  0  0  0
  142.1423   79.3498  224.6666 H   0  0  0  0  0  0  0  0  0  0  0  0
  141.3222   77.0964  223.9052 H   0  0  0  0  0  0  0  0  0  0  0  0
  1  2  2  0
  2  3  1  0
  3  4  2  0
  4  5  1  0
  5  6  2  0
  6  7  1  0
  7  8  1  0
  7  9  2  0
  9 10  1  0
 10 11  2  0
 11 12  1  0
  2 13  1  0
 13 14  1  0
 15 14  1  1
 15 16  1  0
 16 17  1  0
 17 18  1  0
 18 19  1  0
 19 20  1  0
 20 21  1  0
 21 22  1  0
 22 23  1  0
 18 24  1  0
 15 25  1  0
 25 26  2  0
 26 27  1  0
 27 28  2  0
 28 29  1  0
 29 30  2  0
 12  3  1  0
 30 13  1  0
 11  5  1  0
 24 15  1  0
 30 25  1  0
 23 19  1  0
  4 31  1  0
  6 32  1  0
  9 33  1  0
 10 34  1  0
 12 35  1  0
 14 36  1  0
 14 37  1  0
 16 38  1  0
 16 39  1  0
 17 40  1  0
 17 41  1  0
 19 42  1  6
 20 43  1  0
 20 44  1  0
 21 45  1  0
 21 46  1  0
 22 47  1  0
 23 48  1  0
 23 49  1  0
 24 50  1  0
 24 51  1  0
 26 52  1  0
 27 53  1  0
 28 54  1  0
 29 55  1  0
M  END
>  <smiles>  (59) 
O=C(c1cc2cc(F)ccc2[nH]1)N1CC2(CCN(C3CCNC3)C2)c2ccccc21

>  <score_type>  (59) 
oracle

>  <origin>  (59) 
autodockgpu

>  <m_score__min__energy>  (59) 
-8.2599999999999998

>  <m_primary>  (59) 
energy

>  <meeko>  (59) 
{"free_energy": -8.04, "intermolecular_energy": -8.94, "internal_energy": -1.37, "cluster_size": 10, "cluster_id": 2, "rank_in_cluster": 5}

>  <energy>  (59) 
-7.74

>  <cluster_rmsd>  (59) 
0.76

>  <rmsd>  (59) 
270.83

>  <cluster>  (59) 
2

$$$$

     RDKit          3D

 55 60  0  0  1  0  0  0  0  0999 V2000
  139.7020   73.7940  222.3050 O   0  0  0  0  0  0  0  0  0  0  0  0
  140.5060   74.5700  221.6740 C   0  0  0  0  0  0  0  0  0  0  0  0
  141.7220   73.9490  221.1930 C   0  0  0  0  0  0  0  0  0  0  0  0
  141.9900   72.6350  220.8650 C   0  0  0  0  0  0  0  0  0  0  0  0
  143.3240   72.5810  220.4630 C   0  0  0  0  0  0  0  0  0  0  0  0
  144.1620   71.5790  220.0260 C   0  0  0  0  0  0  0  0  0  0  0  0
  145.4790   71.7990  219.6810 C   0  0  0  0  0  0  0  0  0  0  0  0
  146.2980   70.7870  219.2480 F   0  0  0  0  0  0  0  0  0  0  0  0
  145.9440   73.0920  219.7920 C   0  0  0  0  0  0  0  0  0  0  0  0
  145.1680   74.1470  220.2220 C   0  0  0  0  0  0  0  0  0  0  0  0
  143.8430   73.8550  220.5550 C   0  0  0  0  0  0  0  0  0  0  0  0
  142.8640   74.6690  220.9950 N   0  0  0  0  0  0  0  0  0  0  0  0
  140.1230   75.9000  221.5250 N   0  0  0  0  0  0  0  0  0  0  0  0
  140.9020   76.9750  220.8740 C   0  0  0  0  0  0  0  0  0  0  0  0
  140.6810   78.0820  221.8790 C   0  0  1  0  0  0  0  0  0  0  0  0
  141.4490   77.8510  223.1630 C   0  0  0  0  0  0  0  0  0  0  0  0
  141.4140   79.2730  223.7420 C   0  0  0  0  0  0  0  0  0  0  0  0
  141.8060   80.0550  222.5830 N   0  0  0  0  0  0  0  0  0  0  0  0
  141.3090   81.4150  222.6230 C   0  0  1  0  0  0  0  0  0  0  0  0
  141.4170   82.1290  221.3130 C   0  0  0  0  0  0  0  0  0  0  0  0
  139.9910   82.4570  220.9730 C   0  0  0  0  0  0  0  0  0  0  0  0
  139.2680   82.4430  222.2470 N   0  0  0  0  0  0  0  0  0  0  0  0
  139.8020   81.2750  222.8850 C   0  0  0  0  0  0  0  0  0  0  0  0
  141.1210   79.4300  221.4500 C   0  0  0  0  0  0  0  0  0  0  0  0
  139.2370   77.9320  222.1650 C   0  0  0  0  0  0  0  0  0  0  0  0
  138.2060   78.7520  222.5740 C   0  0  0  0  0  0  0  0  0  0  0  0
  136.9270   78.2760  222.7620 C   0  0  0  0  0  0  0  0  0  0  0  0
  136.6120   76.9320  222.5450 C   0  0  0  0  0  0  0  0  0  0  0  0
  137.6500   76.0890  222.1300 C   0  0  0  0  0  0  0  0  0  0  0  0
  138.9310   76.5810  221.9450 C   0  0  0  0  0  0  0  0  0  0  0  0
  141.2855   71.7915  220.9119 H   0  0  0  0  0  0  0  0  0  0  0  0
  143.7627   70.5570  219.9487 H   0  0  0  0  0  0  0  0  0  0  0  0
  146.9915   73.2928  219.5228 H   0  0  0  0  0  0  0  0  0  0  0  0
  145.5717   75.1674  220.2991 H   0  0  0  0  0  0  0  0  0  0  0  0
  142.9890   75.6880  221.1550 H   0  0  0  0  0  0  0  0  0  0  0  0
  141.9659   76.7121  220.7796 H   0  0  0  0  0  0  0  0  0  0  0  0
  140.6042   77.2116  219.8418 H   0  0  0  0  0  0  0  0  0  0  0  0
  140.9420   77.1285  223.8195 H   0  0  0  0  0  0  0  0  0  0  0  0
  142.4543   77.4232  223.0355 H   0  0  0  0  0  0  0  0  0  0  0  0
  140.4057   79.5430  224.0890 H   0  0  0  0  0  0  0  0  0  0  0  0
  142.0544   79.4187  224.6244 H   0  0  0  0  0  0  0  0  0  0  0  0
  141.8862   81.9789  223.3706 H   0  0  0  0  0  0  0  0  0  0  0  0
  142.0179   83.0449  221.4129 H   0  0  0  0  0  0  0  0  0  0  0  0
  141.9147   81.5281  220.5376 H   0  0  0  0  0  0  0  0  0  0  0  0
  139.9266   83.4509  220.5061 H   0  0  0  0  0  0  0  0  0  0  0  0
  139.5677   81.7369  220.2573 H   0  0  0  0  0  0  0  0  0  0  0  0
  138.2390   82.2360  222.0680 H   0  0  0  0  0  0  0  0  0  0  0  0
  139.5839   81.2758  223.9632 H   0  0  0  0  0  0  0  0  0  0  0  0
  139.3759   80.3342  222.5064 H   0  0  0  0  0  0  0  0  0  0  0  0
  140.2489   80.0342  221.1596 H   0  0  0  0  0  0  0  0  0  0  0  0
  141.7950   79.3582  220.5837 H   0  0  0  0  0  0  0  0  0  0  0  0
  138.4111   79.8174  222.7554 H   0  0  0  0  0  0  0  0  0  0  0  0
  136.1374   78.9682  223.0897 H   0  0  0  0  0  0  0  0  0  0  0  0
  135.5906   76.5520  222.6941 H   0  0  0  0  0  0  0  0  0  0  0  0
  137.4455   75.0235  221.9488 H   0  0  0  0  0  0  0  0  0  0  0  0
  1  2  2  0
  2  3  1  0
  3  4  2  0
  4  5  1  0
  5  6  2  0
  6  7  1  0
  7  8  1  0
  7  9  2  0
  9 10  1  0
 10 11  2  0
 11 12  1  0
  2 13  1  0
 13 14  1  0
 15 14  1  6
 15 16  1  0
 16 17  1  0
 17 18  1  0
 18 19  1  0
 19 20  1  0
 20 21  1  0
 21 22  1  0
 22 23  1  0
 18 24  1  0
 15 25  1  0
 25 26  2  0
 26 27  1  0
 27 28  2  0
 28 29  1  0
 29 30  2  0
 12  3  1  0
 30 13  1  0
 11  5  1  0
 24 15  1  0
 30 25  1  0
 23 19  1  0
  4 31  1  0
  6 32  1  0
  9 33  1  0
 10 34  1  0
 12 35  1  0
 14 36  1  0
 14 37  1  0
 16 38  1  0
 16 39  1  0
 17 40  1  0
 17 41  1  0
 19 42  1  1
 20 43  1  0
 20 44  1  0
 21 45  1  0
 21 46  1  0
 22 47  1  0
 23 48  1  0
 23 49  1  0
 24 50  1  0
 24 51  1  0
 26 52  1  0
 27 53  1  0
 28 54  1  0
 29 55  1  0
M  END
>  <smiles>  (60) 
O=C(c1cc2cc(F)ccc2[nH]1)N1CC2(CCN(C3CCNC3)C2)c2ccccc21

>  <score_type>  (60) 
oracle

>  <origin>  (60) 
autodockgpu

>  <m_score__min__energy>  (60) 
-8.2599999999999998

>  <m_primary>  (60) 
energy

>  <meeko>  (60) 
{"free_energy": -8.24, "intermolecular_energy": -9.13, "internal_energy": -1.15, "cluster_size": 9, "cluster_id": 1, "rank_in_cluster": 4}

>  <energy>  (60) 
-7.43

>  <cluster_rmsd>  (60) 
0.0

>  <rmsd>  (60) 
272.52

>  <cluster>  (60) 
3

$$$$

     RDKit          3D

 55 60  0  0  1  0  0  0  0  0999 V2000
  138.3010   73.0690  222.0240 O   0  0  0  0  0  0  0  0  0  0  0  0
  139.5760   72.8310  222.1890 C   0  0  0  0  0  0  0  0  0  0  0  0
  139.8580   71.9060  223.2470 C   0  0  0  0  0  0  0  0  0  0  0  0
  139.1590   70.6910  223.3420 C   0  0  0  0  0  0  0  0  0  0  0  0
  139.5970   69.9870  224.4470 C   0  0  0  0  0  0  0  0  0  0  0  0
  139.2370   68.7660  224.9690 C   0  0  0  0  0  0  0  0  0  0  0  0
  139.8470   68.2880  226.1070 C   0  0  0  0  0  0  0  0  0  0  0  0
  139.4610   67.0800  226.5860 F   0  0  0  0  0  0  0  0  0  0  0  0
  140.8150   69.0670  226.6890 C   0  0  0  0  0  0  0  0  0  0  0  0
  141.1770   70.2820  226.1750 C   0  0  0  0  0  0  0  0  0  0  0  0
  140.5520   70.7530  225.0250 C   0  0  0  0  0  0  0  0  0  0  0  0
  140.6840   71.8880  224.2880 N   0  0  0  0  0  0  0  0  0  0  0  0
  140.3950   73.5300  221.3120 N   0  0  0  0  0  0  0  0  0  0  0  0
  139.9090   74.6980  220.4920 C   0  0  0  0  0  0  0  0  0  0  0  0
  141.0190   75.6630  220.9140 C   0  0  2  0  0  0  0  0  0  0  0  0
  140.7330   76.0580  222.3450 C   0  0  0  0  0  0  0  0  0  0  0  0
  139.8610   77.2640  222.0780 C   0  0  0  0  0  0  0  0  0  0  0  0
  140.6450   78.0120  221.1430 N   0  0  0  0  0  0  0  0  0  0  0  0
  141.8210   78.6290  221.6710 C   0  0  1  0  0  0  0  0  0  0  0  0
  141.9030   80.0460  221.1480 C   0  0  0  0  0  0  0  0  0  0  0  0
  140.8850   80.7120  222.0860 C   0  0  0  0  0  0  0  0  0  0  0  0
  140.8760   79.9590  223.3010 N   0  0  0  0  0  0  0  0  0  0  0  0
  141.7770   78.8630  223.1450 C   0  0  0  0  0  0  0  0  0  0  0  0
  141.0230   76.9520  220.1900 C   0  0  0  0  0  0  0  0  0  0  0  0
  142.2260   74.8210  220.7560 C   0  0  0  0  0  0  0  0  0  0  0  0
  143.5440   74.9710  220.4410 C   0  0  0  0  0  0  0  0  0  0  0  0
  144.3940   73.8940  220.3410 C   0  0  0  0  0  0  0  0  0  0  0  0
  143.9450   72.5890  220.5610 C   0  0  0  0  0  0  0  0  0  0  0  0
  142.6200   72.4310  220.8790 C   0  0  0  0  0  0  0  0  0  0  0  0
  141.7720   73.5050  220.9800 C   0  0  0  0  0  0  0  0  0  0  0  0
  138.3808   70.3517  222.6425 H   0  0  0  0  0  0  0  0  0  0  0  0
  138.4573   68.1682  224.4743 H   0  0  0  0  0  0  0  0  0  0  0  0
  141.3160   68.7029  227.5980 H   0  0  0  0  0  0  0  0  0  0  0  0
  141.9565   70.8820  226.6674 H   0  0  0  0  0  0  0  0  0  0  0  0
  141.3640   72.6040  224.5750 H   0  0  0  0  0  0  0  0  0  0  0  0
  139.9144   74.4903  219.4118 H   0  0  0  0  0  0  0  0  0  0  0  0
  138.8713   75.0261  220.6520 H   0  0  0  0  0  0  0  0  0  0  0  0
  140.1940   75.2704  222.8920 H   0  0  0  0  0  0  0  0  0  0  0  0
  141.6164   76.2388  222.9750 H   0  0  0  0  0  0  0  0  0  0  0  0
  138.8961   76.9679  221.6406 H   0  0  0  0  0  0  0  0  0  0  0  0
  139.6041   77.8292  222.9861 H   0  0  0  0  0  0  0  0  0  0  0  0
  142.6401   77.9499  221.3919 H   0  0  0  0  0  0  0  0  0  0  0  0
  142.9108   80.4708  221.2658 H   0  0  0  0  0  0  0  0  0  0  0  0
  141.7016   80.1643  220.0731 H   0  0  0  0  0  0  0  0  0  0  0  0
  141.1827   81.7514  222.2887 H   0  0  0  0  0  0  0  0  0  0  0  0
  139.8846   80.7287  221.6289 H   0  0  0  0  0  0  0  0  0  0  0  0
  141.1640   80.5710  224.1060 H   0  0  0  0  0  0  0  0  0  0  0  0
  142.7751   79.1213  223.5286 H   0  0  0  0  0  0  0  0  0  0  0  0
  141.4549   77.9713  223.7028 H   0  0  0  0  0  0  0  0  0  0  0  0
  140.2983   76.9178  219.3632 H   0  0  0  0  0  0  0  0  0  0  0  0
  142.0207   77.1522  219.7723 H   0  0  0  0  0  0  0  0  0  0  0  0
  143.9389   75.9819  220.2617 H   0  0  0  0  0  0  0  0  0  0  0  0
  145.4496   74.0636  220.0824 H   0  0  0  0  0  0  0  0  0  0  0  0
  144.6238   71.7270  220.4827 H   0  0  0  0  0  0  0  0  0  0  0  0
  142.2278   71.4189  221.0573 H   0  0  0  0  0  0  0  0  0  0  0  0
  1  2  2  0
  2  3  1  0
  3  4  2  0
  4  5  1  0
  5  6  2  0
  6  7  1  0
  7  8  1  0
  7  9  2  0
  9 10  1  0
 10 11  2  0
 11 12  1  0
  2 13  1  0
 13 14  1  0
 15 14  1  6
 15 16  1  0
 16 17  1  0
 17 18  1  0
 18 19  1  0
 19 20  1  0
 20 21  1  0
 21 22  1  0
 22 23  1  0
 18 24  1  0
 15 25  1  0
 25 26  2  0
 26 27  1  0
 27 28  2  0
 28 29  1  0
 29 30  2  0
 12  3  1  0
 30 13  1  0
 11  5  1  0
 24 15  1  0
 30 25  1  0
 23 19  1  0
  4 31  1  0
  6 32  1  0
  9 33  1  0
 10 34  1  0
 12 35  1  0
 14 36  1  0
 14 37  1  0
 16 38  1  0
 16 39  1  0
 17 40  1  0
 17 41  1  0
 19 42  1  1
 20 43  1  0
 20 44  1  0
 21 45  1  0
 21 46  1  0
 22 47  1  0
 23 48  1  0
 23 49  1  0
 24 50  1  0
 24 51  1  0
 26 52  1  0
 27 53  1  0
 28 54  1  0
 29 55  1  0
M  END
>  <smiles>  (61) 
O=C(c1cc2cc(F)ccc2[nH]1)N1CC2(CCN(C3CCNC3)C2)c2ccccc21

>  <score_type>  (61) 
oracle

>  <origin>  (61) 
autodockgpu

>  <m_score__min__energy>  (61) 
-8.1799999999999997

>  <m_primary>  (61) 
energy

>  <meeko>  (61) 
{"free_energy": -8.14, "intermolecular_energy": -9.03, "internal_energy": -1.12, "cluster_size": 14, "cluster_id": 2, "rank_in_cluster": 4}

>  <energy>  (61) 
-8.18

>  <cluster_rmsd>  (61) 
0.0

>  <rmsd>  (61) 
270.69

>  <cluster>  (61) 
1

$$$$

     RDKit          3D

 55 60  0  0  1  0  0  0  0  0999 V2000
  138.2850   72.9820  221.9270 O   0  0  0  0  0  0  0  0  0  0  0  0
  139.5610   72.7920  222.1390 C   0  0  0  0  0  0  0  0  0  0  0  0
  139.8390   71.8950  223.2220 C   0  0  0  0  0  0  0  0  0  0  0  0
  139.1210   70.6950  223.3600 C   0  0  0  0  0  0  0  0  0  0  0  0
  139.5590   70.0170  224.4820 C   0  0  0  0  0  0  0  0  0  0  0  0
  139.1840   68.8190  225.0450 C   0  0  0  0  0  0  0  0  0  0  0  0
  139.7970   68.3650  226.1900 C   0  0  0  0  0  0  0  0  0  0  0  0
  139.3960   67.1790  226.7100 F   0  0  0  0  0  0  0  0  0  0  0  0
  140.7840   69.1450  226.7390 C   0  0  0  0  0  0  0  0  0  0  0  0
  141.1600   70.3380  226.1850 C   0  0  0  0  0  0  0  0  0  0  0  0
  140.5320   70.7840  225.0270 C   0  0  0  0  0  0  0  0  0  0  0  0
  140.6750   71.8940  224.2550 N   0  0  0  0  0  0  0  0  0  0  0  0
  140.3850   73.5050  221.2780 N   0  0  0  0  0  0  0  0  0  0  0  0
  139.9010   74.6810  220.4680 C   0  0  0  0  0  0  0  0  0  0  0  0
  141.0040   75.6450  220.9120 C   0  0  2  0  0  0  0  0  0  0  0  0
  140.7030   76.0210  222.3460 C   0  0  0  0  0  0  0  0  0  0  0  0
  139.8290   77.2270  222.0860 C   0  0  0  0  0  0  0  0  0  0  0  0
  140.6180   77.9890  221.1670 N   0  0  0  0  0  0  0  0  0  0  0  0
  141.7860   78.6050  221.7140 C   0  0  1  0  0  0  0  0  0  0  0  0
  141.8750   80.0230  221.1960 C   0  0  0  0  0  0  0  0  0  0  0  0
  140.8450   80.6870  222.1210 C   0  0  0  0  0  0  0  0  0  0  0  0
  140.8180   79.9300  223.3340 N   0  0  0  0  0  0  0  0  0  0  0  0
  141.7220   78.8350  223.1880 C   0  0  0  0  0  0  0  0  0  0  0  0
  141.0080   76.9430  220.2050 C   0  0  0  0  0  0  0  0  0  0  0  0
  142.2160   74.8100  220.7550 C   0  0  0  0  0  0  0  0  0  0  0  0
  143.5350   74.9700  220.4530 C   0  0  0  0  0  0  0  0  0  0  0  0
  144.3910   73.8970  220.3480 C   0  0  0  0  0  0  0  0  0  0  0  0
  143.9460   72.5890  220.5480 C   0  0  0  0  0  0  0  0  0  0  0  0
  142.6190   72.4210  220.8520 C   0  0  0  0  0  0  0  0  0  0  0  0
  141.7650   73.4890  220.9580 C   0  0  0  0  0  0  0  0  0  0  0  0
  138.3304   70.3479  222.6785 H   0  0  0  0  0  0  0  0  0  0  0  0
  138.3889   68.2203  224.5767 H   0  0  0  0  0  0  0  0  0  0  0  0
  141.2887   68.7999  227.6534 H   0  0  0  0  0  0  0  0  0  0  0  0
  141.9533   70.9401  226.6520 H   0  0  0  0  0  0  0  0  0  0  0  0
  141.3700   72.6070  224.5140 H   0  0  0  0  0  0  0  0  0  0  0  0
  139.9167   74.4868  219.3854 H   0  0  0  0  0  0  0  0  0  0  0  0
  138.8606   75.0030  220.6226 H   0  0  0  0  0  0  0  0  0  0  0  0
  140.1619   75.2246  222.8779 H   0  0  0  0  0  0  0  0  0  0  0  0
  141.5798   76.1971  222.9865 H   0  0  0  0  0  0  0  0  0  0  0  0
  138.8690   76.9328  221.6368 H   0  0  0  0  0  0  0  0  0  0  0  0
  139.5624   77.7802  222.9986 H   0  0  0  0  0  0  0  0  0  0  0  0
  142.6089   77.9264  221.4450 H   0  0  0  0  0  0  0  0  0  0  0  0
  142.8812   80.4473  221.3285 H   0  0  0  0  0  0  0  0  0  0  0  0
  141.6879   80.1438  220.1188 H   0  0  0  0  0  0  0  0  0  0  0  0
  141.1409   81.7254  222.3310 H   0  0  0  0  0  0  0  0  0  0  0  0
  139.8512   80.7062  221.6498 H   0  0  0  0  0  0  0  0  0  0  0  0
  141.0950   80.5400  224.1450 H   0  0  0  0  0  0  0  0  0  0  0  0
  142.7145   79.0931  223.5858 H   0  0  0  0  0  0  0  0  0  0  0  0
  141.3934   77.9417  223.7394 H   0  0  0  0  0  0  0  0  0  0  0  0
  140.2902   76.9161  219.3719 H   0  0  0  0  0  0  0  0  0  0  0  0
  142.0084   77.1527  219.7985 H   0  0  0  0  0  0  0  0  0  0  0  0
  143.9267   75.9847  220.2885 H   0  0  0  0  0  0  0  0  0  0  0  0
  145.4483   74.0740  220.1012 H   0  0  0  0  0  0  0  0  0  0  0  0
  144.6293   71.7310  220.4654 H   0  0  0  0  0  0  0  0  0  0  0  0
  142.2303   71.4049  221.0148 H   0  0  0  0  0  0  0  0  0  0  0  0
  1  2  2  0
  2  3  1  0
  3  4  2  0
  4  5  1  0
  5  6  2  0
  6  7  1  0
  7  8  1  0
  7  9  2  0
  9 10  1  0
 10 11  2  0
 11 12  1  0
  2 13  1  0
 13 14  1  0
 15 14  1  6
 15 16  1  0
 16 17  1  0
 17 18  1  0
 18 19  1  0
 19 20  1  0
 20 21  1  0
 21 22  1  0
 22 23  1  0
 18 24  1  0
 15 25  1  0
 25 26  2  0
 26 27  1  0
 27 28  2  0
 28 29  1  0
 29 30  2  0
 12  3  1  0
 30 13  1  0
 11  5  1  0
 24 15  1  0
 30 25  1  0
 23 19  1  0
  4 31  1  0
  6 32  1  0
  9 33  1  0
 10 34  1  0
 12 35  1  0
 14 36  1  0
 14 37  1  0
 16 38  1  0
 16 39  1  0
 17 40  1  0
 17 41  1  0
 19 42  1  1
 20 43  1  0
 20 44  1  0
 21 45  1  0
 21 46  1  0
 22 47  1  0
 23 48  1  0
 23 49  1  0
 24 50  1  0
 24 51  1  0
 26 52  1  0
 27 53  1  0
 28 54  1  0
 29 55  1  0
M  END
>  <smiles>  (62) 
O=C(c1cc2cc(F)ccc2[nH]1)N1CC2(CCN(C3CCNC3)C2)c2ccccc21

>  <score_type>  (62) 
oracle

>  <origin>  (62) 
autodockgpu

>  <m_score__min__energy>  (62) 
-8.1799999999999997

>  <m_primary>  (62) 
energy

>  <meeko>  (62) 
{"free_energy": -8.13, "intermolecular_energy": -9.03, "internal_energy": -1.13, "cluster_size": 14, "cluster_id": 2, "rank_in_cluster": 9}

>  <energy>  (62) 
-8.12

>  <cluster_rmsd>  (62) 
0.22

>  <rmsd>  (62) 
270.69

>  <cluster>  (62) 
1

$$$$

     RDKit          3D

 55 60  0  0  1  0  0  0  0  0999 V2000
  141.4810   73.6120  221.0060 O   0  0  0  0  0  0  0  0  0  0  0  0
  140.4010   73.8950  221.6860 C   0  0  0  0  0  0  0  0  0  0  0  0
  140.2700   75.2860  222.0090 C   0  0  0  0  0  0  0  0  0  0  0  0
  139.0070   75.8430  222.2750 C   0  0  0  0  0  0  0  0  0  0  0  0
  139.1410   77.1920  222.5420 C   0  0  0  0  0  0  0  0  0  0  0  0
  138.2250   78.1690  222.8550 C   0  0  0  0  0  0  0  0  0  0  0  0
  138.6350   79.4640  223.0780 C   0  0  0  0  0  0  0  0  0  0  0  0
  137.6970   80.3940  223.3840 F   0  0  0  0  0  0  0  0  0  0  0  0
  139.9770   79.7350  222.9790 C   0  0  0  0  0  0  0  0  0  0  0  0
  140.8930   78.7680  222.6680 C   0  0  0  0  0  0  0  0  0  0  0  0
  140.4630   77.4640  222.4440 C   0  0  0  0  0  0  0  0  0  0  0  0
  141.1080   76.3100  222.1260 N   0  0  0  0  0  0  0  0  0  0  0  0
  139.6080   72.7890  221.9650 N   0  0  0  0  0  0  0  0  0  0  0  0
  140.1640   71.3930  222.0850 C   0  0  0  0  0  0  0  0  0  0  0  0
  139.5370   71.0880  223.4470 C   0  0  2  0  0  0  0  0  0  0  0  0
  140.3060   71.8920  224.4710 C   0  0  0  0  0  0  0  0  0  0  0  0
  141.3780   70.8780  224.7990 C   0  0  0  0  0  0  0  0  0  0  0  0
  140.6160   69.6950  225.0610 N   0  0  0  0  0  0  0  0  0  0  0  0
  139.8590   69.7020  226.2730 C   0  0  1  0  0  0  0  0  0  0  0  0
  138.8040   68.6200  226.1930 C   0  0  0  0  0  0  0  0  0  0  0  0
  139.6810   67.3990  226.5090 C   0  0  0  0  0  0  0  0  0  0  0  0
  140.7650   67.8580  227.3210 N   0  0  0  0  0  0  0  0  0  0  0  0
  140.6290   69.2710  227.4770 C   0  0  0  0  0  0  0  0  0  0  0  0
  139.7040   69.6910  223.9030 C   0  0  0  0  0  0  0  0  0  0  0  0
  138.1440   71.5490  223.2480 C   0  0  0  0  0  0  0  0  0  0  0  0
  136.8920   71.2360  223.6840 C   0  0  0  0  0  0  0  0  0  0  0  0
  135.7750   71.8900  223.2160 C   0  0  0  0  0  0  0  0  0  0  0  0
  135.8740   72.9120  222.2690 C   0  0  0  0  0  0  0  0  0  0  0  0
  137.1320   73.2320  221.8260 C   0  0  0  0  0  0  0  0  0  0  0  0
  138.2460   72.5810  222.2930 C   0  0  0  0  0  0  0  0  0  0  0  0
  138.0566   75.2891  222.2711 H   0  0  0  0  0  0  0  0  0  0  0  0
  137.1575   77.9138  222.9276 H   0  0  0  0  0  0  0  0  0  0  0  0
  140.3270   80.7628  223.1554 H   0  0  0  0  0  0  0  0  0  0  0  0
  141.9614   79.0194  222.5956 H   0  0  0  0  0  0  0  0  0  0  0  0
  142.1290   76.3160  222.0020 H   0  0  0  0  0  0  0  0  0  0  0  0
  139.8034   70.7222  221.2913 H   0  0  0  0  0  0  0  0  0  0  0  0
  141.2544   71.2778  221.9973 H   0  0  0  0  0  0  0  0  0  0  0  0
  140.7258   72.8141  224.0427 H   0  0  0  0  0  0  0  0  0  0  0  0
  139.7197   72.2587  225.3264 H   0  0  0  0  0  0  0  0  0  0  0  0
  142.0599   70.7313  223.9485 H   0  0  0  0  0  0  0  0  0  0  0  0
  142.0237   71.1782  225.6374 H   0  0  0  0  0  0  0  0  0  0  0  0
  139.5012   70.7377  226.3700 H   0  0  0  0  0  0  0  0  0  0  0  0
  138.0109   68.7621  226.9418 H   0  0  0  0  0  0  0  0  0  0  0  0
  138.2510   68.5701  225.2434 H   0  0  0  0  0  0  0  0  0  0  0  0
  139.0948   66.6444  227.0539 H   0  0  0  0  0  0  0  0  0  0  0  0
  140.0541   66.9353  225.5839 H   0  0  0  0  0  0  0  0  0  0  0  0
  140.7460   67.3740  228.2540 H   0  0  0  0  0  0  0  0  0  0  0  0
  140.0778   69.5101  228.3984 H   0  0  0  0  0  0  0  0  0  0  0  0
  141.6005   69.7804  227.5594 H   0  0  0  0  0  0  0  0  0  0  0  0
  140.1323   69.0827  223.0928 H   0  0  0  0  0  0  0  0  0  0  0  0
  138.7309   69.2625  224.1848 H   0  0  0  0  0  0  0  0  0  0  0  0
  136.7702   70.4380  224.4312 H   0  0  0  0  0  0  0  0  0  0  0  0
  134.7836   71.6018  223.5957 H   0  0  0  0  0  0  0  0  0  0  0  0
  134.9826   73.4369  221.8951 H   0  0  0  0  0  0  0  0  0  0  0  0
  137.2508   74.0299  221.0782 H   0  0  0  0  0  0  0  0  0  0  0  0
  1  2  2  0
  2  3  1  0
  3  4  2  0
  4  5  1  0
  5  6  2  0
  6  7  1  0
  7  8  1  0
  7  9  2  0
  9 10  1  0
 10 11  2  0
 11 12  1  0
  2 13  1  0
 13 14  1  0
 15 14  1  6
 15 16  1  0
 16 17  1  0
 17 18  1  0
 18 19  1  0
 19 20  1  0
 20 21  1  0
 21 22  1  0
 22 23  1  0
 18 24  1  0
 15 25  1  0
 25 26  2  0
 26 27  1  0
 27 28  2  0
 28 29  1  0
 29 30  2  0
 12  3  1  0
 30 13  1  0
 11  5  1  0
 24 15  1  0
 30 25  1  0
 23 19  1  0
  4 31  1  0
  6 32  1  0
  9 33  1  0
 10 34  1  0
 12 35  1  0
 14 36  1  0
 14 37  1  0
 16 38  1  0
 16 39  1  0
 17 40  1  0
 17 41  1  0
 19 42  1  1
 20 43  1  0
 20 44  1  0
 21 45  1  0
 21 46  1  0
 22 47  1  0
 23 48  1  0
 23 49  1  0
 24 50  1  0
 24 51  1  0
 26 52  1  0
 27 53  1  0
 28 54  1  0
 29 55  1  0
M  END
>  <smiles>  (63) 
O=C(c1cc2cc(F)ccc2[nH]1)N1CC2(CCN(C3CCNC3)C2)c2ccccc21

>  <score_type>  (63) 
oracle

>  <origin>  (63) 
autodockgpu

>  <m_score__min__energy>  (63) 
-8.1799999999999997

>  <m_primary>  (63) 
energy

>  <meeko>  (63) 
{"free_energy": -7.69, "intermolecular_energy": -8.58, "internal_energy": -1.35, "cluster_size": 4, "cluster_id": 3, "rank_in_cluster": 4}

>  <energy>  (63) 
-8.14

>  <cluster_rmsd>  (63) 
0.0

>  <rmsd>  (63) 
270.94

>  <cluster>  (63) 
2

$$$$

     RDKit          3D

 55 60  0  0  1  0  0  0  0  0999 V2000
  138.3020   73.0320  222.0300 O   0  0  0  0  0  0  0  0  0  0  0  0
  139.5780   72.8050  222.2000 C   0  0  0  0  0  0  0  0  0  0  0  0
  139.8640   71.8890  223.2650 C   0  0  0  0  0  0  0  0  0  0  0  0
  139.1730   70.6690  223.3660 C   0  0  0  0  0  0  0  0  0  0  0  0
  139.6140   69.9750  224.4770 C   0  0  0  0  0  0  0  0  0  0  0  0
  139.2620   68.7550  225.0060 C   0  0  0  0  0  0  0  0  0  0  0  0
  139.8710   68.2890  226.1480 C   0  0  0  0  0  0  0  0  0  0  0  0
  139.4930   67.0810  226.6340 F   0  0  0  0  0  0  0  0  0  0  0  0
  140.8320   69.0790  226.7280 C   0  0  0  0  0  0  0  0  0  0  0  0
  141.1860   70.2930  226.2070 C   0  0  0  0  0  0  0  0  0  0  0  0
  140.5610   70.7520  225.0520 C   0  0  0  0  0  0  0  0  0  0  0  0
  140.6870   71.8830  224.3090 N   0  0  0  0  0  0  0  0  0  0  0  0
  140.3940   73.5040  221.3200 N   0  0  0  0  0  0  0  0  0  0  0  0
  139.9030   74.6670  220.4970 C   0  0  0  0  0  0  0  0  0  0  0  0
  141.0100   75.6370  220.9150 C   0  0  2  0  0  0  0  0  0  0  0  0
  140.7220   76.0360  222.3450 C   0  0  0  0  0  0  0  0  0  0  0  0
  139.8470   77.2380  222.0750 C   0  0  0  0  0  0  0  0  0  0  0  0
  140.6280   77.9860  221.1360 N   0  0  0  0  0  0  0  0  0  0  0  0
  141.8010   78.6090  221.6630 C   0  0  1  0  0  0  0  0  0  0  0  0
  141.8810   80.0220  221.1300 C   0  0  0  0  0  0  0  0  0  0  0  0
  140.8600   80.6930  222.0610 C   0  0  0  0  0  0  0  0  0  0  0  0
  140.8500   79.9480  223.2810 N   0  0  0  0  0  0  0  0  0  0  0  0
  141.7540   78.8530  223.1350 C   0  0  0  0  0  0  0  0  0  0  0  0
  141.0090   76.9240  220.1870 C   0  0  0  0  0  0  0  0  0  0  0  0
  142.2210   74.7990  220.7610 C   0  0  0  0  0  0  0  0  0  0  0  0
  143.5370   74.9540  220.4440 C   0  0  0  0  0  0  0  0  0  0  0  0
  144.3920   73.8790  220.3490 C   0  0  0  0  0  0  0  0  0  0  0  0
  143.9480   72.5740  220.5730 C   0  0  0  0  0  0  0  0  0  0  0  0
  142.6240   72.4120  220.8910 C   0  0  0  0  0  0  0  0  0  0  0  0
  141.7710   73.4820  220.9890 C   0  0  0  0  0  0  0  0  0  0  0  0
  138.3988   70.3197  222.6670 H   0  0  0  0  0  0  0  0  0  0  0  0
  138.4885   68.1481  224.5126 H   0  0  0  0  0  0  0  0  0  0  0  0
  141.3333   68.7245  227.6407 H   0  0  0  0  0  0  0  0  0  0  0  0
  141.9594   70.9021  226.6977 H   0  0  0  0  0  0  0  0  0  0  0  0
  141.3610   72.6060  224.5930 H   0  0  0  0  0  0  0  0  0  0  0  0
  139.9082   74.4559  219.4174 H   0  0  0  0  0  0  0  0  0  0  0  0
  138.8643   74.9919  220.6567 H   0  0  0  0  0  0  0  0  0  0  0  0
  140.1852   75.2485  222.8942 H   0  0  0  0  0  0  0  0  0  0  0  0
  141.6048   76.2216  222.9744 H   0  0  0  0  0  0  0  0  0  0  0  0
  138.8825   76.9377  221.6397 H   0  0  0  0  0  0  0  0  0  0  0  0
  139.5898   77.8054  222.9816 H   0  0  0  0  0  0  0  0  0  0  0  0
  142.6221   77.9294  221.3910 H   0  0  0  0  0  0  0  0  0  0  0  0
  142.8877   80.4496  221.2466 H   0  0  0  0  0  0  0  0  0  0  0  0
  141.6812   80.1319  220.0539 H   0  0  0  0  0  0  0  0  0  0  0  0
  141.1556   81.7342  222.2572 H   0  0  0  0  0  0  0  0  0  0  0  0
  139.8605   80.7053  221.6018 H   0  0  0  0  0  0  0  0  0  0  0  0
  141.1350   80.5670  224.0830 H   0  0  0  0  0  0  0  0  0  0  0  0
  142.7507   79.1164  223.5186 H   0  0  0  0  0  0  0  0  0  0  0  0
  141.4334   77.9646  223.6988 H   0  0  0  0  0  0  0  0  0  0  0  0
  140.2840   76.8845  219.3607 H   0  0  0  0  0  0  0  0  0  0  0  0
  142.0060   77.1262  219.7685 H   0  0  0  0  0  0  0  0  0  0  0  0
  143.9271   75.9657  220.2589 H   0  0  0  0  0  0  0  0  0  0  0  0
  145.4473   74.0517  220.0912 H   0  0  0  0  0  0  0  0  0  0  0  0
  144.6300   71.7143  220.4977 H   0  0  0  0  0  0  0  0  0  0  0  0
  142.2361   71.3987  221.0721 H   0  0  0  0  0  0  0  0  0  0  0  0
  1  2  2  0
  2  3  1  0
  3  4  2  0
  4  5  1  0
  5  6  2  0
  6  7  1  0
  7  8  1  0
  7  9  2  0
  9 10  1  0
 10 11  2  0
 11 12  1  0
  2 13  1  0
 13 14  1  0
 15 14  1  6
 15 16  1  0
 16 17  1  0
 17 18  1  0
 18 19  1  0
 19 20  1  0
 20 21  1  0
 21 22  1  0
 22 23  1  0
 18 24  1  0
 15 25  1  0
 25 26  2  0
 26 27  1  0
 27 28  2  0
 28 29  1  0
 29 30  2  0
 12  3  1  0
 30 13  1  0
 11  5  1  0
 24 15  1  0
 30 25  1  0
 23 19  1  0
  4 31  1  0
  6 32  1  0
  9 33  1  0
 10 34  1  0
 12 35  1  0
 14 36  1  0
 14 37  1  0
 16 38  1  0
 16 39  1  0
 17 40  1  0
 17 41  1  0
 19 42  1  1
 20 43  1  0
 20 44  1  0
 21 45  1  0
 21 46  1  0
 22 47  1  0
 23 48  1  0
 23 49  1  0
 24 50  1  0
 24 51  1  0
 26 52  1  0
 27 53  1  0
 28 54  1  0
 29 55  1  0
M  END
>  <smiles>  (64) 
O=C(c1cc2cc(F)ccc2[nH]1)N1CC2(CCN(C3CCNC3)C2)c2ccccc21

>  <score_type>  (64) 
oracle

>  <origin>  (64) 
autodockgpu

>  <m_score__min__energy>  (64) 
-8.1799999999999997

>  <m_primary>  (64) 
energy

>  <meeko>  (64) 
{"free_energy": -8.14, "intermolecular_energy": -9.03, "internal_energy": -1.12, "cluster_size": 14, "cluster_id": 2, "rank_in_cluster": 5}

>  <energy>  (64) 
-8.14

>  <cluster_rmsd>  (64) 
0.03

>  <rmsd>  (64) 
270.94

>  <cluster>  (64) 
2

$$$$

     RDKit          3D

 55 60  0  0  1  0  0  0  0  0999 V2000
  138.3070   73.0340  221.9800 O   0  0  0  0  0  0  0  0  0  0  0  0
  139.5820   72.8150  222.1690 C   0  0  0  0  0  0  0  0  0  0  0  0
  139.8580   71.9030  223.2400 C   0  0  0  0  0  0  0  0  0  0  0  0
  139.1520   70.6930  223.3510 C   0  0  0  0  0  0  0  0  0  0  0  0
  139.5870   70.0010  224.4650 C   0  0  0  0  0  0  0  0  0  0  0  0
  139.2200   68.7900  225.0040 C   0  0  0  0  0  0  0  0  0  0  0  0
  139.8260   68.3240  226.1480 C   0  0  0  0  0  0  0  0  0  0  0  0
  139.4330   67.1240  226.6430 F   0  0  0  0  0  0  0  0  0  0  0  0
  140.7990   69.1050  226.7200 C   0  0  0  0  0  0  0  0  0  0  0  0
  141.1670   70.3110  226.1900 C   0  0  0  0  0  0  0  0  0  0  0  0
  140.5460   70.7700  225.0330 C   0  0  0  0  0  0  0  0  0  0  0  0
  140.6840   71.8940  224.2810 N   0  0  0  0  0  0  0  0  0  0  0  0
  140.4060   73.5180  221.3000 N   0  0  0  0  0  0  0  0  0  0  0  0
  139.9240   74.6880  220.4800 C   0  0  0  0  0  0  0  0  0  0  0  0
  141.0300   75.6530  220.9130 C   0  0  2  0  0  0  0  0  0  0  0  0
  140.7330   76.0430  222.3430 C   0  0  0  0  0  0  0  0  0  0  0  0
  139.8620   77.2490  222.0740 C   0  0  0  0  0  0  0  0  0  0  0  0
  140.6520   78.0000  221.1460 N   0  0  0  0  0  0  0  0  0  0  0  0
  141.8230   78.6170  221.6850 C   0  0  1  0  0  0  0  0  0  0  0  0
  141.9120   80.0320  221.1580 C   0  0  0  0  0  0  0  0  0  0  0  0
  140.8860   80.7040  222.0830 C   0  0  0  0  0  0  0  0  0  0  0  0
  140.8630   79.9540  223.3010 N   0  0  0  0  0  0  0  0  0  0  0  0
  141.7640   78.8560  223.1580 C   0  0  0  0  0  0  0  0  0  0  0  0
  141.0370   76.9440  220.1930 C   0  0  0  0  0  0  0  0  0  0  0  0
  142.2400   74.8120  220.7610 C   0  0  0  0  0  0  0  0  0  0  0  0
  143.5590   74.9660  220.4550 C   0  0  0  0  0  0  0  0  0  0  0  0
  144.4120   73.8900  220.3590 C   0  0  0  0  0  0  0  0  0  0  0  0
  143.9630   72.5840  220.5710 C   0  0  0  0  0  0  0  0  0  0  0  0
  142.6360   72.4230  220.8790 C   0  0  0  0  0  0  0  0  0  0  0  0
  141.7860   73.4950  220.9770 C   0  0  0  0  0  0  0  0  0  0  0  0
  138.3715   70.3490  222.6564 H   0  0  0  0  0  0  0  0  0  0  0  0
  138.4369   68.1901  224.5173 H   0  0  0  0  0  0  0  0  0  0  0  0
  141.2985   68.7498  227.6334 H   0  0  0  0  0  0  0  0  0  0  0  0
  141.9487   70.9138  226.6754 H   0  0  0  0  0  0  0  0  0  0  0  0
  141.3680   72.6100  224.5590 H   0  0  0  0  0  0  0  0  0  0  0  0
  139.9373   74.4837  219.3992 H   0  0  0  0  0  0  0  0  0  0  0  0
  138.8848   75.0143  220.6335 H   0  0  0  0  0  0  0  0  0  0  0  0
  140.1907   75.2531  222.8833 H   0  0  0  0  0  0  0  0  0  0  0  0
  141.6116   76.2226  222.9800 H   0  0  0  0  0  0  0  0  0  0  0  0
  138.9001   76.9536  221.6296 H   0  0  0  0  0  0  0  0  0  0  0  0
  139.5987   77.8114  222.9819 H   0  0  0  0  0  0  0  0  0  0  0  0
  142.6441   77.9357  221.4174 H   0  0  0  0  0  0  0  0  0  0  0  0
  142.9193   80.4555  221.2841 H   0  0  0  0  0  0  0  0  0  0  0  0
  141.7209   80.1463  220.0808 H   0  0  0  0  0  0  0  0  0  0  0  0
  141.1842   81.7433  222.2854 H   0  0  0  0  0  0  0  0  0  0  0  0
  139.8904   80.7223  221.6156 H   0  0  0  0  0  0  0  0  0  0  0  0
  141.1440   80.5680  224.1070 H   0  0  0  0  0  0  0  0  0  0  0  0
  142.7584   79.1141  223.5511 H   0  0  0  0  0  0  0  0  0  0  0  0
  141.4348   77.9667  223.7154 H   0  0  0  0  0  0  0  0  0  0  0  0
  140.3176   76.9114  219.3615 H   0  0  0  0  0  0  0  0  0  0  0  0
  142.0371   77.1466  219.7822 H   0  0  0  0  0  0  0  0  0  0  0  0
  143.9528   75.9781  220.2799 H   0  0  0  0  0  0  0  0  0  0  0  0
  145.4696   74.0619  220.1101 H   0  0  0  0  0  0  0  0  0  0  0  0
  144.6434   71.7231  220.4943 H   0  0  0  0  0  0  0  0  0  0  0  0
  142.2441   71.4097  221.0515 H   0  0  0  0  0  0  0  0  0  0  0  0
  1  2  2  0
  2  3  1  0
  3  4  2  0
  4  5  1  0
  5  6  2  0
  6  7  1  0
  7  8  1  0
  7  9  2  0
  9 10  1  0
 10 11  2  0
 11 12  1  0
  2 13  1  0
 13 14  1  0
 15 14  1  6
 15 16  1  0
 16 17  1  0
 17 18  1  0
 18 19  1  0
 19 20  1  0
 20 21  1  0
 21 22  1  0
 22 23  1  0
 18 24  1  0
 15 25  1  0
 25 26  2  0
 26 27  1  0
 27 28  2  0
 28 29  1  0
 29 30  2  0
 12  3  1  0
 30 13  1  0
 11  5  1  0
 24 15  1  0
 30 25  1  0
 23 19  1  0
  4 31  1  0
  6 32  1  0
  9 33  1  0
 10 34  1  0
 12 35  1  0
 14 36  1  0
 14 37  1  0
 16 38  1  0
 16 39  1  0
 17 40  1  0
 17 41  1  0
 19 42  1  1
 20 43  1  0
 20 44  1  0
 21 45  1  0
 21 46  1  0
 22 47  1  0
 23 48  1  0
 23 49  1  0
 24 50  1  0
 24 51  1  0
 26 52  1  0
 27 53  1  0
 28 54  1  0
 29 55  1  0
M  END
>  <smiles>  (65) 
O=C(c1cc2cc(F)ccc2[nH]1)N1CC2(CCN(C3CCNC3)C2)c2ccccc21

>  <score_type>  (65) 
oracle

>  <origin>  (65) 
autodockgpu

>  <m_score__min__energy>  (65) 
-8.1799999999999997

>  <m_primary>  (65) 
energy

>  <meeko>  (65) 
{"free_energy": -8.14, "intermolecular_energy": -9.03, "internal_energy": -1.12, "cluster_size": 14, "cluster_id": 2, "rank_in_cluster": 7}

>  <energy>  (65) 
-8.14

>  <cluster_rmsd>  (65) 
0.04

>  <rmsd>  (65) 
270.94

>  <cluster>  (65) 
2

$$$$

     RDKit          3D

 55 60  0  0  1  0  0  0  0  0999 V2000
  139.1460   71.4730  220.7600 O   0  0  0  0  0  0  0  0  0  0  0  0
  140.1550   71.9280  221.4560 C   0  0  0  0  0  0  0  0  0  0  0  0
  140.2030   71.4250  222.7980 C   0  0  0  0  0  0  0  0  0  0  0  0
  140.6920   72.2250  223.8450 C   0  0  0  0  0  0  0  0  0  0  0  0
  140.6500   71.5160  225.0300 C   0  0  0  0  0  0  0  0  0  0  0  0
  141.0100   71.8420  226.3170 C   0  0  0  0  0  0  0  0  0  0  0  0
  140.8630   70.9280  227.3350 C   0  0  0  0  0  0  0  0  0  0  0  0
  141.2300   71.2930  228.5880 F   0  0  0  0  0  0  0  0  0  0  0  0
  140.3480   69.6960  227.0180 C   0  0  0  0  0  0  0  0  0  0  0  0
  139.9890   69.3650  225.7410 C   0  0  0  0  0  0  0  0  0  0  0  0
  140.1440   70.2990  224.7210 C   0  0  0  0  0  0  0  0  0  0  0  0
  139.8880   70.2760  223.3860 N   0  0  0  0  0  0  0  0  0  0  0  0
  140.9670   72.8110  220.7560 N   0  0  0  0  0  0  0  0  0  0  0  0
  140.4200   73.9490  219.9320 C   0  0  0  0  0  0  0  0  0  0  0  0
  141.2820   75.0390  220.5740 C   0  0  2  0  0  0  0  0  0  0  0  0
  140.7270   75.2730  221.9610 C   0  0  0  0  0  0  0  0  0  0  0  0
  139.7170   76.3460  221.6240 C   0  0  0  0  0  0  0  0  0  0  0  0
  140.4950   77.2760  220.8640 N   0  0  0  0  0  0  0  0  0  0  0  0
  141.4620   78.0260  221.6020 C   0  0  1  0  0  0  0  0  0  0  0  0
  141.4970   79.4380  221.0620 C   0  0  0  0  0  0  0  0  0  0  0  0
  140.2420   79.9950  221.7500 C   0  0  0  0  0  0  0  0  0  0  0  0
  140.0620   79.2560  222.9600 N   0  0  0  0  0  0  0  0  0  0  0  0
  141.0900   78.2670  223.0280 C   0  0  0  0  0  0  0  0  0  0  0  0
  141.1780   76.3650  219.9280 C   0  0  0  0  0  0  0  0  0  0  0  0
  142.6210   74.4090  220.5640 C   0  0  0  0  0  0  0  0  0  0  0  0
  143.9280   74.7860  220.4680 C   0  0  0  0  0  0  0  0  0  0  0  0
  144.9500   73.8650  220.4470 C   0  0  0  0  0  0  0  0  0  0  0  0
  144.6950   72.4940  220.5250 C   0  0  0  0  0  0  0  0  0  0  0  0
  143.3830   72.1080  220.6220 C   0  0  0  0  0  0  0  0  0  0  0  0
  142.3630   73.0250  220.6440 C   0  0  0  0  0  0  0  0  0  0  0  0
  141.0532   73.2584  223.7373 H   0  0  0  0  0  0  0  0  0  0  0  0
  141.4182   72.8402  226.5338 H   0  0  0  0  0  0  0  0  0  0  0  0
  140.2200   68.9509  227.8170 H   0  0  0  0  0  0  0  0  0  0  0  0
  139.5805   68.3675  225.5213 H   0  0  0  0  0  0  0  0  0  0  0  0
  139.5010   69.4250  222.9580 H   0  0  0  0  0  0  0  0  0  0  0  0
  140.6180   73.8288  218.8567 H   0  0  0  0  0  0  0  0  0  0  0  0
  139.3303   74.0988  219.9435 H   0  0  0  0  0  0  0  0  0  0  0  0
  140.2509   74.3714  222.3738 H   0  0  0  0  0  0  0  0  0  0  0  0
  141.4659   75.5393  222.7311 H   0  0  0  0  0  0  0  0  0  0  0  0
  138.8887   75.9385  221.0258 H   0  0  0  0  0  0  0  0  0  0  0  0
  139.2404   76.7931  222.5089 H   0  0  0  0  0  0  0  0  0  0  0  0
  142.3892   77.4401  221.5184 H   0  0  0  0  0  0  0  0  0  0  0  0
  142.4071   79.9739  221.3695 H   0  0  0  0  0  0  0  0  0  0  0  0
  141.5101   79.5229  219.9654 H   0  0  0  0  0  0  0  0  0  0  0  0
  140.3787   81.0626  221.9769 H   0  0  0  0  0  0  0  0  0  0  0  0
  139.3620   79.8970  221.0973 H   0  0  0  0  0  0  0  0  0  0  0  0
  140.1100   79.9030  223.7880 H   0  0  0  0  0  0  0  0  0  0  0  0
  141.9532   78.6403  223.5986 H   0  0  0  0  0  0  0  0  0  0  0  0
  140.7592   77.3501  223.5377 H   0  0  0  0  0  0  0  0  0  0  0  0
  140.5975   76.2822  218.9973 H   0  0  0  0  0  0  0  0  0  0  0  0
  142.1788   76.7497  219.6825 H   0  0  0  0  0  0  0  0  0  0  0  0
  144.1721   75.8567  220.4056 H   0  0  0  0  0  0  0  0  0  0  0  0
  145.9895   74.2158  220.3671 H   0  0  0  0  0  0  0  0  0  0  0  0
  145.5109   71.7564  220.5093 H   0  0  0  0  0  0  0  0  0  0  0  0
  143.1423   71.0364  220.6837 H   0  0  0  0  0  0  0  0  0  0  0  0
  1  2  2  0
  2  3  1  0
  3  4  2  0
  4  5  1  0
  5  6  2  0
  6  7  1  0
  7  8  1  0
  7  9  2  0
  9 10  1  0
 10 11  2  0
 11 12  1  0
  2 13  1  0
 13 14  1  0
 15 14  1  6
 15 16  1  0
 16 17  1  0
 17 18  1  0
 18 19  1  0
 19 20  1  0
 20 21  1  0
 21 22  1  0
 22 23  1  0
 18 24  1  0
 15 25  1  0
 25 26  2  0
 26 27  1  0
 27 28  2  0
 28 29  1  0
 29 30  2  0
 12  3  1  0
 30 13  1  0
 11  5  1  0
 24 15  1  0
 30 25  1  0
 23 19  1  0
  4 31  1  0
  6 32  1  0
  9 33  1  0
 10 34  1  0
 12 35  1  0
 14 36  1  0
 14 37  1  0
 16 38  1  0
 16 39  1  0
 17 40  1  0
 17 41  1  0
 19 42  1  1
 20 43  1  0
 20 44  1  0
 21 45  1  0
 21 46  1  0
 22 47  1  0
 23 48  1  0
 23 49  1  0
 24 50  1  0
 24 51  1  0
 26 52  1  0
 27 53  1  0
 28 54  1  0
 29 55  1  0
M  END
>  <smiles>  (66) 
O=C(c1cc2cc(F)ccc2[nH]1)N1CC2(CCN(C3CCNC3)C2)c2ccccc21

>  <score_type>  (66) 
oracle

>  <origin>  (66) 
autodockgpu

>  <m_score__min__energy>  (66) 
-8.1799999999999997

>  <m_primary>  (66) 
energy

>  <meeko>  (66) 
{"free_energy": -7.81, "intermolecular_energy": -8.71, "internal_energy": -1.33, "cluster_size": 14, "cluster_id": 2, "rank_in_cluster": 12}

>  <energy>  (66) 
-8.14

>  <cluster_rmsd>  (66) 
0.07

>  <rmsd>  (66) 
270.95

>  <cluster>  (66) 
2

$$$$

     RDKit          3D

 55 60  0  0  1  0  0  0  0  0999 V2000
  138.2960   73.0410  222.0280 O   0  0  0  0  0  0  0  0  0  0  0  0
  139.5710   72.8050  222.1970 C   0  0  0  0  0  0  0  0  0  0  0  0
  139.8530   71.8860  223.2610 C   0  0  0  0  0  0  0  0  0  0  0  0
  139.1630   70.6660  223.3540 C   0  0  0  0  0  0  0  0  0  0  0  0
  139.5990   69.9690  224.4650 C   0  0  0  0  0  0  0  0  0  0  0  0
  139.2440   68.7470  224.9890 C   0  0  0  0  0  0  0  0  0  0  0  0
  139.8490   68.2770  226.1320 C   0  0  0  0  0  0  0  0  0  0  0  0
  139.4690   67.0680  226.6120 F   0  0  0  0  0  0  0  0  0  0  0  0
  140.8060   69.0670  226.7200 C   0  0  0  0  0  0  0  0  0  0  0  0
  141.1610   70.2820  226.2050 C   0  0  0  0  0  0  0  0  0  0  0  0
  140.5420   70.7440  225.0480 C   0  0  0  0  0  0  0  0  0  0  0  0
  140.6710   71.8780  224.3090 N   0  0  0  0  0  0  0  0  0  0  0  0
  140.3910   73.5010  221.3180 N   0  0  0  0  0  0  0  0  0  0  0  0
  139.9040   74.6620  220.4890 C   0  0  0  0  0  0  0  0  0  0  0  0
  141.0100   75.6330  220.9080 C   0  0  2  0  0  0  0  0  0  0  0  0
  140.7180   76.0360  222.3360 C   0  0  0  0  0  0  0  0  0  0  0  0
  139.8440   77.2380  222.0590 C   0  0  0  0  0  0  0  0  0  0  0  0
  140.6290   77.9820  221.1200 N   0  0  0  0  0  0  0  0  0  0  0  0
  141.8000   78.6060  221.6490 C   0  0  1  0  0  0  0  0  0  0  0  0
  141.8770   80.0220  221.1220 C   0  0  0  0  0  0  0  0  0  0  0  0
  140.8550   80.6870  222.0560 C   0  0  0  0  0  0  0  0  0  0  0  0
  140.8470   79.9370  223.2730 N   0  0  0  0  0  0  0  0  0  0  0  0
  141.7540   78.8450  223.1220 C   0  0  0  0  0  0  0  0  0  0  0  0
  141.0120   76.9170  220.1760 C   0  0  0  0  0  0  0  0  0  0  0  0
  142.2200   74.7930  220.7600 C   0  0  0  0  0  0  0  0  0  0  0  0
  143.5380   74.9460  220.4480 C   0  0  0  0  0  0  0  0  0  0  0  0
  144.3920   73.8700  220.3580 C   0  0  0  0  0  0  0  0  0  0  0  0
  143.9460   72.5660  220.5850 C   0  0  0  0  0  0  0  0  0  0  0  0
  142.6210   72.4060  220.9000 C   0  0  0  0  0  0  0  0  0  0  0  0
  141.7690   73.4780  220.9910 C   0  0  0  0  0  0  0  0  0  0  0  0
  138.3928   70.3183  222.6498 H   0  0  0  0  0  0  0  0  0  0  0  0
  138.4718   68.1422  224.4910 H   0  0  0  0  0  0  0  0  0  0  0  0
  141.3026   68.7105  227.6345 H   0  0  0  0  0  0  0  0  0  0  0  0
  141.9309   70.8905  226.7019 H   0  0  0  0  0  0  0  0  0  0  0  0
  141.3420   72.6010  224.5980 H   0  0  0  0  0  0  0  0  0  0  0  0
  139.9133   74.4473  219.4102 H   0  0  0  0  0  0  0  0  0  0  0  0
  138.8649   74.9881  220.6437 H   0  0  0  0  0  0  0  0  0  0  0  0
  140.1791   75.2503  222.8859 H   0  0  0  0  0  0  0  0  0  0  0  0
  141.5988   76.2229  222.9679 H   0  0  0  0  0  0  0  0  0  0  0  0
  138.8807   76.9368  221.6215 H   0  0  0  0  0  0  0  0  0  0  0  0
  139.5838   77.8087  222.9627 H   0  0  0  0  0  0  0  0  0  0  0  0
  142.6218   77.9286  221.3737 H   0  0  0  0  0  0  0  0  0  0  0  0
  142.8829   80.4511  221.2401 H   0  0  0  0  0  0  0  0  0  0  0  0
  141.6766   80.1361  220.0464 H   0  0  0  0  0  0  0  0  0  0  0  0
  141.1485   81.7280  222.2563 H   0  0  0  0  0  0  0  0  0  0  0  0
  139.8553   80.6991  221.5972 H   0  0  0  0  0  0  0  0  0  0  0  0
  141.1310   80.5520  224.0770 H   0  0  0  0  0  0  0  0  0  0  0  0
  142.7504   79.1100  223.5052 H   0  0  0  0  0  0  0  0  0  0  0  0
  141.4365   77.9537  223.6831 H   0  0  0  0  0  0  0  0  0  0  0  0
  140.2894   76.8752  219.3477 H   0  0  0  0  0  0  0  0  0  0  0  0
  142.0103   77.1172  219.7598 H   0  0  0  0  0  0  0  0  0  0  0  0
  143.9300   75.9570  220.2630 H   0  0  0  0  0  0  0  0  0  0  0  0
  145.4480   74.0408  220.1019 H   0  0  0  0  0  0  0  0  0  0  0  0
  144.6275   71.7054  220.5142 H   0  0  0  0  0  0  0  0  0  0  0  0
  142.2316   71.3939  221.0842 H   0  0  0  0  0  0  0  0  0  0  0  0
  1  2  2  0
  2  3  1  0
  3  4  2  0
  4  5  1  0
  5  6  2  0
  6  7  1  0
  7  8  1  0
  7  9  2  0
  9 10  1  0
 10 11  2  0
 11 12  1  0
  2 13  1  0
 13 14  1  0
 15 14  1  6
 15 16  1  0
 16 17  1  0
 17 18  1  0
 18 19  1  0
 19 20  1  0
 20 21  1  0
 21 22  1  0
 22 23  1  0
 18 24  1  0
 15 25  1  0
 25 26  2  0
 26 27  1  0
 27 28  2  0
 28 29  1  0
 29 30  2  0
 12  3  1  0
 30 13  1  0
 11  5  1  0
 24 15  1  0
 30 25  1  0
 23 19  1  0
  4 31  1  0
  6 32  1  0
  9 33  1  0
 10 34  1  0
 12 35  1  0
 14 36  1  0
 14 37  1  0
 16 38  1  0
 16 39  1  0
 17 40  1  0
 17 41  1  0
 19 42  1  1
 20 43  1  0
 20 44  1  0
 21 45  1  0
 21 46  1  0
 22 47  1  0
 23 48  1  0
 23 49  1  0
 24 50  1  0
 24 51  1  0
 26 52  1  0
 27 53  1  0
 28 54  1  0
 29 55  1  0
M  END
>  <smiles>  (67) 
O=C(c1cc2cc(F)ccc2[nH]1)N1CC2(CCN(C3CCNC3)C2)c2ccccc21

>  <score_type>  (67) 
oracle

>  <origin>  (67) 
autodockgpu

>  <m_score__min__energy>  (67) 
-8.1799999999999997

>  <m_primary>  (67) 
energy

>  <meeko>  (67) 
{"free_energy": -8.14, "intermolecular_energy": -9.03, "internal_energy": -1.11, "cluster_size": 14, "cluster_id": 2, "rank_in_cluster": 8}

>  <energy>  (67) 
-8.14

>  <cluster_rmsd>  (67) 
0.08

>  <rmsd>  (67) 
270.95

>  <cluster>  (67) 
2

$$$$

     RDKit          3D

 55 60  0  0  1  0  0  0  0  0999 V2000
  138.2920   73.0430  222.0070 O   0  0  0  0  0  0  0  0  0  0  0  0
  139.5670   72.8180  222.1910 C   0  0  0  0  0  0  0  0  0  0  0  0
  139.8440   71.9070  223.2630 C   0  0  0  0  0  0  0  0  0  0  0  0
  139.1420   70.6950  223.3710 C   0  0  0  0  0  0  0  0  0  0  0  0
  139.5750   70.0040  224.4870 C   0  0  0  0  0  0  0  0  0  0  0  0
  139.2110   68.7910  225.0240 C   0  0  0  0  0  0  0  0  0  0  0  0
  139.8160   68.3270  226.1700 C   0  0  0  0  0  0  0  0  0  0  0  0
  139.4260   67.1260  226.6640 F   0  0  0  0  0  0  0  0  0  0  0  0
  140.7840   69.1120  226.7450 C   0  0  0  0  0  0  0  0  0  0  0  0
  141.1490   70.3190  226.2160 C   0  0  0  0  0  0  0  0  0  0  0  0
  140.5290   70.7760  225.0580 C   0  0  0  0  0  0  0  0  0  0  0  0
  140.6660   71.9010  224.3070 N   0  0  0  0  0  0  0  0  0  0  0  0
  140.3910   73.5160  221.3170 N   0  0  0  0  0  0  0  0  0  0  0  0
  139.9080   74.6800  220.4890 C   0  0  0  0  0  0  0  0  0  0  0  0
  141.0140   75.6480  220.9160 C   0  0  2  0  0  0  0  0  0  0  0  0
  140.7160   76.0480  222.3440 C   0  0  0  0  0  0  0  0  0  0  0  0
  139.8440   77.2520  222.0660 C   0  0  0  0  0  0  0  0  0  0  0  0
  140.6330   77.9970  221.1330 N   0  0  0  0  0  0  0  0  0  0  0  0
  141.8040   78.6190  221.6680 C   0  0  1  0  0  0  0  0  0  0  0  0
  141.8910   80.0310  221.1340 C   0  0  0  0  0  0  0  0  0  0  0  0
  140.8640   80.7060  222.0550 C   0  0  0  0  0  0  0  0  0  0  0  0
  140.8430   79.9630  223.2770 N   0  0  0  0  0  0  0  0  0  0  0  0
  141.7460   78.8660  223.1390 C   0  0  0  0  0  0  0  0  0  0  0  0
  141.0200   76.9350  220.1870 C   0  0  0  0  0  0  0  0  0  0  0  0
  142.2240   74.8080  220.7700 C   0  0  0  0  0  0  0  0  0  0  0  0
  143.5430   74.9600  220.4640 C   0  0  0  0  0  0  0  0  0  0  0  0
  144.3960   73.8840  220.3750 C   0  0  0  0  0  0  0  0  0  0  0  0
  143.9480   72.5800  220.5960 C   0  0  0  0  0  0  0  0  0  0  0  0
  142.6220   72.4200  220.9050 C   0  0  0  0  0  0  0  0  0  0  0  0
  141.7700   73.4920  220.9950 C   0  0  0  0  0  0  0  0  0  0  0  0
  138.3655   70.3484  222.6732 H   0  0  0  0  0  0  0  0  0  0  0  0
  138.4318   68.1882  224.5347 H   0  0  0  0  0  0  0  0  0  0  0  0
  141.2819   68.7591  227.6602 H   0  0  0  0  0  0  0  0  0  0  0  0
  141.9277   70.9243  226.7031 H   0  0  0  0  0  0  0  0  0  0  0  0
  141.3470   72.6190  224.5860 H   0  0  0  0  0  0  0  0  0  0  0  0
  139.9214   74.4685  219.4096 H   0  0  0  0  0  0  0  0  0  0  0  0
  138.8686   75.0068  220.6399 H   0  0  0  0  0  0  0  0  0  0  0  0
  140.1740   75.2615  222.8896 H   0  0  0  0  0  0  0  0  0  0  0  0
  141.5942   76.2326  222.9802 H   0  0  0  0  0  0  0  0  0  0  0  0
  138.8824   76.9527  221.6236 H   0  0  0  0  0  0  0  0  0  0  0  0
  139.5805   77.8207  222.9699 H   0  0  0  0  0  0  0  0  0  0  0  0
  142.6255   77.9372  221.4030 H   0  0  0  0  0  0  0  0  0  0  0  0
  142.8977   80.4567  221.2583 H   0  0  0  0  0  0  0  0  0  0  0  0
  141.7000   80.1395  220.0562 H   0  0  0  0  0  0  0  0  0  0  0  0
  141.1600   81.7471  222.2514 H   0  0  0  0  0  0  0  0  0  0  0  0
  139.8683   80.7196  221.5877 H   0  0  0  0  0  0  0  0  0  0  0  0
  141.1230   80.5820  224.0800 H   0  0  0  0  0  0  0  0  0  0  0  0
  142.7403   79.1282  223.5296 H   0  0  0  0  0  0  0  0  0  0  0  0
  141.4190   77.9791  223.7016 H   0  0  0  0  0  0  0  0  0  0  0  0
  140.3012   76.8961  219.3552 H   0  0  0  0  0  0  0  0  0  0  0  0
  142.0201   77.1361  219.7755 H   0  0  0  0  0  0  0  0  0  0  0  0
  143.9369   75.9710  220.2831 H   0  0  0  0  0  0  0  0  0  0  0  0
  145.4534   74.0547  220.1244 H   0  0  0  0  0  0  0  0  0  0  0  0
  144.6291   71.7191  220.5252 H   0  0  0  0  0  0  0  0  0  0  0  0
  142.2314   71.4076  221.0852 H   0  0  0  0  0  0  0  0  0  0  0  0
  1  2  2  0
  2  3  1  0
  3  4  2  0
  4  5  1  0
  5  6  2  0
  6  7  1  0
  7  8  1  0
  7  9  2  0
  9 10  1  0
 10 11  2  0
 11 12  1  0
  2 13  1  0
 13 14  1  0
 15 14  1  6
 15 16  1  0
 16 17  1  0
 17 18  1  0
 18 19  1  0
 19 20  1  0
 20 21  1  0
 21 22  1  0
 22 23  1  0
 18 24  1  0
 15 25  1  0
 25 26  2  0
 26 27  1  0
 27 28  2  0
 28 29  1  0
 29 30  2  0
 12  3  1  0
 30 13  1  0
 11  5  1  0
 24 15  1  0
 30 25  1  0
 23 19  1  0
  4 31  1  0
  6 32  1  0
  9 33  1  0
 10 34  1  0
 12 35  1  0
 14 36  1  0
 14 37  1  0
 16 38  1  0
 16 39  1  0
 17 40  1  0
 17 41  1  0
 19 42  1  1
 20 43  1  0
 20 44  1  0
 21 45  1  0
 21 46  1  0
 22 47  1  0
 23 48  1  0
 23 49  1  0
 24 50  1  0
 24 51  1  0
 26 52  1  0
 27 53  1  0
 28 54  1  0
 29 55  1  0
M  END
>  <smiles>  (68) 
O=C(c1cc2cc(F)ccc2[nH]1)N1CC2(CCN(C3CCNC3)C2)c2ccccc21

>  <score_type>  (68) 
oracle

>  <origin>  (68) 
autodockgpu

>  <m_score__min__energy>  (68) 
-8.1799999999999997

>  <m_primary>  (68) 
energy

>  <meeko>  (68) 
{"free_energy": -8.13, "intermolecular_energy": -9.02, "internal_energy": -1.12, "cluster_size": 14, "cluster_id": 2, "rank_in_cluster": 11}

>  <energy>  (68) 
-8.14

>  <cluster_rmsd>  (68) 
0.05

>  <rmsd>  (68) 
270.94

>  <cluster>  (68) 
2

$$$$

     RDKit          3D

 55 60  0  0  1  0  0  0  0  0999 V2000
  141.3780   72.9100  221.0650 O   0  0  0  0  0  0  0  0  0  0  0  0
  140.3440   73.3220  221.7500 C   0  0  0  0  0  0  0  0  0  0  0  0
  140.3190   74.7400  221.9620 C   0  0  0  0  0  0  0  0  0  0  0  0
  139.1190   75.3960  222.2820 C   0  0  0  0  0  0  0  0  0  0  0  0
  139.3510   76.7510  222.4200 C   0  0  0  0  0  0  0  0  0  0  0  0
  138.5220   77.8070  222.7220 C   0  0  0  0  0  0  0  0  0  0  0  0
  139.0220   79.0860  222.7990 C   0  0  0  0  0  0  0  0  0  0  0  0
  138.1690   80.0960  223.1000 F   0  0  0  0  0  0  0  0  0  0  0  0
  140.3630   79.2630  222.5650 C   0  0  0  0  0  0  0  0  0  0  0  0
  141.1920   78.2180  222.2630 C   0  0  0  0  0  0  0  0  0  0  0  0
  140.6730   76.9300  222.1900 C   0  0  0  0  0  0  0  0  0  0  0  0
  141.2210   75.7160  221.9200 N   0  0  0  0  0  0  0  0  0  0  0  0
  139.4860   72.3020  222.1410 N   0  0  0  0  0  0  0  0  0  0  0  0
  139.9490   70.8840  222.3640 C   0  0  0  0  0  0  0  0  0  0  0  0
  139.3450   70.7370  223.7620 C   0  0  2  0  0  0  0  0  0  0  0  0
  140.1990   71.5670  224.6950 C   0  0  0  0  0  0  0  0  0  0  0  0
  141.2090   70.5100  225.0800 C   0  0  0  0  0  0  0  0  0  0  0  0
  140.3760   69.4090  225.4600 N   0  0  0  0  0  0  0  0  0  0  0  0
  139.6600   69.5690  226.6860 C   0  0  1  0  0  0  0  0  0  0  0  0
  139.6020   68.2320  227.3920 C   0  0  0  0  0  0  0  0  0  0  0  0
  141.0170   68.2080  227.9870 C   0  0  0  0  0  0  0  0  0  0  0  0
  141.4170   69.5670  228.1790 N   0  0  0  0  0  0  0  0  0  0  0  0
  140.3650   70.4060  227.7020 C   0  0  0  0  0  0  0  0  0  0  0  0
  139.4310   69.3750  224.3300 C   0  0  0  0  0  0  0  0  0  0  0  0
  137.9820   71.2780  223.5600 C   0  0  0  0  0  0  0  0  0  0  0  0
  136.7250   71.0900  224.0520 C   0  0  0  0  0  0  0  0  0  0  0  0
  135.6420   71.7810  223.5600 C   0  0  0  0  0  0  0  0  0  0  0  0
  135.7800   72.7110  222.5270 C   0  0  0  0  0  0  0  0  0  0  0  0
  137.0430   72.9050  222.0280 C   0  0  0  0  0  0  0  0  0  0  0  0
  138.1240   72.2180  222.5190 C   0  0  0  0  0  0  0  0  0  0  0  0
  138.1422   74.9052  222.4043 H   0  0  0  0  0  0  0  0  0  0  0  0
  137.4520   77.6270  222.9031 H   0  0  0  0  0  0  0  0  0  0  0  0
  140.7842   80.2776  222.6222 H   0  0  0  0  0  0  0  0  0  0  0  0
  142.2620   78.3952  222.0791 H   0  0  0  0  0  0  0  0  0  0  0  0
  142.2250   75.6470  221.7110 H   0  0  0  0  0  0  0  0  0  0  0  0
  139.5190   70.1775  221.6388 H   0  0  0  0  0  0  0  0  0  0  0  0
  141.0258   70.6852  222.2589 H   0  0  0  0  0  0  0  0  0  0  0  0
  140.6672   72.4187  224.1799 H   0  0  0  0  0  0  0  0  0  0  0  0
  139.6662   72.0437  225.5310 H   0  0  0  0  0  0  0  0  0  0  0  0
  141.8525   70.2460  224.2278 H   0  0  0  0  0  0  0  0  0  0  0  0
  141.8995   70.8317  225.8735 H   0  0  0  0  0  0  0  0  0  0  0  0
  138.6997   70.0159  226.3893 H   0  0  0  0  0  0  0  0  0  0  0  0
  138.8269   68.2116  228.1722 H   0  0  0  0  0  0  0  0  0  0  0  0
  139.3439   67.3733  226.7549 H   0  0  0  0  0  0  0  0  0  0  0  0
  141.0120   67.6768  228.9502 H   0  0  0  0  0  0  0  0  0  0  0  0
  141.7147   67.6864  227.3153 H   0  0  0  0  0  0  0  0  0  0  0  0
  141.6060   69.7460  229.1990 H   0  0  0  0  0  0  0  0  0  0  0  0
  139.6841   70.6814  228.5208 H   0  0  0  0  0  0  0  0  0  0  0  0
  140.7382   71.3519  227.2825 H   0  0  0  0  0  0  0  0  0  0  0  0
  139.7916   68.6734  223.5634 H   0  0  0  0  0  0  0  0  0  0  0  0
  138.4401   69.0414  224.6719 H   0  0  0  0  0  0  0  0  0  0  0  0
  136.5722   70.3654  224.8654 H   0  0  0  0  0  0  0  0  0  0  0  0
  134.6460   71.5972  223.9893 H   0  0  0  0  0  0  0  0  0  0  0  0
  134.9147   73.2631  222.1314 H   0  0  0  0  0  0  0  0  0  0  0  0
  137.1926   73.6295  221.2139 H   0  0  0  0  0  0  0  0  0  0  0  0
  1  2  2  0
  2  3  1  0
  3  4  2  0
  4  5  1  0
  5  6  2  0
  6  7  1  0
  7  8  1  0
  7  9  2  0
  9 10  1  0
 10 11  2  0
 11 12  1  0
  2 13  1  0
 13 14  1  0
 15 14  1  6
 15 16  1  0
 16 17  1  0
 17 18  1  0
 18 19  1  0
 19 20  1  0
 20 21  1  0
 21 22  1  0
 22 23  1  0
 18 24  1  0
 15 25  1  0
 25 26  2  0
 26 27  1  0
 27 28  2  0
 28 29  1  0
 29 30  2  0
 12  3  1  0
 30 13  1  0
 11  5  1  0
 24 15  1  0
 30 25  1  0
 23 19  1  0
  4 31  1  0
  6 32  1  0
  9 33  1  0
 10 34  1  0
 12 35  1  0
 14 36  1  0
 14 37  1  0
 16 38  1  0
 16 39  1  0
 17 40  1  0
 17 41  1  0
 19 42  1  6
 20 43  1  0
 20 44  1  0
 21 45  1  0
 21 46  1  0
 22 47  1  0
 23 48  1  0
 23 49  1  0
 24 50  1  0
 24 51  1  0
 26 52  1  0
 27 53  1  0
 28 54  1  0
 29 55  1  0
M  END
>  <smiles>  (69) 
O=C(c1cc2cc(F)ccc2[nH]1)N1CC2(CCN(C3CCNC3)C2)c2ccccc21

>  <score_type>  (69) 
oracle

>  <origin>  (69) 
autodockgpu

>  <m_score__min__energy>  (69) 
-8.1799999999999997

>  <m_primary>  (69) 
energy

>  <meeko>  (69) 
{"free_energy": -7.87, "intermolecular_energy": -8.77, "internal_energy": -1.28, "cluster_size": 4, "cluster_id": 3, "rank_in_cluster": 1}

>  <energy>  (69) 
-8.14

>  <cluster_rmsd>  (69) 
0.05

>  <rmsd>  (69) 
270.95

>  <cluster>  (69) 
2

$$$$

     RDKit          3D

 55 60  0  0  1  0  0  0  0  0999 V2000
  141.3510   72.9600  220.9300 O   0  0  0  0  0  0  0  0  0  0  0  0
  140.3600   73.3410  221.6920 C   0  0  0  0  0  0  0  0  0  0  0  0
  140.3430   74.7500  221.9560 C   0  0  0  0  0  0  0  0  0  0  0  0
  139.1350   75.4120  222.2370 C   0  0  0  0  0  0  0  0  0  0  0  0
  139.3780   76.7570  222.4380 C   0  0  0  0  0  0  0  0  0  0  0  0
  138.5470   77.8130  222.7360 C   0  0  0  0  0  0  0  0  0  0  0  0
  139.0590   79.0820  222.8860 C   0  0  0  0  0  0  0  0  0  0  0  0
  138.2050   80.0920  223.1800 F   0  0  0  0  0  0  0  0  0  0  0  0
  140.4140   79.2470  222.7310 C   0  0  0  0  0  0  0  0  0  0  0  0
  141.2440   78.2010  222.4340 C   0  0  0  0  0  0  0  0  0  0  0  0
  140.7120   76.9250  222.2840 C   0  0  0  0  0  0  0  0  0  0  0  0
  141.2580   75.7130  221.9980 N   0  0  0  0  0  0  0  0  0  0  0  0
  139.5330   72.3020  222.0990 N   0  0  0  0  0  0  0  0  0  0  0  0
  140.0420   70.9080  222.3680 C   0  0  0  0  0  0  0  0  0  0  0  0
  139.4220   70.7780  223.7610 C   0  0  2  0  0  0  0  0  0  0  0  0
  140.2310   71.6630  224.6820 C   0  0  0  0  0  0  0  0  0  0  0  0
  141.2720   70.6530  225.1110 C   0  0  0  0  0  0  0  0  0  0  0  0
  140.4720   69.5340  225.5100 N   0  0  0  0  0  0  0  0  0  0  0  0
  139.7320   69.7020  226.7210 C   0  0  1  0  0  0  0  0  0  0  0  0
  139.5910   68.3550  227.3940 C   0  0  0  0  0  0  0  0  0  0  0  0
  140.9880   68.2490  228.0240 C   0  0  0  0  0  0  0  0  0  0  0  0
  141.4460   69.5830  228.2580 N   0  0  0  0  0  0  0  0  0  0  0  0
  140.4490   70.4820  227.7730 C   0  0  0  0  0  0  0  0  0  0  0  0
  139.5460   69.4350  224.3670 C   0  0  0  0  0  0  0  0  0  0  0  0
  138.0430   71.2640  223.5250 C   0  0  0  0  0  0  0  0  0  0  0  0
  136.7870   71.0450  224.0040 C   0  0  0  0  0  0  0  0  0  0  0  0
  135.6870   71.6840  223.4760 C   0  0  0  0  0  0  0  0  0  0  0  0
  135.8090   72.5900  222.4210 C   0  0  0  0  0  0  0  0  0  0  0  0
  137.0720   72.8150  221.9340 C   0  0  0  0  0  0  0  0  0  0  0  0
  138.1680   72.1800  222.4600 C   0  0  0  0  0  0  0  0  0  0  0  0
  138.1466   74.9320  222.2889 H   0  0  0  0  0  0  0  0  0  0  0  0
  137.4669   77.6418  222.8550 H   0  0  0  0  0  0  0  0  0  0  0  0
  140.8452   80.2520  222.8495 H   0  0  0  0  0  0  0  0  0  0  0  0
  142.3247   78.3681  222.3147 H   0  0  0  0  0  0  0  0  0  0  0  0
  142.2710   75.6370  221.8400 H   0  0  0  0  0  0  0  0  0  0  0  0
  139.6482   70.1671  221.6567 H   0  0  0  0  0  0  0  0  0  0  0  0
  141.1266   70.7446  222.2840 H   0  0  0  0  0  0  0  0  0  0  0  0
  140.6767   72.5164  224.1500 H   0  0  0  0  0  0  0  0  0  0  0  0
  139.6690   72.1434  225.4965 H   0  0  0  0  0  0  0  0  0  0  0  0
  141.9372   70.3885  224.2758 H   0  0  0  0  0  0  0  0  0  0  0  0
  141.9389   71.0207  225.9048 H   0  0  0  0  0  0  0  0  0  0  0  0
  138.8023   70.2012  226.4105 H   0  0  0  0  0  0  0  0  0  0  0  0
  138.7956   68.3556  228.1538 H   0  0  0  0  0  0  0  0  0  0  0  0
  139.3084   67.5240  226.7310 H   0  0  0  0  0  0  0  0  0  0  0  0
  140.9327   67.6970  228.9739 H   0  0  0  0  0  0  0  0  0  0  0  0
  141.6777   67.7094  227.3584 H   0  0  0  0  0  0  0  0  0  0  0  0
  141.6170   69.7310  229.2850 H   0  0  0  0  0  0  0  0  0  0  0  0
  139.7605   70.7730  228.5800 H   0  0  0  0  0  0  0  0  0  0  0  0
  140.8785   71.4172  227.3844 H   0  0  0  0  0  0  0  0  0  0  0  0
  139.9430   68.7262  223.6254 H   0  0  0  0  0  0  0  0  0  0  0  0
  138.5622   69.0752  224.7026 H   0  0  0  0  0  0  0  0  0  0  0  0
  136.6472   70.3384  224.8354 H   0  0  0  0  0  0  0  0  0  0  0  0
  134.6912   71.4760  223.8945 H   0  0  0  0  0  0  0  0  0  0  0  0
  134.9313   73.1011  221.9986 H   0  0  0  0  0  0  0  0  0  0  0  0
  137.2087   73.5214  221.1020 H   0  0  0  0  0  0  0  0  0  0  0  0
  1  2  2  0
  2  3  1  0
  3  4  2  0
  4  5  1  0
  5  6  2  0
  6  7  1  0
  7  8  1  0
  7  9  2  0
  9 10  1  0
 10 11  2  0
 11 12  1  0
  2 13  1  0
 13 14  1  0
 15 14  1  6
 15 16  1  0
 16 17  1  0
 17 18  1  0
 18 19  1  0
 19 20  1  0
 20 21  1  0
 21 22  1  0
 22 23  1  0
 18 24  1  0
 15 25  1  0
 25 26  2  0
 26 27  1  0
 27 28  2  0
 28 29  1  0
 29 30  2  0
 12  3  1  0
 30 13  1  0
 11  5  1  0
 24 15  1  0
 30 25  1  0
 23 19  1  0
  4 31  1  0
  6 32  1  0
  9 33  1  0
 10 34  1  0
 12 35  1  0
 14 36  1  0
 14 37  1  0
 16 38  1  0
 16 39  1  0
 17 40  1  0
 17 41  1  0
 19 42  1  6
 20 43  1  0
 20 44  1  0
 21 45  1  0
 21 46  1  0
 22 47  1  0
 23 48  1  0
 23 49  1  0
 24 50  1  0
 24 51  1  0
 26 52  1  0
 27 53  1  0
 28 54  1  0
 29 55  1  0
M  END
>  <smiles>  (70) 
O=C(c1cc2cc(F)ccc2[nH]1)N1CC2(CCN(C3CCNC3)C2)c2ccccc21

>  <score_type>  (70) 
oracle

>  <origin>  (70) 
autodockgpu

>  <m_score__min__energy>  (70) 
-8.1799999999999997

>  <m_primary>  (70) 
energy

>  <meeko>  (70) 
{"free_energy": -7.86, "intermolecular_energy": -8.76, "internal_energy": -1.31, "cluster_size": 4, "cluster_id": 3, "rank_in_cluster": 2}

>  <energy>  (70) 
-8.14

>  <cluster_rmsd>  (70) 
0.08

>  <rmsd>  (70) 
270.94

>  <cluster>  (70) 
2

$$$$

     RDKit          3D

 55 60  0  0  1  0  0  0  0  0999 V2000
  138.8950   71.9510  220.6770 O   0  0  0  0  0  0  0  0  0  0  0  0
  139.9740   72.2410  221.3560 C   0  0  0  0  0  0  0  0  0  0  0  0
  140.0180   71.6380  222.6560 C   0  0  0  0  0  0  0  0  0  0  0  0
  140.6950   72.2670  223.7150 C   0  0  0  0  0  0  0  0  0  0  0  0
  140.6070   71.4860  224.8510 C   0  0  0  0  0  0  0  0  0  0  0  0
  141.0930   71.6520  226.1280 C   0  0  0  0  0  0  0  0  0  0  0  0
  140.8570   70.7000  227.0930 C   0  0  0  0  0  0  0  0  0  0  0  0
  141.3540   70.9060  228.3370 F   0  0  0  0  0  0  0  0  0  0  0  0
  140.1270   69.5940  226.7340 C   0  0  0  0  0  0  0  0  0  0  0  0
  139.6430   69.4230  225.4670 C   0  0  0  0  0  0  0  0  0  0  0  0
  139.8890   70.3940  224.5020 C   0  0  0  0  0  0  0  0  0  0  0  0
  139.5530   70.5130  223.1900 N   0  0  0  0  0  0  0  0  0  0  0  0
  140.8510   73.0820  220.6820 N   0  0  0  0  0  0  0  0  0  0  0  0
  140.3900   74.2750  219.8830 C   0  0  0  0  0  0  0  0  0  0  0  0
  141.3210   75.2870  220.5560 C   0  0  2  0  0  0  0  0  0  0  0  0
  140.7730   75.5260  221.9450 C   0  0  0  0  0  0  0  0  0  0  0  0
  139.8430   76.6750  221.6280 C   0  0  0  0  0  0  0  0  0  0  0  0
  140.6890   77.5660  220.8950 N   0  0  0  0  0  0  0  0  0  0  0  0
  141.7000   78.2290  221.6570 C   0  0  1  0  0  0  0  0  0  0  0  0
  141.8240   79.6530  221.1650 C   0  0  0  0  0  0  0  0  0  0  0  0
  140.6050   80.2640  221.8720 C   0  0  0  0  0  0  0  0  0  0  0  0
  140.3780   79.4970  223.0570 N   0  0  0  0  0  0  0  0  0  0  0  0
  141.3420   78.4440  223.0900 C   0  0  0  0  0  0  0  0  0  0  0  0
  141.3140   76.6320  219.9420 C   0  0  0  0  0  0  0  0  0  0  0  0
  142.6130   74.5650  220.5390 C   0  0  0  0  0  0  0  0  0  0  0  0
  143.9430   74.8530  220.4590 C   0  0  0  0  0  0  0  0  0  0  0  0
  144.8990   73.8630  220.4220 C   0  0  0  0  0  0  0  0  0  0  0  0
  144.5490   72.5120  220.4650 C   0  0  0  0  0  0  0  0  0  0  0  0
  143.2130   72.2160  220.5450 C   0  0  0  0  0  0  0  0  0  0  0  0
  142.2590   73.2020  220.5840 C   0  0  0  0  0  0  0  0  0  0  0  0
  141.2156   73.2338  223.6492 H   0  0  0  0  0  0  0  0  0  0  0  0
  141.6740   72.5518  226.3788 H   0  0  0  0  0  0  0  0  0  0  0  0
  139.9252   68.8208  227.4900 H   0  0  0  0  0  0  0  0  0  0  0  0
  139.0630   68.5237  225.2124 H   0  0  0  0  0  0  0  0  0  0  0  0
  139.0060   69.7710  222.7360 H   0  0  0  0  0  0  0  0  0  0  0  0
  140.5868   74.1671  218.8061 H   0  0  0  0  0  0  0  0  0  0  0  0
  139.3133   74.4998  219.8924 H   0  0  0  0  0  0  0  0  0  0  0  0
  140.2318   74.6504  222.3328 H   0  0  0  0  0  0  0  0  0  0  0  0
  141.5227   75.7214  222.7259 H   0  0  0  0  0  0  0  0  0  0  0  0
  138.9926   76.3406  221.0156 H   0  0  0  0  0  0  0  0  0  0  0  0
  139.3928   77.1334  222.5208 H   0  0  0  0  0  0  0  0  0  0  0  0
  142.5891   77.5897  221.5528 H   0  0  0  0  0  0  0  0  0  0  0  0
  142.7653   80.1203  221.4899 H   0  0  0  0  0  0  0  0  0  0  0  0
  141.8442   79.7737  220.0718 H   0  0  0  0  0  0  0  0  0  0  0  0
  140.8075   81.3129  222.1345 H   0  0  0  0  0  0  0  0  0  0  0  0
  139.7215   80.2433  221.2170 H   0  0  0  0  0  0  0  0  0  0  0  0
  140.4650   80.1120  223.9060 H   0  0  0  0  0  0  0  0  0  0  0  0
  142.2261   78.7428  223.6722 H   0  0  0  0  0  0  0  0  0  0  0  0
  140.9537   77.5326  223.5682 H   0  0  0  0  0  0  0  0  0  0  0  0
  140.7363   76.6118  219.0061 H   0  0  0  0  0  0  0  0  0  0  0  0
  142.3411   76.9518  219.7123 H   0  0  0  0  0  0  0  0  0  0  0  0
  144.2611   75.9054  220.4230 H   0  0  0  0  0  0  0  0  0  0  0  0
  145.9610   74.1422  220.3572 H   0  0  0  0  0  0  0  0  0  0  0  0
  145.3118   71.7200  220.4359 H   0  0  0  0  0  0  0  0  0  0  0  0
  142.8978   71.1627  220.5788 H   0  0  0  0  0  0  0  0  0  0  0  0
  1  2  2  0
  2  3  1  0
  3  4  2  0
  4  5  1  0
  5  6  2  0
  6  7  1  0
  7  8  1  0
  7  9  2  0
  9 10  1  0
 10 11  2  0
 11 12  1  0
  2 13  1  0
 13 14  1  0
 15 14  1  6
 15 16  1  0
 16 17  1  0
 17 18  1  0
 18 19  1  0
 19 20  1  0
 20 21  1  0
 21 22  1  0
 22 23  1  0
 18 24  1  0
 15 25  1  0
 25 26  2  0
 26 27  1  0
 27 28  2  0
 28 29  1  0
 29 30  2  0
 12  3  1  0
 30 13  1  0
 11  5  1  0
 24 15  1  0
 30 25  1  0
 23 19  1  0
  4 31  1  0
  6 32  1  0
  9 33  1  0
 10 34  1  0
 12 35  1  0
 14 36  1  0
 14 37  1  0
 16 38  1  0
 16 39  1  0
 17 40  1  0
 17 41  1  0
 19 42  1  1
 20 43  1  0
 20 44  1  0
 21 45  1  0
 21 46  1  0
 22 47  1  0
 23 48  1  0
 23 49  1  0
 24 50  1  0
 24 51  1  0
 26 52  1  0
 27 53  1  0
 28 54  1  0
 29 55  1  0
M  END
>  <smiles>  (71) 
O=C(c1cc2cc(F)ccc2[nH]1)N1CC2(CCN(C3CCNC3)C2)c2ccccc21

>  <score_type>  (71) 
oracle

>  <origin>  (71) 
autodockgpu

>  <m_score__min__energy>  (71) 
-8.1799999999999997

>  <m_primary>  (71) 
energy

>  <meeko>  (71) 
{"free_energy": -7.81, "intermolecular_energy": -8.7, "internal_energy": -1.33, "cluster_size": 14, "cluster_id": 2, "rank_in_cluster": 13}

>  <energy>  (71) 
-8.13

>  <cluster_rmsd>  (71) 
0.03

>  <rmsd>  (71) 
270.94

>  <cluster>  (71) 
2

$$$$

     RDKit          3D

 55 60  0  0  1  0  0  0  0  0999 V2000
  138.2970   72.9860  221.9020 O   0  0  0  0  0  0  0  0  0  0  0  0
  139.5720   72.7950  222.1210 C   0  0  0  0  0  0  0  0  0  0  0  0
  139.8420   71.8960  223.2060 C   0  0  0  0  0  0  0  0  0  0  0  0
  139.1250   70.6940  223.3350 C   0  0  0  0  0  0  0  0  0  0  0  0
  139.5550   70.0150  224.4590 C   0  0  0  0  0  0  0  0  0  0  0  0
  139.1780   68.8150  225.0170 C   0  0  0  0  0  0  0  0  0  0  0  0
  139.7820   68.3600  226.1670 C   0  0  0  0  0  0  0  0  0  0  0  0
  139.3790   67.1720  226.6800 F   0  0  0  0  0  0  0  0  0  0  0  0
  140.7620   69.1420  226.7260 C   0  0  0  0  0  0  0  0  0  0  0  0
  141.1410   70.3360  226.1770 C   0  0  0  0  0  0  0  0  0  0  0  0
  140.5220   70.7830  225.0140 C   0  0  0  0  0  0  0  0  0  0  0  0
  140.6690   71.8950  224.2460 N   0  0  0  0  0  0  0  0  0  0  0  0
  140.4020   73.5080  221.2660 N   0  0  0  0  0  0  0  0  0  0  0  0
  139.9250   74.6890  220.4590 C   0  0  0  0  0  0  0  0  0  0  0  0
  141.0290   75.6470  220.9110 C   0  0  2  0  0  0  0  0  0  0  0  0
  140.7230   76.0190  222.3450 C   0  0  0  0  0  0  0  0  0  0  0  0
  139.8550   77.2290  222.0860 C   0  0  0  0  0  0  0  0  0  0  0  0
  140.6500   77.9920  221.1730 N   0  0  0  0  0  0  0  0  0  0  0  0
  141.8180   78.6010  221.7270 C   0  0  1  0  0  0  0  0  0  0  0  0
  141.9060   80.0260  221.2260 C   0  0  0  0  0  0  0  0  0  0  0  0
  140.8750   80.6780  222.1600 C   0  0  0  0  0  0  0  0  0  0  0  0
  140.8500   79.9060  223.3630 N   0  0  0  0  0  0  0  0  0  0  0  0
  141.7540   78.8130  223.2030 C   0  0  0  0  0  0  0  0  0  0  0  0
  141.0410   76.9480  220.2080 C   0  0  0  0  0  0  0  0  0  0  0  0
  142.2390   74.8090  220.7560 C   0  0  0  0  0  0  0  0  0  0  0  0
  143.5600   74.9650  220.4600 C   0  0  0  0  0  0  0  0  0  0  0  0
  144.4130   73.8900  220.3550 C   0  0  0  0  0  0  0  0  0  0  0  0
  143.9620   72.5820  220.5480 C   0  0  0  0  0  0  0  0  0  0  0  0
  142.6340   72.4180  220.8460 C   0  0  0  0  0  0  0  0  0  0  0  0
  141.7830   73.4890  220.9520 C   0  0  0  0  0  0  0  0  0  0  0  0
  138.3409   70.3467  222.6461 H   0  0  0  0  0  0  0  0  0  0  0  0
  138.3884   68.2152  224.5407 H   0  0  0  0  0  0  0  0  0  0  0  0
  141.2585   68.7973  227.6451 H   0  0  0  0  0  0  0  0  0  0  0  0
  141.9295   70.9385  226.6516 H   0  0  0  0  0  0  0  0  0  0  0  0
  141.3600   72.6090  224.5120 H   0  0  0  0  0  0  0  0  0  0  0  0
  139.9442   74.4992  219.3757 H   0  0  0  0  0  0  0  0  0  0  0  0
  138.8851   75.0138  220.6110 H   0  0  0  0  0  0  0  0  0  0  0  0
  140.1765   75.2227  222.8716 H   0  0  0  0  0  0  0  0  0  0  0  0
  141.5977   76.1894  222.9899 H   0  0  0  0  0  0  0  0  0  0  0  0
  138.8957   76.9400  221.6319 H   0  0  0  0  0  0  0  0  0  0  0  0
  139.5872   77.7798  222.9998 H   0  0  0  0  0  0  0  0  0  0  0  0
  142.6411   77.9260  221.4498 H   0  0  0  0  0  0  0  0  0  0  0  0
  142.9119   80.4494  221.3635 H   0  0  0  0  0  0  0  0  0  0  0  0
  141.7188   80.1599  220.1504 H   0  0  0  0  0  0  0  0  0  0  0  0
  141.1697   81.7141  222.3827 H   0  0  0  0  0  0  0  0  0  0  0  0
  139.8809   80.7022  221.6897 H   0  0  0  0  0  0  0  0  0  0  0  0
  141.1270   80.5060  224.1820 H   0  0  0  0  0  0  0  0  0  0  0  0
  142.7466   79.0663  223.6038 H   0  0  0  0  0  0  0  0  0  0  0  0
  141.4252   77.9129  223.7432 H   0  0  0  0  0  0  0  0  0  0  0  0
  140.3269   76.9267  219.3715 H   0  0  0  0  0  0  0  0  0  0  0  0
  142.0438   77.1557  219.8064 H   0  0  0  0  0  0  0  0  0  0  0  0
  143.9558   75.9788  220.3005 H   0  0  0  0  0  0  0  0  0  0  0  0
  145.4720   74.0644  220.1140 H   0  0  0  0  0  0  0  0  0  0  0  0
  144.6424   71.7217  220.4646 H   0  0  0  0  0  0  0  0  0  0  0  0
  142.2410   71.4028  221.0040 H   0  0  0  0  0  0  0  0  0  0  0  0
  1  2  2  0
  2  3  1  0
  3  4  2  0
  4  5  1  0
  5  6  2  0
  6  7  1  0
  7  8  1  0
  7  9  2  0
  9 10  1  0
 10 11  2  0
 11 12  1  0
  2 13  1  0
 13 14  1  0
 15 14  1  6
 15 16  1  0
 16 17  1  0
 17 18  1  0
 18 19  1  0
 19 20  1  0
 20 21  1  0
 21 22  1  0
 22 23  1  0
 18 24  1  0
 15 25  1  0
 25 26  2  0
 26 27  1  0
 27 28  2  0
 28 29  1  0
 29 30  2  0
 12  3  1  0
 30 13  1  0
 11  5  1  0
 24 15  1  0
 30 25  1  0
 23 19  1  0
  4 31  1  0
  6 32  1  0
  9 33  1  0
 10 34  1  0
 12 35  1  0
 14 36  1  0
 14 37  1  0
 16 38  1  0
 16 39  1  0
 17 40  1  0
 17 41  1  0
 19 42  1  1
 20 43  1  0
 20 44  1  0
 21 45  1  0
 21 46  1  0
 22 47  1  0
 23 48  1  0
 23 49  1  0
 24 50  1  0
 24 51  1  0
 26 52  1  0
 27 53  1  0
 28 54  1  0
 29 55  1  0
M  END
>  <smiles>  (72) 
O=C(c1cc2cc(F)ccc2[nH]1)N1CC2(CCN(C3CCNC3)C2)c2ccccc21

>  <score_type>  (72) 
oracle

>  <origin>  (72) 
autodockgpu

>  <m_score__min__energy>  (72) 
-8.1799999999999997

>  <m_primary>  (72) 
energy

>  <meeko>  (72) 
{"free_energy": -8.14, "intermolecular_energy": -9.04, "internal_energy": -1.12, "cluster_size": 14, "cluster_id": 2, "rank_in_cluster": 1}

>  <energy>  (72) 
-8.13

>  <cluster_rmsd>  (72) 
0.04

>  <rmsd>  (72) 
270.94

>  <cluster>  (72) 
2

$$$$

     RDKit          3D

 55 60  0  0  1  0  0  0  0  0999 V2000
  138.3040   73.0190  221.9710 O   0  0  0  0  0  0  0  0  0  0  0  0
  139.5790   72.8040  222.1610 C   0  0  0  0  0  0  0  0  0  0  0  0
  139.8570   71.8930  223.2330 C   0  0  0  0  0  0  0  0  0  0  0  0
  139.1480   70.6850  223.3480 C   0  0  0  0  0  0  0  0  0  0  0  0
  139.5840   69.9930  224.4620 C   0  0  0  0  0  0  0  0  0  0  0  0
  139.2160   68.7830  225.0030 C   0  0  0  0  0  0  0  0  0  0  0  0
  139.8240   68.3170  226.1460 C   0  0  0  0  0  0  0  0  0  0  0  0
  139.4300   67.1200  226.6440 F   0  0  0  0  0  0  0  0  0  0  0  0
  140.8010   69.0970  226.7140 C   0  0  0  0  0  0  0  0  0  0  0  0
  141.1710   70.3010  226.1810 C   0  0  0  0  0  0  0  0  0  0  0  0
  140.5470   70.7600  225.0250 C   0  0  0  0  0  0  0  0  0  0  0  0
  140.6860   71.8830  224.2720 N   0  0  0  0  0  0  0  0  0  0  0  0
  140.4030   73.5090  221.2930 N   0  0  0  0  0  0  0  0  0  0  0  0
  139.9190   74.6800  220.4760 C   0  0  0  0  0  0  0  0  0  0  0  0
  141.0240   75.6450  220.9110 C   0  0  2  0  0  0  0  0  0  0  0  0
  140.7270   76.0320  222.3420 C   0  0  0  0  0  0  0  0  0  0  0  0
  139.8550   77.2380  222.0750 C   0  0  0  0  0  0  0  0  0  0  0  0
  140.6430   77.9920  221.1480 N   0  0  0  0  0  0  0  0  0  0  0  0
  141.8140   78.6090  221.6890 C   0  0  1  0  0  0  0  0  0  0  0  0
  141.9040   80.0240  221.1610 C   0  0  0  0  0  0  0  0  0  0  0  0
  140.8770   80.6960  222.0840 C   0  0  0  0  0  0  0  0  0  0  0  0
  140.8520   79.9470  223.3020 N   0  0  0  0  0  0  0  0  0  0  0  0
  141.7540   78.8490  223.1610 C   0  0  0  0  0  0  0  0  0  0  0  0
  141.0300   76.9380  220.1930 C   0  0  0  0  0  0  0  0  0  0  0  0
  142.2350   74.8060  220.7570 C   0  0  0  0  0  0  0  0  0  0  0  0
  143.5540   74.9620  220.4520 C   0  0  0  0  0  0  0  0  0  0  0  0
  144.4080   73.8870  220.3530 C   0  0  0  0  0  0  0  0  0  0  0  0
  143.9600   72.5800  220.5630 C   0  0  0  0  0  0  0  0  0  0  0  0
  142.6340   72.4180  220.8710 C   0  0  0  0  0  0  0  0  0  0  0  0
  141.7820   73.4880  220.9710 C   0  0  0  0  0  0  0  0  0  0  0  0
  138.3646   70.3422  222.6561 H   0  0  0  0  0  0  0  0  0  0  0  0
  138.4306   68.1841  224.5188 H   0  0  0  0  0  0  0  0  0  0  0  0
  141.3020   68.7422  227.6268 H   0  0  0  0  0  0  0  0  0  0  0  0
  141.9562   70.9022  226.6627 H   0  0  0  0  0  0  0  0  0  0  0  0
  141.3720   72.5970  224.5460 H   0  0  0  0  0  0  0  0  0  0  0  0
  139.9321   74.4783  219.3947 H   0  0  0  0  0  0  0  0  0  0  0  0
  138.8794   75.0046  220.6305 H   0  0  0  0  0  0  0  0  0  0  0  0
  140.1854   75.2407  222.8809 H   0  0  0  0  0  0  0  0  0  0  0  0
  141.6055   76.2109  222.9794 H   0  0  0  0  0  0  0  0  0  0  0  0
  138.8932   76.9424  221.6305 H   0  0  0  0  0  0  0  0  0  0  0  0
  139.5922   77.7986  222.9842 H   0  0  0  0  0  0  0  0  0  0  0  0
  142.6349   77.9268  221.4233 H   0  0  0  0  0  0  0  0  0  0  0  0
  142.9112   80.4476  221.2883 H   0  0  0  0  0  0  0  0  0  0  0  0
  141.7146   80.1378  220.0834 H   0  0  0  0  0  0  0  0  0  0  0  0
  141.1749   81.7354  222.2864 H   0  0  0  0  0  0  0  0  0  0  0  0
  139.8821   80.7137  221.6151 H   0  0  0  0  0  0  0  0  0  0  0  0
  141.1320   80.5620  224.1080 H   0  0  0  0  0  0  0  0  0  0  0  0
  142.7480   79.1080  223.5546 H   0  0  0  0  0  0  0  0  0  0  0  0
  141.4250   77.9600  223.7191 H   0  0  0  0  0  0  0  0  0  0  0  0
  140.3112   76.9061  219.3609 H   0  0  0  0  0  0  0  0  0  0  0  0
  142.0301   77.1425  219.7832 H   0  0  0  0  0  0  0  0  0  0  0  0
  143.9471   75.9749  220.2802 H   0  0  0  0  0  0  0  0  0  0  0  0
  145.4652   74.0603  220.1034 H   0  0  0  0  0  0  0  0  0  0  0  0
  144.6409   71.7197  220.4847 H   0  0  0  0  0  0  0  0  0  0  0  0
  142.2435   71.4040  221.0423 H   0  0  0  0  0  0  0  0  0  0  0  0
  1  2  2  0
  2  3  1  0
  3  4  2  0
  4  5  1  0
  5  6  2  0
  6  7  1  0
  7  8  1  0
  7  9  2  0
  9 10  1  0
 10 11  2  0
 11 12  1  0
  2 13  1  0
 13 14  1  0
 15 14  1  6
 15 16  1  0
 16 17  1  0
 17 18  1  0
 18 19  1  0
 19 20  1  0
 20 21  1  0
 21 22  1  0
 22 23  1  0
 18 24  1  0
 15 25  1  0
 25 26  2  0
 26 27  1  0
 27 28  2  0
 28 29  1  0
 29 30  2  0
 12  3  1  0
 30 13  1  0
 11  5  1  0
 24 15  1  0
 30 25  1  0
 23 19  1  0
  4 31  1  0
  6 32  1  0
  9 33  1  0
 10 34  1  0
 12 35  1  0
 14 36  1  0
 14 37  1  0
 16 38  1  0
 16 39  1  0
 17 40  1  0
 17 41  1  0
 19 42  1  1
 20 43  1  0
 20 44  1  0
 21 45  1  0
 21 46  1  0
 22 47  1  0
 23 48  1  0
 23 49  1  0
 24 50  1  0
 24 51  1  0
 26 52  1  0
 27 53  1  0
 28 54  1  0
 29 55  1  0
M  END
>  <smiles>  (73) 
O=C(c1cc2cc(F)ccc2[nH]1)N1CC2(CCN(C3CCNC3)C2)c2ccccc21

>  <score_type>  (73) 
oracle

>  <origin>  (73) 
autodockgpu

>  <m_score__min__energy>  (73) 
-8.1799999999999997

>  <m_primary>  (73) 
energy

>  <meeko>  (73) 
{"free_energy": -8.14, "intermolecular_energy": -9.03, "internal_energy": -1.13, "cluster_size": 14, "cluster_id": 2, "rank_in_cluster": 6}

>  <energy>  (73) 
-8.13

>  <cluster_rmsd>  (73) 
0.06

>  <rmsd>  (73) 
270.95

>  <cluster>  (73) 
2

$$$$

     RDKit          3D

 55 60  0  0  1  0  0  0  0  0999 V2000
  139.5300   74.5080  222.0690 O   0  0  0  0  0  0  0  0  0  0  0  0
  140.0950   73.3340  221.9650 C   0  0  0  0  0  0  0  0  0  0  0  0
  141.4460   73.3840  221.4870 C   0  0  0  0  0  0  0  0  0  0  0  0
  142.1540   72.2010  221.2140 C   0  0  0  0  0  0  0  0  0  0  0  0
  143.4300   72.5110  220.7840 C   0  0  0  0  0  0  0  0  0  0  0  0
  144.4930   71.7270  220.4000 C   0  0  0  0  0  0  0  0  0  0  0  0
  145.6790   72.3040  220.0080 C   0  0  0  0  0  0  0  0  0  0  0  0
  146.7000   71.4930  219.6370 F   0  0  0  0  0  0  0  0  0  0  0  0
  145.7560   73.6750  220.0150 C   0  0  0  0  0  0  0  0  0  0  0  0
  144.7030   74.4600  220.3970 C   0  0  0  0  0  0  0  0  0  0  0  0
  143.5100   73.8620  220.7910 C   0  0  0  0  0  0  0  0  0  0  0  0
  142.3150   74.3530  221.2140 N   0  0  0  0  0  0  0  0  0  0  0  0
  139.2690   72.2790  222.3300 N   0  0  0  0  0  0  0  0  0  0  0  0
  139.7710   70.8680  222.5030 C   0  0  0  0  0  0  0  0  0  0  0  0
  139.1840   70.6600  223.9010 C   0  0  2  0  0  0  0  0  0  0  0  0
  140.0240   71.4830  224.8530 C   0  0  0  0  0  0  0  0  0  0  0  0
  141.0650   70.4410  225.1960 C   0  0  0  0  0  0  0  0  0  0  0  0
  140.2650   69.3070  225.5470 N   0  0  0  0  0  0  0  0  0  0  0  0
  139.5560   69.4080  226.7840 C   0  0  1  0  0  0  0  0  0  0  0  0
  139.6100   68.0700  227.4860 C   0  0  0  0  0  0  0  0  0  0  0  0
  141.0310   68.1520  228.0610 C   0  0  0  0  0  0  0  0  0  0  0  0
  141.3280   69.5380  228.2530 N   0  0  0  0  0  0  0  0  0  0  0  0
  140.2080   70.2940  227.7920 C   0  0  0  0  0  0  0  0  0  0  0  0
  139.3110   69.2830  224.4240 C   0  0  0  0  0  0  0  0  0  0  0  0
  137.8050   71.1700  223.7280 C   0  0  0  0  0  0  0  0  0  0  0  0
  136.5580   70.9330  224.2240 C   0  0  0  0  0  0  0  0  0  0  0  0
  135.4520   71.6100  223.7620 C   0  0  0  0  0  0  0  0  0  0  0  0
  135.5570   72.5770  222.7590 C   0  0  0  0  0  0  0  0  0  0  0  0
  136.8100   72.8200  222.2560 C   0  0  0  0  0  0  0  0  0  0  0  0
  137.9130   72.1470  222.7170 C   0  0  0  0  0  0  0  0  0  0  0  0
  141.7531   71.1828  221.3257 H   0  0  0  0  0  0  0  0  0  0  0  0
  144.3943   70.6315  220.4063 H   0  0  0  0  0  0  0  0  0  0  0  0
  146.6943   74.1573  219.7035 H   0  0  0  0  0  0  0  0  0  0  0  0
  144.7986   75.5558  220.3928 H   0  0  0  0  0  0  0  0  0  0  0  0
  142.1810   75.3690  221.2920 H   0  0  0  0  0  0  0  0  0  0  0  0
  139.3530   70.1740  221.7590 H   0  0  0  0  0  0  0  0  0  0  0  0
  140.8516   70.7014  222.3825 H   0  0  0  0  0  0  0  0  0  0  0  0
  140.4650   72.3627  224.3614 H   0  0  0  0  0  0  0  0  0  0  0  0
  139.4864   71.9191  225.7079 H   0  0  0  0  0  0  0  0  0  0  0  0
  141.7077   70.2215  224.3307 H   0  0  0  0  0  0  0  0  0  0  0  0
  141.7536   70.7555  225.9940 H   0  0  0  0  0  0  0  0  0  0  0  0
  138.5600   69.7800  226.5018 H   0  0  0  0  0  0  0  0  0  0  0  0
  138.8499   67.9892  228.2770 H   0  0  0  0  0  0  0  0  0  0  0  0
  139.4089   67.1956  226.8497 H   0  0  0  0  0  0  0  0  0  0  0  0
  141.0805   67.6189  229.0219 H   0  0  0  0  0  0  0  0  0  0  0  0
  141.7571   67.6871  227.3779 H   0  0  0  0  0  0  0  0  0  0  0  0
  141.5170   69.7280  229.2700 H   0  0  0  0  0  0  0  0  0  0  0  0
  139.5190   70.5147  228.6206 H   0  0  0  0  0  0  0  0  0  0  0  0
  140.5019   71.2663  227.3699 H   0  0  0  0  0  0  0  0  0  0  0  0
  139.6834   68.6162  223.6324 H   0  0  0  0  0  0  0  0  0  0  0  0
  138.3325   68.9117  224.7626 H   0  0  0  0  0  0  0  0  0  0  0  0
  136.4317   70.1797  225.0156 H   0  0  0  0  0  0  0  0  0  0  0  0
  134.4647   71.3849  224.1916 H   0  0  0  0  0  0  0  0  0  0  0  0
  134.6743   73.1193  222.3891 H   0  0  0  0  0  0  0  0  0  0  0  0
  136.9333   73.5729  221.4636 H   0  0  0  0  0  0  0  0  0  0  0  0
  1  2  2  0
  2  3  1  0
  3  4  2  0
  4  5  1  0
  5  6  2  0
  6  7  1  0
  7  8  1  0
  7  9  2  0
  9 10  1  0
 10 11  2  0
 11 12  1  0
  2 13  1  0
 13 14  1  0
 15 14  1  6
 15 16  1  0
 16 17  1  0
 17 18  1  0
 18 19  1  0
 19 20  1  0
 20 21  1  0
 21 22  1  0
 22 23  1  0
 18 24  1  0
 15 25  1  0
 25 26  2  0
 26 27  1  0
 27 28  2  0
 28 29  1  0
 29 30  2  0
 12  3  1  0
 30 13  1  0
 11  5  1  0
 24 15  1  0
 30 25  1  0
 23 19  1  0
  4 31  1  0
  6 32  1  0
  9 33  1  0
 10 34  1  0
 12 35  1  0
 14 36  1  0
 14 37  1  0
 16 38  1  0
 16 39  1  0
 17 40  1  0
 17 41  1  0
 19 42  1  6
 20 43  1  0
 20 44  1  0
 21 45  1  0
 21 46  1  0
 22 47  1  0
 23 48  1  0
 23 49  1  0
 24 50  1  0
 24 51  1  0
 26 52  1  0
 27 53  1  0
 28 54  1  0
 29 55  1  0
M  END
>  <smiles>  (74) 
O=C(c1cc2cc(F)ccc2[nH]1)N1CC2(CCN(C3CCNC3)C2)c2ccccc21

>  <score_type>  (74) 
oracle

>  <origin>  (74) 
autodockgpu

>  <m_score__min__energy>  (74) 
-8.1799999999999997

>  <m_primary>  (74) 
energy

>  <meeko>  (74) 
{"free_energy": -8.12, "intermolecular_energy": -9.02, "internal_energy": -1.14, "cluster_size": 2, "cluster_id": 1, "rank_in_cluster": 2}

>  <energy>  (74) 
-7.81

>  <cluster_rmsd>  (74) 
1.5

>  <rmsd>  (74) 
270.84

>  <cluster>  (74) 
2

$$$$

     RDKit          3D

 55 60  0  0  1  0  0  0  0  0999 V2000
  139.7240   74.5340  221.9860 O   0  0  0  0  0  0  0  0  0  0  0  0
  140.2340   73.3330  221.8980 C   0  0  0  0  0  0  0  0  0  0  0  0
  141.5810   73.3130  221.4070 C   0  0  0  0  0  0  0  0  0  0  0  0
  142.1860   72.1040  221.0260 C   0  0  0  0  0  0  0  0  0  0  0  0
  143.4810   72.3440  220.6060 C   0  0  0  0  0  0  0  0  0  0  0  0
  144.4730   71.5110  220.1420 C   0  0  0  0  0  0  0  0  0  0  0  0
  145.7000   72.0200  219.7840 C   0  0  0  0  0  0  0  0  0  0  0  0
  146.6470   71.1630  219.3310 F   0  0  0  0  0  0  0  0  0  0  0  0
  145.8900   73.3750  219.9050 C   0  0  0  0  0  0  0  0  0  0  0  0
  144.9080   74.2070  220.3660 C   0  0  0  0  0  0  0  0  0  0  0  0
  143.6720   73.6780  220.7250 C   0  0  0  0  0  0  0  0  0  0  0  0
  142.5250   74.2270  221.2040 N   0  0  0  0  0  0  0  0  0  0  0  0
  139.3640   72.3240  222.2880 N   0  0  0  0  0  0  0  0  0  0  0  0
  139.8000   70.8920  222.4710 C   0  0  0  0  0  0  0  0  0  0  0  0
  139.2260   70.7290  223.8800 C   0  0  2  0  0  0  0  0  0  0  0  0
  140.1200   71.5200  224.8090 C   0  0  0  0  0  0  0  0  0  0  0  0
  141.1150   70.4330  225.1480 C   0  0  0  0  0  0  0  0  0  0  0  0
  140.2670   69.3430  225.5250 N   0  0  0  0  0  0  0  0  0  0  0  0
  139.5830   69.4930  226.7710 C   0  0  1  0  0  0  0  0  0  0  0  0
  139.6290   68.1740  227.5110 C   0  0  0  0  0  0  0  0  0  0  0  0
  141.0620   68.2490  228.0570 C   0  0  0  0  0  0  0  0  0  0  0  0
  141.3850   69.6340  228.2020 N   0  0  0  0  0  0  0  0  0  0  0  0
  140.2700   70.3960  227.7410 C   0  0  0  0  0  0  0  0  0  0  0  0
  139.2950   69.3530  224.4170 C   0  0  0  0  0  0  0  0  0  0  0  0
  137.8710   71.3030  223.7220 C   0  0  0  0  0  0  0  0  0  0  0  0
  136.6220   71.1320  224.2400 C   0  0  0  0  0  0  0  0  0  0  0  0
  135.5430   71.8570  223.7870 C   0  0  0  0  0  0  0  0  0  0  0  0
  135.6780   72.8050  222.7720 C   0  0  0  0  0  0  0  0  0  0  0  0
  136.9320   72.9820  222.2460 C   0  0  0  0  0  0  0  0  0  0  0  0
  138.0090   72.2610  222.6970 C   0  0  0  0  0  0  0  0  0  0  0  0
  141.7028   71.1163  221.0571 H   0  0  0  0  0  0  0  0  0  0  0  0
  144.2837   70.4308  220.0567 H   0  0  0  0  0  0  0  0  0  0  0  0
  146.8626   73.8041  219.6222 H   0  0  0  0  0  0  0  0  0  0  0  0
  145.0938   75.2877  220.4526 H   0  0  0  0  0  0  0  0  0  0  0  0
  142.4760   75.2410  221.3690 H   0  0  0  0  0  0  0  0  0  0  0  0
  139.3372   70.2104  221.7421 H   0  0  0  0  0  0  0  0  0  0  0  0
  140.8693   70.6718  222.3361 H   0  0  0  0  0  0  0  0  0  0  0  0
  140.5950   72.3719  224.3004 H   0  0  0  0  0  0  0  0  0  0  0  0
  139.6178   71.9905  225.6672 H   0  0  0  0  0  0  0  0  0  0  0  0
  141.7323   70.1730  224.2754 H   0  0  0  0  0  0  0  0  0  0  0  0
  141.8309   70.7227  225.9313 H   0  0  0  0  0  0  0  0  0  0  0  0
  138.5883   69.8745  226.4969 H   0  0  0  0  0  0  0  0  0  0  0  0
  138.8829   68.1285  228.3180 H   0  0  0  0  0  0  0  0  0  0  0  0
  139.4019   67.2851  226.9042 H   0  0  0  0  0  0  0  0  0  0  0  0
  141.1210   67.7438  229.0323 H   0  0  0  0  0  0  0  0  0  0  0  0
  141.7673   67.7520  227.3747 H   0  0  0  0  0  0  0  0  0  0  0  0
  141.5970   69.8510  229.2100 H   0  0  0  0  0  0  0  0  0  0  0  0
  139.6012   70.6525  228.5758 H   0  0  0  0  0  0  0  0  0  0  0  0
  140.5723   71.3505  227.2855 H   0  0  0  0  0  0  0  0  0  0  0  0
  139.6222   68.6604  223.6275 H   0  0  0  0  0  0  0  0  0  0  0  0
  138.3053   69.0331  224.7749 H   0  0  0  0  0  0  0  0  0  0  0  0
  136.4720   70.3944  225.0421 H   0  0  0  0  0  0  0  0  0  0  0  0
  134.5531   71.6853  224.2348 H   0  0  0  0  0  0  0  0  0  0  0  0
  134.8163   73.3849  222.4097 H   0  0  0  0  0  0  0  0  0  0  0  0
  137.0781   73.7197  221.4432 H   0  0  0  0  0  0  0  0  0  0  0  0
  1  2  2  0
  2  3  1  0
  3  4  2  0
  4  5  1  0
  5  6  2  0
  6  7  1  0
  7  8  1  0
  7  9  2  0
  9 10  1  0
 10 11  2  0
 11 12  1  0
  2 13  1  0
 13 14  1  0
 15 14  1  6
 15 16  1  0
 16 17  1  0
 17 18  1  0
 18 19  1  0
 19 20  1  0
 20 21  1  0
 21 22  1  0
 22 23  1  0
 18 24  1  0
 15 25  1  0
 25 26  2  0
 26 27  1  0
 27 28  2  0
 28 29  1  0
 29 30  2  0
 12  3  1  0
 30 13  1  0
 11  5  1  0
 24 15  1  0
 30 25  1  0
 23 19  1  0
  4 31  1  0
  6 32  1  0
  9 33  1  0
 10 34  1  0
 12 35  1  0
 14 36  1  0
 14 37  1  0
 16 38  1  0
 16 39  1  0
 17 40  1  0
 17 41  1  0
 19 42  1  6
 20 43  1  0
 20 44  1  0
 21 45  1  0
 21 46  1  0
 22 47  1  0
 23 48  1  0
 23 49  1  0
 24 50  1  0
 24 51  1  0
 26 52  1  0
 27 53  1  0
 28 54  1  0
 29 55  1  0
M  END
>  <smiles>  (75) 
O=C(c1cc2cc(F)ccc2[nH]1)N1CC2(CCN(C3CCNC3)C2)c2ccccc21

>  <score_type>  (75) 
oracle

>  <origin>  (75) 
autodockgpu

>  <m_score__min__energy>  (75) 
-8.1799999999999997

>  <m_primary>  (75) 
energy

>  <meeko>  (75) 
{"free_energy": -8.18, "intermolecular_energy": -9.08, "internal_energy": -1.13, "cluster_size": 2, "cluster_id": 1, "rank_in_cluster": 1}

>  <energy>  (75) 
-7.81

>  <cluster_rmsd>  (75) 
1.36

>  <rmsd>  (75) 
270.82

>  <cluster>  (75) 
2

$$$$

     RDKit          3D

 55 60  0  0  1  0  0  0  0  0999 V2000
  139.0290   71.6270  220.6730 O   0  0  0  0  0  0  0  0  0  0  0  0
  140.0480   72.0430  221.3790 C   0  0  0  0  0  0  0  0  0  0  0  0
  140.0820   71.5150  222.7110 C   0  0  0  0  0  0  0  0  0  0  0  0
  140.6930   72.2350  223.7520 C   0  0  0  0  0  0  0  0  0  0  0  0
  140.6090   71.5150  224.9280 C   0  0  0  0  0  0  0  0  0  0  0  0
  141.0460   71.7750  226.2060 C   0  0  0  0  0  0  0  0  0  0  0  0
  140.8270   70.8670  227.2160 C   0  0  0  0  0  0  0  0  0  0  0  0
  141.2740   71.1650  228.4610 F   0  0  0  0  0  0  0  0  0  0  0  0
  140.1630   69.7070  226.9000 C   0  0  0  0  0  0  0  0  0  0  0  0
  139.7270   69.4420  225.6320 C   0  0  0  0  0  0  0  0  0  0  0  0
  139.9560   70.3700  224.6200 C   0  0  0  0  0  0  0  0  0  0  0  0
  139.6550   70.4000  223.2950 N   0  0  0  0  0  0  0  0  0  0  0  0
  140.8840   72.9180  220.6960 N   0  0  0  0  0  0  0  0  0  0  0  0
  140.3670   74.0870  219.8970 C   0  0  0  0  0  0  0  0  0  0  0  0
  141.2580   75.1400  220.5590 C   0  0  2  0  0  0  0  0  0  0  0  0
  140.7120   75.3600  221.9520 C   0  0  0  0  0  0  0  0  0  0  0  0
  139.7310   76.4680  221.6390 C   0  0  0  0  0  0  0  0  0  0  0  0
  140.5340   77.3920  220.8970 N   0  0  0  0  0  0  0  0  0  0  0  0
  141.5210   78.0990  221.6490 C   0  0  1  0  0  0  0  0  0  0  0  0
  141.6020   79.5180  221.1320 C   0  0  0  0  0  0  0  0  0  0  0  0
  140.3620   80.1020  221.8260 C   0  0  0  0  0  0  0  0  0  0  0  0
  140.1570   79.3500  223.0240 N   0  0  0  0  0  0  0  0  0  0  0  0
  141.1530   78.3290  223.0780 C   0  0  0  0  0  0  0  0  0  0  0  0
  141.1910   76.4820  219.9420 C   0  0  0  0  0  0  0  0  0  0  0  0
  142.5810   74.4740  220.5350 C   0  0  0  0  0  0  0  0  0  0  0  0
  143.8960   74.8180  220.4440 C   0  0  0  0  0  0  0  0  0  0  0  0
  144.8930   73.8690  220.4030 C   0  0  0  0  0  0  0  0  0  0  0  0
  144.6010   72.5050  220.4520 C   0  0  0  0  0  0  0  0  0  0  0  0
  143.2790   72.1520  220.5430 C   0  0  0  0  0  0  0  0  0  0  0  0
  142.2850   73.0970  220.5860 C   0  0  0  0  0  0  0  0  0  0  0  0
  141.1664   73.2223  223.6463 H   0  0  0  0  0  0  0  0  0  0  0  0
  141.5742   72.7154  226.4219 H   0  0  0  0  0  0  0  0  0  0  0  0
  139.9761   68.9676  227.6927 H   0  0  0  0  0  0  0  0  0  0  0  0
  139.1990   68.5022  225.4128 H   0  0  0  0  0  0  0  0  0  0  0  0
  139.1590   69.6070  222.8680 H   0  0  0  0  0  0  0  0  0  0  0  0
  140.5603   73.9837  218.8191 H   0  0  0  0  0  0  0  0  0  0  0  0
  139.2817   74.2656  219.9140 H   0  0  0  0  0  0  0  0  0  0  0  0
  140.2118   74.4635  222.3470 H   0  0  0  0  0  0  0  0  0  0  0  0
  141.4591   75.5895  222.7260 H   0  0  0  0  0  0  0  0  0  0  0  0
  138.8910   76.0961  221.0339 H   0  0  0  0  0  0  0  0  0  0  0  0
  139.2679   76.9095  222.5338 H   0  0  0  0  0  0  0  0  0  0  0  0
  142.4294   77.4853  221.5581 H   0  0  0  0  0  0  0  0  0  0  0  0
  142.5272   80.0203  221.4508 H   0  0  0  0  0  0  0  0  0  0  0  0
  141.6218   79.6206  220.0370 H   0  0  0  0  0  0  0  0  0  0  0  0
  140.5300   81.1614  222.0697 H   0  0  0  0  0  0  0  0  0  0  0  0
  139.4812   80.0407  221.1700 H   0  0  0  0  0  0  0  0  0  0  0  0
  140.2220   79.9820  223.8620 H   0  0  0  0  0  0  0  0  0  0  0  0
  142.0260   78.6660  223.6561 H   0  0  0  0  0  0  0  0  0  0  0  0
  140.7924   77.4148  223.5722 H   0  0  0  0  0  0  0  0  0  0  0  0
  140.6084   76.4354  219.0101 H   0  0  0  0  0  0  0  0  0  0  0  0
  142.2024   76.8436  219.7048 H   0  0  0  0  0  0  0  0  0  0  0  0
  144.1688   75.8828  220.4021 H   0  0  0  0  0  0  0  0  0  0  0  0
  145.9417   74.1928  220.3301 H   0  0  0  0  0  0  0  0  0  0  0  0
  145.3967   71.7462  220.4190 H   0  0  0  0  0  0  0  0  0  0  0  0
  143.0091   71.0864  220.5825 H   0  0  0  0  0  0  0  0  0  0  0  0
  1  2  2  0
  2  3  1  0
  3  4  2  0
  4  5  1  0
  5  6  2  0
  6  7  1  0
  7  8  1  0
  7  9  2  0
  9 10  1  0
 10 11  2  0
 11 12  1  0
  2 13  1  0
 13 14  1  0
 15 14  1  6
 15 16  1  0
 16 17  1  0
 17 18  1  0
 18 19  1  0
 19 20  1  0
 20 21  1  0
 21 22  1  0
 22 23  1  0
 18 24  1  0
 15 25  1  0
 25 26  2  0
 26 27  1  0
 27 28  2  0
 28 29  1  0
 29 30  2  0
 12  3  1  0
 30 13  1  0
 11  5  1  0
 24 15  1  0
 30 25  1  0
 23 19  1  0
  4 31  1  0
  6 32  1  0
  9 33  1  0
 10 34  1  0
 12 35  1  0
 14 36  1  0
 14 37  1  0
 16 38  1  0
 16 39  1  0
 17 40  1  0
 17 41  1  0
 19 42  1  1
 20 43  1  0
 20 44  1  0
 21 45  1  0
 21 46  1  0
 22 47  1  0
 23 48  1  0
 23 49  1  0
 24 50  1  0
 24 51  1  0
 26 52  1  0
 27 53  1  0
 28 54  1  0
 29 55  1  0
M  END
>  <smiles>  (76) 
O=C(c1cc2cc(F)ccc2[nH]1)N1CC2(CCN(C3CCNC3)C2)c2ccccc21

>  <score_type>  (76) 
oracle

>  <origin>  (76) 
autodockgpu

>  <m_score__min__energy>  (76) 
-8.1799999999999997

>  <m_primary>  (76) 
energy

>  <meeko>  (76) 
{"free_energy": -7.78, "intermolecular_energy": -8.68, "internal_energy": -1.35, "cluster_size": 14, "cluster_id": 2, "rank_in_cluster": 14}

>  <energy>  (76) 
-7.78

>  <cluster_rmsd>  (76) 
1.45

>  <rmsd>  (76) 
270.81

>  <cluster>  (76) 
2

$$$$

     RDKit          3D

 55 60  0  0  1  0  0  0  0  0999 V2000
  138.2990   73.0120  221.9760 O   0  0  0  0  0  0  0  0  0  0  0  0
  139.5740   72.7990  222.1670 C   0  0  0  0  0  0  0  0  0  0  0  0
  139.8530   71.8890  223.2400 C   0  0  0  0  0  0  0  0  0  0  0  0
  139.1410   70.6840  223.3600 C   0  0  0  0  0  0  0  0  0  0  0  0
  139.5790   69.9940  224.4740 C   0  0  0  0  0  0  0  0  0  0  0  0
  139.2090   68.7860  225.0200 C   0  0  0  0  0  0  0  0  0  0  0  0
  139.8200   68.3210  226.1620 C   0  0  0  0  0  0  0  0  0  0  0  0
  139.4240   67.1260  226.6640 F   0  0  0  0  0  0  0  0  0  0  0  0
  140.8010   69.0990  226.7240 C   0  0  0  0  0  0  0  0  0  0  0  0
  141.1720   70.3010  226.1870 C   0  0  0  0  0  0  0  0  0  0  0  0
  140.5460   70.7590  225.0330 C   0  0  0  0  0  0  0  0  0  0  0  0
  140.6860   71.8790  224.2760 N   0  0  0  0  0  0  0  0  0  0  0  0
  140.3970   73.5040  221.2980 N   0  0  0  0  0  0  0  0  0  0  0  0
  139.9120   74.6730  220.4790 C   0  0  0  0  0  0  0  0  0  0  0  0
  141.0170   75.6400  220.9120 C   0  0  2  0  0  0  0  0  0  0  0  0
  140.7180   76.0290  222.3430 C   0  0  0  0  0  0  0  0  0  0  0  0
  139.8450   77.2330  222.0740 C   0  0  0  0  0  0  0  0  0  0  0  0
  140.6330   77.9870  221.1470 N   0  0  0  0  0  0  0  0  0  0  0  0
  141.8020   78.6060  221.6860 C   0  0  1  0  0  0  0  0  0  0  0  0
  141.8830   80.0250  221.1680 C   0  0  0  0  0  0  0  0  0  0  0  0
  140.8560   80.6850  222.1000 C   0  0  0  0  0  0  0  0  0  0  0  0
  140.8400   79.9280  223.3120 N   0  0  0  0  0  0  0  0  0  0  0  0
  141.7470   78.8360  223.1600 C   0  0  0  0  0  0  0  0  0  0  0  0
  141.0210   76.9320  220.1930 C   0  0  0  0  0  0  0  0  0  0  0  0
  142.2280   74.8020  220.7600 C   0  0  0  0  0  0  0  0  0  0  0  0
  143.5470   74.9590  220.4550 C   0  0  0  0  0  0  0  0  0  0  0  0
  144.4020   73.8850  220.3580 C   0  0  0  0  0  0  0  0  0  0  0  0
  143.9560   72.5780  220.5700 C   0  0  0  0  0  0  0  0  0  0  0  0
  142.6300   72.4140  220.8780 C   0  0  0  0  0  0  0  0  0  0  0  0
  141.7770   73.4840  220.9760 C   0  0  0  0  0  0  0  0  0  0  0  0
  138.3543   70.3417  222.6716 H   0  0  0  0  0  0  0  0  0  0  0  0
  138.4198   68.1884  224.5404 H   0  0  0  0  0  0  0  0  0  0  0  0
  141.3049   68.7446  227.6353 H   0  0  0  0  0  0  0  0  0  0  0  0
  141.9603   70.9013  226.6648 H   0  0  0  0  0  0  0  0  0  0  0  0
  141.3750   72.5920  224.5460 H   0  0  0  0  0  0  0  0  0  0  0  0
  139.9249   74.4693  219.3981 H   0  0  0  0  0  0  0  0  0  0  0  0
  138.8722   74.9972  220.6332 H   0  0  0  0  0  0  0  0  0  0  0  0
  140.1769   75.2377  222.8826 H   0  0  0  0  0  0  0  0  0  0  0  0
  141.5958   76.2101  222.9807 H   0  0  0  0  0  0  0  0  0  0  0  0
  138.8841   76.9356  221.6289 H   0  0  0  0  0  0  0  0  0  0  0  0
  139.5805   77.7942  222.9823 H   0  0  0  0  0  0  0  0  0  0  0  0
  142.6250   77.9298  221.4113 H   0  0  0  0  0  0  0  0  0  0  0  0
  142.8885   80.4527  221.2946 H   0  0  0  0  0  0  0  0  0  0  0  0
  141.6890   80.1458  220.0920 H   0  0  0  0  0  0  0  0  0  0  0  0
  141.1491   81.7245  222.3084 H   0  0  0  0  0  0  0  0  0  0  0  0
  139.8591   80.7005  221.6352 H   0  0  0  0  0  0  0  0  0  0  0  0
  141.1210   80.5380  224.1220 H   0  0  0  0  0  0  0  0  0  0  0  0
  142.7413   79.0977  223.5511 H   0  0  0  0  0  0  0  0  0  0  0  0
  141.4251   77.9416  223.7136 H   0  0  0  0  0  0  0  0  0  0  0  0
  140.3019   76.8983  219.3613 H   0  0  0  0  0  0  0  0  0  0  0  0
  142.0208   77.1373  219.7829 H   0  0  0  0  0  0  0  0  0  0  0  0
  143.9390   75.9721  220.2816 H   0  0  0  0  0  0  0  0  0  0  0  0
  145.4590   74.0593  220.1082 H   0  0  0  0  0  0  0  0  0  0  0  0
  144.6384   71.7187  220.4932 H   0  0  0  0  0  0  0  0  0  0  0  0
  142.2407   71.3998  221.0507 H   0  0  0  0  0  0  0  0  0  0  0  0
  1  2  2  0
  2  3  1  0
  3  4  2  0
  4  5  1  0
  5  6  2  0
  6  7  1  0
  7  8  1  0
  7  9  2  0
  9 10  1  0
 10 11  2  0
 11 12  1  0
  2 13  1  0
 13 14  1  0
 15 14  1  6
 15 16  1  0
 16 17  1  0
 17 18  1  0
 18 19  1  0
 19 20  1  0
 20 21  1  0
 21 22  1  0
 22 23  1  0
 18 24  1  0
 15 25  1  0
 25 26  2  0
 26 27  1  0
 27 28  2  0
 28 29  1  0
 29 30  2  0
 12  3  1  0
 30 13  1  0
 11  5  1  0
 24 15  1  0
 30 25  1  0
 23 19  1  0
  4 31  1  0
  6 32  1  0
  9 33  1  0
 10 34  1  0
 12 35  1  0
 14 36  1  0
 14 37  1  0
 16 38  1  0
 16 39  1  0
 17 40  1  0
 17 41  1  0
 19 42  1  1
 20 43  1  0
 20 44  1  0
 21 45  1  0
 21 46  1  0
 22 47  1  0
 23 48  1  0
 23 49  1  0
 24 50  1  0
 24 51  1  0
 26 52  1  0
 27 53  1  0
 28 54  1  0
 29 55  1  0
M  END
>  <smiles>  (77) 
O=C(c1cc2cc(F)ccc2[nH]1)N1CC2(CCN(C3CCNC3)C2)c2ccccc21

>  <score_type>  (77) 
oracle

>  <origin>  (77) 
autodockgpu

>  <m_score__min__energy>  (77) 
-8.1799999999999997

>  <m_primary>  (77) 
energy

>  <meeko>  (77) 
{"free_energy": -8.14, "intermolecular_energy": -9.03, "internal_energy": -1.12, "cluster_size": 14, "cluster_id": 2, "rank_in_cluster": 3}

>  <energy>  (77) 
-7.87

>  <cluster_rmsd>  (77) 
0.0

>  <rmsd>  (77) 
270.86

>  <cluster>  (77) 
3

$$$$

     RDKit          3D

 55 60  0  0  1  0  0  0  0  0999 V2000
  141.3000   72.9110  220.9180 O   0  0  0  0  0  0  0  0  0  0  0  0
  140.3310   73.2930  221.7080 C   0  0  0  0  0  0  0  0  0  0  0  0
  140.3160   74.7040  221.9620 C   0  0  0  0  0  0  0  0  0  0  0  0
  139.1110   75.3660  222.2520 C   0  0  0  0  0  0  0  0  0  0  0  0
  139.3540   76.7130  222.4420 C   0  0  0  0  0  0  0  0  0  0  0  0
  138.5260   77.7700  222.7410 C   0  0  0  0  0  0  0  0  0  0  0  0
  139.0390   79.0400  222.8780 C   0  0  0  0  0  0  0  0  0  0  0  0
  138.1870   80.0520  223.1740 F   0  0  0  0  0  0  0  0  0  0  0  0
  140.3910   79.2050  222.7070 C   0  0  0  0  0  0  0  0  0  0  0  0
  141.2190   78.1590  222.4080 C   0  0  0  0  0  0  0  0  0  0  0  0
  140.6870   76.8810  222.2720 C   0  0  0  0  0  0  0  0  0  0  0  0
  141.2310   75.6680  221.9880 N   0  0  0  0  0  0  0  0  0  0  0  0
  139.5210   72.2530  222.1460 N   0  0  0  0  0  0  0  0  0  0  0  0
  140.0520   70.8760  222.4530 C   0  0  0  0  0  0  0  0  0  0  0  0
  139.4370   70.7760  223.8510 C   0  0  2  0  0  0  0  0  0  0  0  0
  140.2350   71.6990  224.7450 C   0  0  0  0  0  0  0  0  0  0  0  0
  141.2920   70.7190  225.2000 C   0  0  0  0  0  0  0  0  0  0  0  0
  140.5110   69.6000  225.6330 N   0  0  0  0  0  0  0  0  0  0  0  0
  139.7700   69.7910  226.8400 C   0  0  1  0  0  0  0  0  0  0  0  0
  139.5740   68.4470  227.5070 C   0  0  0  0  0  0  0  0  0  0  0  0
  140.9620   68.2860  228.1450 C   0  0  0  0  0  0  0  0  0  0  0  0
  141.4690   69.6010  228.3860 N   0  0  0  0  0  0  0  0  0  0  0  0
  140.5090   70.5380  227.8990 C   0  0  0  0  0  0  0  0  0  0  0  0
  139.5840   69.4540  224.4960 C   0  0  0  0  0  0  0  0  0  0  0  0
  138.0510   71.2340  223.6040 C   0  0  0  0  0  0  0  0  0  0  0  0
  136.7990   71.0090  224.0920 C   0  0  0  0  0  0  0  0  0  0  0  0
  135.6880   71.6150  223.5490 C   0  0  0  0  0  0  0  0  0  0  0  0
  135.7940   72.4920  222.4680 C   0  0  0  0  0  0  0  0  0  0  0  0
  137.0520   72.7220  221.9720 C   0  0  0  0  0  0  0  0  0  0  0  0
  138.1600   72.1200  222.5130 C   0  0  0  0  0  0  0  0  0  0  0  0
  138.1239   74.8850  222.3178 H   0  0  0  0  0  0  0  0  0  0  0  0
  137.4472   77.5993  222.8714 H   0  0  0  0  0  0  0  0  0  0  0  0
  140.8221   80.2113  222.8140 H   0  0  0  0  0  0  0  0  0  0  0  0
  142.2981   78.3268  222.2759 H   0  0  0  0  0  0  0  0  0  0  0  0
  142.2420   75.5910  221.8190 H   0  0  0  0  0  0  0  0  0  0  0  0
  139.6683   70.1091  221.7640 H   0  0  0  0  0  0  0  0  0  0  0  0
  141.1388   70.7272  222.3708 H   0  0  0  0  0  0  0  0  0  0  0  0
  140.6664   72.5437  224.1879 H   0  0  0  0  0  0  0  0  0  0  0  0
  139.6671   72.1931  225.5471 H   0  0  0  0  0  0  0  0  0  0  0  0
  141.9595   70.4410  224.3711 H   0  0  0  0  0  0  0  0  0  0  0  0
  141.9546   71.1199  225.9812 H   0  0  0  0  0  0  0  0  0  0  0  0
  138.8618   70.3262  226.5257 H   0  0  0  0  0  0  0  0  0  0  0  0
  138.7745   68.4747  228.2620 H   0  0  0  0  0  0  0  0  0  0  0  0
  139.2644   67.6297  226.8390 H   0  0  0  0  0  0  0  0  0  0  0  0
  140.8799   67.7337  229.0928 H   0  0  0  0  0  0  0  0  0  0  0  0
  141.6348   67.7225  227.4818 H   0  0  0  0  0  0  0  0  0  0  0  0
  141.6390   69.7380  229.4150 H   0  0  0  0  0  0  0  0  0  0  0  0
  139.8270   70.8509  228.7033 H   0  0  0  0  0  0  0  0  0  0  0  0
  140.9756   71.4579  227.5169 H   0  0  0  0  0  0  0  0  0  0  0  0
  139.9902   68.7301  223.7743 H   0  0  0  0  0  0  0  0  0  0  0  0
  138.6067   69.0895  224.8453 H   0  0  0  0  0  0  0  0  0  0  0  0
  136.6721   70.3242  224.9434 H   0  0  0  0  0  0  0  0  0  0  0  0
  134.6965   71.4036  223.9759 H   0  0  0  0  0  0  0  0  0  0  0  0
  134.9077   72.9772  222.0332 H   0  0  0  0  0  0  0  0  0  0  0  0
  137.1757   73.4060  221.1194 H   0  0  0  0  0  0  0  0  0  0  0  0
  1  2  2  0
  2  3  1  0
  3  4  2  0
  4  5  1  0
  5  6  2  0
  6  7  1  0
  7  8  1  0
  7  9  2  0
  9 10  1  0
 10 11  2  0
 11 12  1  0
  2 13  1  0
 13 14  1  0
 15 14  1  6
 15 16  1  0
 16 17  1  0
 17 18  1  0
 18 19  1  0
 19 20  1  0
 20 21  1  0
 21 22  1  0
 22 23  1  0
 18 24  1  0
 15 25  1  0
 25 26  2  0
 26 27  1  0
 27 28  2  0
 28 29  1  0
 29 30  2  0
 12  3  1  0
 30 13  1  0
 11  5  1  0
 24 15  1  0
 30 25  1  0
 23 19  1  0
  4 31  1  0
  6 32  1  0
  9 33  1  0
 10 34  1  0
 12 35  1  0
 14 36  1  0
 14 37  1  0
 16 38  1  0
 16 39  1  0
 17 40  1  0
 17 41  1  0
 19 42  1  6
 20 43  1  0
 20 44  1  0
 21 45  1  0
 21 46  1  0
 22 47  1  0
 23 48  1  0
 23 49  1  0
 24 50  1  0
 24 51  1  0
 26 52  1  0
 27 53  1  0
 28 54  1  0
 29 55  1  0
M  END
>  <smiles>  (78) 
O=C(c1cc2cc(F)ccc2[nH]1)N1CC2(CCN(C3CCNC3)C2)c2ccccc21

>  <score_type>  (78) 
oracle

>  <origin>  (78) 
autodockgpu

>  <m_score__min__energy>  (78) 
-8.1799999999999997

>  <m_primary>  (78) 
energy

>  <meeko>  (78) 
{"free_energy": -7.85, "intermolecular_energy": -8.75, "internal_energy": -1.32, "cluster_size": 4, "cluster_id": 3, "rank_in_cluster": 3}

>  <energy>  (78) 
-7.86

>  <cluster_rmsd>  (78) 
0.11

>  <rmsd>  (78) 
270.9

>  <cluster>  (78) 
3

$$$$

     RDKit          3D

 55 60  0  0  1  0  0  0  0  0999 V2000
  138.3010   73.0050  221.9400 O   0  0  0  0  0  0  0  0  0  0  0  0
  139.5770   72.8030  222.1400 C   0  0  0  0  0  0  0  0  0  0  0  0
  139.8570   71.8950  223.2140 C   0  0  0  0  0  0  0  0  0  0  0  0
  139.1430   70.6920  223.3380 C   0  0  0  0  0  0  0  0  0  0  0  0
  139.5830   70.0030  224.4530 C   0  0  0  0  0  0  0  0  0  0  0  0
  139.2120   68.7980  225.0020 C   0  0  0  0  0  0  0  0  0  0  0  0
  139.8250   68.3330  226.1440 C   0  0  0  0  0  0  0  0  0  0  0  0
  139.4280   67.1400  226.6490 F   0  0  0  0  0  0  0  0  0  0  0  0
  140.8090   69.1110  226.7020 C   0  0  0  0  0  0  0  0  0  0  0  0
  141.1810   70.3110  226.1610 C   0  0  0  0  0  0  0  0  0  0  0  0
  140.5520   70.7680  225.0070 C   0  0  0  0  0  0  0  0  0  0  0  0
  140.6920   71.8860  224.2480 N   0  0  0  0  0  0  0  0  0  0  0  0
  140.4000   73.5170  221.2780 N   0  0  0  0  0  0  0  0  0  0  0  0
  139.9130   74.6930  220.4690 C   0  0  0  0  0  0  0  0  0  0  0  0
  141.0160   75.6570  220.9110 C   0  0  2  0  0  0  0  0  0  0  0  0
  140.7170   76.0330  222.3450 C   0  0  0  0  0  0  0  0  0  0  0  0
  139.8420   77.2390  222.0860 C   0  0  0  0  0  0  0  0  0  0  0  0
  140.6290   78.0010  221.1660 N   0  0  0  0  0  0  0  0  0  0  0  0
  141.7970   78.6180  221.7110 C   0  0  1  0  0  0  0  0  0  0  0  0
  141.8790   80.0400  221.2020 C   0  0  0  0  0  0  0  0  0  0  0  0
  140.8510   80.6940  222.1370 C   0  0  0  0  0  0  0  0  0  0  0  0
  140.8330   79.9280  223.3450 N   0  0  0  0  0  0  0  0  0  0  0  0
  141.7400   78.8370  223.1870 C   0  0  0  0  0  0  0  0  0  0  0  0
  141.0190   76.9550  220.2030 C   0  0  0  0  0  0  0  0  0  0  0  0
  142.2290   74.8230  220.7520 C   0  0  0  0  0  0  0  0  0  0  0  0
  143.5470   74.9840  220.4480 C   0  0  0  0  0  0  0  0  0  0  0  0
  144.4040   73.9120  220.3420 C   0  0  0  0  0  0  0  0  0  0  0  0
  143.9600   72.6030  220.5420 C   0  0  0  0  0  0  0  0  0  0  0  0
  142.6330   72.4340  220.8480 C   0  0  0  0  0  0  0  0  0  0  0  0
  141.7790   73.5020  220.9560 C   0  0  0  0  0  0  0  0  0  0  0  0
  138.3538   70.3500  222.6523 H   0  0  0  0  0  0  0  0  0  0  0  0
  138.4201   68.2014  224.5256 H   0  0  0  0  0  0  0  0  0  0  0  0
  141.3143   68.7581  227.6131 H   0  0  0  0  0  0  0  0  0  0  0  0
  141.9720   70.9107  226.6350 H   0  0  0  0  0  0  0  0  0  0  0  0
  141.3840   72.5990  224.5150 H   0  0  0  0  0  0  0  0  0  0  0  0
  139.9265   74.4991  219.3863 H   0  0  0  0  0  0  0  0  0  0  0  0
  138.8727   75.0142  220.6256 H   0  0  0  0  0  0  0  0  0  0  0  0
  140.1769   75.2365  222.8778 H   0  0  0  0  0  0  0  0  0  0  0  0
  141.5946   76.2094  222.9843 H   0  0  0  0  0  0  0  0  0  0  0  0
  138.8814   76.9443  221.6383 H   0  0  0  0  0  0  0  0  0  0  0  0
  139.5766   77.7923  222.9989 H   0  0  0  0  0  0  0  0  0  0  0  0
  142.6210   77.9445  221.4328 H   0  0  0  0  0  0  0  0  0  0  0  0
  142.8844   80.4668  221.3325 H   0  0  0  0  0  0  0  0  0  0  0  0
  141.6865   80.1677  220.1265 H   0  0  0  0  0  0  0  0  0  0  0  0
  141.1442   81.7320  222.3529 H   0  0  0  0  0  0  0  0  0  0  0  0
  139.8548   80.7131  221.6710 H   0  0  0  0  0  0  0  0  0  0  0  0
  141.1120   80.5340  224.1580 H   0  0  0  0  0  0  0  0  0  0  0  0
  142.7337   79.0956  223.5816 H   0  0  0  0  0  0  0  0  0  0  0  0
  141.4175   77.9387  223.7338 H   0  0  0  0  0  0  0  0  0  0  0  0
  140.3005   76.9276  219.3705 H   0  0  0  0  0  0  0  0  0  0  0  0
  142.0187   77.1651  219.7951 H   0  0  0  0  0  0  0  0  0  0  0  0
  143.9374   75.9990  220.2826 H   0  0  0  0  0  0  0  0  0  0  0  0
  145.4609   74.0901  220.0945 H   0  0  0  0  0  0  0  0  0  0  0  0
  144.6438   71.7454  220.4580 H   0  0  0  0  0  0  0  0  0  0  0  0
  142.2448   71.4177  221.0106 H   0  0  0  0  0  0  0  0  0  0  0  0
  1  2  2  0
  2  3  1  0
  3  4  2  0
  4  5  1  0
  5  6  2  0
  6  7  1  0
  7  8  1  0
  7  9  2  0
  9 10  1  0
 10 11  2  0
 11 12  1  0
  2 13  1  0
 13 14  1  0
 15 14  1  6
 15 16  1  0
 16 17  1  0
 17 18  1  0
 18 19  1  0
 19 20  1  0
 20 21  1  0
 21 22  1  0
 22 23  1  0
 18 24  1  0
 15 25  1  0
 25 26  2  0
 26 27  1  0
 27 28  2  0
 28 29  1  0
 29 30  2  0
 12  3  1  0
 30 13  1  0
 11  5  1  0
 24 15  1  0
 30 25  1  0
 23 19  1  0
  4 31  1  0
  6 32  1  0
  9 33  1  0
 10 34  1  0
 12 35  1  0
 14 36  1  0
 14 37  1  0
 16 38  1  0
 16 39  1  0
 17 40  1  0
 17 41  1  0
 19 42  1  1
 20 43  1  0
 20 44  1  0
 21 45  1  0
 21 46  1  0
 22 47  1  0
 23 48  1  0
 23 49  1  0
 24 50  1  0
 24 51  1  0
 26 52  1  0
 27 53  1  0
 28 54  1  0
 29 55  1  0
M  END
>  <smiles>  (79) 
O=C(c1cc2cc(F)ccc2[nH]1)N1CC2(CCN(C3CCNC3)C2)c2ccccc21

>  <score_type>  (79) 
oracle

>  <origin>  (79) 
autodockgpu

>  <m_score__min__energy>  (79) 
-8.1799999999999997

>  <m_primary>  (79) 
energy

>  <meeko>  (79) 
{"free_energy": -8.14, "intermolecular_energy": -9.04, "internal_energy": -1.12, "cluster_size": 14, "cluster_id": 2, "rank_in_cluster": 2}

>  <energy>  (79) 
-7.85

>  <cluster_rmsd>  (79) 
0.17

>  <rmsd>  (79) 
270.94

>  <cluster>  (79) 
3

$$$$

     RDKit          3D

 55 60  0  0  1  0  0  0  0  0999 V2000
  138.3030   73.0060  221.9490 O   0  0  0  0  0  0  0  0  0  0  0  0
  139.5780   72.7960  222.1470 C   0  0  0  0  0  0  0  0  0  0  0  0
  139.8520   71.8880  223.2220 C   0  0  0  0  0  0  0  0  0  0  0  0
  139.1410   70.6820  223.3400 C   0  0  0  0  0  0  0  0  0  0  0  0
  139.5740   69.9930  224.4560 C   0  0  0  0  0  0  0  0  0  0  0  0
  139.2030   68.7850  225.0010 C   0  0  0  0  0  0  0  0  0  0  0  0
  139.8090   68.3210  226.1460 C   0  0  0  0  0  0  0  0  0  0  0  0
  139.4110   67.1260  226.6480 F   0  0  0  0  0  0  0  0  0  0  0  0
  140.7860   69.1010  226.7130 C   0  0  0  0  0  0  0  0  0  0  0  0
  141.1590   70.3020  226.1770 C   0  0  0  0  0  0  0  0  0  0  0  0
  140.5380   70.7590  225.0190 C   0  0  0  0  0  0  0  0  0  0  0  0
  140.6800   71.8790  224.2620 N   0  0  0  0  0  0  0  0  0  0  0  0
  140.4050   73.5030  221.2840 N   0  0  0  0  0  0  0  0  0  0  0  0
  139.9230   74.6750  220.4660 C   0  0  0  0  0  0  0  0  0  0  0  0
  141.0260   75.6410  220.9070 C   0  0  2  0  0  0  0  0  0  0  0  0
  140.7230   76.0250  222.3370 C   0  0  0  0  0  0  0  0  0  0  0  0
  139.8510   77.2310  222.0690 C   0  0  0  0  0  0  0  0  0  0  0  0
  140.6420   77.9870  221.1470 N   0  0  0  0  0  0  0  0  0  0  0  0
  141.8100   78.6040  221.6920 C   0  0  1  0  0  0  0  0  0  0  0  0
  141.9040   80.0180  221.1630 C   0  0  0  0  0  0  0  0  0  0  0  0
  140.8720   80.6920  222.0790 C   0  0  0  0  0  0  0  0  0  0  0  0
  140.8400   79.9460  223.2980 N   0  0  0  0  0  0  0  0  0  0  0  0
  141.7410   78.8470  223.1640 C   0  0  0  0  0  0  0  0  0  0  0  0
  141.0330   76.9350  220.1920 C   0  0  0  0  0  0  0  0  0  0  0  0
  142.2380   74.8030  220.7570 C   0  0  0  0  0  0  0  0  0  0  0  0
  143.5580   74.9600  220.4570 C   0  0  0  0  0  0  0  0  0  0  0  0
  144.4130   73.8860  220.3600 C   0  0  0  0  0  0  0  0  0  0  0  0
  143.9660   72.5790  220.5660 C   0  0  0  0  0  0  0  0  0  0  0  0
  142.6380   72.4150  220.8680 C   0  0  0  0  0  0  0  0  0  0  0  0
  141.7850   73.4850  220.9670 C   0  0  0  0  0  0  0  0  0  0  0  0
  138.3579   70.3384  222.6482 H   0  0  0  0  0  0  0  0  0  0  0  0
  138.4167   68.1863  224.5181 H   0  0  0  0  0  0  0  0  0  0  0  0
  141.2847   68.7484  227.6279 H   0  0  0  0  0  0  0  0  0  0  0  0
  141.9448   70.9030  226.6580 H   0  0  0  0  0  0  0  0  0  0  0  0
  141.3680   72.5930  224.5350 H   0  0  0  0  0  0  0  0  0  0  0  0
  139.9408   74.4746  219.3846 H   0  0  0  0  0  0  0  0  0  0  0  0
  138.8825   74.9984  220.6165 H   0  0  0  0  0  0  0  0  0  0  0  0
  140.1798   75.2322  222.8722 H   0  0  0  0  0  0  0  0  0  0  0  0
  141.5989   76.2034  222.9781 H   0  0  0  0  0  0  0  0  0  0  0  0
  138.8912   76.9356  221.6201 H   0  0  0  0  0  0  0  0  0  0  0  0
  139.5841   77.7896  222.9782 H   0  0  0  0  0  0  0  0  0  0  0  0
  142.6320   77.9212  221.4310 H   0  0  0  0  0  0  0  0  0  0  0  0
  142.9107   80.4411  221.2958 H   0  0  0  0  0  0  0  0  0  0  0  0
  141.7210   80.1305  220.0842 H   0  0  0  0  0  0  0  0  0  0  0  0
  141.1689   81.7318  222.2808 H   0  0  0  0  0  0  0  0  0  0  0  0
  139.8797   80.7087  221.6045 H   0  0  0  0  0  0  0  0  0  0  0  0
  141.1160   80.5620  224.1040 H   0  0  0  0  0  0  0  0  0  0  0  0
  142.7329   79.1054  223.5632 H   0  0  0  0  0  0  0  0  0  0  0  0
  141.4071   77.9594  223.7214 H   0  0  0  0  0  0  0  0  0  0  0  0
  140.3170   76.9039  219.3575 H   0  0  0  0  0  0  0  0  0  0  0  0
  142.0345   77.1412  219.7863 H   0  0  0  0  0  0  0  0  0  0  0  0
  143.9510   75.9733  220.2877 H   0  0  0  0  0  0  0  0  0  0  0  0
  145.4710   74.0607  220.1150 H   0  0  0  0  0  0  0  0  0  0  0  0
  144.6483   71.7196  220.4895 H   0  0  0  0  0  0  0  0  0  0  0  0
  142.2473   71.4004  221.0349 H   0  0  0  0  0  0  0  0  0  0  0  0
  1  2  2  0
  2  3  1  0
  3  4  2  0
  4  5  1  0
  5  6  2  0
  6  7  1  0
  7  8  1  0
  7  9  2  0
  9 10  1  0
 10 11  2  0
 11 12  1  0
  2 13  1  0
 13 14  1  0
 15 14  1  6
 15 16  1  0
 16 17  1  0
 17 18  1  0
 18 19  1  0
 19 20  1  0
 20 21  1  0
 21 22  1  0
 22 23  1  0
 18 24  1  0
 15 25  1  0
 25 26  2  0
 26 27  1  0
 27 28  2  0
 28 29  1  0
 29 30  2  0
 12  3  1  0
 30 13  1  0
 11  5  1  0
 24 15  1  0
 30 25  1  0
 23 19  1  0
  4 31  1  0
  6 32  1  0
  9 33  1  0
 10 34  1  0
 12 35  1  0
 14 36  1  0
 14 37  1  0
 16 38  1  0
 16 39  1  0
 17 40  1  0
 17 41  1  0
 19 42  1  1
 20 43  1  0
 20 44  1  0
 21 45  1  0
 21 46  1  0
 22 47  1  0
 23 48  1  0
 23 49  1  0
 24 50  1  0
 24 51  1  0
 26 52  1  0
 27 53  1  0
 28 54  1  0
 29 55  1  0
M  END
>  <smiles>  (80) 
O=C(c1cc2cc(F)ccc2[nH]1)N1CC2(CCN(C3CCNC3)C2)c2ccccc21

>  <score_type>  (80) 
oracle

>  <origin>  (80) 
autodockgpu

>  <m_score__min__energy>  (80) 
-8.1799999999999997

>  <m_primary>  (80) 
energy

>  <meeko>  (80) 
{"free_energy": -8.13, "intermolecular_energy": -9.03, "internal_energy": -1.12, "cluster_size": 14, "cluster_id": 2, "rank_in_cluster": 10}

>  <energy>  (80) 
-7.69

>  <cluster_rmsd>  (80) 
0.87

>  <rmsd>  (80) 
270.68

>  <cluster>  (80) 
3

$$$$
