XFBXCNWOYUAVIW-REVFFLAHNA-N
     RDKit          3D

 69 73  0  0  0  0  0  0  0  0999 V2000
  139.2970   74.6370  219.0600 H   0  0  0  0  0  0  0  0  0  0  0  0
  139.9660   74.8250  218.3250 O   0  0  0  0  0  0  0  0  0  0  0  0
  141.2340   75.3800  218.5360 C   0  0  0  0  0  0  0  0  0  0  0  0
  142.1160   74.7830  219.3130 N   0  0  0  0  0  0  0  0  0  0  0  0
  143.4990   75.2260  219.4760 C   0  0  0  0  0  0  0  0  0  0  0  0
  144.0281   75.1813  218.5126 H   0  0  0  0  0  0  0  0  0  0  0  0
  143.5435   76.2659  219.8319 H   0  0  0  0  0  0  0  0  0  0  0  0
  144.1460   74.2730  220.4770 C   0  0  2  0  0  0  0  0  0  0  0  0
  144.2950   74.7523  221.4558 H   0  0  0  0  0  0  0  0  0  0  0  0
  145.4150   73.8760  220.0320 O   0  0  0  0  0  0  0  0  0  0  0  0
  145.6510   74.4800  219.2820 H   0  0  0  0  0  0  0  0  0  0  0  0
  143.2020   73.0780  220.5870 C   0  0  0  0  0  0  0  0  0  0  0  0
  143.5606   72.2480  219.9605 H   0  0  0  0  0  0  0  0  0  0  0  0
  143.1428   72.7034  221.6196 H   0  0  0  0  0  0  0  0  0  0  0  0
  141.8440   73.5710  220.0900 C   0  0  1  0  0  0  0  0  0  0  0  0
  141.3405   72.8032  219.4842 H   0  0  0  0  0  0  0  0  0  0  0  0
  140.9290   73.8830  221.2440 C   0  0  0  0  0  0  0  0  0  0  0  0
  141.0650   73.2640  222.3350 O   0  0  0  0  0  0  0  0  0  0  0  0
  139.9270   74.8960  221.1070 N   0  0  0  0  0  0  0  0  0  0  0  0
  139.9490   76.1720  221.8210 C   0  0  2  0  0  0  0  0  0  0  0  0
  140.0839   75.9695  222.8938 H   0  0  0  0  0  0  0  0  0  0  0  0
  138.6310   76.9110  221.6690 C   0  0  0  0  0  0  0  0  0  0  0  0
  138.3100   77.5250  220.4460 C   0  0  0  0  0  0  0  0  0  0  0  0
  139.0297   77.4981  219.6146 H   0  0  0  0  0  0  0  0  0  0  0  0
  137.0800   78.1700  220.2810 C   0  0  0  0  0  0  0  0  0  0  0  0
  136.8402   78.6580  219.3248 H   0  0  0  0  0  0  0  0  0  0  0  0
  136.1550   78.1960  221.3280 C   0  0  0  0  0  0  0  0  0  0  0  0
  135.1868   78.7006  221.1941 H   0  0  0  0  0  0  0  0  0  0  0  0
  136.4600   77.5810  222.5450 C   0  0  0  0  0  0  0  0  0  0  0  0
  135.7309   77.5992  223.3684 H   0  0  0  0  0  0  0  0  0  0  0  0
  137.6910   76.9430  222.7160 C   0  0  0  0  0  0  0  0  0  0  0  0
  137.9275   76.4619  223.6765 H   0  0  0  0  0  0  0  0  0  0  0  0
  141.1360   77.0300  221.3370 C   0  0  0  0  0  0  0  0  0  0  0  0
  142.0469   76.4140  221.3656 H   0  0  0  0  0  0  0  0  0  0  0  0
  140.8985   77.3706  220.3184 H   0  0  0  0  0  0  0  0  0  0  0  0
  141.3640   78.2640  222.1810 C   0  0  0  0  0  0  0  0  0  0  0  0
  142.5270   79.0350  222.0090 C   0  0  0  0  0  0  0  0  0  0  0  0
  143.2927   78.7168  221.2862 H   0  0  0  0  0  0  0  0  0  0  0  0
  142.7150   80.2040  222.7520 C   0  0  0  0  0  0  0  0  0  0  0  0
  143.6283   80.8016  222.6150 H   0  0  0  0  0  0  0  0  0  0  0  0
  141.7430   80.6140  223.6690 C   0  0  0  0  0  0  0  0  0  0  0  0
  141.9260   81.7510  224.3870 F   0  0  0  0  0  0  0  0  0  0  0  0
  140.5830   79.8530  223.8470 C   0  0  0  0  0  0  0  0  0  0  0  0
  139.8171   80.1786  224.5663 H   0  0  0  0  0  0  0  0  0  0  0  0
  140.3960   78.6780  223.1110 C   0  0  0  0  0  0  0  0  0  0  0  0
  139.4876   78.0761  223.2611 H   0  0  0  0  0  0  0  0  0  0  0  0
  141.5570   76.6590  217.7860 C   0  0  0  0  0  0  0  0  0  0  0  0
  141.1041   76.6109  216.7847 H   0  0  0  0  0  0  0  0  0  0  0  0
  142.6508   76.7522  217.7156 H   0  0  0  0  0  0  0  0  0  0  0  0
  141.0380   77.8360  218.4880 N   0  0  0  0  0  0  0  0  0  0  0  0
  140.1060   77.8000  218.9530 H   0  0  0  0  0  0  0  0  0  0  0  0
  141.8030   79.0480  218.5750 C   0  0  0  0  0  0  0  0  0  0  0  0
  142.9590   79.0920  218.0770 O   0  0  0  0  0  0  0  0  0  0  0  0
  141.2440   80.2430  219.2470 C   0  0  0  0  0  0  0  0  0  0  0  0
  140.1340   80.1180  220.0280 N   0  0  0  0  0  0  0  0  0  0  0  0
  139.5700   81.1830  220.6620 C   0  0  0  0  0  0  0  0  0  0  0  0
  138.4250   81.0070  221.4470 C   0  0  0  0  0  0  0  0  0  0  0  0
  137.9812   80.0065  221.5561 H   0  0  0  0  0  0  0  0  0  0  0  0
  137.8450   82.1040  222.0930 C   0  0  0  0  0  0  0  0  0  0  0  0
  136.9471   81.9630  222.7126 H   0  0  0  0  0  0  0  0  0  0  0  0
  138.4030   83.3810  221.9540 C   0  0  0  0  0  0  0  0  0  0  0  0
  137.8330   84.4400  222.5830 F   0  0  0  0  0  0  0  0  0  0  0  0
  139.5460   83.5660  221.1680 C   0  0  0  0  0  0  0  0  0  0  0  0
  139.9818   84.5700  221.0580 H   0  0  0  0  0  0  0  0  0  0  0  0
  140.1360   82.4690  220.5200 C   0  0  0  0  0  0  0  0  0  0  0  0
  141.2780   82.6220  219.7260 C   0  0  0  0  0  0  0  0  0  0  0  0
  141.7364   83.6146  219.6048 H   0  0  0  0  0  0  0  0  0  0  0  0
  141.8350   81.5100  219.0870 C   0  0  0  0  0  0  0  0  0  0  0  0
  142.7323   81.6252  218.4613 H   0  0  0  0  0  0  0  0  0  0  0  0
  1  2  1  0
  2  3  1  0
  3  4  2  0
  4  5  1  0
  5  6  1  0
  5  7  1  0
  5  8  1  0
  8  9  1  1
  8 10  1  0
 10 11  1  0
  8 12  1  0
 12 13  1  0
 12 14  1  0
 12 15  1  0
 15 16  1  6
 15 17  1  0
 17 18  2  0
 17 19  1  0
 19 20  1  0
 20 21  1  1
 20 22  1  0
 22 23  2  0
 23 24  1  0
 23 25  1  0
 25 26  1  0
 25 27  2  0
 27 28  1  0
 27 29  1  0
 29 30  1  0
 29 31  2  0
 31 32  1  0
 20 33  1  0
 33 34  1  0
 33 35  1  0
 33 36  1  0
 36 37  2  0
 37 38  1  0
 37 39  1  0
 39 40  1  0
 39 41  2  0
 41 42  1  0
 41 43  1  0
 43 44  1  0
 43 45  2  0
 45 46  1  0
  3 47  1  0
 47 48  1  0
 47 49  1  0
 47 50  1  0
 50 51  1  0
 50 52  1  0
 52 53  2  0
 52 54  1  0
 54 55  2  0
 55 56  1  0
 56 57  2  0
 57 58  1  0
 57 59  1  0
 59 60  1  0
 59 61  2  0
 61 62  1  0
 61 63  1  0
 63 64  1  0
 63 65  2  0
 65 66  1  0
 66 67  1  0
 66 68  2  0
 68 69  1  0
 15  4  1  0
 31 22  1  0
 45 36  1  0
 68 54  1  0
 65 56  1  0
M  CHG  2   4   1  19  -1
M  END
>  <UniqueID>  (1) 
1

>  <SMILES>  (1) 
O=C(NC/C(O)=[N+]1\C[C@H](O)C[C@H]1C(=O)[N-][C@@H](Cc1ccc(F)cc1)c1ccccc1)c1ccc2cc(F)ccc2n1

>  <Energy>  (1) 
69.41988689770481

>  <Genealogy>  (1) 
O=C(NCC(=O)[NH+]1C[C@H](O)C[C@H]1C(=O)[N-][C@@H](Cc1ccc(F)cc1)c1ccccc1)c1ccc2cc(F)ccc2n1 (protonated)
O=C(NCC(O)=[N+]1C[C@H](O)C[C@H]1C(=O)[N-][C@@H](Cc1ccc(F)cc1)c1ccccc1)c1ccc2cc(F)ccc2n1 (tautomer)
O=C(NC/C(O)=[N+]1\C[C@H](O)C[C@H]1C(=O)[N-][C@@H](Cc1ccc(F)cc1)c1ccccc1)c1ccc2cc(F)ccc2n1 (cis-trans isomerization)
O=C(NC/C(O)=[N+]1\C[C@H](O)C[C@H]1C(=O)[N-][C@@H](Cc1ccc(F)cc1)c1ccccc1)c1ccc2cc(F)ccc2n1 (3D coordinates assigned)
O=C(NC/C(O)=[N+]1\C[C@H](O)C[C@H]1C(=O)[N-][C@@H](Cc1ccc(F)cc1)c1ccccc1)c1ccc2cc(F)ccc2n1 (nonaromatic ring conformer: 69.41988689770481 kcal/mol)

>  <smiles>  (1) 
O=C(NCC(=O)N1C[C@H](O)C[C@H]1C(=O)N[C@@H](Cc1ccc(F)cc1)c1ccccc1)c1ccc2cc(F)ccc2n1

>  <score_type>  (1) 
oracle

>  <origin>  (1) 
autodockgpu

>  <m_score__min__energy>  (1) 
-9.4900000000000002

>  <m_primary>  (1) 
energy

>  <meeko>  (1) 
{"free_energy": -5.51, "intermolecular_energy": -9.09, "internal_energy": -5.8, "cluster_size": 2, "cluster_id": 10, "rank_in_cluster": 2}

>  <energy>  (1) 
-9.49

>  <cluster_rmsd>  (1) 
0.0

>  <rmsd>  (1) 
272.07

>  <cluster>  (1) 
1

$$$$
XFBXCNWOYUAVIW-REVFFLAHNA-N
     RDKit          3D

 69 73  0  0  0  0  0  0  0  0999 V2000
  141.2660   75.3690  222.3540 H   0  0  0  0  0  0  0  0  0  0  0  0
  140.6200   74.5920  222.3240 O   0  0  0  0  0  0  0  0  0  0  0  0
  139.5660   74.4760  221.4090 C   0  0  0  0  0  0  0  0  0  0  0  0
  139.4110   75.3530  220.4370 N   0  0  0  0  0  0  0  0  0  0  0  0
  138.1400   75.9940  220.1060 C   0  0  0  0  0  0  0  0  0  0  0  0
  137.4004   75.2379  219.8038 H   0  0  0  0  0  0  0  0  0  0  0  0
  137.7286   76.5327  220.9724 H   0  0  0  0  0  0  0  0  0  0  0  0
  138.4240   76.9470  218.9470 C   0  0  2  0  0  0  0  0  0  0  0  0
  138.4160   77.9975  219.2732 H   0  0  0  0  0  0  0  0  0  0  0  0
  137.4360   76.8290  217.9590 O   0  0  0  0  0  0  0  0  0  0  0  0
  137.7030   77.4340  217.2210 H   0  0  0  0  0  0  0  0  0  0  0  0
  139.7950   76.5500  218.4050 C   0  0  0  0  0  0  0  0  0  0  0  0
  139.6850   75.9138  217.5144 H   0  0  0  0  0  0  0  0  0  0  0  0
  140.3813   77.4308  218.1043 H   0  0  0  0  0  0  0  0  0  0  0  0
  140.4810   75.7760  219.5300 C   0  0  1  0  0  0  0  0  0  0  0  0
  141.0438   74.9171  219.1355 H   0  0  0  0  0  0  0  0  0  0  0  0
  141.4710   76.6470  220.2570 C   0  0  0  0  0  0  0  0  0  0  0  0
  142.5670   76.9420  219.7080 O   0  0  0  0  0  0  0  0  0  0  0  0
  141.1530   77.1570  221.5560 N   0  0  0  0  0  0  0  0  0  0  0  0
  140.2980   78.3190  221.7950 C   0  0  2  0  0  0  0  0  0  0  0  0
  139.9670   78.7141  220.8232 H   0  0  0  0  0  0  0  0  0  0  0  0
  141.0610   79.4310  222.4910 C   0  0  0  0  0  0  0  0  0  0  0  0
  141.8980   79.1320  223.5800 C   0  0  0  0  0  0  0  0  0  0  0  0
  141.9694   78.0973  223.9465 H   0  0  0  0  0  0  0  0  0  0  0  0
  142.6400   80.1410  224.2000 C   0  0  0  0  0  0  0  0  0  0  0  0
  143.2851   79.8998  225.0577 H   0  0  0  0  0  0  0  0  0  0  0  0
  142.5640   81.4570  223.7320 C   0  0  0  0  0  0  0  0  0  0  0  0
  143.1508   82.2492  224.2199 H   0  0  0  0  0  0  0  0  0  0  0  0
  141.7420   81.7650  222.6440 C   0  0  0  0  0  0  0  0  0  0  0  0
  141.6849   82.7989  222.2729 H   0  0  0  0  0  0  0  0  0  0  0  0
  140.9930   80.7590  222.0280 C   0  0  0  0  0  0  0  0  0  0  0  0
  140.3449   81.0066  221.1744 H   0  0  0  0  0  0  0  0  0  0  0  0
  139.0490   77.9020  222.6000 C   0  0  0  0  0  0  0  0  0  0  0  0
  138.4085   77.2825  221.9550 H   0  0  0  0  0  0  0  0  0  0  0  0
  139.4004   77.3521  223.4855 H   0  0  0  0  0  0  0  0  0  0  0  0
  138.2380   79.0770  223.0950 C   0  0  0  0  0  0  0  0  0  0  0  0
  138.6490   79.7920  224.2340 C   0  0  0  0  0  0  0  0  0  0  0  0
  139.5419   79.4700  224.7899 H   0  0  0  0  0  0  0  0  0  0  0  0
  137.9280   80.9100  224.6630 C   0  0  0  0  0  0  0  0  0  0  0  0
  138.2527   81.4637  225.5563 H   0  0  0  0  0  0  0  0  0  0  0  0
  136.7950   81.3250  223.9580 C   0  0  0  0  0  0  0  0  0  0  0  0
  136.0980   82.4130  224.3750 F   0  0  0  0  0  0  0  0  0  0  0  0
  136.3780   80.6200  222.8250 C   0  0  0  0  0  0  0  0  0  0  0  0
  135.4878   80.9499  222.2694 H   0  0  0  0  0  0  0  0  0  0  0  0
  137.0920   79.4950  222.3970 C   0  0  0  0  0  0  0  0  0  0  0  0
  136.7552   78.9361  221.5115 H   0  0  0  0  0  0  0  0  0  0  0  0
  138.6570   73.2690  221.5590 C   0  0  0  0  0  0  0  0  0  0  0  0
  138.7287   72.6522  220.6510 H   0  0  0  0  0  0  0  0  0  0  0  0
  137.6278   73.6277  221.7077 H   0  0  0  0  0  0  0  0  0  0  0  0
  139.0330   72.4560  222.7180 N   0  0  0  0  0  0  0  0  0  0  0  0
  139.6170   72.8670  223.4780 H   0  0  0  0  0  0  0  0  0  0  0  0
  138.5920   71.0970  222.8490 C   0  0  0  0  0  0  0  0  0  0  0  0
  137.8320   70.6020  221.9750 O   0  0  0  0  0  0  0  0  0  0  0  0
  139.0210   70.2750  224.0040 C   0  0  0  0  0  0  0  0  0  0  0  0
  139.6360   70.8720  225.0620 N   0  0  0  0  0  0  0  0  0  0  0  0
  140.0620   70.1660  226.1460 C   0  0  0  0  0  0  0  0  0  0  0  0
  140.6980   70.8220  227.2060 C   0  0  0  0  0  0  0  0  0  0  0  0
  140.8519   71.9105  227.1664 H   0  0  0  0  0  0  0  0  0  0  0  0
  141.1380   70.0930  228.3160 C   0  0  0  0  0  0  0  0  0  0  0  0
  141.6344   70.6110  229.1498 H   0  0  0  0  0  0  0  0  0  0  0  0
  140.9490   68.7060  228.3700 C   0  0  0  0  0  0  0  0  0  0  0  0
  141.3800   68.0070  229.4490 F   0  0  0  0  0  0  0  0  0  0  0  0
  140.3170   68.0420  227.3120 C   0  0  0  0  0  0  0  0  0  0  0  0
  140.1715   66.9525  227.3542 H   0  0  0  0  0  0  0  0  0  0  0  0
  139.8690   68.7680  226.1970 C   0  0  0  0  0  0  0  0  0  0  0  0
  139.2350   68.1330  225.1230 C   0  0  0  0  0  0  0  0  0  0  0  0
  139.0714   67.0454  225.1443 H   0  0  0  0  0  0  0  0  0  0  0  0
  138.8100   68.8840  224.0230 C   0  0  0  0  0  0  0  0  0  0  0  0
  138.3126   68.3894  223.1757 H   0  0  0  0  0  0  0  0  0  0  0  0
  1  2  1  0
  2  3  1  0
  3  4  2  0
  4  5  1  0
  5  6  1  0
  5  7  1  0
  5  8  1  0
  8  9  1  1
  8 10  1  0
 10 11  1  0
  8 12  1  0
 12 13  1  0
 12 14  1  0
 12 15  1  0
 15 16  1  6
 15 17  1  0
 17 18  2  0
 17 19  1  0
 19 20  1  0
 20 21  1  6
 20 22  1  0
 22 23  2  0
 23 24  1  0
 23 25  1  0
 25 26  1  0
 25 27  2  0
 27 28  1  0
 27 29  1  0
 29 30  1  0
 29 31  2  0
 31 32  1  0
 20 33  1  0
 33 34  1  0
 33 35  1  0
 33 36  1  0
 36 37  2  0
 37 38  1  0
 37 39  1  0
 39 40  1  0
 39 41  2  0
 41 42  1  0
 41 43  1  0
 43 44  1  0
 43 45  2  0
 45 46  1  0
  3 47  1  0
 47 48  1  0
 47 49  1  0
 47 50  1  0
 50 51  1  0
 50 52  1  0
 52 53  2  0
 52 54  1  0
 54 55  2  0
 55 56  1  0
 56 57  2  0
 57 58  1  0
 57 59  1  0
 59 60  1  0
 59 61  2  0
 61 62  1  0
 61 63  1  0
 63 64  1  0
 63 65  2  0
 65 66  1  0
 66 67  1  0
 66 68  2  0
 68 69  1  0
 15  4  1  0
 31 22  1  0
 45 36  1  0
 68 54  1  0
 65 56  1  0
M  CHG  2   4   1  19  -1
M  END
>  <UniqueID>  (2) 
1

>  <SMILES>  (2) 
O=C(NC/C(O)=[N+]1\C[C@H](O)C[C@H]1C(=O)[N-][C@@H](Cc1ccc(F)cc1)c1ccccc1)c1ccc2cc(F)ccc2n1

>  <Energy>  (2) 
69.41988689770481

>  <Genealogy>  (2) 
O=C(NCC(=O)[NH+]1C[C@H](O)C[C@H]1C(=O)[N-][C@@H](Cc1ccc(F)cc1)c1ccccc1)c1ccc2cc(F)ccc2n1 (protonated)
O=C(NCC(O)=[N+]1C[C@H](O)C[C@H]1C(=O)[N-][C@@H](Cc1ccc(F)cc1)c1ccccc1)c1ccc2cc(F)ccc2n1 (tautomer)
O=C(NC/C(O)=[N+]1\C[C@H](O)C[C@H]1C(=O)[N-][C@@H](Cc1ccc(F)cc1)c1ccccc1)c1ccc2cc(F)ccc2n1 (cis-trans isomerization)
O=C(NC/C(O)=[N+]1\C[C@H](O)C[C@H]1C(=O)[N-][C@@H](Cc1ccc(F)cc1)c1ccccc1)c1ccc2cc(F)ccc2n1 (3D coordinates assigned)
O=C(NC/C(O)=[N+]1\C[C@H](O)C[C@H]1C(=O)[N-][C@@H](Cc1ccc(F)cc1)c1ccccc1)c1ccc2cc(F)ccc2n1 (nonaromatic ring conformer: 69.41988689770481 kcal/mol)

>  <smiles>  (2) 
O=C(NCC(=O)N1C[C@H](O)C[C@H]1C(=O)N[C@@H](Cc1ccc(F)cc1)c1ccccc1)c1ccc2cc(F)ccc2n1

>  <score_type>  (2) 
oracle

>  <origin>  (2) 
autodockgpu

>  <m_score__min__energy>  (2) 
-9.4900000000000002

>  <m_primary>  (2) 
energy

>  <meeko>  (2) 
{"free_energy": -7.88, "intermolecular_energy": -11.46, "internal_energy": -3.99, "cluster_size": 1, "cluster_id": 6, "rank_in_cluster": 1}

>  <energy>  (2) 
-9.36

>  <cluster_rmsd>  (2) 
1.93

>  <rmsd>  (2) 
272.44

>  <cluster>  (2) 
1

$$$$
XFBXCNWOYUAVIW-REVFFLAHNA-N
     RDKit          3D

 69 73  0  0  0  0  0  0  0  0999 V2000
  137.7560   76.6860  217.8410 H   0  0  0  0  0  0  0  0  0  0  0  0
  138.6880   76.2950  217.8300 O   0  0  0  0  0  0  0  0  0  0  0  0
  139.2040   75.4560  218.8270 C   0  0  0  0  0  0  0  0  0  0  0  0
  140.4110   75.6490  219.3180 N   0  0  0  0  0  0  0  0  0  0  0  0
  141.2940   76.7440  218.9220 C   0  0  0  0  0  0  0  0  0  0  0  0
  141.5306   76.6722  217.8502 H   0  0  0  0  0  0  0  0  0  0  0  0
  140.8168   77.7203  219.0927 H   0  0  0  0  0  0  0  0  0  0  0  0
  142.5660   76.6000  219.7530 C   0  0  2  0  0  0  0  0  0  0  0  0
  142.6249   77.3653  220.5410 H   0  0  0  0  0  0  0  0  0  0  0  0
  143.7020   76.7690  218.9500 O   0  0  0  0  0  0  0  0  0  0  0  0
  144.2670   77.4480  219.4010 H   0  0  0  0  0  0  0  0  0  0  0  0
  142.5180   75.1960  220.3520 C   0  0  0  0  0  0  0  0  0  0  0  0
  143.1378   74.5061  219.7605 H   0  0  0  0  0  0  0  0  0  0  0  0
  142.9077   75.1817  221.3806 H   0  0  0  0  0  0  0  0  0  0  0  0
  141.0510   74.7700  220.3010 C   0  0  1  0  0  0  0  0  0  0  0  0
  140.9549   73.7100  220.0232 H   0  0  0  0  0  0  0  0  0  0  0  0
  140.3970   74.9270  221.6490 C   0  0  0  0  0  0  0  0  0  0  0  0
  139.7090   73.9830  222.1240 O   0  0  0  0  0  0  0  0  0  0  0  0
  140.5810   76.1350  222.3930 N   0  0  0  0  0  0  0  0  0  0  0  0
  140.0320   77.4330  222.0010 C   0  0  2  0  0  0  0  0  0  0  0  0
  139.8579   77.4250  220.9149 H   0  0  0  0  0  0  0  0  0  0  0  0
  141.0140   78.5550  222.2860 C   0  0  0  0  0  0  0  0  0  0  0  0
  141.3060   79.5010  221.2870 C   0  0  0  0  0  0  0  0  0  0  0  0
  140.8490   79.4039  220.2912 H   0  0  0  0  0  0  0  0  0  0  0  0
  142.1740   80.5640  221.5530 C   0  0  0  0  0  0  0  0  0  0  0  0
  142.4060   81.2941  220.7636 H   0  0  0  0  0  0  0  0  0  0  0  0
  142.7480   80.7010  222.8210 C   0  0  0  0  0  0  0  0  0  0  0  0
  143.4287   81.5397  223.0289 H   0  0  0  0  0  0  0  0  0  0  0  0
  142.4570   79.7730  223.8230 C   0  0  0  0  0  0  0  0  0  0  0  0
  142.9053   79.8832  224.8214 H   0  0  0  0  0  0  0  0  0  0  0  0
  141.5970   78.7050  223.5580 C   0  0  0  0  0  0  0  0  0  0  0  0
  141.3735   77.9751  224.3500 H   0  0  0  0  0  0  0  0  0  0  0  0
  138.6810   77.6720  222.7060 C   0  0  0  0  0  0  0  0  0  0  0  0
  137.8926   77.1638  222.1314 H   0  0  0  0  0  0  0  0  0  0  0  0
  138.7714   77.2738  223.7274 H   0  0  0  0  0  0  0  0  0  0  0  0
  138.3200   79.1350  222.8260 C   0  0  0  0  0  0  0  0  0  0  0  0
  137.7960   79.8280  221.7200 C   0  0  0  0  0  0  0  0  0  0  0  0
  137.6849   79.3137  220.7540 H   0  0  0  0  0  0  0  0  0  0  0  0
  137.4160   81.1670  221.8430 C   0  0  0  0  0  0  0  0  0  0  0  0
  137.0100   81.7047  220.9735 H   0  0  0  0  0  0  0  0  0  0  0  0
  137.5510   81.8240  223.0690 C   0  0  0  0  0  0  0  0  0  0  0  0
  137.1780   83.1230  223.1870 F   0  0  0  0  0  0  0  0  0  0  0  0
  138.0730   81.1420  224.1740 C   0  0  0  0  0  0  0  0  0  0  0  0
  138.1768   81.6586  225.1396 H   0  0  0  0  0  0  0  0  0  0  0  0
  138.4630   79.8040  224.0520 C   0  0  0  0  0  0  0  0  0  0  0  0
  138.8831   79.2743  224.9197 H   0  0  0  0  0  0  0  0  0  0  0  0
  138.2870   74.3630  219.3450 C   0  0  0  0  0  0  0  0  0  0  0  0
  138.8899   73.4758  219.5887 H   0  0  0  0  0  0  0  0  0  0  0  0
  137.5490   74.1310  218.5630 H   0  0  0  0  0  0  0  0  0  0  0  0
  137.5660   74.7940  220.5460 N   0  0  0  0  0  0  0  0  0  0  0  0
  137.6730   74.2650  221.4380 H   0  0  0  0  0  0  0  0  0  0  0  0
  136.7250   75.9560  220.5340 C   0  0  0  0  0  0  0  0  0  0  0  0
  136.6340   76.6480  219.4840 O   0  0  0  0  0  0  0  0  0  0  0  0
  135.9670   76.3500  221.7430 C   0  0  0  0  0  0  0  0  0  0  0  0
  135.9670   75.5310  222.8320 N   0  0  0  0  0  0  0  0  0  0  0  0
  135.2800   75.8350  223.9670 C   0  0  0  0  0  0  0  0  0  0  0  0
  135.3030   74.9590  225.0580 C   0  0  0  0  0  0  0  0  0  0  0  0
  135.8805   74.0245  225.0010 H   0  0  0  0  0  0  0  0  0  0  0  0
  134.5910   75.2720  226.2220 C   0  0  0  0  0  0  0  0  0  0  0  0
  134.6127   74.5833  227.0794 H   0  0  0  0  0  0  0  0  0  0  0  0
  133.8510   76.4590  226.2990 C   0  0  0  0  0  0  0  0  0  0  0  0
  133.1640   76.7540  227.4300 F   0  0  0  0  0  0  0  0  0  0  0  0
  133.8210   77.3390  225.2110 C   0  0  0  0  0  0  0  0  0  0  0  0
  133.2382   78.2699  225.2721 H   0  0  0  0  0  0  0  0  0  0  0  0
  134.5350   77.0330  224.0420 C   0  0  0  0  0  0  0  0  0  0  0  0
  134.5230   77.8920  222.9370 C   0  0  0  0  0  0  0  0  0  0  0  0
  133.9533   78.8322  222.9756 H   0  0  0  0  0  0  0  0  0  0  0  0
  135.2370   77.5520  221.7840 C   0  0  0  0  0  0  0  0  0  0  0  0
  135.2280   78.2221  220.9117 H   0  0  0  0  0  0  0  0  0  0  0  0
  1  2  1  0
  2  3  1  0
  3  4  2  0
  4  5  1  0
  5  6  1  0
  5  7  1  0
  5  8  1  0
  8  9  1  1
  8 10  1  0
 10 11  1  0
  8 12  1  0
 12 13  1  0
 12 14  1  0
 12 15  1  0
 15 16  1  6
 15 17  1  0
 17 18  2  0
 17 19  1  0
 19 20  1  0
 20 21  1  6
 20 22  1  0
 22 23  2  0
 23 24  1  0
 23 25  1  0
 25 26  1  0
 25 27  2  0
 27 28  1  0
 27 29  1  0
 29 30  1  0
 29 31  2  0
 31 32  1  0
 20 33  1  0
 33 34  1  0
 33 35  1  0
 33 36  1  0
 36 37  2  0
 37 38  1  0
 37 39  1  0
 39 40  1  0
 39 41  2  0
 41 42  1  0
 41 43  1  0
 43 44  1  0
 43 45  2  0
 45 46  1  0
  3 47  1  0
 47 48  1  0
 47 49  1  0
 47 50  1  0
 50 51  1  0
 50 52  1  0
 52 53  2  0
 52 54  1  0
 54 55  2  0
 55 56  1  0
 56 57  2  0
 57 58  1  0
 57 59  1  0
 59 60  1  0
 59 61  2  0
 61 62  1  0
 61 63  1  0
 63 64  1  0
 63 65  2  0
 65 66  1  0
 66 67  1  0
 66 68  2  0
 68 69  1  0
 15  4  1  0
 31 22  1  0
 45 36  1  0
 68 54  1  0
 65 56  1  0
M  CHG  2   4   1  19  -1
M  END
>  <UniqueID>  (3) 
1

>  <SMILES>  (3) 
O=C(NC/C(O)=[N+]1\C[C@H](O)C[C@H]1C(=O)[N-][C@@H](Cc1ccc(F)cc1)c1ccccc1)c1ccc2cc(F)ccc2n1

>  <Energy>  (3) 
69.41988689770481

>  <Genealogy>  (3) 
O=C(NCC(=O)[NH+]1C[C@H](O)C[C@H]1C(=O)[N-][C@@H](Cc1ccc(F)cc1)c1ccccc1)c1ccc2cc(F)ccc2n1 (protonated)
O=C(NCC(O)=[N+]1C[C@H](O)C[C@H]1C(=O)[N-][C@@H](Cc1ccc(F)cc1)c1ccccc1)c1ccc2cc(F)ccc2n1 (tautomer)
O=C(NC/C(O)=[N+]1\C[C@H](O)C[C@H]1C(=O)[N-][C@@H](Cc1ccc(F)cc1)c1ccccc1)c1ccc2cc(F)ccc2n1 (cis-trans isomerization)
O=C(NC/C(O)=[N+]1\C[C@H](O)C[C@H]1C(=O)[N-][C@@H](Cc1ccc(F)cc1)c1ccccc1)c1ccc2cc(F)ccc2n1 (3D coordinates assigned)
O=C(NC/C(O)=[N+]1\C[C@H](O)C[C@H]1C(=O)[N-][C@@H](Cc1ccc(F)cc1)c1ccccc1)c1ccc2cc(F)ccc2n1 (nonaromatic ring conformer: 69.41988689770481 kcal/mol)

>  <smiles>  (3) 
O=C(NCC(=O)N1C[C@H](O)C[C@H]1C(=O)N[C@@H](Cc1ccc(F)cc1)c1ccccc1)c1ccc2cc(F)ccc2n1

>  <score_type>  (3) 
oracle

>  <origin>  (3) 
autodockgpu

>  <m_score__min__energy>  (3) 
-9.4900000000000002

>  <m_primary>  (3) 
energy

>  <meeko>  (3) 
{"free_energy": -6.03, "intermolecular_energy": -9.61, "internal_energy": -5.89, "cluster_size": 2, "cluster_id": 12, "rank_in_cluster": 1}

>  <energy>  (3) 
-9.16

>  <cluster_rmsd>  (3) 
0.0

>  <rmsd>  (3) 
271.36

>  <cluster>  (3) 
2

$$$$
XFBXCNWOYUAVIW-REVFFLAHNA-N
     RDKit          3D

 69 73  0  0  0  0  0  0  0  0999 V2000
  141.9910   73.2860  220.8450 H   0  0  0  0  0  0  0  0  0  0  0  0
  141.3640   72.9940  220.1090 O   0  0  0  0  0  0  0  0  0  0  0  0
  140.2030   73.6860  219.7400 C   0  0  0  0  0  0  0  0  0  0  0  0
  140.2730   74.8580  219.1410 N   0  0  0  0  0  0  0  0  0  0  0  0
  139.1110   75.6750  218.7970 C   0  0  0  0  0  0  0  0  0  0  0  0
  138.4633   75.1357  218.0902 H   0  0  0  0  0  0  0  0  0  0  0  0
  138.5097   75.9061  219.6886 H   0  0  0  0  0  0  0  0  0  0  0  0
  139.6510   76.9480  218.1510 C   0  0  2  0  0  0  0  0  0  0  0  0
  139.5640   77.8138  218.8240 H   0  0  0  0  0  0  0  0  0  0  0  0
  138.9180   77.2640  216.9980 O   0  0  0  0  0  0  0  0  0  0  0  0
  139.5790   77.5430  216.3130 H   0  0  0  0  0  0  0  0  0  0  0  0
  141.1120   76.6590  217.8130 C   0  0  0  0  0  0  0  0  0  0  0  0
  141.2131   76.3880  216.7517 H   0  0  0  0  0  0  0  0  0  0  0  0
  141.7488   77.5393  217.9851 H   0  0  0  0  0  0  0  0  0  0  0  0
  141.5220   75.4860  218.7030 C   0  0  1  0  0  0  0  0  0  0  0  0
  142.1637   74.7785  218.1574 H   0  0  0  0  0  0  0  0  0  0  0  0
  142.3140   75.9640  219.8920 C   0  0  0  0  0  0  0  0  0  0  0  0
  143.0990   75.1710  220.4810 O   0  0  0  0  0  0  0  0  0  0  0  0
  142.1920   77.3210  220.3310 N   0  0  0  0  0  0  0  0  0  0  0  0
  141.1040   77.8150  221.1740 C   0  0  2  0  0  0  0  0  0  0  0  0
  140.2834   78.1512  220.5232 H   0  0  0  0  0  0  0  0  0  0  0  0
  141.5430   79.0150  221.9930 C   0  0  0  0  0  0  0  0  0  0  0  0
  141.5280   80.2980  221.4190 C   0  0  0  0  0  0  0  0  0  0  0  0
  141.2315   80.4233  220.3672 H   0  0  0  0  0  0  0  0  0  0  0  0
  141.8880   81.4160  222.1780 C   0  0  0  0  0  0  0  0  0  0  0  0
  141.8839   82.4156  221.7188 H   0  0  0  0  0  0  0  0  0  0  0  0
  142.2530   81.2660  223.5190 C   0  0  0  0  0  0  0  0  0  0  0  0
  142.5325   82.1475  224.1146 H   0  0  0  0  0  0  0  0  0  0  0  0
  142.2630   79.9970  224.1030 C   0  0  0  0  0  0  0  0  0  0  0  0
  142.5471   79.8796  225.1592 H   0  0  0  0  0  0  0  0  0  0  0  0
  141.9120   78.8770  223.3450 C   0  0  0  0  0  0  0  0  0  0  0  0
  141.9240   77.8793  223.8081 H   0  0  0  0  0  0  0  0  0  0  0  0
  140.5740   76.6790  222.0760 C   0  0  0  0  0  0  0  0  0  0  0  0
  140.8097   75.7158  221.5998 H   0  0  0  0  0  0  0  0  0  0  0  0
  141.0615   76.7860  223.0563 H   0  0  0  0  0  0  0  0  0  0  0  0
  139.0820   76.7480  222.3070 C   0  0  0  0  0  0  0  0  0  0  0  0
  138.3140   75.5700  222.3310 C   0  0  0  0  0  0  0  0  0  0  0  0
  138.7946   74.5989  222.1411 H   0  0  0  0  0  0  0  0  0  0  0  0
  136.9430   75.6280  222.5950 C   0  0  0  0  0  0  0  0  0  0  0  0
  136.3470   74.7036  222.6100 H   0  0  0  0  0  0  0  0  0  0  0  0
  136.3280   76.8590  222.8400 C   0  0  0  0  0  0  0  0  0  0  0  0
  134.9970   76.9120  223.0990 F   0  0  0  0  0  0  0  0  0  0  0  0
  137.0840   78.0350  222.8170 C   0  0  0  0  0  0  0  0  0  0  0  0
  136.6001   79.0030  223.0138 H   0  0  0  0  0  0  0  0  0  0  0  0
  138.4550   77.9820  222.5440 C   0  0  0  0  0  0  0  0  0  0  0  0
  139.0442   78.9105  222.5149 H   0  0  0  0  0  0  0  0  0  0  0  0
  138.8780   72.9970  220.0100 C   0  0  0  0  0  0  0  0  0  0  0  0
  138.5726   72.4436  219.1097 H   0  0  0  0  0  0  0  0  0  0  0  0
  138.1346   73.7659  220.2672 H   0  0  0  0  0  0  0  0  0  0  0  0
  138.9800   72.0610  221.1330 N   0  0  0  0  0  0  0  0  0  0  0  0
  138.5110   71.1320  221.0840 H   0  0  0  0  0  0  0  0  0  0  0  0
  139.7420   72.3850  222.3060 C   0  0  0  0  0  0  0  0  0  0  0  0
  140.3710   73.4750  222.3580 O   0  0  0  0  0  0  0  0  0  0  0  0
  139.7950   71.4480  223.4510 C   0  0  0  0  0  0  0  0  0  0  0  0
  140.3260   71.8640  224.6350 N   0  0  0  0  0  0  0  0  0  0  0  0
  140.4110   71.0440  225.7180 C   0  0  0  0  0  0  0  0  0  0  0  0
  140.9720   71.5130  226.9120 C   0  0  0  0  0  0  0  0  0  0  0  0
  141.3413   72.5471  226.9771 H   0  0  0  0  0  0  0  0  0  0  0  0
  141.0630   70.6670  228.0220 C   0  0  0  0  0  0  0  0  0  0  0  0
  141.5012   71.0390  228.9599 H   0  0  0  0  0  0  0  0  0  0  0  0
  140.5980   69.3470  227.9440 C   0  0  0  0  0  0  0  0  0  0  0  0
  140.6910   68.5330  229.0250 F   0  0  0  0  0  0  0  0  0  0  0  0
  140.0390   68.8690  226.7530 C   0  0  0  0  0  0  0  0  0  0  0  0
  139.6771   67.8321  226.6916 H   0  0  0  0  0  0  0  0  0  0  0  0
  139.9410   69.7150  225.6370 C   0  0  0  0  0  0  0  0  0  0  0  0
  139.3890   69.2660  224.4320 C   0  0  0  0  0  0  0  0  0  0  0  0
  139.0140   68.2353  224.3479 H   0  0  0  0  0  0  0  0  0  0  0  0
  139.3150   70.1300  223.3350 C   0  0  0  0  0  0  0  0  0  0  0  0
  138.8834   69.7810  222.3853 H   0  0  0  0  0  0  0  0  0  0  0  0
  1  2  1  0
  2  3  1  0
  3  4  2  0
  4  5  1  0
  5  6  1  0
  5  7  1  0
  5  8  1  0
  8  9  1  1
  8 10  1  0
 10 11  1  0
  8 12  1  0
 12 13  1  0
 12 14  1  0
 12 15  1  0
 15 16  1  6
 15 17  1  0
 17 18  2  0
 17 19  1  0
 19 20  1  0
 20 21  1  6
 20 22  1  0
 22 23  2  0
 23 24  1  0
 23 25  1  0
 25 26  1  0
 25 27  2  0
 27 28  1  0
 27 29  1  0
 29 30  1  0
 29 31  2  0
 31 32  1  0
 20 33  1  0
 33 34  1  0
 33 35  1  0
 33 36  1  0
 36 37  2  0
 37 38  1  0
 37 39  1  0
 39 40  1  0
 39 41  2  0
 41 42  1  0
 41 43  1  0
 43 44  1  0
 43 45  2  0
 45 46  1  0
  3 47  1  0
 47 48  1  0
 47 49  1  0
 47 50  1  0
 50 51  1  0
 50 52  1  0
 52 53  2  0
 52 54  1  0
 54 55  2  0
 55 56  1  0
 56 57  2  0
 57 58  1  0
 57 59  1  0
 59 60  1  0
 59 61  2  0
 61 62  1  0
 61 63  1  0
 63 64  1  0
 63 65  2  0
 65 66  1  0
 66 67  1  0
 66 68  2  0
 68 69  1  0
 15  4  1  0
 31 22  1  0
 45 36  1  0
 68 54  1  0
 65 56  1  0
M  CHG  2   4   1  19  -1
M  END
>  <UniqueID>  (4) 
1

>  <SMILES>  (4) 
O=C(NC/C(O)=[N+]1\C[C@H](O)C[C@H]1C(=O)[N-][C@@H](Cc1ccc(F)cc1)c1ccccc1)c1ccc2cc(F)ccc2n1

>  <Energy>  (4) 
69.41988689770481

>  <Genealogy>  (4) 
O=C(NCC(=O)[NH+]1C[C@H](O)C[C@H]1C(=O)[N-][C@@H](Cc1ccc(F)cc1)c1ccccc1)c1ccc2cc(F)ccc2n1 (protonated)
O=C(NCC(O)=[N+]1C[C@H](O)C[C@H]1C(=O)[N-][C@@H](Cc1ccc(F)cc1)c1ccccc1)c1ccc2cc(F)ccc2n1 (tautomer)
O=C(NC/C(O)=[N+]1\C[C@H](O)C[C@H]1C(=O)[N-][C@@H](Cc1ccc(F)cc1)c1ccccc1)c1ccc2cc(F)ccc2n1 (cis-trans isomerization)
O=C(NC/C(O)=[N+]1\C[C@H](O)C[C@H]1C(=O)[N-][C@@H](Cc1ccc(F)cc1)c1ccccc1)c1ccc2cc(F)ccc2n1 (3D coordinates assigned)
O=C(NC/C(O)=[N+]1\C[C@H](O)C[C@H]1C(=O)[N-][C@@H](Cc1ccc(F)cc1)c1ccccc1)c1ccc2cc(F)ccc2n1 (nonaromatic ring conformer: 69.41988689770481 kcal/mol)

>  <smiles>  (4) 
O=C(NCC(=O)N1C[C@H](O)C[C@H]1C(=O)N[C@@H](Cc1ccc(F)cc1)c1ccccc1)c1ccc2cc(F)ccc2n1

>  <score_type>  (4) 
oracle

>  <origin>  (4) 
autodockgpu

>  <m_score__min__energy>  (4) 
-9.4900000000000002

>  <m_primary>  (4) 
energy

>  <meeko>  (4) 
{"free_energy": -7.55, "intermolecular_energy": -11.13, "internal_energy": -4.2, "cluster_size": 2, "cluster_id": 4, "rank_in_cluster": 2}

>  <energy>  (4) 
-9.16

>  <cluster_rmsd>  (4) 
0.4

>  <rmsd>  (4) 
271.39

>  <cluster>  (4) 
2

$$$$
XFBXCNWOYUAVIW-REVFFLAHNA-N
     RDKit          3D

 69 73  0  0  0  0  0  0  0  0999 V2000
  139.9040   71.5800  219.6190 H   0  0  0  0  0  0  0  0  0  0  0  0
  140.8010   72.0100  219.4350 O   0  0  0  0  0  0  0  0  0  0  0  0
  141.4430   72.9000  220.3050 C   0  0  0  0  0  0  0  0  0  0  0  0
  142.7120   73.2160  220.1380 N   0  0  0  0  0  0  0  0  0  0  0  0
  143.6580   72.4260  219.3520 C   0  0  0  0  0  0  0  0  0  0  0  0
  143.7649   71.4204  219.7848 H   0  0  0  0  0  0  0  0  0  0  0  0
  143.3107   72.3060  218.3152 H   0  0  0  0  0  0  0  0  0  0  0  0
  144.9910   73.1670  219.4050 C   0  0  2  0  0  0  0  0  0  0  0  0
  145.2196   73.6604  218.4488 H   0  0  0  0  0  0  0  0  0  0  0  0
  146.0430   72.2730  219.6530 O   0  0  0  0  0  0  0  0  0  0  0  0
  145.8540   71.8540  220.5320 H   0  0  0  0  0  0  0  0  0  0  0  0
  144.8580   74.1880  220.5330 C   0  0  0  0  0  0  0  0  0  0  0  0
  145.3298   73.8078  221.4511 H   0  0  0  0  0  0  0  0  0  0  0  0
  145.3556   75.1360  220.2809 H   0  0  0  0  0  0  0  0  0  0  0  0
  143.3580   74.3810  220.7470 C   0  0  1  0  0  0  0  0  0  0  0  0
  143.1175   74.4672  221.8169 H   0  0  0  0  0  0  0  0  0  0  0  0
  142.8790   75.6490  220.0900 C   0  0  0  0  0  0  0  0  0  0  0  0
  143.5670   76.1780  219.1740 O   0  0  0  0  0  0  0  0  0  0  0  0
  141.6360   76.2340  220.4900 N   0  0  0  0  0  0  0  0  0  0  0  0
  141.2870   77.6400  220.2860 C   0  0  2  0  0  0  0  0  0  0  0  0
  141.9019   78.0370  219.4648 H   0  0  0  0  0  0  0  0  0  0  0  0
  141.6000   78.4690  221.5190 C   0  0  0  0  0  0  0  0  0  0  0  0
  141.4310   77.9120  222.7990 C   0  0  0  0  0  0  0  0  0  0  0  0
  141.0394   76.8894  222.9032 H   0  0  0  0  0  0  0  0  0  0  0  0
  141.7580   78.6510  223.9400 C   0  0  0  0  0  0  0  0  0  0  0  0
  141.6132   78.2125  224.9384 H   0  0  0  0  0  0  0  0  0  0  0  0
  142.2690   79.9470  223.8140 C   0  0  0  0  0  0  0  0  0  0  0  0
  142.5283   80.5258  224.7127 H   0  0  0  0  0  0  0  0  0  0  0  0
  142.4500   80.5060  222.5470 C   0  0  0  0  0  0  0  0  0  0  0  0
  142.8556   81.5236  222.4477 H   0  0  0  0  0  0  0  0  0  0  0  0
  142.1160   79.7730  221.4060 C   0  0  0  0  0  0  0  0  0  0  0  0
  142.2576   80.2191  220.4105 H   0  0  0  0  0  0  0  0  0  0  0  0
  139.8030   77.7650  219.8840 C   0  0  0  0  0  0  0  0  0  0  0  0
  139.5910   78.8196  219.6539 H   0  0  0  0  0  0  0  0  0  0  0  0
  139.6446   77.1115  219.0135 H   0  0  0  0  0  0  0  0  0  0  0  0
  138.8510   77.3090  220.9660 C   0  0  0  0  0  0  0  0  0  0  0  0
  138.1830   78.2530  221.7660 C   0  0  0  0  0  0  0  0  0  0  0  0
  138.3841   79.3259  221.6299 H   0  0  0  0  0  0  0  0  0  0  0  0
  137.2650   77.8350  222.7330 C   0  0  0  0  0  0  0  0  0  0  0  0
  136.7487   78.5785  223.3580 H   0  0  0  0  0  0  0  0  0  0  0  0
  137.0020   76.4740  222.9070 C   0  0  0  0  0  0  0  0  0  0  0  0
  136.1080   76.0700  223.8440 F   0  0  0  0  0  0  0  0  0  0  0  0
  137.6620   75.5270  222.1160 C   0  0  0  0  0  0  0  0  0  0  0  0
  137.4521   74.4557  222.2511 H   0  0  0  0  0  0  0  0  0  0  0  0
  138.5890   75.9420  221.1530 C   0  0  0  0  0  0  0  0  0  0  0  0
  139.1143   75.1946  220.5403 H   0  0  0  0  0  0  0  0  0  0  0  0
  140.5960   73.5180  221.4020 C   0  0  0  0  0  0  0  0  0  0  0  0
  139.5755   73.6728  221.0217 H   0  0  0  0  0  0  0  0  0  0  0  0
  141.0534   74.4747  221.6945 H   0  0  0  0  0  0  0  0  0  0  0  0
  140.5380   72.6550  222.5840 N   0  0  0  0  0  0  0  0  0  0  0  0
  141.0260   72.9350  223.4620 H   0  0  0  0  0  0  0  0  0  0  0  0
  139.7950   71.4260  222.5740 C   0  0  0  0  0  0  0  0  0  0  0  0
  139.1440   71.1010  221.5460 O   0  0  0  0  0  0  0  0  0  0  0  0
  139.7860   70.5420  223.7620 C   0  0  0  0  0  0  0  0  0  0  0  0
  140.3800   70.9600  224.9150 N   0  0  0  0  0  0  0  0  0  0  0  0
  140.4120   70.1870  226.0350 C   0  0  0  0  0  0  0  0  0  0  0  0
  141.0410   70.6550  227.1940 C   0  0  0  0  0  0  0  0  0  0  0  0
  141.5073   71.6513  227.2026 H   0  0  0  0  0  0  0  0  0  0  0  0
  141.0770   69.8560  228.3420 C   0  0  0  0  0  0  0  0  0  0  0  0
  141.5691   70.2272  229.2530 H   0  0  0  0  0  0  0  0  0  0  0  0
  140.4880   68.5840  228.3350 C   0  0  0  0  0  0  0  0  0  0  0  0
  140.5290   67.8160  229.4520 F   0  0  0  0  0  0  0  0  0  0  0  0
  139.8600   68.1070  227.1790 C   0  0  0  0  0  0  0  0  0  0  0  0
  139.4006   67.1075  227.1743 H   0  0  0  0  0  0  0  0  0  0  0  0
  139.8170   68.9060  226.0250 C   0  0  0  0  0  0  0  0  0  0  0  0
  139.1980   68.4570  224.8530 C   0  0  0  0  0  0  0  0  0  0  0  0
  138.7257   67.4639  224.8249 H   0  0  0  0  0  0  0  0  0  0  0  0
  139.1810   69.2730  223.7180 C   0  0  0  0  0  0  0  0  0  0  0  0
  138.6964   68.9240  222.7942 H   0  0  0  0  0  0  0  0  0  0  0  0
  1  2  1  0
  2  3  1  0
  3  4  2  0
  4  5  1  0
  5  6  1  0
  5  7  1  0
  5  8  1  0
  8  9  1  6
  8 10  1  0
 10 11  1  0
  8 12  1  0
 12 13  1  0
 12 14  1  0
 12 15  1  0
 15 16  1  1
 15 17  1  0
 17 18  2  0
 17 19  1  0
 19 20  1  0
 20 21  1  6
 20 22  1  0
 22 23  2  0
 23 24  1  0
 23 25  1  0
 25 26  1  0
 25 27  2  0
 27 28  1  0
 27 29  1  0
 29 30  1  0
 29 31  2  0
 31 32  1  0
 20 33  1  0
 33 34  1  0
 33 35  1  0
 33 36  1  0
 36 37  2  0
 37 38  1  0
 37 39  1  0
 39 40  1  0
 39 41  2  0
 41 42  1  0
 41 43  1  0
 43 44  1  0
 43 45  2  0
 45 46  1  0
  3 47  1  0
 47 48  1  0
 47 49  1  0
 47 50  1  0
 50 51  1  0
 50 52  1  0
 52 53  2  0
 52 54  1  0
 54 55  2  0
 55 56  1  0
 56 57  2  0
 57 58  1  0
 57 59  1  0
 59 60  1  0
 59 61  2  0
 61 62  1  0
 61 63  1  0
 63 64  1  0
 63 65  2  0
 65 66  1  0
 66 67  1  0
 66 68  2  0
 68 69  1  0
 15  4  1  0
 31 22  1  0
 45 36  1  0
 68 54  1  0
 65 56  1  0
M  CHG  2   4   1  19  -1
M  END
>  <UniqueID>  (5) 
1

>  <SMILES>  (5) 
O=C(NC/C(O)=[N+]1\C[C@H](O)C[C@H]1C(=O)[N-][C@@H](Cc1ccc(F)cc1)c1ccccc1)c1ccc2cc(F)ccc2n1

>  <Energy>  (5) 
69.41988689770481

>  <Genealogy>  (5) 
O=C(NCC(=O)[NH+]1C[C@H](O)C[C@H]1C(=O)[N-][C@@H](Cc1ccc(F)cc1)c1ccccc1)c1ccc2cc(F)ccc2n1 (protonated)
O=C(NCC(O)=[N+]1C[C@H](O)C[C@H]1C(=O)[N-][C@@H](Cc1ccc(F)cc1)c1ccccc1)c1ccc2cc(F)ccc2n1 (tautomer)
O=C(NC/C(O)=[N+]1\C[C@H](O)C[C@H]1C(=O)[N-][C@@H](Cc1ccc(F)cc1)c1ccccc1)c1ccc2cc(F)ccc2n1 (cis-trans isomerization)
O=C(NC/C(O)=[N+]1\C[C@H](O)C[C@H]1C(=O)[N-][C@@H](Cc1ccc(F)cc1)c1ccccc1)c1ccc2cc(F)ccc2n1 (3D coordinates assigned)
O=C(NC/C(O)=[N+]1\C[C@H](O)C[C@H]1C(=O)[N-][C@@H](Cc1ccc(F)cc1)c1ccccc1)c1ccc2cc(F)ccc2n1 (nonaromatic ring conformer: 69.41988689770481 kcal/mol)

>  <smiles>  (5) 
O=C(NCC(=O)N1C[C@H](O)C[C@H]1C(=O)N[C@@H](Cc1ccc(F)cc1)c1ccccc1)c1ccc2cc(F)ccc2n1

>  <score_type>  (5) 
oracle

>  <origin>  (5) 
autodockgpu

>  <m_score__min__energy>  (5) 
-9.4900000000000002

>  <m_primary>  (5) 
energy

>  <meeko>  (5) 
{"free_energy": -8.47, "intermolecular_energy": -12.05, "internal_energy": -3.6, "cluster_size": 2, "cluster_id": 4, "rank_in_cluster": 1}

>  <energy>  (5) 
-9.01

>  <cluster_rmsd>  (5) 
0.62

>  <rmsd>  (5) 
271.39

>  <cluster>  (5) 
2

$$$$
XFBXCNWOYUAVIW-REVFFLAHNA-N
     RDKit          3D

 69 73  0  0  0  0  0  0  0  0999 V2000
  139.0420   76.1830  219.5880 H   0  0  0  0  0  0  0  0  0  0  0  0
  138.4560   75.3600  219.5530 O   0  0  0  0  0  0  0  0  0  0  0  0
  137.9600   74.6960  220.6820 C   0  0  0  0  0  0  0  0  0  0  0  0
  137.2920   75.3480  221.6140 N   0  0  0  0  0  0  0  0  0  0  0  0
  136.5870   74.7030  222.7200 C   0  0  0  0  0  0  0  0  0  0  0  0
  135.7913   74.0490  222.3337 H   0  0  0  0  0  0  0  0  0  0  0  0
  137.2687   74.0789  223.3165 H   0  0  0  0  0  0  0  0  0  0  0  0
  135.9850   75.8250  223.5630 C   0  0  2  0  0  0  0  0  0  0  0  0
  136.5291   75.9593  224.5095 H   0  0  0  0  0  0  0  0  0  0  0  0
  134.6580   75.5260  223.9050 O   0  0  0  0  0  0  0  0  0  0  0  0
  134.1860   76.3940  223.9840 H   0  0  0  0  0  0  0  0  0  0  0  0
  136.0620   77.0830  222.7020 C   0  0  0  0  0  0  0  0  0  0  0  0
  135.0923   77.2771  222.2203 H   0  0  0  0  0  0  0  0  0  0  0  0
  136.3090   77.9702  223.3036 H   0  0  0  0  0  0  0  0  0  0  0  0
  137.1330   76.8030  221.6480 C   0  0  1  0  0  0  0  0  0  0  0  0
  136.8395   77.2025  220.6660 H   0  0  0  0  0  0  0  0  0  0  0  0
  138.4340   77.4660  222.0150 C   0  0  0  0  0  0  0  0  0  0  0  0
  138.5420   78.0650  223.1200 O   0  0  0  0  0  0  0  0  0  0  0  0
  139.5490   77.3910  221.1200 N   0  0  0  0  0  0  0  0  0  0  0  0
  140.9390   77.2500  221.5520 C   0  0  2  0  0  0  0  0  0  0  0  0
  140.9852   76.4743  222.3306 H   0  0  0  0  0  0  0  0  0  0  0  0
  141.4570   78.5340  222.1740 C   0  0  0  0  0  0  0  0  0  0  0  0
  141.7040   78.5940  223.5560 C   0  0  0  0  0  0  0  0  0  0  0  0
  141.4876   77.7204  224.1884 H   0  0  0  0  0  0  0  0  0  0  0  0
  142.2230   79.7570  224.1320 C   0  0  0  0  0  0  0  0  0  0  0  0
  142.4044   79.7989  225.2161 H   0  0  0  0  0  0  0  0  0  0  0  0
  142.5120   80.8670  223.3330 C   0  0  0  0  0  0  0  0  0  0  0  0
  142.9234   81.7802  223.7878 H   0  0  0  0  0  0  0  0  0  0  0  0
  142.2780   80.8160  221.9560 C   0  0  0  0  0  0  0  0  0  0  0  0
  142.5075   81.6883  221.3263 H   0  0  0  0  0  0  0  0  0  0  0  0
  141.7530   79.6580  221.3800 C   0  0  0  0  0  0  0  0  0  0  0  0
  141.5690   79.6235  220.2961 H   0  0  0  0  0  0  0  0  0  0  0  0
  141.8190   76.8010  220.3670 C   0  0  0  0  0  0  0  0  0  0  0  0
  141.2390   76.9131  219.4391 H   0  0  0  0  0  0  0  0  0  0  0  0
  142.7193   77.4330  220.3716 H   0  0  0  0  0  0  0  0  0  0  0  0
  142.2790   75.3650  220.4750 C   0  0  0  0  0  0  0  0  0  0  0  0
  143.5840   75.0080  220.0890 C   0  0  0  0  0  0  0  0  0  0  0  0
  144.2585   75.7690  219.6697 H   0  0  0  0  0  0  0  0  0  0  0  0
  144.0270   73.6910  220.2360 C   0  0  0  0  0  0  0  0  0  0  0  0
  145.0476   73.4174  219.9302 H   0  0  0  0  0  0  0  0  0  0  0  0
  143.1750   72.7210  220.7710 C   0  0  0  0  0  0  0  0  0  0  0  0
  143.6090   71.4440  220.9160 F   0  0  0  0  0  0  0  0  0  0  0  0
  141.8760   73.0670  221.1570 C   0  0  0  0  0  0  0  0  0  0  0  0
  141.2075   72.3039  221.5821 H   0  0  0  0  0  0  0  0  0  0  0  0
  141.4260   74.3830  221.0030 C   0  0  0  0  0  0  0  0  0  0  0  0
  140.3999   74.6491  221.2968 H   0  0  0  0  0  0  0  0  0  0  0  0
  138.1790   73.1960  220.7480 C   0  0  0  0  0  0  0  0  0  0  0  0
  138.9054   72.9063  219.9744 H   0  0  0  0  0  0  0  0  0  0  0  0
  137.2122   72.6980  220.5828 H   0  0  0  0  0  0  0  0  0  0  0  0
  138.6900   72.7860  222.0590 N   0  0  0  0  0  0  0  0  0  0  0  0
  138.7910   73.4870  222.8240 H   0  0  0  0  0  0  0  0  0  0  0  0
  139.0380   71.4200  222.3290 C   0  0  0  0  0  0  0  0  0  0  0  0
  138.8620   70.5450  221.4390 O   0  0  0  0  0  0  0  0  0  0  0  0
  139.5980   71.0320  223.6430 C   0  0  0  0  0  0  0  0  0  0  0  0
  139.2670   69.8260  224.1850 N   0  0  0  0  0  0  0  0  0  0  0  0
  139.7420   69.4190  225.3940 C   0  0  0  0  0  0  0  0  0  0  0  0
  139.3680   68.1750  225.9140 C   0  0  0  0  0  0  0  0  0  0  0  0
  138.6921   67.5210  225.3435 H   0  0  0  0  0  0  0  0  0  0  0  0
  139.8540   67.7630  227.1600 C   0  0  0  0  0  0  0  0  0  0  0  0
  139.5604   66.7838  227.5661 H   0  0  0  0  0  0  0  0  0  0  0  0
  140.7130   68.5930  227.8920 C   0  0  0  0  0  0  0  0  0  0  0  0
  141.1780   68.1850  229.0990 F   0  0  0  0  0  0  0  0  0  0  0  0
  141.0890   69.8400  227.3810 C   0  0  0  0  0  0  0  0  0  0  0  0
  141.7606   70.4921  227.9587 H   0  0  0  0  0  0  0  0  0  0  0  0
  140.6080   70.2580  226.1300 C   0  0  0  0  0  0  0  0  0  0  0  0
  140.9650   71.5000  225.5920 C   0  0  0  0  0  0  0  0  0  0  0  0
  141.6416   72.1669  226.1465 H   0  0  0  0  0  0  0  0  0  0  0  0
  140.4600   71.8910  224.3490 C   0  0  0  0  0  0  0  0  0  0  0  0
  140.7356   72.8674  223.9239 H   0  0  0  0  0  0  0  0  0  0  0  0
  1  2  1  0
  2  3  1  0
  3  4  2  0
  4  5  1  0
  5  6  1  0
  5  7  1  0
  5  8  1  0
  8  9  1  1
  8 10  1  0
 10 11  1  0
  8 12  1  0
 12 13  1  0
 12 14  1  0
 12 15  1  0
 15 16  1  6
 15 17  1  0
 17 18  2  0
 17 19  1  0
 19 20  1  0
 20 21  1  1
 20 22  1  0
 22 23  2  0
 23 24  1  0
 23 25  1  0
 25 26  1  0
 25 27  2  0
 27 28  1  0
 27 29  1  0
 29 30  1  0
 29 31  2  0
 31 32  1  0
 20 33  1  0
 33 34  1  0
 33 35  1  0
 33 36  1  0
 36 37  2  0
 37 38  1  0
 37 39  1  0
 39 40  1  0
 39 41  2  0
 41 42  1  0
 41 43  1  0
 43 44  1  0
 43 45  2  0
 45 46  1  0
  3 47  1  0
 47 48  1  0
 47 49  1  0
 47 50  1  0
 50 51  1  0
 50 52  1  0
 52 53  2  0
 52 54  1  0
 54 55  2  0
 55 56  1  0
 56 57  2  0
 57 58  1  0
 57 59  1  0
 59 60  1  0
 59 61  2  0
 61 62  1  0
 61 63  1  0
 63 64  1  0
 63 65  2  0
 65 66  1  0
 66 67  1  0
 66 68  2  0
 68 69  1  0
 15  4  1  0
 31 22  1  0
 45 36  1  0
 68 54  1  0
 65 56  1  0
M  CHG  2   4   1  19  -1
M  END
>  <UniqueID>  (6) 
1

>  <SMILES>  (6) 
O=C(NC/C(O)=[N+]1\C[C@H](O)C[C@H]1C(=O)[N-][C@@H](Cc1ccc(F)cc1)c1ccccc1)c1ccc2cc(F)ccc2n1

>  <Energy>  (6) 
69.41988689770481

>  <Genealogy>  (6) 
O=C(NCC(=O)[NH+]1C[C@H](O)C[C@H]1C(=O)[N-][C@@H](Cc1ccc(F)cc1)c1ccccc1)c1ccc2cc(F)ccc2n1 (protonated)
O=C(NCC(O)=[N+]1C[C@H](O)C[C@H]1C(=O)[N-][C@@H](Cc1ccc(F)cc1)c1ccccc1)c1ccc2cc(F)ccc2n1 (tautomer)
O=C(NC/C(O)=[N+]1\C[C@H](O)C[C@H]1C(=O)[N-][C@@H](Cc1ccc(F)cc1)c1ccccc1)c1ccc2cc(F)ccc2n1 (cis-trans isomerization)
O=C(NC/C(O)=[N+]1\C[C@H](O)C[C@H]1C(=O)[N-][C@@H](Cc1ccc(F)cc1)c1ccccc1)c1ccc2cc(F)ccc2n1 (3D coordinates assigned)
O=C(NC/C(O)=[N+]1\C[C@H](O)C[C@H]1C(=O)[N-][C@@H](Cc1ccc(F)cc1)c1ccccc1)c1ccc2cc(F)ccc2n1 (nonaromatic ring conformer: 69.41988689770481 kcal/mol)

>  <smiles>  (6) 
O=C(NCC(=O)N1C[C@H](O)C[C@H]1C(=O)N[C@@H](Cc1ccc(F)cc1)c1ccccc1)c1ccc2cc(F)ccc2n1

>  <score_type>  (6) 
oracle

>  <origin>  (6) 
autodockgpu

>  <m_score__min__energy>  (6) 
-9.4900000000000002

>  <m_primary>  (6) 
energy

>  <meeko>  (6) 
{"free_energy": -8.52, "intermolecular_energy": -12.1, "internal_energy": -3.54, "cluster_size": 5, "cluster_id": 2, "rank_in_cluster": 4}

>  <energy>  (6) 
-8.52

>  <cluster_rmsd>  (6) 
1.09

>  <rmsd>  (6) 
271.42

>  <cluster>  (6) 
2

$$$$
XFBXCNWOYUAVIW-REVFFLAHNA-N
     RDKit          3D

 69 73  0  0  0  0  0  0  0  0999 V2000
  138.8520   76.5640  222.7920 H   0  0  0  0  0  0  0  0  0  0  0  0
  139.2920   75.6580  222.7100 O   0  0  0  0  0  0  0  0  0  0  0  0
  140.0080   75.2270  221.5870 C   0  0  0  0  0  0  0  0  0  0  0  0
  140.7680   76.0600  220.9040 N   0  0  0  0  0  0  0  0  0  0  0  0
  141.6270   75.6640  219.7910 C   0  0  0  0  0  0  0  0  0  0  0  0
  142.3873   74.9471  220.1345 H   0  0  0  0  0  0  0  0  0  0  0  0
  141.0458   75.1760  218.9947 H   0  0  0  0  0  0  0  0  0  0  0  0
  142.2960   76.9390  219.2830 C   0  0  2  0  0  0  0  0  0  0  0  0
  141.8726   77.2645  218.3214 H   0  0  0  0  0  0  0  0  0  0  0  0
  143.6640   76.7240  219.0630 O   0  0  0  0  0  0  0  0  0  0  0  0
  144.1470   77.2900  219.7180 H   0  0  0  0  0  0  0  0  0  0  0  0
  142.0710   77.9900  220.3670 C   0  0  0  0  0  0  0  0  0  0  0  0
  142.9652   78.0838  221.0007 H   0  0  0  0  0  0  0  0  0  0  0  0
  141.8746   78.9819  219.9339 H   0  0  0  0  0  0  0  0  0  0  0  0
  140.8840   77.4920  221.1920 C   0  0  1  0  0  0  0  0  0  0  0  0
  141.0377   77.6796  222.2649 H   0  0  0  0  0  0  0  0  0  0  0  0
  139.6200   78.2110  220.8030 C   0  0  0  0  0  0  0  0  0  0  0  0
  139.4040   78.4850  219.5910 O   0  0  0  0  0  0  0  0  0  0  0  0
  138.6580   78.5550  221.8050 N   0  0  0  0  0  0  0  0  0  0  0  0
  138.7020   79.7850  222.5960 C   0  0  2  0  0  0  0  0  0  0  0  0
  138.3414   80.6155  221.9714 H   0  0  0  0  0  0  0  0  0  0  0  0
  140.1230   80.1240  223.0090 C   0  0  0  0  0  0  0  0  0  0  0  0
  140.6740   81.3710  222.6660 C   0  0  0  0  0  0  0  0  0  0  0  0
  140.0859   82.0831  222.0685 H   0  0  0  0  0  0  0  0  0  0  0  0
  141.9650   81.7110  223.0800 C   0  0  0  0  0  0  0  0  0  0  0  0
  142.3924   82.6851  222.8000 H   0  0  0  0  0  0  0  0  0  0  0  0
  142.7140   80.8160  223.8490 C   0  0  0  0  0  0  0  0  0  0  0  0
  143.7288   81.0871  224.1756 H   0  0  0  0  0  0  0  0  0  0  0  0
  142.1740   79.5770  224.2030 C   0  0  0  0  0  0  0  0  0  0  0  0
  142.7624   78.8740  224.8109 H   0  0  0  0  0  0  0  0  0  0  0  0
  140.8870   79.2310  223.7850 C   0  0  0  0  0  0  0  0  0  0  0  0
  140.4669   78.2534  224.0641 H   0  0  0  0  0  0  0  0  0  0  0  0
  137.7720   79.6600  223.8210 C   0  0  0  0  0  0  0  0  0  0  0  0
  136.8823   79.0838  223.5271 H   0  0  0  0  0  0  0  0  0  0  0  0
  138.3443   79.1597  224.6161 H   0  0  0  0  0  0  0  0  0  0  0  0
  137.3210   80.9960  224.3650 C   0  0  0  0  0  0  0  0  0  0  0  0
  137.2780   81.2180  225.7540 C   0  0  0  0  0  0  0  0  0  0  0  0
  137.5361   80.4035  226.4468 H   0  0  0  0  0  0  0  0  0  0  0  0
  136.9090   82.4680  226.2570 C   0  0  0  0  0  0  0  0  0  0  0  0
  136.8734   82.6340  227.3438 H   0  0  0  0  0  0  0  0  0  0  0  0
  136.5850   83.5080  225.3810 C   0  0  0  0  0  0  0  0  0  0  0  0
  136.2300   84.7220  225.8730 F   0  0  0  0  0  0  0  0  0  0  0  0
  136.6240   83.2960  224.0000 C   0  0  0  0  0  0  0  0  0  0  0  0
  136.3712   84.1157  223.3113 H   0  0  0  0  0  0  0  0  0  0  0  0
  136.9840   82.0430  223.4920 C   0  0  0  0  0  0  0  0  0  0  0  0
  137.0031   81.8774  222.4047 H   0  0  0  0  0  0  0  0  0  0  0  0
  139.9100   73.7530  221.2340 C   0  0  0  0  0  0  0  0  0  0  0  0
  140.8160   73.4552  220.6858 H   0  0  0  0  0  0  0  0  0  0  0  0
  139.0128   73.6040  220.6152 H   0  0  0  0  0  0  0  0  0  0  0  0
  139.7850   72.9230  222.4350 N   0  0  0  0  0  0  0  0  0  0  0  0
  139.5280   73.3570  223.3470 H   0  0  0  0  0  0  0  0  0  0  0  0
  139.9860   71.5030  222.3820 C   0  0  0  0  0  0  0  0  0  0  0  0
  140.2320   70.9490  221.2770 O   0  0  0  0  0  0  0  0  0  0  0  0
  139.9030   70.6850  223.6130 C   0  0  0  0  0  0  0  0  0  0  0  0
  140.4530   71.1520  224.7690 N   0  0  0  0  0  0  0  0  0  0  0  0
  140.4170   70.4410  225.9290 C   0  0  0  0  0  0  0  0  0  0  0  0
  141.0040   70.9590  227.0900 C   0  0  0  0  0  0  0  0  0  0  0  0
  141.4922   71.9445  227.0674 H   0  0  0  0  0  0  0  0  0  0  0  0
  140.9690   70.2220  228.2790 C   0  0  0  0  0  0  0  0  0  0  0  0
  141.4271   70.6321  229.1911 H   0  0  0  0  0  0  0  0  0  0  0  0
  140.3530   68.9640  228.3130 C   0  0  0  0  0  0  0  0  0  0  0  0
  140.3260   68.2570  229.4700 F   0  0  0  0  0  0  0  0  0  0  0  0
  139.7670   68.4380  227.1560 C   0  0  0  0  0  0  0  0  0  0  0  0
  139.2851   67.4495  227.1832 H   0  0  0  0  0  0  0  0  0  0  0  0
  139.7950   69.1740  225.9600 C   0  0  0  0  0  0  0  0  0  0  0  0
  139.2190   68.6730  224.7860 C   0  0  0  0  0  0  0  0  0  0  0  0
  138.7258   67.6897  224.7891 H   0  0  0  0  0  0  0  0  0  0  0  0
  139.2730   69.4270  223.6100 C   0  0  0  0  0  0  0  0  0  0  0  0
  138.8239   69.0376  222.6844 H   0  0  0  0  0  0  0  0  0  0  0  0
  1  2  1  0
  2  3  1  0
  3  4  2  0
  4  5  1  0
  5  6  1  0
  5  7  1  0
  5  8  1  0
  8  9  1  6
  8 10  1  0
 10 11  1  0
  8 12  1  0
 12 13  1  0
 12 14  1  0
 12 15  1  0
 15 16  1  1
 15 17  1  0
 17 18  2  0
 17 19  1  0
 19 20  1  0
 20 21  1  6
 20 22  1  0
 22 23  2  0
 23 24  1  0
 23 25  1  0
 25 26  1  0
 25 27  2  0
 27 28  1  0
 27 29  1  0
 29 30  1  0
 29 31  2  0
 31 32  1  0
 20 33  1  0
 33 34  1  0
 33 35  1  0
 33 36  1  0
 36 37  2  0
 37 38  1  0
 37 39  1  0
 39 40  1  0
 39 41  2  0
 41 42  1  0
 41 43  1  0
 43 44  1  0
 43 45  2  0
 45 46  1  0
  3 47  1  0
 47 48  1  0
 47 49  1  0
 47 50  1  0
 50 51  1  0
 50 52  1  0
 52 53  2  0
 52 54  1  0
 54 55  2  0
 55 56  1  0
 56 57  2  0
 57 58  1  0
 57 59  1  0
 59 60  1  0
 59 61  2  0
 61 62  1  0
 61 63  1  0
 63 64  1  0
 63 65  2  0
 65 66  1  0
 66 67  1  0
 66 68  2  0
 68 69  1  0
 15  4  1  0
 31 22  1  0
 45 36  1  0
 68 54  1  0
 65 56  1  0
M  CHG  2   4   1  19  -1
M  END
>  <UniqueID>  (7) 
1

>  <SMILES>  (7) 
O=C(NC/C(O)=[N+]1\C[C@H](O)C[C@H]1C(=O)[N-][C@@H](Cc1ccc(F)cc1)c1ccccc1)c1ccc2cc(F)ccc2n1

>  <Energy>  (7) 
69.41988689770481

>  <Genealogy>  (7) 
O=C(NCC(=O)[NH+]1C[C@H](O)C[C@H]1C(=O)[N-][C@@H](Cc1ccc(F)cc1)c1ccccc1)c1ccc2cc(F)ccc2n1 (protonated)
O=C(NCC(O)=[N+]1C[C@H](O)C[C@H]1C(=O)[N-][C@@H](Cc1ccc(F)cc1)c1ccccc1)c1ccc2cc(F)ccc2n1 (tautomer)
O=C(NC/C(O)=[N+]1\C[C@H](O)C[C@H]1C(=O)[N-][C@@H](Cc1ccc(F)cc1)c1ccccc1)c1ccc2cc(F)ccc2n1 (cis-trans isomerization)
O=C(NC/C(O)=[N+]1\C[C@H](O)C[C@H]1C(=O)[N-][C@@H](Cc1ccc(F)cc1)c1ccccc1)c1ccc2cc(F)ccc2n1 (3D coordinates assigned)
O=C(NC/C(O)=[N+]1\C[C@H](O)C[C@H]1C(=O)[N-][C@@H](Cc1ccc(F)cc1)c1ccccc1)c1ccc2cc(F)ccc2n1 (nonaromatic ring conformer: 69.41988689770481 kcal/mol)

>  <smiles>  (7) 
O=C(NCC(=O)N1C[C@H](O)C[C@H]1C(=O)N[C@@H](Cc1ccc(F)cc1)c1ccccc1)c1ccc2cc(F)ccc2n1

>  <score_type>  (7) 
oracle

>  <origin>  (7) 
autodockgpu

>  <m_score__min__energy>  (7) 
-9.4900000000000002

>  <m_primary>  (7) 
energy

>  <meeko>  (7) 
{"free_energy": -9.36, "intermolecular_energy": -12.94, "internal_energy": -3.48, "cluster_size": 2, "cluster_id": 1, "rank_in_cluster": 2}

>  <energy>  (7) 
-8.44

>  <cluster_rmsd>  (7) 
1.8

>  <rmsd>  (7) 
271.11

>  <cluster>  (7) 
2

$$$$
XFBXCNWOYUAVIW-REVFFLAHNA-N
     RDKit          3D

 69 73  0  0  0  0  0  0  0  0999 V2000
  141.8950   76.4710  222.9410 H   0  0  0  0  0  0  0  0  0  0  0  0
  141.0150   76.1140  222.5940 O   0  0  0  0  0  0  0  0  0  0  0  0
  140.8570   75.4640  221.3640 C   0  0  0  0  0  0  0  0  0  0  0  0
  141.7860   75.5380  220.4320 N   0  0  0  0  0  0  0  0  0  0  0  0
  142.2670   74.3940  219.6600 C   0  0  0  0  0  0  0  0  0  0  0  0
  142.7229   73.6490  220.3287 H   0  0  0  0  0  0  0  0  0  0  0  0
  141.4422   73.8998  219.1257 H   0  0  0  0  0  0  0  0  0  0  0  0
  143.3100   74.9360  218.6850 C   0  0  2  0  0  0  0  0  0  0  0  0
  142.9262   74.9654  217.6545 H   0  0  0  0  0  0  0  0  0  0  0  0
  144.4420   74.1100  218.6650 O   0  0  0  0  0  0  0  0  0  0  0  0
  145.1590   74.6250  218.2130 H   0  0  0  0  0  0  0  0  0  0  0  0
  143.6600   76.3370  219.1830 C   0  0  0  0  0  0  0  0  0  0  0  0
  144.5936   76.3146  219.7643 H   0  0  0  0  0  0  0  0  0  0  0  0
  143.8144   77.0362  218.3480 H   0  0  0  0  0  0  0  0  0  0  0  0
  142.4920   76.7690  220.0690 C   0  0  1  0  0  0  0  0  0  0  0  0
  142.8470   77.3117  220.9575 H   0  0  0  0  0  0  0  0  0  0  0  0
  141.5710   77.7030  219.3280 C   0  0  0  0  0  0  0  0  0  0  0  0
  140.5180   77.2540  218.7990 O   0  0  0  0  0  0  0  0  0  0  0  0
  141.8820   79.0980  219.2510 N   0  0  0  0  0  0  0  0  0  0  0  0
  141.1780   80.1380  220.0000 C   0  0  2  0  0  0  0  0  0  0  0  0
  141.3634   81.1062  219.5119 H   0  0  0  0  0  0  0  0  0  0  0  0
  141.7050   80.2470  221.4200 C   0  0  0  0  0  0  0  0  0  0  0  0
  141.7580   81.5010  222.0530 C   0  0  0  0  0  0  0  0  0  0  0  0
  141.4511   82.4041  221.5051 H   0  0  0  0  0  0  0  0  0  0  0  0
  142.1990   81.6060  223.3760 C   0  0  0  0  0  0  0  0  0  0  0  0
  142.2462   82.5916  223.8622 H   0  0  0  0  0  0  0  0  0  0  0  0
  142.5800   80.4610  224.0820 C   0  0  0  0  0  0  0  0  0  0  0  0
  142.9239   80.5460  225.1234 H   0  0  0  0  0  0  0  0  0  0  0  0
  142.5240   79.2090  223.4650 C   0  0  0  0  0  0  0  0  0  0  0  0
  142.8207   78.3077  224.0214 H   0  0  0  0  0  0  0  0  0  0  0  0
  142.0910   79.1020  222.1410 C   0  0  0  0  0  0  0  0  0  0  0  0
  142.0515   78.1144  221.6582 H   0  0  0  0  0  0  0  0  0  0  0  0
  139.6590   79.8680  219.9810 C   0  0  0  0  0  0  0  0  0  0  0  0
  139.1902   80.5586  219.2646 H   0  0  0  0  0  0  0  0  0  0  0  0
  139.5179   78.8156  219.6937 H   0  0  0  0  0  0  0  0  0  0  0  0
  139.0030   80.0570  221.3300 C   0  0  0  0  0  0  0  0  0  0  0  0
  138.8590   78.9660  222.2060 C   0  0  0  0  0  0  0  0  0  0  0  0
  139.1895   77.9648  221.8923 H   0  0  0  0  0  0  0  0  0  0  0  0
  138.2980   79.1480  223.4730 C   0  0  0  0  0  0  0  0  0  0  0  0
  138.1847   78.2904  224.1525 H   0  0  0  0  0  0  0  0  0  0  0  0
  137.8810   80.4190  223.8770 C   0  0  0  0  0  0  0  0  0  0  0  0
  137.3390   80.5950  225.1090 F   0  0  0  0  0  0  0  0  0  0  0  0
  138.0190   81.5090  223.0120 C   0  0  0  0  0  0  0  0  0  0  0  0
  137.6931   82.5094  223.3328 H   0  0  0  0  0  0  0  0  0  0  0  0
  138.5710   81.3290  221.7390 C   0  0  0  0  0  0  0  0  0  0  0  0
  138.6668   82.1864  221.0566 H   0  0  0  0  0  0  0  0  0  0  0  0
  139.6000   74.6310  221.1840 C   0  0  0  0  0  0  0  0  0  0  0  0
  139.6612   74.0934  220.2263 H   0  0  0  0  0  0  0  0  0  0  0  0
  138.7323   75.3070  221.1981 H   0  0  0  0  0  0  0  0  0  0  0  0
  139.4430   73.6580  222.2670 N   0  0  0  0  0  0  0  0  0  0  0  0
  138.6760   73.7700  222.9650 H   0  0  0  0  0  0  0  0  0  0  0  0
  140.3140   72.5230  222.3810 C   0  0  0  0  0  0  0  0  0  0  0  0
  141.2050   72.3330  221.5110 O   0  0  0  0  0  0  0  0  0  0  0  0
  140.1710   71.5750  223.5090 C   0  0  0  0  0  0  0  0  0  0  0  0
  140.6660   71.9080  224.7340 N   0  0  0  0  0  0  0  0  0  0  0  0
  140.5740   71.0730  225.8050 C   0  0  0  0  0  0  0  0  0  0  0  0
  141.1060   71.4560  227.0430 C   0  0  0  0  0  0  0  0  0  0  0  0
  141.5965   72.4345  227.1524 H   0  0  0  0  0  0  0  0  0  0  0  0
  141.0130   70.5930  228.1400 C   0  0  0  0  0  0  0  0  0  0  0  0
  141.4274   70.8972  229.1125 H   0  0  0  0  0  0  0  0  0  0  0  0
  140.3950   69.3440  228.0060 C   0  0  0  0  0  0  0  0  0  0  0  0
  140.3110   68.5130  229.0750 F   0  0  0  0  0  0  0  0  0  0  0  0
  139.8640   68.9520  226.7710 C   0  0  0  0  0  0  0  0  0  0  0  0
  139.3810   67.9693  226.6660 H   0  0  0  0  0  0  0  0  0  0  0  0
  139.9490   69.8150  225.6670 C   0  0  0  0  0  0  0  0  0  0  0  0
  139.4300   69.4510  224.4190 C   0  0  0  0  0  0  0  0  0  0  0  0
  138.9367   68.4763  224.2901 H   0  0  0  0  0  0  0  0  0  0  0  0
  139.5400   70.3290  223.3370 C   0  0  0  0  0  0  0  0  0  0  0  0
  139.1346   70.0469  222.3541 H   0  0  0  0  0  0  0  0  0  0  0  0
  1  2  1  0
  2  3  1  0
  3  4  2  0
  4  5  1  0
  5  6  1  0
  5  7  1  0
  5  8  1  0
  8  9  1  6
  8 10  1  0
 10 11  1  0
  8 12  1  0
 12 13  1  0
 12 14  1  0
 12 15  1  0
 15 16  1  1
 15 17  1  0
 17 18  2  0
 17 19  1  0
 19 20  1  0
 20 21  1  6
 20 22  1  0
 22 23  2  0
 23 24  1  0
 23 25  1  0
 25 26  1  0
 25 27  2  0
 27 28  1  0
 27 29  1  0
 29 30  1  0
 29 31  2  0
 31 32  1  0
 20 33  1  0
 33 34  1  0
 33 35  1  0
 33 36  1  0
 36 37  2  0
 37 38  1  0
 37 39  1  0
 39 40  1  0
 39 41  2  0
 41 42  1  0
 41 43  1  0
 43 44  1  0
 43 45  2  0
 45 46  1  0
  3 47  1  0
 47 48  1  0
 47 49  1  0
 47 50  1  0
 50 51  1  0
 50 52  1  0
 52 53  2  0
 52 54  1  0
 54 55  2  0
 55 56  1  0
 56 57  2  0
 57 58  1  0
 57 59  1  0
 59 60  1  0
 59 61  2  0
 61 62  1  0
 61 63  1  0
 63 64  1  0
 63 65  2  0
 65 66  1  0
 66 67  1  0
 66 68  2  0
 68 69  1  0
 15  4  1  0
 31 22  1  0
 45 36  1  0
 68 54  1  0
 65 56  1  0
M  CHG  2   4   1  19  -1
M  END
>  <UniqueID>  (8) 
1

>  <SMILES>  (8) 
O=C(NC/C(O)=[N+]1\C[C@H](O)C[C@H]1C(=O)[N-][C@@H](Cc1ccc(F)cc1)c1ccccc1)c1ccc2cc(F)ccc2n1

>  <Energy>  (8) 
69.41988689770481

>  <Genealogy>  (8) 
O=C(NCC(=O)[NH+]1C[C@H](O)C[C@H]1C(=O)[N-][C@@H](Cc1ccc(F)cc1)c1ccccc1)c1ccc2cc(F)ccc2n1 (protonated)
O=C(NCC(O)=[N+]1C[C@H](O)C[C@H]1C(=O)[N-][C@@H](Cc1ccc(F)cc1)c1ccccc1)c1ccc2cc(F)ccc2n1 (tautomer)
O=C(NC/C(O)=[N+]1\C[C@H](O)C[C@H]1C(=O)[N-][C@@H](Cc1ccc(F)cc1)c1ccccc1)c1ccc2cc(F)ccc2n1 (cis-trans isomerization)
O=C(NC/C(O)=[N+]1\C[C@H](O)C[C@H]1C(=O)[N-][C@@H](Cc1ccc(F)cc1)c1ccccc1)c1ccc2cc(F)ccc2n1 (3D coordinates assigned)
O=C(NC/C(O)=[N+]1\C[C@H](O)C[C@H]1C(=O)[N-][C@@H](Cc1ccc(F)cc1)c1ccccc1)c1ccc2cc(F)ccc2n1 (nonaromatic ring conformer: 69.41988689770481 kcal/mol)

>  <smiles>  (8) 
O=C(NCC(=O)N1C[C@H](O)C[C@H]1C(=O)N[C@@H](Cc1ccc(F)cc1)c1ccccc1)c1ccc2cc(F)ccc2n1

>  <score_type>  (8) 
oracle

>  <origin>  (8) 
autodockgpu

>  <m_score__min__energy>  (8) 
-9.4900000000000002

>  <m_primary>  (8) 
energy

>  <meeko>  (8) 
{"free_energy": -9.49, "intermolecular_energy": -13.07, "internal_energy": -2.89, "cluster_size": 2, "cluster_id": 1, "rank_in_cluster": 1}

>  <energy>  (8) 
-8.56

>  <cluster_rmsd>  (8) 
0.0

>  <rmsd>  (8) 
271.2

>  <cluster>  (8) 
3

$$$$
XFBXCNWOYUAVIW-REVFFLAHNA-N
     RDKit          3D

 69 73  0  0  0  0  0  0  0  0999 V2000
  136.4620   74.4850  218.7270 H   0  0  0  0  0  0  0  0  0  0  0  0
  136.1680   74.0980  219.6130 O   0  0  0  0  0  0  0  0  0  0  0  0
  136.9910   73.9980  220.7420 C   0  0  0  0  0  0  0  0  0  0  0  0
  136.7260   74.6820  221.8380 N   0  0  0  0  0  0  0  0  0  0  0  0
  135.9420   74.1650  222.9580 C   0  0  0  0  0  0  0  0  0  0  0  0
  134.9205   73.9250  222.6280 H   0  0  0  0  0  0  0  0  0  0  0  0
  136.3856   73.2430  223.3618 H   0  0  0  0  0  0  0  0  0  0  0  0
  135.9100   75.2690  224.0110 C   0  0  2  0  0  0  0  0  0  0  0  0
  136.5559   75.0302  224.8688 H   0  0  0  0  0  0  0  0  0  0  0  0
  134.6130   75.4270  224.5210 O   0  0  0  0  0  0  0  0  0  0  0  0
  134.0380   74.7860  224.0300 H   0  0  0  0  0  0  0  0  0  0  0  0
  136.3820   76.5370  223.3040 C   0  0  0  0  0  0  0  0  0  0  0  0
  135.5205   77.1535  223.0077 H   0  0  0  0  0  0  0  0  0  0  0  0
  137.0128   77.1549  223.9600 H   0  0  0  0  0  0  0  0  0  0  0  0
  137.1490   76.0650  222.0680 C   0  0  1  0  0  0  0  0  0  0  0  0
  136.9370   76.7053  221.1991 H   0  0  0  0  0  0  0  0  0  0  0  0
  138.6350   76.1280  222.3010 C   0  0  0  0  0  0  0  0  0  0  0  0
  139.2500   75.1020  222.6990 O   0  0  0  0  0  0  0  0  0  0  0  0
  139.3460   77.3440  222.0440 N   0  0  0  0  0  0  0  0  0  0  0  0
  140.8020   77.4670  222.0890 C   0  0  2  0  0  0  0  0  0  0  0  0
  141.2019   76.6559  222.7152 H   0  0  0  0  0  0  0  0  0  0  0  0
  141.2250   78.7760  222.7320 C   0  0  0  0  0  0  0  0  0  0  0  0
  142.5770   79.1600  222.7150 C   0  0  0  0  0  0  0  0  0  0  0  0
  143.3291   78.4944  222.2664 H   0  0  0  0  0  0  0  0  0  0  0  0
  142.9710   80.3830  223.2650 C   0  0  0  0  0  0  0  0  0  0  0  0
  144.0324   80.6716  223.2579 H   0  0  0  0  0  0  0  0  0  0  0  0
  142.0190   81.2400  223.8240 C   0  0  0  0  0  0  0  0  0  0  0  0
  142.3311   82.2039  224.2524 H   0  0  0  0  0  0  0  0  0  0  0  0
  140.6710   80.8730  223.8390 C   0  0  0  0  0  0  0  0  0  0  0  0
  139.9215   81.5483  224.2773 H   0  0  0  0  0  0  0  0  0  0  0  0
  140.2760   79.6480  223.2970 C   0  0  0  0  0  0  0  0  0  0  0  0
  139.2139   79.3623  223.3119 H   0  0  0  0  0  0  0  0  0  0  0  0
  141.3900   77.3200  220.6690 C   0  0  0  0  0  0  0  0  0  0  0  0
  140.5667   77.3800  219.9419 H   0  0  0  0  0  0  0  0  0  0  0  0
  142.1217   78.1300  220.5331 H   0  0  0  0  0  0  0  0  0  0  0  0
  142.1220   76.0140  220.4590 C   0  0  0  0  0  0  0  0  0  0  0  0
  143.3670   75.9970  219.8050 C   0  0  0  0  0  0  0  0  0  0  0  0
  143.7909   76.9320  219.4099 H   0  0  0  0  0  0  0  0  0  0  0  0
  144.0680   74.7970  219.6550 C   0  0  0  0  0  0  0  0  0  0  0  0
  145.0397   74.7893  219.1395 H   0  0  0  0  0  0  0  0  0  0  0  0
  143.5360   73.6070  220.1590 C   0  0  0  0  0  0  0  0  0  0  0  0
  144.2200   72.4450  220.0150 F   0  0  0  0  0  0  0  0  0  0  0  0
  142.2980   73.6150  220.8100 C   0  0  0  0  0  0  0  0  0  0  0  0
  141.8814   72.6785  221.2093 H   0  0  0  0  0  0  0  0  0  0  0  0
  141.5890   74.8120  220.9540 C   0  0  0  0  0  0  0  0  0  0  0  0
  140.6106   74.8123  221.4566 H   0  0  0  0  0  0  0  0  0  0  0  0
  138.1570   73.0300  220.6590 C   0  0  0  0  0  0  0  0  0  0  0  0
  138.9787   73.5068  220.1045 H   0  0  0  0  0  0  0  0  0  0  0  0
  137.8144   72.1199  220.1449 H   0  0  0  0  0  0  0  0  0  0  0  0
  138.6370   72.6530  221.9910 N   0  0  0  0  0  0  0  0  0  0  0  0
  138.6300   73.3500  222.7660 H   0  0  0  0  0  0  0  0  0  0  0  0
  139.0990   71.3230  222.2680 C   0  0  0  0  0  0  0  0  0  0  0  0
  139.0540   70.4470  221.3630 O   0  0  0  0  0  0  0  0  0  0  0  0
  139.6250   70.9720  223.6060 C   0  0  0  0  0  0  0  0  0  0  0  0
  139.3510   69.7470  224.1370 N   0  0  0  0  0  0  0  0  0  0  0  0
  139.7980   69.3730  225.3660 C   0  0  0  0  0  0  0  0  0  0  0  0
  139.4840   68.1070  225.8740 C   0  0  0  0  0  0  0  0  0  0  0  0
  138.8772   67.4104  225.2769 H   0  0  0  0  0  0  0  0  0  0  0  0
  139.9410   67.7270  227.1400 C   0  0  0  0  0  0  0  0  0  0  0  0
  139.6958   66.7300  227.5348 H   0  0  0  0  0  0  0  0  0  0  0  0
  140.7100   68.6120  227.9070 C   0  0  0  0  0  0  0  0  0  0  0  0
  141.1490   68.2360  229.1350 F   0  0  0  0  0  0  0  0  0  0  0  0
  141.0270   69.8810  227.4090 C   0  0  0  0  0  0  0  0  0  0  0  0
  141.6300   70.5749  228.0130 H   0  0  0  0  0  0  0  0  0  0  0  0
  140.5740   70.2670  226.1370 C   0  0  0  0  0  0  0  0  0  0  0  0
  140.8720   71.5300  225.6120 C   0  0  0  0  0  0  0  0  0  0  0  0
  141.4775   72.2404  226.1941 H   0  0  0  0  0  0  0  0  0  0  0  0
  140.3980   71.8860  224.3460 C   0  0  0  0  0  0  0  0  0  0  0  0
  140.6285   72.8776  223.9294 H   0  0  0  0  0  0  0  0  0  0  0  0
  1  2  1  0
  2  3  1  0
  3  4  2  0
  4  5  1  0
  5  6  1  0
  5  7  1  0
  5  8  1  0
  8  9  1  1
  8 10  1  0
 10 11  1  0
  8 12  1  0
 12 13  1  0
 12 14  1  0
 12 15  1  0
 15 16  1  6
 15 17  1  0
 17 18  2  0
 17 19  1  0
 19 20  1  0
 20 21  1  1
 20 22  1  0
 22 23  2  0
 23 24  1  0
 23 25  1  0
 25 26  1  0
 25 27  2  0
 27 28  1  0
 27 29  1  0
 29 30  1  0
 29 31  2  0
 31 32  1  0
 20 33  1  0
 33 34  1  0
 33 35  1  0
 33 36  1  0
 36 37  2  0
 37 38  1  0
 37 39  1  0
 39 40  1  0
 39 41  2  0
 41 42  1  0
 41 43  1  0
 43 44  1  0
 43 45  2  0
 45 46  1  0
  3 47  1  0
 47 48  1  0
 47 49  1  0
 47 50  1  0
 50 51  1  0
 50 52  1  0
 52 53  2  0
 52 54  1  0
 54 55  2  0
 55 56  1  0
 56 57  2  0
 57 58  1  0
 57 59  1  0
 59 60  1  0
 59 61  2  0
 61 62  1  0
 61 63  1  0
 63 64  1  0
 63 65  2  0
 65 66  1  0
 66 67  1  0
 66 68  2  0
 68 69  1  0
 15  4  1  0
 31 22  1  0
 45 36  1  0
 68 54  1  0
 65 56  1  0
M  CHG  2   4   1  19  -1
M  END
>  <UniqueID>  (9) 
1

>  <SMILES>  (9) 
O=C(NC/C(O)=[N+]1\C[C@H](O)C[C@H]1C(=O)[N-][C@@H](Cc1ccc(F)cc1)c1ccccc1)c1ccc2cc(F)ccc2n1

>  <Energy>  (9) 
69.41988689770481

>  <Genealogy>  (9) 
O=C(NCC(=O)[NH+]1C[C@H](O)C[C@H]1C(=O)[N-][C@@H](Cc1ccc(F)cc1)c1ccccc1)c1ccc2cc(F)ccc2n1 (protonated)
O=C(NCC(O)=[N+]1C[C@H](O)C[C@H]1C(=O)[N-][C@@H](Cc1ccc(F)cc1)c1ccccc1)c1ccc2cc(F)ccc2n1 (tautomer)
O=C(NC/C(O)=[N+]1\C[C@H](O)C[C@H]1C(=O)[N-][C@@H](Cc1ccc(F)cc1)c1ccccc1)c1ccc2cc(F)ccc2n1 (cis-trans isomerization)
O=C(NC/C(O)=[N+]1\C[C@H](O)C[C@H]1C(=O)[N-][C@@H](Cc1ccc(F)cc1)c1ccccc1)c1ccc2cc(F)ccc2n1 (3D coordinates assigned)
O=C(NC/C(O)=[N+]1\C[C@H](O)C[C@H]1C(=O)[N-][C@@H](Cc1ccc(F)cc1)c1ccccc1)c1ccc2cc(F)ccc2n1 (nonaromatic ring conformer: 69.41988689770481 kcal/mol)

>  <smiles>  (9) 
O=C(NCC(=O)N1C[C@H](O)C[C@H]1C(=O)N[C@@H](Cc1ccc(F)cc1)c1ccccc1)c1ccc2cc(F)ccc2n1

>  <score_type>  (9) 
oracle

>  <origin>  (9) 
autodockgpu

>  <m_score__min__energy>  (9) 
-9.4900000000000002

>  <m_primary>  (9) 
energy

>  <meeko>  (9) 
{"free_energy": -9.16, "intermolecular_energy": -12.74, "internal_energy": -3.27, "cluster_size": 5, "cluster_id": 2, "rank_in_cluster": 1}

>  <energy>  (9) 
-8.47

>  <cluster_rmsd>  (9) 
0.0

>  <rmsd>  (9) 
271.59

>  <cluster>  (9) 
4

$$$$
XFBXCNWOYUAVIW-REVFFLAHNA-N
     RDKit          3D

 69 73  0  0  0  0  0  0  0  0999 V2000
  142.2020   76.2810  221.3760 H   0  0  0  0  0  0  0  0  0  0  0  0
  141.5730   76.0170  220.6300 O   0  0  0  0  0  0  0  0  0  0  0  0
  140.2450   75.6190  220.8210 C   0  0  0  0  0  0  0  0  0  0  0  0
  139.7780   74.5200  220.2620 N   0  0  0  0  0  0  0  0  0  0  0  0
  140.0080   74.1470  218.8680 C   0  0  0  0  0  0  0  0  0  0  0  0
  139.5764   74.9035  218.1962 H   0  0  0  0  0  0  0  0  0  0  0  0
  141.0834   74.0810  218.6465 H   0  0  0  0  0  0  0  0  0  0  0  0
  139.3180   72.8010  218.6590 C   0  0  2  0  0  0  0  0  0  0  0  0
  140.0448   71.9786  218.5851 H   0  0  0  0  0  0  0  0  0  0  0  0
  138.5930   72.8000  217.4590 O   0  0  0  0  0  0  0  0  0  0  0  0
  139.2600   72.8650  216.7280 H   0  0  0  0  0  0  0  0  0  0  0  0
  138.3950   72.6130  219.8610 C   0  0  0  0  0  0  0  0  0  0  0  0
  137.3631   72.8886  219.5979 H   0  0  0  0  0  0  0  0  0  0  0  0
  138.3761   71.5654  220.1960 H   0  0  0  0  0  0  0  0  0  0  0  0
  138.9320   73.5410  220.9500 C   0  0  1  0  0  0  0  0  0  0  0  0
  138.1118   74.0264  221.4992 H   0  0  0  0  0  0  0  0  0  0  0  0
  139.7380   72.7710  221.9630 C   0  0  0  0  0  0  0  0  0  0  0  0
  140.5390   73.3830  222.7210 O   0  0  0  0  0  0  0  0  0  0  0  0
  139.5730   71.3540  222.0770 N   0  0  0  0  0  0  0  0  0  0  0  0
  139.3330   70.6560  223.3390 C   0  0  2  0  0  0  0  0  0  0  0  0
  139.8924   69.7090  223.3253 H   0  0  0  0  0  0  0  0  0  0  0  0
  137.8660   70.3040  223.5040 C   0  0  0  0  0  0  0  0  0  0  0  0
  137.0340   70.2210  222.3730 C   0  0  0  0  0  0  0  0  0  0  0  0
  137.4417   70.4462  221.3765 H   0  0  0  0  0  0  0  0  0  0  0  0
  135.6920   69.8540  222.5080 C   0  0  0  0  0  0  0  0  0  0  0  0
  135.0453   69.8011  221.6197 H   0  0  0  0  0  0  0  0  0  0  0  0
  135.1700   69.5540  223.7700 C   0  0  0  0  0  0  0  0  0  0  0  0
  134.1145   69.2621  223.8733 H   0  0  0  0  0  0  0  0  0  0  0  0
  135.9890   69.6250  224.9000 C   0  0  0  0  0  0  0  0  0  0  0  0
  135.5789   69.3865  225.8925 H   0  0  0  0  0  0  0  0  0  0  0  0
  137.3290   69.9990  224.7690 C   0  0  0  0  0  0  0  0  0  0  0  0
  137.9694   70.0555  225.6616 H   0  0  0  0  0  0  0  0  0  0  0  0
  139.8460   71.5050  224.5210 C   0  0  0  0  0  0  0  0  0  0  0  0
  140.7008   72.1047  224.1751 H   0  0  0  0  0  0  0  0  0  0  0  0
  139.0086   72.1334  224.8586 H   0  0  0  0  0  0  0  0  0  0  0  0
  140.2890   70.6760  225.7040 C   0  0  0  0  0  0  0  0  0  0  0  0
  140.6140   71.2970  226.9240 C   0  0  0  0  0  0  0  0  0  0  0  0
  140.5837   72.3936  227.0050 H   0  0  0  0  0  0  0  0  0  0  0  0
  140.9750   70.5280  228.0330 C   0  0  0  0  0  0  0  0  0  0  0  0
  141.2320   71.0200  228.9827 H   0  0  0  0  0  0  0  0  0  0  0  0
  141.0100   69.1340  227.9370 C   0  0  0  0  0  0  0  0  0  0  0  0
  141.3580   68.3890  229.0160 F   0  0  0  0  0  0  0  0  0  0  0  0
  140.6900   68.5080  226.7280 C   0  0  0  0  0  0  0  0  0  0  0  0
  140.7160   67.4108  226.6539 H   0  0  0  0  0  0  0  0  0  0  0  0
  140.3370   69.2750  225.6130 C   0  0  0  0  0  0  0  0  0  0  0  0
  140.0960   68.7793  224.6611 H   0  0  0  0  0  0  0  0  0  0  0  0
  139.3960   76.4780  221.7420 C   0  0  0  0  0  0  0  0  0  0  0  0
  138.7924   77.1671  221.1330 H   0  0  0  0  0  0  0  0  0  0  0  0
  140.0674   77.0349  222.4121 H   0  0  0  0  0  0  0  0  0  0  0  0
  138.5010   75.6590  222.5630 N   0  0  0  0  0  0  0  0  0  0  0  0
  138.8710   74.8290  223.0730 H   0  0  0  0  0  0  0  0  0  0  0  0
  137.1110   75.9890  222.7060 C   0  0  0  0  0  0  0  0  0  0  0  0
  136.6580   77.0250  222.1520 O   0  0  0  0  0  0  0  0  0  0  0  0
  136.2100   75.1240  223.5010 C   0  0  0  0  0  0  0  0  0  0  0  0
  135.4190   75.6800  224.4620 N   0  0  0  0  0  0  0  0  0  0  0  0
  134.5800   74.9340  225.2300 C   0  0  0  0  0  0  0  0  0  0  0  0
  133.7930   75.5490  226.2110 C   0  0  0  0  0  0  0  0  0  0  0  0
  133.8496   76.6375  226.3594 H   0  0  0  0  0  0  0  0  0  0  0  0
  132.9340   74.7780  227.0030 C   0  0  0  0  0  0  0  0  0  0  0  0
  132.3140   75.2632  227.7712 H   0  0  0  0  0  0  0  0  0  0  0  0
  132.8610   73.3910  226.8210 C   0  0  0  0  0  0  0  0  0  0  0  0
  132.0260   72.6520  227.5940 F   0  0  0  0  0  0  0  0  0  0  0  0
  133.6460   72.7680  225.8450 C   0  0  0  0  0  0  0  0  0  0  0  0
  133.5890   71.6784  225.7051 H   0  0  0  0  0  0  0  0  0  0  0  0
  134.5070   73.5360  225.0440 C   0  0  0  0  0  0  0  0  0  0  0  0
  135.3070   72.9430  224.0610 C   0  0  0  0  0  0  0  0  0  0  0  0
  135.2640   71.8561  223.8976 H   0  0  0  0  0  0  0  0  0  0  0  0
  136.1610   73.7340  223.2870 C   0  0  0  0  0  0  0  0  0  0  0  0
  136.7922   73.2718  222.5137 H   0  0  0  0  0  0  0  0  0  0  0  0
  1  2  1  0
  2  3  1  0
  3  4  2  0
  4  5  1  0
  5  6  1  0
  5  7  1  0
  5  8  1  0
  8  9  1  6
  8 10  1  0
 10 11  1  0
  8 12  1  0
 12 13  1  0
 12 14  1  0
 12 15  1  0
 15 16  1  1
 15 17  1  0
 17 18  2  0
 17 19  1  0
 19 20  1  0
 20 21  1  6
 20 22  1  0
 22 23  2  0
 23 24  1  0
 23 25  1  0
 25 26  1  0
 25 27  2  0
 27 28  1  0
 27 29  1  0
 29 30  1  0
 29 31  2  0
 31 32  1  0
 20 33  1  0
 33 34  1  0
 33 35  1  0
 33 36  1  0
 36 37  2  0
 37 38  1  0
 37 39  1  0
 39 40  1  0
 39 41  2  0
 41 42  1  0
 41 43  1  0
 43 44  1  0
 43 45  2  0
 45 46  1  0
  3 47  1  0
 47 48  1  0
 47 49  1  0
 47 50  1  0
 50 51  1  0
 50 52  1  0
 52 53  2  0
 52 54  1  0
 54 55  2  0
 55 56  1  0
 56 57  2  0
 57 58  1  0
 57 59  1  0
 59 60  1  0
 59 61  2  0
 61 62  1  0
 61 63  1  0
 63 64  1  0
 63 65  2  0
 65 66  1  0
 66 67  1  0
 66 68  2  0
 68 69  1  0
 15  4  1  0
 31 22  1  0
 45 36  1  0
 68 54  1  0
 65 56  1  0
M  CHG  2   4   1  19  -1
M  END
>  <UniqueID>  (10) 
1

>  <SMILES>  (10) 
O=C(NC/C(O)=[N+]1\C[C@H](O)C[C@H]1C(=O)[N-][C@@H](Cc1ccc(F)cc1)c1ccccc1)c1ccc2cc(F)ccc2n1

>  <Energy>  (10) 
69.41988689770481

>  <Genealogy>  (10) 
O=C(NCC(=O)[NH+]1C[C@H](O)C[C@H]1C(=O)[N-][C@@H](Cc1ccc(F)cc1)c1ccccc1)c1ccc2cc(F)ccc2n1 (protonated)
O=C(NCC(O)=[N+]1C[C@H](O)C[C@H]1C(=O)[N-][C@@H](Cc1ccc(F)cc1)c1ccccc1)c1ccc2cc(F)ccc2n1 (tautomer)
O=C(NC/C(O)=[N+]1\C[C@H](O)C[C@H]1C(=O)[N-][C@@H](Cc1ccc(F)cc1)c1ccccc1)c1ccc2cc(F)ccc2n1 (cis-trans isomerization)
O=C(NC/C(O)=[N+]1\C[C@H](O)C[C@H]1C(=O)[N-][C@@H](Cc1ccc(F)cc1)c1ccccc1)c1ccc2cc(F)ccc2n1 (3D coordinates assigned)
O=C(NC/C(O)=[N+]1\C[C@H](O)C[C@H]1C(=O)[N-][C@@H](Cc1ccc(F)cc1)c1ccccc1)c1ccc2cc(F)ccc2n1 (nonaromatic ring conformer: 69.41988689770481 kcal/mol)

>  <smiles>  (10) 
O=C(NCC(=O)N1C[C@H](O)C[C@H]1C(=O)N[C@@H](Cc1ccc(F)cc1)c1ccccc1)c1ccc2cc(F)ccc2n1

>  <score_type>  (10) 
oracle

>  <origin>  (10) 
autodockgpu

>  <m_score__min__energy>  (10) 
-9.4900000000000002

>  <m_primary>  (10) 
energy

>  <meeko>  (10) 
{"free_energy": -7.44, "intermolecular_energy": -11.02, "internal_energy": -3.73, "cluster_size": 1, "cluster_id": 8, "rank_in_cluster": 1}

>  <energy>  (10) 
-7.55

>  <cluster_rmsd>  (10) 
1.96

>  <rmsd>  (10) 
271.17

>  <cluster>  (10) 
4

$$$$
XFBXCNWOYUAVIW-REVFFLAHNA-N
     RDKit          3D

 69 73  0  0  0  0  0  0  0  0999 V2000
  142.7800   72.3060  219.7700 H   0  0  0  0  0  0  0  0  0  0  0  0
  142.6580   73.2760  219.5110 O   0  0  0  0  0  0  0  0  0  0  0  0
  141.4670   73.9930  219.6760 C   0  0  0  0  0  0  0  0  0  0  0  0
  141.4800   75.2990  219.8540 N   0  0  0  0  0  0  0  0  0  0  0  0
  141.6200   76.2730  218.7730 C   0  0  0  0  0  0  0  0  0  0  0  0
  142.5851   76.1380  218.2627 H   0  0  0  0  0  0  0  0  0  0  0  0
  140.8266   76.1492  218.0212 H   0  0  0  0  0  0  0  0  0  0  0  0
  141.5550   77.6530  219.4210 C   0  0  2  0  0  0  0  0  0  0  0  0
  140.5978   78.1540  219.2140 H   0  0  0  0  0  0  0  0  0  0  0  0
  142.5600   78.4870  218.9080 O   0  0  0  0  0  0  0  0  0  0  0  0
  143.4110   78.1850  219.3170 H   0  0  0  0  0  0  0  0  0  0  0  0
  141.7420   77.4220  220.9180 C   0  0  0  0  0  0  0  0  0  0  0  0
  142.7839   77.6216  221.2089 H   0  0  0  0  0  0  0  0  0  0  0  0
  141.1046   78.0924  221.5132 H   0  0  0  0  0  0  0  0  0  0  0  0
  141.3940   75.9540  221.1610 C   0  0  1  0  0  0  0  0  0  0  0  0
  142.0799   75.4985  221.8904 H   0  0  0  0  0  0  0  0  0  0  0  0
  140.0040   75.8170  221.7260 C   0  0  0  0  0  0  0  0  0  0  0  0
  139.6840   74.7700  222.3520 O   0  0  0  0  0  0  0  0  0  0  0  0
  139.0640   76.8850  221.5720 N   0  0  0  0  0  0  0  0  0  0  0  0
  138.5670   77.7050  222.6760 C   0  0  2  0  0  0  0  0  0  0  0  0
  139.1248   77.4406  223.5865 H   0  0  0  0  0  0  0  0  0  0  0  0
  137.1010   77.4240  222.9550 C   0  0  0  0  0  0  0  0  0  0  0  0
  136.6650   76.1010  223.1420 C   0  0  0  0  0  0  0  0  0  0  0  0
  137.3809   75.2708  223.0511 H   0  0  0  0  0  0  0  0  0  0  0  0
  135.3260   75.8350  223.4430 C   0  0  0  0  0  0  0  0  0  0  0  0
  134.9898   74.7963  223.5779 H   0  0  0  0  0  0  0  0  0  0  0  0
  134.4130   76.8860  223.5730 C   0  0  0  0  0  0  0  0  0  0  0  0
  133.3606   76.6742  223.8130 H   0  0  0  0  0  0  0  0  0  0  0  0
  134.8380   78.2050  223.3980 C   0  0  0  0  0  0  0  0  0  0  0  0
  134.1207   79.0323  223.5036 H   0  0  0  0  0  0  0  0  0  0  0  0
  136.1730   78.4740  223.0890 C   0  0  0  0  0  0  0  0  0  0  0  0
  136.5020   79.5143  222.9493 H   0  0  0  0  0  0  0  0  0  0  0  0
  138.8080   79.2000  222.3750 C   0  0  0  0  0  0  0  0  0  0  0  0
  138.6612   79.3677  221.2978 H   0  0  0  0  0  0  0  0  0  0  0  0
  138.0948   79.7749  222.9839 H   0  0  0  0  0  0  0  0  0  0  0  0
  140.1960   79.6670  222.7490 C   0  0  0  0  0  0  0  0  0  0  0  0
  140.8930   79.0460  223.8010 C   0  0  0  0  0  0  0  0  0  0  0  0
  140.4105   78.2439  224.3788 H   0  0  0  0  0  0  0  0  0  0  0  0
  142.1960   79.4430  224.1160 C   0  0  0  0  0  0  0  0  0  0  0  0
  142.7346   78.9563  224.9424 H   0  0  0  0  0  0  0  0  0  0  0  0
  142.8140   80.4580  223.3810 C   0  0  0  0  0  0  0  0  0  0  0  0
  144.0800   80.8400  223.6860 F   0  0  0  0  0  0  0  0  0  0  0  0
  142.1290   81.0820  222.3340 C   0  0  0  0  0  0  0  0  0  0  0  0
  142.6182   81.8792  221.7550 H   0  0  0  0  0  0  0  0  0  0  0  0
  140.8210   80.6930  222.0220 C   0  0  0  0  0  0  0  0  0  0  0  0
  140.2808   81.1928  221.2044 H   0  0  0  0  0  0  0  0  0  0  0  0
  140.1730   73.2050  219.5840 C   0  0  0  0  0  0  0  0  0  0  0  0
  140.3033   72.3867  218.8605 H   0  0  0  0  0  0  0  0  0  0  0  0
  139.3742   73.8889  219.2613 H   0  0  0  0  0  0  0  0  0  0  0  0
  139.7970   72.6380  220.8820 N   0  0  0  0  0  0  0  0  0  0  0  0
  138.9390   72.9730  221.3700 H   0  0  0  0  0  0  0  0  0  0  0  0
  140.5770   71.6010  221.4960 C   0  0  0  0  0  0  0  0  0  0  0  0
  141.5800   71.1360  220.8920 O   0  0  0  0  0  0  0  0  0  0  0  0
  140.2100   71.0730  222.8290 C   0  0  0  0  0  0  0  0  0  0  0  0
  140.7190   71.6620  223.9480 N   0  0  0  0  0  0  0  0  0  0  0  0
  140.4260   71.2140  225.2000 C   0  0  0  0  0  0  0  0  0  0  0  0
  140.9800   71.8450  226.3200 C   0  0  0  0  0  0  0  0  0  0  0  0
  141.6505   72.7073  226.1901 H   0  0  0  0  0  0  0  0  0  0  0  0
  140.6810   71.3790  227.6040 C   0  0  0  0  0  0  0  0  0  0  0  0
  141.1151   71.8783  228.4827 H   0  0  0  0  0  0  0  0  0  0  0  0
  139.8310   70.2790  227.7760 C   0  0  0  0  0  0  0  0  0  0  0  0
  139.5470   69.8330  229.0250 F   0  0  0  0  0  0  0  0  0  0  0  0
  139.2750   69.6400  226.6620 C   0  0  0  0  0  0  0  0  0  0  0  0
  138.6090   68.7752  226.7983 H   0  0  0  0  0  0  0  0  0  0  0  0
  139.5690   70.1050  225.3690 C   0  0  0  0  0  0  0  0  0  0  0  0
  139.0300   69.4860  224.2350 C   0  0  0  0  0  0  0  0  0  0  0  0
  138.3568   68.6230  224.3448 H   0  0  0  0  0  0  0  0  0  0  0  0
  139.3500   69.9680  222.9630 C   0  0  0  0  0  0  0  0  0  0  0  0
  138.9303   69.4844  222.0686 H   0  0  0  0  0  0  0  0  0  0  0  0
  1  2  1  0
  2  3  1  0
  3  4  2  0
  4  5  1  0
  5  6  1  0
  5  7  1  0
  5  8  1  0
  8  9  1  1
  8 10  1  0
 10 11  1  0
  8 12  1  0
 12 13  1  0
 12 14  1  0
 12 15  1  0
 15 16  1  1
 15 17  1  0
 17 18  2  0
 17 19  1  0
 19 20  1  0
 20 21  1  1
 20 22  1  0
 22 23  2  0
 23 24  1  0
 23 25  1  0
 25 26  1  0
 25 27  2  0
 27 28  1  0
 27 29  1  0
 29 30  1  0
 29 31  2  0
 31 32  1  0
 20 33  1  0
 33 34  1  0
 33 35  1  0
 33 36  1  0
 36 37  2  0
 37 38  1  0
 37 39  1  0
 39 40  1  0
 39 41  2  0
 41 42  1  0
 41 43  1  0
 43 44  1  0
 43 45  2  0
 45 46  1  0
  3 47  1  0
 47 48  1  0
 47 49  1  0
 47 50  1  0
 50 51  1  0
 50 52  1  0
 52 53  2  0
 52 54  1  0
 54 55  2  0
 55 56  1  0
 56 57  2  0
 57 58  1  0
 57 59  1  0
 59 60  1  0
 59 61  2  0
 61 62  1  0
 61 63  1  0
 63 64  1  0
 63 65  2  0
 65 66  1  0
 66 67  1  0
 66 68  2  0
 68 69  1  0
 15  4  1  0
 31 22  1  0
 45 36  1  0
 68 54  1  0
 65 56  1  0
M  CHG  2   4   1  19  -1
M  END
>  <UniqueID>  (11) 
1

>  <SMILES>  (11) 
O=C(NC/C(O)=[N+]1\C[C@H](O)C[C@H]1C(=O)[N-][C@@H](Cc1ccc(F)cc1)c1ccccc1)c1ccc2cc(F)ccc2n1

>  <Energy>  (11) 
69.41988689770481

>  <Genealogy>  (11) 
O=C(NCC(=O)[NH+]1C[C@H](O)C[C@H]1C(=O)[N-][C@@H](Cc1ccc(F)cc1)c1ccccc1)c1ccc2cc(F)ccc2n1 (protonated)
O=C(NCC(O)=[N+]1C[C@H](O)C[C@H]1C(=O)[N-][C@@H](Cc1ccc(F)cc1)c1ccccc1)c1ccc2cc(F)ccc2n1 (tautomer)
O=C(NC/C(O)=[N+]1\C[C@H](O)C[C@H]1C(=O)[N-][C@@H](Cc1ccc(F)cc1)c1ccccc1)c1ccc2cc(F)ccc2n1 (cis-trans isomerization)
O=C(NC/C(O)=[N+]1\C[C@H](O)C[C@H]1C(=O)[N-][C@@H](Cc1ccc(F)cc1)c1ccccc1)c1ccc2cc(F)ccc2n1 (3D coordinates assigned)
O=C(NC/C(O)=[N+]1\C[C@H](O)C[C@H]1C(=O)[N-][C@@H](Cc1ccc(F)cc1)c1ccccc1)c1ccc2cc(F)ccc2n1 (nonaromatic ring conformer: 69.41988689770481 kcal/mol)

>  <smiles>  (11) 
O=C(NCC(=O)N1C[C@H](O)C[C@H]1C(=O)N[C@@H](Cc1ccc(F)cc1)c1ccccc1)c1ccc2cc(F)ccc2n1

>  <score_type>  (11) 
oracle

>  <origin>  (11) 
autodockgpu

>  <m_score__min__energy>  (11) 
-9.4900000000000002

>  <m_primary>  (11) 
energy

>  <meeko>  (11) 
{"free_energy": -7.86, "intermolecular_energy": -11.44, "internal_energy": -4.09, "cluster_size": 1, "cluster_id": 7, "rank_in_cluster": 1}

>  <energy>  (11) 
-8.44

>  <cluster_rmsd>  (11) 
0.0

>  <rmsd>  (11) 
271.59

>  <cluster>  (11) 
5

$$$$
XFBXCNWOYUAVIW-REVFFLAHNA-N
     RDKit          3D

 69 73  0  0  0  0  0  0  0  0999 V2000
  139.5940   74.4160  222.9770 H   0  0  0  0  0  0  0  0  0  0  0  0
  140.3140   74.1990  222.3010 O   0  0  0  0  0  0  0  0  0  0  0  0
  140.4310   74.8140  221.0490 C   0  0  0  0  0  0  0  0  0  0  0  0
  141.6030   74.9300  220.4570 N   0  0  0  0  0  0  0  0  0  0  0  0
  142.4080   73.7990  219.9990 C   0  0  0  0  0  0  0  0  0  0  0  0
  142.6842   73.1598  220.8506 H   0  0  0  0  0  0  0  0  0  0  0  0
  141.8490   73.1771  219.2843 H   0  0  0  0  0  0  0  0  0  0  0  0
  143.6600   74.3890  219.3550 C   0  0  2  0  0  0  0  0  0  0  0  0
  143.6320   74.3022  218.2588 H   0  0  0  0  0  0  0  0  0  0  0  0
  144.8040   73.7000  219.7790 O   0  0  0  0  0  0  0  0  0  0  0  0
  145.5790   74.1560  219.3590 H   0  0  0  0  0  0  0  0  0  0  0  0
  143.7050   75.8520  219.7900 C   0  0  0  0  0  0  0  0  0  0  0  0
  144.3966   75.9787  220.6359 H   0  0  0  0  0  0  0  0  0  0  0  0
  144.0612   76.5041  218.9789 H   0  0  0  0  0  0  0  0  0  0  0  0
  142.2790   76.2070  220.2110 C   0  0  1  0  0  0  0  0  0  0  0  0
  142.2767   76.8479  221.1050 H   0  0  0  0  0  0  0  0  0  0  0  0
  141.5720   76.9740  219.1250 C   0  0  0  0  0  0  0  0  0  0  0  0
  141.5620   76.5250  217.9460 O   0  0  0  0  0  0  0  0  0  0  0  0
  140.8950   78.1950  219.4400 N   0  0  0  0  0  0  0  0  0  0  0  0
  141.5680   79.4740  219.6610 C   0  0  2  0  0  0  0  0  0  0  0  0
  142.5762   79.4187  219.2247 H   0  0  0  0  0  0  0  0  0  0  0  0
  141.7400   79.7570  221.1420 C   0  0  0  0  0  0  0  0  0  0  0  0
  141.7380   81.0840  221.6060 C   0  0  0  0  0  0  0  0  0  0  0  0
  141.6470   81.9138  220.8896 H   0  0  0  0  0  0  0  0  0  0  0  0
  141.8510   81.3550  222.9730 C   0  0  0  0  0  0  0  0  0  0  0  0
  141.8589   82.3963  223.3275 H   0  0  0  0  0  0  0  0  0  0  0  0
  141.9540   80.3050  223.8900 C   0  0  0  0  0  0  0  0  0  0  0  0
  142.0398   80.5204  224.9653 H   0  0  0  0  0  0  0  0  0  0  0  0
  141.9480   78.9820  223.4410 C   0  0  0  0  0  0  0  0  0  0  0  0
  142.0251   78.1556  224.1629 H   0  0  0  0  0  0  0  0  0  0  0  0
  141.8440   78.7090  222.0750 C   0  0  0  0  0  0  0  0  0  0  0  0
  141.8434   77.6659  221.7258 H   0  0  0  0  0  0  0  0  0  0  0  0
  140.7960   80.6080  218.9540 C   0  0  0  0  0  0  0  0  0  0  0  0
  140.1698   80.1656  218.1652 H   0  0  0  0  0  0  0  0  0  0  0  0
  140.1955   81.1211  219.7195 H   0  0  0  0  0  0  0  0  0  0  0  0
  141.7010   81.6430  218.3250 C   0  0  0  0  0  0  0  0  0  0  0  0
  141.3490   83.0040  218.3560 C   0  0  0  0  0  0  0  0  0  0  0  0
  140.3933   83.3120  218.8053 H   0  0  0  0  0  0  0  0  0  0  0  0
  142.2070   83.9670  217.8190 C   0  0  0  0  0  0  0  0  0  0  0  0
  141.9241   85.0297  217.8431 H   0  0  0  0  0  0  0  0  0  0  0  0
  143.4250   83.5810  217.2510 C   0  0  0  0  0  0  0  0  0  0  0  0
  144.2580   84.5180  216.7340 F   0  0  0  0  0  0  0  0  0  0  0  0
  143.7830   82.2300  217.2160 C   0  0  0  0  0  0  0  0  0  0  0  0
  144.7433   81.9275  216.7730 H   0  0  0  0  0  0  0  0  0  0  0  0
  142.9210   81.2620  217.7440 C   0  0  0  0  0  0  0  0  0  0  0  0
  143.2004   80.1988  217.7036 H   0  0  0  0  0  0  0  0  0  0  0  0
  139.1460   75.2820  220.3900 C   0  0  0  0  0  0  0  0  0  0  0  0
  138.3035   74.7051  220.7991 H   0  0  0  0  0  0  0  0  0  0  0  0
  139.2368   75.1252  219.3050 H   0  0  0  0  0  0  0  0  0  0  0  0
  138.9090   76.7070  220.6310 N   0  0  0  0  0  0  0  0  0  0  0  0
  138.8770   77.3750  219.8310 H   0  0  0  0  0  0  0  0  0  0  0  0
  138.6910   77.2130  221.9560 C   0  0  0  0  0  0  0  0  0  0  0  0
  138.6600   76.4140  222.9300 O   0  0  0  0  0  0  0  0  0  0  0  0
  138.5010   78.6630  222.1870 C   0  0  0  0  0  0  0  0  0  0  0  0
  138.3330   79.4960  221.1220 N   0  0  0  0  0  0  0  0  0  0  0  0
  138.1640   80.8390  221.2710 C   0  0  0  0  0  0  0  0  0  0  0  0
  138.0040   81.6570  220.1470 C   0  0  0  0  0  0  0  0  0  0  0  0
  138.0103   81.2149  219.1398 H   0  0  0  0  0  0  0  0  0  0  0  0
  137.8360   83.0370  220.3040 C   0  0  0  0  0  0  0  0  0  0  0  0
  137.7066   83.6775  219.4191 H   0  0  0  0  0  0  0  0  0  0  0  0
  137.8320   83.6060  221.5840 C   0  0  0  0  0  0  0  0  0  0  0  0
  137.6690   84.9450  221.7270 F   0  0  0  0  0  0  0  0  0  0  0  0
  137.9950   82.7960  222.7140 C   0  0  0  0  0  0  0  0  0  0  0  0
  137.9938   83.2446  223.7184 H   0  0  0  0  0  0  0  0  0  0  0  0
  138.1600   81.4100  222.5630 C   0  0  0  0  0  0  0  0  0  0  0  0
  138.3270   80.5730  223.6730 C   0  0  0  0  0  0  0  0  0  0  0  0
  138.3229   80.9964  224.6883 H   0  0  0  0  0  0  0  0  0  0  0  0
  138.4990   79.1980  223.4880 C   0  0  0  0  0  0  0  0  0  0  0  0
  138.6323   78.5367  224.3569 H   0  0  0  0  0  0  0  0  0  0  0  0
  1  2  1  0
  2  3  1  0
  3  4  2  0
  4  5  1  0
  5  6  1  0
  5  7  1  0
  5  8  1  0
  8  9  1  6
  8 10  1  0
 10 11  1  0
  8 12  1  0
 12 13  1  0
 12 14  1  0
 12 15  1  0
 15 16  1  1
 15 17  1  0
 17 18  2  0
 17 19  1  0
 19 20  1  0
 20 21  1  6
 20 22  1  0
 22 23  2  0
 23 24  1  0
 23 25  1  0
 25 26  1  0
 25 27  2  0
 27 28  1  0
 27 29  1  0
 29 30  1  0
 29 31  2  0
 31 32  1  0
 20 33  1  0
 33 34  1  0
 33 35  1  0
 33 36  1  0
 36 37  2  0
 37 38  1  0
 37 39  1  0
 39 40  1  0
 39 41  2  0
 41 42  1  0
 41 43  1  0
 43 44  1  0
 43 45  2  0
 45 46  1  0
  3 47  1  0
 47 48  1  0
 47 49  1  0
 47 50  1  0
 50 51  1  0
 50 52  1  0
 52 53  2  0
 52 54  1  0
 54 55  2  0
 55 56  1  0
 56 57  2  0
 57 58  1  0
 57 59  1  0
 59 60  1  0
 59 61  2  0
 61 62  1  0
 61 63  1  0
 63 64  1  0
 63 65  2  0
 65 66  1  0
 66 67  1  0
 66 68  2  0
 68 69  1  0
 15  4  1  0
 31 22  1  0
 45 36  1  0
 68 54  1  0
 65 56  1  0
M  CHG  2   4   1  19  -1
M  END
>  <UniqueID>  (12) 
1

>  <SMILES>  (12) 
O=C(NC/C(O)=[N+]1\C[C@H](O)C[C@H]1C(=O)[N-][C@@H](Cc1ccc(F)cc1)c1ccccc1)c1ccc2cc(F)ccc2n1

>  <Energy>  (12) 
69.41988689770481

>  <Genealogy>  (12) 
O=C(NCC(=O)[NH+]1C[C@H](O)C[C@H]1C(=O)[N-][C@@H](Cc1ccc(F)cc1)c1ccccc1)c1ccc2cc(F)ccc2n1 (protonated)
O=C(NCC(O)=[N+]1C[C@H](O)C[C@H]1C(=O)[N-][C@@H](Cc1ccc(F)cc1)c1ccccc1)c1ccc2cc(F)ccc2n1 (tautomer)
O=C(NC/C(O)=[N+]1\C[C@H](O)C[C@H]1C(=O)[N-][C@@H](Cc1ccc(F)cc1)c1ccccc1)c1ccc2cc(F)ccc2n1 (cis-trans isomerization)
O=C(NC/C(O)=[N+]1\C[C@H](O)C[C@H]1C(=O)[N-][C@@H](Cc1ccc(F)cc1)c1ccccc1)c1ccc2cc(F)ccc2n1 (3D coordinates assigned)
O=C(NC/C(O)=[N+]1\C[C@H](O)C[C@H]1C(=O)[N-][C@@H](Cc1ccc(F)cc1)c1ccccc1)c1ccc2cc(F)ccc2n1 (nonaromatic ring conformer: 69.41988689770481 kcal/mol)

>  <smiles>  (12) 
O=C(NCC(=O)N1C[C@H](O)C[C@H]1C(=O)N[C@@H](Cc1ccc(F)cc1)c1ccccc1)c1ccc2cc(F)ccc2n1

>  <score_type>  (12) 
oracle

>  <origin>  (12) 
autodockgpu

>  <m_score__min__energy>  (12) 
-9.4900000000000002

>  <m_primary>  (12) 
energy

>  <meeko>  (12) 
{"free_energy": -6.3, "intermolecular_energy": -9.88, "internal_energy": -6.11, "cluster_size": 2, "cluster_id": 10, "rank_in_cluster": 1}

>  <energy>  (12) 
-7.88

>  <cluster_rmsd>  (12) 
0.0

>  <rmsd>  (12) 
271.74

>  <cluster>  (12) 
6

$$$$
XFBXCNWOYUAVIW-REVFFLAHNA-N
     RDKit          3D

 69 73  0  0  0  0  0  0  0  0999 V2000
  144.4780   77.1320  220.7000 H   0  0  0  0  0  0  0  0  0  0  0  0
  144.1330   76.4220  220.0690 O   0  0  0  0  0  0  0  0  0  0  0  0
  142.8760   76.4580  219.4510 C   0  0  0  0  0  0  0  0  0  0  0  0
  142.7020   77.0800  218.3030 N   0  0  0  0  0  0  0  0  0  0  0  0
  142.9170   76.4650  216.9950 C   0  0  0  0  0  0  0  0  0  0  0  0
  143.9671   76.1552  216.8890 H   0  0  0  0  0  0  0  0  0  0  0  0
  142.2917   75.5687  216.8699 H   0  0  0  0  0  0  0  0  0  0  0  0
  142.5730   77.5270  215.9530 C   0  0  2  0  0  0  0  0  0  0  0  0
  141.6159   77.3130  215.4547 H   0  0  0  0  0  0  0  0  0  0  0  0
  143.5470   77.5620  214.9450 O   0  0  0  0  0  0  0  0  0  0  0  0
  143.9870   78.4490  215.0100 H   0  0  0  0  0  0  0  0  0  0  0  0
  142.5150   78.8520  216.7100 C   0  0  0  0  0  0  0  0  0  0  0  0
  143.4570   79.4060  216.5847 H   0  0  0  0  0  0  0  0  0  0  0  0
  141.7068   79.4970  216.3348 H   0  0  0  0  0  0  0  0  0  0  0  0
  142.3050   78.4850  218.1790 C   0  0  1  0  0  0  0  0  0  0  0  0
  142.8974   79.1349  218.8398 H   0  0  0  0  0  0  0  0  0  0  0  0
  140.8630   78.6600  218.5760 C   0  0  0  0  0  0  0  0  0  0  0  0
  139.9730   77.9530  218.0300 O   0  0  0  0  0  0  0  0  0  0  0  0
  140.5130   79.6090  219.5890 N   0  0  0  0  0  0  0  0  0  0  0  0
  141.3980   80.6760  220.0550 C   0  0  2  0  0  0  0  0  0  0  0  0
  142.3436   80.6149  219.4964 H   0  0  0  0  0  0  0  0  0  0  0  0
  141.7390   80.5070  221.5240 C   0  0  0  0  0  0  0  0  0  0  0  0
  142.0070   79.2270  222.0390 C   0  0  0  0  0  0  0  0  0  0  0  0
  141.9338   78.3473  221.3826 H   0  0  0  0  0  0  0  0  0  0  0  0
  142.3660   79.0650  223.3800 C   0  0  0  0  0  0  0  0  0  0  0  0
  142.5647   78.0588  223.7776 H   0  0  0  0  0  0  0  0  0  0  0  0
  142.4730   80.1800  224.2170 C   0  0  0  0  0  0  0  0  0  0  0  0
  142.7582   80.0504  225.2714 H   0  0  0  0  0  0  0  0  0  0  0  0
  142.2180   81.4580  223.7150 C   0  0  0  0  0  0  0  0  0  0  0  0
  142.3061   82.3352  224.3728 H   0  0  0  0  0  0  0  0  0  0  0  0
  141.8510   81.6220  222.3770 C   0  0  0  0  0  0  0  0  0  0  0  0
  141.6479   82.6301  221.9866 H   0  0  0  0  0  0  0  0  0  0  0  0
  140.7590   82.0530  219.7770 C   0  0  0  0  0  0  0  0  0  0  0  0
  141.4333   82.8345  220.1573 H   0  0  0  0  0  0  0  0  0  0  0  0
  140.6086   82.1301  218.6901 H   0  0  0  0  0  0  0  0  0  0  0  0
  139.4070   82.2250  220.4310 C   0  0  0  0  0  0  0  0  0  0  0  0
  139.2070   83.2330  221.3910 C   0  0  0  0  0  0  0  0  0  0  0  0
  140.0482   83.8730  221.6957 H   0  0  0  0  0  0  0  0  0  0  0  0
  137.9450   83.4260  221.9600 C   0  0  0  0  0  0  0  0  0  0  0  0
  137.7964   84.2139  222.7131 H   0  0  0  0  0  0  0  0  0  0  0  0
  136.8720   82.6190  221.5730 C   0  0  0  0  0  0  0  0  0  0  0  0
  135.6470   82.8100  222.1230 F   0  0  0  0  0  0  0  0  0  0  0  0
  137.0620   81.6130  220.6190 C   0  0  0  0  0  0  0  0  0  0  0  0
  136.2162   80.9802  220.3122 H   0  0  0  0  0  0  0  0  0  0  0  0
  138.3260   81.4110  220.0550 C   0  0  0  0  0  0  0  0  0  0  0  0
  138.4739   80.6115  219.3141 H   0  0  0  0  0  0  0  0  0  0  0  0
  141.7530   75.7020  220.1380 C   0  0  0  0  0  0  0  0  0  0  0  0
  142.1688   75.1335  220.9829 H   0  0  0  0  0  0  0  0  0  0  0  0
  141.2901   75.0268  219.4033 H   0  0  0  0  0  0  0  0  0  0  0  0
  140.7220   76.6150  220.6390 N   0  0  0  0  0  0  0  0  0  0  0  0
  140.5450   77.5210  220.1550 H   0  0  0  0  0  0  0  0  0  0  0  0
  139.9200   76.2780  221.7810 C   0  0  0  0  0  0  0  0  0  0  0  0
  140.0720   75.1590  222.3400 O   0  0  0  0  0  0  0  0  0  0  0  0
  138.9160   77.2320  222.3030 C   0  0  0  0  0  0  0  0  0  0  0  0
  139.3310   78.3520  222.9600 N   0  0  0  0  0  0  0  0  0  0  0  0
  138.4540   79.2590  223.4710 C   0  0  0  0  0  0  0  0  0  0  0  0
  138.9270   80.3900  224.1470 C   0  0  0  0  0  0  0  0  0  0  0  0
  140.0093   80.5490  224.2630 H   0  0  0  0  0  0  0  0  0  0  0  0
  138.0230   81.3180  224.6750 C   0  0  0  0  0  0  0  0  0  0  0  0
  138.3970   82.2084  225.2015 H   0  0  0  0  0  0  0  0  0  0  0  0
  136.6430   81.1180  224.5360 C   0  0  0  0  0  0  0  0  0  0  0  0
  135.7740   82.0220  225.0520 F   0  0  0  0  0  0  0  0  0  0  0  0
  136.1620   79.9880  223.8650 C   0  0  0  0  0  0  0  0  0  0  0  0
  135.0785   79.8307  223.7583 H   0  0  0  0  0  0  0  0  0  0  0  0
  137.0640   79.0550  223.3280 C   0  0  0  0  0  0  0  0  0  0  0  0
  136.6140   77.9140  222.6540 C   0  0  0  0  0  0  0  0  0  0  0  0
  135.5355   77.7373  222.5289 H   0  0  0  0  0  0  0  0  0  0  0  0
  137.5380   76.9990  222.1400 C   0  0  0  0  0  0  0  0  0  0  0  0
  137.1889   76.1004  221.6102 H   0  0  0  0  0  0  0  0  0  0  0  0
  1  2  1  0
  2  3  1  0
  3  4  2  0
  4  5  1  0
  5  6  1  0
  5  7  1  0
  5  8  1  0
  8  9  1  6
  8 10  1  0
 10 11  1  0
  8 12  1  0
 12 13  1  0
 12 14  1  0
 12 15  1  0
 15 16  1  1
 15 17  1  0
 17 18  2  0
 17 19  1  0
 19 20  1  0
 20 21  1  6
 20 22  1  0
 22 23  2  0
 23 24  1  0
 23 25  1  0
 25 26  1  0
 25 27  2  0
 27 28  1  0
 27 29  1  0
 29 30  1  0
 29 31  2  0
 31 32  1  0
 20 33  1  0
 33 34  1  0
 33 35  1  0
 33 36  1  0
 36 37  2  0
 37 38  1  0
 37 39  1  0
 39 40  1  0
 39 41  2  0
 41 42  1  0
 41 43  1  0
 43 44  1  0
 43 45  2  0
 45 46  1  0
  3 47  1  0
 47 48  1  0
 47 49  1  0
 47 50  1  0
 50 51  1  0
 50 52  1  0
 52 53  2  0
 52 54  1  0
 54 55  2  0
 55 56  1  0
 56 57  2  0
 57 58  1  0
 57 59  1  0
 59 60  1  0
 59 61  2  0
 61 62  1  0
 61 63  1  0
 63 64  1  0
 63 65  2  0
 65 66  1  0
 66 67  1  0
 66 68  2  0
 68 69  1  0
 15  4  1  0
 31 22  1  0
 45 36  1  0
 68 54  1  0
 65 56  1  0
M  CHG  2   4   1  19  -1
M  END
>  <UniqueID>  (13) 
1

>  <SMILES>  (13) 
O=C(NC/C(O)=[N+]1\C[C@H](O)C[C@H]1C(=O)[N-][C@@H](Cc1ccc(F)cc1)c1ccccc1)c1ccc2cc(F)ccc2n1

>  <Energy>  (13) 
69.41988689770481

>  <Genealogy>  (13) 
O=C(NCC(=O)[NH+]1C[C@H](O)C[C@H]1C(=O)[N-][C@@H](Cc1ccc(F)cc1)c1ccccc1)c1ccc2cc(F)ccc2n1 (protonated)
O=C(NCC(O)=[N+]1C[C@H](O)C[C@H]1C(=O)[N-][C@@H](Cc1ccc(F)cc1)c1ccccc1)c1ccc2cc(F)ccc2n1 (tautomer)
O=C(NC/C(O)=[N+]1\C[C@H](O)C[C@H]1C(=O)[N-][C@@H](Cc1ccc(F)cc1)c1ccccc1)c1ccc2cc(F)ccc2n1 (cis-trans isomerization)
O=C(NC/C(O)=[N+]1\C[C@H](O)C[C@H]1C(=O)[N-][C@@H](Cc1ccc(F)cc1)c1ccccc1)c1ccc2cc(F)ccc2n1 (3D coordinates assigned)
O=C(NC/C(O)=[N+]1\C[C@H](O)C[C@H]1C(=O)[N-][C@@H](Cc1ccc(F)cc1)c1ccccc1)c1ccc2cc(F)ccc2n1 (nonaromatic ring conformer: 69.41988689770481 kcal/mol)

>  <smiles>  (13) 
O=C(NCC(=O)N1C[C@H](O)C[C@H]1C(=O)N[C@@H](Cc1ccc(F)cc1)c1ccccc1)c1ccc2cc(F)ccc2n1

>  <score_type>  (13) 
oracle

>  <origin>  (13) 
autodockgpu

>  <m_score__min__energy>  (13) 
-9.4900000000000002

>  <m_primary>  (13) 
energy

>  <meeko>  (13) 
{"free_energy": -6.23, "intermolecular_energy": -9.81, "internal_energy": -5.88, "cluster_size": 1, "cluster_id": 11, "rank_in_cluster": 1}

>  <energy>  (13) 
-7.86

>  <cluster_rmsd>  (13) 
0.0

>  <rmsd>  (13) 
271.59

>  <cluster>  (13) 
7

$$$$
XFBXCNWOYUAVIW-REVFFLAHNA-N
     RDKit          3D

 69 73  0  0  0  0  0  0  0  0999 V2000
  136.0300   72.8570  219.3320 H   0  0  0  0  0  0  0  0  0  0  0  0
  136.1270   73.7330  219.8270 O   0  0  0  0  0  0  0  0  0  0  0  0
  137.0610   73.9660  220.8440 C   0  0  0  0  0  0  0  0  0  0  0  0
  136.7860   74.7760  221.8470 N   0  0  0  0  0  0  0  0  0  0  0  0
  135.9670   74.4060  222.9990 C   0  0  0  0  0  0  0  0  0  0  0  0
  134.9485   74.1474  222.6738 H   0  0  0  0  0  0  0  0  0  0  0  0
  136.3823   73.5292  223.5173 H   0  0  0  0  0  0  0  0  0  0  0  0
  135.9340   75.6260  223.9170 C   0  0  2  0  0  0  0  0  0  0  0  0
  136.5564   75.4774  224.8117 H   0  0  0  0  0  0  0  0  0  0  0  0
  134.6300   75.8640  224.3740 O   0  0  0  0  0  0  0  0  0  0  0  0
  134.0870   76.0840  223.5740 H   0  0  0  0  0  0  0  0  0  0  0  0
  136.4460   76.7950  223.0800 C   0  0  0  0  0  0  0  0  0  0  0  0
  135.6035   77.3875  222.6940 H   0  0  0  0  0  0  0  0  0  0  0  0
  137.0743   77.4741  223.6750 H   0  0  0  0  0  0  0  0  0  0  0  0
  137.2300   76.1700  221.9260 C   0  0  1  0  0  0  0  0  0  0  0  0
  137.0485   76.7088  220.9843 H   0  0  0  0  0  0  0  0  0  0  0  0
  138.7120   76.2350  222.1850 C   0  0  0  0  0  0  0  0  0  0  0  0
  139.2960   75.2550  222.7240 O   0  0  0  0  0  0  0  0  0  0  0  0
  139.4540   77.3950  221.7960 N   0  0  0  0  0  0  0  0  0  0  0  0
  140.9020   77.5320  221.9480 C   0  0  2  0  0  0  0  0  0  0  0  0
  141.2567   76.7492  222.6346 H   0  0  0  0  0  0  0  0  0  0  0  0
  141.2670   78.8670  222.5700 C   0  0  0  0  0  0  0  0  0  0  0  0
  140.2630   79.6750  223.1320 C   0  0  0  0  0  0  0  0  0  0  0  0
  139.2122   79.3528  223.0872 H   0  0  0  0  0  0  0  0  0  0  0  0
  140.5940   80.8870  223.7480 C   0  0  0  0  0  0  0  0  0  0  0  0
  139.8023   81.5185  224.1774 H   0  0  0  0  0  0  0  0  0  0  0  0
  141.9280   81.2970  223.8190 C   0  0  0  0  0  0  0  0  0  0  0  0
  142.1857   82.2491  224.3060 H   0  0  0  0  0  0  0  0  0  0  0  0
  142.9350   80.4970  223.2710 C   0  0  0  0  0  0  0  0  0  0  0  0
  143.9856   80.8177  223.3299 H   0  0  0  0  0  0  0  0  0  0  0  0
  142.6070   79.2910  222.6490 C   0  0  0  0  0  0  0  0  0  0  0  0
  143.4027   78.6665  222.2168 H   0  0  0  0  0  0  0  0  0  0  0  0
  141.5990   77.3340  220.5850 C   0  0  0  0  0  0  0  0  0  0  0  0
  140.8451   77.4303  219.7898 H   0  0  0  0  0  0  0  0  0  0  0  0
  142.3843   78.1001  220.5055 H   0  0  0  0  0  0  0  0  0  0  0  0
  142.2710   75.9870  220.4490 C   0  0  0  0  0  0  0  0  0  0  0  0
  141.6580   74.8330  220.9680 C   0  0  0  0  0  0  0  0  0  0  0  0
  140.7044   74.9165  221.5098 H   0  0  0  0  0  0  0  0  0  0  0  0
  142.2540   73.5810  220.7990 C   0  0  0  0  0  0  0  0  0  0  0  0
  141.7711   72.6824  221.2106 H   0  0  0  0  0  0  0  0  0  0  0  0
  143.4640   73.4690  220.1070 C   0  0  0  0  0  0  0  0  0  0  0  0
  144.0390   72.2510  219.9410 F   0  0  0  0  0  0  0  0  0  0  0  0
  144.0810   74.6110  219.5880 C   0  0  0  0  0  0  0  0  0  0  0  0
  145.0312   74.5212  219.0411 H   0  0  0  0  0  0  0  0  0  0  0  0
  143.4920   75.8680  219.7630 C   0  0  0  0  0  0  0  0  0  0  0  0
  143.9859   76.7656  219.3626 H   0  0  0  0  0  0  0  0  0  0  0  0
  138.3700   73.2000  220.7630 C   0  0  0  0  0  0  0  0  0  0  0  0
  139.1343   73.8451  220.3050 H   0  0  0  0  0  0  0  0  0  0  0  0
  138.2056   72.2975  220.1560 H   0  0  0  0  0  0  0  0  0  0  0  0
  138.8300   72.7850  222.0900 N   0  0  0  0  0  0  0  0  0  0  0  0
  138.8540   73.4710  222.8750 H   0  0  0  0  0  0  0  0  0  0  0  0
  139.2320   71.4310  222.3490 C   0  0  0  0  0  0  0  0  0  0  0  0
  139.1480   70.5710  221.4330 O   0  0  0  0  0  0  0  0  0  0  0  0
  139.7400   71.0390  223.6830 C   0  0  0  0  0  0  0  0  0  0  0  0
  139.3880   69.8320  224.2080 N   0  0  0  0  0  0  0  0  0  0  0  0
  139.8150   69.4220  225.4340 C   0  0  0  0  0  0  0  0  0  0  0  0
  139.4210   68.1760  225.9360 C   0  0  0  0  0  0  0  0  0  0  0  0
  138.7678   67.5235  225.3380 H   0  0  0  0  0  0  0  0  0  0  0  0
  139.8580   67.7610  227.1980 C   0  0  0  0  0  0  0  0  0  0  0  0
  139.5495   66.7803  227.5892 H   0  0  0  0  0  0  0  0  0  0  0  0
  140.6870   68.5890  227.9660 C   0  0  0  0  0  0  0  0  0  0  0  0
  141.1050   68.1780  229.1890 F   0  0  0  0  0  0  0  0  0  0  0  0
  141.0840   69.8370  227.4730 C   0  0  0  0  0  0  0  0  0  0  0  0
  141.7336   70.4867  228.0778 H   0  0  0  0  0  0  0  0  0  0  0  0
  140.6520   70.2590  226.2050 C   0  0  0  0  0  0  0  0  0  0  0  0
  141.0290   71.5020  225.6860 C   0  0  0  0  0  0  0  0  0  0  0  0
  141.6819   72.1679  226.2693 H   0  0  0  0  0  0  0  0  0  0  0  0
  140.5740   71.8960  224.4240 C   0  0  0  0  0  0  0  0  0  0  0  0
  140.8672   72.8728  224.0119 H   0  0  0  0  0  0  0  0  0  0  0  0
  1  2  1  0
  2  3  1  0
  3  4  2  0
  4  5  1  0
  5  6  1  0
  5  7  1  0
  5  8  1  0
  8  9  1  1
  8 10  1  0
 10 11  1  0
  8 12  1  0
 12 13  1  0
 12 14  1  0
 12 15  1  0
 15 16  1  6
 15 17  1  0
 17 18  2  0
 17 19  1  0
 19 20  1  0
 20 21  1  1
 20 22  1  0
 22 23  2  0
 23 24  1  0
 23 25  1  0
 25 26  1  0
 25 27  2  0
 27 28  1  0
 27 29  1  0
 29 30  1  0
 29 31  2  0
 31 32  1  0
 20 33  1  0
 33 34  1  0
 33 35  1  0
 33 36  1  0
 36 37  2  0
 37 38  1  0
 37 39  1  0
 39 40  1  0
 39 41  2  0
 41 42  1  0
 41 43  1  0
 43 44  1  0
 43 45  2  0
 45 46  1  0
  3 47  1  0
 47 48  1  0
 47 49  1  0
 47 50  1  0
 50 51  1  0
 50 52  1  0
 52 53  2  0
 52 54  1  0
 54 55  2  0
 55 56  1  0
 56 57  2  0
 57 58  1  0
 57 59  1  0
 59 60  1  0
 59 61  2  0
 61 62  1  0
 61 63  1  0
 63 64  1  0
 63 65  2  0
 65 66  1  0
 66 67  1  0
 66 68  2  0
 68 69  1  0
 15  4  1  0
 31 22  1  0
 45 36  1  0
 68 54  1  0
 65 56  1  0
M  CHG  2   4   1  19  -1
M  END
>  <UniqueID>  (14) 
1

>  <SMILES>  (14) 
O=C(NC/C(O)=[N+]1\C[C@H](O)C[C@H]1C(=O)[N-][C@@H](Cc1ccc(F)cc1)c1ccccc1)c1ccc2cc(F)ccc2n1

>  <Energy>  (14) 
69.41988689770481

>  <Genealogy>  (14) 
O=C(NCC(=O)[NH+]1C[C@H](O)C[C@H]1C(=O)[N-][C@@H](Cc1ccc(F)cc1)c1ccccc1)c1ccc2cc(F)ccc2n1 (protonated)
O=C(NCC(O)=[N+]1C[C@H](O)C[C@H]1C(=O)[N-][C@@H](Cc1ccc(F)cc1)c1ccccc1)c1ccc2cc(F)ccc2n1 (tautomer)
O=C(NC/C(O)=[N+]1\C[C@H](O)C[C@H]1C(=O)[N-][C@@H](Cc1ccc(F)cc1)c1ccccc1)c1ccc2cc(F)ccc2n1 (cis-trans isomerization)
O=C(NC/C(O)=[N+]1\C[C@H](O)C[C@H]1C(=O)[N-][C@@H](Cc1ccc(F)cc1)c1ccccc1)c1ccc2cc(F)ccc2n1 (3D coordinates assigned)
O=C(NC/C(O)=[N+]1\C[C@H](O)C[C@H]1C(=O)[N-][C@@H](Cc1ccc(F)cc1)c1ccccc1)c1ccc2cc(F)ccc2n1 (nonaromatic ring conformer: 69.41988689770481 kcal/mol)

>  <smiles>  (14) 
O=C(NCC(=O)N1C[C@H](O)C[C@H]1C(=O)N[C@@H](Cc1ccc(F)cc1)c1ccccc1)c1ccc2cc(F)ccc2n1

>  <score_type>  (14) 
oracle

>  <origin>  (14) 
autodockgpu

>  <m_score__min__energy>  (14) 
-9.4900000000000002

>  <m_primary>  (14) 
energy

>  <meeko>  (14) 
{"free_energy": -9.16, "intermolecular_energy": -12.74, "internal_energy": -3.27, "cluster_size": 5, "cluster_id": 2, "rank_in_cluster": 2}

>  <energy>  (14) 
-7.44

>  <cluster_rmsd>  (14) 
0.0

>  <rmsd>  (14) 
270.56

>  <cluster>  (14) 
8

$$$$
XFBXCNWOYUAVIW-REVFFLAHNA-N
     RDKit          3D

 69 73  0  0  0  0  0  0  0  0999 V2000
  136.7040   74.3240  218.5910 H   0  0  0  0  0  0  0  0  0  0  0  0
  136.3710   74.0040  219.4900 O   0  0  0  0  0  0  0  0  0  0  0  0
  137.1620   73.9230  220.6430 C   0  0  0  0  0  0  0  0  0  0  0  0
  136.8860   74.6470  221.7090 N   0  0  0  0  0  0  0  0  0  0  0  0
  136.0600   74.1870  222.8230 C   0  0  0  0  0  0  0  0  0  0  0  0
  135.0418   73.9618  222.4730 H   0  0  0  0  0  0  0  0  0  0  0  0
  136.4695   73.2682  223.2680 H   0  0  0  0  0  0  0  0  0  0  0  0
  136.0280   75.3250  223.8400 C   0  0  2  0  0  0  0  0  0  0  0  0
  136.6441   75.0988  224.7228 H   0  0  0  0  0  0  0  0  0  0  0  0
  134.7230   75.5310  224.3090 O   0  0  0  0  0  0  0  0  0  0  0  0
  134.7650   76.3100  224.9220 H   0  0  0  0  0  0  0  0  0  0  0  0
  136.5510   76.5570  223.1050 C   0  0  0  0  0  0  0  0  0  0  0  0
  135.7136   77.1847  222.7663 H   0  0  0  0  0  0  0  0  0  0  0  0
  137.1807   77.1796  223.7575 H   0  0  0  0  0  0  0  0  0  0  0  0
  137.3370   76.0270  221.9060 C   0  0  1  0  0  0  0  0  0  0  0  0
  137.1630   76.6441  221.0122 H   0  0  0  0  0  0  0  0  0  0  0  0
  138.8180   76.0610  222.1760 C   0  0  0  0  0  0  0  0  0  0  0  0
  139.3810   75.0650  222.7070 O   0  0  0  0  0  0  0  0  0  0  0  0
  139.5840   77.2130  221.8070 N   0  0  0  0  0  0  0  0  0  0  0  0
  141.0440   77.2760  221.8550 C   0  0  2  0  0  0  0  0  0  0  0  0
  141.4026   76.5344  222.5840 H   0  0  0  0  0  0  0  0  0  0  0  0
  141.5210   78.6360  222.3320 C   0  0  0  0  0  0  0  0  0  0  0  0
  141.6130   79.7050  221.4240 C   0  0  0  0  0  0  0  0  0  0  0  0
  141.3721   79.5437  220.3629 H   0  0  0  0  0  0  0  0  0  0  0  0
  142.0090   80.9720  221.8620 C   0  0  0  0  0  0  0  0  0  0  0  0
  142.0886   81.8010  221.1433 H   0  0  0  0  0  0  0  0  0  0  0  0
  142.3040   81.1880  223.2110 C   0  0  0  0  0  0  0  0  0  0  0  0
  142.6125   82.1868  223.5534 H   0  0  0  0  0  0  0  0  0  0  0  0
  142.2070   80.1350  224.1250 C   0  0  0  0  0  0  0  0  0  0  0  0
  142.4352   80.3055  225.1875 H   0  0  0  0  0  0  0  0  0  0  0  0
  141.8200   78.8660  223.6880 C   0  0  0  0  0  0  0  0  0  0  0  0
  141.7483   78.0392  224.4099 H   0  0  0  0  0  0  0  0  0  0  0  0
  141.6340   76.9240  220.4730 C   0  0  0  0  0  0  0  0  0  0  0  0
  140.8151   76.9008  219.7389 H   0  0  0  0  0  0  0  0  0  0  0  0
  142.3833   77.6925  220.2323 H   0  0  0  0  0  0  0  0  0  0  0  0
  142.3390   75.5860  220.4490 C   0  0  0  0  0  0  0  0  0  0  0  0
  143.6940   75.5060  220.0820 C   0  0  0  0  0  0  0  0  0  0  0  0
  144.2323   76.4142  219.7731 H   0  0  0  0  0  0  0  0  0  0  0  0
  144.3600   74.2770  220.1080 C   0  0  0  0  0  0  0  0  0  0  0  0
  145.4194   74.2198  219.8173 H   0  0  0  0  0  0  0  0  0  0  0  0
  143.6810   73.1210  220.5030 C   0  0  0  0  0  0  0  0  0  0  0  0
  144.3300   71.9300  220.5300 F   0  0  0  0  0  0  0  0  0  0  0  0
  142.3330   73.1920  220.8680 C   0  0  0  0  0  0  0  0  0  0  0  0
  141.8003   72.2821  221.1816 H   0  0  0  0  0  0  0  0  0  0  0  0
  141.6610   74.4180  220.8350 C   0  0  0  0  0  0  0  0  0  0  0  0
  140.5977   74.4678  221.1123 H   0  0  0  0  0  0  0  0  0  0  0  0
  138.3060   72.9250  220.6210 C   0  0  0  0  0  0  0  0  0  0  0  0
  139.1580   73.3694  220.0856 H   0  0  0  0  0  0  0  0  0  0  0  0
  137.9587   72.0124  220.1144 H   0  0  0  0  0  0  0  0  0  0  0  0
  138.7300   72.5660  221.9760 N   0  0  0  0  0  0  0  0  0  0  0  0
  138.5930   73.2370  222.7630 H   0  0  0  0  0  0  0  0  0  0  0  0
  139.3130   71.2860  222.2600 C   0  0  0  0  0  0  0  0  0  0  0  0
  139.4260   70.4350  221.3380 O   0  0  0  0  0  0  0  0  0  0  0  0
  139.7790   70.9570  223.6260 C   0  0  0  0  0  0  0  0  0  0  0  0
  139.4960   69.7340  224.1570 N   0  0  0  0  0  0  0  0  0  0  0  0
  139.8890   69.3800  225.4110 C   0  0  0  0  0  0  0  0  0  0  0  0
  139.5680   68.1150  225.9170 C   0  0  0  0  0  0  0  0  0  0  0  0
  139.0004   67.4033  225.2994 H   0  0  0  0  0  0  0  0  0  0  0  0
  139.9690   67.7560  227.2080 C   0  0  0  0  0  0  0  0  0  0  0  0
  139.7179   66.7603  227.6024 H   0  0  0  0  0  0  0  0  0  0  0  0
  140.6890   68.6590  228.0010 C   0  0  0  0  0  0  0  0  0  0  0  0
  141.0730   68.3030  229.2520 F   0  0  0  0  0  0  0  0  0  0  0  0
  141.0110   69.9270  227.5040 C   0  0  0  0  0  0  0  0  0  0  0  0
  141.5735   70.6368  228.1284 H   0  0  0  0  0  0  0  0  0  0  0  0
  140.6150   70.2920  226.2070 C   0  0  0  0  0  0  0  0  0  0  0  0
  140.9210   71.5540  225.6830 C   0  0  0  0  0  0  0  0  0  0  0  0
  141.4885   72.2787  226.2853 H   0  0  0  0  0  0  0  0  0  0  0  0
  140.5030   71.8900  224.3920 C   0  0  0  0  0  0  0  0  0  0  0  0
  140.7392   72.8805  223.9760 H   0  0  0  0  0  0  0  0  0  0  0  0
  1  2  1  0
  2  3  1  0
  3  4  2  0
  4  5  1  0
  5  6  1  0
  5  7  1  0
  5  8  1  0
  8  9  1  1
  8 10  1  0
 10 11  1  0
  8 12  1  0
 12 13  1  0
 12 14  1  0
 12 15  1  0
 15 16  1  6
 15 17  1  0
 17 18  2  0
 17 19  1  0
 19 20  1  0
 20 21  1  1
 20 22  1  0
 22 23  2  0
 23 24  1  0
 23 25  1  0
 25 26  1  0
 25 27  2  0
 27 28  1  0
 27 29  1  0
 29 30  1  0
 29 31  2  0
 31 32  1  0
 20 33  1  0
 33 34  1  0
 33 35  1  0
 33 36  1  0
 36 37  2  0
 37 38  1  0
 37 39  1  0
 39 40  1  0
 39 41  2  0
 41 42  1  0
 41 43  1  0
 43 44  1  0
 43 45  2  0
 45 46  1  0
  3 47  1  0
 47 48  1  0
 47 49  1  0
 47 50  1  0
 50 51  1  0
 50 52  1  0
 52 53  2  0
 52 54  1  0
 54 55  2  0
 55 56  1  0
 56 57  2  0
 57 58  1  0
 57 59  1  0
 59 60  1  0
 59 61  2  0
 61 62  1  0
 61 63  1  0
 63 64  1  0
 63 65  2  0
 65 66  1  0
 66 67  1  0
 66 68  2  0
 68 69  1  0
 15  4  1  0
 31 22  1  0
 45 36  1  0
 68 54  1  0
 65 56  1  0
M  CHG  2   4   1  19  -1
M  END
>  <UniqueID>  (15) 
1

>  <SMILES>  (15) 
O=C(NC/C(O)=[N+]1\C[C@H](O)C[C@H]1C(=O)[N-][C@@H](Cc1ccc(F)cc1)c1ccccc1)c1ccc2cc(F)ccc2n1

>  <Energy>  (15) 
69.41988689770481

>  <Genealogy>  (15) 
O=C(NCC(=O)[NH+]1C[C@H](O)C[C@H]1C(=O)[N-][C@@H](Cc1ccc(F)cc1)c1ccccc1)c1ccc2cc(F)ccc2n1 (protonated)
O=C(NCC(O)=[N+]1C[C@H](O)C[C@H]1C(=O)[N-][C@@H](Cc1ccc(F)cc1)c1ccccc1)c1ccc2cc(F)ccc2n1 (tautomer)
O=C(NC/C(O)=[N+]1\C[C@H](O)C[C@H]1C(=O)[N-][C@@H](Cc1ccc(F)cc1)c1ccccc1)c1ccc2cc(F)ccc2n1 (cis-trans isomerization)
O=C(NC/C(O)=[N+]1\C[C@H](O)C[C@H]1C(=O)[N-][C@@H](Cc1ccc(F)cc1)c1ccccc1)c1ccc2cc(F)ccc2n1 (3D coordinates assigned)
O=C(NC/C(O)=[N+]1\C[C@H](O)C[C@H]1C(=O)[N-][C@@H](Cc1ccc(F)cc1)c1ccccc1)c1ccc2cc(F)ccc2n1 (nonaromatic ring conformer: 69.41988689770481 kcal/mol)

>  <smiles>  (15) 
O=C(NCC(=O)N1C[C@H](O)C[C@H]1C(=O)N[C@@H](Cc1ccc(F)cc1)c1ccccc1)c1ccc2cc(F)ccc2n1

>  <score_type>  (15) 
oracle

>  <origin>  (15) 
autodockgpu

>  <m_score__min__energy>  (15) 
-9.4900000000000002

>  <m_primary>  (15) 
energy

>  <meeko>  (15) 
{"free_energy": -9.01, "intermolecular_energy": -12.59, "internal_energy": -3.36, "cluster_size": 5, "cluster_id": 2, "rank_in_cluster": 3}

>  <energy>  (15) 
-6.73

>  <cluster_rmsd>  (15) 
0.0

>  <rmsd>  (15) 
270.58

>  <cluster>  (15) 
9

$$$$
XFBXCNWOYUAVIW-REVFFLAHNA-N
     RDKit          3D

 69 73  0  0  0  0  0  0  0  0999 V2000
  137.7990   76.5630  217.7690 H   0  0  0  0  0  0  0  0  0  0  0  0
  138.7280   76.1650  217.7650 O   0  0  0  0  0  0  0  0  0  0  0  0
  139.2570   75.3840  218.8000 C   0  0  0  0  0  0  0  0  0  0  0  0
  140.4560   75.6270  219.2900 N   0  0  0  0  0  0  0  0  0  0  0  0
  141.2830   76.7690  218.9060 C   0  0  0  0  0  0  0  0  0  0  0  0
  141.5183   76.7238  217.8324 H   0  0  0  0  0  0  0  0  0  0  0  0
  140.7601   77.7188  219.0915 H   0  0  0  0  0  0  0  0  0  0  0  0
  142.5640   76.6740  219.7310 C   0  0  2  0  0  0  0  0  0  0  0  0
  142.5892   77.4297  220.5300 H   0  0  0  0  0  0  0  0  0  0  0  0
  143.6880   76.9090  218.9260 O   0  0  0  0  0  0  0  0  0  0  0  0
  144.3120   77.4570  219.4680 H   0  0  0  0  0  0  0  0  0  0  0  0
  142.5860   75.2610  220.3100 C   0  0  0  0  0  0  0  0  0  0  0  0
  143.2361   74.6101  219.7069 H   0  0  0  0  0  0  0  0  0  0  0  0
  142.9798   75.2507  221.3370 H   0  0  0  0  0  0  0  0  0  0  0  0
  141.1410   74.7660  220.2570 C   0  0  1  0  0  0  0  0  0  0  0  0
  141.0948   73.7069  219.9634 H   0  0  0  0  0  0  0  0  0  0  0  0
  140.4860   74.8720  221.6090 C   0  0  0  0  0  0  0  0  0  0  0  0
  139.8470   73.8890  222.0740 O   0  0  0  0  0  0  0  0  0  0  0  0
  140.6140   76.0770  222.3710 N   0  0  0  0  0  0  0  0  0  0  0  0
  140.0500   77.3650  221.9690 C   0  0  2  0  0  0  0  0  0  0  0  0
  139.8737   77.3463  220.8834 H   0  0  0  0  0  0  0  0  0  0  0  0
  141.0200   78.5010  222.2420 C   0  0  0  0  0  0  0  0  0  0  0  0
  141.2970   79.4420  221.2360 C   0  0  0  0  0  0  0  0  0  0  0  0
  140.8373   79.3324  220.2427 H   0  0  0  0  0  0  0  0  0  0  0  0
  142.1540   80.5170  221.4910 C   0  0  0  0  0  0  0  0  0  0  0  0
  142.3738   81.2441  220.6954 H   0  0  0  0  0  0  0  0  0  0  0  0
  142.7320   80.6700  222.7540 C   0  0  0  0  0  0  0  0  0  0  0  0
  143.4039   81.5180  222.9525 H   0  0  0  0  0  0  0  0  0  0  0  0
  142.4560   79.7450  223.7650 C   0  0  0  0  0  0  0  0  0  0  0  0
  142.9076   79.8671  224.7606 H   0  0  0  0  0  0  0  0  0  0  0  0
  141.6070   78.6660  223.5110 C   0  0  0  0  0  0  0  0  0  0  0  0
  141.3951   77.9390  224.3088 H   0  0  0  0  0  0  0  0  0  0  0  0
  138.6980   77.5940  222.6770 C   0  0  0  0  0  0  0  0  0  0  0  0
  137.9193   77.0419  222.1304 H   0  0  0  0  0  0  0  0  0  0  0  0
  138.8072   77.2388  223.7123 H   0  0  0  0  0  0  0  0  0  0  0  0
  138.2980   79.0510  222.7420 C   0  0  0  0  0  0  0  0  0  0  0  0
  138.4610   79.7770  223.9350 C   0  0  0  0  0  0  0  0  0  0  0  0
  138.8429   79.2726  224.8349 H   0  0  0  0  0  0  0  0  0  0  0  0
  138.1400   81.1370  223.9830 C   0  0  0  0  0  0  0  0  0  0  0  0
  138.2669   81.6993  224.9199 H   0  0  0  0  0  0  0  0  0  0  0  0
  137.6580   81.7820  222.8410 C   0  0  0  0  0  0  0  0  0  0  0  0
  137.3490   83.1030  222.8890 F   0  0  0  0  0  0  0  0  0  0  0  0
  137.4920   81.0680  221.6510 C   0  0  0  0  0  0  0  0  0  0  0  0
  137.1157   81.5782  220.7521 H   0  0  0  0  0  0  0  0  0  0  0  0
  137.8040   79.7050  221.6020 C   0  0  0  0  0  0  0  0  0  0  0  0
  137.6617   79.1436  220.6668 H   0  0  0  0  0  0  0  0  0  0  0  0
  138.3640   74.2910  219.3590 C   0  0  0  0  0  0  0  0  0  0  0  0
  138.9845   73.4218  219.6226 H   0  0  0  0  0  0  0  0  0  0  0  0
  137.6229   74.0233  218.5915 H   0  0  0  0  0  0  0  0  0  0  0  0
  137.6470   74.7450  220.5540 N   0  0  0  0  0  0  0  0  0  0  0  0
  137.8120   74.2790  221.4720 H   0  0  0  0  0  0  0  0  0  0  0  0
  136.7300   75.8480  220.4990 C   0  0  0  0  0  0  0  0  0  0  0  0
  136.5660   76.4670  219.4140 O   0  0  0  0  0  0  0  0  0  0  0  0
  135.9780   76.2630  221.7050 C   0  0  0  0  0  0  0  0  0  0  0  0
  135.9840   75.4630  222.8080 N   0  0  0  0  0  0  0  0  0  0  0  0
  135.3030   75.7870  223.9420 C   0  0  0  0  0  0  0  0  0  0  0  0
  135.3310   74.9290  225.0480 C   0  0  0  0  0  0  0  0  0  0  0  0
  135.9066   73.9926  225.0041 H   0  0  0  0  0  0  0  0  0  0  0  0
  134.6260   75.2640  226.2090 C   0  0  0  0  0  0  0  0  0  0  0  0
  134.6517   74.5905  227.0783 H   0  0  0  0  0  0  0  0  0  0  0  0
  133.8880   76.4520  226.2700 C   0  0  0  0  0  0  0  0  0  0  0  0
  133.2070   76.7680  227.4000 F   0  0  0  0  0  0  0  0  0  0  0  0
  133.8520   77.3140  225.1670 C   0  0  0  0  0  0  0  0  0  0  0  0
  133.2697   78.2460  225.2151 H   0  0  0  0  0  0  0  0  0  0  0  0
  134.5600   76.9870  224.0000 C   0  0  0  0  0  0  0  0  0  0  0  0
  134.5420   77.8260  222.8800 C   0  0  0  0  0  0  0  0  0  0  0  0
  133.9720   78.7665  222.9048 H   0  0  0  0  0  0  0  0  0  0  0  0
  135.2500   77.4660  221.7300 C   0  0  0  0  0  0  0  0  0  0  0  0
  135.2378   78.1218  220.8469 H   0  0  0  0  0  0  0  0  0  0  0  0
  1  2  1  0
  2  3  1  0
  3  4  2  0
  4  5  1  0
  5  6  1  0
  5  7  1  0
  5  8  1  0
  8  9  1  1
  8 10  1  0
 10 11  1  0
  8 12  1  0
 12 13  1  0
 12 14  1  0
 12 15  1  0
 15 16  1  6
 15 17  1  0
 17 18  2  0
 17 19  1  0
 19 20  1  0
 20 21  1  6
 20 22  1  0
 22 23  2  0
 23 24  1  0
 23 25  1  0
 25 26  1  0
 25 27  2  0
 27 28  1  0
 27 29  1  0
 29 30  1  0
 29 31  2  0
 31 32  1  0
 20 33  1  0
 33 34  1  0
 33 35  1  0
 33 36  1  0
 36 37  2  0
 37 38  1  0
 37 39  1  0
 39 40  1  0
 39 41  2  0
 41 42  1  0
 41 43  1  0
 43 44  1  0
 43 45  2  0
 45 46  1  0
  3 47  1  0
 47 48  1  0
 47 49  1  0
 47 50  1  0
 50 51  1  0
 50 52  1  0
 52 53  2  0
 52 54  1  0
 54 55  2  0
 55 56  1  0
 56 57  2  0
 57 58  1  0
 57 59  1  0
 59 60  1  0
 59 61  2  0
 61 62  1  0
 61 63  1  0
 63 64  1  0
 63 65  2  0
 65 66  1  0
 66 67  1  0
 66 68  2  0
 68 69  1  0
 15  4  1  0
 31 22  1  0
 45 36  1  0
 68 54  1  0
 65 56  1  0
M  CHG  2   4   1  19  -1
M  END
>  <UniqueID>  (16) 
1

>  <SMILES>  (16) 
O=C(NC/C(O)=[N+]1\C[C@H](O)C[C@H]1C(=O)[N-][C@@H](Cc1ccc(F)cc1)c1ccccc1)c1ccc2cc(F)ccc2n1

>  <Energy>  (16) 
69.41988689770481

>  <Genealogy>  (16) 
O=C(NCC(=O)[NH+]1C[C@H](O)C[C@H]1C(=O)[N-][C@@H](Cc1ccc(F)cc1)c1ccccc1)c1ccc2cc(F)ccc2n1 (protonated)
O=C(NCC(O)=[N+]1C[C@H](O)C[C@H]1C(=O)[N-][C@@H](Cc1ccc(F)cc1)c1ccccc1)c1ccc2cc(F)ccc2n1 (tautomer)
O=C(NC/C(O)=[N+]1\C[C@H](O)C[C@H]1C(=O)[N-][C@@H](Cc1ccc(F)cc1)c1ccccc1)c1ccc2cc(F)ccc2n1 (cis-trans isomerization)
O=C(NC/C(O)=[N+]1\C[C@H](O)C[C@H]1C(=O)[N-][C@@H](Cc1ccc(F)cc1)c1ccccc1)c1ccc2cc(F)ccc2n1 (3D coordinates assigned)
O=C(NC/C(O)=[N+]1\C[C@H](O)C[C@H]1C(=O)[N-][C@@H](Cc1ccc(F)cc1)c1ccccc1)c1ccc2cc(F)ccc2n1 (nonaromatic ring conformer: 69.41988689770481 kcal/mol)

>  <smiles>  (16) 
O=C(NCC(=O)N1C[C@H](O)C[C@H]1C(=O)N[C@@H](Cc1ccc(F)cc1)c1ccccc1)c1ccc2cc(F)ccc2n1

>  <score_type>  (16) 
oracle

>  <origin>  (16) 
autodockgpu

>  <m_score__min__energy>  (16) 
-9.4900000000000002

>  <m_primary>  (16) 
energy

>  <meeko>  (16) 
{"free_energy": -6.03, "intermolecular_energy": -9.61, "internal_energy": -5.92, "cluster_size": 2, "cluster_id": 12, "rank_in_cluster": 2}

>  <energy>  (16) 
-6.3

>  <cluster_rmsd>  (16) 
0.0

>  <rmsd>  (16) 
271.37

>  <cluster>  (16) 
10

$$$$
XFBXCNWOYUAVIW-REVFFLAHNA-N
     RDKit          3D

 69 73  0  0  0  0  0  0  0  0999 V2000
  139.2070   74.5240  223.4190 H   0  0  0  0  0  0  0  0  0  0  0  0
  139.2910   75.0630  222.5680 O   0  0  0  0  0  0  0  0  0  0  0  0
  138.7670   74.6700  221.3300 C   0  0  0  0  0  0  0  0  0  0  0  0
  138.4950   75.5590  220.3950 N   0  0  0  0  0  0  0  0  0  0  0  0
  137.9200   76.8760  220.6570 C   0  0  0  0  0  0  0  0  0  0  0  0
  136.9270   76.7718  221.1186 H   0  0  0  0  0  0  0  0  0  0  0  0
  138.5497   77.4536  221.3497 H   0  0  0  0  0  0  0  0  0  0  0  0
  137.8020   77.5760  219.3050 C   0  0  2  0  0  0  0  0  0  0  0  0
  138.5573   78.3674  219.1900 H   0  0  0  0  0  0  0  0  0  0  0  0
  136.5520   78.1980  219.1790 O   0  0  0  0  0  0  0  0  0  0  0  0
  136.7240   79.1740  219.1650 H   0  0  0  0  0  0  0  0  0  0  0  0
  137.9830   76.4850  218.2520 C   0  0  0  0  0  0  0  0  0  0  0  0
  137.0053   76.1532  217.8726 H   0  0  0  0  0  0  0  0  0  0  0  0
  138.5600   76.8481  217.3887 H   0  0  0  0  0  0  0  0  0  0  0  0
  138.6970   75.3340  218.9610 C   0  0  1  0  0  0  0  0  0  0  0  0
  138.2970   74.3605  218.6411 H   0  0  0  0  0  0  0  0  0  0  0  0
  140.1660   75.3290  218.6330 C   0  0  0  0  0  0  0  0  0  0  0  0
  140.6770   74.3250  218.0650 O   0  0  0  0  0  0  0  0  0  0  0  0
  140.9700   76.4720  218.9420 N   0  0  0  0  0  0  0  0  0  0  0  0
  141.8390   76.5710  220.1140 C   0  0  2  0  0  0  0  0  0  0  0  0
  142.5389   77.4056  219.9605 H   0  0  0  0  0  0  0  0  0  0  0  0
  142.6750   75.3150  220.2880 C   0  0  0  0  0  0  0  0  0  0  0  0
  142.0650   74.1210  220.7110 C   0  0  0  0  0  0  0  0  0  0  0  0
  140.9911   74.1097  220.9488 H   0  0  0  0  0  0  0  0  0  0  0  0
  142.8160   72.9480  220.8310 C   0  0  0  0  0  0  0  0  0  0  0  0
  142.3337   72.0196  221.1707 H   0  0  0  0  0  0  0  0  0  0  0  0
  144.1790   72.9530  220.5200 C   0  0  0  0  0  0  0  0  0  0  0  0
  144.7677   72.0285  220.6138 H   0  0  0  0  0  0  0  0  0  0  0  0
  144.7940   74.1320  220.0900 C   0  0  0  0  0  0  0  0  0  0  0  0
  145.8654   74.1347  219.8407 H   0  0  0  0  0  0  0  0  0  0  0  0
  144.0470   75.3070  219.9770 C   0  0  0  0  0  0  0  0  0  0  0  0
  144.5357   76.2338  219.6420 H   0  0  0  0  0  0  0  0  0  0  0  0
  140.9980   76.8680  221.3730 C   0  0  0  0  0  0  0  0  0  0  0  0
  139.9402   76.9349  221.0789 H   0  0  0  0  0  0  0  0  0  0  0  0
  141.1779   76.0503  222.0864 H   0  0  0  0  0  0  0  0  0  0  0  0
  141.3880   78.1570  222.0600 C   0  0  0  0  0  0  0  0  0  0  0  0
  141.4330   78.2260  223.4640 C   0  0  0  0  0  0  0  0  0  0  0  0
  141.1455   77.3503  224.0644 H   0  0  0  0  0  0  0  0  0  0  0  0
  141.8410   79.4010  224.1000 C   0  0  0  0  0  0  0  0  0  0  0  0
  141.8704   79.4498  225.1985 H   0  0  0  0  0  0  0  0  0  0  0  0
  142.2120   80.5150  223.3410 C   0  0  0  0  0  0  0  0  0  0  0  0
  142.6120   81.6540  223.9610 F   0  0  0  0  0  0  0  0  0  0  0  0
  142.1690   80.4560  221.9450 C   0  0  0  0  0  0  0  0  0  0  0  0
  142.4635   81.3323  221.3489 H   0  0  0  0  0  0  0  0  0  0  0  0
  141.7520   79.2840  221.3050 C   0  0  0  0  0  0  0  0  0  0  0  0
  141.7090   79.2450  220.2065 H   0  0  0  0  0  0  0  0  0  0  0  0
  138.5850   73.1810  221.1030 C   0  0  0  0  0  0  0  0  0  0  0  0
  139.2563   72.8579  220.2937 H   0  0  0  0  0  0  0  0  0  0  0  0
  137.5339   72.9979  220.8355 H   0  0  0  0  0  0  0  0  0  0  0  0
  138.8930   72.4130  222.3130 N   0  0  0  0  0  0  0  0  0  0  0  0
  139.1890   72.9050  223.1830 H   0  0  0  0  0  0  0  0  0  0  0  0
  138.7710   70.9830  222.3390 C   0  0  0  0  0  0  0  0  0  0  0  0
  138.3510   70.3760  221.3190 O   0  0  0  0  0  0  0  0  0  0  0  0
  139.1320   70.2200  223.5550 C   0  0  0  0  0  0  0  0  0  0  0  0
  139.7240   70.8620  224.6010 N   0  0  0  0  0  0  0  0  0  0  0  0
  140.0870   70.2110  225.7400 C   0  0  0  0  0  0  0  0  0  0  0  0
  140.7000   70.9110  226.7850 C   0  0  0  0  0  0  0  0  0  0  0  0
  140.8855   71.9910  226.6889 H   0  0  0  0  0  0  0  0  0  0  0  0
  141.0770   70.2380  227.9520 C   0  0  0  0  0  0  0  0  0  0  0  0
  141.5549   70.7915  228.7737 H   0  0  0  0  0  0  0  0  0  0  0  0
  140.8480   68.8610  228.0780 C   0  0  0  0  0  0  0  0  0  0  0  0
  141.2180   68.2160  229.2120 F   0  0  0  0  0  0  0  0  0  0  0  0
  140.2390   68.1530  227.0360 C   0  0  0  0  0  0  0  0  0  0  0  0
  140.0620   67.0718  227.1348 H   0  0  0  0  0  0  0  0  0  0  0  0
  139.8540   68.8240  225.8640 C   0  0  0  0  0  0  0  0  0  0  0  0
  139.2450   68.1420  224.8040 C   0  0  0  0  0  0  0  0  0  0  0  0
  139.0519   67.0618  224.8813 H   0  0  0  0  0  0  0  0  0  0  0  0
  138.8830   68.8380  223.6470 C   0  0  0  0  0  0  0  0  0  0  0  0
  138.4048   68.3069  222.8108 H   0  0  0  0  0  0  0  0  0  0  0  0
  1  2  1  0
  2  3  1  0
  3  4  2  0
  4  5  1  0
  5  6  1  0
  5  7  1  0
  5  8  1  0
  8  9  1  6
  8 10  1  0
 10 11  1  0
  8 12  1  0
 12 13  1  0
 12 14  1  0
 12 15  1  0
 15 16  1  6
 15 17  1  0
 17 18  2  0
 17 19  1  0
 19 20  1  0
 20 21  1  6
 20 22  1  0
 22 23  2  0
 23 24  1  0
 23 25  1  0
 25 26  1  0
 25 27  2  0
 27 28  1  0
 27 29  1  0
 29 30  1  0
 29 31  2  0
 31 32  1  0
 20 33  1  0
 33 34  1  0
 33 35  1  0
 33 36  1  0
 36 37  2  0
 37 38  1  0
 37 39  1  0
 39 40  1  0
 39 41  2  0
 41 42  1  0
 41 43  1  0
 43 44  1  0
 43 45  2  0
 45 46  1  0
  3 47  1  0
 47 48  1  0
 47 49  1  0
 47 50  1  0
 50 51  1  0
 50 52  1  0
 52 53  2  0
 52 54  1  0
 54 55  2  0
 55 56  1  0
 56 57  2  0
 57 58  1  0
 57 59  1  0
 59 60  1  0
 59 61  2  0
 61 62  1  0
 61 63  1  0
 63 64  1  0
 63 65  2  0
 65 66  1  0
 66 67  1  0
 66 68  2  0
 68 69  1  0
 15  4  1  0
 31 22  1  0
 45 36  1  0
 68 54  1  0
 65 56  1  0
M  CHG  2   4   1  19  -1
M  END
>  <UniqueID>  (17) 
1

>  <SMILES>  (17) 
O=C(NC/C(O)=[N+]1\C[C@H](O)C[C@H]1C(=O)[N-][C@@H](Cc1ccc(F)cc1)c1ccccc1)c1ccc2cc(F)ccc2n1

>  <Energy>  (17) 
69.41988689770481

>  <Genealogy>  (17) 
O=C(NCC(=O)[NH+]1C[C@H](O)C[C@H]1C(=O)[N-][C@@H](Cc1ccc(F)cc1)c1ccccc1)c1ccc2cc(F)ccc2n1 (protonated)
O=C(NCC(O)=[N+]1C[C@H](O)C[C@H]1C(=O)[N-][C@@H](Cc1ccc(F)cc1)c1ccccc1)c1ccc2cc(F)ccc2n1 (tautomer)
O=C(NC/C(O)=[N+]1\C[C@H](O)C[C@H]1C(=O)[N-][C@@H](Cc1ccc(F)cc1)c1ccccc1)c1ccc2cc(F)ccc2n1 (cis-trans isomerization)
O=C(NC/C(O)=[N+]1\C[C@H](O)C[C@H]1C(=O)[N-][C@@H](Cc1ccc(F)cc1)c1ccccc1)c1ccc2cc(F)ccc2n1 (3D coordinates assigned)
O=C(NC/C(O)=[N+]1\C[C@H](O)C[C@H]1C(=O)[N-][C@@H](Cc1ccc(F)cc1)c1ccccc1)c1ccc2cc(F)ccc2n1 (nonaromatic ring conformer: 69.41988689770481 kcal/mol)

>  <smiles>  (17) 
O=C(NCC(=O)N1C[C@H](O)C[C@H]1C(=O)N[C@@H](Cc1ccc(F)cc1)c1ccccc1)c1ccc2cc(F)ccc2n1

>  <score_type>  (17) 
oracle

>  <origin>  (17) 
autodockgpu

>  <m_score__min__energy>  (17) 
-9.4900000000000002

>  <m_primary>  (17) 
energy

>  <meeko>  (17) 
{"free_energy": -8.56, "intermolecular_energy": -12.14, "internal_energy": -3.41, "cluster_size": 1, "cluster_id": 3, "rank_in_cluster": 1}

>  <energy>  (17) 
-5.51

>  <cluster_rmsd>  (17) 
1.95

>  <rmsd>  (17) 
271.18

>  <cluster>  (17) 
10

$$$$
XFBXCNWOYUAVIW-REVFFLAHNA-N
     RDKit          3D

 69 73  0  0  0  0  0  0  0  0999 V2000
  139.3720   75.1230  223.2830 H   0  0  0  0  0  0  0  0  0  0  0  0
  139.5470   74.4560  222.5440 O   0  0  0  0  0  0  0  0  0  0  0  0
  138.6180   74.1140  221.5530 C   0  0  0  0  0  0  0  0  0  0  0  0
  138.2910   74.9690  220.6050 N   0  0  0  0  0  0  0  0  0  0  0  0
  137.0550   74.8990  219.8290 C   0  0  0  0  0  0  0  0  0  0  0  0
  137.0148   73.9568  219.2628 H   0  0  0  0  0  0  0  0  0  0  0  0
  136.1720   74.9306  220.4842 H   0  0  0  0  0  0  0  0  0  0  0  0
  137.0750   76.0890  218.8720 C   0  0  2  0  0  0  0  0  0  0  0  0
  136.3676   76.8718  219.1831 H   0  0  0  0  0  0  0  0  0  0  0  0
  136.6880   75.6940  217.5840 O   0  0  0  0  0  0  0  0  0  0  0  0
  136.0950   76.4080  217.2370 H   0  0  0  0  0  0  0  0  0  0  0  0
  138.5110   76.6090  218.8810 C   0  0  0  0  0  0  0  0  0  0  0  0
  139.0609   76.2303  218.0068 H   0  0  0  0  0  0  0  0  0  0  0  0
  138.5438   77.7075  218.8338 H   0  0  0  0  0  0  0  0  0  0  0  0
  139.1370   76.0830  220.1720 C   0  0  1  0  0  0  0  0  0  0  0  0
  140.1768   75.7640  220.0075 H   0  0  0  0  0  0  0  0  0  0  0  0
  139.1730   77.1560  221.2290 C   0  0  0  0  0  0  0  0  0  0  0  0
  138.6420   76.9450  222.3530 O   0  0  0  0  0  0  0  0  0  0  0  0
  139.8300   78.3990  220.9610 N   0  0  0  0  0  0  0  0  0  0  0  0
  141.2770   78.5950  221.0380 C   0  0  2  0  0  0  0  0  0  0  0  0
  141.7493   77.6267  221.2601 H   0  0  0  0  0  0  0  0  0  0  0  0
  141.6460   79.5400  222.1680 C   0  0  0  0  0  0  0  0  0  0  0  0
  142.9800   79.6280  222.5990 C   0  0  0  0  0  0  0  0  0  0  0  0
  143.7465   78.9861  222.1402 H   0  0  0  0  0  0  0  0  0  0  0  0
  143.3390   80.5270  223.6080 C   0  0  0  0  0  0  0  0  0  0  0  0
  144.3840   80.5839  223.9468 H   0  0  0  0  0  0  0  0  0  0  0  0
  142.3710   81.3540  224.1870 C   0  0  0  0  0  0  0  0  0  0  0  0
  142.6556   82.0623  224.9790 H   0  0  0  0  0  0  0  0  0  0  0  0
  141.0430   81.2810  223.7600 C   0  0  0  0  0  0  0  0  0  0  0  0
  140.2827   81.9344  224.2127 H   0  0  0  0  0  0  0  0  0  0  0  0
  140.6810   80.3780  222.7580 C   0  0  0  0  0  0  0  0  0  0  0  0
  139.6335   80.3211  222.4272 H   0  0  0  0  0  0  0  0  0  0  0  0
  141.8160   79.0990  219.6820 C   0  0  0  0  0  0  0  0  0  0  0  0
  140.9771   79.5166  219.1059 H   0  0  0  0  0  0  0  0  0  0  0  0
  142.5865   79.8540  219.8971 H   0  0  0  0  0  0  0  0  0  0  0  0
  142.4700   78.0120  218.8590 C   0  0  0  0  0  0  0  0  0  0  0  0
  142.8200   76.7870  219.4550 C   0  0  0  0  0  0  0  0  0  0  0  0
  142.6534   76.6339  220.5315 H   0  0  0  0  0  0  0  0  0  0  0  0
  143.3790   75.7630  218.6840 C   0  0  0  0  0  0  0  0  0  0  0  0
  143.6546   74.8082  219.1557 H   0  0  0  0  0  0  0  0  0  0  0  0
  143.5880   75.9510  217.3150 C   0  0  0  0  0  0  0  0  0  0  0  0
  144.1270   74.9540  216.5690 F   0  0  0  0  0  0  0  0  0  0  0  0
  143.2430   77.1660  216.7150 C   0  0  0  0  0  0  0  0  0  0  0  0
  143.4041   77.3115  215.6366 H   0  0  0  0  0  0  0  0  0  0  0  0
  142.6930   78.1970  217.4850 C   0  0  0  0  0  0  0  0  0  0  0  0
  142.4344   79.1559  217.0122 H   0  0  0  0  0  0  0  0  0  0  0  0
  138.0580   72.7040  221.5960 C   0  0  0  0  0  0  0  0  0  0  0  0
  138.3556   72.1731  220.6797 H   0  0  0  0  0  0  0  0  0  0  0  0
  136.9626   72.7698  221.6721 H   0  0  0  0  0  0  0  0  0  0  0  0
  138.5560   71.9640  222.7580 N   0  0  0  0  0  0  0  0  0  0  0  0
  139.0800   72.4620  223.5100 H   0  0  0  0  0  0  0  0  0  0  0  0
  138.3160   70.5570  222.9050 C   0  0  0  0  0  0  0  0  0  0  0  0
  137.6280   69.9500  222.0420 O   0  0  0  0  0  0  0  0  0  0  0  0
  138.8670   69.8160  224.0620 C   0  0  0  0  0  0  0  0  0  0  0  0
  139.4420   70.5040  225.0890 N   0  0  0  0  0  0  0  0  0  0  0  0
  139.9740   69.8770  226.1730 C   0  0  0  0  0  0  0  0  0  0  0  0
  140.5620   70.6250  227.1990 C   0  0  0  0  0  0  0  0  0  0  0  0
  140.5911   71.7226  227.1322 H   0  0  0  0  0  0  0  0  0  0  0  0
  141.1130   69.9770  228.3100 C   0  0  0  0  0  0  0  0  0  0  0  0
  141.5714   70.5672  229.1172 H   0  0  0  0  0  0  0  0  0  0  0  0
  141.0830   68.5790  228.3980 C   0  0  0  0  0  0  0  0  0  0  0  0
  141.6210   67.9590  229.4780 F   0  0  0  0  0  0  0  0  0  0  0  0
  140.5000   67.8230  227.3750 C   0  0  0  0  0  0  0  0  0  0  0  0
  140.4790   66.7254  227.4444 H   0  0  0  0  0  0  0  0  0  0  0  0
  139.9420   68.4680  226.2600 C   0  0  0  0  0  0  0  0  0  0  0  0
  139.3530   67.7390  225.2190 C   0  0  0  0  0  0  0  0  0  0  0  0
  139.3140   66.6408  225.2679 H   0  0  0  0  0  0  0  0  0  0  0  0
  138.8150   68.4110  224.1180 C   0  0  0  0  0  0  0  0  0  0  0  0
  138.3522   67.8431  223.2975 H   0  0  0  0  0  0  0  0  0  0  0  0
  1  2  1  0
  2  3  1  0
  3  4  2  0
  4  5  1  0
  5  6  1  0
  5  7  1  0
  5  8  1  0
  8  9  1  1
  8 10  1  0
 10 11  1  0
  8 12  1  0
 12 13  1  0
 12 14  1  0
 12 15  1  0
 15 16  1  6
 15 17  1  0
 17 18  2  0
 17 19  1  0
 19 20  1  0
 20 21  1  1
 20 22  1  0
 22 23  2  0
 23 24  1  0
 23 25  1  0
 25 26  1  0
 25 27  2  0
 27 28  1  0
 27 29  1  0
 29 30  1  0
 29 31  2  0
 31 32  1  0
 20 33  1  0
 33 34  1  0
 33 35  1  0
 33 36  1  0
 36 37  2  0
 37 38  1  0
 37 39  1  0
 39 40  1  0
 39 41  2  0
 41 42  1  0
 41 43  1  0
 43 44  1  0
 43 45  2  0
 45 46  1  0
  3 47  1  0
 47 48  1  0
 47 49  1  0
 47 50  1  0
 50 51  1  0
 50 52  1  0
 52 53  2  0
 52 54  1  0
 54 55  2  0
 55 56  1  0
 56 57  2  0
 57 58  1  0
 57 59  1  0
 59 60  1  0
 59 61  2  0
 61 62  1  0
 61 63  1  0
 63 64  1  0
 63 65  2  0
 65 66  1  0
 66 67  1  0
 66 68  2  0
 68 69  1  0
 15  4  1  0
 31 22  1  0
 45 36  1  0
 68 54  1  0
 65 56  1  0
M  CHG  2   4   1  19  -1
M  END
>  <UniqueID>  (18) 
1

>  <SMILES>  (18) 
O=C(NC/C(O)=[N+]1\C[C@H](O)C[C@H]1C(=O)[N-][C@@H](Cc1ccc(F)cc1)c1ccccc1)c1ccc2cc(F)ccc2n1

>  <Energy>  (18) 
69.41988689770481

>  <Genealogy>  (18) 
O=C(NCC(=O)[NH+]1C[C@H](O)C[C@H]1C(=O)[N-][C@@H](Cc1ccc(F)cc1)c1ccccc1)c1ccc2cc(F)ccc2n1 (protonated)
O=C(NCC(O)=[N+]1C[C@H](O)C[C@H]1C(=O)[N-][C@@H](Cc1ccc(F)cc1)c1ccccc1)c1ccc2cc(F)ccc2n1 (tautomer)
O=C(NC/C(O)=[N+]1\C[C@H](O)C[C@H]1C(=O)[N-][C@@H](Cc1ccc(F)cc1)c1ccccc1)c1ccc2cc(F)ccc2n1 (cis-trans isomerization)
O=C(NC/C(O)=[N+]1\C[C@H](O)C[C@H]1C(=O)[N-][C@@H](Cc1ccc(F)cc1)c1ccccc1)c1ccc2cc(F)ccc2n1 (3D coordinates assigned)
O=C(NC/C(O)=[N+]1\C[C@H](O)C[C@H]1C(=O)[N-][C@@H](Cc1ccc(F)cc1)c1ccccc1)c1ccc2cc(F)ccc2n1 (nonaromatic ring conformer: 69.41988689770481 kcal/mol)

>  <smiles>  (18) 
O=C(NCC(=O)N1C[C@H](O)C[C@H]1C(=O)N[C@@H](Cc1ccc(F)cc1)c1ccccc1)c1ccc2cc(F)ccc2n1

>  <score_type>  (18) 
oracle

>  <origin>  (18) 
autodockgpu

>  <m_score__min__energy>  (18) 
-9.4900000000000002

>  <m_primary>  (18) 
energy

>  <meeko>  (18) 
{"free_energy": -8.44, "intermolecular_energy": -12.02, "internal_energy": -3.5, "cluster_size": 5, "cluster_id": 2, "rank_in_cluster": 5}

>  <energy>  (18) 
-6.23

>  <cluster_rmsd>  (18) 
0.0

>  <rmsd>  (18) 
271.43

>  <cluster>  (18) 
11

$$$$
XFBXCNWOYUAVIW-REVFFLAHNA-N
     RDKit          3D

 69 73  0  0  0  0  0  0  0  0999 V2000
  140.9050   71.1970  219.9160 H   0  0  0  0  0  0  0  0  0  0  0  0
  141.1990   72.0960  219.5580 O   0  0  0  0  0  0  0  0  0  0  0  0
  140.6320   73.3200  219.9330 C   0  0  0  0  0  0  0  0  0  0  0  0
  141.2040   74.4620  219.6070 N   0  0  0  0  0  0  0  0  0  0  0  0
  141.2010   75.0260  218.2590 C   0  0  0  0  0  0  0  0  0  0  0  0
  141.7138   74.3470  217.5618 H   0  0  0  0  0  0  0  0  0  0  0  0
  140.1747   75.1678  217.8894 H   0  0  0  0  0  0  0  0  0  0  0  0
  141.9460   76.3560  218.3440 C   0  0  2  0  0  0  0  0  0  0  0  0
  141.2583   77.2118  218.2758 H   0  0  0  0  0  0  0  0  0  0  0  0
  142.8480   76.4850  217.2780 O   0  0  0  0  0  0  0  0  0  0  0  0
  142.9630   77.4570  217.1230 H   0  0  0  0  0  0  0  0  0  0  0  0
  142.6750   76.3430  219.6850 C   0  0  0  0  0  0  0  0  0  0  0  0
  143.7286   76.0593  219.5451 H   0  0  0  0  0  0  0  0  0  0  0  0
  142.6660   77.3354  220.1594 H   0  0  0  0  0  0  0  0  0  0  0  0
  141.9540   75.3040  220.5430 C   0  0  1  0  0  0  0  0  0  0  0  0
  142.6675   74.7156  221.1387 H   0  0  0  0  0  0  0  0  0  0  0  0
  141.0180   75.9670  221.5180 C   0  0  0  0  0  0  0  0  0  0  0  0
  140.3360   75.2600  222.3100 O   0  0  0  0  0  0  0  0  0  0  0  0
  140.9250   77.3940  221.5600 N   0  0  0  0  0  0  0  0  0  0  0  0
  140.9960   78.1850  222.7880 C   0  0  2  0  0  0  0  0  0  0  0  0
  141.2234   77.5097  223.6260 H   0  0  0  0  0  0  0  0  0  0  0  0
  139.6640   78.8440  223.0960 C   0  0  0  0  0  0  0  0  0  0  0  0
  139.6090   79.9290  223.9890 C   0  0  0  0  0  0  0  0  0  0  0  0
  140.5264   80.2736  224.4886 H   0  0  0  0  0  0  0  0  0  0  0  0
  138.3940   80.5720  224.2450 C   0  0  0  0  0  0  0  0  0  0  0  0
  138.3573   81.4139  224.9520 H   0  0  0  0  0  0  0  0  0  0  0  0
  137.2260   80.1480  223.6050 C   0  0  0  0  0  0  0  0  0  0  0  0
  136.2724   80.6582  223.8059 H   0  0  0  0  0  0  0  0  0  0  0  0
  137.2700   79.0760  222.7100 C   0  0  0  0  0  0  0  0  0  0  0  0
  136.3514   78.7431  222.2047 H   0  0  0  0  0  0  0  0  0  0  0  0
  138.4810   78.4270  222.4570 C   0  0  0  0  0  0  0  0  0  0  0  0
  138.5104   77.5828  221.7524 H   0  0  0  0  0  0  0  0  0  0  0  0
  142.1300   79.2260  222.6830 C   0  0  0  0  0  0  0  0  0  0  0  0
  142.2720   79.6887  223.6708 H   0  0  0  0  0  0  0  0  0  0  0  0
  143.0304   78.6943  222.3416 H   0  0  0  0  0  0  0  0  0  0  0  0
  141.8460   80.3190  221.6770 C   0  0  0  0  0  0  0  0  0  0  0  0
  141.6190   81.6380  222.1100 C   0  0  0  0  0  0  0  0  0  0  0  0
  141.6099   81.8675  223.1858 H   0  0  0  0  0  0  0  0  0  0  0  0
  141.4050   82.6580  221.1790 C   0  0  0  0  0  0  0  0  0  0  0  0
  141.2238   83.6869  221.5232 H   0  0  0  0  0  0  0  0  0  0  0  0
  141.4210   82.3720  219.8110 C   0  0  0  0  0  0  0  0  0  0  0  0
  141.2170   83.3650  218.9090 F   0  0  0  0  0  0  0  0  0  0  0  0
  141.6460   81.0630  219.3720 C   0  0  0  0  0  0  0  0  0  0  0  0
  141.6625   80.8401  218.2949 H   0  0  0  0  0  0  0  0  0  0  0  0
  141.8500   80.0370  220.3010 C   0  0  0  0  0  0  0  0  0  0  0  0
  142.0140   79.0065  219.9528 H   0  0  0  0  0  0  0  0  0  0  0  0
  139.3090   73.2640  220.6750 C   0  0  0  0  0  0  0  0  0  0  0  0
  138.6340   72.5715  220.1508 H   0  0  0  0  0  0  0  0  0  0  0  0
  138.8847   74.2785  220.7019 H   0  0  0  0  0  0  0  0  0  0  0  0
  139.4870   72.8030  222.0540 N   0  0  0  0  0  0  0  0  0  0  0  0
  139.3120   73.4530  222.8500 H   0  0  0  0  0  0  0  0  0  0  0  0
  139.8790   71.4530  222.3440 C   0  0  0  0  0  0  0  0  0  0  0  0
  140.0320   70.6330  221.4000 O   0  0  0  0  0  0  0  0  0  0  0  0
  140.1010   71.0180  223.7410 C   0  0  0  0  0  0  0  0  0  0  0  0
  139.7440   69.7570  224.1170 N   0  0  0  0  0  0  0  0  0  0  0  0
  139.9150   69.3050  225.3900 C   0  0  0  0  0  0  0  0  0  0  0  0
  139.5240   68.0050  225.7320 C   0  0  0  0  0  0  0  0  0  0  0  0
  139.0810   67.3455  224.9712 H   0  0  0  0  0  0  0  0  0  0  0  0
  139.6970   67.5450  227.0420 C   0  0  0  0  0  0  0  0  0  0  0  0
  139.3934   66.5217  227.3078 H   0  0  0  0  0  0  0  0  0  0  0  0
  140.2550   68.3820  228.0160 C   0  0  0  0  0  0  0  0  0  0  0  0
  140.4170   67.9280  229.2840 F   0  0  0  0  0  0  0  0  0  0  0  0
  140.6450   69.6840  227.6840 C   0  0  0  0  0  0  0  0  0  0  0  0
  141.0810   70.3409  228.4511 H   0  0  0  0  0  0  0  0  0  0  0  0
  140.4790   70.1510  226.3700 C   0  0  0  0  0  0  0  0  0  0  0  0
  140.8570   71.4490  226.0070 C   0  0  0  0  0  0  0  0  0  0  0  0
  141.3007   72.1234  226.7542 H   0  0  0  0  0  0  0  0  0  0  0  0
  140.6690   71.8860  224.6920 C   0  0  0  0  0  0  0  0  0  0  0  0
  140.9642   72.9051  224.4018 H   0  0  0  0  0  0  0  0  0  0  0  0
  1  2  1  0
  2  3  1  0
  3  4  2  0
  4  5  1  0
  5  6  1  0
  5  7  1  0
  5  8  1  0
  8  9  1  1
  8 10  1  0
 10 11  1  0
  8 12  1  0
 12 13  1  0
 12 14  1  0
 12 15  1  0
 15 16  1  1
 15 17  1  0
 17 18  2  0
 17 19  1  0
 19 20  1  0
 20 21  1  1
 20 22  1  0
 22 23  2  0
 23 24  1  0
 23 25  1  0
 25 26  1  0
 25 27  2  0
 27 28  1  0
 27 29  1  0
 29 30  1  0
 29 31  2  0
 31 32  1  0
 20 33  1  0
 33 34  1  0
 33 35  1  0
 33 36  1  0
 36 37  2  0
 37 38  1  0
 37 39  1  0
 39 40  1  0
 39 41  2  0
 41 42  1  0
 41 43  1  0
 43 44  1  0
 43 45  2  0
 45 46  1  0
  3 47  1  0
 47 48  1  0
 47 49  1  0
 47 50  1  0
 50 51  1  0
 50 52  1  0
 52 53  2  0
 52 54  1  0
 54 55  2  0
 55 56  1  0
 56 57  2  0
 57 58  1  0
 57 59  1  0
 59 60  1  0
 59 61  2  0
 61 62  1  0
 61 63  1  0
 63 64  1  0
 63 65  2  0
 65 66  1  0
 66 67  1  0
 66 68  2  0
 68 69  1  0
 15  4  1  0
 31 22  1  0
 45 36  1  0
 68 54  1  0
 65 56  1  0
M  CHG  2   4   1  19  -1
M  END
>  <UniqueID>  (19) 
1

>  <SMILES>  (19) 
O=C(NC/C(O)=[N+]1\C[C@H](O)C[C@H]1C(=O)[N-][C@@H](Cc1ccc(F)cc1)c1ccccc1)c1ccc2cc(F)ccc2n1

>  <Energy>  (19) 
69.41988689770481

>  <Genealogy>  (19) 
O=C(NCC(=O)[NH+]1C[C@H](O)C[C@H]1C(=O)[N-][C@@H](Cc1ccc(F)cc1)c1ccccc1)c1ccc2cc(F)ccc2n1 (protonated)
O=C(NCC(O)=[N+]1C[C@H](O)C[C@H]1C(=O)[N-][C@@H](Cc1ccc(F)cc1)c1ccccc1)c1ccc2cc(F)ccc2n1 (tautomer)
O=C(NC/C(O)=[N+]1\C[C@H](O)C[C@H]1C(=O)[N-][C@@H](Cc1ccc(F)cc1)c1ccccc1)c1ccc2cc(F)ccc2n1 (cis-trans isomerization)
O=C(NC/C(O)=[N+]1\C[C@H](O)C[C@H]1C(=O)[N-][C@@H](Cc1ccc(F)cc1)c1ccccc1)c1ccc2cc(F)ccc2n1 (3D coordinates assigned)
O=C(NC/C(O)=[N+]1\C[C@H](O)C[C@H]1C(=O)[N-][C@@H](Cc1ccc(F)cc1)c1ccccc1)c1ccc2cc(F)ccc2n1 (nonaromatic ring conformer: 69.41988689770481 kcal/mol)

>  <smiles>  (19) 
O=C(NCC(=O)N1C[C@H](O)C[C@H]1C(=O)N[C@@H](Cc1ccc(F)cc1)c1ccccc1)c1ccc2cc(F)ccc2n1

>  <score_type>  (19) 
oracle

>  <origin>  (19) 
autodockgpu

>  <m_score__min__energy>  (19) 
-9.4900000000000002

>  <m_primary>  (19) 
energy

>  <meeko>  (19) 
{"free_energy": -8.44, "intermolecular_energy": -12.02, "internal_energy": -3.83, "cluster_size": 1, "cluster_id": 5, "rank_in_cluster": 1}

>  <energy>  (19) 
-6.03

>  <cluster_rmsd>  (19) 
0.0

>  <rmsd>  (19) 
270.88

>  <cluster>  (19) 
12

$$$$
XFBXCNWOYUAVIW-REVFFLAHNA-N
     RDKit          3D

 69 73  0  0  0  0  0  0  0  0999 V2000
  135.9130   74.7550  219.7460 H   0  0  0  0  0  0  0  0  0  0  0  0
  136.2720   73.8150  219.8330 O   0  0  0  0  0  0  0  0  0  0  0  0
  137.1540   73.3960  220.8360 C   0  0  0  0  0  0  0  0  0  0  0  0
  138.1700   72.6030  220.5600 N   0  0  0  0  0  0  0  0  0  0  0  0
  138.2120   71.6900  219.4200 C   0  0  0  0  0  0  0  0  0  0  0  0
  137.4036   70.9481  219.4976 H   0  0  0  0  0  0  0  0  0  0  0  0
  138.0762   72.2314  218.4721 H   0  0  0  0  0  0  0  0  0  0  0  0
  139.5710   70.9960  219.4690 C   0  0  2  0  0  0  0  0  0  0  0  0
  140.2471   71.3718  218.6869 H   0  0  0  0  0  0  0  0  0  0  0  0
  139.4300   69.6190  219.2450 O   0  0  0  0  0  0  0  0  0  0  0  0
  138.6030   69.5040  218.7090 H   0  0  0  0  0  0  0  0  0  0  0  0
  140.1330   71.2730  220.8610 C   0  0  0  0  0  0  0  0  0  0  0  0
  139.9604   70.4110  221.5221 H   0  0  0  0  0  0  0  0  0  0  0  0
  141.2188   71.4470  220.8317 H   0  0  0  0  0  0  0  0  0  0  0  0
  139.3810   72.4990  221.3780 C   0  0  1  0  0  0  0  0  0  0  0  0
  139.1422   72.3966  222.4469 H   0  0  0  0  0  0  0  0  0  0  0  0
  140.2180   73.7430  221.2370 C   0  0  0  0  0  0  0  0  0  0  0  0
  140.4620   74.4520  222.2510 O   0  0  0  0  0  0  0  0  0  0  0  0
  140.7540   74.1000  219.9590 N   0  0  0  0  0  0  0  0  0  0  0  0
  141.9400   74.9350  219.7700 C   0  0  2  0  0  0  0  0  0  0  0  0
  142.0295   75.1789  218.7011 H   0  0  0  0  0  0  0  0  0  0  0  0
  143.2040   74.1930  220.1650 C   0  0  0  0  0  0  0  0  0  0  0  0
  143.2070   72.7880  220.2080 C   0  0  0  0  0  0  0  0  0  0  0  0
  142.2835   72.2318  219.9896 H   0  0  0  0  0  0  0  0  0  0  0  0
  144.3780   72.0940  220.5270 C   0  0  0  0  0  0  0  0  0  0  0  0
  144.3699   70.9949  220.5695 H   0  0  0  0  0  0  0  0  0  0  0  0
  145.5590   72.7930  220.7920 C   0  0  0  0  0  0  0  0  0  0  0  0
  146.4796   72.2439  221.0391 H   0  0  0  0  0  0  0  0  0  0  0  0
  145.5700   74.1900  220.7430 C   0  0  0  0  0  0  0  0  0  0  0  0
  146.4998   74.7408  220.9483 H   0  0  0  0  0  0  0  0  0  0  0  0
  144.3990   74.8860  220.4330 C   0  0  0  0  0  0  0  0  0  0  0  0
  144.4112   75.9854  220.3981 H   0  0  0  0  0  0  0  0  0  0  0  0
  141.7900   76.2530  220.5580 C   0  0  0  0  0  0  0  0  0  0  0  0
  140.7701   76.3013  220.9673 H   0  0  0  0  0  0  0  0  0  0  0  0
  142.5536   76.2489  221.3497 H   0  0  0  0  0  0  0  0  0  0  0  0
  142.0270   77.4840  219.7120 C   0  0  0  0  0  0  0  0  0  0  0  0
  141.6720   78.7560  220.1960 C   0  0  0  0  0  0  0  0  0  0  0  0
  141.1843   78.8517  221.1773 H   0  0  0  0  0  0  0  0  0  0  0  0
  141.9360   79.8990  219.4360 C   0  0  0  0  0  0  0  0  0  0  0  0
  141.6519   80.8908  219.8176 H   0  0  0  0  0  0  0  0  0  0  0  0
  142.5610   79.7820  218.1910 C   0  0  0  0  0  0  0  0  0  0  0  0
  142.8200   80.8940  217.4570 F   0  0  0  0  0  0  0  0  0  0  0  0
  142.9170   78.5220  217.7020 C   0  0  0  0  0  0  0  0  0  0  0  0
  143.4118   78.4324  216.7237 H   0  0  0  0  0  0  0  0  0  0  0  0
  142.6450   77.3740  218.4550 C   0  0  0  0  0  0  0  0  0  0  0  0
  142.9158   76.3831  218.0617 H   0  0  0  0  0  0  0  0  0  0  0  0
  136.9160   73.9430  222.2320 C   0  0  0  0  0  0  0  0  0  0  0  0
  137.1915   73.1743  222.9690 H   0  0  0  0  0  0  0  0  0  0  0  0
  135.8523   74.2082  222.3225 H   0  0  0  0  0  0  0  0  0  0  0  0
  137.7130   75.1470  222.4790 N   0  0  0  0  0  0  0  0  0  0  0  0
  138.5490   75.1030  223.1000 H   0  0  0  0  0  0  0  0  0  0  0  0
  137.3830   76.3990  221.8590 C   0  0  0  0  0  0  0  0  0  0  0  0
  136.4160   76.4590  221.0540 O   0  0  0  0  0  0  0  0  0  0  0  0
  138.1710   77.6170  222.1570 C   0  0  0  0  0  0  0  0  0  0  0  0
  139.4340   77.4950  222.6540 N   0  0  0  0  0  0  0  0  0  0  0  0
  140.2010   78.5780  222.9560 C   0  0  0  0  0  0  0  0  0  0  0  0
  141.4900   78.4040  223.4720 C   0  0  0  0  0  0  0  0  0  0  0  0
  141.8871   77.3904  223.6301 H   0  0  0  0  0  0  0  0  0  0  0  0
  142.2740   79.5200  223.7870 C   0  0  0  0  0  0  0  0  0  0  0  0
  143.2877   79.3809  224.1909 H   0  0  0  0  0  0  0  0  0  0  0  0
  141.7730   80.8130  223.5900 C   0  0  0  0  0  0  0  0  0  0  0  0
  142.5390   81.8890  223.8990 F   0  0  0  0  0  0  0  0  0  0  0  0
  140.4830   80.9960  223.0770 C   0  0  0  0  0  0  0  0  0  0  0  0
  140.0893   82.0119  222.9258 H   0  0  0  0  0  0  0  0  0  0  0  0
  139.6930   79.8810  222.7560 C   0  0  0  0  0  0  0  0  0  0  0  0
  138.3990   80.0310  222.2430 C   0  0  0  0  0  0  0  0  0  0  0  0
  137.9848   81.0364  222.0765 H   0  0  0  0  0  0  0  0  0  0  0  0
  137.6350   78.9000  221.9430 C   0  0  0  0  0  0  0  0  0  0  0  0
  136.6174   79.0126  221.5407 H   0  0  0  0  0  0  0  0  0  0  0  0
  1  2  1  0
  2  3  1  0
  3  4  2  0
  4  5  1  0
  5  6  1  0
  5  7  1  0
  5  8  1  0
  8  9  1  6
  8 10  1  0
 10 11  1  0
  8 12  1  0
 12 13  1  0
 12 14  1  0
 12 15  1  0
 15 16  1  1
 15 17  1  0
 17 18  2  0
 17 19  1  0
 19 20  1  0
 20 21  1  6
 20 22  1  0
 22 23  2  0
 23 24  1  0
 23 25  1  0
 25 26  1  0
 25 27  2  0
 27 28  1  0
 27 29  1  0
 29 30  1  0
 29 31  2  0
 31 32  1  0
 20 33  1  0
 33 34  1  0
 33 35  1  0
 33 36  1  0
 36 37  2  0
 37 38  1  0
 37 39  1  0
 39 40  1  0
 39 41  2  0
 41 42  1  0
 41 43  1  0
 43 44  1  0
 43 45  2  0
 45 46  1  0
  3 47  1  0
 47 48  1  0
 47 49  1  0
 47 50  1  0
 50 51  1  0
 50 52  1  0
 52 53  2  0
 52 54  1  0
 54 55  2  0
 55 56  1  0
 56 57  2  0
 57 58  1  0
 57 59  1  0
 59 60  1  0
 59 61  2  0
 61 62  1  0
 61 63  1  0
 63 64  1  0
 63 65  2  0
 65 66  1  0
 66 67  1  0
 66 68  2  0
 68 69  1  0
 15  4  1  0
 31 22  1  0
 45 36  1  0
 68 54  1  0
 65 56  1  0
M  CHG  2   4   1  19  -1
M  END
>  <UniqueID>  (20) 
1

>  <SMILES>  (20) 
O=C(NC/C(O)=[N+]1\C[C@H](O)C[C@H]1C(=O)[N-][C@@H](Cc1ccc(F)cc1)c1ccccc1)c1ccc2cc(F)ccc2n1

>  <Energy>  (20) 
69.41988689770481

>  <Genealogy>  (20) 
O=C(NCC(=O)[NH+]1C[C@H](O)C[C@H]1C(=O)[N-][C@@H](Cc1ccc(F)cc1)c1ccccc1)c1ccc2cc(F)ccc2n1 (protonated)
O=C(NCC(O)=[N+]1C[C@H](O)C[C@H]1C(=O)[N-][C@@H](Cc1ccc(F)cc1)c1ccccc1)c1ccc2cc(F)ccc2n1 (tautomer)
O=C(NC/C(O)=[N+]1\C[C@H](O)C[C@H]1C(=O)[N-][C@@H](Cc1ccc(F)cc1)c1ccccc1)c1ccc2cc(F)ccc2n1 (cis-trans isomerization)
O=C(NC/C(O)=[N+]1\C[C@H](O)C[C@H]1C(=O)[N-][C@@H](Cc1ccc(F)cc1)c1ccccc1)c1ccc2cc(F)ccc2n1 (3D coordinates assigned)
O=C(NC/C(O)=[N+]1\C[C@H](O)C[C@H]1C(=O)[N-][C@@H](Cc1ccc(F)cc1)c1ccccc1)c1ccc2cc(F)ccc2n1 (nonaromatic ring conformer: 69.41988689770481 kcal/mol)

>  <smiles>  (20) 
O=C(NCC(=O)N1C[C@H](O)C[C@H]1C(=O)N[C@@H](Cc1ccc(F)cc1)c1ccccc1)c1ccc2cc(F)ccc2n1

>  <score_type>  (20) 
oracle

>  <origin>  (20) 
autodockgpu

>  <m_score__min__energy>  (20) 
-9.4900000000000002

>  <m_primary>  (20) 
energy

>  <meeko>  (20) 
{"free_energy": -6.73, "intermolecular_energy": -10.31, "internal_energy": -5.26, "cluster_size": 1, "cluster_id": 9, "rank_in_cluster": 1}

>  <energy>  (20) 
-6.03

>  <cluster_rmsd>  (20) 
0.13

>  <rmsd>  (20) 
270.84

>  <cluster>  (20) 
12

$$$$
XFBXCNWOYUAVIW-ZAPLKEHQNA-M
     RDKit          3D

 68 72  0  0  0  0  0  0  0  0999 V2000
  140.5390   74.7390  222.0600 H   0  0  0  0  0  0  0  0  0  0  0  0
  140.8310   73.8060  222.3150 O   0  0  0  0  0  0  0  0  0  0  0  0
  140.0340   72.6710  222.1360 C   0  0  0  0  0  0  0  0  0  0  0  0
  139.3930   72.4500  221.0220 N   0  0  0  0  0  0  0  0  0  0  0  0
  138.2870   73.2400  220.4870 C   0  0  0  0  0  0  0  0  0  0  0  0
  137.9545   72.7974  219.5364 H   0  0  0  0  0  0  0  0  0  0  0  0
  138.6351   74.2714  220.3285 H   0  0  0  0  0  0  0  0  0  0  0  0
  137.1370   73.2640  221.4460 C   0  0  0  0  0  0  0  0  0  0  0  0
  136.4840   72.2140  221.6800 O   0  0  0  0  0  0  0  0  0  0  0  0
  136.7690   74.4830  222.0960 N   0  0  0  0  0  0  0  0  0  0  0  0
  135.8290   74.5260  223.1980 C   0  0  0  0  0  0  0  0  0  0  0  0
  136.1589   73.8641  224.0123 H   0  0  0  0  0  0  0  0  0  0  0  0
  134.8275   74.1845  222.8972 H   0  0  0  0  0  0  0  0  0  0  0  0
  135.8200   75.9800  223.6610 C   0  0  2  0  0  0  0  0  0  0  0  0
  136.4065   76.1202  224.5810 H   0  0  0  0  0  0  0  0  0  0  0  0
  134.5140   76.3970  223.9620 O   0  0  0  0  0  0  0  0  0  0  0  0
  133.9250   75.9990  223.2690 H   0  0  0  0  0  0  0  0  0  0  0  0
  136.4100   76.7880  222.4980 C   0  0  0  0  0  0  0  0  0  0  0  0
  137.0542   77.5937  222.8798 H   0  0  0  0  0  0  0  0  0  0  0  0
  135.6217   77.2609  221.8938 H   0  0  0  0  0  0  0  0  0  0  0  0
  137.2330   75.7940  221.6710 C   0  0  1  0  0  0  0  0  0  0  0  0
  137.1025   75.9601  220.5915 H   0  0  0  0  0  0  0  0  0  0  0  0
  138.7140   75.9410  221.9460 C   0  0  0  0  0  0  0  0  0  0  0  0
  139.1540   75.6430  223.0880 O   0  0  0  0  0  0  0  0  0  0  0  0
  139.6420   76.4240  220.9640 N   0  0  0  0  0  0  0  0  0  0  0  0
  141.0820   76.6240  221.1320 C   0  0  2  0  0  0  0  0  0  0  0  0
  141.4603   75.9058  221.8744 H   0  0  0  0  0  0  0  0  0  0  0  0
  141.3470   78.0330  221.6270 C   0  0  0  0  0  0  0  0  0  0  0  0
  141.6260   79.0820  220.7310 C   0  0  0  0  0  0  0  0  0  0  0  0
  141.6230   78.8928  219.6474 H   0  0  0  0  0  0  0  0  0  0  0  0
  141.9070   80.3640  221.2140 C   0  0  0  0  0  0  0  0  0  0  0  0
  142.1073   81.1841  220.5088 H   0  0  0  0  0  0  0  0  0  0  0  0
  141.9340   80.6060  222.5890 C   0  0  0  0  0  0  0  0  0  0  0  0
  142.1484   81.6171  222.9656 H   0  0  0  0  0  0  0  0  0  0  0  0
  141.6890   79.5650  223.4850 C   0  0  0  0  0  0  0  0  0  0  0  0
  141.7204   79.7536  224.5683 H   0  0  0  0  0  0  0  0  0  0  0  0
  141.4040   78.2840  223.0080 C   0  0  0  0  0  0  0  0  0  0  0  0
  141.2227   77.4648  223.7193 H   0  0  0  0  0  0  0  0  0  0  0  0
  141.8170   76.3760  219.7990 C   0  0  0  0  0  0  0  0  0  0  0  0
  141.0726   76.2244  219.0034 H   0  0  0  0  0  0  0  0  0  0  0  0
  142.4471   77.2518  219.5847 H   0  0  0  0  0  0  0  0  0  0  0  0
  142.7060   75.1620  219.8750 C   0  0  0  0  0  0  0  0  0  0  0  0
  144.0850   75.3110  220.0990 C   0  0  0  0  0  0  0  0  0  0  0  0
  144.5088   76.3132  220.2601 H   0  0  0  0  0  0  0  0  0  0  0  0
  144.9210   74.1900  220.1180 C   0  0  0  0  0  0  0  0  0  0  0  0
  145.9980   74.3108  220.3062 H   0  0  0  0  0  0  0  0  0  0  0  0
  144.3890   72.9160  219.8980 C   0  0  0  0  0  0  0  0  0  0  0  0
  145.2030   71.8310  219.9020 F   0  0  0  0  0  0  0  0  0  0  0  0
  143.0190   72.7600  219.6670 C   0  0  0  0  0  0  0  0  0  0  0  0
  142.6018   71.7572  219.4930 H   0  0  0  0  0  0  0  0  0  0  0  0
  142.1790   73.8770  219.6570 C   0  0  0  0  0  0  0  0  0  0  0  0
  141.1011   73.7502  219.4778 H   0  0  0  0  0  0  0  0  0  0  0  0
  139.9140   71.7190  223.2570 C   0  0  0  0  0  0  0  0  0  0  0  0
  140.4850   72.0350  224.4530 N   0  0  0  0  0  0  0  0  0  0  0  0
  140.4070   71.2140  225.5330 C   0  0  0  0  0  0  0  0  0  0  0  0
  141.0310   71.5700  226.7340 C   0  0  0  0  0  0  0  0  0  0  0  0
  141.5663   72.5277  226.8129 H   0  0  0  0  0  0  0  0  0  0  0  0
  140.9740   70.7080  227.8340 C   0  0  0  0  0  0  0  0  0  0  0  0
  141.4657   70.9889  228.7771 H   0  0  0  0  0  0  0  0  0  0  0  0
  140.2930   69.4890  227.7380 C   0  0  0  0  0  0  0  0  0  0  0  0
  140.2440   68.6560  228.8060 F   0  0  0  0  0  0  0  0  0  0  0  0
  139.6630   69.1260  226.5430 C   0  0  0  0  0  0  0  0  0  0  0  0
  139.1279   68.1676  226.4711 H   0  0  0  0  0  0  0  0  0  0  0  0
  139.7150   69.9870  225.4360 C   0  0  0  0  0  0  0  0  0  0  0  0
  139.1100   69.6470  224.2210 C   0  0  0  0  0  0  0  0  0  0  0  0
  138.5545   68.7021  224.1280 H   0  0  0  0  0  0  0  0  0  0  0  0
  139.2120   70.5080  223.1270 C   0  0  0  0  0  0  0  0  0  0  0  0
  138.7453   70.2401  222.1676 H   0  0  0  0  0  0  0  0  0  0  0  0
  1  2  1  0
  2  3  1  0
  3  4  2  0
  4  5  1  0
  5  6  1  0
  5  7  1  0
  5  8  1  0
  8  9  2  0
  8 10  1  0
 10 11  1  0
 11 12  1  0
 11 13  1  0
 11 14  1  0
 14 15  1  1
 14 16  1  0
 16 17  1  0
 14 18  1  0
 18 19  1  0
 18 20  1  0
 18 21  1  0
 21 22  1  6
 21 23  1  0
 23 24  2  0
 23 25  1  0
 25 26  1  0
 26 27  1  1
 26 28  1  0
 28 29  2  0
 29 30  1  0
 29 31  1  0
 31 32  1  0
 31 33  2  0
 33 34  1  0
 33 35  1  0
 35 36  1  0
 35 37  2  0
 37 38  1  0
 26 39  1  0
 39 40  1  0
 39 41  1  0
 39 42  1  0
 42 43  2  0
 43 44  1  0
 43 45  1  0
 45 46  1  0
 45 47  2  0
 47 48  1  0
 47 49  1  0
 49 50  1  0
 49 51  2  0
 51 52  1  0
  3 53  1  0
 53 54  2  0
 54 55  1  0
 55 56  2  0
 56 57  1  0
 56 58  1  0
 58 59  1  0
 58 60  2  0
 60 61  1  0
 60 62  1  0
 62 63  1  0
 62 64  2  0
 64 65  1  0
 65 66  1  0
 65 67  2  0
 67 68  1  0
 21 10  1  0
 37 28  1  0
 51 42  1  0
 67 53  1  0
 64 55  1  0
M  CHG  1  25  -1
M  END
>  <UniqueID>  (21) 
2

>  <SMILES>  (21) 
O=C([N-][C@@H](Cc1ccc(F)cc1)c1ccccc1)[C@@H]1C[C@@H](O)CN1C(=O)C/N=C(\O)c1ccc2cc(F)ccc2n1

>  <Energy>  (21) 
70.53272038268653

>  <Genealogy>  (21) 
O=C(NCC(=O)N1C[C@H](O)C[C@H]1C(=O)[N-][C@@H](Cc1ccc(F)cc1)c1ccccc1)c1ccc2cc(F)ccc2n1 (protonated)
O=C([N-][C@@H](Cc1ccc(F)cc1)c1ccccc1)[C@@H]1C[C@@H](O)CN1C(=O)CN=C(O)c1ccc2cc(F)ccc2n1 (tautomer)
O=C([N-][C@@H](Cc1ccc(F)cc1)c1ccccc1)[C@@H]1C[C@@H](O)CN1C(=O)C/N=C(\O)c1ccc2cc(F)ccc2n1 (cis-trans isomerization)
O=C([N-][C@@H](Cc1ccc(F)cc1)c1ccccc1)[C@@H]1C[C@@H](O)CN1C(=O)C/N=C(\O)c1ccc2cc(F)ccc2n1 (3D coordinates assigned)
O=C([N-][C@@H](Cc1ccc(F)cc1)c1ccccc1)[C@@H]1C[C@@H](O)CN1C(=O)C/N=C(\O)c1ccc2cc(F)ccc2n1 (nonaromatic ring conformer: 70.53272038268653 kcal/mol)

>  <smiles>  (21) 
O=C(NCC(=O)N1C[C@H](O)C[C@H]1C(=O)N[C@@H](Cc1ccc(F)cc1)c1ccccc1)c1ccc2cc(F)ccc2n1

>  <score_type>  (21) 
oracle

>  <origin>  (21) 
autodockgpu

>  <m_score__min__energy>  (21) 
-9.3499999999999996

>  <m_primary>  (21) 
energy

>  <meeko>  (21) 
{"free_energy": -7.85, "intermolecular_energy": -11.73, "internal_energy": -4.28, "cluster_size": 5, "cluster_id": 3, "rank_in_cluster": 5}

>  <energy>  (21) 
-9.35

>  <cluster_rmsd>  (21) 
0.0

>  <rmsd>  (21) 
271.31

>  <cluster>  (21) 
1

$$$$
XFBXCNWOYUAVIW-ZAPLKEHQNA-M
     RDKit          3D

 68 72  0  0  0  0  0  0  0  0999 V2000
  138.9600   70.6120  220.4910 H   0  0  0  0  0  0  0  0  0  0  0  0
  138.5860   70.5820  221.4300 O   0  0  0  0  0  0  0  0  0  0  0  0
  139.2300   71.1460  222.5360 C   0  0  0  0  0  0  0  0  0  0  0  0
  139.6610   72.3760  222.5270 N   0  0  0  0  0  0  0  0  0  0  0  0
  141.0380   72.8100  222.3050 C   0  0  0  0  0  0  0  0  0  0  0  0
  141.7002   72.2812  223.0064 H   0  0  0  0  0  0  0  0  0  0  0  0
  141.0957   73.8963  222.4684 H   0  0  0  0  0  0  0  0  0  0  0  0
  141.4710   72.5120  220.9010 C   0  0  0  0  0  0  0  0  0  0  0  0
  140.8220   71.6950  220.1980 O   0  0  0  0  0  0  0  0  0  0  0  0
  142.6280   73.1490  220.3560 N   0  0  0  0  0  0  0  0  0  0  0  0
  143.6480   72.4210  219.6270 C   0  0  0  0  0  0  0  0  0  0  0  0
  143.2031   71.8779  218.7802 H   0  0  0  0  0  0  0  0  0  0  0  0
  144.1476   71.6712  220.2581 H   0  0  0  0  0  0  0  0  0  0  0  0
  144.6210   73.4850  219.1280 C   0  0  2  0  0  0  0  0  0  0  0  0
  144.4748   73.7048  218.0601 H   0  0  0  0  0  0  0  0  0  0  0  0
  145.9470   73.0450  219.2590 O   0  0  0  0  0  0  0  0  0  0  0  0
  146.5240   73.8100  218.9970 H   0  0  0  0  0  0  0  0  0  0  0  0
  144.3560   74.7260  219.9910 C   0  0  0  0  0  0  0  0  0  0  0  0
  144.4237   75.6384  219.3803 H   0  0  0  0  0  0  0  0  0  0  0  0
  145.0953   74.8209  220.8000 H   0  0  0  0  0  0  0  0  0  0  0  0
  142.9360   74.5580  220.5430 C   0  0  1  0  0  0  0  0  0  0  0  0
  142.8721   74.8694  221.5961 H   0  0  0  0  0  0  0  0  0  0  0  0
  141.9450   75.4160  219.7860 C   0  0  0  0  0  0  0  0  0  0  0  0
  141.3590   74.9300  218.7820 O   0  0  0  0  0  0  0  0  0  0  0  0
  141.6550   76.7740  220.1510 N   0  0  0  0  0  0  0  0  0  0  0  0
  140.7140   77.2300  221.1750 C   0  0  2  0  0  0  0  0  0  0  0  0
  139.7821   77.5539  220.6885 H   0  0  0  0  0  0  0  0  0  0  0  0
  141.3120   78.4010  221.9310 C   0  0  0  0  0  0  0  0  0  0  0  0
  141.8230   79.5250  221.2550 C   0  0  0  0  0  0  0  0  0  0  0  0
  141.7627   79.5784  220.1580 H   0  0  0  0  0  0  0  0  0  0  0  0
  142.4070   80.5740  221.9720 C   0  0  0  0  0  0  0  0  0  0  0  0
  142.7892   81.4571  221.4390 H   0  0  0  0  0  0  0  0  0  0  0  0
  142.5060   80.5030  223.3630 C   0  0  0  0  0  0  0  0  0  0  0  0
  142.9591   81.3328  223.9253 H   0  0  0  0  0  0  0  0  0  0  0  0
  142.0300   79.3790  224.0400 C   0  0  0  0  0  0  0  0  0  0  0  0
  142.1176   79.3184  225.1348 H   0  0  0  0  0  0  0  0  0  0  0  0
  141.4430   78.3320  223.3280 C   0  0  0  0  0  0  0  0  0  0  0  0
  141.0793   77.4441  223.8659 H   0  0  0  0  0  0  0  0  0  0  0  0
  140.3810   76.0790  222.1470 C   0  0  0  0  0  0  0  0  0  0  0  0
  140.9509   75.1856  221.8519 H   0  0  0  0  0  0  0  0  0  0  0  0
  140.6515   76.3970  223.1647 H   0  0  0  0  0  0  0  0  0  0  0  0
  138.9100   75.7500  222.1290 C   0  0  0  0  0  0  0  0  0  0  0  0
  138.0380   76.3700  223.0380 C   0  0  0  0  0  0  0  0  0  0  0  0
  138.4228   77.1277  223.7364 H   0  0  0  0  0  0  0  0  0  0  0  0
  136.6820   76.0280  223.0590 C   0  0  0  0  0  0  0  0  0  0  0  0
  136.0006   76.5262  223.7643 H   0  0  0  0  0  0  0  0  0  0  0  0
  136.1920   75.0540  222.1850 C   0  0  0  0  0  0  0  0  0  0  0  0
  134.8790   74.7140  222.2160 F   0  0  0  0  0  0  0  0  0  0  0  0
  137.0550   74.4270  221.2810 C   0  0  0  0  0  0  0  0  0  0  0  0
  136.6681   73.6609  220.5929 H   0  0  0  0  0  0  0  0  0  0  0  0
  138.4090   74.7730  221.2510 C   0  0  0  0  0  0  0  0  0  0  0  0
  139.0851   74.2789  220.5377 H   0  0  0  0  0  0  0  0  0  0  0  0
  139.4320   70.3010  223.7290 C   0  0  0  0  0  0  0  0  0  0  0  0
  140.0060   70.8500  224.8350 N   0  0  0  0  0  0  0  0  0  0  0  0
  140.2150   70.1370  225.9740 C   0  0  0  0  0  0  0  0  0  0  0  0
  140.8320   70.7380  227.0770 C   0  0  0  0  0  0  0  0  0  0  0  0
  141.1281   71.7965  227.0327 H   0  0  0  0  0  0  0  0  0  0  0  0
  141.0720   69.9920  228.2360 C   0  0  0  0  0  0  0  0  0  0  0  0
  141.5574   70.4652  229.1023 H   0  0  0  0  0  0  0  0  0  0  0  0
  140.6960   68.6450  228.2960 C   0  0  0  0  0  0  0  0  0  0  0  0
  140.9340   67.9270  229.4200 F   0  0  0  0  0  0  0  0  0  0  0  0
  140.0750   68.0370  227.1990 C   0  0  0  0  0  0  0  0  0  0  0  0
  139.7797   66.9786  227.2496 H   0  0  0  0  0  0  0  0  0  0  0  0
  139.8300   68.7800  226.0350 C   0  0  0  0  0  0  0  0  0  0  0  0
  139.2270   68.1980  224.9150 C   0  0  0  0  0  0  0  0  0  0  0  0
  138.9074   67.1459  224.9466 H   0  0  0  0  0  0  0  0  0  0  0  0
  139.0310   68.9530  223.7570 C   0  0  0  0  0  0  0  0  0  0  0  0
  138.5655   68.4961  222.8713 H   0  0  0  0  0  0  0  0  0  0  0  0
  1  2  1  0
  2  3  1  0
  3  4  2  0
  4  5  1  0
  5  6  1  0
  5  7  1  0
  5  8  1  0
  8  9  2  0
  8 10  1  0
 10 11  1  0
 11 12  1  0
 11 13  1  0
 11 14  1  0
 14 15  1  6
 14 16  1  0
 16 17  1  0
 14 18  1  0
 18 19  1  0
 18 20  1  0
 18 21  1  0
 21 22  1  1
 21 23  1  0
 23 24  2  0
 23 25  1  0
 25 26  1  0
 26 27  1  6
 26 28  1  0
 28 29  2  0
 29 30  1  0
 29 31  1  0
 31 32  1  0
 31 33  2  0
 33 34  1  0
 33 35  1  0
 35 36  1  0
 35 37  2  0
 37 38  1  0
 26 39  1  0
 39 40  1  0
 39 41  1  0
 39 42  1  0
 42 43  2  0
 43 44  1  0
 43 45  1  0
 45 46  1  0
 45 47  2  0
 47 48  1  0
 47 49  1  0
 49 50  1  0
 49 51  2  0
 51 52  1  0
  3 53  1  0
 53 54  2  0
 54 55  1  0
 55 56  2  0
 56 57  1  0
 56 58  1  0
 58 59  1  0
 58 60  2  0
 60 61  1  0
 60 62  1  0
 62 63  1  0
 62 64  2  0
 64 65  1  0
 65 66  1  0
 65 67  2  0
 67 68  1  0
 21 10  1  0
 37 28  1  0
 51 42  1  0
 67 53  1  0
 64 55  1  0
M  CHG  1  25  -1
M  END
>  <UniqueID>  (22) 
2

>  <SMILES>  (22) 
O=C([N-][C@@H](Cc1ccc(F)cc1)c1ccccc1)[C@@H]1C[C@@H](O)CN1C(=O)C/N=C(\O)c1ccc2cc(F)ccc2n1

>  <Energy>  (22) 
70.53272038268653

>  <Genealogy>  (22) 
O=C(NCC(=O)N1C[C@H](O)C[C@H]1C(=O)[N-][C@@H](Cc1ccc(F)cc1)c1ccccc1)c1ccc2cc(F)ccc2n1 (protonated)
O=C([N-][C@@H](Cc1ccc(F)cc1)c1ccccc1)[C@@H]1C[C@@H](O)CN1C(=O)CN=C(O)c1ccc2cc(F)ccc2n1 (tautomer)
O=C([N-][C@@H](Cc1ccc(F)cc1)c1ccccc1)[C@@H]1C[C@@H](O)CN1C(=O)C/N=C(\O)c1ccc2cc(F)ccc2n1 (cis-trans isomerization)
O=C([N-][C@@H](Cc1ccc(F)cc1)c1ccccc1)[C@@H]1C[C@@H](O)CN1C(=O)C/N=C(\O)c1ccc2cc(F)ccc2n1 (3D coordinates assigned)
O=C([N-][C@@H](Cc1ccc(F)cc1)c1ccccc1)[C@@H]1C[C@@H](O)CN1C(=O)C/N=C(\O)c1ccc2cc(F)ccc2n1 (nonaromatic ring conformer: 70.53272038268653 kcal/mol)

>  <smiles>  (22) 
O=C(NCC(=O)N1C[C@H](O)C[C@H]1C(=O)N[C@@H](Cc1ccc(F)cc1)c1ccccc1)c1ccc2cc(F)ccc2n1

>  <score_type>  (22) 
oracle

>  <origin>  (22) 
autodockgpu

>  <m_score__min__energy>  (22) 
-9.3499999999999996

>  <m_primary>  (22) 
energy

>  <meeko>  (22) 
{"free_energy": -8.35, "intermolecular_energy": -12.22, "internal_energy": -3.33, "cluster_size": 1, "cluster_id": 4, "rank_in_cluster": 1}

>  <energy>  (22) 
-9.11

>  <cluster_rmsd>  (22) 
1.72

>  <rmsd>  (22) 
271.24

>  <cluster>  (22) 
1

$$$$
XFBXCNWOYUAVIW-ZAPLKEHQNA-M
     RDKit          3D

 68 72  0  0  0  0  0  0  0  0999 V2000
  140.5770   74.5000  222.0930 H   0  0  0  0  0  0  0  0  0  0  0  0
  140.8660   73.5580  222.3160 O   0  0  0  0  0  0  0  0  0  0  0  0
  140.0240   72.4460  222.2060 C   0  0  0  0  0  0  0  0  0  0  0  0
  139.3300   72.2130  221.1270 N   0  0  0  0  0  0  0  0  0  0  0  0
  138.2610   73.0490  220.5860 C   0  0  0  0  0  0  0  0  0  0  0  0
  137.8572   72.5758  219.6788 H   0  0  0  0  0  0  0  0  0  0  0  0
  138.6743   74.0405  220.3490 H   0  0  0  0  0  0  0  0  0  0  0  0
  137.1580   73.2150  221.5860 C   0  0  0  0  0  0  0  0  0  0  0  0
  136.5100   72.2130  221.9880 O   0  0  0  0  0  0  0  0  0  0  0  0
  136.8290   74.5130  222.0840 N   0  0  0  0  0  0  0  0  0  0  0  0
  135.8380   74.7230  223.1210 C   0  0  0  0  0  0  0  0  0  0  0  0
  136.0872   74.1356  224.0170 H   0  0  0  0  0  0  0  0  0  0  0  0
  134.8349   74.4044  222.8011 H   0  0  0  0  0  0  0  0  0  0  0  0
  135.8900   76.2160  223.4290 C   0  0  2  0  0  0  0  0  0  0  0  0
  136.4366   76.4222  224.3611 H   0  0  0  0  0  0  0  0  0  0  0  0
  134.5960   76.7310  223.6110 O   0  0  0  0  0  0  0  0  0  0  0  0
  133.9680   75.9840  223.4270 H   0  0  0  0  0  0  0  0  0  0  0  0
  136.5840   76.8640  222.2240 C   0  0  0  0  0  0  0  0  0  0  0  0
  137.2535   77.6710  222.5564 H   0  0  0  0  0  0  0  0  0  0  0  0
  135.8561   77.3106  221.5306 H   0  0  0  0  0  0  0  0  0  0  0  0
  137.3890   75.7460  221.5520 C   0  0  1  0  0  0  0  0  0  0  0  0
  137.3233   75.8034  220.4555 H   0  0  0  0  0  0  0  0  0  0  0  0
  138.8600   75.8430  221.8950 C   0  0  0  0  0  0  0  0  0  0  0  0
  139.2220   75.6660  223.0890 O   0  0  0  0  0  0  0  0  0  0  0  0
  139.8670   76.1480  220.9170 N   0  0  0  0  0  0  0  0  0  0  0  0
  141.2810   76.4300  221.1650 C   0  0  2  0  0  0  0  0  0  0  0  0
  141.6719   75.7021  221.8911 H   0  0  0  0  0  0  0  0  0  0  0  0
  141.4290   77.8270  221.7360 C   0  0  0  0  0  0  0  0  0  0  0  0
  141.6750   78.9360  220.9050 C   0  0  0  0  0  0  0  0  0  0  0  0
  141.7306   78.8015  219.8147 H   0  0  0  0  0  0  0  0  0  0  0  0
  141.8490   80.2080  221.4590 C   0  0  0  0  0  0  0  0  0  0  0  0
  142.0232   81.0734  220.8027 H   0  0  0  0  0  0  0  0  0  0  0  0
  141.8020   80.3820  222.8440 C   0  0  0  0  0  0  0  0  0  0  0  0
  141.9320   81.3847  223.2773 H   0  0  0  0  0  0  0  0  0  0  0  0
  141.5900   79.2830  223.6780 C   0  0  0  0  0  0  0  0  0  0  0  0
  141.5639   79.4186  224.7693 H   0  0  0  0  0  0  0  0  0  0  0  0
  141.4110   78.0120  223.1290 C   0  0  0  0  0  0  0  0  0  0  0  0
  141.2546   77.1484  223.7921 H   0  0  0  0  0  0  0  0  0  0  0  0
  142.0900   76.2960  219.8580 C   0  0  0  0  0  0  0  0  0  0  0  0
  141.3922   76.2500  219.0089 H   0  0  0  0  0  0  0  0  0  0  0  0
  142.7542   77.1687  219.7724 H   0  0  0  0  0  0  0  0  0  0  0  0
  142.9410   75.0530  219.8600 C   0  0  0  0  0  0  0  0  0  0  0  0
  142.3520   73.7940  219.6580 C   0  0  0  0  0  0  0  0  0  0  0  0
  141.2732   73.7199  219.4566 H   0  0  0  0  0  0  0  0  0  0  0  0
  143.1320   72.6340  219.7120 C   0  0  0  0  0  0  0  0  0  0  0  0
  142.6679   71.6515  219.5409 H   0  0  0  0  0  0  0  0  0  0  0  0
  144.5000   72.7220  219.9830 C   0  0  0  0  0  0  0  0  0  0  0  0
  145.2520   71.5950  220.0480 F   0  0  0  0  0  0  0  0  0  0  0  0
  145.0920   73.9710  220.1920 C   0  0  0  0  0  0  0  0  0  0  0  0
  146.1689   74.0396  220.4056 H   0  0  0  0  0  0  0  0  0  0  0  0
  144.3180   75.1320  220.1300 C   0  0  0  0  0  0  0  0  0  0  0  0
  144.7884   76.1129  220.2933 H   0  0  0  0  0  0  0  0  0  0  0  0
  139.9190   71.5350  223.3620 C   0  0  0  0  0  0  0  0  0  0  0  0
  140.4960   71.8970  224.5410 N   0  0  0  0  0  0  0  0  0  0  0  0
  140.4320   71.1150  225.6510 C   0  0  0  0  0  0  0  0  0  0  0  0
  141.0620   71.5180  226.8330 C   0  0  0  0  0  0  0  0  0  0  0  0
  141.5913   72.4814  226.8732 H   0  0  0  0  0  0  0  0  0  0  0  0
  141.0190   70.6960  227.9640 C   0  0  0  0  0  0  0  0  0  0  0  0
  141.5152   71.0143  228.8927 H   0  0  0  0  0  0  0  0  0  0  0  0
  140.3460   69.4690  227.9170 C   0  0  0  0  0  0  0  0  0  0  0  0
  140.3110   68.6750  229.0150 F   0  0  0  0  0  0  0  0  0  0  0  0
  139.7100   69.0600  226.7400 C   0  0  0  0  0  0  0  0  0  0  0  0
  139.1807   68.0963  226.7064 H   0  0  0  0  0  0  0  0  0  0  0  0
  139.7480   69.8800  225.6030 C   0  0  0  0  0  0  0  0  0  0  0  0
  139.1370   69.4920  224.4060 C   0  0  0  0  0  0  0  0  0  0  0  0
  138.5877   68.5405  224.3514 H   0  0  0  0  0  0  0  0  0  0  0  0
  139.2250   70.3140  223.2800 C   0  0  0  0  0  0  0  0  0  0  0  0
  138.7541   70.0082  222.3341 H   0  0  0  0  0  0  0  0  0  0  0  0
  1  2  1  0
  2  3  1  0
  3  4  2  0
  4  5  1  0
  5  6  1  0
  5  7  1  0
  5  8  1  0
  8  9  2  0
  8 10  1  0
 10 11  1  0
 11 12  1  0
 11 13  1  0
 11 14  1  0
 14 15  1  1
 14 16  1  0
 16 17  1  0
 14 18  1  0
 18 19  1  0
 18 20  1  0
 18 21  1  0
 21 22  1  6
 21 23  1  0
 23 24  2  0
 23 25  1  0
 25 26  1  0
 26 27  1  1
 26 28  1  0
 28 29  2  0
 29 30  1  0
 29 31  1  0
 31 32  1  0
 31 33  2  0
 33 34  1  0
 33 35  1  0
 35 36  1  0
 35 37  2  0
 37 38  1  0
 26 39  1  0
 39 40  1  0
 39 41  1  0
 39 42  1  0
 42 43  2  0
 43 44  1  0
 43 45  1  0
 45 46  1  0
 45 47  2  0
 47 48  1  0
 47 49  1  0
 49 50  1  0
 49 51  2  0
 51 52  1  0
  3 53  1  0
 53 54  2  0
 54 55  1  0
 55 56  2  0
 56 57  1  0
 56 58  1  0
 58 59  1  0
 58 60  2  0
 60 61  1  0
 60 62  1  0
 62 63  1  0
 62 64  2  0
 64 65  1  0
 65 66  1  0
 65 67  2  0
 67 68  1  0
 21 10  1  0
 37 28  1  0
 51 42  1  0
 67 53  1  0
 64 55  1  0
M  CHG  1  25  -1
M  END
>  <UniqueID>  (23) 
2

>  <SMILES>  (23) 
O=C([N-][C@@H](Cc1ccc(F)cc1)c1ccccc1)[C@@H]1C[C@@H](O)CN1C(=O)C/N=C(\O)c1ccc2cc(F)ccc2n1

>  <Energy>  (23) 
70.53272038268653

>  <Genealogy>  (23) 
O=C(NCC(=O)N1C[C@H](O)C[C@H]1C(=O)[N-][C@@H](Cc1ccc(F)cc1)c1ccccc1)c1ccc2cc(F)ccc2n1 (protonated)
O=C([N-][C@@H](Cc1ccc(F)cc1)c1ccccc1)[C@@H]1C[C@@H](O)CN1C(=O)CN=C(O)c1ccc2cc(F)ccc2n1 (tautomer)
O=C([N-][C@@H](Cc1ccc(F)cc1)c1ccccc1)[C@@H]1C[C@@H](O)CN1C(=O)C/N=C(\O)c1ccc2cc(F)ccc2n1 (cis-trans isomerization)
O=C([N-][C@@H](Cc1ccc(F)cc1)c1ccccc1)[C@@H]1C[C@@H](O)CN1C(=O)C/N=C(\O)c1ccc2cc(F)ccc2n1 (3D coordinates assigned)
O=C([N-][C@@H](Cc1ccc(F)cc1)c1ccccc1)[C@@H]1C[C@@H](O)CN1C(=O)C/N=C(\O)c1ccc2cc(F)ccc2n1 (nonaromatic ring conformer: 70.53272038268653 kcal/mol)

>  <smiles>  (23) 
O=C(NCC(=O)N1C[C@H](O)C[C@H]1C(=O)N[C@@H](Cc1ccc(F)cc1)c1ccccc1)c1ccc2cc(F)ccc2n1

>  <score_type>  (23) 
oracle

>  <origin>  (23) 
autodockgpu

>  <m_score__min__energy>  (23) 
-9.3499999999999996

>  <m_primary>  (23) 
energy

>  <meeko>  (23) 
{"free_energy": -7.96, "intermolecular_energy": -11.84, "internal_energy": -4.31, "cluster_size": 5, "cluster_id": 3, "rank_in_cluster": 4}

>  <energy>  (23) 
-7.98

>  <cluster_rmsd>  (23) 
1.8

>  <rmsd>  (23) 
270.98

>  <cluster>  (23) 
1

$$$$
XFBXCNWOYUAVIW-ZAPLKEHQNA-M
     RDKit          3D

 68 72  0  0  0  0  0  0  0  0999 V2000
  138.8870   74.9010  222.8640 H   0  0  0  0  0  0  0  0  0  0  0  0
  138.0170   75.3830  222.6870 O   0  0  0  0  0  0  0  0  0  0  0  0
  137.9220   76.5500  221.9220 C   0  0  0  0  0  0  0  0  0  0  0  0
  137.2870   76.5760  220.7830 N   0  0  0  0  0  0  0  0  0  0  0  0
  137.8880   76.7040  219.4580 C   0  0  0  0  0  0  0  0  0  0  0  0
  138.4170   77.6663  219.3935 H   0  0  0  0  0  0  0  0  0  0  0  0
  137.0898   76.6541  218.7028 H   0  0  0  0  0  0  0  0  0  0  0  0
  138.8590   75.5920  219.2040 C   0  0  0  0  0  0  0  0  0  0  0  0
  138.4560   74.4890  218.7520 O   0  0  0  0  0  0  0  0  0  0  0  0
  140.2490   75.7750  219.4820 N   0  0  0  0  0  0  0  0  0  0  0  0
  140.9820   76.9500  219.0540 C   0  0  0  0  0  0  0  0  0  0  0  0
  140.4994   77.8640  219.4305 H   0  0  0  0  0  0  0  0  0  0  0  0
  141.0151   77.0370  217.9579 H   0  0  0  0  0  0  0  0  0  0  0  0
  142.3760   76.7940  219.6560 C   0  0  2  0  0  0  0  0  0  0  0  0
  142.5132   77.4298  220.5431 H   0  0  0  0  0  0  0  0  0  0  0  0
  143.3600   77.1880  218.7350 O   0  0  0  0  0  0  0  0  0  0  0  0
  144.0790   77.6250  219.2630 H   0  0  0  0  0  0  0  0  0  0  0  0
  142.5080   75.3080  220.0130 C   0  0  0  0  0  0  0  0  0  0  0  0
  143.0482   75.1896  220.9639 H   0  0  0  0  0  0  0  0  0  0  0  0
  143.0736   74.7575  219.2468 H   0  0  0  0  0  0  0  0  0  0  0  0
  141.0760   74.7780  220.1440 C   0  0  1  0  0  0  0  0  0  0  0  0
  140.9720   73.7778  219.6982 H   0  0  0  0  0  0  0  0  0  0  0  0
  140.6700   74.6380  221.5950 C   0  0  0  0  0  0  0  0  0  0  0  0
  140.9360   75.5750  222.3950 O   0  0  0  0  0  0  0  0  0  0  0  0
  140.0060   73.4740  222.1070 N   0  0  0  0  0  0  0  0  0  0  0  0
  140.6320   72.2590  222.6300 C   0  0  2  0  0  0  0  0  0  0  0  0
  141.3500   72.5340  223.4167 H   0  0  0  0  0  0  0  0  0  0  0  0
  141.3700   71.5450  221.5140 C   0  0  0  0  0  0  0  0  0  0  0  0
  142.6890   71.8940  221.1680 C   0  0  0  0  0  0  0  0  0  0  0  0
  143.2146   72.6774  221.7337 H   0  0  0  0  0  0  0  0  0  0  0  0
  143.3340   71.2490  220.1080 C   0  0  0  0  0  0  0  0  0  0  0  0
  144.3704   71.5149  219.8527 H   0  0  0  0  0  0  0  0  0  0  0  0
  142.6650   70.2680  219.3730 C   0  0  0  0  0  0  0  0  0  0  0  0
  143.1772   69.7562  218.5449 H   0  0  0  0  0  0  0  0  0  0  0  0
  141.3470   69.9370  219.6890 C   0  0  0  0  0  0  0  0  0  0  0  0
  140.8166   69.1726  219.1022 H   0  0  0  0  0  0  0  0  0  0  0  0
  140.7010   70.5750  220.7490 C   0  0  0  0  0  0  0  0  0  0  0  0
  139.6589   70.3161  220.9875 H   0  0  0  0  0  0  0  0  0  0  0  0
  139.5660   71.3310  223.2480 C   0  0  0  0  0  0  0  0  0  0  0  0
  138.6334   71.8985  223.3831 H   0  0  0  0  0  0  0  0  0  0  0  0
  139.4125   70.4809  222.5670 H   0  0  0  0  0  0  0  0  0  0  0  0
  140.0090   70.7920  224.5840 C   0  0  0  0  0  0  0  0  0  0  0  0
  139.6540   69.4900  224.9720 C   0  0  0  0  0  0  0  0  0  0  0  0
  139.0864   68.8479  224.2824 H   0  0  0  0  0  0  0  0  0  0  0  0
  140.0200   69.0070  226.2330 C   0  0  0  0  0  0  0  0  0  0  0  0
  139.7506   67.9820  226.5275 H   0  0  0  0  0  0  0  0  0  0  0  0
  140.7270   69.8240  227.1190 C   0  0  0  0  0  0  0  0  0  0  0  0
  141.0680   69.3590  228.3460 F   0  0  0  0  0  0  0  0  0  0  0  0
  141.0780   71.1250  226.7420 C   0  0  0  0  0  0  0  0  0  0  0  0
  141.6340   71.7682  227.4400 H   0  0  0  0  0  0  0  0  0  0  0  0
  140.7230   71.6080  225.4800 C   0  0  0  0  0  0  0  0  0  0  0  0
  141.0030   72.6303  225.1860 H   0  0  0  0  0  0  0  0  0  0  0  0
  138.5820   77.7700  222.4270 C   0  0  0  0  0  0  0  0  0  0  0  0
  139.9400   77.8530  222.3760 N   0  0  0  0  0  0  0  0  0  0  0  0
  140.6180   78.9470  222.8120 C   0  0  0  0  0  0  0  0  0  0  0  0
  142.0160   78.9760  222.7620 C   0  0  0  0  0  0  0  0  0  0  0  0
  142.5694   78.1207  222.3469 H   0  0  0  0  0  0  0  0  0  0  0  0
  142.7100   80.0930  223.2400 C   0  0  0  0  0  0  0  0  0  0  0  0
  143.8091   80.1144  223.2007 H   0  0  0  0  0  0  0  0  0  0  0  0
  142.0090   81.1830  223.7680 C   0  0  0  0  0  0  0  0  0  0  0  0
  142.6870   82.2610  224.2340 F   0  0  0  0  0  0  0  0  0  0  0  0
  140.6110   81.1650  223.8190 C   0  0  0  0  0  0  0  0  0  0  0  0
  140.0635   82.0242  224.2338 H   0  0  0  0  0  0  0  0  0  0  0  0
  139.9090   80.0490  223.3400 C   0  0  0  0  0  0  0  0  0  0  0  0
  138.5120   79.9910  223.3910 C   0  0  0  0  0  0  0  0  0  0  0  0
  137.9401   80.8437  223.7857 H   0  0  0  0  0  0  0  0  0  0  0  0
  137.8440   78.8510  222.9410 C   0  0  0  0  0  0  0  0  0  0  0  0
  136.7463   78.7985  222.9882 H   0  0  0  0  0  0  0  0  0  0  0  0
  1  2  1  0
  2  3  1  0
  3  4  2  0
  4  5  1  0
  5  6  1  0
  5  7  1  0
  5  8  1  0
  8  9  2  0
  8 10  1  0
 10 11  1  0
 11 12  1  0
 11 13  1  0
 11 14  1  0
 14 15  1  1
 14 16  1  0
 16 17  1  0
 14 18  1  0
 18 19  1  0
 18 20  1  0
 18 21  1  0
 21 22  1  6
 21 23  1  0
 23 24  2  0
 23 25  1  0
 25 26  1  0
 26 27  1  1
 26 28  1  0
 28 29  2  0
 29 30  1  0
 29 31  1  0
 31 32  1  0
 31 33  2  0
 33 34  1  0
 33 35  1  0
 35 36  1  0
 35 37  2  0
 37 38  1  0
 26 39  1  0
 39 40  1  0
 39 41  1  0
 39 42  1  0
 42 43  2  0
 43 44  1  0
 43 45  1  0
 45 46  1  0
 45 47  2  0
 47 48  1  0
 47 49  1  0
 49 50  1  0
 49 51  2  0
 51 52  1  0
  3 53  1  0
 53 54  2  0
 54 55  1  0
 55 56  2  0
 56 57  1  0
 56 58  1  0
 58 59  1  0
 58 60  2  0
 60 61  1  0
 60 62  1  0
 62 63  1  0
 62 64  2  0
 64 65  1  0
 65 66  1  0
 65 67  2  0
 67 68  1  0
 21 10  1  0
 37 28  1  0
 51 42  1  0
 67 53  1  0
 64 55  1  0
M  CHG  1  25  -1
M  END
>  <UniqueID>  (24) 
2

>  <SMILES>  (24) 
O=C([N-][C@@H](Cc1ccc(F)cc1)c1ccccc1)[C@@H]1C[C@@H](O)CN1C(=O)C/N=C(\O)c1ccc2cc(F)ccc2n1

>  <Energy>  (24) 
70.53272038268653

>  <Genealogy>  (24) 
O=C(NCC(=O)N1C[C@H](O)C[C@H]1C(=O)[N-][C@@H](Cc1ccc(F)cc1)c1ccccc1)c1ccc2cc(F)ccc2n1 (protonated)
O=C([N-][C@@H](Cc1ccc(F)cc1)c1ccccc1)[C@@H]1C[C@@H](O)CN1C(=O)CN=C(O)c1ccc2cc(F)ccc2n1 (tautomer)
O=C([N-][C@@H](Cc1ccc(F)cc1)c1ccccc1)[C@@H]1C[C@@H](O)CN1C(=O)C/N=C(\O)c1ccc2cc(F)ccc2n1 (cis-trans isomerization)
O=C([N-][C@@H](Cc1ccc(F)cc1)c1ccccc1)[C@@H]1C[C@@H](O)CN1C(=O)C/N=C(\O)c1ccc2cc(F)ccc2n1 (3D coordinates assigned)
O=C([N-][C@@H](Cc1ccc(F)cc1)c1ccccc1)[C@@H]1C[C@@H](O)CN1C(=O)C/N=C(\O)c1ccc2cc(F)ccc2n1 (nonaromatic ring conformer: 70.53272038268653 kcal/mol)

>  <smiles>  (24) 
O=C(NCC(=O)N1C[C@H](O)C[C@H]1C(=O)N[C@@H](Cc1ccc(F)cc1)c1ccccc1)c1ccc2cc(F)ccc2n1

>  <score_type>  (24) 
oracle

>  <origin>  (24) 
autodockgpu

>  <m_score__min__energy>  (24) 
-9.3499999999999996

>  <m_primary>  (24) 
energy

>  <meeko>  (24) 
{"free_energy": -7.94, "intermolecular_energy": -11.82, "internal_energy": -4.44, "cluster_size": 3, "cluster_id": 7, "rank_in_cluster": 2}

>  <energy>  (24) 
-7.87

>  <cluster_rmsd>  (24) 
1.74

>  <rmsd>  (24) 
271.02

>  <cluster>  (24) 
1

$$$$
XFBXCNWOYUAVIW-ZAPLKEHQNA-M
     RDKit          3D

 68 72  0  0  0  0  0  0  0  0999 V2000
  139.3220   73.8180  223.0850 H   0  0  0  0  0  0  0  0  0  0  0  0
  139.9600   73.0450  222.9550 O   0  0  0  0  0  0  0  0  0  0  0  0
  139.5440   71.7270  222.7410 C   0  0  0  0  0  0  0  0  0  0  0  0
  139.0480   71.3400  221.5990 N   0  0  0  0  0  0  0  0  0  0  0  0
  139.6480   71.5370  220.2810 C   0  0  0  0  0  0  0  0  0  0  0  0
  139.2318   70.7973  219.5813 H   0  0  0  0  0  0  0  0  0  0  0  0
  140.7374   71.4122  220.3679 H   0  0  0  0  0  0  0  0  0  0  0  0
  139.3630   72.9140  219.7660 C   0  0  0  0  0  0  0  0  0  0  0  0
  140.2520   73.5570  219.1490 O   0  0  0  0  0  0  0  0  0  0  0  0
  138.0820   73.5100  219.9800 N   0  0  0  0  0  0  0  0  0  0  0  0
  136.8420   72.7880  219.7750 C   0  0  0  0  0  0  0  0  0  0  0  0
  136.8269   71.8685  220.3786 H   0  0  0  0  0  0  0  0  0  0  0  0
  136.7137   72.4818  218.7263 H   0  0  0  0  0  0  0  0  0  0  0  0
  135.7420   73.7430  220.2280 C   0  0  2  0  0  0  0  0  0  0  0  0
  135.3539   73.4784  221.2227 H   0  0  0  0  0  0  0  0  0  0  0  0
  134.6460   73.6880  219.3520 O   0  0  0  0  0  0  0  0  0  0  0  0
  133.8740   74.0710  219.8440 H   0  0  0  0  0  0  0  0  0  0  0  0
  136.3820   75.1380  220.2350 C   0  0  0  0  0  0  0  0  0  0  0  0
  136.0217   75.7200  221.0961 H   0  0  0  0  0  0  0  0  0  0  0  0
  136.1242   75.7053  219.3286 H   0  0  0  0  0  0  0  0  0  0  0  0
  137.8930   74.9060  220.3430 C   0  0  1  0  0  0  0  0  0  0  0  0
  138.4556   75.5922  219.6929 H   0  0  0  0  0  0  0  0  0  0  0  0
  138.3890   75.1540  221.7510 C   0  0  0  0  0  0  0  0  0  0  0  0
  137.5620   75.1310  222.7020 O   0  0  0  0  0  0  0  0  0  0  0  0
  139.7650   75.4310  222.0530 N   0  0  0  0  0  0  0  0  0  0  0  0
  140.5250   76.6270  221.6860 C   0  0  2  0  0  0  0  0  0  0  0  0
  139.8589   77.3318  221.1668 H   0  0  0  0  0  0  0  0  0  0  0  0
  141.6610   76.2440  220.7570 C   0  0  0  0  0  0  0  0  0  0  0  0
  142.1050   77.1150  219.7460 C   0  0  0  0  0  0  0  0  0  0  0  0
  141.6468   78.1094  219.6400 H   0  0  0  0  0  0  0  0  0  0  0  0
  143.1260   76.7230  218.8750 C   0  0  0  0  0  0  0  0  0  0  0  0
  143.4796   77.4154  218.0968 H   0  0  0  0  0  0  0  0  0  0  0  0
  143.6980   75.4540  218.9910 C   0  0  0  0  0  0  0  0  0  0  0  0
  144.5073   75.1508  218.3105 H   0  0  0  0  0  0  0  0  0  0  0  0
  143.2420   74.5710  219.9710 C   0  0  0  0  0  0  0  0  0  0  0  0
  143.6840   73.5672  220.0545 H   0  0  0  0  0  0  0  0  0  0  0  0
  142.2260   74.9600  220.8450 C   0  0  0  0  0  0  0  0  0  0  0  0
  141.8644   74.2560  221.6090 H   0  0  0  0  0  0  0  0  0  0  0  0
  141.0760   77.3190  222.9500 C   0  0  0  0  0  0  0  0  0  0  0  0
  140.3766   77.1524  223.7825 H   0  0  0  0  0  0  0  0  0  0  0  0
  142.0631   76.8897  223.1764 H   0  0  0  0  0  0  0  0  0  0  0  0
  141.2420   78.8020  222.7390 C   0  0  0  0  0  0  0  0  0  0  0  0
  140.2270   79.5430  222.1120 C   0  0  0  0  0  0  0  0  0  0  0  0
  139.2923   79.0472  221.8110 H   0  0  0  0  0  0  0  0  0  0  0  0
  140.4010   80.9100  221.8690 C   0  0  0  0  0  0  0  0  0  0  0  0
  139.5978   81.4890  221.3897 H   0  0  0  0  0  0  0  0  0  0  0  0
  141.5930   81.5410  222.2340 C   0  0  0  0  0  0  0  0  0  0  0  0
  141.7650   82.8630  221.9850 F   0  0  0  0  0  0  0  0  0  0  0  0
  142.6100   80.8080  222.8530 C   0  0  0  0  0  0  0  0  0  0  0  0
  143.5481   81.3053  223.1406 H   0  0  0  0  0  0  0  0  0  0  0  0
  142.4370   79.4450  223.1070 C   0  0  0  0  0  0  0  0  0  0  0  0
  143.2387   78.8728  223.5967 H   0  0  0  0  0  0  0  0  0  0  0  0
  139.6610   70.7690  223.8580 C   0  0  0  0  0  0  0  0  0  0  0  0
  140.2480   71.1770  225.0160 N   0  0  0  0  0  0  0  0  0  0  0  0
  140.3810   70.3550  226.0910 C   0  0  0  0  0  0  0  0  0  0  0  0
  141.0150   70.8120  227.2520 C   0  0  0  0  0  0  0  0  0  0  0  0
  141.3857   71.8462  227.3057 H   0  0  0  0  0  0  0  0  0  0  0  0
  141.1770   69.9530  228.3440 C   0  0  0  0  0  0  0  0  0  0  0  0
  141.6759   70.3132  229.2558 H   0  0  0  0  0  0  0  0  0  0  0  0
  140.7060   68.6360  228.2800 C   0  0  0  0  0  0  0  0  0  0  0  0
  140.8690   67.8070  229.3390 F   0  0  0  0  0  0  0  0  0  0  0  0
  140.0680   68.1720  227.1240 C   0  0  0  0  0  0  0  0  0  0  0  0
  139.6980   67.1372  227.0768 H   0  0  0  0  0  0  0  0  0  0  0  0
  139.9010   69.0280  226.0260 C   0  0  0  0  0  0  0  0  0  0  0  0
  139.2830   68.5910  224.8500 C   0  0  0  0  0  0  0  0  0  0  0  0
  138.8893   67.5660  224.7833 H   0  0  0  0  0  0  0  0  0  0  0  0
  139.1660   69.4570  223.7600 C   0  0  0  0  0  0  0  0  0  0  0  0
  138.6891   69.1140  222.8300 H   0  0  0  0  0  0  0  0  0  0  0  0
  1  2  1  0
  2  3  1  0
  3  4  2  0
  4  5  1  0
  5  6  1  0
  5  7  1  0
  5  8  1  0
  8  9  2  0
  8 10  1  0
 10 11  1  0
 11 12  1  0
 11 13  1  0
 11 14  1  0
 14 15  1  1
 14 16  1  0
 16 17  1  0
 14 18  1  0
 18 19  1  0
 18 20  1  0
 18 21  1  0
 21 22  1  6
 21 23  1  0
 23 24  2  0
 23 25  1  0
 25 26  1  0
 26 27  1  6
 26 28  1  0
 28 29  2  0
 29 30  1  0
 29 31  1  0
 31 32  1  0
 31 33  2  0
 33 34  1  0
 33 35  1  0
 35 36  1  0
 35 37  2  0
 37 38  1  0
 26 39  1  0
 39 40  1  0
 39 41  1  0
 39 42  1  0
 42 43  2  0
 43 44  1  0
 43 45  1  0
 45 46  1  0
 45 47  2  0
 47 48  1  0
 47 49  1  0
 49 50  1  0
 49 51  2  0
 51 52  1  0
  3 53  1  0
 53 54  2  0
 54 55  1  0
 55 56  2  0
 56 57  1  0
 56 58  1  0
 58 59  1  0
 58 60  2  0
 60 61  1  0
 60 62  1  0
 62 63  1  0
 62 64  2  0
 64 65  1  0
 65 66  1  0
 65 67  2  0
 67 68  1  0
 21 10  1  0
 37 28  1  0
 51 42  1  0
 67 53  1  0
 64 55  1  0
M  CHG  1  25  -1
M  END
>  <UniqueID>  (25) 
2

>  <SMILES>  (25) 
O=C([N-][C@@H](Cc1ccc(F)cc1)c1ccccc1)[C@@H]1C[C@@H](O)CN1C(=O)C/N=C(\O)c1ccc2cc(F)ccc2n1

>  <Energy>  (25) 
70.53272038268653

>  <Genealogy>  (25) 
O=C(NCC(=O)N1C[C@H](O)C[C@H]1C(=O)[N-][C@@H](Cc1ccc(F)cc1)c1ccccc1)c1ccc2cc(F)ccc2n1 (protonated)
O=C([N-][C@@H](Cc1ccc(F)cc1)c1ccccc1)[C@@H]1C[C@@H](O)CN1C(=O)CN=C(O)c1ccc2cc(F)ccc2n1 (tautomer)
O=C([N-][C@@H](Cc1ccc(F)cc1)c1ccccc1)[C@@H]1C[C@@H](O)CN1C(=O)C/N=C(\O)c1ccc2cc(F)ccc2n1 (cis-trans isomerization)
O=C([N-][C@@H](Cc1ccc(F)cc1)c1ccccc1)[C@@H]1C[C@@H](O)CN1C(=O)C/N=C(\O)c1ccc2cc(F)ccc2n1 (3D coordinates assigned)
O=C([N-][C@@H](Cc1ccc(F)cc1)c1ccccc1)[C@@H]1C[C@@H](O)CN1C(=O)C/N=C(\O)c1ccc2cc(F)ccc2n1 (nonaromatic ring conformer: 70.53272038268653 kcal/mol)

>  <smiles>  (25) 
O=C(NCC(=O)N1C[C@H](O)C[C@H]1C(=O)N[C@@H](Cc1ccc(F)cc1)c1ccccc1)c1ccc2cc(F)ccc2n1

>  <score_type>  (25) 
oracle

>  <origin>  (25) 
autodockgpu

>  <m_score__min__energy>  (25) 
-9.3499999999999996

>  <m_primary>  (25) 
energy

>  <meeko>  (25) 
{"free_energy": -7.87, "intermolecular_energy": -11.75, "internal_energy": -3.9, "cluster_size": 1, "cluster_id": 8, "rank_in_cluster": 1}

>  <energy>  (25) 
-7.69

>  <cluster_rmsd>  (25) 
1.92

>  <rmsd>  (25) 
270.83

>  <cluster>  (25) 
1

$$$$
XFBXCNWOYUAVIW-ZAPLKEHQNA-M
     RDKit          3D

 68 72  0  0  0  0  0  0  0  0999 V2000
  138.5830   74.8570  222.7340 H   0  0  0  0  0  0  0  0  0  0  0  0
  137.7450   75.2990  222.3820 O   0  0  0  0  0  0  0  0  0  0  0  0
  137.7500   76.4940  221.6550 C   0  0  0  0  0  0  0  0  0  0  0  0
  137.1890   76.5850  220.4810 N   0  0  0  0  0  0  0  0  0  0  0  0
  137.8710   76.5460  219.1890 C   0  0  0  0  0  0  0  0  0  0  0  0
  138.4212   77.4873  219.0431 H   0  0  0  0  0  0  0  0  0  0  0  0
  137.1188   76.4155  218.3971 H   0  0  0  0  0  0  0  0  0  0  0  0
  138.8340   75.4000  219.1300 C   0  0  0  0  0  0  0  0  0  0  0  0
  138.4390   74.2570  218.7830 O   0  0  0  0  0  0  0  0  0  0  0  0
  140.2070   75.5970  219.4760 N   0  0  0  0  0  0  0  0  0  0  0  0
  140.9570   76.7650  219.0580 C   0  0  0  0  0  0  0  0  0  0  0  0
  140.4515   77.6853  219.3858 H   0  0  0  0  0  0  0  0  0  0  0  0
  141.0474   76.8248  217.9633 H   0  0  0  0  0  0  0  0  0  0  0  0
  142.3170   76.6320  219.7350 C   0  0  2  0  0  0  0  0  0  0  0  0
  142.4036   77.2915  220.6111 H   0  0  0  0  0  0  0  0  0  0  0  0
  143.3470   77.0080  218.8590 O   0  0  0  0  0  0  0  0  0  0  0  0
  144.0030   77.5200  219.3990 H   0  0  0  0  0  0  0  0  0  0  0  0
  142.4370   75.1560  220.1370 C   0  0  0  0  0  0  0  0  0  0  0  0
  142.9261   75.0650  221.1180 H   0  0  0  0  0  0  0  0  0  0  0  0
  143.0455   74.5892  219.4170 H   0  0  0  0  0  0  0  0  0  0  0  0
  141.0020   74.6220  220.2050 C   0  0  1  0  0  0  0  0  0  0  0  0
  140.9263   73.6105  219.7793 H   0  0  0  0  0  0  0  0  0  0  0  0
  140.5200   74.5170  221.6360 C   0  0  0  0  0  0  0  0  0  0  0  0
  140.6410   75.5150  222.3950 O   0  0  0  0  0  0  0  0  0  0  0  0
  139.9440   73.3180  222.1760 N   0  0  0  0  0  0  0  0  0  0  0  0
  140.6510   72.1000  222.5720 C   0  0  2  0  0  0  0  0  0  0  0  0
  141.3841   72.3481  223.3537 H   0  0  0  0  0  0  0  0  0  0  0  0
  141.3800   71.5210  221.3750 C   0  0  0  0  0  0  0  0  0  0  0  0
  140.7590   70.5960  220.5160 C   0  0  0  0  0  0  0  0  0  0  0  0
  139.7128   70.3041  220.6899 H   0  0  0  0  0  0  0  0  0  0  0  0
  141.4660   70.0460  219.4420 C   0  0  0  0  0  0  0  0  0  0  0  0
  140.9693   69.3373  218.7630 H   0  0  0  0  0  0  0  0  0  0  0  0
  142.8020   70.3950  219.2300 C   0  0  0  0  0  0  0  0  0  0  0  0
  143.3542   69.9663  218.3807 H   0  0  0  0  0  0  0  0  0  0  0  0
  143.4360   71.2870  220.0950 C   0  0  0  0  0  0  0  0  0  0  0  0
  144.4911   71.5531  219.9339 H   0  0  0  0  0  0  0  0  0  0  0  0
  142.7320   71.8420  221.1650 C   0  0  0  0  0  0  0  0  0  0  0  0
  143.2400   72.5368  221.8499 H   0  0  0  0  0  0  0  0  0  0  0  0
  139.6580   71.0670  223.1450 C   0  0  0  0  0  0  0  0  0  0  0  0
  138.6526   71.5126  223.1682 H   0  0  0  0  0  0  0  0  0  0  0  0
  139.6771   70.1760  222.5002 H   0  0  0  0  0  0  0  0  0  0  0  0
  140.0400   70.6480  224.5410 C   0  0  0  0  0  0  0  0  0  0  0  0
  139.6660   69.3840  225.0260 C   0  0  0  0  0  0  0  0  0  0  0  0
  139.1286   68.6829  224.3705 H   0  0  0  0  0  0  0  0  0  0  0  0
  139.9740   69.0130  226.3390 C   0  0  0  0  0  0  0  0  0  0  0  0
  139.6893   68.0173  226.7098 H   0  0  0  0  0  0  0  0  0  0  0  0
  140.6430   69.9060  227.1800 C   0  0  0  0  0  0  0  0  0  0  0  0
  140.9290   69.5500  228.4570 F   0  0  0  0  0  0  0  0  0  0  0  0
  141.0130   71.1690  226.7070 C   0  0  0  0  0  0  0  0  0  0  0  0
  141.5393   71.8713  227.3701 H   0  0  0  0  0  0  0  0  0  0  0  0
  140.7150   71.5400  225.3930 C   0  0  0  0  0  0  0  0  0  0  0  0
  141.0096   72.5335  225.0239 H   0  0  0  0  0  0  0  0  0  0  0  0
  138.4290   77.6640  222.2420 C   0  0  0  0  0  0  0  0  0  0  0  0
  139.7750   77.7930  222.0830 N   0  0  0  0  0  0  0  0  0  0  0  0
  140.4680   78.8490  222.5860 C   0  0  0  0  0  0  0  0  0  0  0  0
  141.8550   78.9250  222.4180 C   0  0  0  0  0  0  0  0  0  0  0  0
  142.3848   78.1413  221.8567 H   0  0  0  0  0  0  0  0  0  0  0  0
  142.5680   79.9980  222.9640 C   0  0  0  0  0  0  0  0  0  0  0  0
  143.6585   80.0560  222.8319 H   0  0  0  0  0  0  0  0  0  0  0  0
  141.8970   80.9980  223.6780 C   0  0  0  0  0  0  0  0  0  0  0  0
  142.5930   82.0330  224.2080 F   0  0  0  0  0  0  0  0  0  0  0  0
  140.5090   80.9320  223.8470 C   0  0  0  0  0  0  0  0  0  0  0  0
  139.9841   81.7202  224.4067 H   0  0  0  0  0  0  0  0  0  0  0  0
  139.7890   79.8600  223.3020 C   0  0  0  0  0  0  0  0  0  0  0  0
  138.4030   79.7550  223.4670 C   0  0  0  0  0  0  0  0  0  0  0  0
  137.8522   80.5384  224.0082 H   0  0  0  0  0  0  0  0  0  0  0  0
  137.7200   78.6550  222.9440 C   0  0  0  0  0  0  0  0  0  0  0  0
  136.6323   78.5641  223.0805 H   0  0  0  0  0  0  0  0  0  0  0  0
  1  2  1  0
  2  3  1  0
  3  4  2  0
  4  5  1  0
  5  6  1  0
  5  7  1  0
  5  8  1  0
  8  9  2  0
  8 10  1  0
 10 11  1  0
 11 12  1  0
 11 13  1  0
 11 14  1  0
 14 15  1  1
 14 16  1  0
 16 17  1  0
 14 18  1  0
 18 19  1  0
 18 20  1  0
 18 21  1  0
 21 22  1  6
 21 23  1  0
 23 24  2  0
 23 25  1  0
 25 26  1  0
 26 27  1  1
 26 28  1  0
 28 29  2  0
 29 30  1  0
 29 31  1  0
 31 32  1  0
 31 33  2  0
 33 34  1  0
 33 35  1  0
 35 36  1  0
 35 37  2  0
 37 38  1  0
 26 39  1  0
 39 40  1  0
 39 41  1  0
 39 42  1  0
 42 43  2  0
 43 44  1  0
 43 45  1  0
 45 46  1  0
 45 47  2  0
 47 48  1  0
 47 49  1  0
 49 50  1  0
 49 51  2  0
 51 52  1  0
  3 53  1  0
 53 54  2  0
 54 55  1  0
 55 56  2  0
 56 57  1  0
 56 58  1  0
 58 59  1  0
 58 60  2  0
 60 61  1  0
 60 62  1  0
 62 63  1  0
 62 64  2  0
 64 65  1  0
 65 66  1  0
 65 67  2  0
 67 68  1  0
 21 10  1  0
 37 28  1  0
 51 42  1  0
 67 53  1  0
 64 55  1  0
M  CHG  1  25  -1
M  END
>  <UniqueID>  (26) 
2

>  <SMILES>  (26) 
O=C([N-][C@@H](Cc1ccc(F)cc1)c1ccccc1)[C@@H]1C[C@@H](O)CN1C(=O)C/N=C(\O)c1ccc2cc(F)ccc2n1

>  <Energy>  (26) 
70.53272038268653

>  <Genealogy>  (26) 
O=C(NCC(=O)N1C[C@H](O)C[C@H]1C(=O)[N-][C@@H](Cc1ccc(F)cc1)c1ccccc1)c1ccc2cc(F)ccc2n1 (protonated)
O=C([N-][C@@H](Cc1ccc(F)cc1)c1ccccc1)[C@@H]1C[C@@H](O)CN1C(=O)CN=C(O)c1ccc2cc(F)ccc2n1 (tautomer)
O=C([N-][C@@H](Cc1ccc(F)cc1)c1ccccc1)[C@@H]1C[C@@H](O)CN1C(=O)C/N=C(\O)c1ccc2cc(F)ccc2n1 (cis-trans isomerization)
O=C([N-][C@@H](Cc1ccc(F)cc1)c1ccccc1)[C@@H]1C[C@@H](O)CN1C(=O)C/N=C(\O)c1ccc2cc(F)ccc2n1 (3D coordinates assigned)
O=C([N-][C@@H](Cc1ccc(F)cc1)c1ccccc1)[C@@H]1C[C@@H](O)CN1C(=O)C/N=C(\O)c1ccc2cc(F)ccc2n1 (nonaromatic ring conformer: 70.53272038268653 kcal/mol)

>  <smiles>  (26) 
O=C(NCC(=O)N1C[C@H](O)C[C@H]1C(=O)N[C@@H](Cc1ccc(F)cc1)c1ccccc1)c1ccc2cc(F)ccc2n1

>  <score_type>  (26) 
oracle

>  <origin>  (26) 
autodockgpu

>  <m_score__min__energy>  (26) 
-9.3499999999999996

>  <m_primary>  (26) 
energy

>  <meeko>  (26) 
{"free_energy": -7.95, "intermolecular_energy": -11.83, "internal_energy": -4.44, "cluster_size": 3, "cluster_id": 7, "rank_in_cluster": 1}

>  <energy>  (26) 
-8.85

>  <cluster_rmsd>  (26) 
0.0

>  <rmsd>  (26) 
271.0

>  <cluster>  (26) 
2

$$$$
XFBXCNWOYUAVIW-ZAPLKEHQNA-M
     RDKit          3D

 68 72  0  0  0  0  0  0  0  0999 V2000
  139.0910   73.1000  221.2560 H   0  0  0  0  0  0  0  0  0  0  0  0
  138.9440   72.3410  221.9070 O   0  0  0  0  0  0  0  0  0  0  0  0
  139.9160   71.3820  222.2100 C   0  0  0  0  0  0  0  0  0  0  0  0
  140.6210   70.8010  221.2790 N   0  0  0  0  0  0  0  0  0  0  0  0
  140.7600   71.2420  219.8940 C   0  0  0  0  0  0  0  0  0  0  0  0
  139.7894   71.1447  219.3856 H   0  0  0  0  0  0  0  0  0  0  0  0
  141.5165   70.6153  219.3990 H   0  0  0  0  0  0  0  0  0  0  0  0
  141.2060   72.6720  219.8320 C   0  0  0  0  0  0  0  0  0  0  0  0
  140.3590   73.5950  219.7170 O   0  0  0  0  0  0  0  0  0  0  0  0
  142.5970   72.9940  219.8960 N   0  0  0  0  0  0  0  0  0  0  0  0
  143.6100   72.2120  219.2160 C   0  0  0  0  0  0  0  0  0  0  0  0
  143.3879   72.1445  218.1408 H   0  0  0  0  0  0  0  0  0  0  0  0
  143.6567   71.1807  219.5958 H   0  0  0  0  0  0  0  0  0  0  0  0
  144.9180   72.9640  219.4460 C   0  0  2  0  0  0  0  0  0  0  0  0
  145.2242   73.5345  218.5567 H   0  0  0  0  0  0  0  0  0  0  0  0
  145.9640   72.0680  219.7160 O   0  0  0  0  0  0  0  0  0  0  0  0
  145.9370   71.8900  220.6920 H   0  0  0  0  0  0  0  0  0  0  0  0
  144.6570   73.8930  220.6380 C   0  0  0  0  0  0  0  0  0  0  0  0
  145.1533   74.8624  220.4833 H   0  0  0  0  0  0  0  0  0  0  0  0
  145.0528   73.4705  221.5733 H   0  0  0  0  0  0  0  0  0  0  0  0
  143.1360   74.0770  220.7030 C   0  0  1  0  0  0  0  0  0  0  0  0
  142.7688   74.0563  221.7397 H   0  0  0  0  0  0  0  0  0  0  0  0
  142.7180   75.4150  220.1330 C   0  0  0  0  0  0  0  0  0  0  0  0
  143.1360   75.7490  218.9920 O   0  0  0  0  0  0  0  0  0  0  0  0
  141.8760   76.3340  220.8450 N   0  0  0  0  0  0  0  0  0  0  0  0
  141.4600   77.6680  220.4110 C   0  0  2  0  0  0  0  0  0  0  0  0
  142.1236   78.0071  219.6019 H   0  0  0  0  0  0  0  0  0  0  0  0
  141.5620   78.6360  221.5740 C   0  0  0  0  0  0  0  0  0  0  0  0
  141.8820   79.9920  221.3710 C   0  0  0  0  0  0  0  0  0  0  0  0
  142.0319   80.3727  220.3499 H   0  0  0  0  0  0  0  0  0  0  0  0
  142.0100   80.8570  222.4630 C   0  0  0  0  0  0  0  0  0  0  0  0
  142.2435   81.9191  222.2974 H   0  0  0  0  0  0  0  0  0  0  0  0
  141.8420   80.3750  223.7630 C   0  0  0  0  0  0  0  0  0  0  0  0
  141.9357   81.0587  224.6196 H   0  0  0  0  0  0  0  0  0  0  0  0
  141.5550   79.0250  223.9750 C   0  0  0  0  0  0  0  0  0  0  0  0
  141.4337   78.6431  224.9994 H   0  0  0  0  0  0  0  0  0  0  0  0
  141.4220   78.1600  222.8880 C   0  0  0  0  0  0  0  0  0  0  0  0
  141.2055   77.0956  223.0619 H   0  0  0  0  0  0  0  0  0  0  0  0
  140.0160   77.6290  219.8700 C   0  0  0  0  0  0  0  0  0  0  0  0
  139.7283   78.6400  219.5457 H   0  0  0  0  0  0  0  0  0  0  0  0
  139.9820   76.9231  219.0270 H   0  0  0  0  0  0  0  0  0  0  0  0
  139.0450   77.1570  220.9220 C   0  0  0  0  0  0  0  0  0  0  0  0
  138.2510   78.0860  221.6160 C   0  0  0  0  0  0  0  0  0  0  0  0
  138.3085   79.1546  221.3616 H   0  0  0  0  0  0  0  0  0  0  0  0
  137.3880   77.6560  222.6290 C   0  0  0  0  0  0  0  0  0  0  0  0
  136.7600   78.3854  223.1615 H   0  0  0  0  0  0  0  0  0  0  0  0
  137.3220   76.3010  222.9660 C   0  0  0  0  0  0  0  0  0  0  0  0
  136.4940   75.8880  223.9580 F   0  0  0  0  0  0  0  0  0  0  0  0
  138.1140   75.3720  222.2850 C   0  0  0  0  0  0  0  0  0  0  0  0
  138.0625   74.3060  222.5516 H   0  0  0  0  0  0  0  0  0  0  0  0
  138.9710   75.7960  221.2660 C   0  0  0  0  0  0  0  0  0  0  0  0
  139.5905   75.0615  220.7306 H   0  0  0  0  0  0  0  0  0  0  0  0
  140.1200   71.0200  223.6260 C   0  0  0  0  0  0  0  0  0  0  0  0
  139.7700   69.7710  224.0430 N   0  0  0  0  0  0  0  0  0  0  0  0
  139.9380   69.3620  225.3280 C   0  0  0  0  0  0  0  0  0  0  0  0
  139.5400   68.0780  225.7150 C   0  0  0  0  0  0  0  0  0  0  0  0
  139.1114   67.3881  224.9731 H   0  0  0  0  0  0  0  0  0  0  0  0
  139.6870   67.6710  227.0460 C   0  0  0  0  0  0  0  0  0  0  0  0
  139.3741   66.6609  227.3488 H   0  0  0  0  0  0  0  0  0  0  0  0
  140.2310   68.5460  227.9920 C   0  0  0  0  0  0  0  0  0  0  0  0
  140.3670   68.1490  229.2810 F   0  0  0  0  0  0  0  0  0  0  0  0
  140.6350   69.8320  227.6140 C   0  0  0  0  0  0  0  0  0  0  0  0
  141.0635   70.5170  228.3604 H   0  0  0  0  0  0  0  0  0  0  0  0
  140.4920   70.2450  226.2810 C   0  0  0  0  0  0  0  0  0  0  0  0
  140.8700   71.5280  225.8730 C   0  0  0  0  0  0  0  0  0  0  0  0
  141.3169   72.2260  226.5963 H   0  0  0  0  0  0  0  0  0  0  0  0
  140.6800   71.9230  224.5470 C   0  0  0  0  0  0  0  0  0  0  0  0
  140.9668   72.9349  224.2248 H   0  0  0  0  0  0  0  0  0  0  0  0
  1  2  1  0
  2  3  1  0
  3  4  2  0
  4  5  1  0
  5  6  1  0
  5  7  1  0
  5  8  1  0
  8  9  2  0
  8 10  1  0
 10 11  1  0
 11 12  1  0
 11 13  1  0
 11 14  1  0
 14 15  1  6
 14 16  1  0
 16 17  1  0
 14 18  1  0
 18 19  1  0
 18 20  1  0
 18 21  1  0
 21 22  1  1
 21 23  1  0
 23 24  2  0
 23 25  1  0
 25 26  1  0
 26 27  1  6
 26 28  1  0
 28 29  2  0
 29 30  1  0
 29 31  1  0
 31 32  1  0
 31 33  2  0
 33 34  1  0
 33 35  1  0
 35 36  1  0
 35 37  2  0
 37 38  1  0
 26 39  1  0
 39 40  1  0
 39 41  1  0
 39 42  1  0
 42 43  2  0
 43 44  1  0
 43 45  1  0
 45 46  1  0
 45 47  2  0
 47 48  1  0
 47 49  1  0
 49 50  1  0
 49 51  2  0
 51 52  1  0
  3 53  1  0
 53 54  2  0
 54 55  1  0
 55 56  2  0
 56 57  1  0
 56 58  1  0
 58 59  1  0
 58 60  2  0
 60 61  1  0
 60 62  1  0
 62 63  1  0
 62 64  2  0
 64 65  1  0
 65 66  1  0
 65 67  2  0
 67 68  1  0
 21 10  1  0
 37 28  1  0
 51 42  1  0
 67 53  1  0
 64 55  1  0
M  CHG  1  25  -1
M  END
>  <UniqueID>  (27) 
2

>  <SMILES>  (27) 
O=C([N-][C@@H](Cc1ccc(F)cc1)c1ccccc1)[C@@H]1C[C@@H](O)CN1C(=O)C/N=C(\O)c1ccc2cc(F)ccc2n1

>  <Energy>  (27) 
70.53272038268653

>  <Genealogy>  (27) 
O=C(NCC(=O)N1C[C@H](O)C[C@H]1C(=O)[N-][C@@H](Cc1ccc(F)cc1)c1ccccc1)c1ccc2cc(F)ccc2n1 (protonated)
O=C([N-][C@@H](Cc1ccc(F)cc1)c1ccccc1)[C@@H]1C[C@@H](O)CN1C(=O)CN=C(O)c1ccc2cc(F)ccc2n1 (tautomer)
O=C([N-][C@@H](Cc1ccc(F)cc1)c1ccccc1)[C@@H]1C[C@@H](O)CN1C(=O)C/N=C(\O)c1ccc2cc(F)ccc2n1 (cis-trans isomerization)
O=C([N-][C@@H](Cc1ccc(F)cc1)c1ccccc1)[C@@H]1C[C@@H](O)CN1C(=O)C/N=C(\O)c1ccc2cc(F)ccc2n1 (3D coordinates assigned)
O=C([N-][C@@H](Cc1ccc(F)cc1)c1ccccc1)[C@@H]1C[C@@H](O)CN1C(=O)C/N=C(\O)c1ccc2cc(F)ccc2n1 (nonaromatic ring conformer: 70.53272038268653 kcal/mol)

>  <smiles>  (27) 
O=C(NCC(=O)N1C[C@H](O)C[C@H]1C(=O)N[C@@H](Cc1ccc(F)cc1)c1ccccc1)c1ccc2cc(F)ccc2n1

>  <score_type>  (27) 
oracle

>  <origin>  (27) 
autodockgpu

>  <m_score__min__energy>  (27) 
-9.3499999999999996

>  <m_primary>  (27) 
energy

>  <meeko>  (27) 
{"free_energy": -7.87, "intermolecular_energy": -11.75, "internal_energy": -3.2, "cluster_size": 5, "cluster_id": 1, "rank_in_cluster": 4}

>  <energy>  (27) 
-8.18

>  <cluster_rmsd>  (27) 
1.62

>  <rmsd>  (27) 
270.81

>  <cluster>  (27) 
2

$$$$
XFBXCNWOYUAVIW-ZAPLKEHQNA-M
     RDKit          3D

 68 72  0  0  0  0  0  0  0  0999 V2000
  140.1390   74.2820  222.0270 H   0  0  0  0  0  0  0  0  0  0  0  0
  139.9830   73.5570  222.7140 O   0  0  0  0  0  0  0  0  0  0  0  0
  140.0200   72.1910  222.4180 C   0  0  0  0  0  0  0  0  0  0  0  0
  140.0780   71.7550  221.1900 N   0  0  0  0  0  0  0  0  0  0  0  0
  141.2040   71.0650  220.5670 C   0  0  0  0  0  0  0  0  0  0  0  0
  140.8749   70.0718  220.2274 H   0  0  0  0  0  0  0  0  0  0  0  0
  142.0115   70.9689  221.3077 H   0  0  0  0  0  0  0  0  0  0  0  0
  141.7200   71.8390  219.3930 C   0  0  0  0  0  0  0  0  0  0  0  0
  141.1740   71.7180  218.2650 O   0  0  0  0  0  0  0  0  0  0  0  0
  142.8400   72.7140  219.5440 N   0  0  0  0  0  0  0  0  0  0  0  0
  144.0690   72.5440  218.7950 C   0  0  0  0  0  0  0  0  0  0  0  0
  143.8640   72.5371  217.7143 H   0  0  0  0  0  0  0  0  0  0  0  0
  144.5648   71.5907  219.0306 H   0  0  0  0  0  0  0  0  0  0  0  0
  144.9350   73.7430  219.1670 C   0  0  2  0  0  0  0  0  0  0  0  0
  144.9390   74.5062  218.3749 H   0  0  0  0  0  0  0  0  0  0  0  0
  146.2720   73.3540  219.3430 O   0  0  0  0  0  0  0  0  0  0  0  0
  146.8110   74.1870  219.3330 H   0  0  0  0  0  0  0  0  0  0  0  0
  144.3390   74.2960  220.4680 C   0  0  0  0  0  0  0  0  0  0  0  0
  144.3673   75.3956  220.4648 H   0  0  0  0  0  0  0  0  0  0  0  0
  144.9068   73.9588  221.3477 H   0  0  0  0  0  0  0  0  0  0  0  0
  142.8890   73.8000  220.5100 C   0  0  1  0  0  0  0  0  0  0  0  0
  142.5994   73.4805  221.5220 H   0  0  0  0  0  0  0  0  0  0  0  0
  141.9200   74.8950  220.1180 C   0  0  0  0  0  0  0  0  0  0  0  0
  142.0760   75.4790  219.0120 O   0  0  0  0  0  0  0  0  0  0  0  0
  140.8360   75.3120  220.9610 N   0  0  0  0  0  0  0  0  0  0  0  0
  140.7580   76.5380  221.7560 C   0  0  2  0  0  0  0  0  0  0  0  0
  141.2426   76.3679  222.7287 H   0  0  0  0  0  0  0  0  0  0  0  0
  139.3040   76.9050  221.9840 C   0  0  0  0  0  0  0  0  0  0  0  0
  138.7790   78.1300  221.5300 C   0  0  0  0  0  0  0  0  0  0  0  0
  139.4200   78.8270  220.9702 H   0  0  0  0  0  0  0  0  0  0  0  0
  137.4460   78.4640  221.7880 C   0  0  0  0  0  0  0  0  0  0  0  0
  137.0366   79.4148  221.4160 H   0  0  0  0  0  0  0  0  0  0  0  0
  136.6330   77.5930  222.5170 C   0  0  0  0  0  0  0  0  0  0  0  0
  135.5826   77.8551  222.7122 H   0  0  0  0  0  0  0  0  0  0  0  0
  137.1530   76.3900  222.9980 C   0  0  0  0  0  0  0  0  0  0  0  0
  136.5154   75.7093  223.5811 H   0  0  0  0  0  0  0  0  0  0  0  0
  138.4820   76.0510  222.7390 C   0  0  0  0  0  0  0  0  0  0  0  0
  138.8896   75.1069  223.1294 H   0  0  0  0  0  0  0  0  0  0  0  0
  141.4960   77.6880  221.0410 C   0  0  0  0  0  0  0  0  0  0  0  0
  142.4631   77.3168  220.6710 H   0  0  0  0  0  0  0  0  0  0  0  0
  140.8669   78.0377  220.2092 H   0  0  0  0  0  0  0  0  0  0  0  0
  141.7400   78.8490  221.9700 C   0  0  0  0  0  0  0  0  0  0  0  0
  141.9070   80.1440  221.4510 C   0  0  0  0  0  0  0  0  0  0  0  0
  141.8181   80.3164  220.3682 H   0  0  0  0  0  0  0  0  0  0  0  0
  142.1860   81.2150  222.3070 C   0  0  0  0  0  0  0  0  0  0  0  0
  142.3032   82.2292  221.8976 H   0  0  0  0  0  0  0  0  0  0  0  0
  142.3160   80.9980  223.6810 C   0  0  0  0  0  0  0  0  0  0  0  0
  142.6000   82.0360  224.5080 F   0  0  0  0  0  0  0  0  0  0  0  0
  142.1570   79.7110  224.2050 C   0  0  0  0  0  0  0  0  0  0  0  0
  142.2586   79.5415  225.2871 H   0  0  0  0  0  0  0  0  0  0  0  0
  141.8690   78.6400  223.3540 C   0  0  0  0  0  0  0  0  0  0  0  0
  141.7428   77.6292  223.7693 H   0  0  0  0  0  0  0  0  0  0  0  0
  139.9710   71.2340  223.5400 C   0  0  0  0  0  0  0  0  0  0  0  0
  140.4930   71.6000  224.7420 N   0  0  0  0  0  0  0  0  0  0  0  0
  140.4750   70.7770  225.8230 C   0  0  0  0  0  0  0  0  0  0  0  0
  141.0470   71.1890  227.0320 C   0  0  0  0  0  0  0  0  0  0  0  0
  141.4919   72.1915  227.1165 H   0  0  0  0  0  0  0  0  0  0  0  0
  141.0530   70.3260  228.1330 C   0  0  0  0  0  0  0  0  0  0  0  0
  141.5044   70.6507  229.0821 H   0  0  0  0  0  0  0  0  0  0  0  0
  140.4860   69.0500  228.0300 C   0  0  0  0  0  0  0  0  0  0  0  0
  140.4980   68.2160  229.0990 F   0  0  0  0  0  0  0  0  0  0  0  0
  139.9090   68.6310  226.8260 C   0  0  0  0  0  0  0  0  0  0  0  0
  139.4645   67.6278  226.7483 H   0  0  0  0  0  0  0  0  0  0  0  0
  139.8980   69.4910  225.7190 C   0  0  0  0  0  0  0  0  0  0  0  0
  139.3440   69.0970  224.4960 C   0  0  0  0  0  0  0  0  0  0  0  0
  138.8779   68.1055  224.3970 H   0  0  0  0  0  0  0  0  0  0  0  0
  139.3830   69.9630  223.4010 C   0  0  0  0  0  0  0  0  0  0  0  0
  138.9566   69.6534  222.4354 H   0  0  0  0  0  0  0  0  0  0  0  0
  1  2  1  0
  2  3  1  0
  3  4  2  0
  4  5  1  0
  5  6  1  0
  5  7  1  0
  5  8  1  0
  8  9  2  0
  8 10  1  0
 10 11  1  0
 11 12  1  0
 11 13  1  0
 11 14  1  0
 14 15  1  6
 14 16  1  0
 16 17  1  0
 14 18  1  0
 18 19  1  0
 18 20  1  0
 18 21  1  0
 21 22  1  1
 21 23  1  0
 23 24  2  0
 23 25  1  0
 25 26  1  0
 26 27  1  1
 26 28  1  0
 28 29  2  0
 29 30  1  0
 29 31  1  0
 31 32  1  0
 31 33  2  0
 33 34  1  0
 33 35  1  0
 35 36  1  0
 35 37  2  0
 37 38  1  0
 26 39  1  0
 39 40  1  0
 39 41  1  0
 39 42  1  0
 42 43  2  0
 43 44  1  0
 43 45  1  0
 45 46  1  0
 45 47  2  0
 47 48  1  0
 47 49  1  0
 49 50  1  0
 49 51  2  0
 51 52  1  0
  3 53  1  0
 53 54  2  0
 54 55  1  0
 55 56  2  0
 56 57  1  0
 56 58  1  0
 58 59  1  0
 58 60  2  0
 60 61  1  0
 60 62  1  0
 62 63  1  0
 62 64  2  0
 64 65  1  0
 65 66  1  0
 65 67  2  0
 67 68  1  0
 21 10  1  0
 37 28  1  0
 51 42  1  0
 67 53  1  0
 64 55  1  0
M  CHG  1  25  -1
M  END
>  <UniqueID>  (28) 
2

>  <SMILES>  (28) 
O=C([N-][C@@H](Cc1ccc(F)cc1)c1ccccc1)[C@@H]1C[C@@H](O)CN1C(=O)C/N=C(\O)c1ccc2cc(F)ccc2n1

>  <Energy>  (28) 
70.53272038268653

>  <Genealogy>  (28) 
O=C(NCC(=O)N1C[C@H](O)C[C@H]1C(=O)[N-][C@@H](Cc1ccc(F)cc1)c1ccccc1)c1ccc2cc(F)ccc2n1 (protonated)
O=C([N-][C@@H](Cc1ccc(F)cc1)c1ccccc1)[C@@H]1C[C@@H](O)CN1C(=O)CN=C(O)c1ccc2cc(F)ccc2n1 (tautomer)
O=C([N-][C@@H](Cc1ccc(F)cc1)c1ccccc1)[C@@H]1C[C@@H](O)CN1C(=O)C/N=C(\O)c1ccc2cc(F)ccc2n1 (cis-trans isomerization)
O=C([N-][C@@H](Cc1ccc(F)cc1)c1ccccc1)[C@@H]1C[C@@H](O)CN1C(=O)C/N=C(\O)c1ccc2cc(F)ccc2n1 (3D coordinates assigned)
O=C([N-][C@@H](Cc1ccc(F)cc1)c1ccccc1)[C@@H]1C[C@@H](O)CN1C(=O)C/N=C(\O)c1ccc2cc(F)ccc2n1 (nonaromatic ring conformer: 70.53272038268653 kcal/mol)

>  <smiles>  (28) 
O=C(NCC(=O)N1C[C@H](O)C[C@H]1C(=O)N[C@@H](Cc1ccc(F)cc1)c1ccccc1)c1ccc2cc(F)ccc2n1

>  <score_type>  (28) 
oracle

>  <origin>  (28) 
autodockgpu

>  <m_score__min__energy>  (28) 
-9.3499999999999996

>  <m_primary>  (28) 
energy

>  <meeko>  (28) 
{"free_energy": -9.35, "intermolecular_energy": -13.23, "internal_energy": -3.21, "cluster_size": 5, "cluster_id": 1, "rank_in_cluster": 1}

>  <energy>  (28) 
-8.58

>  <cluster_rmsd>  (28) 
0.0

>  <rmsd>  (28) 
270.91

>  <cluster>  (28) 
3

$$$$
XFBXCNWOYUAVIW-ZAPLKEHQNA-M
     RDKit          3D

 68 72  0  0  0  0  0  0  0  0999 V2000
  139.0210   74.2770  222.7570 H   0  0  0  0  0  0  0  0  0  0  0  0
  138.4560   75.0190  222.3690 O   0  0  0  0  0  0  0  0  0  0  0  0
  138.9590   76.0130  221.5240 C   0  0  0  0  0  0  0  0  0  0  0  0
  139.0740   75.8280  220.2380 N   0  0  0  0  0  0  0  0  0  0  0  0
  140.3210   75.7620  219.4800 C   0  0  0  0  0  0  0  0  0  0  0  0
  141.1169   76.2629  220.0507 H   0  0  0  0  0  0  0  0  0  0  0  0
  140.1717   76.2618  218.5115 H   0  0  0  0  0  0  0  0  0  0  0  0
  140.7170   74.3390  219.2300 C   0  0  0  0  0  0  0  0  0  0  0  0
  140.0000   73.5980  218.5070 O   0  0  0  0  0  0  0  0  0  0  0  0
  141.9080   73.8110  219.8170 N   0  0  0  0  0  0  0  0  0  0  0  0
  143.2140   74.4010  219.5970 C   0  0  0  0  0  0  0  0  0  0  0  0
  143.2096   75.4638  219.8807 H   0  0  0  0  0  0  0  0  0  0  0  0
  143.5121   74.3557  218.5391 H   0  0  0  0  0  0  0  0  0  0  0  0
  144.1660   73.6130  220.4910 C   0  0  2  0  0  0  0  0  0  0  0  0
  144.4269   74.1708  221.4025 H   0  0  0  0  0  0  0  0  0  0  0  0
  145.3760   73.3600  219.8260 O   0  0  0  0  0  0  0  0  0  0  0  0
  145.6100   74.1940  219.3410 H   0  0  0  0  0  0  0  0  0  0  0  0
  143.4320   72.3080  220.8290 C   0  0  0  0  0  0  0  0  0  0  0  0
  143.6231   72.0208  221.8735 H   0  0  0  0  0  0  0  0  0  0  0  0
  143.7741   71.4761  220.1958 H   0  0  0  0  0  0  0  0  0  0  0  0
  141.9420   72.5990  220.6200 C   0  0  1  0  0  0  0  0  0  0  0  0
  141.4293   71.7556  220.1345 H   0  0  0  0  0  0  0  0  0  0  0  0
  141.2340   72.8230  221.9390 C   0  0  0  0  0  0  0  0  0  0  0  0
  140.8690   73.9900  222.2440 O   0  0  0  0  0  0  0  0  0  0  0  0
  140.9720   71.7630  222.8700 N   0  0  0  0  0  0  0  0  0  0  0  0
  139.8530   71.6680  223.8070 C   0  0  2  0  0  0  0  0  0  0  0  0
  139.4936   72.6809  224.0414 H   0  0  0  0  0  0  0  0  0  0  0  0
  140.3150   70.9970  225.0870 C   0  0  0  0  0  0  0  0  0  0  0  0
  140.2750   69.5980  225.2360 C   0  0  0  0  0  0  0  0  0  0  0  0
  139.9331   68.9679  224.4017 H   0  0  0  0  0  0  0  0  0  0  0  0
  140.6680   69.0060  226.4400 C   0  0  0  0  0  0  0  0  0  0  0  0
  140.6512   67.9111  226.5443 H   0  0  0  0  0  0  0  0  0  0  0  0
  141.0820   69.8020  227.5110 C   0  0  0  0  0  0  0  0  0  0  0  0
  141.3976   69.3335  228.4549 H   0  0  0  0  0  0  0  0  0  0  0  0
  141.0950   71.1910  227.3830 C   0  0  0  0  0  0  0  0  0  0  0  0
  141.4105   71.8180  228.2300 H   0  0  0  0  0  0  0  0  0  0  0  0
  140.7080   71.7860  226.1810 C   0  0  0  0  0  0  0  0  0  0  0  0
  140.7107   72.8822  226.0896 H   0  0  0  0  0  0  0  0  0  0  0  0
  138.6910   70.8730  223.1750 C   0  0  0  0  0  0  0  0  0  0  0  0
  139.1062   70.0667  222.5525 H   0  0  0  0  0  0  0  0  0  0  0  0
  138.0723   70.4617  223.9862 H   0  0  0  0  0  0  0  0  0  0  0  0
  137.8210   71.7560  222.3170 C   0  0  0  0  0  0  0  0  0  0  0  0
  138.1540   71.9810  220.9720 C   0  0  0  0  0  0  0  0  0  0  0  0
  139.0287   71.4790  220.5329 H   0  0  0  0  0  0  0  0  0  0  0  0
  137.3780   72.8410  220.1880 C   0  0  0  0  0  0  0  0  0  0  0  0
  137.6362   73.0043  219.1313 H   0  0  0  0  0  0  0  0  0  0  0  0
  136.2750   73.4930  220.7460 C   0  0  0  0  0  0  0  0  0  0  0  0
  135.5310   74.3370  219.9880 F   0  0  0  0  0  0  0  0  0  0  0  0
  135.9410   73.2790  222.0870 C   0  0  0  0  0  0  0  0  0  0  0  0
  135.0732   73.7932  222.5258 H   0  0  0  0  0  0  0  0  0  0  0  0
  136.7080   72.4130  222.8700 C   0  0  0  0  0  0  0  0  0  0  0  0
  136.4400   72.2445  223.9235 H   0  0  0  0  0  0  0  0  0  0  0  0
  139.3840   77.2910  222.1270 C   0  0  0  0  0  0  0  0  0  0  0  0
  140.7060   77.6180  222.1160 N   0  0  0  0  0  0  0  0  0  0  0  0
  141.1700   78.7820  222.6420 C   0  0  0  0  0  0  0  0  0  0  0  0
  142.5410   79.0620  222.6300 C   0  0  0  0  0  0  0  0  0  0  0  0
  143.2437   78.3505  222.1717 H   0  0  0  0  0  0  0  0  0  0  0  0
  143.0180   80.2470  223.2010 C   0  0  0  0  0  0  0  0  0  0  0  0
  144.0961   80.4651  223.1922 H   0  0  0  0  0  0  0  0  0  0  0  0
  142.1270   81.1550  223.7830 C   0  0  0  0  0  0  0  0  0  0  0  0
  142.5940   82.3000  224.3380 F   0  0  0  0  0  0  0  0  0  0  0  0
  140.7540   80.8850  223.7970 C   0  0  0  0  0  0  0  0  0  0  0  0
  140.0562   81.6015  224.2550 H   0  0  0  0  0  0  0  0  0  0  0  0
  140.2690   79.6990  223.2260 C   0  0  0  0  0  0  0  0  0  0  0  0
  138.9050   79.3910  223.2380 C   0  0  0  0  0  0  0  0  0  0  0  0
  138.1847   80.0981  223.6752 H   0  0  0  0  0  0  0  0  0  0  0  0
  138.4580   78.1840  222.6940 C   0  0  0  0  0  0  0  0  0  0  0  0
  137.3869   77.9338  222.7093 H   0  0  0  0  0  0  0  0  0  0  0  0
  1  2  1  0
  2  3  1  0
  3  4  2  0
  4  5  1  0
  5  6  1  0
  5  7  1  0
  5  8  1  0
  8  9  2  0
  8 10  1  0
 10 11  1  0
 11 12  1  0
 11 13  1  0
 11 14  1  0
 14 15  1  1
 14 16  1  0
 16 17  1  0
 14 18  1  0
 18 19  1  0
 18 20  1  0
 18 21  1  0
 21 22  1  6
 21 23  1  0
 23 24  2  0
 23 25  1  0
 25 26  1  0
 26 27  1  1
 26 28  1  0
 28 29  2  0
 29 30  1  0
 29 31  1  0
 31 32  1  0
 31 33  2  0
 33 34  1  0
 33 35  1  0
 35 36  1  0
 35 37  2  0
 37 38  1  0
 26 39  1  0
 39 40  1  0
 39 41  1  0
 39 42  1  0
 42 43  2  0
 43 44  1  0
 43 45  1  0
 45 46  1  0
 45 47  2  0
 47 48  1  0
 47 49  1  0
 49 50  1  0
 49 51  2  0
 51 52  1  0
  3 53  1  0
 53 54  2  0
 54 55  1  0
 55 56  2  0
 56 57  1  0
 56 58  1  0
 58 59  1  0
 58 60  2  0
 60 61  1  0
 60 62  1  0
 62 63  1  0
 62 64  2  0
 64 65  1  0
 65 66  1  0
 65 67  2  0
 67 68  1  0
 21 10  1  0
 37 28  1  0
 51 42  1  0
 67 53  1  0
 64 55  1  0
M  CHG  1  25  -1
M  END
>  <UniqueID>  (29) 
2

>  <SMILES>  (29) 
O=C([N-][C@@H](Cc1ccc(F)cc1)c1ccccc1)[C@@H]1C[C@@H](O)CN1C(=O)C/N=C(\O)c1ccc2cc(F)ccc2n1

>  <Energy>  (29) 
70.53272038268653

>  <Genealogy>  (29) 
O=C(NCC(=O)N1C[C@H](O)C[C@H]1C(=O)[N-][C@@H](Cc1ccc(F)cc1)c1ccccc1)c1ccc2cc(F)ccc2n1 (protonated)
O=C([N-][C@@H](Cc1ccc(F)cc1)c1ccccc1)[C@@H]1C[C@@H](O)CN1C(=O)CN=C(O)c1ccc2cc(F)ccc2n1 (tautomer)
O=C([N-][C@@H](Cc1ccc(F)cc1)c1ccccc1)[C@@H]1C[C@@H](O)CN1C(=O)C/N=C(\O)c1ccc2cc(F)ccc2n1 (cis-trans isomerization)
O=C([N-][C@@H](Cc1ccc(F)cc1)c1ccccc1)[C@@H]1C[C@@H](O)CN1C(=O)C/N=C(\O)c1ccc2cc(F)ccc2n1 (3D coordinates assigned)
O=C([N-][C@@H](Cc1ccc(F)cc1)c1ccccc1)[C@@H]1C[C@@H](O)CN1C(=O)C/N=C(\O)c1ccc2cc(F)ccc2n1 (nonaromatic ring conformer: 70.53272038268653 kcal/mol)

>  <smiles>  (29) 
O=C(NCC(=O)N1C[C@H](O)C[C@H]1C(=O)N[C@@H](Cc1ccc(F)cc1)c1ccccc1)c1ccc2cc(F)ccc2n1

>  <score_type>  (29) 
oracle

>  <origin>  (29) 
autodockgpu

>  <m_score__min__energy>  (29) 
-9.3499999999999996

>  <m_primary>  (29) 
energy

>  <meeko>  (29) 
{"free_energy": -8.18, "intermolecular_energy": -12.06, "internal_energy": -3.97, "cluster_size": 2, "cluster_id": 2, "rank_in_cluster": 2}

>  <energy>  (29) 
-8.56

>  <cluster_rmsd>  (29) 
1.29

>  <rmsd>  (29) 
270.84

>  <cluster>  (29) 
3

$$$$
XFBXCNWOYUAVIW-ZAPLKEHQNA-M
     RDKit          3D

 68 72  0  0  0  0  0  0  0  0999 V2000
  139.1520   74.2100  222.7840 H   0  0  0  0  0  0  0  0  0  0  0  0
  138.5770   74.9680  222.4430 O   0  0  0  0  0  0  0  0  0  0  0  0
  139.0480   75.9720  221.5910 C   0  0  0  0  0  0  0  0  0  0  0  0
  139.1490   75.7910  220.3040 N   0  0  0  0  0  0  0  0  0  0  0  0
  140.3650   75.9110  219.5030 C   0  0  0  0  0  0  0  0  0  0  0  0
  141.1341   76.4328  220.0914 H   0  0  0  0  0  0  0  0  0  0  0  0
  140.1307   76.4778  218.5899 H   0  0  0  0  0  0  0  0  0  0  0  0
  140.8800   74.5600  219.1100 C   0  0  0  0  0  0  0  0  0  0  0  0
  140.3250   73.9150  218.1820 O   0  0  0  0  0  0  0  0  0  0  0  0
  141.9990   73.9910  219.7930 N   0  0  0  0  0  0  0  0  0  0  0  0
  143.2490   74.7020  219.9680 C   0  0  0  0  0  0  0  0  0  0  0  0
  143.0769   75.6664  220.4683 H   0  0  0  0  0  0  0  0  0  0  0  0
  143.7324   74.9246  219.0053 H   0  0  0  0  0  0  0  0  0  0  0  0
  144.1100   73.7940  220.8400 C   0  0  2  0  0  0  0  0  0  0  0  0
  144.1433   74.1409  221.8833 H   0  0  0  0  0  0  0  0  0  0  0  0
  145.4390   73.7850  220.3890 O   0  0  0  0  0  0  0  0  0  0  0  0
  145.5070   74.5000  219.7040 H   0  0  0  0  0  0  0  0  0  0  0  0
  143.4760   72.4000  220.7370 C   0  0  0  0  0  0  0  0  0  0  0  0
  143.5094   71.8915  221.7118 H   0  0  0  0  0  0  0  0  0  0  0  0
  144.0146   71.7634  220.0196 H   0  0  0  0  0  0  0  0  0  0  0  0
  142.0230   72.6300  220.3050 C   0  0  1  0  0  0  0  0  0  0  0  0
  141.7001   71.8908  219.5571 H   0  0  0  0  0  0  0  0  0  0  0  0
  141.0730   72.4920  221.4750 C   0  0  0  0  0  0  0  0  0  0  0  0
  140.8350   73.5030  222.1900 O   0  0  0  0  0  0  0  0  0  0  0  0
  140.4390   71.2510  221.8190 N   0  0  0  0  0  0  0  0  0  0  0  0
  139.8770   70.8770  223.1180 C   0  0  2  0  0  0  0  0  0  0  0  0
  139.9950   69.7930  223.2632 H   0  0  0  0  0  0  0  0  0  0  0  0
  138.4010   71.2230  223.1530 C   0  0  0  0  0  0  0  0  0  0  0  0
  137.8580   72.2040  222.3030 C   0  0  0  0  0  0  0  0  0  0  0  0
  138.5035   72.7130  221.5720 H   0  0  0  0  0  0  0  0  0  0  0  0
  136.5020   72.5350  222.3830 C   0  0  0  0  0  0  0  0  0  0  0  0
  136.0804   73.2912  221.7045 H   0  0  0  0  0  0  0  0  0  0  0  0
  135.6820   71.9070  223.3230 C   0  0  0  0  0  0  0  0  0  0  0  0
  134.6136   72.1628  223.3791 H   0  0  0  0  0  0  0  0  0  0  0  0
  136.2180   70.9550  224.1910 C   0  0  0  0  0  0  0  0  0  0  0  0
  135.5739   70.4688  224.9385 H   0  0  0  0  0  0  0  0  0  0  0  0
  137.5700   70.6190  224.1120 C   0  0  0  0  0  0  0  0  0  0  0  0
  137.9888   69.8753  224.8060 H   0  0  0  0  0  0  0  0  0  0  0  0
  140.6260   71.6040  224.2540 C   0  0  0  0  0  0  0  0  0  0  0  0
  141.6761   71.7435  223.9577 H   0  0  0  0  0  0  0  0  0  0  0  0
  140.1354   72.5735  224.4257 H   0  0  0  0  0  0  0  0  0  0  0  0
  140.5800   70.8170  225.5380 C   0  0  0  0  0  0  0  0  0  0  0  0
  140.7400   71.4690  226.7720 C   0  0  0  0  0  0  0  0  0  0  0  0
  140.8578   72.5622  226.8031 H   0  0  0  0  0  0  0  0  0  0  0  0
  140.7500   70.7330  227.9610 C   0  0  0  0  0  0  0  0  0  0  0  0
  140.8629   71.2500  228.9254 H   0  0  0  0  0  0  0  0  0  0  0  0
  140.6170   69.3430  227.9270 C   0  0  0  0  0  0  0  0  0  0  0  0
  140.6400   68.6300  229.0800 F   0  0  0  0  0  0  0  0  0  0  0  0
  140.4640   68.6850  226.7020 C   0  0  0  0  0  0  0  0  0  0  0  0
  140.3602   67.5902  226.6752 H   0  0  0  0  0  0  0  0  0  0  0  0
  140.4430   69.4180  225.5120 C   0  0  0  0  0  0  0  0  0  0  0  0
  140.3187   68.8979  224.5507 H   0  0  0  0  0  0  0  0  0  0  0  0
  139.4570   77.2580  222.1890 C   0  0  0  0  0  0  0  0  0  0  0  0
  140.7770   77.5900  222.2000 N   0  0  0  0  0  0  0  0  0  0  0  0
  141.2270   78.7610  222.7240 C   0  0  0  0  0  0  0  0  0  0  0  0
  142.5960   79.0470  222.7350 C   0  0  0  0  0  0  0  0  0  0  0  0
  143.3103   78.3338  222.2978 H   0  0  0  0  0  0  0  0  0  0  0  0
  143.0570   80.2400  223.3020 C   0  0  0  0  0  0  0  0  0  0  0  0
  144.1341   80.4634  223.3101 H   0  0  0  0  0  0  0  0  0  0  0  0
  142.1510   81.1500  223.8590 C   0  0  0  0  0  0  0  0  0  0  0  0
  142.6040   82.3020  224.4110 F   0  0  0  0  0  0  0  0  0  0  0  0
  140.7790   80.8740  223.8490 C   0  0  0  0  0  0  0  0  0  0  0  0
  140.0693   81.5919  224.2860 H   0  0  0  0  0  0  0  0  0  0  0  0
  140.3110   79.6810  223.2810 C   0  0  0  0  0  0  0  0  0  0  0  0
  138.9470   79.3660  223.2700 C   0  0  0  0  0  0  0  0  0  0  0  0
  138.2153   80.0739  223.6866 H   0  0  0  0  0  0  0  0  0  0  0  0
  138.5160   78.1530  222.7300 C   0  0  0  0  0  0  0  0  0  0  0  0
  137.4459   77.8982  222.7275 H   0  0  0  0  0  0  0  0  0  0  0  0
  1  2  1  0
  2  3  1  0
  3  4  2  0
  4  5  1  0
  5  6  1  0
  5  7  1  0
  5  8  1  0
  8  9  2  0
  8 10  1  0
 10 11  1  0
 11 12  1  0
 11 13  1  0
 11 14  1  0
 14 15  1  1
 14 16  1  0
 16 17  1  0
 14 18  1  0
 18 19  1  0
 18 20  1  0
 18 21  1  0
 21 22  1  6
 21 23  1  0
 23 24  2  0
 23 25  1  0
 25 26  1  0
 26 27  1  1
 26 28  1  0
 28 29  2  0
 29 30  1  0
 29 31  1  0
 31 32  1  0
 31 33  2  0
 33 34  1  0
 33 35  1  0
 35 36  1  0
 35 37  2  0
 37 38  1  0
 26 39  1  0
 39 40  1  0
 39 41  1  0
 39 42  1  0
 42 43  2  0
 43 44  1  0
 43 45  1  0
 45 46  1  0
 45 47  2  0
 47 48  1  0
 47 49  1  0
 49 50  1  0
 49 51  2  0
 51 52  1  0
  3 53  1  0
 53 54  2  0
 54 55  1  0
 55 56  2  0
 56 57  1  0
 56 58  1  0
 58 59  1  0
 58 60  2  0
 60 61  1  0
 60 62  1  0
 62 63  1  0
 62 64  2  0
 64 65  1  0
 65 66  1  0
 65 67  2  0
 67 68  1  0
 21 10  1  0
 37 28  1  0
 51 42  1  0
 67 53  1  0
 64 55  1  0
M  CHG  1  25  -1
M  END
>  <UniqueID>  (30) 
2

>  <SMILES>  (30) 
O=C([N-][C@@H](Cc1ccc(F)cc1)c1ccccc1)[C@@H]1C[C@@H](O)CN1C(=O)C/N=C(\O)c1ccc2cc(F)ccc2n1

>  <Energy>  (30) 
70.53272038268653

>  <Genealogy>  (30) 
O=C(NCC(=O)N1C[C@H](O)C[C@H]1C(=O)[N-][C@@H](Cc1ccc(F)cc1)c1ccccc1)c1ccc2cc(F)ccc2n1 (protonated)
O=C([N-][C@@H](Cc1ccc(F)cc1)c1ccccc1)[C@@H]1C[C@@H](O)CN1C(=O)CN=C(O)c1ccc2cc(F)ccc2n1 (tautomer)
O=C([N-][C@@H](Cc1ccc(F)cc1)c1ccccc1)[C@@H]1C[C@@H](O)CN1C(=O)C/N=C(\O)c1ccc2cc(F)ccc2n1 (cis-trans isomerization)
O=C([N-][C@@H](Cc1ccc(F)cc1)c1ccccc1)[C@@H]1C[C@@H](O)CN1C(=O)C/N=C(\O)c1ccc2cc(F)ccc2n1 (3D coordinates assigned)
O=C([N-][C@@H](Cc1ccc(F)cc1)c1ccccc1)[C@@H]1C[C@@H](O)CN1C(=O)C/N=C(\O)c1ccc2cc(F)ccc2n1 (nonaromatic ring conformer: 70.53272038268653 kcal/mol)

>  <smiles>  (30) 
O=C(NCC(=O)N1C[C@H](O)C[C@H]1C(=O)N[C@@H](Cc1ccc(F)cc1)c1ccccc1)c1ccc2cc(F)ccc2n1

>  <score_type>  (30) 
oracle

>  <origin>  (30) 
autodockgpu

>  <m_score__min__energy>  (30) 
-9.3499999999999996

>  <m_primary>  (30) 
energy

>  <meeko>  (30) 
{"free_energy": -9.11, "intermolecular_energy": -12.98, "internal_energy": -3.37, "cluster_size": 5, "cluster_id": 1, "rank_in_cluster": 2}

>  <energy>  (30) 
-8.33

>  <cluster_rmsd>  (30) 
1.91

>  <rmsd>  (30) 
271.06

>  <cluster>  (30) 
3

$$$$
XFBXCNWOYUAVIW-ZAPLKEHQNA-M
     RDKit          3D

 68 72  0  0  0  0  0  0  0  0999 V2000
  139.2150   74.4430  222.8490 H   0  0  0  0  0  0  0  0  0  0  0  0
  139.9050   73.7200  222.6950 O   0  0  0  0  0  0  0  0  0  0  0  0
  139.5810   72.3830  222.4460 C   0  0  0  0  0  0  0  0  0  0  0  0
  139.1970   71.9770  221.2680 N   0  0  0  0  0  0  0  0  0  0  0  0
  137.9540   72.3360  220.5890 C   0  0  0  0  0  0  0  0  0  0  0  0
  137.1022   71.9500  221.1681 H   0  0  0  0  0  0  0  0  0  0  0  0
  137.9626   71.8954  219.5811 H   0  0  0  0  0  0  0  0  0  0  0  0
  137.8280   73.8240  220.4620 C   0  0  0  0  0  0  0  0  0  0  0  0
  138.3200   74.4190  219.4670 O   0  0  0  0  0  0  0  0  0  0  0  0
  137.1560   74.5770  221.4730 N   0  0  0  0  0  0  0  0  0  0  0  0
  136.5720   73.9590  222.6470 C   0  0  0  0  0  0  0  0  0  0  0  0
  137.3280   73.3737  223.1910 H   0  0  0  0  0  0  0  0  0  0  0  0
  135.7606   73.2642  222.3846 H   0  0  0  0  0  0  0  0  0  0  0  0
  136.0740   75.1180  223.5050 C   0  0  2  0  0  0  0  0  0  0  0  0
  136.7500   75.3229  224.3483 H   0  0  0  0  0  0  0  0  0  0  0  0
  134.8250   74.8170  224.0690 O   0  0  0  0  0  0  0  0  0  0  0  0
  134.6360   73.8680  223.8440 H   0  0  0  0  0  0  0  0  0  0  0  0
  135.9840   76.3230  222.5600 C   0  0  0  0  0  0  0  0  0  0  0  0
  136.3085   77.2388  223.0758 H   0  0  0  0  0  0  0  0  0  0  0  0
  134.9524   76.4910  222.2171 H   0  0  0  0  0  0  0  0  0  0  0  0
  136.9220   76.0100  221.3890 C   0  0  1  0  0  0  0  0  0  0  0  0
  136.4826   76.3124  220.4270 H   0  0  0  0  0  0  0  0  0  0  0  0
  138.2290   76.7620  221.5130 C   0  0  0  0  0  0  0  0  0  0  0  0
  138.3910   77.8170  220.8420 O   0  0  0  0  0  0  0  0  0  0  0  0
  139.3060   76.3170  222.3510 N   0  0  0  0  0  0  0  0  0  0  0  0
  140.7360   76.3590  222.0480 C   0  0  2  0  0  0  0  0  0  0  0  0
  141.2704   75.6950  222.7433 H   0  0  0  0  0  0  0  0  0  0  0  0
  141.2520   77.7750  222.2190 C   0  0  0  0  0  0  0  0  0  0  0  0
  141.4830   78.3210  223.4960 C   0  0  0  0  0  0  0  0  0  0  0  0
  141.3191   77.7054  224.3928 H   0  0  0  0  0  0  0  0  0  0  0  0
  141.9200   79.6430  223.6290 C   0  0  0  0  0  0  0  0  0  0  0  0
  142.1153   80.0585  224.6286 H   0  0  0  0  0  0  0  0  0  0  0  0
  142.1090   80.4370  222.4950 C   0  0  0  0  0  0  0  0  0  0  0  0
  142.4595   81.4742  222.6018 H   0  0  0  0  0  0  0  0  0  0  0  0
  141.8530   79.9140  221.2270 C   0  0  0  0  0  0  0  0  0  0  0  0
  141.9917   80.5424  220.3349 H   0  0  0  0  0  0  0  0  0  0  0  0
  141.4210   78.5940  221.0900 C   0  0  0  0  0  0  0  0  0  0  0  0
  141.2108   78.1909  220.0883 H   0  0  0  0  0  0  0  0  0  0  0  0
  140.9930   75.8660  220.6090 C   0  0  0  0  0  0  0  0  0  0  0  0
  140.1075   75.3174  220.2554 H   0  0  0  0  0  0  0  0  0  0  0  0
  141.1899   76.7421  219.9736 H   0  0  0  0  0  0  0  0  0  0  0  0
  142.1920   74.9550  220.5440 C   0  0  0  0  0  0  0  0  0  0  0  0
  143.4260   75.4450  220.0850 C   0  0  0  0  0  0  0  0  0  0  0  0
  143.5269   76.5058  219.8118 H   0  0  0  0  0  0  0  0  0  0  0  0
  144.5270   74.5890  219.9740 C   0  0  0  0  0  0  0  0  0  0  0  0
  145.4945   74.9805  219.6266 H   0  0  0  0  0  0  0  0  0  0  0  0
  144.3990   73.2370  220.3040 C   0  0  0  0  0  0  0  0  0  0  0  0
  145.4640   72.4050  220.1820 F   0  0  0  0  0  0  0  0  0  0  0  0
  143.1720   72.7400  220.7550 C   0  0  0  0  0  0  0  0  0  0  0  0
  143.0722   71.6758  221.0147 H   0  0  0  0  0  0  0  0  0  0  0  0
  142.0730   73.5940  220.8760 C   0  0  0  0  0  0  0  0  0  0  0  0
  141.1100   73.1997  221.2327 H   0  0  0  0  0  0  0  0  0  0  0  0
  139.6640   71.4250  223.5660 C   0  0  0  0  0  0  0  0  0  0  0  0
  140.2390   71.8250  224.7330 N   0  0  0  0  0  0  0  0  0  0  0  0
  140.3420   71.0030  225.8110 C   0  0  0  0  0  0  0  0  0  0  0  0
  140.9640   71.4510  226.9810 C   0  0  0  0  0  0  0  0  0  0  0  0
  141.3503   72.4793  227.0392 H   0  0  0  0  0  0  0  0  0  0  0  0
  141.0950   70.5920  228.0770 C   0  0  0  0  0  0  0  0  0  0  0  0
  141.5850   70.9459  228.9961 H   0  0  0  0  0  0  0  0  0  0  0  0
  140.6040   69.2830  228.0070 C   0  0  0  0  0  0  0  0  0  0  0  0
  140.7360   68.4530  229.0710 F   0  0  0  0  0  0  0  0  0  0  0  0
  139.9770   68.8270  226.8420 C   0  0  0  0  0  0  0  0  0  0  0  0
  139.5914   67.7981  226.7906 H   0  0  0  0  0  0  0  0  0  0  0  0
  139.8410   69.6840  225.7400 C   0  0  0  0  0  0  0  0  0  0  0  0
  139.2350   69.2550  224.5550 C   0  0  0  0  0  0  0  0  0  0  0  0
  138.8261   68.2363  224.4838 H   0  0  0  0  0  0  0  0  0  0  0  0
  139.1490   70.1200  223.4620 C   0  0  0  0  0  0  0  0  0  0  0  0
  138.6813   69.7829  222.5252 H   0  0  0  0  0  0  0  0  0  0  0  0
  1  2  1  0
  2  3  1  0
  3  4  2  0
  4  5  1  0
  5  6  1  0
  5  7  1  0
  5  8  1  0
  8  9  2  0
  8 10  1  0
 10 11  1  0
 11 12  1  0
 11 13  1  0
 11 14  1  0
 14 15  1  1
 14 16  1  0
 16 17  1  0
 14 18  1  0
 18 19  1  0
 18 20  1  0
 18 21  1  0
 21 22  1  6
 21 23  1  0
 23 24  2  0
 23 25  1  0
 25 26  1  0
 26 27  1  1
 26 28  1  0
 28 29  2  0
 29 30  1  0
 29 31  1  0
 31 32  1  0
 31 33  2  0
 33 34  1  0
 33 35  1  0
 35 36  1  0
 35 37  2  0
 37 38  1  0
 26 39  1  0
 39 40  1  0
 39 41  1  0
 39 42  1  0
 42 43  2  0
 43 44  1  0
 43 45  1  0
 45 46  1  0
 45 47  2  0
 47 48  1  0
 47 49  1  0
 49 50  1  0
 49 51  2  0
 51 52  1  0
  3 53  1  0
 53 54  2  0
 54 55  1  0
 55 56  2  0
 56 57  1  0
 56 58  1  0
 58 59  1  0
 58 60  2  0
 60 61  1  0
 60 62  1  0
 62 63  1  0
 62 64  2  0
 64 65  1  0
 65 66  1  0
 65 67  2  0
 67 68  1  0
 21 10  1  0
 37 28  1  0
 51 42  1  0
 67 53  1  0
 64 55  1  0
M  CHG  1  25  -1
M  END
>  <UniqueID>  (31) 
2

>  <SMILES>  (31) 
O=C([N-][C@@H](Cc1ccc(F)cc1)c1ccccc1)[C@@H]1C[C@@H](O)CN1C(=O)C/N=C(\O)c1ccc2cc(F)ccc2n1

>  <Energy>  (31) 
70.53272038268653

>  <Genealogy>  (31) 
O=C(NCC(=O)N1C[C@H](O)C[C@H]1C(=O)[N-][C@@H](Cc1ccc(F)cc1)c1ccccc1)c1ccc2cc(F)ccc2n1 (protonated)
O=C([N-][C@@H](Cc1ccc(F)cc1)c1ccccc1)[C@@H]1C[C@@H](O)CN1C(=O)CN=C(O)c1ccc2cc(F)ccc2n1 (tautomer)
O=C([N-][C@@H](Cc1ccc(F)cc1)c1ccccc1)[C@@H]1C[C@@H](O)CN1C(=O)C/N=C(\O)c1ccc2cc(F)ccc2n1 (cis-trans isomerization)
O=C([N-][C@@H](Cc1ccc(F)cc1)c1ccccc1)[C@@H]1C[C@@H](O)CN1C(=O)C/N=C(\O)c1ccc2cc(F)ccc2n1 (3D coordinates assigned)
O=C([N-][C@@H](Cc1ccc(F)cc1)c1ccccc1)[C@@H]1C[C@@H](O)CN1C(=O)C/N=C(\O)c1ccc2cc(F)ccc2n1 (nonaromatic ring conformer: 70.53272038268653 kcal/mol)

>  <smiles>  (31) 
O=C(NCC(=O)N1C[C@H](O)C[C@H]1C(=O)N[C@@H](Cc1ccc(F)cc1)c1ccccc1)c1ccc2cc(F)ccc2n1

>  <score_type>  (31) 
oracle

>  <origin>  (31) 
autodockgpu

>  <m_score__min__energy>  (31) 
-9.3499999999999996

>  <m_primary>  (31) 
energy

>  <meeko>  (31) 
{"free_energy": -8.56, "intermolecular_energy": -12.44, "internal_energy": -3.76, "cluster_size": 5, "cluster_id": 3, "rank_in_cluster": 2}

>  <energy>  (31) 
-7.96

>  <cluster_rmsd>  (31) 
1.46

>  <rmsd>  (31) 
270.85

>  <cluster>  (31) 
3

$$$$
XFBXCNWOYUAVIW-ZAPLKEHQNA-M
     RDKit          3D

 68 72  0  0  0  0  0  0  0  0999 V2000
  139.3330   73.7400  222.7550 H   0  0  0  0  0  0  0  0  0  0  0  0
  139.7640   72.8270  222.7970 O   0  0  0  0  0  0  0  0  0  0  0  0
  139.0390   71.6310  222.8270 C   0  0  0  0  0  0  0  0  0  0  0  0
  138.1450   71.3470  221.9210 N   0  0  0  0  0  0  0  0  0  0  0  0
  136.9930   72.1650  221.5530 C   0  0  0  0  0  0  0  0  0  0  0  0
  136.1841   71.5095  221.1979 H   0  0  0  0  0  0  0  0  0  0  0  0
  137.2963   72.8639  220.7595 H   0  0  0  0  0  0  0  0  0  0  0  0
  136.5040   72.9560  222.7280 C   0  0  0  0  0  0  0  0  0  0  0  0
  136.0990   72.3670  223.7650 O   0  0  0  0  0  0  0  0  0  0  0  0
  136.4870   74.3840  222.6760 N   0  0  0  0  0  0  0  0  0  0  0  0
  135.9050   75.1950  223.7260 C   0  0  0  0  0  0  0  0  0  0  0  0
  136.3636   74.9558  224.6968 H   0  0  0  0  0  0  0  0  0  0  0  0
  134.8249   75.0159  223.8320 H   0  0  0  0  0  0  0  0  0  0  0  0
  136.2070   76.6380  223.3330 C   0  0  2  0  0  0  0  0  0  0  0  0
  137.0392   77.0561  223.9184 H   0  0  0  0  0  0  0  0  0  0  0  0
  135.1000   77.4630  223.5830 O   0  0  0  0  0  0  0  0  0  0  0  0
  134.3150   77.0100  223.1780 H   0  0  0  0  0  0  0  0  0  0  0  0
  136.5450   76.5960  221.8370 C   0  0  0  0  0  0  0  0  0  0  0  0
  137.3654   77.2929  221.6105 H   0  0  0  0  0  0  0  0  0  0  0  0
  135.6846   76.8949  221.2202 H   0  0  0  0  0  0  0  0  0  0  0  0
  136.9740   75.1540  221.5430 C   0  0  1  0  0  0  0  0  0  0  0  0
  136.5697   74.7987  220.5837 H   0  0  0  0  0  0  0  0  0  0  0  0
  138.4790   75.0370  221.4370 C   0  0  0  0  0  0  0  0  0  0  0  0
  138.9710   74.2410  220.5920 O   0  0  0  0  0  0  0  0  0  0  0  0
  139.3770   75.7840  222.2710 N   0  0  0  0  0  0  0  0  0  0  0  0
  140.3390   76.8010  221.8440 C   0  0  2  0  0  0  0  0  0  0  0  0
  139.8208   77.5511  221.2285 H   0  0  0  0  0  0  0  0  0  0  0  0
  141.4330   76.1520  221.0180 C   0  0  0  0  0  0  0  0  0  0  0  0
  141.7940   74.8050  221.2080 C   0  0  0  0  0  0  0  0  0  0  0  0
  141.2553   74.1926  221.9461 H   0  0  0  0  0  0  0  0  0  0  0  0
  142.8340   74.2420  220.4630 C   0  0  0  0  0  0  0  0  0  0  0  0
  143.1002   73.1842  220.6048 H   0  0  0  0  0  0  0  0  0  0  0  0
  143.5360   75.0190  219.5390 C   0  0  0  0  0  0  0  0  0  0  0  0
  144.3492   74.5715  218.9487 H   0  0  0  0  0  0  0  0  0  0  0  0
  143.2050   76.3640  219.3650 C   0  0  0  0  0  0  0  0  0  0  0  0
  143.7645   76.9789  218.6447 H   0  0  0  0  0  0  0  0  0  0  0  0
  142.1650   76.9290  220.1040 C   0  0  0  0  0  0  0  0  0  0  0  0
  141.9159   77.9920  219.9700 H   0  0  0  0  0  0  0  0  0  0  0  0
  140.9450   77.5130  223.0710 C   0  0  0  0  0  0  0  0  0  0  0  0
  140.2768   77.3707  223.9331 H   0  0  0  0  0  0  0  0  0  0  0  0
  141.9360   77.0782  223.2680 H   0  0  0  0  0  0  0  0  0  0  0  0
  141.1170   78.9900  222.8230 C   0  0  0  0  0  0  0  0  0  0  0  0
  139.9940   79.8030  222.5970 C   0  0  0  0  0  0  0  0  0  0  0  0
  138.9847   79.3679  222.6421 H   0  0  0  0  0  0  0  0  0  0  0  0
  140.1540   81.1630  222.3150 C   0  0  0  0  0  0  0  0  0  0  0  0
  139.2707   81.7977  222.1512 H   0  0  0  0  0  0  0  0  0  0  0  0
  141.4350   81.7170  222.2410 C   0  0  0  0  0  0  0  0  0  0  0  0
  141.5890   83.0340  221.9530 F   0  0  0  0  0  0  0  0  0  0  0  0
  142.5580   80.9130  222.4570 C   0  0  0  0  0  0  0  0  0  0  0  0
  143.5658   81.3497  222.3971 H   0  0  0  0  0  0  0  0  0  0  0  0
  142.4020   79.5550  222.7490 C   0  0  0  0  0  0  0  0  0  0  0  0
  143.2879   78.9262  222.9215 H   0  0  0  0  0  0  0  0  0  0  0  0
  139.2960   70.6890  223.9330 C   0  0  0  0  0  0  0  0  0  0  0  0
  139.8930   71.1500  225.0670 N   0  0  0  0  0  0  0  0  0  0  0  0
  140.1510   70.3440  226.1300 C   0  0  0  0  0  0  0  0  0  0  0  0
  140.7900   70.8590  227.2640 C   0  0  0  0  0  0  0  0  0  0  0  0
  141.0631   71.9237  227.3058 H   0  0  0  0  0  0  0  0  0  0  0  0
  141.0810   70.0190  228.3440 C   0  0  0  0  0  0  0  0  0  0  0  0
  141.5840   70.4245  229.2343 H   0  0  0  0  0  0  0  0  0  0  0  0
  140.7340   68.6640  228.2950 C   0  0  0  0  0  0  0  0  0  0  0  0
  141.0220   67.8540  229.3430 F   0  0  0  0  0  0  0  0  0  0  0  0
  140.0920   68.1420  227.1670 C   0  0  0  0  0  0  0  0  0  0  0  0
  139.8197   67.0768  227.1321 H   0  0  0  0  0  0  0  0  0  0  0  0
  139.7960   68.9780  226.0810 C   0  0  0  0  0  0  0  0  0  0  0  0
  139.1690   68.4850  224.9320 C   0  0  0  0  0  0  0  0  0  0  0  0
  138.8705   67.4276  224.8791 H   0  0  0  0  0  0  0  0  0  0  0  0
  138.9220   69.3350  223.8520 C   0  0  0  0  0  0  0  0  0  0  0  0
  138.4378   68.9483  222.9432 H   0  0  0  0  0  0  0  0  0  0  0  0
  1  2  1  0
  2  3  1  0
  3  4  2  0
  4  5  1  0
  5  6  1  0
  5  7  1  0
  5  8  1  0
  8  9  2  0
  8 10  1  0
 10 11  1  0
 11 12  1  0
 11 13  1  0
 11 14  1  0
 14 15  1  1
 14 16  1  0
 16 17  1  0
 14 18  1  0
 18 19  1  0
 18 20  1  0
 18 21  1  0
 21 22  1  6
 21 23  1  0
 23 24  2  0
 23 25  1  0
 25 26  1  0
 26 27  1  6
 26 28  1  0
 28 29  2  0
 29 30  1  0
 29 31  1  0
 31 32  1  0
 31 33  2  0
 33 34  1  0
 33 35  1  0
 35 36  1  0
 35 37  2  0
 37 38  1  0
 26 39  1  0
 39 40  1  0
 39 41  1  0
 39 42  1  0
 42 43  2  0
 43 44  1  0
 43 45  1  0
 45 46  1  0
 45 47  2  0
 47 48  1  0
 47 49  1  0
 49 50  1  0
 49 51  2  0
 51 52  1  0
  3 53  1  0
 53 54  2  0
 54 55  1  0
 55 56  2  0
 56 57  1  0
 56 58  1  0
 58 59  1  0
 58 60  2  0
 60 61  1  0
 60 62  1  0
 62 63  1  0
 62 64  2  0
 64 65  1  0
 65 66  1  0
 65 67  2  0
 67 68  1  0
 21 10  1  0
 37 28  1  0
 51 42  1  0
 67 53  1  0
 64 55  1  0
M  CHG  1  25  -1
M  END
>  <UniqueID>  (32) 
2

>  <SMILES>  (32) 
O=C([N-][C@@H](Cc1ccc(F)cc1)c1ccccc1)[C@@H]1C[C@@H](O)CN1C(=O)C/N=C(\O)c1ccc2cc(F)ccc2n1

>  <Energy>  (32) 
70.53272038268653

>  <Genealogy>  (32) 
O=C(NCC(=O)N1C[C@H](O)C[C@H]1C(=O)[N-][C@@H](Cc1ccc(F)cc1)c1ccccc1)c1ccc2cc(F)ccc2n1 (protonated)
O=C([N-][C@@H](Cc1ccc(F)cc1)c1ccccc1)[C@@H]1C[C@@H](O)CN1C(=O)CN=C(O)c1ccc2cc(F)ccc2n1 (tautomer)
O=C([N-][C@@H](Cc1ccc(F)cc1)c1ccccc1)[C@@H]1C[C@@H](O)CN1C(=O)C/N=C(\O)c1ccc2cc(F)ccc2n1 (cis-trans isomerization)
O=C([N-][C@@H](Cc1ccc(F)cc1)c1ccccc1)[C@@H]1C[C@@H](O)CN1C(=O)C/N=C(\O)c1ccc2cc(F)ccc2n1 (3D coordinates assigned)
O=C([N-][C@@H](Cc1ccc(F)cc1)c1ccccc1)[C@@H]1C[C@@H](O)CN1C(=O)C/N=C(\O)c1ccc2cc(F)ccc2n1 (nonaromatic ring conformer: 70.53272038268653 kcal/mol)

>  <smiles>  (32) 
O=C(NCC(=O)N1C[C@H](O)C[C@H]1C(=O)N[C@@H](Cc1ccc(F)cc1)c1ccccc1)c1ccc2cc(F)ccc2n1

>  <score_type>  (32) 
oracle

>  <origin>  (32) 
autodockgpu

>  <m_score__min__energy>  (32) 
-9.3499999999999996

>  <m_primary>  (32) 
energy

>  <meeko>  (32) 
{"free_energy": -8.33, "intermolecular_energy": -12.21, "internal_energy": -3.81, "cluster_size": 5, "cluster_id": 3, "rank_in_cluster": 3}

>  <energy>  (32) 
-7.85

>  <cluster_rmsd>  (32) 
1.45

>  <rmsd>  (32) 
270.78

>  <cluster>  (32) 
3

$$$$
XFBXCNWOYUAVIW-ZAPLKEHQNA-M
     RDKit          3D

 68 72  0  0  0  0  0  0  0  0999 V2000
  139.1920   74.2030  222.8080 H   0  0  0  0  0  0  0  0  0  0  0  0
  139.6640   73.3130  222.7250 O   0  0  0  0  0  0  0  0  0  0  0  0
  138.9980   72.0840  222.6950 C   0  0  0  0  0  0  0  0  0  0  0  0
  138.1430   71.7880  221.7560 N   0  0  0  0  0  0  0  0  0  0  0  0
  136.7220   71.5020  221.9350 C   0  0  0  0  0  0  0  0  0  0  0  0
  136.5479   71.1749  222.9707 H   0  0  0  0  0  0  0  0  0  0  0  0
  136.4305   70.7106  221.2288 H   0  0  0  0  0  0  0  0  0  0  0  0
  135.8940   72.7200  221.6590 C   0  0  0  0  0  0  0  0  0  0  0  0
  135.2360   72.8100  220.5900 O   0  0  0  0  0  0  0  0  0  0  0  0
  135.8540   73.7910  222.6050 N   0  0  0  0  0  0  0  0  0  0  0  0
  135.4540   73.5990  223.9840 C   0  0  0  0  0  0  0  0  0  0  0  0
  136.0757   72.8275  224.4617 H   0  0  0  0  0  0  0  0  0  0  0  0
  134.4102   73.2617  224.0652 H   0  0  0  0  0  0  0  0  0  0  0  0
  135.6690   74.9510  224.6570 C   0  0  2  0  0  0  0  0  0  0  0  0
  136.5855   74.9649  225.2651 H   0  0  0  0  0  0  0  0  0  0  0  0
  134.6130   75.2420  225.5340 O   0  0  0  0  0  0  0  0  0  0  0  0
  134.5920   76.2300  225.6310 H   0  0  0  0  0  0  0  0  0  0  0  0
  135.7440   75.9730  223.5150 C   0  0  0  0  0  0  0  0  0  0  0  0
  136.5059   76.7356  223.7337 H   0  0  0  0  0  0  0  0  0  0  0  0
  134.7869   76.4982  223.3802 H   0  0  0  0  0  0  0  0  0  0  0  0
  136.1300   75.1780  222.2630 C   0  0  1  0  0  0  0  0  0  0  0  0
  135.5696   75.5166  221.3791 H   0  0  0  0  0  0  0  0  0  0  0  0
  137.5950   75.3540  221.9280 C   0  0  0  0  0  0  0  0  0  0  0  0
  138.1000   74.6510  221.0120 O   0  0  0  0  0  0  0  0  0  0  0  0
  138.4440   76.2800  222.6210 N   0  0  0  0  0  0  0  0  0  0  0  0
  139.8520   76.5650  222.3430 C   0  0  2  0  0  0  0  0  0  0  0  0
  140.4779   75.8178  222.8528 H   0  0  0  0  0  0  0  0  0  0  0  0
  140.2050   77.9450  222.8630 C   0  0  0  0  0  0  0  0  0  0  0  0
  139.2140   78.9170  223.0930 C   0  0  0  0  0  0  0  0  0  0  0  0
  138.1554   78.6696  222.9251 H   0  0  0  0  0  0  0  0  0  0  0  0
  139.5680   80.1960  223.5340 C   0  0  0  0  0  0  0  0  0  0  0  0
  138.7868   80.9456  223.7284 H   0  0  0  0  0  0  0  0  0  0  0  0
  140.9120   80.5230  223.7280 C   0  0  0  0  0  0  0  0  0  0  0  0
  141.1879   81.5273  224.0819 H   0  0  0  0  0  0  0  0  0  0  0  0
  141.9050   79.5760  223.4730 C   0  0  0  0  0  0  0  0  0  0  0  0
  142.9639   79.8376  223.6157 H   0  0  0  0  0  0  0  0  0  0  0  0
  141.5550   78.2970  223.0370 C   0  0  0  0  0  0  0  0  0  0  0  0
  142.3424   77.5579  222.8277 H   0  0  0  0  0  0  0  0  0  0  0  0
  140.1260   76.4780  220.8270 C   0  0  0  0  0  0  0  0  0  0  0  0
  139.3243   75.8938  220.3516 H   0  0  0  0  0  0  0  0  0  0  0  0
  140.1576   77.5004  220.4223 H   0  0  0  0  0  0  0  0  0  0  0  0
  141.4500   75.8150  220.5430 C   0  0  0  0  0  0  0  0  0  0  0  0
  141.6870   74.4990  220.9730 C   0  0  0  0  0  0  0  0  0  0  0  0
  140.8900   73.9368  221.4816 H   0  0  0  0  0  0  0  0  0  0  0  0
  142.9320   73.9010  220.7570 C   0  0  0  0  0  0  0  0  0  0  0  0
  143.1086   72.8662  221.0857 H   0  0  0  0  0  0  0  0  0  0  0  0
  143.9530   74.6160  220.1240 C   0  0  0  0  0  0  0  0  0  0  0  0
  145.1640   74.0380  219.9270 F   0  0  0  0  0  0  0  0  0  0  0  0
  143.7270   75.9280  219.6990 C   0  0  0  0  0  0  0  0  0  0  0  0
  144.5310   76.4902  219.2016 H   0  0  0  0  0  0  0  0  0  0  0  0
  142.4810   76.5270  219.9050 C   0  0  0  0  0  0  0  0  0  0  0  0
  142.3064   77.5591  219.5668 H   0  0  0  0  0  0  0  0  0  0  0  0
  139.2700   71.1180  223.7770 C   0  0  0  0  0  0  0  0  0  0  0  0
  139.8410   71.5630  224.9300 N   0  0  0  0  0  0  0  0  0  0  0  0
  140.1110   70.7350  225.9730 C   0  0  0  0  0  0  0  0  0  0  0  0
  140.7220   71.2340  227.1290 C   0  0  0  0  0  0  0  0  0  0  0  0
  140.9631   72.3045  227.2052 H   0  0  0  0  0  0  0  0  0  0  0  0
  141.0260   70.3720  228.1870 C   0  0  0  0  0  0  0  0  0  0  0  0
  141.5064   70.7662  229.0946 H   0  0  0  0  0  0  0  0  0  0  0  0
  140.7210   69.0090  228.0950 C   0  0  0  0  0  0  0  0  0  0  0  0
  141.0220   68.1780  229.1220 F   0  0  0  0  0  0  0  0  0  0  0  0
  140.1070   68.5010  226.9440 C   0  0  0  0  0  0  0  0  0  0  0  0
  139.8674   67.4297  226.8746 H   0  0  0  0  0  0  0  0  0  0  0  0
  139.7980   69.3600  225.8800 C   0  0  0  0  0  0  0  0  0  0  0  0
  139.2000   68.8820  224.7090 C   0  0  0  0  0  0  0  0  0  0  0  0
  138.9355   67.8179  224.6211 H   0  0  0  0  0  0  0  0  0  0  0  0
  138.9390   69.7560  223.6520 C   0  0  0  0  0  0  0  0  0  0  0  0
  138.4771   69.3819  222.7264 H   0  0  0  0  0  0  0  0  0  0  0  0
  1  2  1  0
  2  3  1  0
  3  4  2  0
  4  5  1  0
  5  6  1  0
  5  7  1  0
  5  8  1  0
  8  9  2  0
  8 10  1  0
 10 11  1  0
 11 12  1  0
 11 13  1  0
 11 14  1  0
 14 15  1  1
 14 16  1  0
 16 17  1  0
 14 18  1  0
 18 19  1  0
 18 20  1  0
 18 21  1  0
 21 22  1  6
 21 23  1  0
 23 24  2  0
 23 25  1  0
 25 26  1  0
 26 27  1  1
 26 28  1  0
 28 29  2  0
 29 30  1  0
 29 31  1  0
 31 32  1  0
 31 33  2  0
 33 34  1  0
 33 35  1  0
 35 36  1  0
 35 37  2  0
 37 38  1  0
 26 39  1  0
 39 40  1  0
 39 41  1  0
 39 42  1  0
 42 43  2  0
 43 44  1  0
 43 45  1  0
 45 46  1  0
 45 47  2  0
 47 48  1  0
 47 49  1  0
 49 50  1  0
 49 51  2  0
 51 52  1  0
  3 53  1  0
 53 54  2  0
 54 55  1  0
 55 56  2  0
 56 57  1  0
 56 58  1  0
 58 59  1  0
 58 60  2  0
 60 61  1  0
 60 62  1  0
 62 63  1  0
 62 64  2  0
 64 65  1  0
 65 66  1  0
 65 67  2  0
 67 68  1  0
 21 10  1  0
 37 28  1  0
 51 42  1  0
 67 53  1  0
 64 55  1  0
M  CHG  1  25  -1
M  END
>  <UniqueID>  (33) 
2

>  <SMILES>  (33) 
O=C([N-][C@@H](Cc1ccc(F)cc1)c1ccccc1)[C@@H]1C[C@@H](O)CN1C(=O)C/N=C(\O)c1ccc2cc(F)ccc2n1

>  <Energy>  (33) 
70.53272038268653

>  <Genealogy>  (33) 
O=C(NCC(=O)N1C[C@H](O)C[C@H]1C(=O)[N-][C@@H](Cc1ccc(F)cc1)c1ccccc1)c1ccc2cc(F)ccc2n1 (protonated)
O=C([N-][C@@H](Cc1ccc(F)cc1)c1ccccc1)[C@@H]1C[C@@H](O)CN1C(=O)CN=C(O)c1ccc2cc(F)ccc2n1 (tautomer)
O=C([N-][C@@H](Cc1ccc(F)cc1)c1ccccc1)[C@@H]1C[C@@H](O)CN1C(=O)C/N=C(\O)c1ccc2cc(F)ccc2n1 (cis-trans isomerization)
O=C([N-][C@@H](Cc1ccc(F)cc1)c1ccccc1)[C@@H]1C[C@@H](O)CN1C(=O)C/N=C(\O)c1ccc2cc(F)ccc2n1 (3D coordinates assigned)
O=C([N-][C@@H](Cc1ccc(F)cc1)c1ccccc1)[C@@H]1C[C@@H](O)CN1C(=O)C/N=C(\O)c1ccc2cc(F)ccc2n1 (nonaromatic ring conformer: 70.53272038268653 kcal/mol)

>  <smiles>  (33) 
O=C(NCC(=O)N1C[C@H](O)C[C@H]1C(=O)N[C@@H](Cc1ccc(F)cc1)c1ccccc1)c1ccc2cc(F)ccc2n1

>  <score_type>  (33) 
oracle

>  <origin>  (33) 
autodockgpu

>  <m_score__min__energy>  (33) 
-9.3499999999999996

>  <m_primary>  (33) 
energy

>  <meeko>  (33) 
{"free_energy": -8.58, "intermolecular_energy": -12.46, "internal_energy": -3.88, "cluster_size": 5, "cluster_id": 3, "rank_in_cluster": 1}

>  <energy>  (33) 
-8.35

>  <cluster_rmsd>  (33) 
0.0

>  <rmsd>  (33) 
270.92

>  <cluster>  (33) 
4

$$$$
XFBXCNWOYUAVIW-ZAPLKEHQNA-M
     RDKit          3D

 68 72  0  0  0  0  0  0  0  0999 V2000
  139.1720   73.8890  222.7660 H   0  0  0  0  0  0  0  0  0  0  0  0
  138.6750   74.6140  222.2680 O   0  0  0  0  0  0  0  0  0  0  0  0
  139.2050   75.3030  221.1730 C   0  0  0  0  0  0  0  0  0  0  0  0
  139.0320   74.8860  219.9490 N   0  0  0  0  0  0  0  0  0  0  0  0
  138.9450   73.4960  219.5110 C   0  0  0  0  0  0  0  0  0  0  0  0
  138.1143   73.3945  218.7972 H   0  0  0  0  0  0  0  0  0  0  0  0
  138.7741   72.8596  220.3918 H   0  0  0  0  0  0  0  0  0  0  0  0
  140.2170   73.0650  218.8480 C   0  0  0  0  0  0  0  0  0  0  0  0
  140.2000   72.6230  217.6690 O   0  0  0  0  0  0  0  0  0  0  0  0
  141.4580   73.1470  219.5520 N   0  0  0  0  0  0  0  0  0  0  0  0
  142.3960   74.2340  219.3550 C   0  0  0  0  0  0  0  0  0  0  0  0
  141.9073   75.2026  219.5365 H   0  0  0  0  0  0  0  0  0  0  0  0
  142.7826   74.2611  218.3255 H   0  0  0  0  0  0  0  0  0  0  0  0
  143.5060   73.9960  220.3740 C   0  0  2  0  0  0  0  0  0  0  0  0
  143.4140   74.6651  221.2423 H   0  0  0  0  0  0  0  0  0  0  0  0
  144.7640   74.2590  219.8100 O   0  0  0  0  0  0  0  0  0  0  0  0
  144.6130   74.9150  219.0800 H   0  0  0  0  0  0  0  0  0  0  0  0
  143.3770   72.5250  220.7900 C   0  0  0  0  0  0  0  0  0  0  0  0
  143.5727   72.4134  221.8667 H   0  0  0  0  0  0  0  0  0  0  0  0
  144.1026   71.8906  220.2599 H   0  0  0  0  0  0  0  0  0  0  0  0
  141.9350   72.1210  220.4660 C   0  0  1  0  0  0  0  0  0  0  0  0
  141.8851   71.1111  220.0329 H   0  0  0  0  0  0  0  0  0  0  0  0
  141.0780   72.0910  221.7130 C   0  0  0  0  0  0  0  0  0  0  0  0
  140.8670   73.1670  222.3350 O   0  0  0  0  0  0  0  0  0  0  0  0
  140.5050   70.8820  222.2330 N   0  0  0  0  0  0  0  0  0  0  0  0
  139.6570   70.7450  223.4170 C   0  0  2  0  0  0  0  0  0  0  0  0
  139.5747   69.6798  223.6791 H   0  0  0  0  0  0  0  0  0  0  0  0
  138.2730   71.2900  223.1190 C   0  0  0  0  0  0  0  0  0  0  0  0
  137.3320   71.4990  224.1450 C   0  0  0  0  0  0  0  0  0  0  0  0
  137.6073   71.2965  225.1906 H   0  0  0  0  0  0  0  0  0  0  0  0
  136.0490   71.9630  223.8400 C   0  0  0  0  0  0  0  0  0  0  0  0
  135.3235   72.1403  224.6476 H   0  0  0  0  0  0  0  0  0  0  0  0
  135.6860   72.2020  222.5130 C   0  0  0  0  0  0  0  0  0  0  0  0
  134.6783   72.5743  222.2764 H   0  0  0  0  0  0  0  0  0  0  0  0
  136.6030   71.9680  221.4870 C   0  0  0  0  0  0  0  0  0  0  0  0
  136.3138   72.1457  220.4407 H   0  0  0  0  0  0  0  0  0  0  0  0
  137.8860   71.5090  221.7870 C   0  0  0  0  0  0  0  0  0  0  0  0
  138.6006   71.3170  220.9730 H   0  0  0  0  0  0  0  0  0  0  0  0
  140.2820   71.4930  224.6130 C   0  0  0  0  0  0  0  0  0  0  0  0
  141.2592   71.8973  224.3105 H   0  0  0  0  0  0  0  0  0  0  0  0
  139.5981   72.3019  224.9095 H   0  0  0  0  0  0  0  0  0  0  0  0
  140.4750   70.5800  225.7960 C   0  0  0  0  0  0  0  0  0  0  0  0
  140.1960   69.2080  225.6810 C   0  0  0  0  0  0  0  0  0  0  0  0
  139.8758   68.7929  224.7140 H   0  0  0  0  0  0  0  0  0  0  0  0
  140.3240   68.3680  226.7920 C   0  0  0  0  0  0  0  0  0  0  0  0
  140.1157   67.2923  226.6941 H   0  0  0  0  0  0  0  0  0  0  0  0
  140.7160   68.8930  228.0260 C   0  0  0  0  0  0  0  0  0  0  0  0
  140.8270   68.0790  229.1060 F   0  0  0  0  0  0  0  0  0  0  0  0
  140.9890   70.2590  228.1500 C   0  0  0  0  0  0  0  0  0  0  0  0
  141.2961   70.6719  229.1222 H   0  0  0  0  0  0  0  0  0  0  0  0
  140.8720   71.1000  227.0400 C   0  0  0  0  0  0  0  0  0  0  0  0
  141.0915   72.1732  227.1403 H   0  0  0  0  0  0  0  0  0  0  0  0
  139.9960   76.5220  221.4330 C   0  0  0  0  0  0  0  0  0  0  0  0
  139.5390   77.4210  222.3470 N   0  0  0  0  0  0  0  0  0  0  0  0
  140.2170   78.5600  222.6470 C   0  0  0  0  0  0  0  0  0  0  0  0
  139.6940   79.4670  223.5760 C   0  0  0  0  0  0  0  0  0  0  0  0
  138.7429   79.2479  224.0834 H   0  0  0  0  0  0  0  0  0  0  0  0
  140.3810   80.6520  223.8590 C   0  0  0  0  0  0  0  0  0  0  0  0
  139.9691   81.3636  224.5898 H   0  0  0  0  0  0  0  0  0  0  0  0
  141.5910   80.9350  223.2150 C   0  0  0  0  0  0  0  0  0  0  0  0
  142.2510   82.0870  223.4900 F   0  0  0  0  0  0  0  0  0  0  0  0
  142.1240   80.0320  222.2880 C   0  0  0  0  0  0  0  0  0  0  0  0
  143.0766   80.2559  221.7855 H   0  0  0  0  0  0  0  0  0  0  0  0
  141.4410   78.8410  222.0010 C   0  0  0  0  0  0  0  0  0  0  0  0
  141.9370   77.9250  221.0660 C   0  0  0  0  0  0  0  0  0  0  0  0
  142.8950   78.1177  220.5610 H   0  0  0  0  0  0  0  0  0  0  0  0
  141.2140   76.7660  220.7750 C   0  0  0  0  0  0  0  0  0  0  0  0
  141.5958   76.0477  220.0346 H   0  0  0  0  0  0  0  0  0  0  0  0
  1  2  1  0
  2  3  1  0
  3  4  2  0
  4  5  1  0
  5  6  1  0
  5  7  1  0
  5  8  1  0
  8  9  2  0
  8 10  1  0
 10 11  1  0
 11 12  1  0
 11 13  1  0
 11 14  1  0
 14 15  1  1
 14 16  1  0
 16 17  1  0
 14 18  1  0
 18 19  1  0
 18 20  1  0
 18 21  1  0
 21 22  1  6
 21 23  1  0
 23 24  2  0
 23 25  1  0
 25 26  1  0
 26 27  1  1
 26 28  1  0
 28 29  2  0
 29 30  1  0
 29 31  1  0
 31 32  1  0
 31 33  2  0
 33 34  1  0
 33 35  1  0
 35 36  1  0
 35 37  2  0
 37 38  1  0
 26 39  1  0
 39 40  1  0
 39 41  1  0
 39 42  1  0
 42 43  2  0
 43 44  1  0
 43 45  1  0
 45 46  1  0
 45 47  2  0
 47 48  1  0
 47 49  1  0
 49 50  1  0
 49 51  2  0
 51 52  1  0
  3 53  1  0
 53 54  2  0
 54 55  1  0
 55 56  2  0
 56 57  1  0
 56 58  1  0
 58 59  1  0
 58 60  2  0
 60 61  1  0
 60 62  1  0
 62 63  1  0
 62 64  2  0
 64 65  1  0
 65 66  1  0
 65 67  2  0
 67 68  1  0
 21 10  1  0
 37 28  1  0
 51 42  1  0
 67 53  1  0
 64 55  1  0
M  CHG  1  25  -1
M  END
>  <UniqueID>  (34) 
2

>  <SMILES>  (34) 
O=C([N-][C@@H](Cc1ccc(F)cc1)c1ccccc1)[C@@H]1C[C@@H](O)CN1C(=O)C/N=C(\O)c1ccc2cc(F)ccc2n1

>  <Energy>  (34) 
70.53272038268653

>  <Genealogy>  (34) 
O=C(NCC(=O)N1C[C@H](O)C[C@H]1C(=O)[N-][C@@H](Cc1ccc(F)cc1)c1ccccc1)c1ccc2cc(F)ccc2n1 (protonated)
O=C([N-][C@@H](Cc1ccc(F)cc1)c1ccccc1)[C@@H]1C[C@@H](O)CN1C(=O)CN=C(O)c1ccc2cc(F)ccc2n1 (tautomer)
O=C([N-][C@@H](Cc1ccc(F)cc1)c1ccccc1)[C@@H]1C[C@@H](O)CN1C(=O)C/N=C(\O)c1ccc2cc(F)ccc2n1 (cis-trans isomerization)
O=C([N-][C@@H](Cc1ccc(F)cc1)c1ccccc1)[C@@H]1C[C@@H](O)CN1C(=O)C/N=C(\O)c1ccc2cc(F)ccc2n1 (3D coordinates assigned)
O=C([N-][C@@H](Cc1ccc(F)cc1)c1ccccc1)[C@@H]1C[C@@H](O)CN1C(=O)C/N=C(\O)c1ccc2cc(F)ccc2n1 (nonaromatic ring conformer: 70.53272038268653 kcal/mol)

>  <smiles>  (34) 
O=C(NCC(=O)N1C[C@H](O)C[C@H]1C(=O)N[C@@H](Cc1ccc(F)cc1)c1ccccc1)c1ccc2cc(F)ccc2n1

>  <score_type>  (34) 
oracle

>  <origin>  (34) 
autodockgpu

>  <m_score__min__energy>  (34) 
-9.3499999999999996

>  <m_primary>  (34) 
energy

>  <meeko>  (34) 
{"free_energy": -7.69, "intermolecular_energy": -11.57, "internal_energy": -3.84, "cluster_size": 5, "cluster_id": 1, "rank_in_cluster": 5}

>  <energy>  (34) 
-8.17

>  <cluster_rmsd>  (34) 
0.0

>  <rmsd>  (34) 
271.57

>  <cluster>  (34) 
5

$$$$
XFBXCNWOYUAVIW-ZAPLKEHQNA-M
     RDKit          3D

 68 72  0  0  0  0  0  0  0  0999 V2000
  138.8800   73.9070  222.8200 H   0  0  0  0  0  0  0  0  0  0  0  0
  138.2910   74.4780  222.2300 O   0  0  0  0  0  0  0  0  0  0  0  0
  138.7810   75.4840  221.3910 C   0  0  0  0  0  0  0  0  0  0  0  0
  138.9280   75.2980  220.1090 N   0  0  0  0  0  0  0  0  0  0  0  0
  139.8090   74.3230  219.4700 C   0  0  0  0  0  0  0  0  0  0  0  0
  139.5434   74.2402  218.4058 H   0  0  0  0  0  0  0  0  0  0  0  0
  139.6841   73.3527  219.9728 H   0  0  0  0  0  0  0  0  0  0  0  0
  141.2420   74.7430  219.5870 C   0  0  0  0  0  0  0  0  0  0  0  0
  141.6000   75.8900  219.2120 O   0  0  0  0  0  0  0  0  0  0  0  0
  142.2140   73.8390  220.1180 N   0  0  0  0  0  0  0  0  0  0  0  0
  143.6350   74.1230  220.0990 C   0  0  0  0  0  0  0  0  0  0  0  0
  143.8433   75.0816  220.5967 H   0  0  0  0  0  0  0  0  0  0  0  0
  144.0235   74.2068  219.0733 H   0  0  0  0  0  0  0  0  0  0  0  0
  144.2840   72.9720  220.8620 C   0  0  2  0  0  0  0  0  0  0  0  0
  144.5685   73.2661  221.8831 H   0  0  0  0  0  0  0  0  0  0  0  0
  145.4680   72.5620  220.2280 O   0  0  0  0  0  0  0  0  0  0  0  0
  145.8940   71.8980  220.8310 H   0  0  0  0  0  0  0  0  0  0  0  0
  143.2410   71.8470  220.8790 C   0  0  0  0  0  0  0  0  0  0  0  0
  143.2517   71.3299  221.8498 H   0  0  0  0  0  0  0  0  0  0  0  0
  143.4485   71.0921  220.1063 H   0  0  0  0  0  0  0  0  0  0  0  0
  141.8860   72.5270  220.6520 C   0  0  1  0  0  0  0  0  0  0  0  0
  141.2472   71.9415  219.9744 H   0  0  0  0  0  0  0  0  0  0  0  0
  141.1150   72.6650  221.9470 C   0  0  0  0  0  0  0  0  0  0  0  0
  140.7840   73.8150  222.3400 O   0  0  0  0  0  0  0  0  0  0  0  0
  140.7550   71.5380  222.7600 N   0  0  0  0  0  0  0  0  0  0  0  0
  139.6300   71.4450  223.6920 C   0  0  2  0  0  0  0  0  0  0  0  0
  139.1804   72.4414  223.8145 H   0  0  0  0  0  0  0  0  0  0  0  0
  140.1240   70.9560  225.0390 C   0  0  0  0  0  0  0  0  0  0  0  0
  139.9430   69.6200  225.4440 C   0  0  0  0  0  0  0  0  0  0  0  0
  139.4637   68.9015  224.7628 H   0  0  0  0  0  0  0  0  0  0  0  0
  140.3700   69.2020  226.7090 C   0  0  0  0  0  0  0  0  0  0  0  0
  140.2409   68.1529  227.0133 H   0  0  0  0  0  0  0  0  0  0  0  0
  140.9600   70.1150  227.5860 C   0  0  0  0  0  0  0  0  0  0  0  0
  141.3028   69.7824  228.5769 H   0  0  0  0  0  0  0  0  0  0  0  0
  141.1150   71.4490  227.2060 C   0  0  0  0  0  0  0  0  0  0  0  0
  141.5689   72.1700  227.9018 H   0  0  0  0  0  0  0  0  0  0  0  0
  140.6940   71.8680  225.9430 C   0  0  0  0  0  0  0  0  0  0  0  0
  140.8096   72.9226  225.6525 H   0  0  0  0  0  0  0  0  0  0  0  0
  138.5530   70.4910  223.1370 C   0  0  0  0  0  0  0  0  0  0  0  0
  138.4630   70.6461  222.0517 H   0  0  0  0  0  0  0  0  0  0  0  0
  138.8582   69.4582  223.3609 H   0  0  0  0  0  0  0  0  0  0  0  0
  137.2120   70.7380  223.7800 C   0  0  0  0  0  0  0  0  0  0  0  0
  136.5700   71.9770  223.6180 C   0  0  0  0  0  0  0  0  0  0  0  0
  137.0273   72.7530  222.9866 H   0  0  0  0  0  0  0  0  0  0  0  0
  135.3510   72.2270  224.2570 C   0  0  0  0  0  0  0  0  0  0  0  0
  134.8460   73.1942  224.1176 H   0  0  0  0  0  0  0  0  0  0  0  0
  134.7740   71.2500  225.0720 C   0  0  0  0  0  0  0  0  0  0  0  0
  133.5980   71.4990  225.7020 F   0  0  0  0  0  0  0  0  0  0  0  0
  135.4100   70.0170  225.2430 C   0  0  0  0  0  0  0  0  0  0  0  0
  134.9550   69.2487  225.8854 H   0  0  0  0  0  0  0  0  0  0  0  0
  136.6230   69.7590  224.5990 C   0  0  0  0  0  0  0  0  0  0  0  0
  137.1188   68.7863  224.7334 H   0  0  0  0  0  0  0  0  0  0  0  0
  139.1540   76.7770  221.9970 C   0  0  0  0  0  0  0  0  0  0  0  0
  140.4510   77.1850  221.9320 N   0  0  0  0  0  0  0  0  0  0  0  0
  140.8660   78.3680  222.4580 C   0  0  0  0  0  0  0  0  0  0  0  0
  142.2150   78.7330  222.3890 C   0  0  0  0  0  0  0  0  0  0  0  0
  142.9384   78.0732  221.8877 H   0  0  0  0  0  0  0  0  0  0  0  0
  142.6440   79.9380  222.9580 C   0  0  0  0  0  0  0  0  0  0  0  0
  143.7046   80.2243  222.9027 H   0  0  0  0  0  0  0  0  0  0  0  0
  141.7260   80.7790  223.5970 C   0  0  0  0  0  0  0  0  0  0  0  0
  142.1470   81.9430  224.1500 F   0  0  0  0  0  0  0  0  0  0  0  0
  140.3740   80.4240  223.6670 C   0  0  0  0  0  0  0  0  0  0  0  0
  139.6548   81.0891  224.1675 H   0  0  0  0  0  0  0  0  0  0  0  0
  139.9380   79.2190  223.0980 C   0  0  0  0  0  0  0  0  0  0  0  0
  138.5970   78.8260  223.1650 C   0  0  0  0  0  0  0  0  0  0  0  0
  137.8550   79.4805  223.6457 H   0  0  0  0  0  0  0  0  0  0  0  0
  138.2010   77.6020  222.6210 C   0  0  0  0  0  0  0  0  0  0  0  0
  137.1494   77.2849  222.6803 H   0  0  0  0  0  0  0  0  0  0  0  0
  1  2  1  0
  2  3  1  0
  3  4  2  0
  4  5  1  0
  5  6  1  0
  5  7  1  0
  5  8  1  0
  8  9  2  0
  8 10  1  0
 10 11  1  0
 11 12  1  0
 11 13  1  0
 11 14  1  0
 14 15  1  1
 14 16  1  0
 16 17  1  0
 14 18  1  0
 18 19  1  0
 18 20  1  0
 18 21  1  0
 21 22  1  6
 21 23  1  0
 23 24  2  0
 23 25  1  0
 25 26  1  0
 26 27  1  1
 26 28  1  0
 28 29  2  0
 29 30  1  0
 29 31  1  0
 31 32  1  0
 31 33  2  0
 33 34  1  0
 33 35  1  0
 35 36  1  0
 35 37  2  0
 37 38  1  0
 26 39  1  0
 39 40  1  0
 39 41  1  0
 39 42  1  0
 42 43  2  0
 43 44  1  0
 43 45  1  0
 45 46  1  0
 45 47  2  0
 47 48  1  0
 47 49  1  0
 49 50  1  0
 49 51  2  0
 51 52  1  0
  3 53  1  0
 53 54  2  0
 54 55  1  0
 55 56  2  0
 56 57  1  0
 56 58  1  0
 58 59  1  0
 58 60  2  0
 60 61  1  0
 60 62  1  0
 62 63  1  0
 62 64  2  0
 64 65  1  0
 65 66  1  0
 65 67  2  0
 67 68  1  0
 21 10  1  0
 37 28  1  0
 51 42  1  0
 67 53  1  0
 64 55  1  0
M  CHG  1  25  -1
M  END
>  <UniqueID>  (35) 
2

>  <SMILES>  (35) 
O=C([N-][C@@H](Cc1ccc(F)cc1)c1ccccc1)[C@@H]1C[C@@H](O)CN1C(=O)C/N=C(\O)c1ccc2cc(F)ccc2n1

>  <Energy>  (35) 
70.53272038268653

>  <Genealogy>  (35) 
O=C(NCC(=O)N1C[C@H](O)C[C@H]1C(=O)[N-][C@@H](Cc1ccc(F)cc1)c1ccccc1)c1ccc2cc(F)ccc2n1 (protonated)
O=C([N-][C@@H](Cc1ccc(F)cc1)c1ccccc1)[C@@H]1C[C@@H](O)CN1C(=O)CN=C(O)c1ccc2cc(F)ccc2n1 (tautomer)
O=C([N-][C@@H](Cc1ccc(F)cc1)c1ccccc1)[C@@H]1C[C@@H](O)CN1C(=O)C/N=C(\O)c1ccc2cc(F)ccc2n1 (cis-trans isomerization)
O=C([N-][C@@H](Cc1ccc(F)cc1)c1ccccc1)[C@@H]1C[C@@H](O)CN1C(=O)C/N=C(\O)c1ccc2cc(F)ccc2n1 (3D coordinates assigned)
O=C([N-][C@@H](Cc1ccc(F)cc1)c1ccccc1)[C@@H]1C[C@@H](O)CN1C(=O)C/N=C(\O)c1ccc2cc(F)ccc2n1 (nonaromatic ring conformer: 70.53272038268653 kcal/mol)

>  <smiles>  (35) 
O=C(NCC(=O)N1C[C@H](O)C[C@H]1C(=O)N[C@@H](Cc1ccc(F)cc1)c1ccccc1)c1ccc2cc(F)ccc2n1

>  <score_type>  (35) 
oracle

>  <origin>  (35) 
autodockgpu

>  <m_score__min__energy>  (35) 
-9.3499999999999996

>  <m_primary>  (35) 
energy

>  <meeko>  (35) 
{"free_energy": -8.85, "intermolecular_energy": -12.73, "internal_energy": -3.42, "cluster_size": 2, "cluster_id": 2, "rank_in_cluster": 1}

>  <energy>  (35) 
-8.01

>  <cluster_rmsd>  (35) 
0.0

>  <rmsd>  (35) 
270.46

>  <cluster>  (35) 
6

$$$$
XFBXCNWOYUAVIW-ZAPLKEHQNA-M
     RDKit          3D

 68 72  0  0  0  0  0  0  0  0999 V2000
  139.0360   74.0580  222.8130 H   0  0  0  0  0  0  0  0  0  0  0  0
  138.5240   74.7850  222.3340 O   0  0  0  0  0  0  0  0  0  0  0  0
  139.0750   75.5800  221.3230 C   0  0  0  0  0  0  0  0  0  0  0  0
  139.0010   75.2420  220.0660 N   0  0  0  0  0  0  0  0  0  0  0  0
  139.9520   74.4080  219.3350 C   0  0  0  0  0  0  0  0  0  0  0  0
  139.6220   74.3164  218.2897 H   0  0  0  0  0  0  0  0  0  0  0  0
  139.9918   73.4178  219.8125 H   0  0  0  0  0  0  0  0  0  0  0  0
  141.3230   75.0110  219.3660 C   0  0  0  0  0  0  0  0  0  0  0  0
  141.5200   76.1640  218.9000 O   0  0  0  0  0  0  0  0  0  0  0  0
  142.4190   74.2760  219.9160 N   0  0  0  0  0  0  0  0  0  0  0  0
  143.7380   74.8520  220.0840 C   0  0  0  0  0  0  0  0  0  0  0  0
  143.6841   75.7688  220.6895 H   0  0  0  0  0  0  0  0  0  0  0  0
  144.1889   75.1334  219.1209 H   0  0  0  0  0  0  0  0  0  0  0  0
  144.5540   73.7830  220.8040 C   0  0  2  0  0  0  0  0  0  0  0  0
  144.6744   74.0103  221.8735 H   0  0  0  0  0  0  0  0  0  0  0  0
  145.8500   73.7070  220.2730 O   0  0  0  0  0  0  0  0  0  0  0  0
  145.9680   74.5110  219.7030 H   0  0  0  0  0  0  0  0  0  0  0  0
  143.7870   72.4700  220.5990 C   0  0  0  0  0  0  0  0  0  0  0  0
  143.8237   71.8590  221.5130 H   0  0  0  0  0  0  0  0  0  0  0  0
  144.2249   71.8695  219.7880 H   0  0  0  0  0  0  0  0  0  0  0  0
  142.3420   72.8710  220.2840 C   0  0  1  0  0  0  0  0  0  0  0  0
  141.9125   72.2469  219.4865 H   0  0  0  0  0  0  0  0  0  0  0  0
  141.4460   72.6930  221.4900 C   0  0  0  0  0  0  0  0  0  0  0  0
  141.0530   73.7150  222.1150 O   0  0  0  0  0  0  0  0  0  0  0  0
  141.0330   71.4040  221.9680 N   0  0  0  0  0  0  0  0  0  0  0  0
  140.1590   71.1220  223.1070 C   0  0  2  0  0  0  0  0  0  0  0  0
  140.1760   70.0420  223.3153 H   0  0  0  0  0  0  0  0  0  0  0  0
  138.7390   71.5410  222.7750 C   0  0  0  0  0  0  0  0  0  0  0  0
  137.7190   71.5030  223.7440 C   0  0  0  0  0  0  0  0  0  0  0  0
  137.9531   71.1942  224.7735 H   0  0  0  0  0  0  0  0  0  0  0  0
  136.4090   71.8560  223.4040 C   0  0  0  0  0  0  0  0  0  0  0  0
  135.6197   71.8414  224.1700 H   0  0  0  0  0  0  0  0  0  0  0  0
  136.1020   72.2270  222.0930 C   0  0  0  0  0  0  0  0  0  0  0  0
  135.0728   72.5115  221.8290 H   0  0  0  0  0  0  0  0  0  0  0  0
  137.1000   72.2370  221.1180 C   0  0  0  0  0  0  0  0  0  0  0  0
  136.8547   72.5178  220.0831 H   0  0  0  0  0  0  0  0  0  0  0  0
  138.4090   71.8910  221.4550 C   0  0  0  0  0  0  0  0  0  0  0  0
  139.1897   71.8923  220.6801 H   0  0  0  0  0  0  0  0  0  0  0  0
  140.6580   71.8670  224.3620 C   0  0  0  0  0  0  0  0  0  0  0  0
  141.7042   72.1688  224.2062 H   0  0  0  0  0  0  0  0  0  0  0  0
  140.0162   72.7464  224.5195 H   0  0  0  0  0  0  0  0  0  0  0  0
  140.5770   70.9960  225.5900 C   0  0  0  0  0  0  0  0  0  0  0  0
  140.7930   71.5500  226.8620 C   0  0  0  0  0  0  0  0  0  0  0  0
  140.9809   72.6289  226.9655 H   0  0  0  0  0  0  0  0  0  0  0  0
  140.7700   70.7340  227.9980 C   0  0  0  0  0  0  0  0  0  0  0  0
  140.9278   71.1742  228.9936 H   0  0  0  0  0  0  0  0  0  0  0  0
  140.5470   69.3610  227.8700 C   0  0  0  0  0  0  0  0  0  0  0  0
  140.5390   68.5690  228.9720 F   0  0  0  0  0  0  0  0  0  0  0  0
  140.3380   68.8010  226.6060 C   0  0  0  0  0  0  0  0  0  0  0  0
  140.1640   67.7195  226.5060 H   0  0  0  0  0  0  0  0  0  0  0  0
  140.3500   69.6140  225.4700 C   0  0  0  0  0  0  0  0  0  0  0  0
  140.1811   69.1708  224.4775 H   0  0  0  0  0  0  0  0  0  0  0  0
  139.7720   76.8200  221.7150 C   0  0  0  0  0  0  0  0  0  0  0  0
  139.4030   77.9950  221.1330 N   0  0  0  0  0  0  0  0  0  0  0  0
  139.9910   79.1790  221.4500 C   0  0  0  0  0  0  0  0  0  0  0  0
  139.5950   80.3560  220.8070 C   0  0  0  0  0  0  0  0  0  0  0  0
  138.7889   80.3296  220.0590 H   0  0  0  0  0  0  0  0  0  0  0  0
  140.2240   81.5670  221.1150 C   0  0  0  0  0  0  0  0  0  0  0  0
  139.9121   82.4918  220.6076 H   0  0  0  0  0  0  0  0  0  0  0  0
  141.2490   81.6050  222.0670 C   0  0  0  0  0  0  0  0  0  0  0  0
  141.8580   82.7800  222.3590 F   0  0  0  0  0  0  0  0  0  0  0  0
  141.6490   80.4330  222.7180 C   0  0  0  0  0  0  0  0  0  0  0  0
  142.4543   80.4662  223.4666 H   0  0  0  0  0  0  0  0  0  0  0  0
  141.0220   79.2160  222.4150 C   0  0  0  0  0  0  0  0  0  0  0  0
  141.4090   78.0230  223.0350 C   0  0  0  0  0  0  0  0  0  0  0  0
  142.2002   78.0319  223.7991 H   0  0  0  0  0  0  0  0  0  0  0  0
  140.7910   76.8210  222.6840 C   0  0  0  0  0  0  0  0  0  0  0  0
  141.0996   75.8800  223.1629 H   0  0  0  0  0  0  0  0  0  0  0  0
  1  2  1  0
  2  3  1  0
  3  4  2  0
  4  5  1  0
  5  6  1  0
  5  7  1  0
  5  8  1  0
  8  9  2  0
  8 10  1  0
 10 11  1  0
 11 12  1  0
 11 13  1  0
 11 14  1  0
 14 15  1  1
 14 16  1  0
 16 17  1  0
 14 18  1  0
 18 19  1  0
 18 20  1  0
 18 21  1  0
 21 22  1  6
 21 23  1  0
 23 24  2  0
 23 25  1  0
 25 26  1  0
 26 27  1  1
 26 28  1  0
 28 29  2  0
 29 30  1  0
 29 31  1  0
 31 32  1  0
 31 33  2  0
 33 34  1  0
 33 35  1  0
 35 36  1  0
 35 37  2  0
 37 38  1  0
 26 39  1  0
 39 40  1  0
 39 41  1  0
 39 42  1  0
 42 43  2  0
 43 44  1  0
 43 45  1  0
 45 46  1  0
 45 47  2  0
 47 48  1  0
 47 49  1  0
 49 50  1  0
 49 51  2  0
 51 52  1  0
  3 53  1  0
 53 54  2  0
 54 55  1  0
 55 56  2  0
 56 57  1  0
 56 58  1  0
 58 59  1  0
 58 60  2  0
 60 61  1  0
 60 62  1  0
 62 63  1  0
 62 64  2  0
 64 65  1  0
 65 66  1  0
 65 67  2  0
 67 68  1  0
 21 10  1  0
 37 28  1  0
 51 42  1  0
 67 53  1  0
 64 55  1  0
M  CHG  1  25  -1
M  END
>  <UniqueID>  (36) 
2

>  <SMILES>  (36) 
O=C([N-][C@@H](Cc1ccc(F)cc1)c1ccccc1)[C@@H]1C[C@@H](O)CN1C(=O)C/N=C(\O)c1ccc2cc(F)ccc2n1

>  <Energy>  (36) 
70.53272038268653

>  <Genealogy>  (36) 
O=C(NCC(=O)N1C[C@H](O)C[C@H]1C(=O)[N-][C@@H](Cc1ccc(F)cc1)c1ccccc1)c1ccc2cc(F)ccc2n1 (protonated)
O=C([N-][C@@H](Cc1ccc(F)cc1)c1ccccc1)[C@@H]1C[C@@H](O)CN1C(=O)CN=C(O)c1ccc2cc(F)ccc2n1 (tautomer)
O=C([N-][C@@H](Cc1ccc(F)cc1)c1ccccc1)[C@@H]1C[C@@H](O)CN1C(=O)C/N=C(\O)c1ccc2cc(F)ccc2n1 (cis-trans isomerization)
O=C([N-][C@@H](Cc1ccc(F)cc1)c1ccccc1)[C@@H]1C[C@@H](O)CN1C(=O)C/N=C(\O)c1ccc2cc(F)ccc2n1 (3D coordinates assigned)
O=C([N-][C@@H](Cc1ccc(F)cc1)c1ccccc1)[C@@H]1C[C@@H](O)CN1C(=O)C/N=C(\O)c1ccc2cc(F)ccc2n1 (nonaromatic ring conformer: 70.53272038268653 kcal/mol)

>  <smiles>  (36) 
O=C(NCC(=O)N1C[C@H](O)C[C@H]1C(=O)N[C@@H](Cc1ccc(F)cc1)c1ccccc1)c1ccc2cc(F)ccc2n1

>  <score_type>  (36) 
oracle

>  <origin>  (36) 
autodockgpu

>  <m_score__min__energy>  (36) 
-9.3499999999999996

>  <m_primary>  (36) 
energy

>  <meeko>  (36) 
{"free_energy": -7.98, "intermolecular_energy": -11.86, "internal_energy": -3.91, "cluster_size": 5, "cluster_id": 1, "rank_in_cluster": 3}

>  <energy>  (36) 
-7.95

>  <cluster_rmsd>  (36) 
0.0

>  <rmsd>  (36) 
270.82

>  <cluster>  (36) 
7

$$$$
XFBXCNWOYUAVIW-ZAPLKEHQNA-M
     RDKit          3D

 68 72  0  0  0  0  0  0  0  0999 V2000
  138.5850   74.2440  222.7220 H   0  0  0  0  0  0  0  0  0  0  0  0
  137.7740   74.7170  222.3490 O   0  0  0  0  0  0  0  0  0  0  0  0
  137.8470   75.8490  221.5320 C   0  0  0  0  0  0  0  0  0  0  0  0
  137.4180   75.8370  220.3000 N   0  0  0  0  0  0  0  0  0  0  0  0
  138.2420   75.8810  219.0950 C   0  0  0  0  0  0  0  0  0  0  0  0
  138.7988   76.8294  219.0735 H   0  0  0  0  0  0  0  0  0  0  0  0
  137.5853   75.8021  218.2161 H   0  0  0  0  0  0  0  0  0  0  0  0
  139.2140   74.7400  219.0720 C   0  0  0  0  0  0  0  0  0  0  0  0
  138.8610   73.6160  218.6300 O   0  0  0  0  0  0  0  0  0  0  0  0
  140.5450   74.9210  219.5610 N   0  0  0  0  0  0  0  0  0  0  0  0
  141.3100   76.1250  219.3110 C   0  0  0  0  0  0  0  0  0  0  0  0
  140.7607   77.0107  219.6630 H   0  0  0  0  0  0  0  0  0  0  0  0
  141.5006   76.2747  218.2380 H   0  0  0  0  0  0  0  0  0  0  0  0
  142.6040   75.9500  220.1000 C   0  0  2  0  0  0  0  0  0  0  0  0
  142.5988   76.5367  221.0304 H   0  0  0  0  0  0  0  0  0  0  0  0
  143.7040   76.4050  219.3570 O   0  0  0  0  0  0  0  0  0  0  0  0
  144.0690   77.1880  219.8470 H   0  0  0  0  0  0  0  0  0  0  0  0
  142.7100   74.4470  220.3910 C   0  0  0  0  0  0  0  0  0  0  0  0
  143.1069   74.2803  221.4033 H   0  0  0  0  0  0  0  0  0  0  0  0
  143.3922   73.9466  219.6879 H   0  0  0  0  0  0  0  0  0  0  0  0
  141.2840   73.8960  220.2800 C   0  0  1  0  0  0  0  0  0  0  0  0
  141.2645   72.9223  219.7685 H   0  0  0  0  0  0  0  0  0  0  0  0
  140.6730   73.6690  221.6460 C   0  0  0  0  0  0  0  0  0  0  0  0
  140.3390   74.6680  222.3370 O   0  0  0  0  0  0  0  0  0  0  0  0
  140.4720   72.3600  222.1990 N   0  0  0  0  0  0  0  0  0  0  0  0
  139.3220   71.8970  222.9760 C   0  0  2  0  0  0  0  0  0  0  0  0
  138.7052   72.7637  223.2562 H   0  0  0  0  0  0  0  0  0  0  0  0
  139.8030   71.2040  224.2360 C   0  0  0  0  0  0  0  0  0  0  0  0
  140.6880   71.8380  225.1290 C   0  0  0  0  0  0  0  0  0  0  0  0
  141.0175   72.8691  224.9336 H   0  0  0  0  0  0  0  0  0  0  0  0
  141.1500   71.1630  226.2630 C   0  0  0  0  0  0  0  0  0  0  0  0
  141.8274   71.6702  226.9658 H   0  0  0  0  0  0  0  0  0  0  0  0
  140.7530   69.8460  226.5050 C   0  0  0  0  0  0  0  0  0  0  0  0
  141.1127   69.3188  227.4010 H   0  0  0  0  0  0  0  0  0  0  0  0
  139.9000   69.1990  225.6100 C   0  0  0  0  0  0  0  0  0  0  0  0
  139.5953   68.1586  225.7962 H   0  0  0  0  0  0  0  0  0  0  0  0
  139.4330   69.8700  224.4790 C   0  0  0  0  0  0  0  0  0  0  0  0
  138.7697   69.3505  223.7717 H   0  0  0  0  0  0  0  0  0  0  0  0
  138.4580   70.9370  222.1330 C   0  0  0  0  0  0  0  0  0  0  0  0
  138.0856   70.1295  222.7805 H   0  0  0  0  0  0  0  0  0  0  0  0
  137.6237   71.5109  221.7033 H   0  0  0  0  0  0  0  0  0  0  0  0
  139.2480   70.3320  221.0010 C   0  0  0  0  0  0  0  0  0  0  0  0
  139.2620   70.9510  219.7410 C   0  0  0  0  0  0  0  0  0  0  0  0
  138.7293   71.9017  219.5915 H   0  0  0  0  0  0  0  0  0  0  0  0
  139.9510   70.3630  218.6750 C   0  0  0  0  0  0  0  0  0  0  0  0
  139.9680   70.8572  217.6924 H   0  0  0  0  0  0  0  0  0  0  0  0
  140.6180   69.1480  218.8570 C   0  0  0  0  0  0  0  0  0  0  0  0
  141.2750   68.5730  217.8190 F   0  0  0  0  0  0  0  0  0  0  0  0
  140.6030   68.5230  220.1070 C   0  0  0  0  0  0  0  0  0  0  0  0
  141.1274   67.5665  220.2489 H   0  0  0  0  0  0  0  0  0  0  0  0
  139.9230   69.1110  221.1770 C   0  0  0  0  0  0  0  0  0  0  0  0
  139.9158   68.6172  222.1599 H   0  0  0  0  0  0  0  0  0  0  0  0
  138.4480   77.0750  222.0920 C   0  0  0  0  0  0  0  0  0  0  0  0
  139.7930   77.2590  221.9830 N   0  0  0  0  0  0  0  0  0  0  0  0
  140.4150   78.3670  222.4660 C   0  0  0  0  0  0  0  0  0  0  0  0
  141.8030   78.4990  222.3530 C   0  0  0  0  0  0  0  0  0  0  0  0
  142.3911   77.7163  221.8516 H   0  0  0  0  0  0  0  0  0  0  0  0
  142.4430   79.6270  222.8780 C   0  0  0  0  0  0  0  0  0  0  0  0
  143.5346   79.7296  222.7890 H   0  0  0  0  0  0  0  0  0  0  0  0
  141.6980   80.6250  223.5160 C   0  0  0  0  0  0  0  0  0  0  0  0
  142.3240   81.7140  224.0270 F   0  0  0  0  0  0  0  0  0  0  0  0
  140.3090   80.5030  223.6310 C   0  0  0  0  0  0  0  0  0  0  0  0
  139.7262   81.2900  224.1321 H   0  0  0  0  0  0  0  0  0  0  0  0
  139.6610   79.3750  223.1060 C   0  0  0  0  0  0  0  0  0  0  0  0
  138.2760   79.2140  223.2180 C   0  0  0  0  0  0  0  0  0  0  0  0
  137.6684   79.9943  223.6996 H   0  0  0  0  0  0  0  0  0  0  0  0
  137.6650   78.0620  222.7180 C   0  0  0  0  0  0  0  0  0  0  0  0
  136.5774   77.9271  222.8131 H   0  0  0  0  0  0  0  0  0  0  0  0
  1  2  1  0
  2  3  1  0
  3  4  2  0
  4  5  1  0
  5  6  1  0
  5  7  1  0
  5  8  1  0
  8  9  2  0
  8 10  1  0
 10 11  1  0
 11 12  1  0
 11 13  1  0
 11 14  1  0
 14 15  1  1
 14 16  1  0
 16 17  1  0
 14 18  1  0
 18 19  1  0
 18 20  1  0
 18 21  1  0
 21 22  1  6
 21 23  1  0
 23 24  2  0
 23 25  1  0
 25 26  1  0
 26 27  1  1
 26 28  1  0
 28 29  2  0
 29 30  1  0
 29 31  1  0
 31 32  1  0
 31 33  2  0
 33 34  1  0
 33 35  1  0
 35 36  1  0
 35 37  2  0
 37 38  1  0
 26 39  1  0
 39 40  1  0
 39 41  1  0
 39 42  1  0
 42 43  2  0
 43 44  1  0
 43 45  1  0
 45 46  1  0
 45 47  2  0
 47 48  1  0
 47 49  1  0
 49 50  1  0
 49 51  2  0
 51 52  1  0
  3 53  1  0
 53 54  2  0
 54 55  1  0
 55 56  2  0
 56 57  1  0
 56 58  1  0
 58 59  1  0
 58 60  2  0
 60 61  1  0
 60 62  1  0
 62 63  1  0
 62 64  2  0
 64 65  1  0
 65 66  1  0
 65 67  2  0
 67 68  1  0
 21 10  1  0
 37 28  1  0
 51 42  1  0
 67 53  1  0
 64 55  1  0
M  CHG  1  25  -1
M  END
>  <UniqueID>  (37) 
2

>  <SMILES>  (37) 
O=C([N-][C@@H](Cc1ccc(F)cc1)c1ccccc1)[C@@H]1C[C@@H](O)CN1C(=O)C/N=C(\O)c1ccc2cc(F)ccc2n1

>  <Energy>  (37) 
70.53272038268653

>  <Genealogy>  (37) 
O=C(NCC(=O)N1C[C@H](O)C[C@H]1C(=O)[N-][C@@H](Cc1ccc(F)cc1)c1ccccc1)c1ccc2cc(F)ccc2n1 (protonated)
O=C([N-][C@@H](Cc1ccc(F)cc1)c1ccccc1)[C@@H]1C[C@@H](O)CN1C(=O)CN=C(O)c1ccc2cc(F)ccc2n1 (tautomer)
O=C([N-][C@@H](Cc1ccc(F)cc1)c1ccccc1)[C@@H]1C[C@@H](O)CN1C(=O)C/N=C(\O)c1ccc2cc(F)ccc2n1 (cis-trans isomerization)
O=C([N-][C@@H](Cc1ccc(F)cc1)c1ccccc1)[C@@H]1C[C@@H](O)CN1C(=O)C/N=C(\O)c1ccc2cc(F)ccc2n1 (3D coordinates assigned)
O=C([N-][C@@H](Cc1ccc(F)cc1)c1ccccc1)[C@@H]1C[C@@H](O)CN1C(=O)C/N=C(\O)c1ccc2cc(F)ccc2n1 (nonaromatic ring conformer: 70.53272038268653 kcal/mol)

>  <smiles>  (37) 
O=C(NCC(=O)N1C[C@H](O)C[C@H]1C(=O)N[C@@H](Cc1ccc(F)cc1)c1ccccc1)c1ccc2cc(F)ccc2n1

>  <score_type>  (37) 
oracle

>  <origin>  (37) 
autodockgpu

>  <m_score__min__energy>  (37) 
-9.3499999999999996

>  <m_primary>  (37) 
energy

>  <meeko>  (37) 
{"free_energy": -6.99, "intermolecular_energy": -10.86, "internal_energy": -4.39, "cluster_size": 3, "cluster_id": 7, "rank_in_cluster": 3}

>  <energy>  (37) 
-7.94

>  <cluster_rmsd>  (37) 
0.24

>  <rmsd>  (37) 
270.94

>  <cluster>  (37) 
7

$$$$
XFBXCNWOYUAVIW-ZAPLKEHQNA-M
     RDKit          3D

 68 72  0  0  0  0  0  0  0  0999 V2000
  138.4300   73.3710  222.8950 H   0  0  0  0  0  0  0  0  0  0  0  0
  138.3830   72.3880  222.6650 O   0  0  0  0  0  0  0  0  0  0  0  0
  139.4860   71.5290  222.7160 C   0  0  0  0  0  0  0  0  0  0  0  0
  140.3860   71.5090  221.7730 N   0  0  0  0  0  0  0  0  0  0  0  0
  141.1140   72.6600  221.2440 C   0  0  0  0  0  0  0  0  0  0  0  0
  141.4937   72.4164  220.2408 H   0  0  0  0  0  0  0  0  0  0  0  0
  141.9474   72.8922  221.9233 H   0  0  0  0  0  0  0  0  0  0  0  0
  140.2210   73.8590  221.1530 C   0  0  0  0  0  0  0  0  0  0  0  0
  140.0450   74.5970  222.1580 O   0  0  0  0  0  0  0  0  0  0  0  0
  139.5560   74.1690  219.9260 N   0  0  0  0  0  0  0  0  0  0  0  0
  138.6950   73.2220  219.2460 C   0  0  0  0  0  0  0  0  0  0  0  0
  137.8952   72.8767  219.9176 H   0  0  0  0  0  0  0  0  0  0  0  0
  139.2450   72.3266  218.9208 H   0  0  0  0  0  0  0  0  0  0  0  0
  138.1080   73.9900  218.0660 C   0  0  2  0  0  0  0  0  0  0  0  0
  137.0708   74.3026  218.2569 H   0  0  0  0  0  0  0  0  0  0  0  0
  138.0690   73.1830  216.9180 O   0  0  0  0  0  0  0  0  0  0  0  0
  137.9780   72.2470  217.2360 H   0  0  0  0  0  0  0  0  0  0  0  0
  139.0260   75.2030  217.8640 C   0  0  0  0  0  0  0  0  0  0  0  0
  138.4337   76.0912  217.5989 H   0  0  0  0  0  0  0  0  0  0  0  0
  139.7434   75.0351  217.0472 H   0  0  0  0  0  0  0  0  0  0  0  0
  139.7390   75.4180  219.2040 C   0  0  1  0  0  0  0  0  0  0  0  0
  140.7992   75.6746  219.0623 H   0  0  0  0  0  0  0  0  0  0  0  0
  139.1250   76.5650  219.9770 C   0  0  0  0  0  0  0  0  0  0  0  0
  137.8800   76.5710  220.1740 O   0  0  0  0  0  0  0  0  0  0  0  0
  139.8990   77.6620  220.4850 N   0  0  0  0  0  0  0  0  0  0  0  0
  141.3200   77.6520  220.8370 C   0  0  2  0  0  0  0  0  0  0  0  0
  141.5787   76.6710  221.2621 H   0  0  0  0  0  0  0  0  0  0  0  0
  141.5970   78.7270  221.8700 C   0  0  0  0  0  0  0  0  0  0  0  0
  142.0260   80.0130  221.4910 C   0  0  0  0  0  0  0  0  0  0  0  0
  142.1344   80.2623  220.4251 H   0  0  0  0  0  0  0  0  0  0  0  0
  142.3150   80.9750  222.4640 C   0  0  0  0  0  0  0  0  0  0  0  0
  142.6336   81.9834  222.1613 H   0  0  0  0  0  0  0  0  0  0  0  0
  142.2000   80.6580  223.8190 C   0  0  0  0  0  0  0  0  0  0  0  0
  142.4209   81.4186  224.5823 H   0  0  0  0  0  0  0  0  0  0  0  0
  141.8050   79.3770  224.2050 C   0  0  0  0  0  0  0  0  0  0  0  0
  141.7251   79.1247  225.2727 H   0  0  0  0  0  0  0  0  0  0  0  0
  141.5110   78.4150  223.2370 C   0  0  0  0  0  0  0  0  0  0  0  0
  141.2093   77.4037  223.5474 H   0  0  0  0  0  0  0  0  0  0  0  0
  142.1840   77.8800  219.5800 C   0  0  0  0  0  0  0  0  0  0  0  0
  141.5385   78.2316  218.7616 H   0  0  0  0  0  0  0  0  0  0  0  0
  142.9533   78.6283  219.8212 H   0  0  0  0  0  0  0  0  0  0  0  0
  142.8760   76.6130  219.1480 C   0  0  0  0  0  0  0  0  0  0  0  0
  143.1370   76.3800  217.7880 C   0  0  0  0  0  0  0  0  0  0  0  0
  142.8724   77.1429  217.0411 H   0  0  0  0  0  0  0  0  0  0  0  0
  143.7320   75.1820  217.3790 C   0  0  0  0  0  0  0  0  0  0  0  0
  143.9459   75.0105  216.3137 H   0  0  0  0  0  0  0  0  0  0  0  0
  144.0550   74.2030  218.3220 C   0  0  0  0  0  0  0  0  0  0  0  0
  144.6190   73.0360  217.9230 F   0  0  0  0  0  0  0  0  0  0  0  0
  143.7920   74.4240  219.6780 C   0  0  0  0  0  0  0  0  0  0  0  0
  144.0459   73.6525  220.4199 H   0  0  0  0  0  0  0  0  0  0  0  0
  143.2070   75.6240  220.0910 C   0  0  0  0  0  0  0  0  0  0  0  0
  143.0046   75.7956  221.1585 H   0  0  0  0  0  0  0  0  0  0  0  0
  139.6050   70.6160  223.8690 C   0  0  0  0  0  0  0  0  0  0  0  0
  140.1960   71.0670  225.0090 N   0  0  0  0  0  0  0  0  0  0  0  0
  140.3320   70.2880  226.1150 C   0  0  0  0  0  0  0  0  0  0  0  0
  140.9700   70.7880  227.2550 C   0  0  0  0  0  0  0  0  0  0  0  0
  141.3427   71.8229  227.2675 H   0  0  0  0  0  0  0  0  0  0  0  0
  141.1340   69.9720  228.3790 C   0  0  0  0  0  0  0  0  0  0  0  0
  141.6364   70.3667  229.2745 H   0  0  0  0  0  0  0  0  0  0  0  0
  140.6610   68.6550  228.3680 C   0  0  0  0  0  0  0  0  0  0  0  0
  140.8270   67.8670  229.4580 F   0  0  0  0  0  0  0  0  0  0  0  0
  140.0190   68.1470  227.2330 C   0  0  0  0  0  0  0  0  0  0  0  0
  139.6475   67.1116  227.2273 H   0  0  0  0  0  0  0  0  0  0  0  0
  139.8500   68.9600  226.1030 C   0  0  0  0  0  0  0  0  0  0  0  0
  139.2270   68.4780  224.9460 C   0  0  0  0  0  0  0  0  0  0  0  0
  138.8315   67.4519  224.9205 H   0  0  0  0  0  0  0  0  0  0  0  0
  139.1080   69.3010  223.8240 C   0  0  0  0  0  0  0  0  0  0  0  0
  138.6279   68.9226  222.9095 H   0  0  0  0  0  0  0  0  0  0  0  0
  1  2  1  0
  2  3  1  0
  3  4  2  0
  4  5  1  0
  5  6  1  0
  5  7  1  0
  5  8  1  0
  8  9  2  0
  8 10  1  0
 10 11  1  0
 11 12  1  0
 11 13  1  0
 11 14  1  0
 14 15  1  1
 14 16  1  0
 16 17  1  0
 14 18  1  0
 18 19  1  0
 18 20  1  0
 18 21  1  0
 21 22  1  6
 21 23  1  0
 23 24  2  0
 23 25  1  0
 25 26  1  0
 26 27  1  1
 26 28  1  0
 28 29  2  0
 29 30  1  0
 29 31  1  0
 31 32  1  0
 31 33  2  0
 33 34  1  0
 33 35  1  0
 35 36  1  0
 35 37  2  0
 37 38  1  0
 26 39  1  0
 39 40  1  0
 39 41  1  0
 39 42  1  0
 42 43  2  0
 43 44  1  0
 43 45  1  0
 45 46  1  0
 45 47  2  0
 47 48  1  0
 47 49  1  0
 49 50  1  0
 49 51  2  0
 51 52  1  0
  3 53  1  0
 53 54  2  0
 54 55  1  0
 55 56  2  0
 56 57  1  0
 56 58  1  0
 58 59  1  0
 58 60  2  0
 60 61  1  0
 60 62  1  0
 62 63  1  0
 62 64  2  0
 64 65  1  0
 65 66  1  0
 65 67  2  0
 67 68  1  0
 21 10  1  0
 37 28  1  0
 51 42  1  0
 67 53  1  0
 64 55  1  0
M  CHG  1  25  -1
M  END
>  <UniqueID>  (38) 
2

>  <SMILES>  (38) 
O=C([N-][C@@H](Cc1ccc(F)cc1)c1ccccc1)[C@@H]1C[C@@H](O)CN1C(=O)C/N=C(\O)c1ccc2cc(F)ccc2n1

>  <Energy>  (38) 
70.53272038268653

>  <Genealogy>  (38) 
O=C(NCC(=O)N1C[C@H](O)C[C@H]1C(=O)[N-][C@@H](Cc1ccc(F)cc1)c1ccccc1)c1ccc2cc(F)ccc2n1 (protonated)
O=C([N-][C@@H](Cc1ccc(F)cc1)c1ccccc1)[C@@H]1C[C@@H](O)CN1C(=O)CN=C(O)c1ccc2cc(F)ccc2n1 (tautomer)
O=C([N-][C@@H](Cc1ccc(F)cc1)c1ccccc1)[C@@H]1C[C@@H](O)CN1C(=O)C/N=C(\O)c1ccc2cc(F)ccc2n1 (cis-trans isomerization)
O=C([N-][C@@H](Cc1ccc(F)cc1)c1ccccc1)[C@@H]1C[C@@H](O)CN1C(=O)C/N=C(\O)c1ccc2cc(F)ccc2n1 (3D coordinates assigned)
O=C([N-][C@@H](Cc1ccc(F)cc1)c1ccccc1)[C@@H]1C[C@@H](O)CN1C(=O)C/N=C(\O)c1ccc2cc(F)ccc2n1 (nonaromatic ring conformer: 70.53272038268653 kcal/mol)

>  <smiles>  (38) 
O=C(NCC(=O)N1C[C@H](O)C[C@H]1C(=O)N[C@@H](Cc1ccc(F)cc1)c1ccccc1)c1ccc2cc(F)ccc2n1

>  <score_type>  (38) 
oracle

>  <origin>  (38) 
autodockgpu

>  <m_score__min__energy>  (38) 
-9.3499999999999996

>  <m_primary>  (38) 
energy

>  <meeko>  (38) 
{"free_energy": -8.01, "intermolecular_energy": -11.89, "internal_energy": -3.26, "cluster_size": 1, "cluster_id": 6, "rank_in_cluster": 1}

>  <energy>  (38) 
-6.99

>  <cluster_rmsd>  (38) 
1.87

>  <rmsd>  (38) 
270.2

>  <cluster>  (38) 
7

$$$$
XFBXCNWOYUAVIW-ZAPLKEHQNA-M
     RDKit          3D

 68 72  0  0  0  0  0  0  0  0999 V2000
  141.4790   72.2120  220.1930 H   0  0  0  0  0  0  0  0  0  0  0  0
  140.5490   72.2190  220.5880 O   0  0  0  0  0  0  0  0  0  0  0  0
  140.2400   72.7890  221.8270 C   0  0  0  0  0  0  0  0  0  0  0  0
  140.0910   74.0760  221.9740 N   0  0  0  0  0  0  0  0  0  0  0  0
  141.1060   75.0990  221.7340 C   0  0  0  0  0  0  0  0  0  0  0  0
  141.5830   75.3647  222.6889 H   0  0  0  0  0  0  0  0  0  0  0  0
  140.6199   75.9804  221.2902 H   0  0  0  0  0  0  0  0  0  0  0  0
  142.1520   74.5990  220.7850 C   0  0  0  0  0  0  0  0  0  0  0  0
  142.7780   73.5350  221.0340 O   0  0  0  0  0  0  0  0  0  0  0  0
  142.4520   75.3320  219.5950 N   0  0  0  0  0  0  0  0  0  0  0  0
  143.1640   74.7470  218.4770 C   0  0  0  0  0  0  0  0  0  0  0  0
  142.6500   73.8406  218.1245 H   0  0  0  0  0  0  0  0  0  0  0  0
  144.1855   74.4464  218.7531 H   0  0  0  0  0  0  0  0  0  0  0  0
  143.1600   75.8190  217.3930 C   0  0  2  0  0  0  0  0  0  0  0  0
  142.4162   75.6071  216.6108 H   0  0  0  0  0  0  0  0  0  0  0  0
  144.4050   75.8750  216.7450 O   0  0  0  0  0  0  0  0  0  0  0  0
  145.0850   75.6240  217.4230 H   0  0  0  0  0  0  0  0  0  0  0  0
  142.8470   77.1360  218.1150 C   0  0  0  0  0  0  0  0  0  0  0  0
  142.1846   77.7619  217.4989 H   0  0  0  0  0  0  0  0  0  0  0  0
  143.7604   77.7185  218.3058 H   0  0  0  0  0  0  0  0  0  0  0  0
  142.1470   76.7440  219.4210 C   0  0  1  0  0  0  0  0  0  0  0  0
  142.4901   77.3595  220.2657 H   0  0  0  0  0  0  0  0  0  0  0  0
  140.6510   76.9500  219.3280 C   0  0  0  0  0  0  0  0  0  0  0  0
  139.9740   76.1820  218.5930 O   0  0  0  0  0  0  0  0  0  0  0  0
  139.9660   77.9970  220.0300 N   0  0  0  0  0  0  0  0  0  0  0  0
  140.4010   79.3850  220.1880 C   0  0  2  0  0  0  0  0  0  0  0  0
  141.0536   79.6550  219.3446 H   0  0  0  0  0  0  0  0  0  0  0  0
  141.1770   79.5320  221.4820 C   0  0  0  0  0  0  0  0  0  0  0  0
  141.1270   78.5430  222.4830 C   0  0  0  0  0  0  0  0  0  0  0  0
  140.5404   77.6271  222.3184 H   0  0  0  0  0  0  0  0  0  0  0  0
  141.8190   78.7190  223.6850 C   0  0  0  0  0  0  0  0  0  0  0  0
  141.7896   77.9345  224.4556 H   0  0  0  0  0  0  0  0  0  0  0  0
  142.5480   79.8900  223.9090 C   0  0  0  0  0  0  0  0  0  0  0  0
  143.0981   80.0235  224.8521 H   0  0  0  0  0  0  0  0  0  0  0  0
  142.5780   80.8900  222.9360 C   0  0  0  0  0  0  0  0  0  0  0  0
  143.1425   81.8166  223.1172 H   0  0  0  0  0  0  0  0  0  0  0  0
  141.8920   80.7150  221.7330 C   0  0  0  0  0  0  0  0  0  0  0  0
  141.9114   81.5111  220.9741 H   0  0  0  0  0  0  0  0  0  0  0  0
  139.1830   80.3320  220.1840 C   0  0  0  0  0  0  0  0  0  0  0  0
  139.5121   81.3364  219.8792 H   0  0  0  0  0  0  0  0  0  0  0  0
  138.4382   79.9335  219.4794 H   0  0  0  0  0  0  0  0  0  0  0  0
  138.5460   80.4180  221.5470 C   0  0  0  0  0  0  0  0  0  0  0  0
  138.6900   81.5820  222.3200 C   0  0  0  0  0  0  0  0  0  0  0  0
  139.2332   82.4471  221.9120 H   0  0  0  0  0  0  0  0  0  0  0  0
  138.1450   81.6450  223.6070 C   0  0  0  0  0  0  0  0  0  0  0  0
  138.2509   82.5627  224.2041 H   0  0  0  0  0  0  0  0  0  0  0  0
  137.4660   80.5430  224.1350 C   0  0  0  0  0  0  0  0  0  0  0  0
  136.9490   80.6010  225.3870 F   0  0  0  0  0  0  0  0  0  0  0  0
  137.3230   79.3790  223.3730 C   0  0  0  0  0  0  0  0  0  0  0  0
  136.7881   78.5123  223.7887 H   0  0  0  0  0  0  0  0  0  0  0  0
  137.8590   79.3160  222.0840 C   0  0  0  0  0  0  0  0  0  0  0  0
  137.7426   78.3995  221.4869 H   0  0  0  0  0  0  0  0  0  0  0  0
  140.1020   71.8920  222.9910 C   0  0  0  0  0  0  0  0  0  0  0  0
  140.6510   72.2660  224.1800 N   0  0  0  0  0  0  0  0  0  0  0  0
  140.5550   71.4980  225.2970 C   0  0  0  0  0  0  0  0  0  0  0  0
  141.1580   71.9120  226.4900 C   0  0  0  0  0  0  0  0  0  0  0  0
  141.6912   72.8732  226.5319 H   0  0  0  0  0  0  0  0  0  0  0  0
  141.0830   71.1040  227.6290 C   0  0  0  0  0  0  0  0  0  0  0  0
  141.5579   71.4309  228.5658 H   0  0  0  0  0  0  0  0  0  0  0  0
  140.4050   69.8800  227.5800 C   0  0  0  0  0  0  0  0  0  0  0  0
  140.3390   69.0990  228.6860 F   0  0  0  0  0  0  0  0  0  0  0  0
  139.7970   69.4590  226.3920 C   0  0  0  0  0  0  0  0  0  0  0  0
  139.2648   68.4969  226.3566 H   0  0  0  0  0  0  0  0  0  0  0  0
  139.8670   70.2650  225.2470 C   0  0  0  0  0  0  0  0  0  0  0  0
  139.2840   69.8670  224.0400 C   0  0  0  0  0  0  0  0  0  0  0  0
  138.7307   68.9180  223.9831 H   0  0  0  0  0  0  0  0  0  0  0  0
  139.4040   70.6740  222.9070 C   0  0  0  0  0  0  0  0  0  0  0  0
  138.9549   70.3588  221.9536 H   0  0  0  0  0  0  0  0  0  0  0  0
  1  2  1  0
  2  3  1  0
  3  4  2  0
  4  5  1  0
  5  6  1  0
  5  7  1  0
  5  8  1  0
  8  9  2  0
  8 10  1  0
 10 11  1  0
 11 12  1  0
 11 13  1  0
 11 14  1  0
 14 15  1  6
 14 16  1  0
 16 17  1  0
 14 18  1  0
 18 19  1  0
 18 20  1  0
 18 21  1  0
 21 22  1  1
 21 23  1  0
 23 24  2  0
 23 25  1  0
 25 26  1  0
 26 27  1  6
 26 28  1  0
 28 29  2  0
 29 30  1  0
 29 31  1  0
 31 32  1  0
 31 33  2  0
 33 34  1  0
 33 35  1  0
 35 36  1  0
 35 37  2  0
 37 38  1  0
 26 39  1  0
 39 40  1  0
 39 41  1  0
 39 42  1  0
 42 43  2  0
 43 44  1  0
 43 45  1  0
 45 46  1  0
 45 47  2  0
 47 48  1  0
 47 49  1  0
 49 50  1  0
 49 51  2  0
 51 52  1  0
  3 53  1  0
 53 54  2  0
 54 55  1  0
 55 56  2  0
 56 57  1  0
 56 58  1  0
 58 59  1  0
 58 60  2  0
 60 61  1  0
 60 62  1  0
 62 63  1  0
 62 64  2  0
 64 65  1  0
 65 66  1  0
 65 67  2  0
 67 68  1  0
 21 10  1  0
 37 28  1  0
 51 42  1  0
 67 53  1  0
 64 55  1  0
M  CHG  1  25  -1
M  END
>  <UniqueID>  (39) 
2

>  <SMILES>  (39) 
O=C([N-][C@@H](Cc1ccc(F)cc1)c1ccccc1)[C@@H]1C[C@@H](O)CN1C(=O)C/N=C(\O)c1ccc2cc(F)ccc2n1

>  <Energy>  (39) 
70.53272038268653

>  <Genealogy>  (39) 
O=C(NCC(=O)N1C[C@H](O)C[C@H]1C(=O)[N-][C@@H](Cc1ccc(F)cc1)c1ccccc1)c1ccc2cc(F)ccc2n1 (protonated)
O=C([N-][C@@H](Cc1ccc(F)cc1)c1ccccc1)[C@@H]1C[C@@H](O)CN1C(=O)CN=C(O)c1ccc2cc(F)ccc2n1 (tautomer)
O=C([N-][C@@H](Cc1ccc(F)cc1)c1ccccc1)[C@@H]1C[C@@H](O)CN1C(=O)C/N=C(\O)c1ccc2cc(F)ccc2n1 (cis-trans isomerization)
O=C([N-][C@@H](Cc1ccc(F)cc1)c1ccccc1)[C@@H]1C[C@@H](O)CN1C(=O)C/N=C(\O)c1ccc2cc(F)ccc2n1 (3D coordinates assigned)
O=C([N-][C@@H](Cc1ccc(F)cc1)c1ccccc1)[C@@H]1C[C@@H](O)CN1C(=O)C/N=C(\O)c1ccc2cc(F)ccc2n1 (nonaromatic ring conformer: 70.53272038268653 kcal/mol)

>  <smiles>  (39) 
O=C(NCC(=O)N1C[C@H](O)C[C@H]1C(=O)N[C@@H](Cc1ccc(F)cc1)c1ccccc1)c1ccc2cc(F)ccc2n1

>  <score_type>  (39) 
oracle

>  <origin>  (39) 
autodockgpu

>  <m_score__min__energy>  (39) 
-9.3499999999999996

>  <m_primary>  (39) 
energy

>  <meeko>  (39) 
{"free_energy": -7.86, "intermolecular_energy": -11.74, "internal_energy": -3.25, "cluster_size": 1, "cluster_id": 9, "rank_in_cluster": 1}

>  <energy>  (39) 
-7.87

>  <cluster_rmsd>  (39) 
0.0

>  <rmsd>  (39) 
270.6

>  <cluster>  (39) 
8

$$$$
XFBXCNWOYUAVIW-ZAPLKEHQNA-M
     RDKit          3D

 68 72  0  0  0  0  0  0  0  0999 V2000
  137.3090   73.4420  223.1190 H   0  0  0  0  0  0  0  0  0  0  0  0
  137.4420   72.4400  223.0970 O   0  0  0  0  0  0  0  0  0  0  0  0
  138.6970   71.8280  223.0150 C   0  0  0  0  0  0  0  0  0  0  0  0
  139.5270   72.0900  222.0450 N   0  0  0  0  0  0  0  0  0  0  0  0
  139.1760   72.5460  220.7020 C   0  0  0  0  0  0  0  0  0  0  0  0
  138.4980   71.8142  220.2385 H   0  0  0  0  0  0  0  0  0  0  0  0
  140.0983   72.6423  220.1104 H   0  0  0  0  0  0  0  0  0  0  0  0
  138.4970   73.8810  220.7530 C   0  0  0  0  0  0  0  0  0  0  0  0
  137.2680   73.9770  220.4990 O   0  0  0  0  0  0  0  0  0  0  0  0
  139.2430   75.0540  221.0820 N   0  0  0  0  0  0  0  0  0  0  0  0
  140.1560   75.6840  220.1510 C   0  0  0  0  0  0  0  0  0  0  0  0
  139.6379   75.9358  219.2139 H   0  0  0  0  0  0  0  0  0  0  0  0
  140.9920   75.0209  219.8840 H   0  0  0  0  0  0  0  0  0  0  0  0
  140.6360   76.9500  220.8530 C   0  0  2  0  0  0  0  0  0  0  0  0
  140.1339   77.8482  220.4644 H   0  0  0  0  0  0  0  0  0  0  0  0
  142.0100   77.1460  220.6400 O   0  0  0  0  0  0  0  0  0  0  0  0
  142.4270   77.2170  221.5380 H   0  0  0  0  0  0  0  0  0  0  0  0
  140.3270   76.7400  222.3420 C   0  0  0  0  0  0  0  0  0  0  0  0
  139.9792   77.6792  222.7969 H   0  0  0  0  0  0  0  0  0  0  0  0
  141.2201   76.4206  222.8991 H   0  0  0  0  0  0  0  0  0  0  0  0
  139.2210   75.6800  222.3950 C   0  0  1  0  0  0  0  0  0  0  0  0
  139.3882   74.9604  223.2100 H   0  0  0  0  0  0  0  0  0  0  0  0
  137.8690   76.3070  222.6550 C   0  0  0  0  0  0  0  0  0  0  0  0
  136.9310   75.5810  223.0820 O   0  0  0  0  0  0  0  0  0  0  0  0
  137.5990   77.6980  222.4200 N   0  0  0  0  0  0  0  0  0  0  0  0
  138.2260   78.8420  223.0820 C   0  0  2  0  0  0  0  0  0  0  0  0
  138.9633   78.4762  223.8118 H   0  0  0  0  0  0  0  0  0  0  0  0
  137.1690   79.6520  223.8080 C   0  0  0  0  0  0  0  0  0  0  0  0
  135.7970   79.4360  223.5820 C   0  0  0  0  0  0  0  0  0  0  0  0
  135.4740   78.6440  222.8903 H   0  0  0  0  0  0  0  0  0  0  0  0
  134.8420   80.2240  224.2330 C   0  0  0  0  0  0  0  0  0  0  0  0
  133.7707   80.0388  224.0654 H   0  0  0  0  0  0  0  0  0  0  0  0
  135.2460   81.2450  225.0950 C   0  0  0  0  0  0  0  0  0  0  0  0
  134.4930   81.8584  225.6115 H   0  0  0  0  0  0  0  0  0  0  0  0
  136.6050   81.4880  225.3020 C   0  0  0  0  0  0  0  0  0  0  0  0
  136.9226   82.2995  225.9733 H   0  0  0  0  0  0  0  0  0  0  0  0
  137.5610   80.7010  224.6570 C   0  0  0  0  0  0  0  0  0  0  0  0
  138.6306   80.9039  224.8148 H   0  0  0  0  0  0  0  0  0  0  0  0
  138.9590   79.7220  222.0490 C   0  0  0  0  0  0  0  0  0  0  0  0
  138.9908   79.1915  221.0859 H   0  0  0  0  0  0  0  0  0  0  0  0
  138.4123   80.6719  221.9550 H   0  0  0  0  0  0  0  0  0  0  0  0
  140.3690   80.0290  222.4860 C   0  0  0  0  0  0  0  0  0  0  0  0
  141.2600   80.6570  221.6010 C   0  0  0  0  0  0  0  0  0  0  0  0
  140.9161   80.9621  220.6017 H   0  0  0  0  0  0  0  0  0  0  0  0
  142.5840   80.8960  221.9860 C   0  0  0  0  0  0  0  0  0  0  0  0
  143.2752   81.3992  221.2938 H   0  0  0  0  0  0  0  0  0  0  0  0
  143.0290   80.4960  223.2490 C   0  0  0  0  0  0  0  0  0  0  0  0
  144.3160   80.7160  223.6160 F   0  0  0  0  0  0  0  0  0  0  0  0
  142.1490   79.8640  224.1330 C   0  0  0  0  0  0  0  0  0  0  0  0
  142.5003   79.5491  225.1267 H   0  0  0  0  0  0  0  0  0  0  0  0
  140.8230   79.6320  223.7550 C   0  0  0  0  0  0  0  0  0  0  0  0
  140.1327   79.1368  224.4537 H   0  0  0  0  0  0  0  0  0  0  0  0
  139.0620   70.8480  224.0550 C   0  0  0  0  0  0  0  0  0  0  0  0
  139.6780   71.2870  225.1870 N   0  0  0  0  0  0  0  0  0  0  0  0
  140.0350   70.4450  226.1930 C   0  0  0  0  0  0  0  0  0  0  0  0
  140.6890   70.9400  227.3270 C   0  0  0  0  0  0  0  0  0  0  0  0
  140.8939   72.0169  227.4177 H   0  0  0  0  0  0  0  0  0  0  0  0
  141.0820   70.0650  228.3450 C   0  0  0  0  0  0  0  0  0  0  0  0
  141.5968   70.4553  229.2353 H   0  0  0  0  0  0  0  0  0  0  0  0
  140.8220   68.6940  228.2340 C   0  0  0  0  0  0  0  0  0  0  0  0
  141.2080   67.8500  229.2220 F   0  0  0  0  0  0  0  0  0  0  0  0
  140.1650   68.1900  227.1060 C   0  0  0  0  0  0  0  0  0  0  0  0
  139.9602   67.1124  227.0231 H   0  0  0  0  0  0  0  0  0  0  0  0
  139.7680   69.0620  226.0810 C   0  0  0  0  0  0  0  0  0  0  0  0
  139.1250   68.5900  224.9320 C   0  0  0  0  0  0  0  0  0  0  0  0
  138.8950   67.5190  224.8312 H   0  0  0  0  0  0  0  0  0  0  0  0
  138.7750   69.4780  223.9130 C   0  0  0  0  0  0  0  0  0  0  0  0
  138.2776   69.1085  223.0041 H   0  0  0  0  0  0  0  0  0  0  0  0
  1  2  1  0
  2  3  1  0
  3  4  2  0
  4  5  1  0
  5  6  1  0
  5  7  1  0
  5  8  1  0
  8  9  2  0
  8 10  1  0
 10 11  1  0
 11 12  1  0
 11 13  1  0
 11 14  1  0
 14 15  1  6
 14 16  1  0
 16 17  1  0
 14 18  1  0
 18 19  1  0
 18 20  1  0
 18 21  1  0
 21 22  1  1
 21 23  1  0
 23 24  2  0
 23 25  1  0
 25 26  1  0
 26 27  1  1
 26 28  1  0
 28 29  2  0
 29 30  1  0
 29 31  1  0
 31 32  1  0
 31 33  2  0
 33 34  1  0
 33 35  1  0
 35 36  1  0
 35 37  2  0
 37 38  1  0
 26 39  1  0
 39 40  1  0
 39 41  1  0
 39 42  1  0
 42 43  2  0
 43 44  1  0
 43 45  1  0
 45 46  1  0
 45 47  2  0
 47 48  1  0
 47 49  1  0
 49 50  1  0
 49 51  2  0
 51 52  1  0
  3 53  1  0
 53 54  2  0
 54 55  1  0
 55 56  2  0
 56 57  1  0
 56 58  1  0
 58 59  1  0
 58 60  2  0
 60 61  1  0
 60 62  1  0
 62 63  1  0
 62 64  2  0
 64 65  1  0
 65 66  1  0
 65 67  2  0
 67 68  1  0
 21 10  1  0
 37 28  1  0
 51 42  1  0
 67 53  1  0
 64 55  1  0
M  CHG  1  25  -1
M  END
>  <UniqueID>  (40) 
2

>  <SMILES>  (40) 
O=C([N-][C@@H](Cc1ccc(F)cc1)c1ccccc1)[C@@H]1C[C@@H](O)CN1C(=O)C/N=C(\O)c1ccc2cc(F)ccc2n1

>  <Energy>  (40) 
70.53272038268653

>  <Genealogy>  (40) 
O=C(NCC(=O)N1C[C@H](O)C[C@H]1C(=O)[N-][C@@H](Cc1ccc(F)cc1)c1ccccc1)c1ccc2cc(F)ccc2n1 (protonated)
O=C([N-][C@@H](Cc1ccc(F)cc1)c1ccccc1)[C@@H]1C[C@@H](O)CN1C(=O)CN=C(O)c1ccc2cc(F)ccc2n1 (tautomer)
O=C([N-][C@@H](Cc1ccc(F)cc1)c1ccccc1)[C@@H]1C[C@@H](O)CN1C(=O)C/N=C(\O)c1ccc2cc(F)ccc2n1 (cis-trans isomerization)
O=C([N-][C@@H](Cc1ccc(F)cc1)c1ccccc1)[C@@H]1C[C@@H](O)CN1C(=O)C/N=C(\O)c1ccc2cc(F)ccc2n1 (3D coordinates assigned)
O=C([N-][C@@H](Cc1ccc(F)cc1)c1ccccc1)[C@@H]1C[C@@H](O)CN1C(=O)C/N=C(\O)c1ccc2cc(F)ccc2n1 (nonaromatic ring conformer: 70.53272038268653 kcal/mol)

>  <smiles>  (40) 
O=C(NCC(=O)N1C[C@H](O)C[C@H]1C(=O)N[C@@H](Cc1ccc(F)cc1)c1ccccc1)c1ccc2cc(F)ccc2n1

>  <score_type>  (40) 
oracle

>  <origin>  (40) 
autodockgpu

>  <m_score__min__energy>  (40) 
-9.3499999999999996

>  <m_primary>  (40) 
energy

>  <meeko>  (40) 
{"free_energy": -8.17, "intermolecular_energy": -12.05, "internal_energy": -3.26, "cluster_size": 1, "cluster_id": 5, "rank_in_cluster": 1}

>  <energy>  (40) 
-7.86

>  <cluster_rmsd>  (40) 
0.0

>  <rmsd>  (40) 
271.2

>  <cluster>  (40) 
9

$$$$
XFBXCNWOYUAVIW-ZAPLKEHQNA-M
     RDKit          3D

 68 72  0  0  0  0  0  0  0  0999 V2000
  140.5390   74.7390  222.0600 H   0  0  0  0  0  0  0  0  0  0  0  0
  140.8310   73.8060  222.3150 O   0  0  0  0  0  0  0  0  0  0  0  0
  140.0340   72.6710  222.1360 C   0  0  0  0  0  0  0  0  0  0  0  0
  139.3930   72.4500  221.0220 N   0  0  0  0  0  0  0  0  0  0  0  0
  138.2870   73.2400  220.4870 C   0  0  0  0  0  0  0  0  0  0  0  0
  137.9545   72.7974  219.5364 H   0  0  0  0  0  0  0  0  0  0  0  0
  138.6351   74.2714  220.3285 H   0  0  0  0  0  0  0  0  0  0  0  0
  137.1370   73.2640  221.4460 C   0  0  0  0  0  0  0  0  0  0  0  0
  136.4840   72.2140  221.6800 O   0  0  0  0  0  0  0  0  0  0  0  0
  136.7690   74.4830  222.0960 N   0  0  0  0  0  0  0  0  0  0  0  0
  135.8290   74.5260  223.1980 C   0  0  0  0  0  0  0  0  0  0  0  0
  136.1589   73.8641  224.0123 H   0  0  0  0  0  0  0  0  0  0  0  0
  134.8275   74.1845  222.8972 H   0  0  0  0  0  0  0  0  0  0  0  0
  135.8200   75.9800  223.6610 C   0  0  2  0  0  0  0  0  0  0  0  0
  136.4065   76.1202  224.5810 H   0  0  0  0  0  0  0  0  0  0  0  0
  134.5140   76.3970  223.9620 O   0  0  0  0  0  0  0  0  0  0  0  0
  133.9250   75.9990  223.2690 H   0  0  0  0  0  0  0  0  0  0  0  0
  136.4100   76.7880  222.4980 C   0  0  0  0  0  0  0  0  0  0  0  0
  137.0542   77.5937  222.8798 H   0  0  0  0  0  0  0  0  0  0  0  0
  135.6217   77.2609  221.8938 H   0  0  0  0  0  0  0  0  0  0  0  0
  137.2330   75.7940  221.6710 C   0  0  1  0  0  0  0  0  0  0  0  0
  137.1025   75.9601  220.5915 H   0  0  0  0  0  0  0  0  0  0  0  0
  138.7140   75.9410  221.9460 C   0  0  0  0  0  0  0  0  0  0  0  0
  139.1540   75.6430  223.0880 O   0  0  0  0  0  0  0  0  0  0  0  0
  139.6420   76.4240  220.9640 N   0  0  0  0  0  0  0  0  0  0  0  0
  141.0820   76.6240  221.1320 C   0  0  2  0  0  0  0  0  0  0  0  0
  141.4603   75.9058  221.8744 H   0  0  0  0  0  0  0  0  0  0  0  0
  141.3470   78.0330  221.6270 C   0  0  0  0  0  0  0  0  0  0  0  0
  141.6260   79.0820  220.7310 C   0  0  0  0  0  0  0  0  0  0  0  0
  141.6230   78.8928  219.6474 H   0  0  0  0  0  0  0  0  0  0  0  0
  141.9070   80.3640  221.2140 C   0  0  0  0  0  0  0  0  0  0  0  0
  142.1073   81.1841  220.5088 H   0  0  0  0  0  0  0  0  0  0  0  0
  141.9340   80.6060  222.5890 C   0  0  0  0  0  0  0  0  0  0  0  0
  142.1484   81.6171  222.9656 H   0  0  0  0  0  0  0  0  0  0  0  0
  141.6890   79.5650  223.4850 C   0  0  0  0  0  0  0  0  0  0  0  0
  141.7204   79.7536  224.5683 H   0  0  0  0  0  0  0  0  0  0  0  0
  141.4040   78.2840  223.0080 C   0  0  0  0  0  0  0  0  0  0  0  0
  141.2227   77.4648  223.7193 H   0  0  0  0  0  0  0  0  0  0  0  0
  141.8170   76.3760  219.7990 C   0  0  0  0  0  0  0  0  0  0  0  0
  141.0726   76.2244  219.0034 H   0  0  0  0  0  0  0  0  0  0  0  0
  142.4471   77.2518  219.5847 H   0  0  0  0  0  0  0  0  0  0  0  0
  142.7060   75.1620  219.8750 C   0  0  0  0  0  0  0  0  0  0  0  0
  144.0850   75.3110  220.0990 C   0  0  0  0  0  0  0  0  0  0  0  0
  144.5088   76.3132  220.2601 H   0  0  0  0  0  0  0  0  0  0  0  0
  144.9210   74.1900  220.1180 C   0  0  0  0  0  0  0  0  0  0  0  0
  145.9980   74.3108  220.3062 H   0  0  0  0  0  0  0  0  0  0  0  0
  144.3890   72.9160  219.8980 C   0  0  0  0  0  0  0  0  0  0  0  0
  145.2030   71.8310  219.9020 F   0  0  0  0  0  0  0  0  0  0  0  0
  143.0190   72.7600  219.6670 C   0  0  0  0  0  0  0  0  0  0  0  0
  142.6018   71.7572  219.4930 H   0  0  0  0  0  0  0  0  0  0  0  0
  142.1790   73.8770  219.6570 C   0  0  0  0  0  0  0  0  0  0  0  0
  141.1011   73.7502  219.4778 H   0  0  0  0  0  0  0  0  0  0  0  0
  139.9140   71.7190  223.2570 C   0  0  0  0  0  0  0  0  0  0  0  0
  140.4850   72.0350  224.4530 N   0  0  0  0  0  0  0  0  0  0  0  0
  140.4070   71.2140  225.5330 C   0  0  0  0  0  0  0  0  0  0  0  0
  141.0310   71.5700  226.7340 C   0  0  0  0  0  0  0  0  0  0  0  0
  141.5663   72.5277  226.8129 H   0  0  0  0  0  0  0  0  0  0  0  0
  140.9740   70.7080  227.8340 C   0  0  0  0  0  0  0  0  0  0  0  0
  141.4657   70.9889  228.7771 H   0  0  0  0  0  0  0  0  0  0  0  0
  140.2930   69.4890  227.7380 C   0  0  0  0  0  0  0  0  0  0  0  0
  140.2440   68.6560  228.8060 F   0  0  0  0  0  0  0  0  0  0  0  0
  139.6630   69.1260  226.5430 C   0  0  0  0  0  0  0  0  0  0  0  0
  139.1279   68.1676  226.4711 H   0  0  0  0  0  0  0  0  0  0  0  0
  139.7150   69.9870  225.4360 C   0  0  0  0  0  0  0  0  0  0  0  0
  139.1100   69.6470  224.2210 C   0  0  0  0  0  0  0  0  0  0  0  0
  138.5545   68.7021  224.1280 H   0  0  0  0  0  0  0  0  0  0  0  0
  139.2120   70.5080  223.1270 C   0  0  0  0  0  0  0  0  0  0  0  0
  138.7453   70.2401  222.1676 H   0  0  0  0  0  0  0  0  0  0  0  0
  1  2  1  0
  2  3  1  0
  3  4  2  0
  4  5  1  0
  5  6  1  0
  5  7  1  0
  5  8  1  0
  8  9  2  0
  8 10  1  0
 10 11  1  0
 11 12  1  0
 11 13  1  0
 11 14  1  0
 14 15  1  1
 14 16  1  0
 16 17  1  0
 14 18  1  0
 18 19  1  0
 18 20  1  0
 18 21  1  0
 21 22  1  6
 21 23  1  0
 23 24  2  0
 23 25  1  0
 25 26  1  0
 26 27  1  1
 26 28  1  0
 28 29  2  0
 29 30  1  0
 29 31  1  0
 31 32  1  0
 31 33  2  0
 33 34  1  0
 33 35  1  0
 35 36  1  0
 35 37  2  0
 37 38  1  0
 26 39  1  0
 39 40  1  0
 39 41  1  0
 39 42  1  0
 42 43  2  0
 43 44  1  0
 43 45  1  0
 45 46  1  0
 45 47  2  0
 47 48  1  0
 47 49  1  0
 49 50  1  0
 49 51  2  0
 51 52  1  0
  3 53  1  0
 53 54  2  0
 54 55  1  0
 55 56  2  0
 56 57  1  0
 56 58  1  0
 58 59  1  0
 58 60  2  0
 60 61  1  0
 60 62  1  0
 62 63  1  0
 62 64  2  0
 64 65  1  0
 65 66  1  0
 65 67  2  0
 67 68  1  0
 21 10  1  0
 37 28  1  0
 51 42  1  0
 67 53  1  0
 64 55  1  0
M  CHG  1  25  -1
M  END
>  <UniqueID>  (41) 
3

>  <SMILES>  (41) 
O=C([N-][C@@H](Cc1ccc(F)cc1)c1ccccc1)[C@@H]1C[C@@H](O)CN1C(=O)C/N=C(\O)c1ccc2cc(F)ccc2n1

>  <Energy>  (41) 
70.9291234150735

>  <Genealogy>  (41) 
O=C(NCC(=O)N1C[C@H](O)C[C@H]1C(=O)[N-][C@@H](Cc1ccc(F)cc1)c1ccccc1)c1ccc2cc(F)ccc2n1 (protonated)
O=C([N-][C@@H](Cc1ccc(F)cc1)c1ccccc1)[C@@H]1C[C@@H](O)CN1C(=O)CN=C(O)c1ccc2cc(F)ccc2n1 (tautomer)
O=C([N-][C@@H](Cc1ccc(F)cc1)c1ccccc1)[C@@H]1C[C@@H](O)CN1C(=O)C/N=C(\O)c1ccc2cc(F)ccc2n1 (cis-trans isomerization)
O=C([N-][C@@H](Cc1ccc(F)cc1)c1ccccc1)[C@@H]1C[C@@H](O)CN1C(=O)C/N=C(\O)c1ccc2cc(F)ccc2n1 (3D coordinates assigned)
O=C([N-][C@@H](Cc1ccc(F)cc1)c1ccccc1)[C@@H]1C[C@@H](O)CN1C(=O)C/N=C(\O)c1ccc2cc(F)ccc2n1 (nonaromatic ring conformer: 70.9291234150735 kcal/mol)

>  <smiles>  (41) 
O=C(NCC(=O)N1C[C@H](O)C[C@H]1C(=O)N[C@@H](Cc1ccc(F)cc1)c1ccccc1)c1ccc2cc(F)ccc2n1

>  <score_type>  (41) 
oracle

>  <origin>  (41) 
autodockgpu

>  <m_score__min__energy>  (41) 
-9.3499999999999996

>  <m_primary>  (41) 
energy

>  <meeko>  (41) 
{"free_energy": -7.85, "intermolecular_energy": -11.73, "internal_energy": -4.28, "cluster_size": 5, "cluster_id": 3, "rank_in_cluster": 5}

>  <energy>  (41) 
-9.35

>  <cluster_rmsd>  (41) 
0.0

>  <rmsd>  (41) 
271.31

>  <cluster>  (41) 
1

$$$$
XFBXCNWOYUAVIW-ZAPLKEHQNA-M
     RDKit          3D

 68 72  0  0  0  0  0  0  0  0999 V2000
  138.9600   70.6120  220.4910 H   0  0  0  0  0  0  0  0  0  0  0  0
  138.5860   70.5820  221.4300 O   0  0  0  0  0  0  0  0  0  0  0  0
  139.2300   71.1460  222.5360 C   0  0  0  0  0  0  0  0  0  0  0  0
  139.6610   72.3760  222.5270 N   0  0  0  0  0  0  0  0  0  0  0  0
  141.0380   72.8100  222.3050 C   0  0  0  0  0  0  0  0  0  0  0  0
  141.7002   72.2812  223.0064 H   0  0  0  0  0  0  0  0  0  0  0  0
  141.0957   73.8963  222.4684 H   0  0  0  0  0  0  0  0  0  0  0  0
  141.4710   72.5120  220.9010 C   0  0  0  0  0  0  0  0  0  0  0  0
  140.8220   71.6950  220.1980 O   0  0  0  0  0  0  0  0  0  0  0  0
  142.6280   73.1490  220.3560 N   0  0  0  0  0  0  0  0  0  0  0  0
  143.6480   72.4210  219.6270 C   0  0  0  0  0  0  0  0  0  0  0  0
  143.2031   71.8779  218.7802 H   0  0  0  0  0  0  0  0  0  0  0  0
  144.1476   71.6712  220.2581 H   0  0  0  0  0  0  0  0  0  0  0  0
  144.6210   73.4850  219.1280 C   0  0  2  0  0  0  0  0  0  0  0  0
  144.4748   73.7048  218.0601 H   0  0  0  0  0  0  0  0  0  0  0  0
  145.9470   73.0450  219.2590 O   0  0  0  0  0  0  0  0  0  0  0  0
  146.5240   73.8100  218.9970 H   0  0  0  0  0  0  0  0  0  0  0  0
  144.3560   74.7260  219.9910 C   0  0  0  0  0  0  0  0  0  0  0  0
  144.4237   75.6384  219.3803 H   0  0  0  0  0  0  0  0  0  0  0  0
  145.0953   74.8209  220.8000 H   0  0  0  0  0  0  0  0  0  0  0  0
  142.9360   74.5580  220.5430 C   0  0  1  0  0  0  0  0  0  0  0  0
  142.8721   74.8694  221.5961 H   0  0  0  0  0  0  0  0  0  0  0  0
  141.9450   75.4160  219.7860 C   0  0  0  0  0  0  0  0  0  0  0  0
  141.3590   74.9300  218.7820 O   0  0  0  0  0  0  0  0  0  0  0  0
  141.6550   76.7740  220.1510 N   0  0  0  0  0  0  0  0  0  0  0  0
  140.7140   77.2300  221.1750 C   0  0  2  0  0  0  0  0  0  0  0  0
  139.7821   77.5539  220.6885 H   0  0  0  0  0  0  0  0  0  0  0  0
  141.3120   78.4010  221.9310 C   0  0  0  0  0  0  0  0  0  0  0  0
  141.8230   79.5250  221.2550 C   0  0  0  0  0  0  0  0  0  0  0  0
  141.7627   79.5784  220.1580 H   0  0  0  0  0  0  0  0  0  0  0  0
  142.4070   80.5740  221.9720 C   0  0  0  0  0  0  0  0  0  0  0  0
  142.7892   81.4571  221.4390 H   0  0  0  0  0  0  0  0  0  0  0  0
  142.5060   80.5030  223.3630 C   0  0  0  0  0  0  0  0  0  0  0  0
  142.9591   81.3328  223.9253 H   0  0  0  0  0  0  0  0  0  0  0  0
  142.0300   79.3790  224.0400 C   0  0  0  0  0  0  0  0  0  0  0  0
  142.1176   79.3184  225.1348 H   0  0  0  0  0  0  0  0  0  0  0  0
  141.4430   78.3320  223.3280 C   0  0  0  0  0  0  0  0  0  0  0  0
  141.0793   77.4441  223.8659 H   0  0  0  0  0  0  0  0  0  0  0  0
  140.3810   76.0790  222.1470 C   0  0  0  0  0  0  0  0  0  0  0  0
  140.9509   75.1856  221.8519 H   0  0  0  0  0  0  0  0  0  0  0  0
  140.6515   76.3970  223.1647 H   0  0  0  0  0  0  0  0  0  0  0  0
  138.9100   75.7500  222.1290 C   0  0  0  0  0  0  0  0  0  0  0  0
  138.0380   76.3700  223.0380 C   0  0  0  0  0  0  0  0  0  0  0  0
  138.4228   77.1277  223.7364 H   0  0  0  0  0  0  0  0  0  0  0  0
  136.6820   76.0280  223.0590 C   0  0  0  0  0  0  0  0  0  0  0  0
  136.0006   76.5262  223.7643 H   0  0  0  0  0  0  0  0  0  0  0  0
  136.1920   75.0540  222.1850 C   0  0  0  0  0  0  0  0  0  0  0  0
  134.8790   74.7140  222.2160 F   0  0  0  0  0  0  0  0  0  0  0  0
  137.0550   74.4270  221.2810 C   0  0  0  0  0  0  0  0  0  0  0  0
  136.6681   73.6609  220.5929 H   0  0  0  0  0  0  0  0  0  0  0  0
  138.4090   74.7730  221.2510 C   0  0  0  0  0  0  0  0  0  0  0  0
  139.0851   74.2789  220.5377 H   0  0  0  0  0  0  0  0  0  0  0  0
  139.4320   70.3010  223.7290 C   0  0  0  0  0  0  0  0  0  0  0  0
  140.0060   70.8500  224.8350 N   0  0  0  0  0  0  0  0  0  0  0  0
  140.2150   70.1370  225.9740 C   0  0  0  0  0  0  0  0  0  0  0  0
  140.8320   70.7380  227.0770 C   0  0  0  0  0  0  0  0  0  0  0  0
  141.1281   71.7965  227.0327 H   0  0  0  0  0  0  0  0  0  0  0  0
  141.0720   69.9920  228.2360 C   0  0  0  0  0  0  0  0  0  0  0  0
  141.5574   70.4652  229.1023 H   0  0  0  0  0  0  0  0  0  0  0  0
  140.6960   68.6450  228.2960 C   0  0  0  0  0  0  0  0  0  0  0  0
  140.9340   67.9270  229.4200 F   0  0  0  0  0  0  0  0  0  0  0  0
  140.0750   68.0370  227.1990 C   0  0  0  0  0  0  0  0  0  0  0  0
  139.7797   66.9786  227.2496 H   0  0  0  0  0  0  0  0  0  0  0  0
  139.8300   68.7800  226.0350 C   0  0  0  0  0  0  0  0  0  0  0  0
  139.2270   68.1980  224.9150 C   0  0  0  0  0  0  0  0  0  0  0  0
  138.9074   67.1459  224.9466 H   0  0  0  0  0  0  0  0  0  0  0  0
  139.0310   68.9530  223.7570 C   0  0  0  0  0  0  0  0  0  0  0  0
  138.5655   68.4961  222.8713 H   0  0  0  0  0  0  0  0  0  0  0  0
  1  2  1  0
  2  3  1  0
  3  4  2  0
  4  5  1  0
  5  6  1  0
  5  7  1  0
  5  8  1  0
  8  9  2  0
  8 10  1  0
 10 11  1  0
 11 12  1  0
 11 13  1  0
 11 14  1  0
 14 15  1  6
 14 16  1  0
 16 17  1  0
 14 18  1  0
 18 19  1  0
 18 20  1  0
 18 21  1  0
 21 22  1  1
 21 23  1  0
 23 24  2  0
 23 25  1  0
 25 26  1  0
 26 27  1  6
 26 28  1  0
 28 29  2  0
 29 30  1  0
 29 31  1  0
 31 32  1  0
 31 33  2  0
 33 34  1  0
 33 35  1  0
 35 36  1  0
 35 37  2  0
 37 38  1  0
 26 39  1  0
 39 40  1  0
 39 41  1  0
 39 42  1  0
 42 43  2  0
 43 44  1  0
 43 45  1  0
 45 46  1  0
 45 47  2  0
 47 48  1  0
 47 49  1  0
 49 50  1  0
 49 51  2  0
 51 52  1  0
  3 53  1  0
 53 54  2  0
 54 55  1  0
 55 56  2  0
 56 57  1  0
 56 58  1  0
 58 59  1  0
 58 60  2  0
 60 61  1  0
 60 62  1  0
 62 63  1  0
 62 64  2  0
 64 65  1  0
 65 66  1  0
 65 67  2  0
 67 68  1  0
 21 10  1  0
 37 28  1  0
 51 42  1  0
 67 53  1  0
 64 55  1  0
M  CHG  1  25  -1
M  END
>  <UniqueID>  (42) 
3

>  <SMILES>  (42) 
O=C([N-][C@@H](Cc1ccc(F)cc1)c1ccccc1)[C@@H]1C[C@@H](O)CN1C(=O)C/N=C(\O)c1ccc2cc(F)ccc2n1

>  <Energy>  (42) 
70.9291234150735

>  <Genealogy>  (42) 
O=C(NCC(=O)N1C[C@H](O)C[C@H]1C(=O)[N-][C@@H](Cc1ccc(F)cc1)c1ccccc1)c1ccc2cc(F)ccc2n1 (protonated)
O=C([N-][C@@H](Cc1ccc(F)cc1)c1ccccc1)[C@@H]1C[C@@H](O)CN1C(=O)CN=C(O)c1ccc2cc(F)ccc2n1 (tautomer)
O=C([N-][C@@H](Cc1ccc(F)cc1)c1ccccc1)[C@@H]1C[C@@H](O)CN1C(=O)C/N=C(\O)c1ccc2cc(F)ccc2n1 (cis-trans isomerization)
O=C([N-][C@@H](Cc1ccc(F)cc1)c1ccccc1)[C@@H]1C[C@@H](O)CN1C(=O)C/N=C(\O)c1ccc2cc(F)ccc2n1 (3D coordinates assigned)
O=C([N-][C@@H](Cc1ccc(F)cc1)c1ccccc1)[C@@H]1C[C@@H](O)CN1C(=O)C/N=C(\O)c1ccc2cc(F)ccc2n1 (nonaromatic ring conformer: 70.9291234150735 kcal/mol)

>  <smiles>  (42) 
O=C(NCC(=O)N1C[C@H](O)C[C@H]1C(=O)N[C@@H](Cc1ccc(F)cc1)c1ccccc1)c1ccc2cc(F)ccc2n1

>  <score_type>  (42) 
oracle

>  <origin>  (42) 
autodockgpu

>  <m_score__min__energy>  (42) 
-9.3499999999999996

>  <m_primary>  (42) 
energy

>  <meeko>  (42) 
{"free_energy": -8.35, "intermolecular_energy": -12.22, "internal_energy": -3.33, "cluster_size": 1, "cluster_id": 4, "rank_in_cluster": 1}

>  <energy>  (42) 
-9.11

>  <cluster_rmsd>  (42) 
1.72

>  <rmsd>  (42) 
271.24

>  <cluster>  (42) 
1

$$$$
XFBXCNWOYUAVIW-ZAPLKEHQNA-M
     RDKit          3D

 68 72  0  0  0  0  0  0  0  0999 V2000
  140.5770   74.5000  222.0930 H   0  0  0  0  0  0  0  0  0  0  0  0
  140.8660   73.5580  222.3160 O   0  0  0  0  0  0  0  0  0  0  0  0
  140.0240   72.4460  222.2060 C   0  0  0  0  0  0  0  0  0  0  0  0
  139.3300   72.2130  221.1270 N   0  0  0  0  0  0  0  0  0  0  0  0
  138.2610   73.0490  220.5860 C   0  0  0  0  0  0  0  0  0  0  0  0
  137.8572   72.5758  219.6788 H   0  0  0  0  0  0  0  0  0  0  0  0
  138.6743   74.0405  220.3490 H   0  0  0  0  0  0  0  0  0  0  0  0
  137.1580   73.2150  221.5860 C   0  0  0  0  0  0  0  0  0  0  0  0
  136.5100   72.2130  221.9880 O   0  0  0  0  0  0  0  0  0  0  0  0
  136.8290   74.5130  222.0840 N   0  0  0  0  0  0  0  0  0  0  0  0
  135.8380   74.7230  223.1210 C   0  0  0  0  0  0  0  0  0  0  0  0
  136.0872   74.1356  224.0170 H   0  0  0  0  0  0  0  0  0  0  0  0
  134.8349   74.4044  222.8011 H   0  0  0  0  0  0  0  0  0  0  0  0
  135.8900   76.2160  223.4290 C   0  0  2  0  0  0  0  0  0  0  0  0
  136.4366   76.4222  224.3611 H   0  0  0  0  0  0  0  0  0  0  0  0
  134.5960   76.7310  223.6110 O   0  0  0  0  0  0  0  0  0  0  0  0
  133.9680   75.9840  223.4270 H   0  0  0  0  0  0  0  0  0  0  0  0
  136.5840   76.8640  222.2240 C   0  0  0  0  0  0  0  0  0  0  0  0
  137.2535   77.6710  222.5564 H   0  0  0  0  0  0  0  0  0  0  0  0
  135.8561   77.3106  221.5306 H   0  0  0  0  0  0  0  0  0  0  0  0
  137.3890   75.7460  221.5520 C   0  0  1  0  0  0  0  0  0  0  0  0
  137.3233   75.8034  220.4555 H   0  0  0  0  0  0  0  0  0  0  0  0
  138.8600   75.8430  221.8950 C   0  0  0  0  0  0  0  0  0  0  0  0
  139.2220   75.6660  223.0890 O   0  0  0  0  0  0  0  0  0  0  0  0
  139.8670   76.1480  220.9170 N   0  0  0  0  0  0  0  0  0  0  0  0
  141.2810   76.4300  221.1650 C   0  0  2  0  0  0  0  0  0  0  0  0
  141.6719   75.7021  221.8911 H   0  0  0  0  0  0  0  0  0  0  0  0
  141.4290   77.8270  221.7360 C   0  0  0  0  0  0  0  0  0  0  0  0
  141.6750   78.9360  220.9050 C   0  0  0  0  0  0  0  0  0  0  0  0
  141.7306   78.8015  219.8147 H   0  0  0  0  0  0  0  0  0  0  0  0
  141.8490   80.2080  221.4590 C   0  0  0  0  0  0  0  0  0  0  0  0
  142.0232   81.0734  220.8027 H   0  0  0  0  0  0  0  0  0  0  0  0
  141.8020   80.3820  222.8440 C   0  0  0  0  0  0  0  0  0  0  0  0
  141.9320   81.3847  223.2773 H   0  0  0  0  0  0  0  0  0  0  0  0
  141.5900   79.2830  223.6780 C   0  0  0  0  0  0  0  0  0  0  0  0
  141.5639   79.4186  224.7693 H   0  0  0  0  0  0  0  0  0  0  0  0
  141.4110   78.0120  223.1290 C   0  0  0  0  0  0  0  0  0  0  0  0
  141.2546   77.1484  223.7921 H   0  0  0  0  0  0  0  0  0  0  0  0
  142.0900   76.2960  219.8580 C   0  0  0  0  0  0  0  0  0  0  0  0
  141.3922   76.2500  219.0089 H   0  0  0  0  0  0  0  0  0  0  0  0
  142.7542   77.1687  219.7724 H   0  0  0  0  0  0  0  0  0  0  0  0
  142.9410   75.0530  219.8600 C   0  0  0  0  0  0  0  0  0  0  0  0
  142.3520   73.7940  219.6580 C   0  0  0  0  0  0  0  0  0  0  0  0
  141.2732   73.7199  219.4566 H   0  0  0  0  0  0  0  0  0  0  0  0
  143.1320   72.6340  219.7120 C   0  0  0  0  0  0  0  0  0  0  0  0
  142.6679   71.6515  219.5409 H   0  0  0  0  0  0  0  0  0  0  0  0
  144.5000   72.7220  219.9830 C   0  0  0  0  0  0  0  0  0  0  0  0
  145.2520   71.5950  220.0480 F   0  0  0  0  0  0  0  0  0  0  0  0
  145.0920   73.9710  220.1920 C   0  0  0  0  0  0  0  0  0  0  0  0
  146.1689   74.0396  220.4056 H   0  0  0  0  0  0  0  0  0  0  0  0
  144.3180   75.1320  220.1300 C   0  0  0  0  0  0  0  0  0  0  0  0
  144.7884   76.1129  220.2933 H   0  0  0  0  0  0  0  0  0  0  0  0
  139.9190   71.5350  223.3620 C   0  0  0  0  0  0  0  0  0  0  0  0
  140.4960   71.8970  224.5410 N   0  0  0  0  0  0  0  0  0  0  0  0
  140.4320   71.1150  225.6510 C   0  0  0  0  0  0  0  0  0  0  0  0
  141.0620   71.5180  226.8330 C   0  0  0  0  0  0  0  0  0  0  0  0
  141.5913   72.4814  226.8732 H   0  0  0  0  0  0  0  0  0  0  0  0
  141.0190   70.6960  227.9640 C   0  0  0  0  0  0  0  0  0  0  0  0
  141.5152   71.0143  228.8927 H   0  0  0  0  0  0  0  0  0  0  0  0
  140.3460   69.4690  227.9170 C   0  0  0  0  0  0  0  0  0  0  0  0
  140.3110   68.6750  229.0150 F   0  0  0  0  0  0  0  0  0  0  0  0
  139.7100   69.0600  226.7400 C   0  0  0  0  0  0  0  0  0  0  0  0
  139.1807   68.0963  226.7064 H   0  0  0  0  0  0  0  0  0  0  0  0
  139.7480   69.8800  225.6030 C   0  0  0  0  0  0  0  0  0  0  0  0
  139.1370   69.4920  224.4060 C   0  0  0  0  0  0  0  0  0  0  0  0
  138.5877   68.5405  224.3514 H   0  0  0  0  0  0  0  0  0  0  0  0
  139.2250   70.3140  223.2800 C   0  0  0  0  0  0  0  0  0  0  0  0
  138.7541   70.0082  222.3341 H   0  0  0  0  0  0  0  0  0  0  0  0
  1  2  1  0
  2  3  1  0
  3  4  2  0
  4  5  1  0
  5  6  1  0
  5  7  1  0
  5  8  1  0
  8  9  2  0
  8 10  1  0
 10 11  1  0
 11 12  1  0
 11 13  1  0
 11 14  1  0
 14 15  1  1
 14 16  1  0
 16 17  1  0
 14 18  1  0
 18 19  1  0
 18 20  1  0
 18 21  1  0
 21 22  1  6
 21 23  1  0
 23 24  2  0
 23 25  1  0
 25 26  1  0
 26 27  1  1
 26 28  1  0
 28 29  2  0
 29 30  1  0
 29 31  1  0
 31 32  1  0
 31 33  2  0
 33 34  1  0
 33 35  1  0
 35 36  1  0
 35 37  2  0
 37 38  1  0
 26 39  1  0
 39 40  1  0
 39 41  1  0
 39 42  1  0
 42 43  2  0
 43 44  1  0
 43 45  1  0
 45 46  1  0
 45 47  2  0
 47 48  1  0
 47 49  1  0
 49 50  1  0
 49 51  2  0
 51 52  1  0
  3 53  1  0
 53 54  2  0
 54 55  1  0
 55 56  2  0
 56 57  1  0
 56 58  1  0
 58 59  1  0
 58 60  2  0
 60 61  1  0
 60 62  1  0
 62 63  1  0
 62 64  2  0
 64 65  1  0
 65 66  1  0
 65 67  2  0
 67 68  1  0
 21 10  1  0
 37 28  1  0
 51 42  1  0
 67 53  1  0
 64 55  1  0
M  CHG  1  25  -1
M  END
>  <UniqueID>  (43) 
3

>  <SMILES>  (43) 
O=C([N-][C@@H](Cc1ccc(F)cc1)c1ccccc1)[C@@H]1C[C@@H](O)CN1C(=O)C/N=C(\O)c1ccc2cc(F)ccc2n1

>  <Energy>  (43) 
70.9291234150735

>  <Genealogy>  (43) 
O=C(NCC(=O)N1C[C@H](O)C[C@H]1C(=O)[N-][C@@H](Cc1ccc(F)cc1)c1ccccc1)c1ccc2cc(F)ccc2n1 (protonated)
O=C([N-][C@@H](Cc1ccc(F)cc1)c1ccccc1)[C@@H]1C[C@@H](O)CN1C(=O)CN=C(O)c1ccc2cc(F)ccc2n1 (tautomer)
O=C([N-][C@@H](Cc1ccc(F)cc1)c1ccccc1)[C@@H]1C[C@@H](O)CN1C(=O)C/N=C(\O)c1ccc2cc(F)ccc2n1 (cis-trans isomerization)
O=C([N-][C@@H](Cc1ccc(F)cc1)c1ccccc1)[C@@H]1C[C@@H](O)CN1C(=O)C/N=C(\O)c1ccc2cc(F)ccc2n1 (3D coordinates assigned)
O=C([N-][C@@H](Cc1ccc(F)cc1)c1ccccc1)[C@@H]1C[C@@H](O)CN1C(=O)C/N=C(\O)c1ccc2cc(F)ccc2n1 (nonaromatic ring conformer: 70.9291234150735 kcal/mol)

>  <smiles>  (43) 
O=C(NCC(=O)N1C[C@H](O)C[C@H]1C(=O)N[C@@H](Cc1ccc(F)cc1)c1ccccc1)c1ccc2cc(F)ccc2n1

>  <score_type>  (43) 
oracle

>  <origin>  (43) 
autodockgpu

>  <m_score__min__energy>  (43) 
-9.3499999999999996

>  <m_primary>  (43) 
energy

>  <meeko>  (43) 
{"free_energy": -7.96, "intermolecular_energy": -11.84, "internal_energy": -4.31, "cluster_size": 5, "cluster_id": 3, "rank_in_cluster": 4}

>  <energy>  (43) 
-7.98

>  <cluster_rmsd>  (43) 
1.8

>  <rmsd>  (43) 
270.98

>  <cluster>  (43) 
1

$$$$
XFBXCNWOYUAVIW-ZAPLKEHQNA-M
     RDKit          3D

 68 72  0  0  0  0  0  0  0  0999 V2000
  138.8870   74.9010  222.8640 H   0  0  0  0  0  0  0  0  0  0  0  0
  138.0170   75.3830  222.6870 O   0  0  0  0  0  0  0  0  0  0  0  0
  137.9220   76.5500  221.9220 C   0  0  0  0  0  0  0  0  0  0  0  0
  137.2870   76.5760  220.7830 N   0  0  0  0  0  0  0  0  0  0  0  0
  137.8880   76.7040  219.4580 C   0  0  0  0  0  0  0  0  0  0  0  0
  138.4170   77.6663  219.3935 H   0  0  0  0  0  0  0  0  0  0  0  0
  137.0898   76.6541  218.7028 H   0  0  0  0  0  0  0  0  0  0  0  0
  138.8590   75.5920  219.2040 C   0  0  0  0  0  0  0  0  0  0  0  0
  138.4560   74.4890  218.7520 O   0  0  0  0  0  0  0  0  0  0  0  0
  140.2490   75.7750  219.4820 N   0  0  0  0  0  0  0  0  0  0  0  0
  140.9820   76.9500  219.0540 C   0  0  0  0  0  0  0  0  0  0  0  0
  140.4994   77.8640  219.4305 H   0  0  0  0  0  0  0  0  0  0  0  0
  141.0151   77.0370  217.9579 H   0  0  0  0  0  0  0  0  0  0  0  0
  142.3760   76.7940  219.6560 C   0  0  2  0  0  0  0  0  0  0  0  0
  142.5132   77.4298  220.5431 H   0  0  0  0  0  0  0  0  0  0  0  0
  143.3600   77.1880  218.7350 O   0  0  0  0  0  0  0  0  0  0  0  0
  144.0790   77.6250  219.2630 H   0  0  0  0  0  0  0  0  0  0  0  0
  142.5080   75.3080  220.0130 C   0  0  0  0  0  0  0  0  0  0  0  0
  143.0482   75.1896  220.9639 H   0  0  0  0  0  0  0  0  0  0  0  0
  143.0736   74.7575  219.2468 H   0  0  0  0  0  0  0  0  0  0  0  0
  141.0760   74.7780  220.1440 C   0  0  1  0  0  0  0  0  0  0  0  0
  140.9720   73.7778  219.6982 H   0  0  0  0  0  0  0  0  0  0  0  0
  140.6700   74.6380  221.5950 C   0  0  0  0  0  0  0  0  0  0  0  0
  140.9360   75.5750  222.3950 O   0  0  0  0  0  0  0  0  0  0  0  0
  140.0060   73.4740  222.1070 N   0  0  0  0  0  0  0  0  0  0  0  0
  140.6320   72.2590  222.6300 C   0  0  2  0  0  0  0  0  0  0  0  0
  141.3500   72.5340  223.4167 H   0  0  0  0  0  0  0  0  0  0  0  0
  141.3700   71.5450  221.5140 C   0  0  0  0  0  0  0  0  0  0  0  0
  142.6890   71.8940  221.1680 C   0  0  0  0  0  0  0  0  0  0  0  0
  143.2146   72.6774  221.7337 H   0  0  0  0  0  0  0  0  0  0  0  0
  143.3340   71.2490  220.1080 C   0  0  0  0  0  0  0  0  0  0  0  0
  144.3704   71.5149  219.8527 H   0  0  0  0  0  0  0  0  0  0  0  0
  142.6650   70.2680  219.3730 C   0  0  0  0  0  0  0  0  0  0  0  0
  143.1772   69.7562  218.5449 H   0  0  0  0  0  0  0  0  0  0  0  0
  141.3470   69.9370  219.6890 C   0  0  0  0  0  0  0  0  0  0  0  0
  140.8166   69.1726  219.1022 H   0  0  0  0  0  0  0  0  0  0  0  0
  140.7010   70.5750  220.7490 C   0  0  0  0  0  0  0  0  0  0  0  0
  139.6589   70.3161  220.9875 H   0  0  0  0  0  0  0  0  0  0  0  0
  139.5660   71.3310  223.2480 C   0  0  0  0  0  0  0  0  0  0  0  0
  138.6334   71.8985  223.3831 H   0  0  0  0  0  0  0  0  0  0  0  0
  139.4125   70.4809  222.5670 H   0  0  0  0  0  0  0  0  0  0  0  0
  140.0090   70.7920  224.5840 C   0  0  0  0  0  0  0  0  0  0  0  0
  139.6540   69.4900  224.9720 C   0  0  0  0  0  0  0  0  0  0  0  0
  139.0864   68.8479  224.2824 H   0  0  0  0  0  0  0  0  0  0  0  0
  140.0200   69.0070  226.2330 C   0  0  0  0  0  0  0  0  0  0  0  0
  139.7506   67.9820  226.5275 H   0  0  0  0  0  0  0  0  0  0  0  0
  140.7270   69.8240  227.1190 C   0  0  0  0  0  0  0  0  0  0  0  0
  141.0680   69.3590  228.3460 F   0  0  0  0  0  0  0  0  0  0  0  0
  141.0780   71.1250  226.7420 C   0  0  0  0  0  0  0  0  0  0  0  0
  141.6340   71.7682  227.4400 H   0  0  0  0  0  0  0  0  0  0  0  0
  140.7230   71.6080  225.4800 C   0  0  0  0  0  0  0  0  0  0  0  0
  141.0030   72.6303  225.1860 H   0  0  0  0  0  0  0  0  0  0  0  0
  138.5820   77.7700  222.4270 C   0  0  0  0  0  0  0  0  0  0  0  0
  139.9400   77.8530  222.3760 N   0  0  0  0  0  0  0  0  0  0  0  0
  140.6180   78.9470  222.8120 C   0  0  0  0  0  0  0  0  0  0  0  0
  142.0160   78.9760  222.7620 C   0  0  0  0  0  0  0  0  0  0  0  0
  142.5694   78.1207  222.3469 H   0  0  0  0  0  0  0  0  0  0  0  0
  142.7100   80.0930  223.2400 C   0  0  0  0  0  0  0  0  0  0  0  0
  143.8091   80.1144  223.2007 H   0  0  0  0  0  0  0  0  0  0  0  0
  142.0090   81.1830  223.7680 C   0  0  0  0  0  0  0  0  0  0  0  0
  142.6870   82.2610  224.2340 F   0  0  0  0  0  0  0  0  0  0  0  0
  140.6110   81.1650  223.8190 C   0  0  0  0  0  0  0  0  0  0  0  0
  140.0635   82.0242  224.2338 H   0  0  0  0  0  0  0  0  0  0  0  0
  139.9090   80.0490  223.3400 C   0  0  0  0  0  0  0  0  0  0  0  0
  138.5120   79.9910  223.3910 C   0  0  0  0  0  0  0  0  0  0  0  0
  137.9401   80.8437  223.7857 H   0  0  0  0  0  0  0  0  0  0  0  0
  137.8440   78.8510  222.9410 C   0  0  0  0  0  0  0  0  0  0  0  0
  136.7463   78.7985  222.9882 H   0  0  0  0  0  0  0  0  0  0  0  0
  1  2  1  0
  2  3  1  0
  3  4  2  0
  4  5  1  0
  5  6  1  0
  5  7  1  0
  5  8  1  0
  8  9  2  0
  8 10  1  0
 10 11  1  0
 11 12  1  0
 11 13  1  0
 11 14  1  0
 14 15  1  1
 14 16  1  0
 16 17  1  0
 14 18  1  0
 18 19  1  0
 18 20  1  0
 18 21  1  0
 21 22  1  6
 21 23  1  0
 23 24  2  0
 23 25  1  0
 25 26  1  0
 26 27  1  1
 26 28  1  0
 28 29  2  0
 29 30  1  0
 29 31  1  0
 31 32  1  0
 31 33  2  0
 33 34  1  0
 33 35  1  0
 35 36  1  0
 35 37  2  0
 37 38  1  0
 26 39  1  0
 39 40  1  0
 39 41  1  0
 39 42  1  0
 42 43  2  0
 43 44  1  0
 43 45  1  0
 45 46  1  0
 45 47  2  0
 47 48  1  0
 47 49  1  0
 49 50  1  0
 49 51  2  0
 51 52  1  0
  3 53  1  0
 53 54  2  0
 54 55  1  0
 55 56  2  0
 56 57  1  0
 56 58  1  0
 58 59  1  0
 58 60  2  0
 60 61  1  0
 60 62  1  0
 62 63  1  0
 62 64  2  0
 64 65  1  0
 65 66  1  0
 65 67  2  0
 67 68  1  0
 21 10  1  0
 37 28  1  0
 51 42  1  0
 67 53  1  0
 64 55  1  0
M  CHG  1  25  -1
M  END
>  <UniqueID>  (44) 
3

>  <SMILES>  (44) 
O=C([N-][C@@H](Cc1ccc(F)cc1)c1ccccc1)[C@@H]1C[C@@H](O)CN1C(=O)C/N=C(\O)c1ccc2cc(F)ccc2n1

>  <Energy>  (44) 
70.9291234150735

>  <Genealogy>  (44) 
O=C(NCC(=O)N1C[C@H](O)C[C@H]1C(=O)[N-][C@@H](Cc1ccc(F)cc1)c1ccccc1)c1ccc2cc(F)ccc2n1 (protonated)
O=C([N-][C@@H](Cc1ccc(F)cc1)c1ccccc1)[C@@H]1C[C@@H](O)CN1C(=O)CN=C(O)c1ccc2cc(F)ccc2n1 (tautomer)
O=C([N-][C@@H](Cc1ccc(F)cc1)c1ccccc1)[C@@H]1C[C@@H](O)CN1C(=O)C/N=C(\O)c1ccc2cc(F)ccc2n1 (cis-trans isomerization)
O=C([N-][C@@H](Cc1ccc(F)cc1)c1ccccc1)[C@@H]1C[C@@H](O)CN1C(=O)C/N=C(\O)c1ccc2cc(F)ccc2n1 (3D coordinates assigned)
O=C([N-][C@@H](Cc1ccc(F)cc1)c1ccccc1)[C@@H]1C[C@@H](O)CN1C(=O)C/N=C(\O)c1ccc2cc(F)ccc2n1 (nonaromatic ring conformer: 70.9291234150735 kcal/mol)

>  <smiles>  (44) 
O=C(NCC(=O)N1C[C@H](O)C[C@H]1C(=O)N[C@@H](Cc1ccc(F)cc1)c1ccccc1)c1ccc2cc(F)ccc2n1

>  <score_type>  (44) 
oracle

>  <origin>  (44) 
autodockgpu

>  <m_score__min__energy>  (44) 
-9.3499999999999996

>  <m_primary>  (44) 
energy

>  <meeko>  (44) 
{"free_energy": -7.94, "intermolecular_energy": -11.82, "internal_energy": -4.44, "cluster_size": 3, "cluster_id": 7, "rank_in_cluster": 2}

>  <energy>  (44) 
-7.87

>  <cluster_rmsd>  (44) 
1.74

>  <rmsd>  (44) 
271.02

>  <cluster>  (44) 
1

$$$$
XFBXCNWOYUAVIW-ZAPLKEHQNA-M
     RDKit          3D

 68 72  0  0  0  0  0  0  0  0999 V2000
  139.3220   73.8180  223.0850 H   0  0  0  0  0  0  0  0  0  0  0  0
  139.9600   73.0450  222.9550 O   0  0  0  0  0  0  0  0  0  0  0  0
  139.5440   71.7270  222.7410 C   0  0  0  0  0  0  0  0  0  0  0  0
  139.0480   71.3400  221.5990 N   0  0  0  0  0  0  0  0  0  0  0  0
  139.6480   71.5370  220.2810 C   0  0  0  0  0  0  0  0  0  0  0  0
  139.2318   70.7973  219.5813 H   0  0  0  0  0  0  0  0  0  0  0  0
  140.7374   71.4122  220.3679 H   0  0  0  0  0  0  0  0  0  0  0  0
  139.3630   72.9140  219.7660 C   0  0  0  0  0  0  0  0  0  0  0  0
  140.2520   73.5570  219.1490 O   0  0  0  0  0  0  0  0  0  0  0  0
  138.0820   73.5100  219.9800 N   0  0  0  0  0  0  0  0  0  0  0  0
  136.8420   72.7880  219.7750 C   0  0  0  0  0  0  0  0  0  0  0  0
  136.8269   71.8685  220.3786 H   0  0  0  0  0  0  0  0  0  0  0  0
  136.7137   72.4818  218.7263 H   0  0  0  0  0  0  0  0  0  0  0  0
  135.7420   73.7430  220.2280 C   0  0  2  0  0  0  0  0  0  0  0  0
  135.3539   73.4784  221.2227 H   0  0  0  0  0  0  0  0  0  0  0  0
  134.6460   73.6880  219.3520 O   0  0  0  0  0  0  0  0  0  0  0  0
  133.8740   74.0710  219.8440 H   0  0  0  0  0  0  0  0  0  0  0  0
  136.3820   75.1380  220.2350 C   0  0  0  0  0  0  0  0  0  0  0  0
  136.0217   75.7200  221.0961 H   0  0  0  0  0  0  0  0  0  0  0  0
  136.1242   75.7053  219.3286 H   0  0  0  0  0  0  0  0  0  0  0  0
  137.8930   74.9060  220.3430 C   0  0  1  0  0  0  0  0  0  0  0  0
  138.4556   75.5922  219.6929 H   0  0  0  0  0  0  0  0  0  0  0  0
  138.3890   75.1540  221.7510 C   0  0  0  0  0  0  0  0  0  0  0  0
  137.5620   75.1310  222.7020 O   0  0  0  0  0  0  0  0  0  0  0  0
  139.7650   75.4310  222.0530 N   0  0  0  0  0  0  0  0  0  0  0  0
  140.5250   76.6270  221.6860 C   0  0  2  0  0  0  0  0  0  0  0  0
  139.8589   77.3318  221.1668 H   0  0  0  0  0  0  0  0  0  0  0  0
  141.6610   76.2440  220.7570 C   0  0  0  0  0  0  0  0  0  0  0  0
  142.1050   77.1150  219.7460 C   0  0  0  0  0  0  0  0  0  0  0  0
  141.6468   78.1094  219.6400 H   0  0  0  0  0  0  0  0  0  0  0  0
  143.1260   76.7230  218.8750 C   0  0  0  0  0  0  0  0  0  0  0  0
  143.4796   77.4154  218.0968 H   0  0  0  0  0  0  0  0  0  0  0  0
  143.6980   75.4540  218.9910 C   0  0  0  0  0  0  0  0  0  0  0  0
  144.5073   75.1508  218.3105 H   0  0  0  0  0  0  0  0  0  0  0  0
  143.2420   74.5710  219.9710 C   0  0  0  0  0  0  0  0  0  0  0  0
  143.6840   73.5672  220.0545 H   0  0  0  0  0  0  0  0  0  0  0  0
  142.2260   74.9600  220.8450 C   0  0  0  0  0  0  0  0  0  0  0  0
  141.8644   74.2560  221.6090 H   0  0  0  0  0  0  0  0  0  0  0  0
  141.0760   77.3190  222.9500 C   0  0  0  0  0  0  0  0  0  0  0  0
  140.3766   77.1524  223.7825 H   0  0  0  0  0  0  0  0  0  0  0  0
  142.0631   76.8897  223.1764 H   0  0  0  0  0  0  0  0  0  0  0  0
  141.2420   78.8020  222.7390 C   0  0  0  0  0  0  0  0  0  0  0  0
  140.2270   79.5430  222.1120 C   0  0  0  0  0  0  0  0  0  0  0  0
  139.2923   79.0472  221.8110 H   0  0  0  0  0  0  0  0  0  0  0  0
  140.4010   80.9100  221.8690 C   0  0  0  0  0  0  0  0  0  0  0  0
  139.5978   81.4890  221.3897 H   0  0  0  0  0  0  0  0  0  0  0  0
  141.5930   81.5410  222.2340 C   0  0  0  0  0  0  0  0  0  0  0  0
  141.7650   82.8630  221.9850 F   0  0  0  0  0  0  0  0  0  0  0  0
  142.6100   80.8080  222.8530 C   0  0  0  0  0  0  0  0  0  0  0  0
  143.5481   81.3053  223.1406 H   0  0  0  0  0  0  0  0  0  0  0  0
  142.4370   79.4450  223.1070 C   0  0  0  0  0  0  0  0  0  0  0  0
  143.2387   78.8728  223.5967 H   0  0  0  0  0  0  0  0  0  0  0  0
  139.6610   70.7690  223.8580 C   0  0  0  0  0  0  0  0  0  0  0  0
  140.2480   71.1770  225.0160 N   0  0  0  0  0  0  0  0  0  0  0  0
  140.3810   70.3550  226.0910 C   0  0  0  0  0  0  0  0  0  0  0  0
  141.0150   70.8120  227.2520 C   0  0  0  0  0  0  0  0  0  0  0  0
  141.3857   71.8462  227.3057 H   0  0  0  0  0  0  0  0  0  0  0  0
  141.1770   69.9530  228.3440 C   0  0  0  0  0  0  0  0  0  0  0  0
  141.6759   70.3132  229.2558 H   0  0  0  0  0  0  0  0  0  0  0  0
  140.7060   68.6360  228.2800 C   0  0  0  0  0  0  0  0  0  0  0  0
  140.8690   67.8070  229.3390 F   0  0  0  0  0  0  0  0  0  0  0  0
  140.0680   68.1720  227.1240 C   0  0  0  0  0  0  0  0  0  0  0  0
  139.6980   67.1372  227.0768 H   0  0  0  0  0  0  0  0  0  0  0  0
  139.9010   69.0280  226.0260 C   0  0  0  0  0  0  0  0  0  0  0  0
  139.2830   68.5910  224.8500 C   0  0  0  0  0  0  0  0  0  0  0  0
  138.8893   67.5660  224.7833 H   0  0  0  0  0  0  0  0  0  0  0  0
  139.1660   69.4570  223.7600 C   0  0  0  0  0  0  0  0  0  0  0  0
  138.6891   69.1140  222.8300 H   0  0  0  0  0  0  0  0  0  0  0  0
  1  2  1  0
  2  3  1  0
  3  4  2  0
  4  5  1  0
  5  6  1  0
  5  7  1  0
  5  8  1  0
  8  9  2  0
  8 10  1  0
 10 11  1  0
 11 12  1  0
 11 13  1  0
 11 14  1  0
 14 15  1  1
 14 16  1  0
 16 17  1  0
 14 18  1  0
 18 19  1  0
 18 20  1  0
 18 21  1  0
 21 22  1  6
 21 23  1  0
 23 24  2  0
 23 25  1  0
 25 26  1  0
 26 27  1  6
 26 28  1  0
 28 29  2  0
 29 30  1  0
 29 31  1  0
 31 32  1  0
 31 33  2  0
 33 34  1  0
 33 35  1  0
 35 36  1  0
 35 37  2  0
 37 38  1  0
 26 39  1  0
 39 40  1  0
 39 41  1  0
 39 42  1  0
 42 43  2  0
 43 44  1  0
 43 45  1  0
 45 46  1  0
 45 47  2  0
 47 48  1  0
 47 49  1  0
 49 50  1  0
 49 51  2  0
 51 52  1  0
  3 53  1  0
 53 54  2  0
 54 55  1  0
 55 56  2  0
 56 57  1  0
 56 58  1  0
 58 59  1  0
 58 60  2  0
 60 61  1  0
 60 62  1  0
 62 63  1  0
 62 64  2  0
 64 65  1  0
 65 66  1  0
 65 67  2  0
 67 68  1  0
 21 10  1  0
 37 28  1  0
 51 42  1  0
 67 53  1  0
 64 55  1  0
M  CHG  1  25  -1
M  END
>  <UniqueID>  (45) 
3

>  <SMILES>  (45) 
O=C([N-][C@@H](Cc1ccc(F)cc1)c1ccccc1)[C@@H]1C[C@@H](O)CN1C(=O)C/N=C(\O)c1ccc2cc(F)ccc2n1

>  <Energy>  (45) 
70.9291234150735

>  <Genealogy>  (45) 
O=C(NCC(=O)N1C[C@H](O)C[C@H]1C(=O)[N-][C@@H](Cc1ccc(F)cc1)c1ccccc1)c1ccc2cc(F)ccc2n1 (protonated)
O=C([N-][C@@H](Cc1ccc(F)cc1)c1ccccc1)[C@@H]1C[C@@H](O)CN1C(=O)CN=C(O)c1ccc2cc(F)ccc2n1 (tautomer)
O=C([N-][C@@H](Cc1ccc(F)cc1)c1ccccc1)[C@@H]1C[C@@H](O)CN1C(=O)C/N=C(\O)c1ccc2cc(F)ccc2n1 (cis-trans isomerization)
O=C([N-][C@@H](Cc1ccc(F)cc1)c1ccccc1)[C@@H]1C[C@@H](O)CN1C(=O)C/N=C(\O)c1ccc2cc(F)ccc2n1 (3D coordinates assigned)
O=C([N-][C@@H](Cc1ccc(F)cc1)c1ccccc1)[C@@H]1C[C@@H](O)CN1C(=O)C/N=C(\O)c1ccc2cc(F)ccc2n1 (nonaromatic ring conformer: 70.9291234150735 kcal/mol)

>  <smiles>  (45) 
O=C(NCC(=O)N1C[C@H](O)C[C@H]1C(=O)N[C@@H](Cc1ccc(F)cc1)c1ccccc1)c1ccc2cc(F)ccc2n1

>  <score_type>  (45) 
oracle

>  <origin>  (45) 
autodockgpu

>  <m_score__min__energy>  (45) 
-9.3499999999999996

>  <m_primary>  (45) 
energy

>  <meeko>  (45) 
{"free_energy": -7.87, "intermolecular_energy": -11.75, "internal_energy": -3.9, "cluster_size": 1, "cluster_id": 8, "rank_in_cluster": 1}

>  <energy>  (45) 
-7.69

>  <cluster_rmsd>  (45) 
1.92

>  <rmsd>  (45) 
270.83

>  <cluster>  (45) 
1

$$$$
XFBXCNWOYUAVIW-ZAPLKEHQNA-M
     RDKit          3D

 68 72  0  0  0  0  0  0  0  0999 V2000
  138.5830   74.8570  222.7340 H   0  0  0  0  0  0  0  0  0  0  0  0
  137.7450   75.2990  222.3820 O   0  0  0  0  0  0  0  0  0  0  0  0
  137.7500   76.4940  221.6550 C   0  0  0  0  0  0  0  0  0  0  0  0
  137.1890   76.5850  220.4810 N   0  0  0  0  0  0  0  0  0  0  0  0
  137.8710   76.5460  219.1890 C   0  0  0  0  0  0  0  0  0  0  0  0
  138.4212   77.4873  219.0431 H   0  0  0  0  0  0  0  0  0  0  0  0
  137.1188   76.4155  218.3971 H   0  0  0  0  0  0  0  0  0  0  0  0
  138.8340   75.4000  219.1300 C   0  0  0  0  0  0  0  0  0  0  0  0
  138.4390   74.2570  218.7830 O   0  0  0  0  0  0  0  0  0  0  0  0
  140.2070   75.5970  219.4760 N   0  0  0  0  0  0  0  0  0  0  0  0
  140.9570   76.7650  219.0580 C   0  0  0  0  0  0  0  0  0  0  0  0
  140.4515   77.6853  219.3858 H   0  0  0  0  0  0  0  0  0  0  0  0
  141.0474   76.8248  217.9633 H   0  0  0  0  0  0  0  0  0  0  0  0
  142.3170   76.6320  219.7350 C   0  0  2  0  0  0  0  0  0  0  0  0
  142.4036   77.2915  220.6111 H   0  0  0  0  0  0  0  0  0  0  0  0
  143.3470   77.0080  218.8590 O   0  0  0  0  0  0  0  0  0  0  0  0
  144.0030   77.5200  219.3990 H   0  0  0  0  0  0  0  0  0  0  0  0
  142.4370   75.1560  220.1370 C   0  0  0  0  0  0  0  0  0  0  0  0
  142.9261   75.0650  221.1180 H   0  0  0  0  0  0  0  0  0  0  0  0
  143.0455   74.5892  219.4170 H   0  0  0  0  0  0  0  0  0  0  0  0
  141.0020   74.6220  220.2050 C   0  0  1  0  0  0  0  0  0  0  0  0
  140.9263   73.6105  219.7793 H   0  0  0  0  0  0  0  0  0  0  0  0
  140.5200   74.5170  221.6360 C   0  0  0  0  0  0  0  0  0  0  0  0
  140.6410   75.5150  222.3950 O   0  0  0  0  0  0  0  0  0  0  0  0
  139.9440   73.3180  222.1760 N   0  0  0  0  0  0  0  0  0  0  0  0
  140.6510   72.1000  222.5720 C   0  0  2  0  0  0  0  0  0  0  0  0
  141.3841   72.3481  223.3537 H   0  0  0  0  0  0  0  0  0  0  0  0
  141.3800   71.5210  221.3750 C   0  0  0  0  0  0  0  0  0  0  0  0
  140.7590   70.5960  220.5160 C   0  0  0  0  0  0  0  0  0  0  0  0
  139.7128   70.3041  220.6899 H   0  0  0  0  0  0  0  0  0  0  0  0
  141.4660   70.0460  219.4420 C   0  0  0  0  0  0  0  0  0  0  0  0
  140.9693   69.3373  218.7630 H   0  0  0  0  0  0  0  0  0  0  0  0
  142.8020   70.3950  219.2300 C   0  0  0  0  0  0  0  0  0  0  0  0
  143.3542   69.9663  218.3807 H   0  0  0  0  0  0  0  0  0  0  0  0
  143.4360   71.2870  220.0950 C   0  0  0  0  0  0  0  0  0  0  0  0
  144.4911   71.5531  219.9339 H   0  0  0  0  0  0  0  0  0  0  0  0
  142.7320   71.8420  221.1650 C   0  0  0  0  0  0  0  0  0  0  0  0
  143.2400   72.5368  221.8499 H   0  0  0  0  0  0  0  0  0  0  0  0
  139.6580   71.0670  223.1450 C   0  0  0  0  0  0  0  0  0  0  0  0
  138.6526   71.5126  223.1682 H   0  0  0  0  0  0  0  0  0  0  0  0
  139.6771   70.1760  222.5002 H   0  0  0  0  0  0  0  0  0  0  0  0
  140.0400   70.6480  224.5410 C   0  0  0  0  0  0  0  0  0  0  0  0
  139.6660   69.3840  225.0260 C   0  0  0  0  0  0  0  0  0  0  0  0
  139.1286   68.6829  224.3705 H   0  0  0  0  0  0  0  0  0  0  0  0
  139.9740   69.0130  226.3390 C   0  0  0  0  0  0  0  0  0  0  0  0
  139.6893   68.0173  226.7098 H   0  0  0  0  0  0  0  0  0  0  0  0
  140.6430   69.9060  227.1800 C   0  0  0  0  0  0  0  0  0  0  0  0
  140.9290   69.5500  228.4570 F   0  0  0  0  0  0  0  0  0  0  0  0
  141.0130   71.1690  226.7070 C   0  0  0  0  0  0  0  0  0  0  0  0
  141.5393   71.8713  227.3701 H   0  0  0  0  0  0  0  0  0  0  0  0
  140.7150   71.5400  225.3930 C   0  0  0  0  0  0  0  0  0  0  0  0
  141.0096   72.5335  225.0239 H   0  0  0  0  0  0  0  0  0  0  0  0
  138.4290   77.6640  222.2420 C   0  0  0  0  0  0  0  0  0  0  0  0
  139.7750   77.7930  222.0830 N   0  0  0  0  0  0  0  0  0  0  0  0
  140.4680   78.8490  222.5860 C   0  0  0  0  0  0  0  0  0  0  0  0
  141.8550   78.9250  222.4180 C   0  0  0  0  0  0  0  0  0  0  0  0
  142.3848   78.1413  221.8567 H   0  0  0  0  0  0  0  0  0  0  0  0
  142.5680   79.9980  222.9640 C   0  0  0  0  0  0  0  0  0  0  0  0
  143.6585   80.0560  222.8319 H   0  0  0  0  0  0  0  0  0  0  0  0
  141.8970   80.9980  223.6780 C   0  0  0  0  0  0  0  0  0  0  0  0
  142.5930   82.0330  224.2080 F   0  0  0  0  0  0  0  0  0  0  0  0
  140.5090   80.9320  223.8470 C   0  0  0  0  0  0  0  0  0  0  0  0
  139.9841   81.7202  224.4067 H   0  0  0  0  0  0  0  0  0  0  0  0
  139.7890   79.8600  223.3020 C   0  0  0  0  0  0  0  0  0  0  0  0
  138.4030   79.7550  223.4670 C   0  0  0  0  0  0  0  0  0  0  0  0
  137.8522   80.5384  224.0082 H   0  0  0  0  0  0  0  0  0  0  0  0
  137.7200   78.6550  222.9440 C   0  0  0  0  0  0  0  0  0  0  0  0
  136.6323   78.5641  223.0805 H   0  0  0  0  0  0  0  0  0  0  0  0
  1  2  1  0
  2  3  1  0
  3  4  2  0
  4  5  1  0
  5  6  1  0
  5  7  1  0
  5  8  1  0
  8  9  2  0
  8 10  1  0
 10 11  1  0
 11 12  1  0
 11 13  1  0
 11 14  1  0
 14 15  1  1
 14 16  1  0
 16 17  1  0
 14 18  1  0
 18 19  1  0
 18 20  1  0
 18 21  1  0
 21 22  1  6
 21 23  1  0
 23 24  2  0
 23 25  1  0
 25 26  1  0
 26 27  1  1
 26 28  1  0
 28 29  2  0
 29 30  1  0
 29 31  1  0
 31 32  1  0
 31 33  2  0
 33 34  1  0
 33 35  1  0
 35 36  1  0
 35 37  2  0
 37 38  1  0
 26 39  1  0
 39 40  1  0
 39 41  1  0
 39 42  1  0
 42 43  2  0
 43 44  1  0
 43 45  1  0
 45 46  1  0
 45 47  2  0
 47 48  1  0
 47 49  1  0
 49 50  1  0
 49 51  2  0
 51 52  1  0
  3 53  1  0
 53 54  2  0
 54 55  1  0
 55 56  2  0
 56 57  1  0
 56 58  1  0
 58 59  1  0
 58 60  2  0
 60 61  1  0
 60 62  1  0
 62 63  1  0
 62 64  2  0
 64 65  1  0
 65 66  1  0
 65 67  2  0
 67 68  1  0
 21 10  1  0
 37 28  1  0
 51 42  1  0
 67 53  1  0
 64 55  1  0
M  CHG  1  25  -1
M  END
>  <UniqueID>  (46) 
3

>  <SMILES>  (46) 
O=C([N-][C@@H](Cc1ccc(F)cc1)c1ccccc1)[C@@H]1C[C@@H](O)CN1C(=O)C/N=C(\O)c1ccc2cc(F)ccc2n1

>  <Energy>  (46) 
70.9291234150735

>  <Genealogy>  (46) 
O=C(NCC(=O)N1C[C@H](O)C[C@H]1C(=O)[N-][C@@H](Cc1ccc(F)cc1)c1ccccc1)c1ccc2cc(F)ccc2n1 (protonated)
O=C([N-][C@@H](Cc1ccc(F)cc1)c1ccccc1)[C@@H]1C[C@@H](O)CN1C(=O)CN=C(O)c1ccc2cc(F)ccc2n1 (tautomer)
O=C([N-][C@@H](Cc1ccc(F)cc1)c1ccccc1)[C@@H]1C[C@@H](O)CN1C(=O)C/N=C(\O)c1ccc2cc(F)ccc2n1 (cis-trans isomerization)
O=C([N-][C@@H](Cc1ccc(F)cc1)c1ccccc1)[C@@H]1C[C@@H](O)CN1C(=O)C/N=C(\O)c1ccc2cc(F)ccc2n1 (3D coordinates assigned)
O=C([N-][C@@H](Cc1ccc(F)cc1)c1ccccc1)[C@@H]1C[C@@H](O)CN1C(=O)C/N=C(\O)c1ccc2cc(F)ccc2n1 (nonaromatic ring conformer: 70.9291234150735 kcal/mol)

>  <smiles>  (46) 
O=C(NCC(=O)N1C[C@H](O)C[C@H]1C(=O)N[C@@H](Cc1ccc(F)cc1)c1ccccc1)c1ccc2cc(F)ccc2n1

>  <score_type>  (46) 
oracle

>  <origin>  (46) 
autodockgpu

>  <m_score__min__energy>  (46) 
-9.3499999999999996

>  <m_primary>  (46) 
energy

>  <meeko>  (46) 
{"free_energy": -7.95, "intermolecular_energy": -11.83, "internal_energy": -4.44, "cluster_size": 3, "cluster_id": 7, "rank_in_cluster": 1}

>  <energy>  (46) 
-8.85

>  <cluster_rmsd>  (46) 
0.0

>  <rmsd>  (46) 
271.0

>  <cluster>  (46) 
2

$$$$
XFBXCNWOYUAVIW-ZAPLKEHQNA-M
     RDKit          3D

 68 72  0  0  0  0  0  0  0  0999 V2000
  139.0910   73.1000  221.2560 H   0  0  0  0  0  0  0  0  0  0  0  0
  138.9440   72.3410  221.9070 O   0  0  0  0  0  0  0  0  0  0  0  0
  139.9160   71.3820  222.2100 C   0  0  0  0  0  0  0  0  0  0  0  0
  140.6210   70.8010  221.2790 N   0  0  0  0  0  0  0  0  0  0  0  0
  140.7600   71.2420  219.8940 C   0  0  0  0  0  0  0  0  0  0  0  0
  139.7894   71.1447  219.3856 H   0  0  0  0  0  0  0  0  0  0  0  0
  141.5165   70.6153  219.3990 H   0  0  0  0  0  0  0  0  0  0  0  0
  141.2060   72.6720  219.8320 C   0  0  0  0  0  0  0  0  0  0  0  0
  140.3590   73.5950  219.7170 O   0  0  0  0  0  0  0  0  0  0  0  0
  142.5970   72.9940  219.8960 N   0  0  0  0  0  0  0  0  0  0  0  0
  143.6100   72.2120  219.2160 C   0  0  0  0  0  0  0  0  0  0  0  0
  143.3879   72.1445  218.1408 H   0  0  0  0  0  0  0  0  0  0  0  0
  143.6567   71.1807  219.5958 H   0  0  0  0  0  0  0  0  0  0  0  0
  144.9180   72.9640  219.4460 C   0  0  2  0  0  0  0  0  0  0  0  0
  145.2242   73.5345  218.5567 H   0  0  0  0  0  0  0  0  0  0  0  0
  145.9640   72.0680  219.7160 O   0  0  0  0  0  0  0  0  0  0  0  0
  145.9370   71.8900  220.6920 H   0  0  0  0  0  0  0  0  0  0  0  0
  144.6570   73.8930  220.6380 C   0  0  0  0  0  0  0  0  0  0  0  0
  145.1533   74.8624  220.4833 H   0  0  0  0  0  0  0  0  0  0  0  0
  145.0528   73.4705  221.5733 H   0  0  0  0  0  0  0  0  0  0  0  0
  143.1360   74.0770  220.7030 C   0  0  1  0  0  0  0  0  0  0  0  0
  142.7688   74.0563  221.7397 H   0  0  0  0  0  0  0  0  0  0  0  0
  142.7180   75.4150  220.1330 C   0  0  0  0  0  0  0  0  0  0  0  0
  143.1360   75.7490  218.9920 O   0  0  0  0  0  0  0  0  0  0  0  0
  141.8760   76.3340  220.8450 N   0  0  0  0  0  0  0  0  0  0  0  0
  141.4600   77.6680  220.4110 C   0  0  2  0  0  0  0  0  0  0  0  0
  142.1236   78.0071  219.6019 H   0  0  0  0  0  0  0  0  0  0  0  0
  141.5620   78.6360  221.5740 C   0  0  0  0  0  0  0  0  0  0  0  0
  141.8820   79.9920  221.3710 C   0  0  0  0  0  0  0  0  0  0  0  0
  142.0319   80.3727  220.3499 H   0  0  0  0  0  0  0  0  0  0  0  0
  142.0100   80.8570  222.4630 C   0  0  0  0  0  0  0  0  0  0  0  0
  142.2435   81.9191  222.2974 H   0  0  0  0  0  0  0  0  0  0  0  0
  141.8420   80.3750  223.7630 C   0  0  0  0  0  0  0  0  0  0  0  0
  141.9357   81.0587  224.6196 H   0  0  0  0  0  0  0  0  0  0  0  0
  141.5550   79.0250  223.9750 C   0  0  0  0  0  0  0  0  0  0  0  0
  141.4337   78.6431  224.9994 H   0  0  0  0  0  0  0  0  0  0  0  0
  141.4220   78.1600  222.8880 C   0  0  0  0  0  0  0  0  0  0  0  0
  141.2055   77.0956  223.0619 H   0  0  0  0  0  0  0  0  0  0  0  0
  140.0160   77.6290  219.8700 C   0  0  0  0  0  0  0  0  0  0  0  0
  139.7283   78.6400  219.5457 H   0  0  0  0  0  0  0  0  0  0  0  0
  139.9820   76.9231  219.0270 H   0  0  0  0  0  0  0  0  0  0  0  0
  139.0450   77.1570  220.9220 C   0  0  0  0  0  0  0  0  0  0  0  0
  138.2510   78.0860  221.6160 C   0  0  0  0  0  0  0  0  0  0  0  0
  138.3085   79.1546  221.3616 H   0  0  0  0  0  0  0  0  0  0  0  0
  137.3880   77.6560  222.6290 C   0  0  0  0  0  0  0  0  0  0  0  0
  136.7600   78.3854  223.1615 H   0  0  0  0  0  0  0  0  0  0  0  0
  137.3220   76.3010  222.9660 C   0  0  0  0  0  0  0  0  0  0  0  0
  136.4940   75.8880  223.9580 F   0  0  0  0  0  0  0  0  0  0  0  0
  138.1140   75.3720  222.2850 C   0  0  0  0  0  0  0  0  0  0  0  0
  138.0625   74.3060  222.5516 H   0  0  0  0  0  0  0  0  0  0  0  0
  138.9710   75.7960  221.2660 C   0  0  0  0  0  0  0  0  0  0  0  0
  139.5905   75.0615  220.7306 H   0  0  0  0  0  0  0  0  0  0  0  0
  140.1200   71.0200  223.6260 C   0  0  0  0  0  0  0  0  0  0  0  0
  139.7700   69.7710  224.0430 N   0  0  0  0  0  0  0  0  0  0  0  0
  139.9380   69.3620  225.3280 C   0  0  0  0  0  0  0  0  0  0  0  0
  139.5400   68.0780  225.7150 C   0  0  0  0  0  0  0  0  0  0  0  0
  139.1114   67.3881  224.9731 H   0  0  0  0  0  0  0  0  0  0  0  0
  139.6870   67.6710  227.0460 C   0  0  0  0  0  0  0  0  0  0  0  0
  139.3741   66.6609  227.3488 H   0  0  0  0  0  0  0  0  0  0  0  0
  140.2310   68.5460  227.9920 C   0  0  0  0  0  0  0  0  0  0  0  0
  140.3670   68.1490  229.2810 F   0  0  0  0  0  0  0  0  0  0  0  0
  140.6350   69.8320  227.6140 C   0  0  0  0  0  0  0  0  0  0  0  0
  141.0635   70.5170  228.3604 H   0  0  0  0  0  0  0  0  0  0  0  0
  140.4920   70.2450  226.2810 C   0  0  0  0  0  0  0  0  0  0  0  0
  140.8700   71.5280  225.8730 C   0  0  0  0  0  0  0  0  0  0  0  0
  141.3169   72.2260  226.5963 H   0  0  0  0  0  0  0  0  0  0  0  0
  140.6800   71.9230  224.5470 C   0  0  0  0  0  0  0  0  0  0  0  0
  140.9668   72.9349  224.2248 H   0  0  0  0  0  0  0  0  0  0  0  0
  1  2  1  0
  2  3  1  0
  3  4  2  0
  4  5  1  0
  5  6  1  0
  5  7  1  0
  5  8  1  0
  8  9  2  0
  8 10  1  0
 10 11  1  0
 11 12  1  0
 11 13  1  0
 11 14  1  0
 14 15  1  6
 14 16  1  0
 16 17  1  0
 14 18  1  0
 18 19  1  0
 18 20  1  0
 18 21  1  0
 21 22  1  1
 21 23  1  0
 23 24  2  0
 23 25  1  0
 25 26  1  0
 26 27  1  6
 26 28  1  0
 28 29  2  0
 29 30  1  0
 29 31  1  0
 31 32  1  0
 31 33  2  0
 33 34  1  0
 33 35  1  0
 35 36  1  0
 35 37  2  0
 37 38  1  0
 26 39  1  0
 39 40  1  0
 39 41  1  0
 39 42  1  0
 42 43  2  0
 43 44  1  0
 43 45  1  0
 45 46  1  0
 45 47  2  0
 47 48  1  0
 47 49  1  0
 49 50  1  0
 49 51  2  0
 51 52  1  0
  3 53  1  0
 53 54  2  0
 54 55  1  0
 55 56  2  0
 56 57  1  0
 56 58  1  0
 58 59  1  0
 58 60  2  0
 60 61  1  0
 60 62  1  0
 62 63  1  0
 62 64  2  0
 64 65  1  0
 65 66  1  0
 65 67  2  0
 67 68  1  0
 21 10  1  0
 37 28  1  0
 51 42  1  0
 67 53  1  0
 64 55  1  0
M  CHG  1  25  -1
M  END
>  <UniqueID>  (47) 
3

>  <SMILES>  (47) 
O=C([N-][C@@H](Cc1ccc(F)cc1)c1ccccc1)[C@@H]1C[C@@H](O)CN1C(=O)C/N=C(\O)c1ccc2cc(F)ccc2n1

>  <Energy>  (47) 
70.9291234150735

>  <Genealogy>  (47) 
O=C(NCC(=O)N1C[C@H](O)C[C@H]1C(=O)[N-][C@@H](Cc1ccc(F)cc1)c1ccccc1)c1ccc2cc(F)ccc2n1 (protonated)
O=C([N-][C@@H](Cc1ccc(F)cc1)c1ccccc1)[C@@H]1C[C@@H](O)CN1C(=O)CN=C(O)c1ccc2cc(F)ccc2n1 (tautomer)
O=C([N-][C@@H](Cc1ccc(F)cc1)c1ccccc1)[C@@H]1C[C@@H](O)CN1C(=O)C/N=C(\O)c1ccc2cc(F)ccc2n1 (cis-trans isomerization)
O=C([N-][C@@H](Cc1ccc(F)cc1)c1ccccc1)[C@@H]1C[C@@H](O)CN1C(=O)C/N=C(\O)c1ccc2cc(F)ccc2n1 (3D coordinates assigned)
O=C([N-][C@@H](Cc1ccc(F)cc1)c1ccccc1)[C@@H]1C[C@@H](O)CN1C(=O)C/N=C(\O)c1ccc2cc(F)ccc2n1 (nonaromatic ring conformer: 70.9291234150735 kcal/mol)

>  <smiles>  (47) 
O=C(NCC(=O)N1C[C@H](O)C[C@H]1C(=O)N[C@@H](Cc1ccc(F)cc1)c1ccccc1)c1ccc2cc(F)ccc2n1

>  <score_type>  (47) 
oracle

>  <origin>  (47) 
autodockgpu

>  <m_score__min__energy>  (47) 
-9.3499999999999996

>  <m_primary>  (47) 
energy

>  <meeko>  (47) 
{"free_energy": -7.87, "intermolecular_energy": -11.75, "internal_energy": -3.2, "cluster_size": 5, "cluster_id": 1, "rank_in_cluster": 4}

>  <energy>  (47) 
-8.18

>  <cluster_rmsd>  (47) 
1.62

>  <rmsd>  (47) 
270.81

>  <cluster>  (47) 
2

$$$$
XFBXCNWOYUAVIW-ZAPLKEHQNA-M
     RDKit          3D

 68 72  0  0  0  0  0  0  0  0999 V2000
  140.1390   74.2820  222.0270 H   0  0  0  0  0  0  0  0  0  0  0  0
  139.9830   73.5570  222.7140 O   0  0  0  0  0  0  0  0  0  0  0  0
  140.0200   72.1910  222.4180 C   0  0  0  0  0  0  0  0  0  0  0  0
  140.0780   71.7550  221.1900 N   0  0  0  0  0  0  0  0  0  0  0  0
  141.2040   71.0650  220.5670 C   0  0  0  0  0  0  0  0  0  0  0  0
  140.8749   70.0718  220.2274 H   0  0  0  0  0  0  0  0  0  0  0  0
  142.0115   70.9689  221.3077 H   0  0  0  0  0  0  0  0  0  0  0  0
  141.7200   71.8390  219.3930 C   0  0  0  0  0  0  0  0  0  0  0  0
  141.1740   71.7180  218.2650 O   0  0  0  0  0  0  0  0  0  0  0  0
  142.8400   72.7140  219.5440 N   0  0  0  0  0  0  0  0  0  0  0  0
  144.0690   72.5440  218.7950 C   0  0  0  0  0  0  0  0  0  0  0  0
  143.8640   72.5371  217.7143 H   0  0  0  0  0  0  0  0  0  0  0  0
  144.5648   71.5907  219.0306 H   0  0  0  0  0  0  0  0  0  0  0  0
  144.9350   73.7430  219.1670 C   0  0  2  0  0  0  0  0  0  0  0  0
  144.9390   74.5062  218.3749 H   0  0  0  0  0  0  0  0  0  0  0  0
  146.2720   73.3540  219.3430 O   0  0  0  0  0  0  0  0  0  0  0  0
  146.8110   74.1870  219.3330 H   0  0  0  0  0  0  0  0  0  0  0  0
  144.3390   74.2960  220.4680 C   0  0  0  0  0  0  0  0  0  0  0  0
  144.3673   75.3956  220.4648 H   0  0  0  0  0  0  0  0  0  0  0  0
  144.9068   73.9588  221.3477 H   0  0  0  0  0  0  0  0  0  0  0  0
  142.8890   73.8000  220.5100 C   0  0  1  0  0  0  0  0  0  0  0  0
  142.5994   73.4805  221.5220 H   0  0  0  0  0  0  0  0  0  0  0  0
  141.9200   74.8950  220.1180 C   0  0  0  0  0  0  0  0  0  0  0  0
  142.0760   75.4790  219.0120 O   0  0  0  0  0  0  0  0  0  0  0  0
  140.8360   75.3120  220.9610 N   0  0  0  0  0  0  0  0  0  0  0  0
  140.7580   76.5380  221.7560 C   0  0  2  0  0  0  0  0  0  0  0  0
  141.2426   76.3679  222.7287 H   0  0  0  0  0  0  0  0  0  0  0  0
  139.3040   76.9050  221.9840 C   0  0  0  0  0  0  0  0  0  0  0  0
  138.7790   78.1300  221.5300 C   0  0  0  0  0  0  0  0  0  0  0  0
  139.4200   78.8270  220.9702 H   0  0  0  0  0  0  0  0  0  0  0  0
  137.4460   78.4640  221.7880 C   0  0  0  0  0  0  0  0  0  0  0  0
  137.0366   79.4148  221.4160 H   0  0  0  0  0  0  0  0  0  0  0  0
  136.6330   77.5930  222.5170 C   0  0  0  0  0  0  0  0  0  0  0  0
  135.5826   77.8551  222.7122 H   0  0  0  0  0  0  0  0  0  0  0  0
  137.1530   76.3900  222.9980 C   0  0  0  0  0  0  0  0  0  0  0  0
  136.5154   75.7093  223.5811 H   0  0  0  0  0  0  0  0  0  0  0  0
  138.4820   76.0510  222.7390 C   0  0  0  0  0  0  0  0  0  0  0  0
  138.8896   75.1069  223.1294 H   0  0  0  0  0  0  0  0  0  0  0  0
  141.4960   77.6880  221.0410 C   0  0  0  0  0  0  0  0  0  0  0  0
  142.4631   77.3168  220.6710 H   0  0  0  0  0  0  0  0  0  0  0  0
  140.8669   78.0377  220.2092 H   0  0  0  0  0  0  0  0  0  0  0  0
  141.7400   78.8490  221.9700 C   0  0  0  0  0  0  0  0  0  0  0  0
  141.9070   80.1440  221.4510 C   0  0  0  0  0  0  0  0  0  0  0  0
  141.8181   80.3164  220.3682 H   0  0  0  0  0  0  0  0  0  0  0  0
  142.1860   81.2150  222.3070 C   0  0  0  0  0  0  0  0  0  0  0  0
  142.3032   82.2292  221.8976 H   0  0  0  0  0  0  0  0  0  0  0  0
  142.3160   80.9980  223.6810 C   0  0  0  0  0  0  0  0  0  0  0  0
  142.6000   82.0360  224.5080 F   0  0  0  0  0  0  0  0  0  0  0  0
  142.1570   79.7110  224.2050 C   0  0  0  0  0  0  0  0  0  0  0  0
  142.2586   79.5415  225.2871 H   0  0  0  0  0  0  0  0  0  0  0  0
  141.8690   78.6400  223.3540 C   0  0  0  0  0  0  0  0  0  0  0  0
  141.7428   77.6292  223.7693 H   0  0  0  0  0  0  0  0  0  0  0  0
  139.9710   71.2340  223.5400 C   0  0  0  0  0  0  0  0  0  0  0  0
  140.4930   71.6000  224.7420 N   0  0  0  0  0  0  0  0  0  0  0  0
  140.4750   70.7770  225.8230 C   0  0  0  0  0  0  0  0  0  0  0  0
  141.0470   71.1890  227.0320 C   0  0  0  0  0  0  0  0  0  0  0  0
  141.4919   72.1915  227.1165 H   0  0  0  0  0  0  0  0  0  0  0  0
  141.0530   70.3260  228.1330 C   0  0  0  0  0  0  0  0  0  0  0  0
  141.5044   70.6507  229.0821 H   0  0  0  0  0  0  0  0  0  0  0  0
  140.4860   69.0500  228.0300 C   0  0  0  0  0  0  0  0  0  0  0  0
  140.4980   68.2160  229.0990 F   0  0  0  0  0  0  0  0  0  0  0  0
  139.9090   68.6310  226.8260 C   0  0  0  0  0  0  0  0  0  0  0  0
  139.4645   67.6278  226.7483 H   0  0  0  0  0  0  0  0  0  0  0  0
  139.8980   69.4910  225.7190 C   0  0  0  0  0  0  0  0  0  0  0  0
  139.3440   69.0970  224.4960 C   0  0  0  0  0  0  0  0  0  0  0  0
  138.8779   68.1055  224.3970 H   0  0  0  0  0  0  0  0  0  0  0  0
  139.3830   69.9630  223.4010 C   0  0  0  0  0  0  0  0  0  0  0  0
  138.9566   69.6534  222.4354 H   0  0  0  0  0  0  0  0  0  0  0  0
  1  2  1  0
  2  3  1  0
  3  4  2  0
  4  5  1  0
  5  6  1  0
  5  7  1  0
  5  8  1  0
  8  9  2  0
  8 10  1  0
 10 11  1  0
 11 12  1  0
 11 13  1  0
 11 14  1  0
 14 15  1  6
 14 16  1  0
 16 17  1  0
 14 18  1  0
 18 19  1  0
 18 20  1  0
 18 21  1  0
 21 22  1  1
 21 23  1  0
 23 24  2  0
 23 25  1  0
 25 26  1  0
 26 27  1  1
 26 28  1  0
 28 29  2  0
 29 30  1  0
 29 31  1  0
 31 32  1  0
 31 33  2  0
 33 34  1  0
 33 35  1  0
 35 36  1  0
 35 37  2  0
 37 38  1  0
 26 39  1  0
 39 40  1  0
 39 41  1  0
 39 42  1  0
 42 43  2  0
 43 44  1  0
 43 45  1  0
 45 46  1  0
 45 47  2  0
 47 48  1  0
 47 49  1  0
 49 50  1  0
 49 51  2  0
 51 52  1  0
  3 53  1  0
 53 54  2  0
 54 55  1  0
 55 56  2  0
 56 57  1  0
 56 58  1  0
 58 59  1  0
 58 60  2  0
 60 61  1  0
 60 62  1  0
 62 63  1  0
 62 64  2  0
 64 65  1  0
 65 66  1  0
 65 67  2  0
 67 68  1  0
 21 10  1  0
 37 28  1  0
 51 42  1  0
 67 53  1  0
 64 55  1  0
M  CHG  1  25  -1
M  END
>  <UniqueID>  (48) 
3

>  <SMILES>  (48) 
O=C([N-][C@@H](Cc1ccc(F)cc1)c1ccccc1)[C@@H]1C[C@@H](O)CN1C(=O)C/N=C(\O)c1ccc2cc(F)ccc2n1

>  <Energy>  (48) 
70.9291234150735

>  <Genealogy>  (48) 
O=C(NCC(=O)N1C[C@H](O)C[C@H]1C(=O)[N-][C@@H](Cc1ccc(F)cc1)c1ccccc1)c1ccc2cc(F)ccc2n1 (protonated)
O=C([N-][C@@H](Cc1ccc(F)cc1)c1ccccc1)[C@@H]1C[C@@H](O)CN1C(=O)CN=C(O)c1ccc2cc(F)ccc2n1 (tautomer)
O=C([N-][C@@H](Cc1ccc(F)cc1)c1ccccc1)[C@@H]1C[C@@H](O)CN1C(=O)C/N=C(\O)c1ccc2cc(F)ccc2n1 (cis-trans isomerization)
O=C([N-][C@@H](Cc1ccc(F)cc1)c1ccccc1)[C@@H]1C[C@@H](O)CN1C(=O)C/N=C(\O)c1ccc2cc(F)ccc2n1 (3D coordinates assigned)
O=C([N-][C@@H](Cc1ccc(F)cc1)c1ccccc1)[C@@H]1C[C@@H](O)CN1C(=O)C/N=C(\O)c1ccc2cc(F)ccc2n1 (nonaromatic ring conformer: 70.9291234150735 kcal/mol)

>  <smiles>  (48) 
O=C(NCC(=O)N1C[C@H](O)C[C@H]1C(=O)N[C@@H](Cc1ccc(F)cc1)c1ccccc1)c1ccc2cc(F)ccc2n1

>  <score_type>  (48) 
oracle

>  <origin>  (48) 
autodockgpu

>  <m_score__min__energy>  (48) 
-9.3499999999999996

>  <m_primary>  (48) 
energy

>  <meeko>  (48) 
{"free_energy": -9.35, "intermolecular_energy": -13.23, "internal_energy": -3.21, "cluster_size": 5, "cluster_id": 1, "rank_in_cluster": 1}

>  <energy>  (48) 
-8.58

>  <cluster_rmsd>  (48) 
0.0

>  <rmsd>  (48) 
270.91

>  <cluster>  (48) 
3

$$$$
XFBXCNWOYUAVIW-ZAPLKEHQNA-M
     RDKit          3D

 68 72  0  0  0  0  0  0  0  0999 V2000
  139.0210   74.2770  222.7570 H   0  0  0  0  0  0  0  0  0  0  0  0
  138.4560   75.0190  222.3690 O   0  0  0  0  0  0  0  0  0  0  0  0
  138.9590   76.0130  221.5240 C   0  0  0  0  0  0  0  0  0  0  0  0
  139.0740   75.8280  220.2380 N   0  0  0  0  0  0  0  0  0  0  0  0
  140.3210   75.7620  219.4800 C   0  0  0  0  0  0  0  0  0  0  0  0
  141.1169   76.2629  220.0507 H   0  0  0  0  0  0  0  0  0  0  0  0
  140.1717   76.2618  218.5115 H   0  0  0  0  0  0  0  0  0  0  0  0
  140.7170   74.3390  219.2300 C   0  0  0  0  0  0  0  0  0  0  0  0
  140.0000   73.5980  218.5070 O   0  0  0  0  0  0  0  0  0  0  0  0
  141.9080   73.8110  219.8170 N   0  0  0  0  0  0  0  0  0  0  0  0
  143.2140   74.4010  219.5970 C   0  0  0  0  0  0  0  0  0  0  0  0
  143.2096   75.4638  219.8807 H   0  0  0  0  0  0  0  0  0  0  0  0
  143.5121   74.3557  218.5391 H   0  0  0  0  0  0  0  0  0  0  0  0
  144.1660   73.6130  220.4910 C   0  0  2  0  0  0  0  0  0  0  0  0
  144.4269   74.1708  221.4025 H   0  0  0  0  0  0  0  0  0  0  0  0
  145.3760   73.3600  219.8260 O   0  0  0  0  0  0  0  0  0  0  0  0
  145.6100   74.1940  219.3410 H   0  0  0  0  0  0  0  0  0  0  0  0
  143.4320   72.3080  220.8290 C   0  0  0  0  0  0  0  0  0  0  0  0
  143.6231   72.0208  221.8735 H   0  0  0  0  0  0  0  0  0  0  0  0
  143.7741   71.4761  220.1958 H   0  0  0  0  0  0  0  0  0  0  0  0
  141.9420   72.5990  220.6200 C   0  0  1  0  0  0  0  0  0  0  0  0
  141.4293   71.7556  220.1345 H   0  0  0  0  0  0  0  0  0  0  0  0
  141.2340   72.8230  221.9390 C   0  0  0  0  0  0  0  0  0  0  0  0
  140.8690   73.9900  222.2440 O   0  0  0  0  0  0  0  0  0  0  0  0
  140.9720   71.7630  222.8700 N   0  0  0  0  0  0  0  0  0  0  0  0
  139.8530   71.6680  223.8070 C   0  0  2  0  0  0  0  0  0  0  0  0
  139.4936   72.6809  224.0414 H   0  0  0  0  0  0  0  0  0  0  0  0
  140.3150   70.9970  225.0870 C   0  0  0  0  0  0  0  0  0  0  0  0
  140.2750   69.5980  225.2360 C   0  0  0  0  0  0  0  0  0  0  0  0
  139.9331   68.9679  224.4017 H   0  0  0  0  0  0  0  0  0  0  0  0
  140.6680   69.0060  226.4400 C   0  0  0  0  0  0  0  0  0  0  0  0
  140.6512   67.9111  226.5443 H   0  0  0  0  0  0  0  0  0  0  0  0
  141.0820   69.8020  227.5110 C   0  0  0  0  0  0  0  0  0  0  0  0
  141.3976   69.3335  228.4549 H   0  0  0  0  0  0  0  0  0  0  0  0
  141.0950   71.1910  227.3830 C   0  0  0  0  0  0  0  0  0  0  0  0
  141.4105   71.8180  228.2300 H   0  0  0  0  0  0  0  0  0  0  0  0
  140.7080   71.7860  226.1810 C   0  0  0  0  0  0  0  0  0  0  0  0
  140.7107   72.8822  226.0896 H   0  0  0  0  0  0  0  0  0  0  0  0
  138.6910   70.8730  223.1750 C   0  0  0  0  0  0  0  0  0  0  0  0
  139.1062   70.0667  222.5525 H   0  0  0  0  0  0  0  0  0  0  0  0
  138.0723   70.4617  223.9862 H   0  0  0  0  0  0  0  0  0  0  0  0
  137.8210   71.7560  222.3170 C   0  0  0  0  0  0  0  0  0  0  0  0
  138.1540   71.9810  220.9720 C   0  0  0  0  0  0  0  0  0  0  0  0
  139.0287   71.4790  220.5329 H   0  0  0  0  0  0  0  0  0  0  0  0
  137.3780   72.8410  220.1880 C   0  0  0  0  0  0  0  0  0  0  0  0
  137.6362   73.0043  219.1313 H   0  0  0  0  0  0  0  0  0  0  0  0
  136.2750   73.4930  220.7460 C   0  0  0  0  0  0  0  0  0  0  0  0
  135.5310   74.3370  219.9880 F   0  0  0  0  0  0  0  0  0  0  0  0
  135.9410   73.2790  222.0870 C   0  0  0  0  0  0  0  0  0  0  0  0
  135.0732   73.7932  222.5258 H   0  0  0  0  0  0  0  0  0  0  0  0
  136.7080   72.4130  222.8700 C   0  0  0  0  0  0  0  0  0  0  0  0
  136.4400   72.2445  223.9235 H   0  0  0  0  0  0  0  0  0  0  0  0
  139.3840   77.2910  222.1270 C   0  0  0  0  0  0  0  0  0  0  0  0
  140.7060   77.6180  222.1160 N   0  0  0  0  0  0  0  0  0  0  0  0
  141.1700   78.7820  222.6420 C   0  0  0  0  0  0  0  0  0  0  0  0
  142.5410   79.0620  222.6300 C   0  0  0  0  0  0  0  0  0  0  0  0
  143.2437   78.3505  222.1717 H   0  0  0  0  0  0  0  0  0  0  0  0
  143.0180   80.2470  223.2010 C   0  0  0  0  0  0  0  0  0  0  0  0
  144.0961   80.4651  223.1922 H   0  0  0  0  0  0  0  0  0  0  0  0
  142.1270   81.1550  223.7830 C   0  0  0  0  0  0  0  0  0  0  0  0
  142.5940   82.3000  224.3380 F   0  0  0  0  0  0  0  0  0  0  0  0
  140.7540   80.8850  223.7970 C   0  0  0  0  0  0  0  0  0  0  0  0
  140.0562   81.6015  224.2550 H   0  0  0  0  0  0  0  0  0  0  0  0
  140.2690   79.6990  223.2260 C   0  0  0  0  0  0  0  0  0  0  0  0
  138.9050   79.3910  223.2380 C   0  0  0  0  0  0  0  0  0  0  0  0
  138.1847   80.0981  223.6752 H   0  0  0  0  0  0  0  0  0  0  0  0
  138.4580   78.1840  222.6940 C   0  0  0  0  0  0  0  0  0  0  0  0
  137.3869   77.9338  222.7093 H   0  0  0  0  0  0  0  0  0  0  0  0
  1  2  1  0
  2  3  1  0
  3  4  2  0
  4  5  1  0
  5  6  1  0
  5  7  1  0
  5  8  1  0
  8  9  2  0
  8 10  1  0
 10 11  1  0
 11 12  1  0
 11 13  1  0
 11 14  1  0
 14 15  1  1
 14 16  1  0
 16 17  1  0
 14 18  1  0
 18 19  1  0
 18 20  1  0
 18 21  1  0
 21 22  1  6
 21 23  1  0
 23 24  2  0
 23 25  1  0
 25 26  1  0
 26 27  1  1
 26 28  1  0
 28 29  2  0
 29 30  1  0
 29 31  1  0
 31 32  1  0
 31 33  2  0
 33 34  1  0
 33 35  1  0
 35 36  1  0
 35 37  2  0
 37 38  1  0
 26 39  1  0
 39 40  1  0
 39 41  1  0
 39 42  1  0
 42 43  2  0
 43 44  1  0
 43 45  1  0
 45 46  1  0
 45 47  2  0
 47 48  1  0
 47 49  1  0
 49 50  1  0
 49 51  2  0
 51 52  1  0
  3 53  1  0
 53 54  2  0
 54 55  1  0
 55 56  2  0
 56 57  1  0
 56 58  1  0
 58 59  1  0
 58 60  2  0
 60 61  1  0
 60 62  1  0
 62 63  1  0
 62 64  2  0
 64 65  1  0
 65 66  1  0
 65 67  2  0
 67 68  1  0
 21 10  1  0
 37 28  1  0
 51 42  1  0
 67 53  1  0
 64 55  1  0
M  CHG  1  25  -1
M  END
>  <UniqueID>  (49) 
3

>  <SMILES>  (49) 
O=C([N-][C@@H](Cc1ccc(F)cc1)c1ccccc1)[C@@H]1C[C@@H](O)CN1C(=O)C/N=C(\O)c1ccc2cc(F)ccc2n1

>  <Energy>  (49) 
70.9291234150735

>  <Genealogy>  (49) 
O=C(NCC(=O)N1C[C@H](O)C[C@H]1C(=O)[N-][C@@H](Cc1ccc(F)cc1)c1ccccc1)c1ccc2cc(F)ccc2n1 (protonated)
O=C([N-][C@@H](Cc1ccc(F)cc1)c1ccccc1)[C@@H]1C[C@@H](O)CN1C(=O)CN=C(O)c1ccc2cc(F)ccc2n1 (tautomer)
O=C([N-][C@@H](Cc1ccc(F)cc1)c1ccccc1)[C@@H]1C[C@@H](O)CN1C(=O)C/N=C(\O)c1ccc2cc(F)ccc2n1 (cis-trans isomerization)
O=C([N-][C@@H](Cc1ccc(F)cc1)c1ccccc1)[C@@H]1C[C@@H](O)CN1C(=O)C/N=C(\O)c1ccc2cc(F)ccc2n1 (3D coordinates assigned)
O=C([N-][C@@H](Cc1ccc(F)cc1)c1ccccc1)[C@@H]1C[C@@H](O)CN1C(=O)C/N=C(\O)c1ccc2cc(F)ccc2n1 (nonaromatic ring conformer: 70.9291234150735 kcal/mol)

>  <smiles>  (49) 
O=C(NCC(=O)N1C[C@H](O)C[C@H]1C(=O)N[C@@H](Cc1ccc(F)cc1)c1ccccc1)c1ccc2cc(F)ccc2n1

>  <score_type>  (49) 
oracle

>  <origin>  (49) 
autodockgpu

>  <m_score__min__energy>  (49) 
-9.3499999999999996

>  <m_primary>  (49) 
energy

>  <meeko>  (49) 
{"free_energy": -8.18, "intermolecular_energy": -12.06, "internal_energy": -3.97, "cluster_size": 2, "cluster_id": 2, "rank_in_cluster": 2}

>  <energy>  (49) 
-8.56

>  <cluster_rmsd>  (49) 
1.29

>  <rmsd>  (49) 
270.84

>  <cluster>  (49) 
3

$$$$
XFBXCNWOYUAVIW-ZAPLKEHQNA-M
     RDKit          3D

 68 72  0  0  0  0  0  0  0  0999 V2000
  139.1520   74.2100  222.7840 H   0  0  0  0  0  0  0  0  0  0  0  0
  138.5770   74.9680  222.4430 O   0  0  0  0  0  0  0  0  0  0  0  0
  139.0480   75.9720  221.5910 C   0  0  0  0  0  0  0  0  0  0  0  0
  139.1490   75.7910  220.3040 N   0  0  0  0  0  0  0  0  0  0  0  0
  140.3650   75.9110  219.5030 C   0  0  0  0  0  0  0  0  0  0  0  0
  141.1341   76.4328  220.0914 H   0  0  0  0  0  0  0  0  0  0  0  0
  140.1307   76.4778  218.5899 H   0  0  0  0  0  0  0  0  0  0  0  0
  140.8800   74.5600  219.1100 C   0  0  0  0  0  0  0  0  0  0  0  0
  140.3250   73.9150  218.1820 O   0  0  0  0  0  0  0  0  0  0  0  0
  141.9990   73.9910  219.7930 N   0  0  0  0  0  0  0  0  0  0  0  0
  143.2490   74.7020  219.9680 C   0  0  0  0  0  0  0  0  0  0  0  0
  143.0769   75.6664  220.4683 H   0  0  0  0  0  0  0  0  0  0  0  0
  143.7324   74.9246  219.0053 H   0  0  0  0  0  0  0  0  0  0  0  0
  144.1100   73.7940  220.8400 C   0  0  2  0  0  0  0  0  0  0  0  0
  144.1433   74.1409  221.8833 H   0  0  0  0  0  0  0  0  0  0  0  0
  145.4390   73.7850  220.3890 O   0  0  0  0  0  0  0  0  0  0  0  0
  145.5070   74.5000  219.7040 H   0  0  0  0  0  0  0  0  0  0  0  0
  143.4760   72.4000  220.7370 C   0  0  0  0  0  0  0  0  0  0  0  0
  143.5094   71.8915  221.7118 H   0  0  0  0  0  0  0  0  0  0  0  0
  144.0146   71.7634  220.0196 H   0  0  0  0  0  0  0  0  0  0  0  0
  142.0230   72.6300  220.3050 C   0  0  1  0  0  0  0  0  0  0  0  0
  141.7001   71.8908  219.5571 H   0  0  0  0  0  0  0  0  0  0  0  0
  141.0730   72.4920  221.4750 C   0  0  0  0  0  0  0  0  0  0  0  0
  140.8350   73.5030  222.1900 O   0  0  0  0  0  0  0  0  0  0  0  0
  140.4390   71.2510  221.8190 N   0  0  0  0  0  0  0  0  0  0  0  0
  139.8770   70.8770  223.1180 C   0  0  2  0  0  0  0  0  0  0  0  0
  139.9950   69.7930  223.2632 H   0  0  0  0  0  0  0  0  0  0  0  0
  138.4010   71.2230  223.1530 C   0  0  0  0  0  0  0  0  0  0  0  0
  137.8580   72.2040  222.3030 C   0  0  0  0  0  0  0  0  0  0  0  0
  138.5035   72.7130  221.5720 H   0  0  0  0  0  0  0  0  0  0  0  0
  136.5020   72.5350  222.3830 C   0  0  0  0  0  0  0  0  0  0  0  0
  136.0804   73.2912  221.7045 H   0  0  0  0  0  0  0  0  0  0  0  0
  135.6820   71.9070  223.3230 C   0  0  0  0  0  0  0  0  0  0  0  0
  134.6136   72.1628  223.3791 H   0  0  0  0  0  0  0  0  0  0  0  0
  136.2180   70.9550  224.1910 C   0  0  0  0  0  0  0  0  0  0  0  0
  135.5739   70.4688  224.9385 H   0  0  0  0  0  0  0  0  0  0  0  0
  137.5700   70.6190  224.1120 C   0  0  0  0  0  0  0  0  0  0  0  0
  137.9888   69.8753  224.8060 H   0  0  0  0  0  0  0  0  0  0  0  0
  140.6260   71.6040  224.2540 C   0  0  0  0  0  0  0  0  0  0  0  0
  141.6761   71.7435  223.9577 H   0  0  0  0  0  0  0  0  0  0  0  0
  140.1354   72.5735  224.4257 H   0  0  0  0  0  0  0  0  0  0  0  0
  140.5800   70.8170  225.5380 C   0  0  0  0  0  0  0  0  0  0  0  0
  140.7400   71.4690  226.7720 C   0  0  0  0  0  0  0  0  0  0  0  0
  140.8578   72.5622  226.8031 H   0  0  0  0  0  0  0  0  0  0  0  0
  140.7500   70.7330  227.9610 C   0  0  0  0  0  0  0  0  0  0  0  0
  140.8629   71.2500  228.9254 H   0  0  0  0  0  0  0  0  0  0  0  0
  140.6170   69.3430  227.9270 C   0  0  0  0  0  0  0  0  0  0  0  0
  140.6400   68.6300  229.0800 F   0  0  0  0  0  0  0  0  0  0  0  0
  140.4640   68.6850  226.7020 C   0  0  0  0  0  0  0  0  0  0  0  0
  140.3602   67.5902  226.6752 H   0  0  0  0  0  0  0  0  0  0  0  0
  140.4430   69.4180  225.5120 C   0  0  0  0  0  0  0  0  0  0  0  0
  140.3187   68.8979  224.5507 H   0  0  0  0  0  0  0  0  0  0  0  0
  139.4570   77.2580  222.1890 C   0  0  0  0  0  0  0  0  0  0  0  0
  140.7770   77.5900  222.2000 N   0  0  0  0  0  0  0  0  0  0  0  0
  141.2270   78.7610  222.7240 C   0  0  0  0  0  0  0  0  0  0  0  0
  142.5960   79.0470  222.7350 C   0  0  0  0  0  0  0  0  0  0  0  0
  143.3103   78.3338  222.2978 H   0  0  0  0  0  0  0  0  0  0  0  0
  143.0570   80.2400  223.3020 C   0  0  0  0  0  0  0  0  0  0  0  0
  144.1341   80.4634  223.3101 H   0  0  0  0  0  0  0  0  0  0  0  0
  142.1510   81.1500  223.8590 C   0  0  0  0  0  0  0  0  0  0  0  0
  142.6040   82.3020  224.4110 F   0  0  0  0  0  0  0  0  0  0  0  0
  140.7790   80.8740  223.8490 C   0  0  0  0  0  0  0  0  0  0  0  0
  140.0693   81.5919  224.2860 H   0  0  0  0  0  0  0  0  0  0  0  0
  140.3110   79.6810  223.2810 C   0  0  0  0  0  0  0  0  0  0  0  0
  138.9470   79.3660  223.2700 C   0  0  0  0  0  0  0  0  0  0  0  0
  138.2153   80.0739  223.6866 H   0  0  0  0  0  0  0  0  0  0  0  0
  138.5160   78.1530  222.7300 C   0  0  0  0  0  0  0  0  0  0  0  0
  137.4459   77.8982  222.7275 H   0  0  0  0  0  0  0  0  0  0  0  0
  1  2  1  0
  2  3  1  0
  3  4  2  0
  4  5  1  0
  5  6  1  0
  5  7  1  0
  5  8  1  0
  8  9  2  0
  8 10  1  0
 10 11  1  0
 11 12  1  0
 11 13  1  0
 11 14  1  0
 14 15  1  1
 14 16  1  0
 16 17  1  0
 14 18  1  0
 18 19  1  0
 18 20  1  0
 18 21  1  0
 21 22  1  6
 21 23  1  0
 23 24  2  0
 23 25  1  0
 25 26  1  0
 26 27  1  1
 26 28  1  0
 28 29  2  0
 29 30  1  0
 29 31  1  0
 31 32  1  0
 31 33  2  0
 33 34  1  0
 33 35  1  0
 35 36  1  0
 35 37  2  0
 37 38  1  0
 26 39  1  0
 39 40  1  0
 39 41  1  0
 39 42  1  0
 42 43  2  0
 43 44  1  0
 43 45  1  0
 45 46  1  0
 45 47  2  0
 47 48  1  0
 47 49  1  0
 49 50  1  0
 49 51  2  0
 51 52  1  0
  3 53  1  0
 53 54  2  0
 54 55  1  0
 55 56  2  0
 56 57  1  0
 56 58  1  0
 58 59  1  0
 58 60  2  0
 60 61  1  0
 60 62  1  0
 62 63  1  0
 62 64  2  0
 64 65  1  0
 65 66  1  0
 65 67  2  0
 67 68  1  0
 21 10  1  0
 37 28  1  0
 51 42  1  0
 67 53  1  0
 64 55  1  0
M  CHG  1  25  -1
M  END
>  <UniqueID>  (50) 
3

>  <SMILES>  (50) 
O=C([N-][C@@H](Cc1ccc(F)cc1)c1ccccc1)[C@@H]1C[C@@H](O)CN1C(=O)C/N=C(\O)c1ccc2cc(F)ccc2n1

>  <Energy>  (50) 
70.9291234150735

>  <Genealogy>  (50) 
O=C(NCC(=O)N1C[C@H](O)C[C@H]1C(=O)[N-][C@@H](Cc1ccc(F)cc1)c1ccccc1)c1ccc2cc(F)ccc2n1 (protonated)
O=C([N-][C@@H](Cc1ccc(F)cc1)c1ccccc1)[C@@H]1C[C@@H](O)CN1C(=O)CN=C(O)c1ccc2cc(F)ccc2n1 (tautomer)
O=C([N-][C@@H](Cc1ccc(F)cc1)c1ccccc1)[C@@H]1C[C@@H](O)CN1C(=O)C/N=C(\O)c1ccc2cc(F)ccc2n1 (cis-trans isomerization)
O=C([N-][C@@H](Cc1ccc(F)cc1)c1ccccc1)[C@@H]1C[C@@H](O)CN1C(=O)C/N=C(\O)c1ccc2cc(F)ccc2n1 (3D coordinates assigned)
O=C([N-][C@@H](Cc1ccc(F)cc1)c1ccccc1)[C@@H]1C[C@@H](O)CN1C(=O)C/N=C(\O)c1ccc2cc(F)ccc2n1 (nonaromatic ring conformer: 70.9291234150735 kcal/mol)

>  <smiles>  (50) 
O=C(NCC(=O)N1C[C@H](O)C[C@H]1C(=O)N[C@@H](Cc1ccc(F)cc1)c1ccccc1)c1ccc2cc(F)ccc2n1

>  <score_type>  (50) 
oracle

>  <origin>  (50) 
autodockgpu

>  <m_score__min__energy>  (50) 
-9.3499999999999996

>  <m_primary>  (50) 
energy

>  <meeko>  (50) 
{"free_energy": -9.11, "intermolecular_energy": -12.98, "internal_energy": -3.37, "cluster_size": 5, "cluster_id": 1, "rank_in_cluster": 2}

>  <energy>  (50) 
-8.33

>  <cluster_rmsd>  (50) 
1.91

>  <rmsd>  (50) 
271.06

>  <cluster>  (50) 
3

$$$$
XFBXCNWOYUAVIW-ZAPLKEHQNA-M
     RDKit          3D

 68 72  0  0  0  0  0  0  0  0999 V2000
  139.2150   74.4430  222.8490 H   0  0  0  0  0  0  0  0  0  0  0  0
  139.9050   73.7200  222.6950 O   0  0  0  0  0  0  0  0  0  0  0  0
  139.5810   72.3830  222.4460 C   0  0  0  0  0  0  0  0  0  0  0  0
  139.1970   71.9770  221.2680 N   0  0  0  0  0  0  0  0  0  0  0  0
  137.9540   72.3360  220.5890 C   0  0  0  0  0  0  0  0  0  0  0  0
  137.1022   71.9500  221.1681 H   0  0  0  0  0  0  0  0  0  0  0  0
  137.9626   71.8954  219.5811 H   0  0  0  0  0  0  0  0  0  0  0  0
  137.8280   73.8240  220.4620 C   0  0  0  0  0  0  0  0  0  0  0  0
  138.3200   74.4190  219.4670 O   0  0  0  0  0  0  0  0  0  0  0  0
  137.1560   74.5770  221.4730 N   0  0  0  0  0  0  0  0  0  0  0  0
  136.5720   73.9590  222.6470 C   0  0  0  0  0  0  0  0  0  0  0  0
  137.3280   73.3737  223.1910 H   0  0  0  0  0  0  0  0  0  0  0  0
  135.7606   73.2642  222.3846 H   0  0  0  0  0  0  0  0  0  0  0  0
  136.0740   75.1180  223.5050 C   0  0  2  0  0  0  0  0  0  0  0  0
  136.7500   75.3229  224.3483 H   0  0  0  0  0  0  0  0  0  0  0  0
  134.8250   74.8170  224.0690 O   0  0  0  0  0  0  0  0  0  0  0  0
  134.6360   73.8680  223.8440 H   0  0  0  0  0  0  0  0  0  0  0  0
  135.9840   76.3230  222.5600 C   0  0  0  0  0  0  0  0  0  0  0  0
  136.3085   77.2388  223.0758 H   0  0  0  0  0  0  0  0  0  0  0  0
  134.9524   76.4910  222.2171 H   0  0  0  0  0  0  0  0  0  0  0  0
  136.9220   76.0100  221.3890 C   0  0  1  0  0  0  0  0  0  0  0  0
  136.4826   76.3124  220.4270 H   0  0  0  0  0  0  0  0  0  0  0  0
  138.2290   76.7620  221.5130 C   0  0  0  0  0  0  0  0  0  0  0  0
  138.3910   77.8170  220.8420 O   0  0  0  0  0  0  0  0  0  0  0  0
  139.3060   76.3170  222.3510 N   0  0  0  0  0  0  0  0  0  0  0  0
  140.7360   76.3590  222.0480 C   0  0  2  0  0  0  0  0  0  0  0  0
  141.2704   75.6950  222.7433 H   0  0  0  0  0  0  0  0  0  0  0  0
  141.2520   77.7750  222.2190 C   0  0  0  0  0  0  0  0  0  0  0  0
  141.4830   78.3210  223.4960 C   0  0  0  0  0  0  0  0  0  0  0  0
  141.3191   77.7054  224.3928 H   0  0  0  0  0  0  0  0  0  0  0  0
  141.9200   79.6430  223.6290 C   0  0  0  0  0  0  0  0  0  0  0  0
  142.1153   80.0585  224.6286 H   0  0  0  0  0  0  0  0  0  0  0  0
  142.1090   80.4370  222.4950 C   0  0  0  0  0  0  0  0  0  0  0  0
  142.4595   81.4742  222.6018 H   0  0  0  0  0  0  0  0  0  0  0  0
  141.8530   79.9140  221.2270 C   0  0  0  0  0  0  0  0  0  0  0  0
  141.9917   80.5424  220.3349 H   0  0  0  0  0  0  0  0  0  0  0  0
  141.4210   78.5940  221.0900 C   0  0  0  0  0  0  0  0  0  0  0  0
  141.2108   78.1909  220.0883 H   0  0  0  0  0  0  0  0  0  0  0  0
  140.9930   75.8660  220.6090 C   0  0  0  0  0  0  0  0  0  0  0  0
  140.1075   75.3174  220.2554 H   0  0  0  0  0  0  0  0  0  0  0  0
  141.1899   76.7421  219.9736 H   0  0  0  0  0  0  0  0  0  0  0  0
  142.1920   74.9550  220.5440 C   0  0  0  0  0  0  0  0  0  0  0  0
  143.4260   75.4450  220.0850 C   0  0  0  0  0  0  0  0  0  0  0  0
  143.5269   76.5058  219.8118 H   0  0  0  0  0  0  0  0  0  0  0  0
  144.5270   74.5890  219.9740 C   0  0  0  0  0  0  0  0  0  0  0  0
  145.4945   74.9805  219.6266 H   0  0  0  0  0  0  0  0  0  0  0  0
  144.3990   73.2370  220.3040 C   0  0  0  0  0  0  0  0  0  0  0  0
  145.4640   72.4050  220.1820 F   0  0  0  0  0  0  0  0  0  0  0  0
  143.1720   72.7400  220.7550 C   0  0  0  0  0  0  0  0  0  0  0  0
  143.0722   71.6758  221.0147 H   0  0  0  0  0  0  0  0  0  0  0  0
  142.0730   73.5940  220.8760 C   0  0  0  0  0  0  0  0  0  0  0  0
  141.1100   73.1997  221.2327 H   0  0  0  0  0  0  0  0  0  0  0  0
  139.6640   71.4250  223.5660 C   0  0  0  0  0  0  0  0  0  0  0  0
  140.2390   71.8250  224.7330 N   0  0  0  0  0  0  0  0  0  0  0  0
  140.3420   71.0030  225.8110 C   0  0  0  0  0  0  0  0  0  0  0  0
  140.9640   71.4510  226.9810 C   0  0  0  0  0  0  0  0  0  0  0  0
  141.3503   72.4793  227.0392 H   0  0  0  0  0  0  0  0  0  0  0  0
  141.0950   70.5920  228.0770 C   0  0  0  0  0  0  0  0  0  0  0  0
  141.5850   70.9459  228.9961 H   0  0  0  0  0  0  0  0  0  0  0  0
  140.6040   69.2830  228.0070 C   0  0  0  0  0  0  0  0  0  0  0  0
  140.7360   68.4530  229.0710 F   0  0  0  0  0  0  0  0  0  0  0  0
  139.9770   68.8270  226.8420 C   0  0  0  0  0  0  0  0  0  0  0  0
  139.5914   67.7981  226.7906 H   0  0  0  0  0  0  0  0  0  0  0  0
  139.8410   69.6840  225.7400 C   0  0  0  0  0  0  0  0  0  0  0  0
  139.2350   69.2550  224.5550 C   0  0  0  0  0  0  0  0  0  0  0  0
  138.8261   68.2363  224.4838 H   0  0  0  0  0  0  0  0  0  0  0  0
  139.1490   70.1200  223.4620 C   0  0  0  0  0  0  0  0  0  0  0  0
  138.6813   69.7829  222.5252 H   0  0  0  0  0  0  0  0  0  0  0  0
  1  2  1  0
  2  3  1  0
  3  4  2  0
  4  5  1  0
  5  6  1  0
  5  7  1  0
  5  8  1  0
  8  9  2  0
  8 10  1  0
 10 11  1  0
 11 12  1  0
 11 13  1  0
 11 14  1  0
 14 15  1  1
 14 16  1  0
 16 17  1  0
 14 18  1  0
 18 19  1  0
 18 20  1  0
 18 21  1  0
 21 22  1  6
 21 23  1  0
 23 24  2  0
 23 25  1  0
 25 26  1  0
 26 27  1  1
 26 28  1  0
 28 29  2  0
 29 30  1  0
 29 31  1  0
 31 32  1  0
 31 33  2  0
 33 34  1  0
 33 35  1  0
 35 36  1  0
 35 37  2  0
 37 38  1  0
 26 39  1  0
 39 40  1  0
 39 41  1  0
 39 42  1  0
 42 43  2  0
 43 44  1  0
 43 45  1  0
 45 46  1  0
 45 47  2  0
 47 48  1  0
 47 49  1  0
 49 50  1  0
 49 51  2  0
 51 52  1  0
  3 53  1  0
 53 54  2  0
 54 55  1  0
 55 56  2  0
 56 57  1  0
 56 58  1  0
 58 59  1  0
 58 60  2  0
 60 61  1  0
 60 62  1  0
 62 63  1  0
 62 64  2  0
 64 65  1  0
 65 66  1  0
 65 67  2  0
 67 68  1  0
 21 10  1  0
 37 28  1  0
 51 42  1  0
 67 53  1  0
 64 55  1  0
M  CHG  1  25  -1
M  END
>  <UniqueID>  (51) 
3

>  <SMILES>  (51) 
O=C([N-][C@@H](Cc1ccc(F)cc1)c1ccccc1)[C@@H]1C[C@@H](O)CN1C(=O)C/N=C(\O)c1ccc2cc(F)ccc2n1

>  <Energy>  (51) 
70.9291234150735

>  <Genealogy>  (51) 
O=C(NCC(=O)N1C[C@H](O)C[C@H]1C(=O)[N-][C@@H](Cc1ccc(F)cc1)c1ccccc1)c1ccc2cc(F)ccc2n1 (protonated)
O=C([N-][C@@H](Cc1ccc(F)cc1)c1ccccc1)[C@@H]1C[C@@H](O)CN1C(=O)CN=C(O)c1ccc2cc(F)ccc2n1 (tautomer)
O=C([N-][C@@H](Cc1ccc(F)cc1)c1ccccc1)[C@@H]1C[C@@H](O)CN1C(=O)C/N=C(\O)c1ccc2cc(F)ccc2n1 (cis-trans isomerization)
O=C([N-][C@@H](Cc1ccc(F)cc1)c1ccccc1)[C@@H]1C[C@@H](O)CN1C(=O)C/N=C(\O)c1ccc2cc(F)ccc2n1 (3D coordinates assigned)
O=C([N-][C@@H](Cc1ccc(F)cc1)c1ccccc1)[C@@H]1C[C@@H](O)CN1C(=O)C/N=C(\O)c1ccc2cc(F)ccc2n1 (nonaromatic ring conformer: 70.9291234150735 kcal/mol)

>  <smiles>  (51) 
O=C(NCC(=O)N1C[C@H](O)C[C@H]1C(=O)N[C@@H](Cc1ccc(F)cc1)c1ccccc1)c1ccc2cc(F)ccc2n1

>  <score_type>  (51) 
oracle

>  <origin>  (51) 
autodockgpu

>  <m_score__min__energy>  (51) 
-9.3499999999999996

>  <m_primary>  (51) 
energy

>  <meeko>  (51) 
{"free_energy": -8.56, "intermolecular_energy": -12.44, "internal_energy": -3.76, "cluster_size": 5, "cluster_id": 3, "rank_in_cluster": 2}

>  <energy>  (51) 
-7.96

>  <cluster_rmsd>  (51) 
1.46

>  <rmsd>  (51) 
270.85

>  <cluster>  (51) 
3

$$$$
XFBXCNWOYUAVIW-ZAPLKEHQNA-M
     RDKit          3D

 68 72  0  0  0  0  0  0  0  0999 V2000
  139.3330   73.7400  222.7550 H   0  0  0  0  0  0  0  0  0  0  0  0
  139.7640   72.8270  222.7970 O   0  0  0  0  0  0  0  0  0  0  0  0
  139.0390   71.6310  222.8270 C   0  0  0  0  0  0  0  0  0  0  0  0
  138.1450   71.3470  221.9210 N   0  0  0  0  0  0  0  0  0  0  0  0
  136.9930   72.1650  221.5530 C   0  0  0  0  0  0  0  0  0  0  0  0
  136.1841   71.5095  221.1979 H   0  0  0  0  0  0  0  0  0  0  0  0
  137.2963   72.8639  220.7595 H   0  0  0  0  0  0  0  0  0  0  0  0
  136.5040   72.9560  222.7280 C   0  0  0  0  0  0  0  0  0  0  0  0
  136.0990   72.3670  223.7650 O   0  0  0  0  0  0  0  0  0  0  0  0
  136.4870   74.3840  222.6760 N   0  0  0  0  0  0  0  0  0  0  0  0
  135.9050   75.1950  223.7260 C   0  0  0  0  0  0  0  0  0  0  0  0
  136.3636   74.9558  224.6968 H   0  0  0  0  0  0  0  0  0  0  0  0
  134.8249   75.0159  223.8320 H   0  0  0  0  0  0  0  0  0  0  0  0
  136.2070   76.6380  223.3330 C   0  0  2  0  0  0  0  0  0  0  0  0
  137.0392   77.0561  223.9184 H   0  0  0  0  0  0  0  0  0  0  0  0
  135.1000   77.4630  223.5830 O   0  0  0  0  0  0  0  0  0  0  0  0
  134.3150   77.0100  223.1780 H   0  0  0  0  0  0  0  0  0  0  0  0
  136.5450   76.5960  221.8370 C   0  0  0  0  0  0  0  0  0  0  0  0
  137.3654   77.2929  221.6105 H   0  0  0  0  0  0  0  0  0  0  0  0
  135.6846   76.8949  221.2202 H   0  0  0  0  0  0  0  0  0  0  0  0
  136.9740   75.1540  221.5430 C   0  0  1  0  0  0  0  0  0  0  0  0
  136.5697   74.7987  220.5837 H   0  0  0  0  0  0  0  0  0  0  0  0
  138.4790   75.0370  221.4370 C   0  0  0  0  0  0  0  0  0  0  0  0
  138.9710   74.2410  220.5920 O   0  0  0  0  0  0  0  0  0  0  0  0
  139.3770   75.7840  222.2710 N   0  0  0  0  0  0  0  0  0  0  0  0
  140.3390   76.8010  221.8440 C   0  0  2  0  0  0  0  0  0  0  0  0
  139.8208   77.5511  221.2285 H   0  0  0  0  0  0  0  0  0  0  0  0
  141.4330   76.1520  221.0180 C   0  0  0  0  0  0  0  0  0  0  0  0
  141.7940   74.8050  221.2080 C   0  0  0  0  0  0  0  0  0  0  0  0
  141.2553   74.1926  221.9461 H   0  0  0  0  0  0  0  0  0  0  0  0
  142.8340   74.2420  220.4630 C   0  0  0  0  0  0  0  0  0  0  0  0
  143.1002   73.1842  220.6048 H   0  0  0  0  0  0  0  0  0  0  0  0
  143.5360   75.0190  219.5390 C   0  0  0  0  0  0  0  0  0  0  0  0
  144.3492   74.5715  218.9487 H   0  0  0  0  0  0  0  0  0  0  0  0
  143.2050   76.3640  219.3650 C   0  0  0  0  0  0  0  0  0  0  0  0
  143.7645   76.9789  218.6447 H   0  0  0  0  0  0  0  0  0  0  0  0
  142.1650   76.9290  220.1040 C   0  0  0  0  0  0  0  0  0  0  0  0
  141.9159   77.9920  219.9700 H   0  0  0  0  0  0  0  0  0  0  0  0
  140.9450   77.5130  223.0710 C   0  0  0  0  0  0  0  0  0  0  0  0
  140.2768   77.3707  223.9331 H   0  0  0  0  0  0  0  0  0  0  0  0
  141.9360   77.0782  223.2680 H   0  0  0  0  0  0  0  0  0  0  0  0
  141.1170   78.9900  222.8230 C   0  0  0  0  0  0  0  0  0  0  0  0
  139.9940   79.8030  222.5970 C   0  0  0  0  0  0  0  0  0  0  0  0
  138.9847   79.3679  222.6421 H   0  0  0  0  0  0  0  0  0  0  0  0
  140.1540   81.1630  222.3150 C   0  0  0  0  0  0  0  0  0  0  0  0
  139.2707   81.7977  222.1512 H   0  0  0  0  0  0  0  0  0  0  0  0
  141.4350   81.7170  222.2410 C   0  0  0  0  0  0  0  0  0  0  0  0
  141.5890   83.0340  221.9530 F   0  0  0  0  0  0  0  0  0  0  0  0
  142.5580   80.9130  222.4570 C   0  0  0  0  0  0  0  0  0  0  0  0
  143.5658   81.3497  222.3971 H   0  0  0  0  0  0  0  0  0  0  0  0
  142.4020   79.5550  222.7490 C   0  0  0  0  0  0  0  0  0  0  0  0
  143.2879   78.9262  222.9215 H   0  0  0  0  0  0  0  0  0  0  0  0
  139.2960   70.6890  223.9330 C   0  0  0  0  0  0  0  0  0  0  0  0
  139.8930   71.1500  225.0670 N   0  0  0  0  0  0  0  0  0  0  0  0
  140.1510   70.3440  226.1300 C   0  0  0  0  0  0  0  0  0  0  0  0
  140.7900   70.8590  227.2640 C   0  0  0  0  0  0  0  0  0  0  0  0
  141.0631   71.9237  227.3058 H   0  0  0  0  0  0  0  0  0  0  0  0
  141.0810   70.0190  228.3440 C   0  0  0  0  0  0  0  0  0  0  0  0
  141.5840   70.4245  229.2343 H   0  0  0  0  0  0  0  0  0  0  0  0
  140.7340   68.6640  228.2950 C   0  0  0  0  0  0  0  0  0  0  0  0
  141.0220   67.8540  229.3430 F   0  0  0  0  0  0  0  0  0  0  0  0
  140.0920   68.1420  227.1670 C   0  0  0  0  0  0  0  0  0  0  0  0
  139.8197   67.0768  227.1321 H   0  0  0  0  0  0  0  0  0  0  0  0
  139.7960   68.9780  226.0810 C   0  0  0  0  0  0  0  0  0  0  0  0
  139.1690   68.4850  224.9320 C   0  0  0  0  0  0  0  0  0  0  0  0
  138.8705   67.4276  224.8791 H   0  0  0  0  0  0  0  0  0  0  0  0
  138.9220   69.3350  223.8520 C   0  0  0  0  0  0  0  0  0  0  0  0
  138.4378   68.9483  222.9432 H   0  0  0  0  0  0  0  0  0  0  0  0
  1  2  1  0
  2  3  1  0
  3  4  2  0
  4  5  1  0
  5  6  1  0
  5  7  1  0
  5  8  1  0
  8  9  2  0
  8 10  1  0
 10 11  1  0
 11 12  1  0
 11 13  1  0
 11 14  1  0
 14 15  1  1
 14 16  1  0
 16 17  1  0
 14 18  1  0
 18 19  1  0
 18 20  1  0
 18 21  1  0
 21 22  1  6
 21 23  1  0
 23 24  2  0
 23 25  1  0
 25 26  1  0
 26 27  1  6
 26 28  1  0
 28 29  2  0
 29 30  1  0
 29 31  1  0
 31 32  1  0
 31 33  2  0
 33 34  1  0
 33 35  1  0
 35 36  1  0
 35 37  2  0
 37 38  1  0
 26 39  1  0
 39 40  1  0
 39 41  1  0
 39 42  1  0
 42 43  2  0
 43 44  1  0
 43 45  1  0
 45 46  1  0
 45 47  2  0
 47 48  1  0
 47 49  1  0
 49 50  1  0
 49 51  2  0
 51 52  1  0
  3 53  1  0
 53 54  2  0
 54 55  1  0
 55 56  2  0
 56 57  1  0
 56 58  1  0
 58 59  1  0
 58 60  2  0
 60 61  1  0
 60 62  1  0
 62 63  1  0
 62 64  2  0
 64 65  1  0
 65 66  1  0
 65 67  2  0
 67 68  1  0
 21 10  1  0
 37 28  1  0
 51 42  1  0
 67 53  1  0
 64 55  1  0
M  CHG  1  25  -1
M  END
>  <UniqueID>  (52) 
3

>  <SMILES>  (52) 
O=C([N-][C@@H](Cc1ccc(F)cc1)c1ccccc1)[C@@H]1C[C@@H](O)CN1C(=O)C/N=C(\O)c1ccc2cc(F)ccc2n1

>  <Energy>  (52) 
70.9291234150735

>  <Genealogy>  (52) 
O=C(NCC(=O)N1C[C@H](O)C[C@H]1C(=O)[N-][C@@H](Cc1ccc(F)cc1)c1ccccc1)c1ccc2cc(F)ccc2n1 (protonated)
O=C([N-][C@@H](Cc1ccc(F)cc1)c1ccccc1)[C@@H]1C[C@@H](O)CN1C(=O)CN=C(O)c1ccc2cc(F)ccc2n1 (tautomer)
O=C([N-][C@@H](Cc1ccc(F)cc1)c1ccccc1)[C@@H]1C[C@@H](O)CN1C(=O)C/N=C(\O)c1ccc2cc(F)ccc2n1 (cis-trans isomerization)
O=C([N-][C@@H](Cc1ccc(F)cc1)c1ccccc1)[C@@H]1C[C@@H](O)CN1C(=O)C/N=C(\O)c1ccc2cc(F)ccc2n1 (3D coordinates assigned)
O=C([N-][C@@H](Cc1ccc(F)cc1)c1ccccc1)[C@@H]1C[C@@H](O)CN1C(=O)C/N=C(\O)c1ccc2cc(F)ccc2n1 (nonaromatic ring conformer: 70.9291234150735 kcal/mol)

>  <smiles>  (52) 
O=C(NCC(=O)N1C[C@H](O)C[C@H]1C(=O)N[C@@H](Cc1ccc(F)cc1)c1ccccc1)c1ccc2cc(F)ccc2n1

>  <score_type>  (52) 
oracle

>  <origin>  (52) 
autodockgpu

>  <m_score__min__energy>  (52) 
-9.3499999999999996

>  <m_primary>  (52) 
energy

>  <meeko>  (52) 
{"free_energy": -8.33, "intermolecular_energy": -12.21, "internal_energy": -3.81, "cluster_size": 5, "cluster_id": 3, "rank_in_cluster": 3}

>  <energy>  (52) 
-7.85

>  <cluster_rmsd>  (52) 
1.45

>  <rmsd>  (52) 
270.78

>  <cluster>  (52) 
3

$$$$
XFBXCNWOYUAVIW-ZAPLKEHQNA-M
     RDKit          3D

 68 72  0  0  0  0  0  0  0  0999 V2000
  139.1920   74.2030  222.8080 H   0  0  0  0  0  0  0  0  0  0  0  0
  139.6640   73.3130  222.7250 O   0  0  0  0  0  0  0  0  0  0  0  0
  138.9980   72.0840  222.6950 C   0  0  0  0  0  0  0  0  0  0  0  0
  138.1430   71.7880  221.7560 N   0  0  0  0  0  0  0  0  0  0  0  0
  136.7220   71.5020  221.9350 C   0  0  0  0  0  0  0  0  0  0  0  0
  136.5479   71.1749  222.9707 H   0  0  0  0  0  0  0  0  0  0  0  0
  136.4305   70.7106  221.2288 H   0  0  0  0  0  0  0  0  0  0  0  0
  135.8940   72.7200  221.6590 C   0  0  0  0  0  0  0  0  0  0  0  0
  135.2360   72.8100  220.5900 O   0  0  0  0  0  0  0  0  0  0  0  0
  135.8540   73.7910  222.6050 N   0  0  0  0  0  0  0  0  0  0  0  0
  135.4540   73.5990  223.9840 C   0  0  0  0  0  0  0  0  0  0  0  0
  136.0757   72.8275  224.4617 H   0  0  0  0  0  0  0  0  0  0  0  0
  134.4102   73.2617  224.0652 H   0  0  0  0  0  0  0  0  0  0  0  0
  135.6690   74.9510  224.6570 C   0  0  2  0  0  0  0  0  0  0  0  0
  136.5855   74.9649  225.2651 H   0  0  0  0  0  0  0  0  0  0  0  0
  134.6130   75.2420  225.5340 O   0  0  0  0  0  0  0  0  0  0  0  0
  134.5920   76.2300  225.6310 H   0  0  0  0  0  0  0  0  0  0  0  0
  135.7440   75.9730  223.5150 C   0  0  0  0  0  0  0  0  0  0  0  0
  136.5059   76.7356  223.7337 H   0  0  0  0  0  0  0  0  0  0  0  0
  134.7869   76.4982  223.3802 H   0  0  0  0  0  0  0  0  0  0  0  0
  136.1300   75.1780  222.2630 C   0  0  1  0  0  0  0  0  0  0  0  0
  135.5696   75.5166  221.3791 H   0  0  0  0  0  0  0  0  0  0  0  0
  137.5950   75.3540  221.9280 C   0  0  0  0  0  0  0  0  0  0  0  0
  138.1000   74.6510  221.0120 O   0  0  0  0  0  0  0  0  0  0  0  0
  138.4440   76.2800  222.6210 N   0  0  0  0  0  0  0  0  0  0  0  0
  139.8520   76.5650  222.3430 C   0  0  2  0  0  0  0  0  0  0  0  0
  140.4779   75.8178  222.8528 H   0  0  0  0  0  0  0  0  0  0  0  0
  140.2050   77.9450  222.8630 C   0  0  0  0  0  0  0  0  0  0  0  0
  139.2140   78.9170  223.0930 C   0  0  0  0  0  0  0  0  0  0  0  0
  138.1554   78.6696  222.9251 H   0  0  0  0  0  0  0  0  0  0  0  0
  139.5680   80.1960  223.5340 C   0  0  0  0  0  0  0  0  0  0  0  0
  138.7868   80.9456  223.7284 H   0  0  0  0  0  0  0  0  0  0  0  0
  140.9120   80.5230  223.7280 C   0  0  0  0  0  0  0  0  0  0  0  0
  141.1879   81.5273  224.0819 H   0  0  0  0  0  0  0  0  0  0  0  0
  141.9050   79.5760  223.4730 C   0  0  0  0  0  0  0  0  0  0  0  0
  142.9639   79.8376  223.6157 H   0  0  0  0  0  0  0  0  0  0  0  0
  141.5550   78.2970  223.0370 C   0  0  0  0  0  0  0  0  0  0  0  0
  142.3424   77.5579  222.8277 H   0  0  0  0  0  0  0  0  0  0  0  0
  140.1260   76.4780  220.8270 C   0  0  0  0  0  0  0  0  0  0  0  0
  139.3243   75.8938  220.3516 H   0  0  0  0  0  0  0  0  0  0  0  0
  140.1576   77.5004  220.4223 H   0  0  0  0  0  0  0  0  0  0  0  0
  141.4500   75.8150  220.5430 C   0  0  0  0  0  0  0  0  0  0  0  0
  141.6870   74.4990  220.9730 C   0  0  0  0  0  0  0  0  0  0  0  0
  140.8900   73.9368  221.4816 H   0  0  0  0  0  0  0  0  0  0  0  0
  142.9320   73.9010  220.7570 C   0  0  0  0  0  0  0  0  0  0  0  0
  143.1086   72.8662  221.0857 H   0  0  0  0  0  0  0  0  0  0  0  0
  143.9530   74.6160  220.1240 C   0  0  0  0  0  0  0  0  0  0  0  0
  145.1640   74.0380  219.9270 F   0  0  0  0  0  0  0  0  0  0  0  0
  143.7270   75.9280  219.6990 C   0  0  0  0  0  0  0  0  0  0  0  0
  144.5310   76.4902  219.2016 H   0  0  0  0  0  0  0  0  0  0  0  0
  142.4810   76.5270  219.9050 C   0  0  0  0  0  0  0  0  0  0  0  0
  142.3064   77.5591  219.5668 H   0  0  0  0  0  0  0  0  0  0  0  0
  139.2700   71.1180  223.7770 C   0  0  0  0  0  0  0  0  0  0  0  0
  139.8410   71.5630  224.9300 N   0  0  0  0  0  0  0  0  0  0  0  0
  140.1110   70.7350  225.9730 C   0  0  0  0  0  0  0  0  0  0  0  0
  140.7220   71.2340  227.1290 C   0  0  0  0  0  0  0  0  0  0  0  0
  140.9631   72.3045  227.2052 H   0  0  0  0  0  0  0  0  0  0  0  0
  141.0260   70.3720  228.1870 C   0  0  0  0  0  0  0  0  0  0  0  0
  141.5064   70.7662  229.0946 H   0  0  0  0  0  0  0  0  0  0  0  0
  140.7210   69.0090  228.0950 C   0  0  0  0  0  0  0  0  0  0  0  0
  141.0220   68.1780  229.1220 F   0  0  0  0  0  0  0  0  0  0  0  0
  140.1070   68.5010  226.9440 C   0  0  0  0  0  0  0  0  0  0  0  0
  139.8674   67.4297  226.8746 H   0  0  0  0  0  0  0  0  0  0  0  0
  139.7980   69.3600  225.8800 C   0  0  0  0  0  0  0  0  0  0  0  0
  139.2000   68.8820  224.7090 C   0  0  0  0  0  0  0  0  0  0  0  0
  138.9355   67.8179  224.6211 H   0  0  0  0  0  0  0  0  0  0  0  0
  138.9390   69.7560  223.6520 C   0  0  0  0  0  0  0  0  0  0  0  0
  138.4771   69.3819  222.7264 H   0  0  0  0  0  0  0  0  0  0  0  0
  1  2  1  0
  2  3  1  0
  3  4  2  0
  4  5  1  0
  5  6  1  0
  5  7  1  0
  5  8  1  0
  8  9  2  0
  8 10  1  0
 10 11  1  0
 11 12  1  0
 11 13  1  0
 11 14  1  0
 14 15  1  1
 14 16  1  0
 16 17  1  0
 14 18  1  0
 18 19  1  0
 18 20  1  0
 18 21  1  0
 21 22  1  6
 21 23  1  0
 23 24  2  0
 23 25  1  0
 25 26  1  0
 26 27  1  1
 26 28  1  0
 28 29  2  0
 29 30  1  0
 29 31  1  0
 31 32  1  0
 31 33  2  0
 33 34  1  0
 33 35  1  0
 35 36  1  0
 35 37  2  0
 37 38  1  0
 26 39  1  0
 39 40  1  0
 39 41  1  0
 39 42  1  0
 42 43  2  0
 43 44  1  0
 43 45  1  0
 45 46  1  0
 45 47  2  0
 47 48  1  0
 47 49  1  0
 49 50  1  0
 49 51  2  0
 51 52  1  0
  3 53  1  0
 53 54  2  0
 54 55  1  0
 55 56  2  0
 56 57  1  0
 56 58  1  0
 58 59  1  0
 58 60  2  0
 60 61  1  0
 60 62  1  0
 62 63  1  0
 62 64  2  0
 64 65  1  0
 65 66  1  0
 65 67  2  0
 67 68  1  0
 21 10  1  0
 37 28  1  0
 51 42  1  0
 67 53  1  0
 64 55  1  0
M  CHG  1  25  -1
M  END
>  <UniqueID>  (53) 
3

>  <SMILES>  (53) 
O=C([N-][C@@H](Cc1ccc(F)cc1)c1ccccc1)[C@@H]1C[C@@H](O)CN1C(=O)C/N=C(\O)c1ccc2cc(F)ccc2n1

>  <Energy>  (53) 
70.9291234150735

>  <Genealogy>  (53) 
O=C(NCC(=O)N1C[C@H](O)C[C@H]1C(=O)[N-][C@@H](Cc1ccc(F)cc1)c1ccccc1)c1ccc2cc(F)ccc2n1 (protonated)
O=C([N-][C@@H](Cc1ccc(F)cc1)c1ccccc1)[C@@H]1C[C@@H](O)CN1C(=O)CN=C(O)c1ccc2cc(F)ccc2n1 (tautomer)
O=C([N-][C@@H](Cc1ccc(F)cc1)c1ccccc1)[C@@H]1C[C@@H](O)CN1C(=O)C/N=C(\O)c1ccc2cc(F)ccc2n1 (cis-trans isomerization)
O=C([N-][C@@H](Cc1ccc(F)cc1)c1ccccc1)[C@@H]1C[C@@H](O)CN1C(=O)C/N=C(\O)c1ccc2cc(F)ccc2n1 (3D coordinates assigned)
O=C([N-][C@@H](Cc1ccc(F)cc1)c1ccccc1)[C@@H]1C[C@@H](O)CN1C(=O)C/N=C(\O)c1ccc2cc(F)ccc2n1 (nonaromatic ring conformer: 70.9291234150735 kcal/mol)

>  <smiles>  (53) 
O=C(NCC(=O)N1C[C@H](O)C[C@H]1C(=O)N[C@@H](Cc1ccc(F)cc1)c1ccccc1)c1ccc2cc(F)ccc2n1

>  <score_type>  (53) 
oracle

>  <origin>  (53) 
autodockgpu

>  <m_score__min__energy>  (53) 
-9.3499999999999996

>  <m_primary>  (53) 
energy

>  <meeko>  (53) 
{"free_energy": -8.58, "intermolecular_energy": -12.46, "internal_energy": -3.88, "cluster_size": 5, "cluster_id": 3, "rank_in_cluster": 1}

>  <energy>  (53) 
-8.35

>  <cluster_rmsd>  (53) 
0.0

>  <rmsd>  (53) 
270.92

>  <cluster>  (53) 
4

$$$$
XFBXCNWOYUAVIW-ZAPLKEHQNA-M
     RDKit          3D

 68 72  0  0  0  0  0  0  0  0999 V2000
  139.1720   73.8890  222.7660 H   0  0  0  0  0  0  0  0  0  0  0  0
  138.6750   74.6140  222.2680 O   0  0  0  0  0  0  0  0  0  0  0  0
  139.2050   75.3030  221.1730 C   0  0  0  0  0  0  0  0  0  0  0  0
  139.0320   74.8860  219.9490 N   0  0  0  0  0  0  0  0  0  0  0  0
  138.9450   73.4960  219.5110 C   0  0  0  0  0  0  0  0  0  0  0  0
  138.1143   73.3945  218.7972 H   0  0  0  0  0  0  0  0  0  0  0  0
  138.7741   72.8596  220.3918 H   0  0  0  0  0  0  0  0  0  0  0  0
  140.2170   73.0650  218.8480 C   0  0  0  0  0  0  0  0  0  0  0  0
  140.2000   72.6230  217.6690 O   0  0  0  0  0  0  0  0  0  0  0  0
  141.4580   73.1470  219.5520 N   0  0  0  0  0  0  0  0  0  0  0  0
  142.3960   74.2340  219.3550 C   0  0  0  0  0  0  0  0  0  0  0  0
  141.9073   75.2026  219.5365 H   0  0  0  0  0  0  0  0  0  0  0  0
  142.7826   74.2611  218.3255 H   0  0  0  0  0  0  0  0  0  0  0  0
  143.5060   73.9960  220.3740 C   0  0  2  0  0  0  0  0  0  0  0  0
  143.4140   74.6651  221.2423 H   0  0  0  0  0  0  0  0  0  0  0  0
  144.7640   74.2590  219.8100 O   0  0  0  0  0  0  0  0  0  0  0  0
  144.6130   74.9150  219.0800 H   0  0  0  0  0  0  0  0  0  0  0  0
  143.3770   72.5250  220.7900 C   0  0  0  0  0  0  0  0  0  0  0  0
  143.5727   72.4134  221.8667 H   0  0  0  0  0  0  0  0  0  0  0  0
  144.1026   71.8906  220.2599 H   0  0  0  0  0  0  0  0  0  0  0  0
  141.9350   72.1210  220.4660 C   0  0  1  0  0  0  0  0  0  0  0  0
  141.8851   71.1111  220.0329 H   0  0  0  0  0  0  0  0  0  0  0  0
  141.0780   72.0910  221.7130 C   0  0  0  0  0  0  0  0  0  0  0  0
  140.8670   73.1670  222.3350 O   0  0  0  0  0  0  0  0  0  0  0  0
  140.5050   70.8820  222.2330 N   0  0  0  0  0  0  0  0  0  0  0  0
  139.6570   70.7450  223.4170 C   0  0  2  0  0  0  0  0  0  0  0  0
  139.5747   69.6798  223.6791 H   0  0  0  0  0  0  0  0  0  0  0  0
  138.2730   71.2900  223.1190 C   0  0  0  0  0  0  0  0  0  0  0  0
  137.3320   71.4990  224.1450 C   0  0  0  0  0  0  0  0  0  0  0  0
  137.6073   71.2965  225.1906 H   0  0  0  0  0  0  0  0  0  0  0  0
  136.0490   71.9630  223.8400 C   0  0  0  0  0  0  0  0  0  0  0  0
  135.3235   72.1403  224.6476 H   0  0  0  0  0  0  0  0  0  0  0  0
  135.6860   72.2020  222.5130 C   0  0  0  0  0  0  0  0  0  0  0  0
  134.6783   72.5743  222.2764 H   0  0  0  0  0  0  0  0  0  0  0  0
  136.6030   71.9680  221.4870 C   0  0  0  0  0  0  0  0  0  0  0  0
  136.3138   72.1457  220.4407 H   0  0  0  0  0  0  0  0  0  0  0  0
  137.8860   71.5090  221.7870 C   0  0  0  0  0  0  0  0  0  0  0  0
  138.6006   71.3170  220.9730 H   0  0  0  0  0  0  0  0  0  0  0  0
  140.2820   71.4930  224.6130 C   0  0  0  0  0  0  0  0  0  0  0  0
  141.2592   71.8973  224.3105 H   0  0  0  0  0  0  0  0  0  0  0  0
  139.5981   72.3019  224.9095 H   0  0  0  0  0  0  0  0  0  0  0  0
  140.4750   70.5800  225.7960 C   0  0  0  0  0  0  0  0  0  0  0  0
  140.1960   69.2080  225.6810 C   0  0  0  0  0  0  0  0  0  0  0  0
  139.8758   68.7929  224.7140 H   0  0  0  0  0  0  0  0  0  0  0  0
  140.3240   68.3680  226.7920 C   0  0  0  0  0  0  0  0  0  0  0  0
  140.1157   67.2923  226.6941 H   0  0  0  0  0  0  0  0  0  0  0  0
  140.7160   68.8930  228.0260 C   0  0  0  0  0  0  0  0  0  0  0  0
  140.8270   68.0790  229.1060 F   0  0  0  0  0  0  0  0  0  0  0  0
  140.9890   70.2590  228.1500 C   0  0  0  0  0  0  0  0  0  0  0  0
  141.2961   70.6719  229.1222 H   0  0  0  0  0  0  0  0  0  0  0  0
  140.8720   71.1000  227.0400 C   0  0  0  0  0  0  0  0  0  0  0  0
  141.0915   72.1732  227.1403 H   0  0  0  0  0  0  0  0  0  0  0  0
  139.9960   76.5220  221.4330 C   0  0  0  0  0  0  0  0  0  0  0  0
  139.5390   77.4210  222.3470 N   0  0  0  0  0  0  0  0  0  0  0  0
  140.2170   78.5600  222.6470 C   0  0  0  0  0  0  0  0  0  0  0  0
  139.6940   79.4670  223.5760 C   0  0  0  0  0  0  0  0  0  0  0  0
  138.7429   79.2479  224.0834 H   0  0  0  0  0  0  0  0  0  0  0  0
  140.3810   80.6520  223.8590 C   0  0  0  0  0  0  0  0  0  0  0  0
  139.9691   81.3636  224.5898 H   0  0  0  0  0  0  0  0  0  0  0  0
  141.5910   80.9350  223.2150 C   0  0  0  0  0  0  0  0  0  0  0  0
  142.2510   82.0870  223.4900 F   0  0  0  0  0  0  0  0  0  0  0  0
  142.1240   80.0320  222.2880 C   0  0  0  0  0  0  0  0  0  0  0  0
  143.0766   80.2559  221.7855 H   0  0  0  0  0  0  0  0  0  0  0  0
  141.4410   78.8410  222.0010 C   0  0  0  0  0  0  0  0  0  0  0  0
  141.9370   77.9250  221.0660 C   0  0  0  0  0  0  0  0  0  0  0  0
  142.8950   78.1177  220.5610 H   0  0  0  0  0  0  0  0  0  0  0  0
  141.2140   76.7660  220.7750 C   0  0  0  0  0  0  0  0  0  0  0  0
  141.5958   76.0477  220.0346 H   0  0  0  0  0  0  0  0  0  0  0  0
  1  2  1  0
  2  3  1  0
  3  4  2  0
  4  5  1  0
  5  6  1  0
  5  7  1  0
  5  8  1  0
  8  9  2  0
  8 10  1  0
 10 11  1  0
 11 12  1  0
 11 13  1  0
 11 14  1  0
 14 15  1  1
 14 16  1  0
 16 17  1  0
 14 18  1  0
 18 19  1  0
 18 20  1  0
 18 21  1  0
 21 22  1  6
 21 23  1  0
 23 24  2  0
 23 25  1  0
 25 26  1  0
 26 27  1  1
 26 28  1  0
 28 29  2  0
 29 30  1  0
 29 31  1  0
 31 32  1  0
 31 33  2  0
 33 34  1  0
 33 35  1  0
 35 36  1  0
 35 37  2  0
 37 38  1  0
 26 39  1  0
 39 40  1  0
 39 41  1  0
 39 42  1  0
 42 43  2  0
 43 44  1  0
 43 45  1  0
 45 46  1  0
 45 47  2  0
 47 48  1  0
 47 49  1  0
 49 50  1  0
 49 51  2  0
 51 52  1  0
  3 53  1  0
 53 54  2  0
 54 55  1  0
 55 56  2  0
 56 57  1  0
 56 58  1  0
 58 59  1  0
 58 60  2  0
 60 61  1  0
 60 62  1  0
 62 63  1  0
 62 64  2  0
 64 65  1  0
 65 66  1  0
 65 67  2  0
 67 68  1  0
 21 10  1  0
 37 28  1  0
 51 42  1  0
 67 53  1  0
 64 55  1  0
M  CHG  1  25  -1
M  END
>  <UniqueID>  (54) 
3

>  <SMILES>  (54) 
O=C([N-][C@@H](Cc1ccc(F)cc1)c1ccccc1)[C@@H]1C[C@@H](O)CN1C(=O)C/N=C(\O)c1ccc2cc(F)ccc2n1

>  <Energy>  (54) 
70.9291234150735

>  <Genealogy>  (54) 
O=C(NCC(=O)N1C[C@H](O)C[C@H]1C(=O)[N-][C@@H](Cc1ccc(F)cc1)c1ccccc1)c1ccc2cc(F)ccc2n1 (protonated)
O=C([N-][C@@H](Cc1ccc(F)cc1)c1ccccc1)[C@@H]1C[C@@H](O)CN1C(=O)CN=C(O)c1ccc2cc(F)ccc2n1 (tautomer)
O=C([N-][C@@H](Cc1ccc(F)cc1)c1ccccc1)[C@@H]1C[C@@H](O)CN1C(=O)C/N=C(\O)c1ccc2cc(F)ccc2n1 (cis-trans isomerization)
O=C([N-][C@@H](Cc1ccc(F)cc1)c1ccccc1)[C@@H]1C[C@@H](O)CN1C(=O)C/N=C(\O)c1ccc2cc(F)ccc2n1 (3D coordinates assigned)
O=C([N-][C@@H](Cc1ccc(F)cc1)c1ccccc1)[C@@H]1C[C@@H](O)CN1C(=O)C/N=C(\O)c1ccc2cc(F)ccc2n1 (nonaromatic ring conformer: 70.9291234150735 kcal/mol)

>  <smiles>  (54) 
O=C(NCC(=O)N1C[C@H](O)C[C@H]1C(=O)N[C@@H](Cc1ccc(F)cc1)c1ccccc1)c1ccc2cc(F)ccc2n1

>  <score_type>  (54) 
oracle

>  <origin>  (54) 
autodockgpu

>  <m_score__min__energy>  (54) 
-9.3499999999999996

>  <m_primary>  (54) 
energy

>  <meeko>  (54) 
{"free_energy": -7.69, "intermolecular_energy": -11.57, "internal_energy": -3.84, "cluster_size": 5, "cluster_id": 1, "rank_in_cluster": 5}

>  <energy>  (54) 
-8.17

>  <cluster_rmsd>  (54) 
0.0

>  <rmsd>  (54) 
271.57

>  <cluster>  (54) 
5

$$$$
XFBXCNWOYUAVIW-ZAPLKEHQNA-M
     RDKit          3D

 68 72  0  0  0  0  0  0  0  0999 V2000
  138.8800   73.9070  222.8200 H   0  0  0  0  0  0  0  0  0  0  0  0
  138.2910   74.4780  222.2300 O   0  0  0  0  0  0  0  0  0  0  0  0
  138.7810   75.4840  221.3910 C   0  0  0  0  0  0  0  0  0  0  0  0
  138.9280   75.2980  220.1090 N   0  0  0  0  0  0  0  0  0  0  0  0
  139.8090   74.3230  219.4700 C   0  0  0  0  0  0  0  0  0  0  0  0
  139.5434   74.2402  218.4058 H   0  0  0  0  0  0  0  0  0  0  0  0
  139.6841   73.3527  219.9728 H   0  0  0  0  0  0  0  0  0  0  0  0
  141.2420   74.7430  219.5870 C   0  0  0  0  0  0  0  0  0  0  0  0
  141.6000   75.8900  219.2120 O   0  0  0  0  0  0  0  0  0  0  0  0
  142.2140   73.8390  220.1180 N   0  0  0  0  0  0  0  0  0  0  0  0
  143.6350   74.1230  220.0990 C   0  0  0  0  0  0  0  0  0  0  0  0
  143.8433   75.0816  220.5967 H   0  0  0  0  0  0  0  0  0  0  0  0
  144.0235   74.2068  219.0733 H   0  0  0  0  0  0  0  0  0  0  0  0
  144.2840   72.9720  220.8620 C   0  0  2  0  0  0  0  0  0  0  0  0
  144.5685   73.2661  221.8831 H   0  0  0  0  0  0  0  0  0  0  0  0
  145.4680   72.5620  220.2280 O   0  0  0  0  0  0  0  0  0  0  0  0
  145.8940   71.8980  220.8310 H   0  0  0  0  0  0  0  0  0  0  0  0
  143.2410   71.8470  220.8790 C   0  0  0  0  0  0  0  0  0  0  0  0
  143.2517   71.3299  221.8498 H   0  0  0  0  0  0  0  0  0  0  0  0
  143.4485   71.0921  220.1063 H   0  0  0  0  0  0  0  0  0  0  0  0
  141.8860   72.5270  220.6520 C   0  0  1  0  0  0  0  0  0  0  0  0
  141.2472   71.9415  219.9744 H   0  0  0  0  0  0  0  0  0  0  0  0
  141.1150   72.6650  221.9470 C   0  0  0  0  0  0  0  0  0  0  0  0
  140.7840   73.8150  222.3400 O   0  0  0  0  0  0  0  0  0  0  0  0
  140.7550   71.5380  222.7600 N   0  0  0  0  0  0  0  0  0  0  0  0
  139.6300   71.4450  223.6920 C   0  0  2  0  0  0  0  0  0  0  0  0
  139.1804   72.4414  223.8145 H   0  0  0  0  0  0  0  0  0  0  0  0
  140.1240   70.9560  225.0390 C   0  0  0  0  0  0  0  0  0  0  0  0
  139.9430   69.6200  225.4440 C   0  0  0  0  0  0  0  0  0  0  0  0
  139.4637   68.9015  224.7628 H   0  0  0  0  0  0  0  0  0  0  0  0
  140.3700   69.2020  226.7090 C   0  0  0  0  0  0  0  0  0  0  0  0
  140.2409   68.1529  227.0133 H   0  0  0  0  0  0  0  0  0  0  0  0
  140.9600   70.1150  227.5860 C   0  0  0  0  0  0  0  0  0  0  0  0
  141.3028   69.7824  228.5769 H   0  0  0  0  0  0  0  0  0  0  0  0
  141.1150   71.4490  227.2060 C   0  0  0  0  0  0  0  0  0  0  0  0
  141.5689   72.1700  227.9018 H   0  0  0  0  0  0  0  0  0  0  0  0
  140.6940   71.8680  225.9430 C   0  0  0  0  0  0  0  0  0  0  0  0
  140.8096   72.9226  225.6525 H   0  0  0  0  0  0  0  0  0  0  0  0
  138.5530   70.4910  223.1370 C   0  0  0  0  0  0  0  0  0  0  0  0
  138.4630   70.6461  222.0517 H   0  0  0  0  0  0  0  0  0  0  0  0
  138.8582   69.4582  223.3609 H   0  0  0  0  0  0  0  0  0  0  0  0
  137.2120   70.7380  223.7800 C   0  0  0  0  0  0  0  0  0  0  0  0
  136.5700   71.9770  223.6180 C   0  0  0  0  0  0  0  0  0  0  0  0
  137.0273   72.7530  222.9866 H   0  0  0  0  0  0  0  0  0  0  0  0
  135.3510   72.2270  224.2570 C   0  0  0  0  0  0  0  0  0  0  0  0
  134.8460   73.1942  224.1176 H   0  0  0  0  0  0  0  0  0  0  0  0
  134.7740   71.2500  225.0720 C   0  0  0  0  0  0  0  0  0  0  0  0
  133.5980   71.4990  225.7020 F   0  0  0  0  0  0  0  0  0  0  0  0
  135.4100   70.0170  225.2430 C   0  0  0  0  0  0  0  0  0  0  0  0
  134.9550   69.2487  225.8854 H   0  0  0  0  0  0  0  0  0  0  0  0
  136.6230   69.7590  224.5990 C   0  0  0  0  0  0  0  0  0  0  0  0
  137.1188   68.7863  224.7334 H   0  0  0  0  0  0  0  0  0  0  0  0
  139.1540   76.7770  221.9970 C   0  0  0  0  0  0  0  0  0  0  0  0
  140.4510   77.1850  221.9320 N   0  0  0  0  0  0  0  0  0  0  0  0
  140.8660   78.3680  222.4580 C   0  0  0  0  0  0  0  0  0  0  0  0
  142.2150   78.7330  222.3890 C   0  0  0  0  0  0  0  0  0  0  0  0
  142.9384   78.0732  221.8877 H   0  0  0  0  0  0  0  0  0  0  0  0
  142.6440   79.9380  222.9580 C   0  0  0  0  0  0  0  0  0  0  0  0
  143.7046   80.2243  222.9027 H   0  0  0  0  0  0  0  0  0  0  0  0
  141.7260   80.7790  223.5970 C   0  0  0  0  0  0  0  0  0  0  0  0
  142.1470   81.9430  224.1500 F   0  0  0  0  0  0  0  0  0  0  0  0
  140.3740   80.4240  223.6670 C   0  0  0  0  0  0  0  0  0  0  0  0
  139.6548   81.0891  224.1675 H   0  0  0  0  0  0  0  0  0  0  0  0
  139.9380   79.2190  223.0980 C   0  0  0  0  0  0  0  0  0  0  0  0
  138.5970   78.8260  223.1650 C   0  0  0  0  0  0  0  0  0  0  0  0
  137.8550   79.4805  223.6457 H   0  0  0  0  0  0  0  0  0  0  0  0
  138.2010   77.6020  222.6210 C   0  0  0  0  0  0  0  0  0  0  0  0
  137.1494   77.2849  222.6803 H   0  0  0  0  0  0  0  0  0  0  0  0
  1  2  1  0
  2  3  1  0
  3  4  2  0
  4  5  1  0
  5  6  1  0
  5  7  1  0
  5  8  1  0
  8  9  2  0
  8 10  1  0
 10 11  1  0
 11 12  1  0
 11 13  1  0
 11 14  1  0
 14 15  1  1
 14 16  1  0
 16 17  1  0
 14 18  1  0
 18 19  1  0
 18 20  1  0
 18 21  1  0
 21 22  1  6
 21 23  1  0
 23 24  2  0
 23 25  1  0
 25 26  1  0
 26 27  1  1
 26 28  1  0
 28 29  2  0
 29 30  1  0
 29 31  1  0
 31 32  1  0
 31 33  2  0
 33 34  1  0
 33 35  1  0
 35 36  1  0
 35 37  2  0
 37 38  1  0
 26 39  1  0
 39 40  1  0
 39 41  1  0
 39 42  1  0
 42 43  2  0
 43 44  1  0
 43 45  1  0
 45 46  1  0
 45 47  2  0
 47 48  1  0
 47 49  1  0
 49 50  1  0
 49 51  2  0
 51 52  1  0
  3 53  1  0
 53 54  2  0
 54 55  1  0
 55 56  2  0
 56 57  1  0
 56 58  1  0
 58 59  1  0
 58 60  2  0
 60 61  1  0
 60 62  1  0
 62 63  1  0
 62 64  2  0
 64 65  1  0
 65 66  1  0
 65 67  2  0
 67 68  1  0
 21 10  1  0
 37 28  1  0
 51 42  1  0
 67 53  1  0
 64 55  1  0
M  CHG  1  25  -1
M  END
>  <UniqueID>  (55) 
3

>  <SMILES>  (55) 
O=C([N-][C@@H](Cc1ccc(F)cc1)c1ccccc1)[C@@H]1C[C@@H](O)CN1C(=O)C/N=C(\O)c1ccc2cc(F)ccc2n1

>  <Energy>  (55) 
70.9291234150735

>  <Genealogy>  (55) 
O=C(NCC(=O)N1C[C@H](O)C[C@H]1C(=O)[N-][C@@H](Cc1ccc(F)cc1)c1ccccc1)c1ccc2cc(F)ccc2n1 (protonated)
O=C([N-][C@@H](Cc1ccc(F)cc1)c1ccccc1)[C@@H]1C[C@@H](O)CN1C(=O)CN=C(O)c1ccc2cc(F)ccc2n1 (tautomer)
O=C([N-][C@@H](Cc1ccc(F)cc1)c1ccccc1)[C@@H]1C[C@@H](O)CN1C(=O)C/N=C(\O)c1ccc2cc(F)ccc2n1 (cis-trans isomerization)
O=C([N-][C@@H](Cc1ccc(F)cc1)c1ccccc1)[C@@H]1C[C@@H](O)CN1C(=O)C/N=C(\O)c1ccc2cc(F)ccc2n1 (3D coordinates assigned)
O=C([N-][C@@H](Cc1ccc(F)cc1)c1ccccc1)[C@@H]1C[C@@H](O)CN1C(=O)C/N=C(\O)c1ccc2cc(F)ccc2n1 (nonaromatic ring conformer: 70.9291234150735 kcal/mol)

>  <smiles>  (55) 
O=C(NCC(=O)N1C[C@H](O)C[C@H]1C(=O)N[C@@H](Cc1ccc(F)cc1)c1ccccc1)c1ccc2cc(F)ccc2n1

>  <score_type>  (55) 
oracle

>  <origin>  (55) 
autodockgpu

>  <m_score__min__energy>  (55) 
-9.3499999999999996

>  <m_primary>  (55) 
energy

>  <meeko>  (55) 
{"free_energy": -8.85, "intermolecular_energy": -12.73, "internal_energy": -3.42, "cluster_size": 2, "cluster_id": 2, "rank_in_cluster": 1}

>  <energy>  (55) 
-8.01

>  <cluster_rmsd>  (55) 
0.0

>  <rmsd>  (55) 
270.46

>  <cluster>  (55) 
6

$$$$
XFBXCNWOYUAVIW-ZAPLKEHQNA-M
     RDKit          3D

 68 72  0  0  0  0  0  0  0  0999 V2000
  139.0360   74.0580  222.8130 H   0  0  0  0  0  0  0  0  0  0  0  0
  138.5240   74.7850  222.3340 O   0  0  0  0  0  0  0  0  0  0  0  0
  139.0750   75.5800  221.3230 C   0  0  0  0  0  0  0  0  0  0  0  0
  139.0010   75.2420  220.0660 N   0  0  0  0  0  0  0  0  0  0  0  0
  139.9520   74.4080  219.3350 C   0  0  0  0  0  0  0  0  0  0  0  0
  139.6220   74.3164  218.2897 H   0  0  0  0  0  0  0  0  0  0  0  0
  139.9918   73.4178  219.8125 H   0  0  0  0  0  0  0  0  0  0  0  0
  141.3230   75.0110  219.3660 C   0  0  0  0  0  0  0  0  0  0  0  0
  141.5200   76.1640  218.9000 O   0  0  0  0  0  0  0  0  0  0  0  0
  142.4190   74.2760  219.9160 N   0  0  0  0  0  0  0  0  0  0  0  0
  143.7380   74.8520  220.0840 C   0  0  0  0  0  0  0  0  0  0  0  0
  143.6841   75.7688  220.6895 H   0  0  0  0  0  0  0  0  0  0  0  0
  144.1889   75.1334  219.1209 H   0  0  0  0  0  0  0  0  0  0  0  0
  144.5540   73.7830  220.8040 C   0  0  2  0  0  0  0  0  0  0  0  0
  144.6744   74.0103  221.8735 H   0  0  0  0  0  0  0  0  0  0  0  0
  145.8500   73.7070  220.2730 O   0  0  0  0  0  0  0  0  0  0  0  0
  145.9680   74.5110  219.7030 H   0  0  0  0  0  0  0  0  0  0  0  0
  143.7870   72.4700  220.5990 C   0  0  0  0  0  0  0  0  0  0  0  0
  143.8237   71.8590  221.5130 H   0  0  0  0  0  0  0  0  0  0  0  0
  144.2249   71.8695  219.7880 H   0  0  0  0  0  0  0  0  0  0  0  0
  142.3420   72.8710  220.2840 C   0  0  1  0  0  0  0  0  0  0  0  0
  141.9125   72.2469  219.4865 H   0  0  0  0  0  0  0  0  0  0  0  0
  141.4460   72.6930  221.4900 C   0  0  0  0  0  0  0  0  0  0  0  0
  141.0530   73.7150  222.1150 O   0  0  0  0  0  0  0  0  0  0  0  0
  141.0330   71.4040  221.9680 N   0  0  0  0  0  0  0  0  0  0  0  0
  140.1590   71.1220  223.1070 C   0  0  2  0  0  0  0  0  0  0  0  0
  140.1760   70.0420  223.3153 H   0  0  0  0  0  0  0  0  0  0  0  0
  138.7390   71.5410  222.7750 C   0  0  0  0  0  0  0  0  0  0  0  0
  137.7190   71.5030  223.7440 C   0  0  0  0  0  0  0  0  0  0  0  0
  137.9531   71.1942  224.7735 H   0  0  0  0  0  0  0  0  0  0  0  0
  136.4090   71.8560  223.4040 C   0  0  0  0  0  0  0  0  0  0  0  0
  135.6197   71.8414  224.1700 H   0  0  0  0  0  0  0  0  0  0  0  0
  136.1020   72.2270  222.0930 C   0  0  0  0  0  0  0  0  0  0  0  0
  135.0728   72.5115  221.8290 H   0  0  0  0  0  0  0  0  0  0  0  0
  137.1000   72.2370  221.1180 C   0  0  0  0  0  0  0  0  0  0  0  0
  136.8547   72.5178  220.0831 H   0  0  0  0  0  0  0  0  0  0  0  0
  138.4090   71.8910  221.4550 C   0  0  0  0  0  0  0  0  0  0  0  0
  139.1897   71.8923  220.6801 H   0  0  0  0  0  0  0  0  0  0  0  0
  140.6580   71.8670  224.3620 C   0  0  0  0  0  0  0  0  0  0  0  0
  141.7042   72.1688  224.2062 H   0  0  0  0  0  0  0  0  0  0  0  0
  140.0162   72.7464  224.5195 H   0  0  0  0  0  0  0  0  0  0  0  0
  140.5770   70.9960  225.5900 C   0  0  0  0  0  0  0  0  0  0  0  0
  140.7930   71.5500  226.8620 C   0  0  0  0  0  0  0  0  0  0  0  0
  140.9809   72.6289  226.9655 H   0  0  0  0  0  0  0  0  0  0  0  0
  140.7700   70.7340  227.9980 C   0  0  0  0  0  0  0  0  0  0  0  0
  140.9278   71.1742  228.9936 H   0  0  0  0  0  0  0  0  0  0  0  0
  140.5470   69.3610  227.8700 C   0  0  0  0  0  0  0  0  0  0  0  0
  140.5390   68.5690  228.9720 F   0  0  0  0  0  0  0  0  0  0  0  0
  140.3380   68.8010  226.6060 C   0  0  0  0  0  0  0  0  0  0  0  0
  140.1640   67.7195  226.5060 H   0  0  0  0  0  0  0  0  0  0  0  0
  140.3500   69.6140  225.4700 C   0  0  0  0  0  0  0  0  0  0  0  0
  140.1811   69.1708  224.4775 H   0  0  0  0  0  0  0  0  0  0  0  0
  139.7720   76.8200  221.7150 C   0  0  0  0  0  0  0  0  0  0  0  0
  139.4030   77.9950  221.1330 N   0  0  0  0  0  0  0  0  0  0  0  0
  139.9910   79.1790  221.4500 C   0  0  0  0  0  0  0  0  0  0  0  0
  139.5950   80.3560  220.8070 C   0  0  0  0  0  0  0  0  0  0  0  0
  138.7889   80.3296  220.0590 H   0  0  0  0  0  0  0  0  0  0  0  0
  140.2240   81.5670  221.1150 C   0  0  0  0  0  0  0  0  0  0  0  0
  139.9121   82.4918  220.6076 H   0  0  0  0  0  0  0  0  0  0  0  0
  141.2490   81.6050  222.0670 C   0  0  0  0  0  0  0  0  0  0  0  0
  141.8580   82.7800  222.3590 F   0  0  0  0  0  0  0  0  0  0  0  0
  141.6490   80.4330  222.7180 C   0  0  0  0  0  0  0  0  0  0  0  0
  142.4543   80.4662  223.4666 H   0  0  0  0  0  0  0  0  0  0  0  0
  141.0220   79.2160  222.4150 C   0  0  0  0  0  0  0  0  0  0  0  0
  141.4090   78.0230  223.0350 C   0  0  0  0  0  0  0  0  0  0  0  0
  142.2002   78.0319  223.7991 H   0  0  0  0  0  0  0  0  0  0  0  0
  140.7910   76.8210  222.6840 C   0  0  0  0  0  0  0  0  0  0  0  0
  141.0996   75.8800  223.1629 H   0  0  0  0  0  0  0  0  0  0  0  0
  1  2  1  0
  2  3  1  0
  3  4  2  0
  4  5  1  0
  5  6  1  0
  5  7  1  0
  5  8  1  0
  8  9  2  0
  8 10  1  0
 10 11  1  0
 11 12  1  0
 11 13  1  0
 11 14  1  0
 14 15  1  1
 14 16  1  0
 16 17  1  0
 14 18  1  0
 18 19  1  0
 18 20  1  0
 18 21  1  0
 21 22  1  6
 21 23  1  0
 23 24  2  0
 23 25  1  0
 25 26  1  0
 26 27  1  1
 26 28  1  0
 28 29  2  0
 29 30  1  0
 29 31  1  0
 31 32  1  0
 31 33  2  0
 33 34  1  0
 33 35  1  0
 35 36  1  0
 35 37  2  0
 37 38  1  0
 26 39  1  0
 39 40  1  0
 39 41  1  0
 39 42  1  0
 42 43  2  0
 43 44  1  0
 43 45  1  0
 45 46  1  0
 45 47  2  0
 47 48  1  0
 47 49  1  0
 49 50  1  0
 49 51  2  0
 51 52  1  0
  3 53  1  0
 53 54  2  0
 54 55  1  0
 55 56  2  0
 56 57  1  0
 56 58  1  0
 58 59  1  0
 58 60  2  0
 60 61  1  0
 60 62  1  0
 62 63  1  0
 62 64  2  0
 64 65  1  0
 65 66  1  0
 65 67  2  0
 67 68  1  0
 21 10  1  0
 37 28  1  0
 51 42  1  0
 67 53  1  0
 64 55  1  0
M  CHG  1  25  -1
M  END
>  <UniqueID>  (56) 
3

>  <SMILES>  (56) 
O=C([N-][C@@H](Cc1ccc(F)cc1)c1ccccc1)[C@@H]1C[C@@H](O)CN1C(=O)C/N=C(\O)c1ccc2cc(F)ccc2n1

>  <Energy>  (56) 
70.9291234150735

>  <Genealogy>  (56) 
O=C(NCC(=O)N1C[C@H](O)C[C@H]1C(=O)[N-][C@@H](Cc1ccc(F)cc1)c1ccccc1)c1ccc2cc(F)ccc2n1 (protonated)
O=C([N-][C@@H](Cc1ccc(F)cc1)c1ccccc1)[C@@H]1C[C@@H](O)CN1C(=O)CN=C(O)c1ccc2cc(F)ccc2n1 (tautomer)
O=C([N-][C@@H](Cc1ccc(F)cc1)c1ccccc1)[C@@H]1C[C@@H](O)CN1C(=O)C/N=C(\O)c1ccc2cc(F)ccc2n1 (cis-trans isomerization)
O=C([N-][C@@H](Cc1ccc(F)cc1)c1ccccc1)[C@@H]1C[C@@H](O)CN1C(=O)C/N=C(\O)c1ccc2cc(F)ccc2n1 (3D coordinates assigned)
O=C([N-][C@@H](Cc1ccc(F)cc1)c1ccccc1)[C@@H]1C[C@@H](O)CN1C(=O)C/N=C(\O)c1ccc2cc(F)ccc2n1 (nonaromatic ring conformer: 70.9291234150735 kcal/mol)

>  <smiles>  (56) 
O=C(NCC(=O)N1C[C@H](O)C[C@H]1C(=O)N[C@@H](Cc1ccc(F)cc1)c1ccccc1)c1ccc2cc(F)ccc2n1

>  <score_type>  (56) 
oracle

>  <origin>  (56) 
autodockgpu

>  <m_score__min__energy>  (56) 
-9.3499999999999996

>  <m_primary>  (56) 
energy

>  <meeko>  (56) 
{"free_energy": -7.98, "intermolecular_energy": -11.86, "internal_energy": -3.91, "cluster_size": 5, "cluster_id": 1, "rank_in_cluster": 3}

>  <energy>  (56) 
-7.95

>  <cluster_rmsd>  (56) 
0.0

>  <rmsd>  (56) 
270.82

>  <cluster>  (56) 
7

$$$$
XFBXCNWOYUAVIW-ZAPLKEHQNA-M
     RDKit          3D

 68 72  0  0  0  0  0  0  0  0999 V2000
  138.5850   74.2440  222.7220 H   0  0  0  0  0  0  0  0  0  0  0  0
  137.7740   74.7170  222.3490 O   0  0  0  0  0  0  0  0  0  0  0  0
  137.8470   75.8490  221.5320 C   0  0  0  0  0  0  0  0  0  0  0  0
  137.4180   75.8370  220.3000 N   0  0  0  0  0  0  0  0  0  0  0  0
  138.2420   75.8810  219.0950 C   0  0  0  0  0  0  0  0  0  0  0  0
  138.7988   76.8294  219.0735 H   0  0  0  0  0  0  0  0  0  0  0  0
  137.5853   75.8021  218.2161 H   0  0  0  0  0  0  0  0  0  0  0  0
  139.2140   74.7400  219.0720 C   0  0  0  0  0  0  0  0  0  0  0  0
  138.8610   73.6160  218.6300 O   0  0  0  0  0  0  0  0  0  0  0  0
  140.5450   74.9210  219.5610 N   0  0  0  0  0  0  0  0  0  0  0  0
  141.3100   76.1250  219.3110 C   0  0  0  0  0  0  0  0  0  0  0  0
  140.7607   77.0107  219.6630 H   0  0  0  0  0  0  0  0  0  0  0  0
  141.5006   76.2747  218.2380 H   0  0  0  0  0  0  0  0  0  0  0  0
  142.6040   75.9500  220.1000 C   0  0  2  0  0  0  0  0  0  0  0  0
  142.5988   76.5367  221.0304 H   0  0  0  0  0  0  0  0  0  0  0  0
  143.7040   76.4050  219.3570 O   0  0  0  0  0  0  0  0  0  0  0  0
  144.0690   77.1880  219.8470 H   0  0  0  0  0  0  0  0  0  0  0  0
  142.7100   74.4470  220.3910 C   0  0  0  0  0  0  0  0  0  0  0  0
  143.1069   74.2803  221.4033 H   0  0  0  0  0  0  0  0  0  0  0  0
  143.3922   73.9466  219.6879 H   0  0  0  0  0  0  0  0  0  0  0  0
  141.2840   73.8960  220.2800 C   0  0  1  0  0  0  0  0  0  0  0  0
  141.2645   72.9223  219.7685 H   0  0  0  0  0  0  0  0  0  0  0  0
  140.6730   73.6690  221.6460 C   0  0  0  0  0  0  0  0  0  0  0  0
  140.3390   74.6680  222.3370 O   0  0  0  0  0  0  0  0  0  0  0  0
  140.4720   72.3600  222.1990 N   0  0  0  0  0  0  0  0  0  0  0  0
  139.3220   71.8970  222.9760 C   0  0  2  0  0  0  0  0  0  0  0  0
  138.7052   72.7637  223.2562 H   0  0  0  0  0  0  0  0  0  0  0  0
  139.8030   71.2040  224.2360 C   0  0  0  0  0  0  0  0  0  0  0  0
  140.6880   71.8380  225.1290 C   0  0  0  0  0  0  0  0  0  0  0  0
  141.0175   72.8691  224.9336 H   0  0  0  0  0  0  0  0  0  0  0  0
  141.1500   71.1630  226.2630 C   0  0  0  0  0  0  0  0  0  0  0  0
  141.8274   71.6702  226.9658 H   0  0  0  0  0  0  0  0  0  0  0  0
  140.7530   69.8460  226.5050 C   0  0  0  0  0  0  0  0  0  0  0  0
  141.1127   69.3188  227.4010 H   0  0  0  0  0  0  0  0  0  0  0  0
  139.9000   69.1990  225.6100 C   0  0  0  0  0  0  0  0  0  0  0  0
  139.5953   68.1586  225.7962 H   0  0  0  0  0  0  0  0  0  0  0  0
  139.4330   69.8700  224.4790 C   0  0  0  0  0  0  0  0  0  0  0  0
  138.7697   69.3505  223.7717 H   0  0  0  0  0  0  0  0  0  0  0  0
  138.4580   70.9370  222.1330 C   0  0  0  0  0  0  0  0  0  0  0  0
  138.0856   70.1295  222.7805 H   0  0  0  0  0  0  0  0  0  0  0  0
  137.6237   71.5109  221.7033 H   0  0  0  0  0  0  0  0  0  0  0  0
  139.2480   70.3320  221.0010 C   0  0  0  0  0  0  0  0  0  0  0  0
  139.2620   70.9510  219.7410 C   0  0  0  0  0  0  0  0  0  0  0  0
  138.7293   71.9017  219.5915 H   0  0  0  0  0  0  0  0  0  0  0  0
  139.9510   70.3630  218.6750 C   0  0  0  0  0  0  0  0  0  0  0  0
  139.9680   70.8572  217.6924 H   0  0  0  0  0  0  0  0  0  0  0  0
  140.6180   69.1480  218.8570 C   0  0  0  0  0  0  0  0  0  0  0  0
  141.2750   68.5730  217.8190 F   0  0  0  0  0  0  0  0  0  0  0  0
  140.6030   68.5230  220.1070 C   0  0  0  0  0  0  0  0  0  0  0  0
  141.1274   67.5665  220.2489 H   0  0  0  0  0  0  0  0  0  0  0  0
  139.9230   69.1110  221.1770 C   0  0  0  0  0  0  0  0  0  0  0  0
  139.9158   68.6172  222.1599 H   0  0  0  0  0  0  0  0  0  0  0  0
  138.4480   77.0750  222.0920 C   0  0  0  0  0  0  0  0  0  0  0  0
  139.7930   77.2590  221.9830 N   0  0  0  0  0  0  0  0  0  0  0  0
  140.4150   78.3670  222.4660 C   0  0  0  0  0  0  0  0  0  0  0  0
  141.8030   78.4990  222.3530 C   0  0  0  0  0  0  0  0  0  0  0  0
  142.3911   77.7163  221.8516 H   0  0  0  0  0  0  0  0  0  0  0  0
  142.4430   79.6270  222.8780 C   0  0  0  0  0  0  0  0  0  0  0  0
  143.5346   79.7296  222.7890 H   0  0  0  0  0  0  0  0  0  0  0  0
  141.6980   80.6250  223.5160 C   0  0  0  0  0  0  0  0  0  0  0  0
  142.3240   81.7140  224.0270 F   0  0  0  0  0  0  0  0  0  0  0  0
  140.3090   80.5030  223.6310 C   0  0  0  0  0  0  0  0  0  0  0  0
  139.7262   81.2900  224.1321 H   0  0  0  0  0  0  0  0  0  0  0  0
  139.6610   79.3750  223.1060 C   0  0  0  0  0  0  0  0  0  0  0  0
  138.2760   79.2140  223.2180 C   0  0  0  0  0  0  0  0  0  0  0  0
  137.6684   79.9943  223.6996 H   0  0  0  0  0  0  0  0  0  0  0  0
  137.6650   78.0620  222.7180 C   0  0  0  0  0  0  0  0  0  0  0  0
  136.5774   77.9271  222.8131 H   0  0  0  0  0  0  0  0  0  0  0  0
  1  2  1  0
  2  3  1  0
  3  4  2  0
  4  5  1  0
  5  6  1  0
  5  7  1  0
  5  8  1  0
  8  9  2  0
  8 10  1  0
 10 11  1  0
 11 12  1  0
 11 13  1  0
 11 14  1  0
 14 15  1  1
 14 16  1  0
 16 17  1  0
 14 18  1  0
 18 19  1  0
 18 20  1  0
 18 21  1  0
 21 22  1  6
 21 23  1  0
 23 24  2  0
 23 25  1  0
 25 26  1  0
 26 27  1  1
 26 28  1  0
 28 29  2  0
 29 30  1  0
 29 31  1  0
 31 32  1  0
 31 33  2  0
 33 34  1  0
 33 35  1  0
 35 36  1  0
 35 37  2  0
 37 38  1  0
 26 39  1  0
 39 40  1  0
 39 41  1  0
 39 42  1  0
 42 43  2  0
 43 44  1  0
 43 45  1  0
 45 46  1  0
 45 47  2  0
 47 48  1  0
 47 49  1  0
 49 50  1  0
 49 51  2  0
 51 52  1  0
  3 53  1  0
 53 54  2  0
 54 55  1  0
 55 56  2  0
 56 57  1  0
 56 58  1  0
 58 59  1  0
 58 60  2  0
 60 61  1  0
 60 62  1  0
 62 63  1  0
 62 64  2  0
 64 65  1  0
 65 66  1  0
 65 67  2  0
 67 68  1  0
 21 10  1  0
 37 28  1  0
 51 42  1  0
 67 53  1  0
 64 55  1  0
M  CHG  1  25  -1
M  END
>  <UniqueID>  (57) 
3

>  <SMILES>  (57) 
O=C([N-][C@@H](Cc1ccc(F)cc1)c1ccccc1)[C@@H]1C[C@@H](O)CN1C(=O)C/N=C(\O)c1ccc2cc(F)ccc2n1

>  <Energy>  (57) 
70.9291234150735

>  <Genealogy>  (57) 
O=C(NCC(=O)N1C[C@H](O)C[C@H]1C(=O)[N-][C@@H](Cc1ccc(F)cc1)c1ccccc1)c1ccc2cc(F)ccc2n1 (protonated)
O=C([N-][C@@H](Cc1ccc(F)cc1)c1ccccc1)[C@@H]1C[C@@H](O)CN1C(=O)CN=C(O)c1ccc2cc(F)ccc2n1 (tautomer)
O=C([N-][C@@H](Cc1ccc(F)cc1)c1ccccc1)[C@@H]1C[C@@H](O)CN1C(=O)C/N=C(\O)c1ccc2cc(F)ccc2n1 (cis-trans isomerization)
O=C([N-][C@@H](Cc1ccc(F)cc1)c1ccccc1)[C@@H]1C[C@@H](O)CN1C(=O)C/N=C(\O)c1ccc2cc(F)ccc2n1 (3D coordinates assigned)
O=C([N-][C@@H](Cc1ccc(F)cc1)c1ccccc1)[C@@H]1C[C@@H](O)CN1C(=O)C/N=C(\O)c1ccc2cc(F)ccc2n1 (nonaromatic ring conformer: 70.9291234150735 kcal/mol)

>  <smiles>  (57) 
O=C(NCC(=O)N1C[C@H](O)C[C@H]1C(=O)N[C@@H](Cc1ccc(F)cc1)c1ccccc1)c1ccc2cc(F)ccc2n1

>  <score_type>  (57) 
oracle

>  <origin>  (57) 
autodockgpu

>  <m_score__min__energy>  (57) 
-9.3499999999999996

>  <m_primary>  (57) 
energy

>  <meeko>  (57) 
{"free_energy": -6.99, "intermolecular_energy": -10.86, "internal_energy": -4.39, "cluster_size": 3, "cluster_id": 7, "rank_in_cluster": 3}

>  <energy>  (57) 
-7.94

>  <cluster_rmsd>  (57) 
0.24

>  <rmsd>  (57) 
270.94

>  <cluster>  (57) 
7

$$$$
XFBXCNWOYUAVIW-ZAPLKEHQNA-M
     RDKit          3D

 68 72  0  0  0  0  0  0  0  0999 V2000
  138.4300   73.3710  222.8950 H   0  0  0  0  0  0  0  0  0  0  0  0
  138.3830   72.3880  222.6650 O   0  0  0  0  0  0  0  0  0  0  0  0
  139.4860   71.5290  222.7160 C   0  0  0  0  0  0  0  0  0  0  0  0
  140.3860   71.5090  221.7730 N   0  0  0  0  0  0  0  0  0  0  0  0
  141.1140   72.6600  221.2440 C   0  0  0  0  0  0  0  0  0  0  0  0
  141.4937   72.4164  220.2408 H   0  0  0  0  0  0  0  0  0  0  0  0
  141.9474   72.8922  221.9233 H   0  0  0  0  0  0  0  0  0  0  0  0
  140.2210   73.8590  221.1530 C   0  0  0  0  0  0  0  0  0  0  0  0
  140.0450   74.5970  222.1580 O   0  0  0  0  0  0  0  0  0  0  0  0
  139.5560   74.1690  219.9260 N   0  0  0  0  0  0  0  0  0  0  0  0
  138.6950   73.2220  219.2460 C   0  0  0  0  0  0  0  0  0  0  0  0
  137.8952   72.8767  219.9176 H   0  0  0  0  0  0  0  0  0  0  0  0
  139.2450   72.3266  218.9208 H   0  0  0  0  0  0  0  0  0  0  0  0
  138.1080   73.9900  218.0660 C   0  0  2  0  0  0  0  0  0  0  0  0
  137.0708   74.3026  218.2569 H   0  0  0  0  0  0  0  0  0  0  0  0
  138.0690   73.1830  216.9180 O   0  0  0  0  0  0  0  0  0  0  0  0
  137.9780   72.2470  217.2360 H   0  0  0  0  0  0  0  0  0  0  0  0
  139.0260   75.2030  217.8640 C   0  0  0  0  0  0  0  0  0  0  0  0
  138.4337   76.0912  217.5989 H   0  0  0  0  0  0  0  0  0  0  0  0
  139.7434   75.0351  217.0472 H   0  0  0  0  0  0  0  0  0  0  0  0
  139.7390   75.4180  219.2040 C   0  0  1  0  0  0  0  0  0  0  0  0
  140.7992   75.6746  219.0623 H   0  0  0  0  0  0  0  0  0  0  0  0
  139.1250   76.5650  219.9770 C   0  0  0  0  0  0  0  0  0  0  0  0
  137.8800   76.5710  220.1740 O   0  0  0  0  0  0  0  0  0  0  0  0
  139.8990   77.6620  220.4850 N   0  0  0  0  0  0  0  0  0  0  0  0
  141.3200   77.6520  220.8370 C   0  0  2  0  0  0  0  0  0  0  0  0
  141.5787   76.6710  221.2621 H   0  0  0  0  0  0  0  0  0  0  0  0
  141.5970   78.7270  221.8700 C   0  0  0  0  0  0  0  0  0  0  0  0
  142.0260   80.0130  221.4910 C   0  0  0  0  0  0  0  0  0  0  0  0
  142.1344   80.2623  220.4251 H   0  0  0  0  0  0  0  0  0  0  0  0
  142.3150   80.9750  222.4640 C   0  0  0  0  0  0  0  0  0  0  0  0
  142.6336   81.9834  222.1613 H   0  0  0  0  0  0  0  0  0  0  0  0
  142.2000   80.6580  223.8190 C   0  0  0  0  0  0  0  0  0  0  0  0
  142.4209   81.4186  224.5823 H   0  0  0  0  0  0  0  0  0  0  0  0
  141.8050   79.3770  224.2050 C   0  0  0  0  0  0  0  0  0  0  0  0
  141.7251   79.1247  225.2727 H   0  0  0  0  0  0  0  0  0  0  0  0
  141.5110   78.4150  223.2370 C   0  0  0  0  0  0  0  0  0  0  0  0
  141.2093   77.4037  223.5474 H   0  0  0  0  0  0  0  0  0  0  0  0
  142.1840   77.8800  219.5800 C   0  0  0  0  0  0  0  0  0  0  0  0
  141.5385   78.2316  218.7616 H   0  0  0  0  0  0  0  0  0  0  0  0
  142.9533   78.6283  219.8212 H   0  0  0  0  0  0  0  0  0  0  0  0
  142.8760   76.6130  219.1480 C   0  0  0  0  0  0  0  0  0  0  0  0
  143.1370   76.3800  217.7880 C   0  0  0  0  0  0  0  0  0  0  0  0
  142.8724   77.1429  217.0411 H   0  0  0  0  0  0  0  0  0  0  0  0
  143.7320   75.1820  217.3790 C   0  0  0  0  0  0  0  0  0  0  0  0
  143.9459   75.0105  216.3137 H   0  0  0  0  0  0  0  0  0  0  0  0
  144.0550   74.2030  218.3220 C   0  0  0  0  0  0  0  0  0  0  0  0
  144.6190   73.0360  217.9230 F   0  0  0  0  0  0  0  0  0  0  0  0
  143.7920   74.4240  219.6780 C   0  0  0  0  0  0  0  0  0  0  0  0
  144.0459   73.6525  220.4199 H   0  0  0  0  0  0  0  0  0  0  0  0
  143.2070   75.6240  220.0910 C   0  0  0  0  0  0  0  0  0  0  0  0
  143.0046   75.7956  221.1585 H   0  0  0  0  0  0  0  0  0  0  0  0
  139.6050   70.6160  223.8690 C   0  0  0  0  0  0  0  0  0  0  0  0
  140.1960   71.0670  225.0090 N   0  0  0  0  0  0  0  0  0  0  0  0
  140.3320   70.2880  226.1150 C   0  0  0  0  0  0  0  0  0  0  0  0
  140.9700   70.7880  227.2550 C   0  0  0  0  0  0  0  0  0  0  0  0
  141.3427   71.8229  227.2675 H   0  0  0  0  0  0  0  0  0  0  0  0
  141.1340   69.9720  228.3790 C   0  0  0  0  0  0  0  0  0  0  0  0
  141.6364   70.3667  229.2745 H   0  0  0  0  0  0  0  0  0  0  0  0
  140.6610   68.6550  228.3680 C   0  0  0  0  0  0  0  0  0  0  0  0
  140.8270   67.8670  229.4580 F   0  0  0  0  0  0  0  0  0  0  0  0
  140.0190   68.1470  227.2330 C   0  0  0  0  0  0  0  0  0  0  0  0
  139.6475   67.1116  227.2273 H   0  0  0  0  0  0  0  0  0  0  0  0
  139.8500   68.9600  226.1030 C   0  0  0  0  0  0  0  0  0  0  0  0
  139.2270   68.4780  224.9460 C   0  0  0  0  0  0  0  0  0  0  0  0
  138.8315   67.4519  224.9205 H   0  0  0  0  0  0  0  0  0  0  0  0
  139.1080   69.3010  223.8240 C   0  0  0  0  0  0  0  0  0  0  0  0
  138.6279   68.9226  222.9095 H   0  0  0  0  0  0  0  0  0  0  0  0
  1  2  1  0
  2  3  1  0
  3  4  2  0
  4  5  1  0
  5  6  1  0
  5  7  1  0
  5  8  1  0
  8  9  2  0
  8 10  1  0
 10 11  1  0
 11 12  1  0
 11 13  1  0
 11 14  1  0
 14 15  1  1
 14 16  1  0
 16 17  1  0
 14 18  1  0
 18 19  1  0
 18 20  1  0
 18 21  1  0
 21 22  1  6
 21 23  1  0
 23 24  2  0
 23 25  1  0
 25 26  1  0
 26 27  1  1
 26 28  1  0
 28 29  2  0
 29 30  1  0
 29 31  1  0
 31 32  1  0
 31 33  2  0
 33 34  1  0
 33 35  1  0
 35 36  1  0
 35 37  2  0
 37 38  1  0
 26 39  1  0
 39 40  1  0
 39 41  1  0
 39 42  1  0
 42 43  2  0
 43 44  1  0
 43 45  1  0
 45 46  1  0
 45 47  2  0
 47 48  1  0
 47 49  1  0
 49 50  1  0
 49 51  2  0
 51 52  1  0
  3 53  1  0
 53 54  2  0
 54 55  1  0
 55 56  2  0
 56 57  1  0
 56 58  1  0
 58 59  1  0
 58 60  2  0
 60 61  1  0
 60 62  1  0
 62 63  1  0
 62 64  2  0
 64 65  1  0
 65 66  1  0
 65 67  2  0
 67 68  1  0
 21 10  1  0
 37 28  1  0
 51 42  1  0
 67 53  1  0
 64 55  1  0
M  CHG  1  25  -1
M  END
>  <UniqueID>  (58) 
3

>  <SMILES>  (58) 
O=C([N-][C@@H](Cc1ccc(F)cc1)c1ccccc1)[C@@H]1C[C@@H](O)CN1C(=O)C/N=C(\O)c1ccc2cc(F)ccc2n1

>  <Energy>  (58) 
70.9291234150735

>  <Genealogy>  (58) 
O=C(NCC(=O)N1C[C@H](O)C[C@H]1C(=O)[N-][C@@H](Cc1ccc(F)cc1)c1ccccc1)c1ccc2cc(F)ccc2n1 (protonated)
O=C([N-][C@@H](Cc1ccc(F)cc1)c1ccccc1)[C@@H]1C[C@@H](O)CN1C(=O)CN=C(O)c1ccc2cc(F)ccc2n1 (tautomer)
O=C([N-][C@@H](Cc1ccc(F)cc1)c1ccccc1)[C@@H]1C[C@@H](O)CN1C(=O)C/N=C(\O)c1ccc2cc(F)ccc2n1 (cis-trans isomerization)
O=C([N-][C@@H](Cc1ccc(F)cc1)c1ccccc1)[C@@H]1C[C@@H](O)CN1C(=O)C/N=C(\O)c1ccc2cc(F)ccc2n1 (3D coordinates assigned)
O=C([N-][C@@H](Cc1ccc(F)cc1)c1ccccc1)[C@@H]1C[C@@H](O)CN1C(=O)C/N=C(\O)c1ccc2cc(F)ccc2n1 (nonaromatic ring conformer: 70.9291234150735 kcal/mol)

>  <smiles>  (58) 
O=C(NCC(=O)N1C[C@H](O)C[C@H]1C(=O)N[C@@H](Cc1ccc(F)cc1)c1ccccc1)c1ccc2cc(F)ccc2n1

>  <score_type>  (58) 
oracle

>  <origin>  (58) 
autodockgpu

>  <m_score__min__energy>  (58) 
-9.3499999999999996

>  <m_primary>  (58) 
energy

>  <meeko>  (58) 
{"free_energy": -8.01, "intermolecular_energy": -11.89, "internal_energy": -3.26, "cluster_size": 1, "cluster_id": 6, "rank_in_cluster": 1}

>  <energy>  (58) 
-6.99

>  <cluster_rmsd>  (58) 
1.87

>  <rmsd>  (58) 
270.2

>  <cluster>  (58) 
7

$$$$
XFBXCNWOYUAVIW-ZAPLKEHQNA-M
     RDKit          3D

 68 72  0  0  0  0  0  0  0  0999 V2000
  141.4790   72.2120  220.1930 H   0  0  0  0  0  0  0  0  0  0  0  0
  140.5490   72.2190  220.5880 O   0  0  0  0  0  0  0  0  0  0  0  0
  140.2400   72.7890  221.8270 C   0  0  0  0  0  0  0  0  0  0  0  0
  140.0910   74.0760  221.9740 N   0  0  0  0  0  0  0  0  0  0  0  0
  141.1060   75.0990  221.7340 C   0  0  0  0  0  0  0  0  0  0  0  0
  141.5830   75.3647  222.6889 H   0  0  0  0  0  0  0  0  0  0  0  0
  140.6199   75.9804  221.2902 H   0  0  0  0  0  0  0  0  0  0  0  0
  142.1520   74.5990  220.7850 C   0  0  0  0  0  0  0  0  0  0  0  0
  142.7780   73.5350  221.0340 O   0  0  0  0  0  0  0  0  0  0  0  0
  142.4520   75.3320  219.5950 N   0  0  0  0  0  0  0  0  0  0  0  0
  143.1640   74.7470  218.4770 C   0  0  0  0  0  0  0  0  0  0  0  0
  142.6500   73.8406  218.1245 H   0  0  0  0  0  0  0  0  0  0  0  0
  144.1855   74.4464  218.7531 H   0  0  0  0  0  0  0  0  0  0  0  0
  143.1600   75.8190  217.3930 C   0  0  2  0  0  0  0  0  0  0  0  0
  142.4162   75.6071  216.6108 H   0  0  0  0  0  0  0  0  0  0  0  0
  144.4050   75.8750  216.7450 O   0  0  0  0  0  0  0  0  0  0  0  0
  145.0850   75.6240  217.4230 H   0  0  0  0  0  0  0  0  0  0  0  0
  142.8470   77.1360  218.1150 C   0  0  0  0  0  0  0  0  0  0  0  0
  142.1846   77.7619  217.4989 H   0  0  0  0  0  0  0  0  0  0  0  0
  143.7604   77.7185  218.3058 H   0  0  0  0  0  0  0  0  0  0  0  0
  142.1470   76.7440  219.4210 C   0  0  1  0  0  0  0  0  0  0  0  0
  142.4901   77.3595  220.2657 H   0  0  0  0  0  0  0  0  0  0  0  0
  140.6510   76.9500  219.3280 C   0  0  0  0  0  0  0  0  0  0  0  0
  139.9740   76.1820  218.5930 O   0  0  0  0  0  0  0  0  0  0  0  0
  139.9660   77.9970  220.0300 N   0  0  0  0  0  0  0  0  0  0  0  0
  140.4010   79.3850  220.1880 C   0  0  2  0  0  0  0  0  0  0  0  0
  141.0536   79.6550  219.3446 H   0  0  0  0  0  0  0  0  0  0  0  0
  141.1770   79.5320  221.4820 C   0  0  0  0  0  0  0  0  0  0  0  0
  141.1270   78.5430  222.4830 C   0  0  0  0  0  0  0  0  0  0  0  0
  140.5404   77.6271  222.3184 H   0  0  0  0  0  0  0  0  0  0  0  0
  141.8190   78.7190  223.6850 C   0  0  0  0  0  0  0  0  0  0  0  0
  141.7896   77.9345  224.4556 H   0  0  0  0  0  0  0  0  0  0  0  0
  142.5480   79.8900  223.9090 C   0  0  0  0  0  0  0  0  0  0  0  0
  143.0981   80.0235  224.8521 H   0  0  0  0  0  0  0  0  0  0  0  0
  142.5780   80.8900  222.9360 C   0  0  0  0  0  0  0  0  0  0  0  0
  143.1425   81.8166  223.1172 H   0  0  0  0  0  0  0  0  0  0  0  0
  141.8920   80.7150  221.7330 C   0  0  0  0  0  0  0  0  0  0  0  0
  141.9114   81.5111  220.9741 H   0  0  0  0  0  0  0  0  0  0  0  0
  139.1830   80.3320  220.1840 C   0  0  0  0  0  0  0  0  0  0  0  0
  139.5121   81.3364  219.8792 H   0  0  0  0  0  0  0  0  0  0  0  0
  138.4382   79.9335  219.4794 H   0  0  0  0  0  0  0  0  0  0  0  0
  138.5460   80.4180  221.5470 C   0  0  0  0  0  0  0  0  0  0  0  0
  138.6900   81.5820  222.3200 C   0  0  0  0  0  0  0  0  0  0  0  0
  139.2332   82.4471  221.9120 H   0  0  0  0  0  0  0  0  0  0  0  0
  138.1450   81.6450  223.6070 C   0  0  0  0  0  0  0  0  0  0  0  0
  138.2509   82.5627  224.2041 H   0  0  0  0  0  0  0  0  0  0  0  0
  137.4660   80.5430  224.1350 C   0  0  0  0  0  0  0  0  0  0  0  0
  136.9490   80.6010  225.3870 F   0  0  0  0  0  0  0  0  0  0  0  0
  137.3230   79.3790  223.3730 C   0  0  0  0  0  0  0  0  0  0  0  0
  136.7881   78.5123  223.7887 H   0  0  0  0  0  0  0  0  0  0  0  0
  137.8590   79.3160  222.0840 C   0  0  0  0  0  0  0  0  0  0  0  0
  137.7426   78.3995  221.4869 H   0  0  0  0  0  0  0  0  0  0  0  0
  140.1020   71.8920  222.9910 C   0  0  0  0  0  0  0  0  0  0  0  0
  140.6510   72.2660  224.1800 N   0  0  0  0  0  0  0  0  0  0  0  0
  140.5550   71.4980  225.2970 C   0  0  0  0  0  0  0  0  0  0  0  0
  141.1580   71.9120  226.4900 C   0  0  0  0  0  0  0  0  0  0  0  0
  141.6912   72.8732  226.5319 H   0  0  0  0  0  0  0  0  0  0  0  0
  141.0830   71.1040  227.6290 C   0  0  0  0  0  0  0  0  0  0  0  0
  141.5579   71.4309  228.5658 H   0  0  0  0  0  0  0  0  0  0  0  0
  140.4050   69.8800  227.5800 C   0  0  0  0  0  0  0  0  0  0  0  0
  140.3390   69.0990  228.6860 F   0  0  0  0  0  0  0  0  0  0  0  0
  139.7970   69.4590  226.3920 C   0  0  0  0  0  0  0  0  0  0  0  0
  139.2648   68.4969  226.3566 H   0  0  0  0  0  0  0  0  0  0  0  0
  139.8670   70.2650  225.2470 C   0  0  0  0  0  0  0  0  0  0  0  0
  139.2840   69.8670  224.0400 C   0  0  0  0  0  0  0  0  0  0  0  0
  138.7307   68.9180  223.9831 H   0  0  0  0  0  0  0  0  0  0  0  0
  139.4040   70.6740  222.9070 C   0  0  0  0  0  0  0  0  0  0  0  0
  138.9549   70.3588  221.9536 H   0  0  0  0  0  0  0  0  0  0  0  0
  1  2  1  0
  2  3  1  0
  3  4  2  0
  4  5  1  0
  5  6  1  0
  5  7  1  0
  5  8  1  0
  8  9  2  0
  8 10  1  0
 10 11  1  0
 11 12  1  0
 11 13  1  0
 11 14  1  0
 14 15  1  6
 14 16  1  0
 16 17  1  0
 14 18  1  0
 18 19  1  0
 18 20  1  0
 18 21  1  0
 21 22  1  1
 21 23  1  0
 23 24  2  0
 23 25  1  0
 25 26  1  0
 26 27  1  6
 26 28  1  0
 28 29  2  0
 29 30  1  0
 29 31  1  0
 31 32  1  0
 31 33  2  0
 33 34  1  0
 33 35  1  0
 35 36  1  0
 35 37  2  0
 37 38  1  0
 26 39  1  0
 39 40  1  0
 39 41  1  0
 39 42  1  0
 42 43  2  0
 43 44  1  0
 43 45  1  0
 45 46  1  0
 45 47  2  0
 47 48  1  0
 47 49  1  0
 49 50  1  0
 49 51  2  0
 51 52  1  0
  3 53  1  0
 53 54  2  0
 54 55  1  0
 55 56  2  0
 56 57  1  0
 56 58  1  0
 58 59  1  0
 58 60  2  0
 60 61  1  0
 60 62  1  0
 62 63  1  0
 62 64  2  0
 64 65  1  0
 65 66  1  0
 65 67  2  0
 67 68  1  0
 21 10  1  0
 37 28  1  0
 51 42  1  0
 67 53  1  0
 64 55  1  0
M  CHG  1  25  -1
M  END
>  <UniqueID>  (59) 
3

>  <SMILES>  (59) 
O=C([N-][C@@H](Cc1ccc(F)cc1)c1ccccc1)[C@@H]1C[C@@H](O)CN1C(=O)C/N=C(\O)c1ccc2cc(F)ccc2n1

>  <Energy>  (59) 
70.9291234150735

>  <Genealogy>  (59) 
O=C(NCC(=O)N1C[C@H](O)C[C@H]1C(=O)[N-][C@@H](Cc1ccc(F)cc1)c1ccccc1)c1ccc2cc(F)ccc2n1 (protonated)
O=C([N-][C@@H](Cc1ccc(F)cc1)c1ccccc1)[C@@H]1C[C@@H](O)CN1C(=O)CN=C(O)c1ccc2cc(F)ccc2n1 (tautomer)
O=C([N-][C@@H](Cc1ccc(F)cc1)c1ccccc1)[C@@H]1C[C@@H](O)CN1C(=O)C/N=C(\O)c1ccc2cc(F)ccc2n1 (cis-trans isomerization)
O=C([N-][C@@H](Cc1ccc(F)cc1)c1ccccc1)[C@@H]1C[C@@H](O)CN1C(=O)C/N=C(\O)c1ccc2cc(F)ccc2n1 (3D coordinates assigned)
O=C([N-][C@@H](Cc1ccc(F)cc1)c1ccccc1)[C@@H]1C[C@@H](O)CN1C(=O)C/N=C(\O)c1ccc2cc(F)ccc2n1 (nonaromatic ring conformer: 70.9291234150735 kcal/mol)

>  <smiles>  (59) 
O=C(NCC(=O)N1C[C@H](O)C[C@H]1C(=O)N[C@@H](Cc1ccc(F)cc1)c1ccccc1)c1ccc2cc(F)ccc2n1

>  <score_type>  (59) 
oracle

>  <origin>  (59) 
autodockgpu

>  <m_score__min__energy>  (59) 
-9.3499999999999996

>  <m_primary>  (59) 
energy

>  <meeko>  (59) 
{"free_energy": -7.86, "intermolecular_energy": -11.74, "internal_energy": -3.25, "cluster_size": 1, "cluster_id": 9, "rank_in_cluster": 1}

>  <energy>  (59) 
-7.87

>  <cluster_rmsd>  (59) 
0.0

>  <rmsd>  (59) 
270.6

>  <cluster>  (59) 
8

$$$$
XFBXCNWOYUAVIW-ZAPLKEHQNA-M
     RDKit          3D

 68 72  0  0  0  0  0  0  0  0999 V2000
  137.3090   73.4420  223.1190 H   0  0  0  0  0  0  0  0  0  0  0  0
  137.4420   72.4400  223.0970 O   0  0  0  0  0  0  0  0  0  0  0  0
  138.6970   71.8280  223.0150 C   0  0  0  0  0  0  0  0  0  0  0  0
  139.5270   72.0900  222.0450 N   0  0  0  0  0  0  0  0  0  0  0  0
  139.1760   72.5460  220.7020 C   0  0  0  0  0  0  0  0  0  0  0  0
  138.4980   71.8142  220.2385 H   0  0  0  0  0  0  0  0  0  0  0  0
  140.0983   72.6423  220.1104 H   0  0  0  0  0  0  0  0  0  0  0  0
  138.4970   73.8810  220.7530 C   0  0  0  0  0  0  0  0  0  0  0  0
  137.2680   73.9770  220.4990 O   0  0  0  0  0  0  0  0  0  0  0  0
  139.2430   75.0540  221.0820 N   0  0  0  0  0  0  0  0  0  0  0  0
  140.1560   75.6840  220.1510 C   0  0  0  0  0  0  0  0  0  0  0  0
  139.6379   75.9358  219.2139 H   0  0  0  0  0  0  0  0  0  0  0  0
  140.9920   75.0209  219.8840 H   0  0  0  0  0  0  0  0  0  0  0  0
  140.6360   76.9500  220.8530 C   0  0  2  0  0  0  0  0  0  0  0  0
  140.1339   77.8482  220.4644 H   0  0  0  0  0  0  0  0  0  0  0  0
  142.0100   77.1460  220.6400 O   0  0  0  0  0  0  0  0  0  0  0  0
  142.4270   77.2170  221.5380 H   0  0  0  0  0  0  0  0  0  0  0  0
  140.3270   76.7400  222.3420 C   0  0  0  0  0  0  0  0  0  0  0  0
  139.9792   77.6792  222.7969 H   0  0  0  0  0  0  0  0  0  0  0  0
  141.2201   76.4206  222.8991 H   0  0  0  0  0  0  0  0  0  0  0  0
  139.2210   75.6800  222.3950 C   0  0  1  0  0  0  0  0  0  0  0  0
  139.3882   74.9604  223.2100 H   0  0  0  0  0  0  0  0  0  0  0  0
  137.8690   76.3070  222.6550 C   0  0  0  0  0  0  0  0  0  0  0  0
  136.9310   75.5810  223.0820 O   0  0  0  0  0  0  0  0  0  0  0  0
  137.5990   77.6980  222.4200 N   0  0  0  0  0  0  0  0  0  0  0  0
  138.2260   78.8420  223.0820 C   0  0  2  0  0  0  0  0  0  0  0  0
  138.9633   78.4762  223.8118 H   0  0  0  0  0  0  0  0  0  0  0  0
  137.1690   79.6520  223.8080 C   0  0  0  0  0  0  0  0  0  0  0  0
  135.7970   79.4360  223.5820 C   0  0  0  0  0  0  0  0  0  0  0  0
  135.4740   78.6440  222.8903 H   0  0  0  0  0  0  0  0  0  0  0  0
  134.8420   80.2240  224.2330 C   0  0  0  0  0  0  0  0  0  0  0  0
  133.7707   80.0388  224.0654 H   0  0  0  0  0  0  0  0  0  0  0  0
  135.2460   81.2450  225.0950 C   0  0  0  0  0  0  0  0  0  0  0  0
  134.4930   81.8584  225.6115 H   0  0  0  0  0  0  0  0  0  0  0  0
  136.6050   81.4880  225.3020 C   0  0  0  0  0  0  0  0  0  0  0  0
  136.9226   82.2995  225.9733 H   0  0  0  0  0  0  0  0  0  0  0  0
  137.5610   80.7010  224.6570 C   0  0  0  0  0  0  0  0  0  0  0  0
  138.6306   80.9039  224.8148 H   0  0  0  0  0  0  0  0  0  0  0  0
  138.9590   79.7220  222.0490 C   0  0  0  0  0  0  0  0  0  0  0  0
  138.9908   79.1915  221.0859 H   0  0  0  0  0  0  0  0  0  0  0  0
  138.4123   80.6719  221.9550 H   0  0  0  0  0  0  0  0  0  0  0  0
  140.3690   80.0290  222.4860 C   0  0  0  0  0  0  0  0  0  0  0  0
  141.2600   80.6570  221.6010 C   0  0  0  0  0  0  0  0  0  0  0  0
  140.9161   80.9621  220.6017 H   0  0  0  0  0  0  0  0  0  0  0  0
  142.5840   80.8960  221.9860 C   0  0  0  0  0  0  0  0  0  0  0  0
  143.2752   81.3992  221.2938 H   0  0  0  0  0  0  0  0  0  0  0  0
  143.0290   80.4960  223.2490 C   0  0  0  0  0  0  0  0  0  0  0  0
  144.3160   80.7160  223.6160 F   0  0  0  0  0  0  0  0  0  0  0  0
  142.1490   79.8640  224.1330 C   0  0  0  0  0  0  0  0  0  0  0  0
  142.5003   79.5491  225.1267 H   0  0  0  0  0  0  0  0  0  0  0  0
  140.8230   79.6320  223.7550 C   0  0  0  0  0  0  0  0  0  0  0  0
  140.1327   79.1368  224.4537 H   0  0  0  0  0  0  0  0  0  0  0  0
  139.0620   70.8480  224.0550 C   0  0  0  0  0  0  0  0  0  0  0  0
  139.6780   71.2870  225.1870 N   0  0  0  0  0  0  0  0  0  0  0  0
  140.0350   70.4450  226.1930 C   0  0  0  0  0  0  0  0  0  0  0  0
  140.6890   70.9400  227.3270 C   0  0  0  0  0  0  0  0  0  0  0  0
  140.8939   72.0169  227.4177 H   0  0  0  0  0  0  0  0  0  0  0  0
  141.0820   70.0650  228.3450 C   0  0  0  0  0  0  0  0  0  0  0  0
  141.5968   70.4553  229.2353 H   0  0  0  0  0  0  0  0  0  0  0  0
  140.8220   68.6940  228.2340 C   0  0  0  0  0  0  0  0  0  0  0  0
  141.2080   67.8500  229.2220 F   0  0  0  0  0  0  0  0  0  0  0  0
  140.1650   68.1900  227.1060 C   0  0  0  0  0  0  0  0  0  0  0  0
  139.9602   67.1124  227.0231 H   0  0  0  0  0  0  0  0  0  0  0  0
  139.7680   69.0620  226.0810 C   0  0  0  0  0  0  0  0  0  0  0  0
  139.1250   68.5900  224.9320 C   0  0  0  0  0  0  0  0  0  0  0  0
  138.8950   67.5190  224.8312 H   0  0  0  0  0  0  0  0  0  0  0  0
  138.7750   69.4780  223.9130 C   0  0  0  0  0  0  0  0  0  0  0  0
  138.2776   69.1085  223.0041 H   0  0  0  0  0  0  0  0  0  0  0  0
  1  2  1  0
  2  3  1  0
  3  4  2  0
  4  5  1  0
  5  6  1  0
  5  7  1  0
  5  8  1  0
  8  9  2  0
  8 10  1  0
 10 11  1  0
 11 12  1  0
 11 13  1  0
 11 14  1  0
 14 15  1  6
 14 16  1  0
 16 17  1  0
 14 18  1  0
 18 19  1  0
 18 20  1  0
 18 21  1  0
 21 22  1  1
 21 23  1  0
 23 24  2  0
 23 25  1  0
 25 26  1  0
 26 27  1  1
 26 28  1  0
 28 29  2  0
 29 30  1  0
 29 31  1  0
 31 32  1  0
 31 33  2  0
 33 34  1  0
 33 35  1  0
 35 36  1  0
 35 37  2  0
 37 38  1  0
 26 39  1  0
 39 40  1  0
 39 41  1  0
 39 42  1  0
 42 43  2  0
 43 44  1  0
 43 45  1  0
 45 46  1  0
 45 47  2  0
 47 48  1  0
 47 49  1  0
 49 50  1  0
 49 51  2  0
 51 52  1  0
  3 53  1  0
 53 54  2  0
 54 55  1  0
 55 56  2  0
 56 57  1  0
 56 58  1  0
 58 59  1  0
 58 60  2  0
 60 61  1  0
 60 62  1  0
 62 63  1  0
 62 64  2  0
 64 65  1  0
 65 66  1  0
 65 67  2  0
 67 68  1  0
 21 10  1  0
 37 28  1  0
 51 42  1  0
 67 53  1  0
 64 55  1  0
M  CHG  1  25  -1
M  END
>  <UniqueID>  (60) 
3

>  <SMILES>  (60) 
O=C([N-][C@@H](Cc1ccc(F)cc1)c1ccccc1)[C@@H]1C[C@@H](O)CN1C(=O)C/N=C(\O)c1ccc2cc(F)ccc2n1

>  <Energy>  (60) 
70.9291234150735

>  <Genealogy>  (60) 
O=C(NCC(=O)N1C[C@H](O)C[C@H]1C(=O)[N-][C@@H](Cc1ccc(F)cc1)c1ccccc1)c1ccc2cc(F)ccc2n1 (protonated)
O=C([N-][C@@H](Cc1ccc(F)cc1)c1ccccc1)[C@@H]1C[C@@H](O)CN1C(=O)CN=C(O)c1ccc2cc(F)ccc2n1 (tautomer)
O=C([N-][C@@H](Cc1ccc(F)cc1)c1ccccc1)[C@@H]1C[C@@H](O)CN1C(=O)C/N=C(\O)c1ccc2cc(F)ccc2n1 (cis-trans isomerization)
O=C([N-][C@@H](Cc1ccc(F)cc1)c1ccccc1)[C@@H]1C[C@@H](O)CN1C(=O)C/N=C(\O)c1ccc2cc(F)ccc2n1 (3D coordinates assigned)
O=C([N-][C@@H](Cc1ccc(F)cc1)c1ccccc1)[C@@H]1C[C@@H](O)CN1C(=O)C/N=C(\O)c1ccc2cc(F)ccc2n1 (nonaromatic ring conformer: 70.9291234150735 kcal/mol)

>  <smiles>  (60) 
O=C(NCC(=O)N1C[C@H](O)C[C@H]1C(=O)N[C@@H](Cc1ccc(F)cc1)c1ccccc1)c1ccc2cc(F)ccc2n1

>  <score_type>  (60) 
oracle

>  <origin>  (60) 
autodockgpu

>  <m_score__min__energy>  (60) 
-9.3499999999999996

>  <m_primary>  (60) 
energy

>  <meeko>  (60) 
{"free_energy": -8.17, "intermolecular_energy": -12.05, "internal_energy": -3.26, "cluster_size": 1, "cluster_id": 5, "rank_in_cluster": 1}

>  <energy>  (60) 
-7.86

>  <cluster_rmsd>  (60) 
0.0

>  <rmsd>  (60) 
271.2

>  <cluster>  (60) 
9

$$$$
XFBXCNWOYUAVIW-ZAPLKEHQNA-M
     RDKit          3D

 68 72  0  0  0  0  0  0  0  0999 V2000
  140.5390   74.7390  222.0600 H   0  0  0  0  0  0  0  0  0  0  0  0
  140.8310   73.8060  222.3150 O   0  0  0  0  0  0  0  0  0  0  0  0
  140.0340   72.6710  222.1360 C   0  0  0  0  0  0  0  0  0  0  0  0
  139.3930   72.4500  221.0220 N   0  0  0  0  0  0  0  0  0  0  0  0
  138.2870   73.2400  220.4870 C   0  0  0  0  0  0  0  0  0  0  0  0
  137.9545   72.7974  219.5364 H   0  0  0  0  0  0  0  0  0  0  0  0
  138.6351   74.2714  220.3285 H   0  0  0  0  0  0  0  0  0  0  0  0
  137.1370   73.2640  221.4460 C   0  0  0  0  0  0  0  0  0  0  0  0
  136.4840   72.2140  221.6800 O   0  0  0  0  0  0  0  0  0  0  0  0
  136.7690   74.4830  222.0960 N   0  0  0  0  0  0  0  0  0  0  0  0
  135.8290   74.5260  223.1980 C   0  0  0  0  0  0  0  0  0  0  0  0
  136.1589   73.8641  224.0123 H   0  0  0  0  0  0  0  0  0  0  0  0
  134.8275   74.1845  222.8972 H   0  0  0  0  0  0  0  0  0  0  0  0
  135.8200   75.9800  223.6610 C   0  0  2  0  0  0  0  0  0  0  0  0
  136.4065   76.1202  224.5810 H   0  0  0  0  0  0  0  0  0  0  0  0
  134.5140   76.3970  223.9620 O   0  0  0  0  0  0  0  0  0  0  0  0
  133.9250   75.9990  223.2690 H   0  0  0  0  0  0  0  0  0  0  0  0
  136.4100   76.7880  222.4980 C   0  0  0  0  0  0  0  0  0  0  0  0
  137.0542   77.5937  222.8798 H   0  0  0  0  0  0  0  0  0  0  0  0
  135.6217   77.2609  221.8938 H   0  0  0  0  0  0  0  0  0  0  0  0
  137.2330   75.7940  221.6710 C   0  0  1  0  0  0  0  0  0  0  0  0
  137.1025   75.9601  220.5915 H   0  0  0  0  0  0  0  0  0  0  0  0
  138.7140   75.9410  221.9460 C   0  0  0  0  0  0  0  0  0  0  0  0
  139.1540   75.6430  223.0880 O   0  0  0  0  0  0  0  0  0  0  0  0
  139.6420   76.4240  220.9640 N   0  0  0  0  0  0  0  0  0  0  0  0
  141.0820   76.6240  221.1320 C   0  0  2  0  0  0  0  0  0  0  0  0
  141.4603   75.9058  221.8744 H   0  0  0  0  0  0  0  0  0  0  0  0
  141.3470   78.0330  221.6270 C   0  0  0  0  0  0  0  0  0  0  0  0
  141.6260   79.0820  220.7310 C   0  0  0  0  0  0  0  0  0  0  0  0
  141.6230   78.8928  219.6474 H   0  0  0  0  0  0  0  0  0  0  0  0
  141.9070   80.3640  221.2140 C   0  0  0  0  0  0  0  0  0  0  0  0
  142.1073   81.1841  220.5088 H   0  0  0  0  0  0  0  0  0  0  0  0
  141.9340   80.6060  222.5890 C   0  0  0  0  0  0  0  0  0  0  0  0
  142.1484   81.6171  222.9656 H   0  0  0  0  0  0  0  0  0  0  0  0
  141.6890   79.5650  223.4850 C   0  0  0  0  0  0  0  0  0  0  0  0
  141.7204   79.7536  224.5683 H   0  0  0  0  0  0  0  0  0  0  0  0
  141.4040   78.2840  223.0080 C   0  0  0  0  0  0  0  0  0  0  0  0
  141.2227   77.4648  223.7193 H   0  0  0  0  0  0  0  0  0  0  0  0
  141.8170   76.3760  219.7990 C   0  0  0  0  0  0  0  0  0  0  0  0
  141.0726   76.2244  219.0034 H   0  0  0  0  0  0  0  0  0  0  0  0
  142.4471   77.2518  219.5847 H   0  0  0  0  0  0  0  0  0  0  0  0
  142.7060   75.1620  219.8750 C   0  0  0  0  0  0  0  0  0  0  0  0
  144.0850   75.3110  220.0990 C   0  0  0  0  0  0  0  0  0  0  0  0
  144.5088   76.3132  220.2601 H   0  0  0  0  0  0  0  0  0  0  0  0
  144.9210   74.1900  220.1180 C   0  0  0  0  0  0  0  0  0  0  0  0
  145.9980   74.3108  220.3062 H   0  0  0  0  0  0  0  0  0  0  0  0
  144.3890   72.9160  219.8980 C   0  0  0  0  0  0  0  0  0  0  0  0
  145.2030   71.8310  219.9020 F   0  0  0  0  0  0  0  0  0  0  0  0
  143.0190   72.7600  219.6670 C   0  0  0  0  0  0  0  0  0  0  0  0
  142.6018   71.7572  219.4930 H   0  0  0  0  0  0  0  0  0  0  0  0
  142.1790   73.8770  219.6570 C   0  0  0  0  0  0  0  0  0  0  0  0
  141.1011   73.7502  219.4778 H   0  0  0  0  0  0  0  0  0  0  0  0
  139.9140   71.7190  223.2570 C   0  0  0  0  0  0  0  0  0  0  0  0
  140.4850   72.0350  224.4530 N   0  0  0  0  0  0  0  0  0  0  0  0
  140.4070   71.2140  225.5330 C   0  0  0  0  0  0  0  0  0  0  0  0
  141.0310   71.5700  226.7340 C   0  0  0  0  0  0  0  0  0  0  0  0
  141.5663   72.5277  226.8129 H   0  0  0  0  0  0  0  0  0  0  0  0
  140.9740   70.7080  227.8340 C   0  0  0  0  0  0  0  0  0  0  0  0
  141.4657   70.9889  228.7771 H   0  0  0  0  0  0  0  0  0  0  0  0
  140.2930   69.4890  227.7380 C   0  0  0  0  0  0  0  0  0  0  0  0
  140.2440   68.6560  228.8060 F   0  0  0  0  0  0  0  0  0  0  0  0
  139.6630   69.1260  226.5430 C   0  0  0  0  0  0  0  0  0  0  0  0
  139.1279   68.1676  226.4711 H   0  0  0  0  0  0  0  0  0  0  0  0
  139.7150   69.9870  225.4360 C   0  0  0  0  0  0  0  0  0  0  0  0
  139.1100   69.6470  224.2210 C   0  0  0  0  0  0  0  0  0  0  0  0
  138.5545   68.7021  224.1280 H   0  0  0  0  0  0  0  0  0  0  0  0
  139.2120   70.5080  223.1270 C   0  0  0  0  0  0  0  0  0  0  0  0
  138.7453   70.2401  222.1676 H   0  0  0  0  0  0  0  0  0  0  0  0
  1  2  1  0
  2  3  1  0
  3  4  2  0
  4  5  1  0
  5  6  1  0
  5  7  1  0
  5  8  1  0
  8  9  2  0
  8 10  1  0
 10 11  1  0
 11 12  1  0
 11 13  1  0
 11 14  1  0
 14 15  1  1
 14 16  1  0
 16 17  1  0
 14 18  1  0
 18 19  1  0
 18 20  1  0
 18 21  1  0
 21 22  1  6
 21 23  1  0
 23 24  2  0
 23 25  1  0
 25 26  1  0
 26 27  1  1
 26 28  1  0
 28 29  2  0
 29 30  1  0
 29 31  1  0
 31 32  1  0
 31 33  2  0
 33 34  1  0
 33 35  1  0
 35 36  1  0
 35 37  2  0
 37 38  1  0
 26 39  1  0
 39 40  1  0
 39 41  1  0
 39 42  1  0
 42 43  2  0
 43 44  1  0
 43 45  1  0
 45 46  1  0
 45 47  2  0
 47 48  1  0
 47 49  1  0
 49 50  1  0
 49 51  2  0
 51 52  1  0
  3 53  1  0
 53 54  2  0
 54 55  1  0
 55 56  2  0
 56 57  1  0
 56 58  1  0
 58 59  1  0
 58 60  2  0
 60 61  1  0
 60 62  1  0
 62 63  1  0
 62 64  2  0
 64 65  1  0
 65 66  1  0
 65 67  2  0
 67 68  1  0
 21 10  1  0
 37 28  1  0
 51 42  1  0
 67 53  1  0
 64 55  1  0
M  CHG  1  25  -1
M  END
>  <UniqueID>  (61) 
4

>  <SMILES>  (61) 
O=C([N-][C@@H](Cc1ccc(F)cc1)c1ccccc1)[C@@H]1C[C@@H](O)CN1C(=O)C/N=C(\O)c1ccc2cc(F)ccc2n1

>  <Energy>  (61) 
71.37747220442975

>  <Genealogy>  (61) 
O=C(NCC(=O)N1C[C@H](O)C[C@H]1C(=O)[N-][C@@H](Cc1ccc(F)cc1)c1ccccc1)c1ccc2cc(F)ccc2n1 (protonated)
O=C([N-][C@@H](Cc1ccc(F)cc1)c1ccccc1)[C@@H]1C[C@@H](O)CN1C(=O)CN=C(O)c1ccc2cc(F)ccc2n1 (tautomer)
O=C([N-][C@@H](Cc1ccc(F)cc1)c1ccccc1)[C@@H]1C[C@@H](O)CN1C(=O)C/N=C(\O)c1ccc2cc(F)ccc2n1 (cis-trans isomerization)
O=C([N-][C@@H](Cc1ccc(F)cc1)c1ccccc1)[C@@H]1C[C@@H](O)CN1C(=O)C/N=C(\O)c1ccc2cc(F)ccc2n1 (3D coordinates assigned)
O=C([N-][C@@H](Cc1ccc(F)cc1)c1ccccc1)[C@@H]1C[C@@H](O)CN1C(=O)C/N=C(\O)c1ccc2cc(F)ccc2n1 (nonaromatic ring conformer: 71.37747220442975 kcal/mol)

>  <smiles>  (61) 
O=C(NCC(=O)N1C[C@H](O)C[C@H]1C(=O)N[C@@H](Cc1ccc(F)cc1)c1ccccc1)c1ccc2cc(F)ccc2n1

>  <score_type>  (61) 
oracle

>  <origin>  (61) 
autodockgpu

>  <m_score__min__energy>  (61) 
-9.3499999999999996

>  <m_primary>  (61) 
energy

>  <meeko>  (61) 
{"free_energy": -7.85, "intermolecular_energy": -11.73, "internal_energy": -4.28, "cluster_size": 5, "cluster_id": 3, "rank_in_cluster": 5}

>  <energy>  (61) 
-9.35

>  <cluster_rmsd>  (61) 
0.0

>  <rmsd>  (61) 
271.31

>  <cluster>  (61) 
1

$$$$
XFBXCNWOYUAVIW-ZAPLKEHQNA-M
     RDKit          3D

 68 72  0  0  0  0  0  0  0  0999 V2000
  138.9600   70.6120  220.4910 H   0  0  0  0  0  0  0  0  0  0  0  0
  138.5860   70.5820  221.4300 O   0  0  0  0  0  0  0  0  0  0  0  0
  139.2300   71.1460  222.5360 C   0  0  0  0  0  0  0  0  0  0  0  0
  139.6610   72.3760  222.5270 N   0  0  0  0  0  0  0  0  0  0  0  0
  141.0380   72.8100  222.3050 C   0  0  0  0  0  0  0  0  0  0  0  0
  141.7002   72.2812  223.0064 H   0  0  0  0  0  0  0  0  0  0  0  0
  141.0957   73.8963  222.4684 H   0  0  0  0  0  0  0  0  0  0  0  0
  141.4710   72.5120  220.9010 C   0  0  0  0  0  0  0  0  0  0  0  0
  140.8220   71.6950  220.1980 O   0  0  0  0  0  0  0  0  0  0  0  0
  142.6280   73.1490  220.3560 N   0  0  0  0  0  0  0  0  0  0  0  0
  143.6480   72.4210  219.6270 C   0  0  0  0  0  0  0  0  0  0  0  0
  143.2031   71.8779  218.7802 H   0  0  0  0  0  0  0  0  0  0  0  0
  144.1476   71.6712  220.2581 H   0  0  0  0  0  0  0  0  0  0  0  0
  144.6210   73.4850  219.1280 C   0  0  2  0  0  0  0  0  0  0  0  0
  144.4748   73.7048  218.0601 H   0  0  0  0  0  0  0  0  0  0  0  0
  145.9470   73.0450  219.2590 O   0  0  0  0  0  0  0  0  0  0  0  0
  146.5240   73.8100  218.9970 H   0  0  0  0  0  0  0  0  0  0  0  0
  144.3560   74.7260  219.9910 C   0  0  0  0  0  0  0  0  0  0  0  0
  144.4237   75.6384  219.3803 H   0  0  0  0  0  0  0  0  0  0  0  0
  145.0953   74.8209  220.8000 H   0  0  0  0  0  0  0  0  0  0  0  0
  142.9360   74.5580  220.5430 C   0  0  1  0  0  0  0  0  0  0  0  0
  142.8721   74.8694  221.5961 H   0  0  0  0  0  0  0  0  0  0  0  0
  141.9450   75.4160  219.7860 C   0  0  0  0  0  0  0  0  0  0  0  0
  141.3590   74.9300  218.7820 O   0  0  0  0  0  0  0  0  0  0  0  0
  141.6550   76.7740  220.1510 N   0  0  0  0  0  0  0  0  0  0  0  0
  140.7140   77.2300  221.1750 C   0  0  2  0  0  0  0  0  0  0  0  0
  139.7821   77.5539  220.6885 H   0  0  0  0  0  0  0  0  0  0  0  0
  141.3120   78.4010  221.9310 C   0  0  0  0  0  0  0  0  0  0  0  0
  141.8230   79.5250  221.2550 C   0  0  0  0  0  0  0  0  0  0  0  0
  141.7627   79.5784  220.1580 H   0  0  0  0  0  0  0  0  0  0  0  0
  142.4070   80.5740  221.9720 C   0  0  0  0  0  0  0  0  0  0  0  0
  142.7892   81.4571  221.4390 H   0  0  0  0  0  0  0  0  0  0  0  0
  142.5060   80.5030  223.3630 C   0  0  0  0  0  0  0  0  0  0  0  0
  142.9591   81.3328  223.9253 H   0  0  0  0  0  0  0  0  0  0  0  0
  142.0300   79.3790  224.0400 C   0  0  0  0  0  0  0  0  0  0  0  0
  142.1176   79.3184  225.1348 H   0  0  0  0  0  0  0  0  0  0  0  0
  141.4430   78.3320  223.3280 C   0  0  0  0  0  0  0  0  0  0  0  0
  141.0793   77.4441  223.8659 H   0  0  0  0  0  0  0  0  0  0  0  0
  140.3810   76.0790  222.1470 C   0  0  0  0  0  0  0  0  0  0  0  0
  140.9509   75.1856  221.8519 H   0  0  0  0  0  0  0  0  0  0  0  0
  140.6515   76.3970  223.1647 H   0  0  0  0  0  0  0  0  0  0  0  0
  138.9100   75.7500  222.1290 C   0  0  0  0  0  0  0  0  0  0  0  0
  138.0380   76.3700  223.0380 C   0  0  0  0  0  0  0  0  0  0  0  0
  138.4228   77.1277  223.7364 H   0  0  0  0  0  0  0  0  0  0  0  0
  136.6820   76.0280  223.0590 C   0  0  0  0  0  0  0  0  0  0  0  0
  136.0006   76.5262  223.7643 H   0  0  0  0  0  0  0  0  0  0  0  0
  136.1920   75.0540  222.1850 C   0  0  0  0  0  0  0  0  0  0  0  0
  134.8790   74.7140  222.2160 F   0  0  0  0  0  0  0  0  0  0  0  0
  137.0550   74.4270  221.2810 C   0  0  0  0  0  0  0  0  0  0  0  0
  136.6681   73.6609  220.5929 H   0  0  0  0  0  0  0  0  0  0  0  0
  138.4090   74.7730  221.2510 C   0  0  0  0  0  0  0  0  0  0  0  0
  139.0851   74.2789  220.5377 H   0  0  0  0  0  0  0  0  0  0  0  0
  139.4320   70.3010  223.7290 C   0  0  0  0  0  0  0  0  0  0  0  0
  140.0060   70.8500  224.8350 N   0  0  0  0  0  0  0  0  0  0  0  0
  140.2150   70.1370  225.9740 C   0  0  0  0  0  0  0  0  0  0  0  0
  140.8320   70.7380  227.0770 C   0  0  0  0  0  0  0  0  0  0  0  0
  141.1281   71.7965  227.0327 H   0  0  0  0  0  0  0  0  0  0  0  0
  141.0720   69.9920  228.2360 C   0  0  0  0  0  0  0  0  0  0  0  0
  141.5574   70.4652  229.1023 H   0  0  0  0  0  0  0  0  0  0  0  0
  140.6960   68.6450  228.2960 C   0  0  0  0  0  0  0  0  0  0  0  0
  140.9340   67.9270  229.4200 F   0  0  0  0  0  0  0  0  0  0  0  0
  140.0750   68.0370  227.1990 C   0  0  0  0  0  0  0  0  0  0  0  0
  139.7797   66.9786  227.2496 H   0  0  0  0  0  0  0  0  0  0  0  0
  139.8300   68.7800  226.0350 C   0  0  0  0  0  0  0  0  0  0  0  0
  139.2270   68.1980  224.9150 C   0  0  0  0  0  0  0  0  0  0  0  0
  138.9074   67.1459  224.9466 H   0  0  0  0  0  0  0  0  0  0  0  0
  139.0310   68.9530  223.7570 C   0  0  0  0  0  0  0  0  0  0  0  0
  138.5655   68.4961  222.8713 H   0  0  0  0  0  0  0  0  0  0  0  0
  1  2  1  0
  2  3  1  0
  3  4  2  0
  4  5  1  0
  5  6  1  0
  5  7  1  0
  5  8  1  0
  8  9  2  0
  8 10  1  0
 10 11  1  0
 11 12  1  0
 11 13  1  0
 11 14  1  0
 14 15  1  6
 14 16  1  0
 16 17  1  0
 14 18  1  0
 18 19  1  0
 18 20  1  0
 18 21  1  0
 21 22  1  1
 21 23  1  0
 23 24  2  0
 23 25  1  0
 25 26  1  0
 26 27  1  6
 26 28  1  0
 28 29  2  0
 29 30  1  0
 29 31  1  0
 31 32  1  0
 31 33  2  0
 33 34  1  0
 33 35  1  0
 35 36  1  0
 35 37  2  0
 37 38  1  0
 26 39  1  0
 39 40  1  0
 39 41  1  0
 39 42  1  0
 42 43  2  0
 43 44  1  0
 43 45  1  0
 45 46  1  0
 45 47  2  0
 47 48  1  0
 47 49  1  0
 49 50  1  0
 49 51  2  0
 51 52  1  0
  3 53  1  0
 53 54  2  0
 54 55  1  0
 55 56  2  0
 56 57  1  0
 56 58  1  0
 58 59  1  0
 58 60  2  0
 60 61  1  0
 60 62  1  0
 62 63  1  0
 62 64  2  0
 64 65  1  0
 65 66  1  0
 65 67  2  0
 67 68  1  0
 21 10  1  0
 37 28  1  0
 51 42  1  0
 67 53  1  0
 64 55  1  0
M  CHG  1  25  -1
M  END
>  <UniqueID>  (62) 
4

>  <SMILES>  (62) 
O=C([N-][C@@H](Cc1ccc(F)cc1)c1ccccc1)[C@@H]1C[C@@H](O)CN1C(=O)C/N=C(\O)c1ccc2cc(F)ccc2n1

>  <Energy>  (62) 
71.37747220442975

>  <Genealogy>  (62) 
O=C(NCC(=O)N1C[C@H](O)C[C@H]1C(=O)[N-][C@@H](Cc1ccc(F)cc1)c1ccccc1)c1ccc2cc(F)ccc2n1 (protonated)
O=C([N-][C@@H](Cc1ccc(F)cc1)c1ccccc1)[C@@H]1C[C@@H](O)CN1C(=O)CN=C(O)c1ccc2cc(F)ccc2n1 (tautomer)
O=C([N-][C@@H](Cc1ccc(F)cc1)c1ccccc1)[C@@H]1C[C@@H](O)CN1C(=O)C/N=C(\O)c1ccc2cc(F)ccc2n1 (cis-trans isomerization)
O=C([N-][C@@H](Cc1ccc(F)cc1)c1ccccc1)[C@@H]1C[C@@H](O)CN1C(=O)C/N=C(\O)c1ccc2cc(F)ccc2n1 (3D coordinates assigned)
O=C([N-][C@@H](Cc1ccc(F)cc1)c1ccccc1)[C@@H]1C[C@@H](O)CN1C(=O)C/N=C(\O)c1ccc2cc(F)ccc2n1 (nonaromatic ring conformer: 71.37747220442975 kcal/mol)

>  <smiles>  (62) 
O=C(NCC(=O)N1C[C@H](O)C[C@H]1C(=O)N[C@@H](Cc1ccc(F)cc1)c1ccccc1)c1ccc2cc(F)ccc2n1

>  <score_type>  (62) 
oracle

>  <origin>  (62) 
autodockgpu

>  <m_score__min__energy>  (62) 
-9.3499999999999996

>  <m_primary>  (62) 
energy

>  <meeko>  (62) 
{"free_energy": -8.35, "intermolecular_energy": -12.22, "internal_energy": -3.33, "cluster_size": 1, "cluster_id": 4, "rank_in_cluster": 1}

>  <energy>  (62) 
-9.11

>  <cluster_rmsd>  (62) 
1.72

>  <rmsd>  (62) 
271.24

>  <cluster>  (62) 
1

$$$$
XFBXCNWOYUAVIW-ZAPLKEHQNA-M
     RDKit          3D

 68 72  0  0  0  0  0  0  0  0999 V2000
  140.5770   74.5000  222.0930 H   0  0  0  0  0  0  0  0  0  0  0  0
  140.8660   73.5580  222.3160 O   0  0  0  0  0  0  0  0  0  0  0  0
  140.0240   72.4460  222.2060 C   0  0  0  0  0  0  0  0  0  0  0  0
  139.3300   72.2130  221.1270 N   0  0  0  0  0  0  0  0  0  0  0  0
  138.2610   73.0490  220.5860 C   0  0  0  0  0  0  0  0  0  0  0  0
  137.8572   72.5758  219.6788 H   0  0  0  0  0  0  0  0  0  0  0  0
  138.6743   74.0405  220.3490 H   0  0  0  0  0  0  0  0  0  0  0  0
  137.1580   73.2150  221.5860 C   0  0  0  0  0  0  0  0  0  0  0  0
  136.5100   72.2130  221.9880 O   0  0  0  0  0  0  0  0  0  0  0  0
  136.8290   74.5130  222.0840 N   0  0  0  0  0  0  0  0  0  0  0  0
  135.8380   74.7230  223.1210 C   0  0  0  0  0  0  0  0  0  0  0  0
  136.0872   74.1356  224.0170 H   0  0  0  0  0  0  0  0  0  0  0  0
  134.8349   74.4044  222.8011 H   0  0  0  0  0  0  0  0  0  0  0  0
  135.8900   76.2160  223.4290 C   0  0  2  0  0  0  0  0  0  0  0  0
  136.4366   76.4222  224.3611 H   0  0  0  0  0  0  0  0  0  0  0  0
  134.5960   76.7310  223.6110 O   0  0  0  0  0  0  0  0  0  0  0  0
  133.9680   75.9840  223.4270 H   0  0  0  0  0  0  0  0  0  0  0  0
  136.5840   76.8640  222.2240 C   0  0  0  0  0  0  0  0  0  0  0  0
  137.2535   77.6710  222.5564 H   0  0  0  0  0  0  0  0  0  0  0  0
  135.8561   77.3106  221.5306 H   0  0  0  0  0  0  0  0  0  0  0  0
  137.3890   75.7460  221.5520 C   0  0  1  0  0  0  0  0  0  0  0  0
  137.3233   75.8034  220.4555 H   0  0  0  0  0  0  0  0  0  0  0  0
  138.8600   75.8430  221.8950 C   0  0  0  0  0  0  0  0  0  0  0  0
  139.2220   75.6660  223.0890 O   0  0  0  0  0  0  0  0  0  0  0  0
  139.8670   76.1480  220.9170 N   0  0  0  0  0  0  0  0  0  0  0  0
  141.2810   76.4300  221.1650 C   0  0  2  0  0  0  0  0  0  0  0  0
  141.6719   75.7021  221.8911 H   0  0  0  0  0  0  0  0  0  0  0  0
  141.4290   77.8270  221.7360 C   0  0  0  0  0  0  0  0  0  0  0  0
  141.6750   78.9360  220.9050 C   0  0  0  0  0  0  0  0  0  0  0  0
  141.7306   78.8015  219.8147 H   0  0  0  0  0  0  0  0  0  0  0  0
  141.8490   80.2080  221.4590 C   0  0  0  0  0  0  0  0  0  0  0  0
  142.0232   81.0734  220.8027 H   0  0  0  0  0  0  0  0  0  0  0  0
  141.8020   80.3820  222.8440 C   0  0  0  0  0  0  0  0  0  0  0  0
  141.9320   81.3847  223.2773 H   0  0  0  0  0  0  0  0  0  0  0  0
  141.5900   79.2830  223.6780 C   0  0  0  0  0  0  0  0  0  0  0  0
  141.5639   79.4186  224.7693 H   0  0  0  0  0  0  0  0  0  0  0  0
  141.4110   78.0120  223.1290 C   0  0  0  0  0  0  0  0  0  0  0  0
  141.2546   77.1484  223.7921 H   0  0  0  0  0  0  0  0  0  0  0  0
  142.0900   76.2960  219.8580 C   0  0  0  0  0  0  0  0  0  0  0  0
  141.3922   76.2500  219.0089 H   0  0  0  0  0  0  0  0  0  0  0  0
  142.7542   77.1687  219.7724 H   0  0  0  0  0  0  0  0  0  0  0  0
  142.9410   75.0530  219.8600 C   0  0  0  0  0  0  0  0  0  0  0  0
  142.3520   73.7940  219.6580 C   0  0  0  0  0  0  0  0  0  0  0  0
  141.2732   73.7199  219.4566 H   0  0  0  0  0  0  0  0  0  0  0  0
  143.1320   72.6340  219.7120 C   0  0  0  0  0  0  0  0  0  0  0  0
  142.6679   71.6515  219.5409 H   0  0  0  0  0  0  0  0  0  0  0  0
  144.5000   72.7220  219.9830 C   0  0  0  0  0  0  0  0  0  0  0  0
  145.2520   71.5950  220.0480 F   0  0  0  0  0  0  0  0  0  0  0  0
  145.0920   73.9710  220.1920 C   0  0  0  0  0  0  0  0  0  0  0  0
  146.1689   74.0396  220.4056 H   0  0  0  0  0  0  0  0  0  0  0  0
  144.3180   75.1320  220.1300 C   0  0  0  0  0  0  0  0  0  0  0  0
  144.7884   76.1129  220.2933 H   0  0  0  0  0  0  0  0  0  0  0  0
  139.9190   71.5350  223.3620 C   0  0  0  0  0  0  0  0  0  0  0  0
  140.4960   71.8970  224.5410 N   0  0  0  0  0  0  0  0  0  0  0  0
  140.4320   71.1150  225.6510 C   0  0  0  0  0  0  0  0  0  0  0  0
  141.0620   71.5180  226.8330 C   0  0  0  0  0  0  0  0  0  0  0  0
  141.5913   72.4814  226.8732 H   0  0  0  0  0  0  0  0  0  0  0  0
  141.0190   70.6960  227.9640 C   0  0  0  0  0  0  0  0  0  0  0  0
  141.5152   71.0143  228.8927 H   0  0  0  0  0  0  0  0  0  0  0  0
  140.3460   69.4690  227.9170 C   0  0  0  0  0  0  0  0  0  0  0  0
  140.3110   68.6750  229.0150 F   0  0  0  0  0  0  0  0  0  0  0  0
  139.7100   69.0600  226.7400 C   0  0  0  0  0  0  0  0  0  0  0  0
  139.1807   68.0963  226.7064 H   0  0  0  0  0  0  0  0  0  0  0  0
  139.7480   69.8800  225.6030 C   0  0  0  0  0  0  0  0  0  0  0  0
  139.1370   69.4920  224.4060 C   0  0  0  0  0  0  0  0  0  0  0  0
  138.5877   68.5405  224.3514 H   0  0  0  0  0  0  0  0  0  0  0  0
  139.2250   70.3140  223.2800 C   0  0  0  0  0  0  0  0  0  0  0  0
  138.7541   70.0082  222.3341 H   0  0  0  0  0  0  0  0  0  0  0  0
  1  2  1  0
  2  3  1  0
  3  4  2  0
  4  5  1  0
  5  6  1  0
  5  7  1  0
  5  8  1  0
  8  9  2  0
  8 10  1  0
 10 11  1  0
 11 12  1  0
 11 13  1  0
 11 14  1  0
 14 15  1  1
 14 16  1  0
 16 17  1  0
 14 18  1  0
 18 19  1  0
 18 20  1  0
 18 21  1  0
 21 22  1  6
 21 23  1  0
 23 24  2  0
 23 25  1  0
 25 26  1  0
 26 27  1  1
 26 28  1  0
 28 29  2  0
 29 30  1  0
 29 31  1  0
 31 32  1  0
 31 33  2  0
 33 34  1  0
 33 35  1  0
 35 36  1  0
 35 37  2  0
 37 38  1  0
 26 39  1  0
 39 40  1  0
 39 41  1  0
 39 42  1  0
 42 43  2  0
 43 44  1  0
 43 45  1  0
 45 46  1  0
 45 47  2  0
 47 48  1  0
 47 49  1  0
 49 50  1  0
 49 51  2  0
 51 52  1  0
  3 53  1  0
 53 54  2  0
 54 55  1  0
 55 56  2  0
 56 57  1  0
 56 58  1  0
 58 59  1  0
 58 60  2  0
 60 61  1  0
 60 62  1  0
 62 63  1  0
 62 64  2  0
 64 65  1  0
 65 66  1  0
 65 67  2  0
 67 68  1  0
 21 10  1  0
 37 28  1  0
 51 42  1  0
 67 53  1  0
 64 55  1  0
M  CHG  1  25  -1
M  END
>  <UniqueID>  (63) 
4

>  <SMILES>  (63) 
O=C([N-][C@@H](Cc1ccc(F)cc1)c1ccccc1)[C@@H]1C[C@@H](O)CN1C(=O)C/N=C(\O)c1ccc2cc(F)ccc2n1

>  <Energy>  (63) 
71.37747220442975

>  <Genealogy>  (63) 
O=C(NCC(=O)N1C[C@H](O)C[C@H]1C(=O)[N-][C@@H](Cc1ccc(F)cc1)c1ccccc1)c1ccc2cc(F)ccc2n1 (protonated)
O=C([N-][C@@H](Cc1ccc(F)cc1)c1ccccc1)[C@@H]1C[C@@H](O)CN1C(=O)CN=C(O)c1ccc2cc(F)ccc2n1 (tautomer)
O=C([N-][C@@H](Cc1ccc(F)cc1)c1ccccc1)[C@@H]1C[C@@H](O)CN1C(=O)C/N=C(\O)c1ccc2cc(F)ccc2n1 (cis-trans isomerization)
O=C([N-][C@@H](Cc1ccc(F)cc1)c1ccccc1)[C@@H]1C[C@@H](O)CN1C(=O)C/N=C(\O)c1ccc2cc(F)ccc2n1 (3D coordinates assigned)
O=C([N-][C@@H](Cc1ccc(F)cc1)c1ccccc1)[C@@H]1C[C@@H](O)CN1C(=O)C/N=C(\O)c1ccc2cc(F)ccc2n1 (nonaromatic ring conformer: 71.37747220442975 kcal/mol)

>  <smiles>  (63) 
O=C(NCC(=O)N1C[C@H](O)C[C@H]1C(=O)N[C@@H](Cc1ccc(F)cc1)c1ccccc1)c1ccc2cc(F)ccc2n1

>  <score_type>  (63) 
oracle

>  <origin>  (63) 
autodockgpu

>  <m_score__min__energy>  (63) 
-9.3499999999999996

>  <m_primary>  (63) 
energy

>  <meeko>  (63) 
{"free_energy": -7.96, "intermolecular_energy": -11.84, "internal_energy": -4.31, "cluster_size": 5, "cluster_id": 3, "rank_in_cluster": 4}

>  <energy>  (63) 
-7.98

>  <cluster_rmsd>  (63) 
1.8

>  <rmsd>  (63) 
270.98

>  <cluster>  (63) 
1

$$$$
XFBXCNWOYUAVIW-ZAPLKEHQNA-M
     RDKit          3D

 68 72  0  0  0  0  0  0  0  0999 V2000
  138.8870   74.9010  222.8640 H   0  0  0  0  0  0  0  0  0  0  0  0
  138.0170   75.3830  222.6870 O   0  0  0  0  0  0  0  0  0  0  0  0
  137.9220   76.5500  221.9220 C   0  0  0  0  0  0  0  0  0  0  0  0
  137.2870   76.5760  220.7830 N   0  0  0  0  0  0  0  0  0  0  0  0
  137.8880   76.7040  219.4580 C   0  0  0  0  0  0  0  0  0  0  0  0
  138.4170   77.6663  219.3935 H   0  0  0  0  0  0  0  0  0  0  0  0
  137.0898   76.6541  218.7028 H   0  0  0  0  0  0  0  0  0  0  0  0
  138.8590   75.5920  219.2040 C   0  0  0  0  0  0  0  0  0  0  0  0
  138.4560   74.4890  218.7520 O   0  0  0  0  0  0  0  0  0  0  0  0
  140.2490   75.7750  219.4820 N   0  0  0  0  0  0  0  0  0  0  0  0
  140.9820   76.9500  219.0540 C   0  0  0  0  0  0  0  0  0  0  0  0
  140.4994   77.8640  219.4305 H   0  0  0  0  0  0  0  0  0  0  0  0
  141.0151   77.0370  217.9579 H   0  0  0  0  0  0  0  0  0  0  0  0
  142.3760   76.7940  219.6560 C   0  0  2  0  0  0  0  0  0  0  0  0
  142.5132   77.4298  220.5431 H   0  0  0  0  0  0  0  0  0  0  0  0
  143.3600   77.1880  218.7350 O   0  0  0  0  0  0  0  0  0  0  0  0
  144.0790   77.6250  219.2630 H   0  0  0  0  0  0  0  0  0  0  0  0
  142.5080   75.3080  220.0130 C   0  0  0  0  0  0  0  0  0  0  0  0
  143.0482   75.1896  220.9639 H   0  0  0  0  0  0  0  0  0  0  0  0
  143.0736   74.7575  219.2468 H   0  0  0  0  0  0  0  0  0  0  0  0
  141.0760   74.7780  220.1440 C   0  0  1  0  0  0  0  0  0  0  0  0
  140.9720   73.7778  219.6982 H   0  0  0  0  0  0  0  0  0  0  0  0
  140.6700   74.6380  221.5950 C   0  0  0  0  0  0  0  0  0  0  0  0
  140.9360   75.5750  222.3950 O   0  0  0  0  0  0  0  0  0  0  0  0
  140.0060   73.4740  222.1070 N   0  0  0  0  0  0  0  0  0  0  0  0
  140.6320   72.2590  222.6300 C   0  0  2  0  0  0  0  0  0  0  0  0
  141.3500   72.5340  223.4167 H   0  0  0  0  0  0  0  0  0  0  0  0
  141.3700   71.5450  221.5140 C   0  0  0  0  0  0  0  0  0  0  0  0
  142.6890   71.8940  221.1680 C   0  0  0  0  0  0  0  0  0  0  0  0
  143.2146   72.6774  221.7337 H   0  0  0  0  0  0  0  0  0  0  0  0
  143.3340   71.2490  220.1080 C   0  0  0  0  0  0  0  0  0  0  0  0
  144.3704   71.5149  219.8527 H   0  0  0  0  0  0  0  0  0  0  0  0
  142.6650   70.2680  219.3730 C   0  0  0  0  0  0  0  0  0  0  0  0
  143.1772   69.7562  218.5449 H   0  0  0  0  0  0  0  0  0  0  0  0
  141.3470   69.9370  219.6890 C   0  0  0  0  0  0  0  0  0  0  0  0
  140.8166   69.1726  219.1022 H   0  0  0  0  0  0  0  0  0  0  0  0
  140.7010   70.5750  220.7490 C   0  0  0  0  0  0  0  0  0  0  0  0
  139.6589   70.3161  220.9875 H   0  0  0  0  0  0  0  0  0  0  0  0
  139.5660   71.3310  223.2480 C   0  0  0  0  0  0  0  0  0  0  0  0
  138.6334   71.8985  223.3831 H   0  0  0  0  0  0  0  0  0  0  0  0
  139.4125   70.4809  222.5670 H   0  0  0  0  0  0  0  0  0  0  0  0
  140.0090   70.7920  224.5840 C   0  0  0  0  0  0  0  0  0  0  0  0
  139.6540   69.4900  224.9720 C   0  0  0  0  0  0  0  0  0  0  0  0
  139.0864   68.8479  224.2824 H   0  0  0  0  0  0  0  0  0  0  0  0
  140.0200   69.0070  226.2330 C   0  0  0  0  0  0  0  0  0  0  0  0
  139.7506   67.9820  226.5275 H   0  0  0  0  0  0  0  0  0  0  0  0
  140.7270   69.8240  227.1190 C   0  0  0  0  0  0  0  0  0  0  0  0
  141.0680   69.3590  228.3460 F   0  0  0  0  0  0  0  0  0  0  0  0
  141.0780   71.1250  226.7420 C   0  0  0  0  0  0  0  0  0  0  0  0
  141.6340   71.7682  227.4400 H   0  0  0  0  0  0  0  0  0  0  0  0
  140.7230   71.6080  225.4800 C   0  0  0  0  0  0  0  0  0  0  0  0
  141.0030   72.6303  225.1860 H   0  0  0  0  0  0  0  0  0  0  0  0
  138.5820   77.7700  222.4270 C   0  0  0  0  0  0  0  0  0  0  0  0
  139.9400   77.8530  222.3760 N   0  0  0  0  0  0  0  0  0  0  0  0
  140.6180   78.9470  222.8120 C   0  0  0  0  0  0  0  0  0  0  0  0
  142.0160   78.9760  222.7620 C   0  0  0  0  0  0  0  0  0  0  0  0
  142.5694   78.1207  222.3469 H   0  0  0  0  0  0  0  0  0  0  0  0
  142.7100   80.0930  223.2400 C   0  0  0  0  0  0  0  0  0  0  0  0
  143.8091   80.1144  223.2007 H   0  0  0  0  0  0  0  0  0  0  0  0
  142.0090   81.1830  223.7680 C   0  0  0  0  0  0  0  0  0  0  0  0
  142.6870   82.2610  224.2340 F   0  0  0  0  0  0  0  0  0  0  0  0
  140.6110   81.1650  223.8190 C   0  0  0  0  0  0  0  0  0  0  0  0
  140.0635   82.0242  224.2338 H   0  0  0  0  0  0  0  0  0  0  0  0
  139.9090   80.0490  223.3400 C   0  0  0  0  0  0  0  0  0  0  0  0
  138.5120   79.9910  223.3910 C   0  0  0  0  0  0  0  0  0  0  0  0
  137.9401   80.8437  223.7857 H   0  0  0  0  0  0  0  0  0  0  0  0
  137.8440   78.8510  222.9410 C   0  0  0  0  0  0  0  0  0  0  0  0
  136.7463   78.7985  222.9882 H   0  0  0  0  0  0  0  0  0  0  0  0
  1  2  1  0
  2  3  1  0
  3  4  2  0
  4  5  1  0
  5  6  1  0
  5  7  1  0
  5  8  1  0
  8  9  2  0
  8 10  1  0
 10 11  1  0
 11 12  1  0
 11 13  1  0
 11 14  1  0
 14 15  1  1
 14 16  1  0
 16 17  1  0
 14 18  1  0
 18 19  1  0
 18 20  1  0
 18 21  1  0
 21 22  1  6
 21 23  1  0
 23 24  2  0
 23 25  1  0
 25 26  1  0
 26 27  1  1
 26 28  1  0
 28 29  2  0
 29 30  1  0
 29 31  1  0
 31 32  1  0
 31 33  2  0
 33 34  1  0
 33 35  1  0
 35 36  1  0
 35 37  2  0
 37 38  1  0
 26 39  1  0
 39 40  1  0
 39 41  1  0
 39 42  1  0
 42 43  2  0
 43 44  1  0
 43 45  1  0
 45 46  1  0
 45 47  2  0
 47 48  1  0
 47 49  1  0
 49 50  1  0
 49 51  2  0
 51 52  1  0
  3 53  1  0
 53 54  2  0
 54 55  1  0
 55 56  2  0
 56 57  1  0
 56 58  1  0
 58 59  1  0
 58 60  2  0
 60 61  1  0
 60 62  1  0
 62 63  1  0
 62 64  2  0
 64 65  1  0
 65 66  1  0
 65 67  2  0
 67 68  1  0
 21 10  1  0
 37 28  1  0
 51 42  1  0
 67 53  1  0
 64 55  1  0
M  CHG  1  25  -1
M  END
>  <UniqueID>  (64) 
4

>  <SMILES>  (64) 
O=C([N-][C@@H](Cc1ccc(F)cc1)c1ccccc1)[C@@H]1C[C@@H](O)CN1C(=O)C/N=C(\O)c1ccc2cc(F)ccc2n1

>  <Energy>  (64) 
71.37747220442975

>  <Genealogy>  (64) 
O=C(NCC(=O)N1C[C@H](O)C[C@H]1C(=O)[N-][C@@H](Cc1ccc(F)cc1)c1ccccc1)c1ccc2cc(F)ccc2n1 (protonated)
O=C([N-][C@@H](Cc1ccc(F)cc1)c1ccccc1)[C@@H]1C[C@@H](O)CN1C(=O)CN=C(O)c1ccc2cc(F)ccc2n1 (tautomer)
O=C([N-][C@@H](Cc1ccc(F)cc1)c1ccccc1)[C@@H]1C[C@@H](O)CN1C(=O)C/N=C(\O)c1ccc2cc(F)ccc2n1 (cis-trans isomerization)
O=C([N-][C@@H](Cc1ccc(F)cc1)c1ccccc1)[C@@H]1C[C@@H](O)CN1C(=O)C/N=C(\O)c1ccc2cc(F)ccc2n1 (3D coordinates assigned)
O=C([N-][C@@H](Cc1ccc(F)cc1)c1ccccc1)[C@@H]1C[C@@H](O)CN1C(=O)C/N=C(\O)c1ccc2cc(F)ccc2n1 (nonaromatic ring conformer: 71.37747220442975 kcal/mol)

>  <smiles>  (64) 
O=C(NCC(=O)N1C[C@H](O)C[C@H]1C(=O)N[C@@H](Cc1ccc(F)cc1)c1ccccc1)c1ccc2cc(F)ccc2n1

>  <score_type>  (64) 
oracle

>  <origin>  (64) 
autodockgpu

>  <m_score__min__energy>  (64) 
-9.3499999999999996

>  <m_primary>  (64) 
energy

>  <meeko>  (64) 
{"free_energy": -7.94, "intermolecular_energy": -11.82, "internal_energy": -4.44, "cluster_size": 3, "cluster_id": 7, "rank_in_cluster": 2}

>  <energy>  (64) 
-7.87

>  <cluster_rmsd>  (64) 
1.74

>  <rmsd>  (64) 
271.02

>  <cluster>  (64) 
1

$$$$
XFBXCNWOYUAVIW-ZAPLKEHQNA-M
     RDKit          3D

 68 72  0  0  0  0  0  0  0  0999 V2000
  139.3220   73.8180  223.0850 H   0  0  0  0  0  0  0  0  0  0  0  0
  139.9600   73.0450  222.9550 O   0  0  0  0  0  0  0  0  0  0  0  0
  139.5440   71.7270  222.7410 C   0  0  0  0  0  0  0  0  0  0  0  0
  139.0480   71.3400  221.5990 N   0  0  0  0  0  0  0  0  0  0  0  0
  139.6480   71.5370  220.2810 C   0  0  0  0  0  0  0  0  0  0  0  0
  139.2318   70.7973  219.5813 H   0  0  0  0  0  0  0  0  0  0  0  0
  140.7374   71.4122  220.3679 H   0  0  0  0  0  0  0  0  0  0  0  0
  139.3630   72.9140  219.7660 C   0  0  0  0  0  0  0  0  0  0  0  0
  140.2520   73.5570  219.1490 O   0  0  0  0  0  0  0  0  0  0  0  0
  138.0820   73.5100  219.9800 N   0  0  0  0  0  0  0  0  0  0  0  0
  136.8420   72.7880  219.7750 C   0  0  0  0  0  0  0  0  0  0  0  0
  136.8269   71.8685  220.3786 H   0  0  0  0  0  0  0  0  0  0  0  0
  136.7137   72.4818  218.7263 H   0  0  0  0  0  0  0  0  0  0  0  0
  135.7420   73.7430  220.2280 C   0  0  2  0  0  0  0  0  0  0  0  0
  135.3539   73.4784  221.2227 H   0  0  0  0  0  0  0  0  0  0  0  0
  134.6460   73.6880  219.3520 O   0  0  0  0  0  0  0  0  0  0  0  0
  133.8740   74.0710  219.8440 H   0  0  0  0  0  0  0  0  0  0  0  0
  136.3820   75.1380  220.2350 C   0  0  0  0  0  0  0  0  0  0  0  0
  136.0217   75.7200  221.0961 H   0  0  0  0  0  0  0  0  0  0  0  0
  136.1242   75.7053  219.3286 H   0  0  0  0  0  0  0  0  0  0  0  0
  137.8930   74.9060  220.3430 C   0  0  1  0  0  0  0  0  0  0  0  0
  138.4556   75.5922  219.6929 H   0  0  0  0  0  0  0  0  0  0  0  0
  138.3890   75.1540  221.7510 C   0  0  0  0  0  0  0  0  0  0  0  0
  137.5620   75.1310  222.7020 O   0  0  0  0  0  0  0  0  0  0  0  0
  139.7650   75.4310  222.0530 N   0  0  0  0  0  0  0  0  0  0  0  0
  140.5250   76.6270  221.6860 C   0  0  2  0  0  0  0  0  0  0  0  0
  139.8589   77.3318  221.1668 H   0  0  0  0  0  0  0  0  0  0  0  0
  141.6610   76.2440  220.7570 C   0  0  0  0  0  0  0  0  0  0  0  0
  142.1050   77.1150  219.7460 C   0  0  0  0  0  0  0  0  0  0  0  0
  141.6468   78.1094  219.6400 H   0  0  0  0  0  0  0  0  0  0  0  0
  143.1260   76.7230  218.8750 C   0  0  0  0  0  0  0  0  0  0  0  0
  143.4796   77.4154  218.0968 H   0  0  0  0  0  0  0  0  0  0  0  0
  143.6980   75.4540  218.9910 C   0  0  0  0  0  0  0  0  0  0  0  0
  144.5073   75.1508  218.3105 H   0  0  0  0  0  0  0  0  0  0  0  0
  143.2420   74.5710  219.9710 C   0  0  0  0  0  0  0  0  0  0  0  0
  143.6840   73.5672  220.0545 H   0  0  0  0  0  0  0  0  0  0  0  0
  142.2260   74.9600  220.8450 C   0  0  0  0  0  0  0  0  0  0  0  0
  141.8644   74.2560  221.6090 H   0  0  0  0  0  0  0  0  0  0  0  0
  141.0760   77.3190  222.9500 C   0  0  0  0  0  0  0  0  0  0  0  0
  140.3766   77.1524  223.7825 H   0  0  0  0  0  0  0  0  0  0  0  0
  142.0631   76.8897  223.1764 H   0  0  0  0  0  0  0  0  0  0  0  0
  141.2420   78.8020  222.7390 C   0  0  0  0  0  0  0  0  0  0  0  0
  140.2270   79.5430  222.1120 C   0  0  0  0  0  0  0  0  0  0  0  0
  139.2923   79.0472  221.8110 H   0  0  0  0  0  0  0  0  0  0  0  0
  140.4010   80.9100  221.8690 C   0  0  0  0  0  0  0  0  0  0  0  0
  139.5978   81.4890  221.3897 H   0  0  0  0  0  0  0  0  0  0  0  0
  141.5930   81.5410  222.2340 C   0  0  0  0  0  0  0  0  0  0  0  0
  141.7650   82.8630  221.9850 F   0  0  0  0  0  0  0  0  0  0  0  0
  142.6100   80.8080  222.8530 C   0  0  0  0  0  0  0  0  0  0  0  0
  143.5481   81.3053  223.1406 H   0  0  0  0  0  0  0  0  0  0  0  0
  142.4370   79.4450  223.1070 C   0  0  0  0  0  0  0  0  0  0  0  0
  143.2387   78.8728  223.5967 H   0  0  0  0  0  0  0  0  0  0  0  0
  139.6610   70.7690  223.8580 C   0  0  0  0  0  0  0  0  0  0  0  0
  140.2480   71.1770  225.0160 N   0  0  0  0  0  0  0  0  0  0  0  0
  140.3810   70.3550  226.0910 C   0  0  0  0  0  0  0  0  0  0  0  0
  141.0150   70.8120  227.2520 C   0  0  0  0  0  0  0  0  0  0  0  0
  141.3857   71.8462  227.3057 H   0  0  0  0  0  0  0  0  0  0  0  0
  141.1770   69.9530  228.3440 C   0  0  0  0  0  0  0  0  0  0  0  0
  141.6759   70.3132  229.2558 H   0  0  0  0  0  0  0  0  0  0  0  0
  140.7060   68.6360  228.2800 C   0  0  0  0  0  0  0  0  0  0  0  0
  140.8690   67.8070  229.3390 F   0  0  0  0  0  0  0  0  0  0  0  0
  140.0680   68.1720  227.1240 C   0  0  0  0  0  0  0  0  0  0  0  0
  139.6980   67.1372  227.0768 H   0  0  0  0  0  0  0  0  0  0  0  0
  139.9010   69.0280  226.0260 C   0  0  0  0  0  0  0  0  0  0  0  0
  139.2830   68.5910  224.8500 C   0  0  0  0  0  0  0  0  0  0  0  0
  138.8893   67.5660  224.7833 H   0  0  0  0  0  0  0  0  0  0  0  0
  139.1660   69.4570  223.7600 C   0  0  0  0  0  0  0  0  0  0  0  0
  138.6891   69.1140  222.8300 H   0  0  0  0  0  0  0  0  0  0  0  0
  1  2  1  0
  2  3  1  0
  3  4  2  0
  4  5  1  0
  5  6  1  0
  5  7  1  0
  5  8  1  0
  8  9  2  0
  8 10  1  0
 10 11  1  0
 11 12  1  0
 11 13  1  0
 11 14  1  0
 14 15  1  1
 14 16  1  0
 16 17  1  0
 14 18  1  0
 18 19  1  0
 18 20  1  0
 18 21  1  0
 21 22  1  6
 21 23  1  0
 23 24  2  0
 23 25  1  0
 25 26  1  0
 26 27  1  6
 26 28  1  0
 28 29  2  0
 29 30  1  0
 29 31  1  0
 31 32  1  0
 31 33  2  0
 33 34  1  0
 33 35  1  0
 35 36  1  0
 35 37  2  0
 37 38  1  0
 26 39  1  0
 39 40  1  0
 39 41  1  0
 39 42  1  0
 42 43  2  0
 43 44  1  0
 43 45  1  0
 45 46  1  0
 45 47  2  0
 47 48  1  0
 47 49  1  0
 49 50  1  0
 49 51  2  0
 51 52  1  0
  3 53  1  0
 53 54  2  0
 54 55  1  0
 55 56  2  0
 56 57  1  0
 56 58  1  0
 58 59  1  0
 58 60  2  0
 60 61  1  0
 60 62  1  0
 62 63  1  0
 62 64  2  0
 64 65  1  0
 65 66  1  0
 65 67  2  0
 67 68  1  0
 21 10  1  0
 37 28  1  0
 51 42  1  0
 67 53  1  0
 64 55  1  0
M  CHG  1  25  -1
M  END
>  <UniqueID>  (65) 
4

>  <SMILES>  (65) 
O=C([N-][C@@H](Cc1ccc(F)cc1)c1ccccc1)[C@@H]1C[C@@H](O)CN1C(=O)C/N=C(\O)c1ccc2cc(F)ccc2n1

>  <Energy>  (65) 
71.37747220442975

>  <Genealogy>  (65) 
O=C(NCC(=O)N1C[C@H](O)C[C@H]1C(=O)[N-][C@@H](Cc1ccc(F)cc1)c1ccccc1)c1ccc2cc(F)ccc2n1 (protonated)
O=C([N-][C@@H](Cc1ccc(F)cc1)c1ccccc1)[C@@H]1C[C@@H](O)CN1C(=O)CN=C(O)c1ccc2cc(F)ccc2n1 (tautomer)
O=C([N-][C@@H](Cc1ccc(F)cc1)c1ccccc1)[C@@H]1C[C@@H](O)CN1C(=O)C/N=C(\O)c1ccc2cc(F)ccc2n1 (cis-trans isomerization)
O=C([N-][C@@H](Cc1ccc(F)cc1)c1ccccc1)[C@@H]1C[C@@H](O)CN1C(=O)C/N=C(\O)c1ccc2cc(F)ccc2n1 (3D coordinates assigned)
O=C([N-][C@@H](Cc1ccc(F)cc1)c1ccccc1)[C@@H]1C[C@@H](O)CN1C(=O)C/N=C(\O)c1ccc2cc(F)ccc2n1 (nonaromatic ring conformer: 71.37747220442975 kcal/mol)

>  <smiles>  (65) 
O=C(NCC(=O)N1C[C@H](O)C[C@H]1C(=O)N[C@@H](Cc1ccc(F)cc1)c1ccccc1)c1ccc2cc(F)ccc2n1

>  <score_type>  (65) 
oracle

>  <origin>  (65) 
autodockgpu

>  <m_score__min__energy>  (65) 
-9.3499999999999996

>  <m_primary>  (65) 
energy

>  <meeko>  (65) 
{"free_energy": -7.87, "intermolecular_energy": -11.75, "internal_energy": -3.9, "cluster_size": 1, "cluster_id": 8, "rank_in_cluster": 1}

>  <energy>  (65) 
-7.69

>  <cluster_rmsd>  (65) 
1.92

>  <rmsd>  (65) 
270.83

>  <cluster>  (65) 
1

$$$$
XFBXCNWOYUAVIW-ZAPLKEHQNA-M
     RDKit          3D

 68 72  0  0  0  0  0  0  0  0999 V2000
  138.5830   74.8570  222.7340 H   0  0  0  0  0  0  0  0  0  0  0  0
  137.7450   75.2990  222.3820 O   0  0  0  0  0  0  0  0  0  0  0  0
  137.7500   76.4940  221.6550 C   0  0  0  0  0  0  0  0  0  0  0  0
  137.1890   76.5850  220.4810 N   0  0  0  0  0  0  0  0  0  0  0  0
  137.8710   76.5460  219.1890 C   0  0  0  0  0  0  0  0  0  0  0  0
  138.4212   77.4873  219.0431 H   0  0  0  0  0  0  0  0  0  0  0  0
  137.1188   76.4155  218.3971 H   0  0  0  0  0  0  0  0  0  0  0  0
  138.8340   75.4000  219.1300 C   0  0  0  0  0  0  0  0  0  0  0  0
  138.4390   74.2570  218.7830 O   0  0  0  0  0  0  0  0  0  0  0  0
  140.2070   75.5970  219.4760 N   0  0  0  0  0  0  0  0  0  0  0  0
  140.9570   76.7650  219.0580 C   0  0  0  0  0  0  0  0  0  0  0  0
  140.4515   77.6853  219.3858 H   0  0  0  0  0  0  0  0  0  0  0  0
  141.0474   76.8248  217.9633 H   0  0  0  0  0  0  0  0  0  0  0  0
  142.3170   76.6320  219.7350 C   0  0  2  0  0  0  0  0  0  0  0  0
  142.4036   77.2915  220.6111 H   0  0  0  0  0  0  0  0  0  0  0  0
  143.3470   77.0080  218.8590 O   0  0  0  0  0  0  0  0  0  0  0  0
  144.0030   77.5200  219.3990 H   0  0  0  0  0  0  0  0  0  0  0  0
  142.4370   75.1560  220.1370 C   0  0  0  0  0  0  0  0  0  0  0  0
  142.9261   75.0650  221.1180 H   0  0  0  0  0  0  0  0  0  0  0  0
  143.0455   74.5892  219.4170 H   0  0  0  0  0  0  0  0  0  0  0  0
  141.0020   74.6220  220.2050 C   0  0  1  0  0  0  0  0  0  0  0  0
  140.9263   73.6105  219.7793 H   0  0  0  0  0  0  0  0  0  0  0  0
  140.5200   74.5170  221.6360 C   0  0  0  0  0  0  0  0  0  0  0  0
  140.6410   75.5150  222.3950 O   0  0  0  0  0  0  0  0  0  0  0  0
  139.9440   73.3180  222.1760 N   0  0  0  0  0  0  0  0  0  0  0  0
  140.6510   72.1000  222.5720 C   0  0  2  0  0  0  0  0  0  0  0  0
  141.3841   72.3481  223.3537 H   0  0  0  0  0  0  0  0  0  0  0  0
  141.3800   71.5210  221.3750 C   0  0  0  0  0  0  0  0  0  0  0  0
  140.7590   70.5960  220.5160 C   0  0  0  0  0  0  0  0  0  0  0  0
  139.7128   70.3041  220.6899 H   0  0  0  0  0  0  0  0  0  0  0  0
  141.4660   70.0460  219.4420 C   0  0  0  0  0  0  0  0  0  0  0  0
  140.9693   69.3373  218.7630 H   0  0  0  0  0  0  0  0  0  0  0  0
  142.8020   70.3950  219.2300 C   0  0  0  0  0  0  0  0  0  0  0  0
  143.3542   69.9663  218.3807 H   0  0  0  0  0  0  0  0  0  0  0  0
  143.4360   71.2870  220.0950 C   0  0  0  0  0  0  0  0  0  0  0  0
  144.4911   71.5531  219.9339 H   0  0  0  0  0  0  0  0  0  0  0  0
  142.7320   71.8420  221.1650 C   0  0  0  0  0  0  0  0  0  0  0  0
  143.2400   72.5368  221.8499 H   0  0  0  0  0  0  0  0  0  0  0  0
  139.6580   71.0670  223.1450 C   0  0  0  0  0  0  0  0  0  0  0  0
  138.6526   71.5126  223.1682 H   0  0  0  0  0  0  0  0  0  0  0  0
  139.6771   70.1760  222.5002 H   0  0  0  0  0  0  0  0  0  0  0  0
  140.0400   70.6480  224.5410 C   0  0  0  0  0  0  0  0  0  0  0  0
  139.6660   69.3840  225.0260 C   0  0  0  0  0  0  0  0  0  0  0  0
  139.1286   68.6829  224.3705 H   0  0  0  0  0  0  0  0  0  0  0  0
  139.9740   69.0130  226.3390 C   0  0  0  0  0  0  0  0  0  0  0  0
  139.6893   68.0173  226.7098 H   0  0  0  0  0  0  0  0  0  0  0  0
  140.6430   69.9060  227.1800 C   0  0  0  0  0  0  0  0  0  0  0  0
  140.9290   69.5500  228.4570 F   0  0  0  0  0  0  0  0  0  0  0  0
  141.0130   71.1690  226.7070 C   0  0  0  0  0  0  0  0  0  0  0  0
  141.5393   71.8713  227.3701 H   0  0  0  0  0  0  0  0  0  0  0  0
  140.7150   71.5400  225.3930 C   0  0  0  0  0  0  0  0  0  0  0  0
  141.0096   72.5335  225.0239 H   0  0  0  0  0  0  0  0  0  0  0  0
  138.4290   77.6640  222.2420 C   0  0  0  0  0  0  0  0  0  0  0  0
  139.7750   77.7930  222.0830 N   0  0  0  0  0  0  0  0  0  0  0  0
  140.4680   78.8490  222.5860 C   0  0  0  0  0  0  0  0  0  0  0  0
  141.8550   78.9250  222.4180 C   0  0  0  0  0  0  0  0  0  0  0  0
  142.3848   78.1413  221.8567 H   0  0  0  0  0  0  0  0  0  0  0  0
  142.5680   79.9980  222.9640 C   0  0  0  0  0  0  0  0  0  0  0  0
  143.6585   80.0560  222.8319 H   0  0  0  0  0  0  0  0  0  0  0  0
  141.8970   80.9980  223.6780 C   0  0  0  0  0  0  0  0  0  0  0  0
  142.5930   82.0330  224.2080 F   0  0  0  0  0  0  0  0  0  0  0  0
  140.5090   80.9320  223.8470 C   0  0  0  0  0  0  0  0  0  0  0  0
  139.9841   81.7202  224.4067 H   0  0  0  0  0  0  0  0  0  0  0  0
  139.7890   79.8600  223.3020 C   0  0  0  0  0  0  0  0  0  0  0  0
  138.4030   79.7550  223.4670 C   0  0  0  0  0  0  0  0  0  0  0  0
  137.8522   80.5384  224.0082 H   0  0  0  0  0  0  0  0  0  0  0  0
  137.7200   78.6550  222.9440 C   0  0  0  0  0  0  0  0  0  0  0  0
  136.6323   78.5641  223.0805 H   0  0  0  0  0  0  0  0  0  0  0  0
  1  2  1  0
  2  3  1  0
  3  4  2  0
  4  5  1  0
  5  6  1  0
  5  7  1  0
  5  8  1  0
  8  9  2  0
  8 10  1  0
 10 11  1  0
 11 12  1  0
 11 13  1  0
 11 14  1  0
 14 15  1  1
 14 16  1  0
 16 17  1  0
 14 18  1  0
 18 19  1  0
 18 20  1  0
 18 21  1  0
 21 22  1  6
 21 23  1  0
 23 24  2  0
 23 25  1  0
 25 26  1  0
 26 27  1  1
 26 28  1  0
 28 29  2  0
 29 30  1  0
 29 31  1  0
 31 32  1  0
 31 33  2  0
 33 34  1  0
 33 35  1  0
 35 36  1  0
 35 37  2  0
 37 38  1  0
 26 39  1  0
 39 40  1  0
 39 41  1  0
 39 42  1  0
 42 43  2  0
 43 44  1  0
 43 45  1  0
 45 46  1  0
 45 47  2  0
 47 48  1  0
 47 49  1  0
 49 50  1  0
 49 51  2  0
 51 52  1  0
  3 53  1  0
 53 54  2  0
 54 55  1  0
 55 56  2  0
 56 57  1  0
 56 58  1  0
 58 59  1  0
 58 60  2  0
 60 61  1  0
 60 62  1  0
 62 63  1  0
 62 64  2  0
 64 65  1  0
 65 66  1  0
 65 67  2  0
 67 68  1  0
 21 10  1  0
 37 28  1  0
 51 42  1  0
 67 53  1  0
 64 55  1  0
M  CHG  1  25  -1
M  END
>  <UniqueID>  (66) 
4

>  <SMILES>  (66) 
O=C([N-][C@@H](Cc1ccc(F)cc1)c1ccccc1)[C@@H]1C[C@@H](O)CN1C(=O)C/N=C(\O)c1ccc2cc(F)ccc2n1

>  <Energy>  (66) 
71.37747220442975

>  <Genealogy>  (66) 
O=C(NCC(=O)N1C[C@H](O)C[C@H]1C(=O)[N-][C@@H](Cc1ccc(F)cc1)c1ccccc1)c1ccc2cc(F)ccc2n1 (protonated)
O=C([N-][C@@H](Cc1ccc(F)cc1)c1ccccc1)[C@@H]1C[C@@H](O)CN1C(=O)CN=C(O)c1ccc2cc(F)ccc2n1 (tautomer)
O=C([N-][C@@H](Cc1ccc(F)cc1)c1ccccc1)[C@@H]1C[C@@H](O)CN1C(=O)C/N=C(\O)c1ccc2cc(F)ccc2n1 (cis-trans isomerization)
O=C([N-][C@@H](Cc1ccc(F)cc1)c1ccccc1)[C@@H]1C[C@@H](O)CN1C(=O)C/N=C(\O)c1ccc2cc(F)ccc2n1 (3D coordinates assigned)
O=C([N-][C@@H](Cc1ccc(F)cc1)c1ccccc1)[C@@H]1C[C@@H](O)CN1C(=O)C/N=C(\O)c1ccc2cc(F)ccc2n1 (nonaromatic ring conformer: 71.37747220442975 kcal/mol)

>  <smiles>  (66) 
O=C(NCC(=O)N1C[C@H](O)C[C@H]1C(=O)N[C@@H](Cc1ccc(F)cc1)c1ccccc1)c1ccc2cc(F)ccc2n1

>  <score_type>  (66) 
oracle

>  <origin>  (66) 
autodockgpu

>  <m_score__min__energy>  (66) 
-9.3499999999999996

>  <m_primary>  (66) 
energy

>  <meeko>  (66) 
{"free_energy": -7.95, "intermolecular_energy": -11.83, "internal_energy": -4.44, "cluster_size": 3, "cluster_id": 7, "rank_in_cluster": 1}

>  <energy>  (66) 
-8.85

>  <cluster_rmsd>  (66) 
0.0

>  <rmsd>  (66) 
271.0

>  <cluster>  (66) 
2

$$$$
XFBXCNWOYUAVIW-ZAPLKEHQNA-M
     RDKit          3D

 68 72  0  0  0  0  0  0  0  0999 V2000
  139.0910   73.1000  221.2560 H   0  0  0  0  0  0  0  0  0  0  0  0
  138.9440   72.3410  221.9070 O   0  0  0  0  0  0  0  0  0  0  0  0
  139.9160   71.3820  222.2100 C   0  0  0  0  0  0  0  0  0  0  0  0
  140.6210   70.8010  221.2790 N   0  0  0  0  0  0  0  0  0  0  0  0
  140.7600   71.2420  219.8940 C   0  0  0  0  0  0  0  0  0  0  0  0
  139.7894   71.1447  219.3856 H   0  0  0  0  0  0  0  0  0  0  0  0
  141.5165   70.6153  219.3990 H   0  0  0  0  0  0  0  0  0  0  0  0
  141.2060   72.6720  219.8320 C   0  0  0  0  0  0  0  0  0  0  0  0
  140.3590   73.5950  219.7170 O   0  0  0  0  0  0  0  0  0  0  0  0
  142.5970   72.9940  219.8960 N   0  0  0  0  0  0  0  0  0  0  0  0
  143.6100   72.2120  219.2160 C   0  0  0  0  0  0  0  0  0  0  0  0
  143.3879   72.1445  218.1408 H   0  0  0  0  0  0  0  0  0  0  0  0
  143.6567   71.1807  219.5958 H   0  0  0  0  0  0  0  0  0  0  0  0
  144.9180   72.9640  219.4460 C   0  0  2  0  0  0  0  0  0  0  0  0
  145.2242   73.5345  218.5567 H   0  0  0  0  0  0  0  0  0  0  0  0
  145.9640   72.0680  219.7160 O   0  0  0  0  0  0  0  0  0  0  0  0
  145.9370   71.8900  220.6920 H   0  0  0  0  0  0  0  0  0  0  0  0
  144.6570   73.8930  220.6380 C   0  0  0  0  0  0  0  0  0  0  0  0
  145.1533   74.8624  220.4833 H   0  0  0  0  0  0  0  0  0  0  0  0
  145.0528   73.4705  221.5733 H   0  0  0  0  0  0  0  0  0  0  0  0
  143.1360   74.0770  220.7030 C   0  0  1  0  0  0  0  0  0  0  0  0
  142.7688   74.0563  221.7397 H   0  0  0  0  0  0  0  0  0  0  0  0
  142.7180   75.4150  220.1330 C   0  0  0  0  0  0  0  0  0  0  0  0
  143.1360   75.7490  218.9920 O   0  0  0  0  0  0  0  0  0  0  0  0
  141.8760   76.3340  220.8450 N   0  0  0  0  0  0  0  0  0  0  0  0
  141.4600   77.6680  220.4110 C   0  0  2  0  0  0  0  0  0  0  0  0
  142.1236   78.0071  219.6019 H   0  0  0  0  0  0  0  0  0  0  0  0
  141.5620   78.6360  221.5740 C   0  0  0  0  0  0  0  0  0  0  0  0
  141.8820   79.9920  221.3710 C   0  0  0  0  0  0  0  0  0  0  0  0
  142.0319   80.3727  220.3499 H   0  0  0  0  0  0  0  0  0  0  0  0
  142.0100   80.8570  222.4630 C   0  0  0  0  0  0  0  0  0  0  0  0
  142.2435   81.9191  222.2974 H   0  0  0  0  0  0  0  0  0  0  0  0
  141.8420   80.3750  223.7630 C   0  0  0  0  0  0  0  0  0  0  0  0
  141.9357   81.0587  224.6196 H   0  0  0  0  0  0  0  0  0  0  0  0
  141.5550   79.0250  223.9750 C   0  0  0  0  0  0  0  0  0  0  0  0
  141.4337   78.6431  224.9994 H   0  0  0  0  0  0  0  0  0  0  0  0
  141.4220   78.1600  222.8880 C   0  0  0  0  0  0  0  0  0  0  0  0
  141.2055   77.0956  223.0619 H   0  0  0  0  0  0  0  0  0  0  0  0
  140.0160   77.6290  219.8700 C   0  0  0  0  0  0  0  0  0  0  0  0
  139.7283   78.6400  219.5457 H   0  0  0  0  0  0  0  0  0  0  0  0
  139.9820   76.9231  219.0270 H   0  0  0  0  0  0  0  0  0  0  0  0
  139.0450   77.1570  220.9220 C   0  0  0  0  0  0  0  0  0  0  0  0
  138.2510   78.0860  221.6160 C   0  0  0  0  0  0  0  0  0  0  0  0
  138.3085   79.1546  221.3616 H   0  0  0  0  0  0  0  0  0  0  0  0
  137.3880   77.6560  222.6290 C   0  0  0  0  0  0  0  0  0  0  0  0
  136.7600   78.3854  223.1615 H   0  0  0  0  0  0  0  0  0  0  0  0
  137.3220   76.3010  222.9660 C   0  0  0  0  0  0  0  0  0  0  0  0
  136.4940   75.8880  223.9580 F   0  0  0  0  0  0  0  0  0  0  0  0
  138.1140   75.3720  222.2850 C   0  0  0  0  0  0  0  0  0  0  0  0
  138.0625   74.3060  222.5516 H   0  0  0  0  0  0  0  0  0  0  0  0
  138.9710   75.7960  221.2660 C   0  0  0  0  0  0  0  0  0  0  0  0
  139.5905   75.0615  220.7306 H   0  0  0  0  0  0  0  0  0  0  0  0
  140.1200   71.0200  223.6260 C   0  0  0  0  0  0  0  0  0  0  0  0
  139.7700   69.7710  224.0430 N   0  0  0  0  0  0  0  0  0  0  0  0
  139.9380   69.3620  225.3280 C   0  0  0  0  0  0  0  0  0  0  0  0
  139.5400   68.0780  225.7150 C   0  0  0  0  0  0  0  0  0  0  0  0
  139.1114   67.3881  224.9731 H   0  0  0  0  0  0  0  0  0  0  0  0
  139.6870   67.6710  227.0460 C   0  0  0  0  0  0  0  0  0  0  0  0
  139.3741   66.6609  227.3488 H   0  0  0  0  0  0  0  0  0  0  0  0
  140.2310   68.5460  227.9920 C   0  0  0  0  0  0  0  0  0  0  0  0
  140.3670   68.1490  229.2810 F   0  0  0  0  0  0  0  0  0  0  0  0
  140.6350   69.8320  227.6140 C   0  0  0  0  0  0  0  0  0  0  0  0
  141.0635   70.5170  228.3604 H   0  0  0  0  0  0  0  0  0  0  0  0
  140.4920   70.2450  226.2810 C   0  0  0  0  0  0  0  0  0  0  0  0
  140.8700   71.5280  225.8730 C   0  0  0  0  0  0  0  0  0  0  0  0
  141.3169   72.2260  226.5963 H   0  0  0  0  0  0  0  0  0  0  0  0
  140.6800   71.9230  224.5470 C   0  0  0  0  0  0  0  0  0  0  0  0
  140.9668   72.9349  224.2248 H   0  0  0  0  0  0  0  0  0  0  0  0
  1  2  1  0
  2  3  1  0
  3  4  2  0
  4  5  1  0
  5  6  1  0
  5  7  1  0
  5  8  1  0
  8  9  2  0
  8 10  1  0
 10 11  1  0
 11 12  1  0
 11 13  1  0
 11 14  1  0
 14 15  1  6
 14 16  1  0
 16 17  1  0
 14 18  1  0
 18 19  1  0
 18 20  1  0
 18 21  1  0
 21 22  1  1
 21 23  1  0
 23 24  2  0
 23 25  1  0
 25 26  1  0
 26 27  1  6
 26 28  1  0
 28 29  2  0
 29 30  1  0
 29 31  1  0
 31 32  1  0
 31 33  2  0
 33 34  1  0
 33 35  1  0
 35 36  1  0
 35 37  2  0
 37 38  1  0
 26 39  1  0
 39 40  1  0
 39 41  1  0
 39 42  1  0
 42 43  2  0
 43 44  1  0
 43 45  1  0
 45 46  1  0
 45 47  2  0
 47 48  1  0
 47 49  1  0
 49 50  1  0
 49 51  2  0
 51 52  1  0
  3 53  1  0
 53 54  2  0
 54 55  1  0
 55 56  2  0
 56 57  1  0
 56 58  1  0
 58 59  1  0
 58 60  2  0
 60 61  1  0
 60 62  1  0
 62 63  1  0
 62 64  2  0
 64 65  1  0
 65 66  1  0
 65 67  2  0
 67 68  1  0
 21 10  1  0
 37 28  1  0
 51 42  1  0
 67 53  1  0
 64 55  1  0
M  CHG  1  25  -1
M  END
>  <UniqueID>  (67) 
4

>  <SMILES>  (67) 
O=C([N-][C@@H](Cc1ccc(F)cc1)c1ccccc1)[C@@H]1C[C@@H](O)CN1C(=O)C/N=C(\O)c1ccc2cc(F)ccc2n1

>  <Energy>  (67) 
71.37747220442975

>  <Genealogy>  (67) 
O=C(NCC(=O)N1C[C@H](O)C[C@H]1C(=O)[N-][C@@H](Cc1ccc(F)cc1)c1ccccc1)c1ccc2cc(F)ccc2n1 (protonated)
O=C([N-][C@@H](Cc1ccc(F)cc1)c1ccccc1)[C@@H]1C[C@@H](O)CN1C(=O)CN=C(O)c1ccc2cc(F)ccc2n1 (tautomer)
O=C([N-][C@@H](Cc1ccc(F)cc1)c1ccccc1)[C@@H]1C[C@@H](O)CN1C(=O)C/N=C(\O)c1ccc2cc(F)ccc2n1 (cis-trans isomerization)
O=C([N-][C@@H](Cc1ccc(F)cc1)c1ccccc1)[C@@H]1C[C@@H](O)CN1C(=O)C/N=C(\O)c1ccc2cc(F)ccc2n1 (3D coordinates assigned)
O=C([N-][C@@H](Cc1ccc(F)cc1)c1ccccc1)[C@@H]1C[C@@H](O)CN1C(=O)C/N=C(\O)c1ccc2cc(F)ccc2n1 (nonaromatic ring conformer: 71.37747220442975 kcal/mol)

>  <smiles>  (67) 
O=C(NCC(=O)N1C[C@H](O)C[C@H]1C(=O)N[C@@H](Cc1ccc(F)cc1)c1ccccc1)c1ccc2cc(F)ccc2n1

>  <score_type>  (67) 
oracle

>  <origin>  (67) 
autodockgpu

>  <m_score__min__energy>  (67) 
-9.3499999999999996

>  <m_primary>  (67) 
energy

>  <meeko>  (67) 
{"free_energy": -7.87, "intermolecular_energy": -11.75, "internal_energy": -3.2, "cluster_size": 5, "cluster_id": 1, "rank_in_cluster": 4}

>  <energy>  (67) 
-8.18

>  <cluster_rmsd>  (67) 
1.62

>  <rmsd>  (67) 
270.81

>  <cluster>  (67) 
2

$$$$
XFBXCNWOYUAVIW-ZAPLKEHQNA-M
     RDKit          3D

 68 72  0  0  0  0  0  0  0  0999 V2000
  140.1390   74.2820  222.0270 H   0  0  0  0  0  0  0  0  0  0  0  0
  139.9830   73.5570  222.7140 O   0  0  0  0  0  0  0  0  0  0  0  0
  140.0200   72.1910  222.4180 C   0  0  0  0  0  0  0  0  0  0  0  0
  140.0780   71.7550  221.1900 N   0  0  0  0  0  0  0  0  0  0  0  0
  141.2040   71.0650  220.5670 C   0  0  0  0  0  0  0  0  0  0  0  0
  140.8749   70.0718  220.2274 H   0  0  0  0  0  0  0  0  0  0  0  0
  142.0115   70.9689  221.3077 H   0  0  0  0  0  0  0  0  0  0  0  0
  141.7200   71.8390  219.3930 C   0  0  0  0  0  0  0  0  0  0  0  0
  141.1740   71.7180  218.2650 O   0  0  0  0  0  0  0  0  0  0  0  0
  142.8400   72.7140  219.5440 N   0  0  0  0  0  0  0  0  0  0  0  0
  144.0690   72.5440  218.7950 C   0  0  0  0  0  0  0  0  0  0  0  0
  143.8640   72.5371  217.7143 H   0  0  0  0  0  0  0  0  0  0  0  0
  144.5648   71.5907  219.0306 H   0  0  0  0  0  0  0  0  0  0  0  0
  144.9350   73.7430  219.1670 C   0  0  2  0  0  0  0  0  0  0  0  0
  144.9390   74.5062  218.3749 H   0  0  0  0  0  0  0  0  0  0  0  0
  146.2720   73.3540  219.3430 O   0  0  0  0  0  0  0  0  0  0  0  0
  146.8110   74.1870  219.3330 H   0  0  0  0  0  0  0  0  0  0  0  0
  144.3390   74.2960  220.4680 C   0  0  0  0  0  0  0  0  0  0  0  0
  144.3673   75.3956  220.4648 H   0  0  0  0  0  0  0  0  0  0  0  0
  144.9068   73.9588  221.3477 H   0  0  0  0  0  0  0  0  0  0  0  0
  142.8890   73.8000  220.5100 C   0  0  1  0  0  0  0  0  0  0  0  0
  142.5994   73.4805  221.5220 H   0  0  0  0  0  0  0  0  0  0  0  0
  141.9200   74.8950  220.1180 C   0  0  0  0  0  0  0  0  0  0  0  0
  142.0760   75.4790  219.0120 O   0  0  0  0  0  0  0  0  0  0  0  0
  140.8360   75.3120  220.9610 N   0  0  0  0  0  0  0  0  0  0  0  0
  140.7580   76.5380  221.7560 C   0  0  2  0  0  0  0  0  0  0  0  0
  141.2426   76.3679  222.7287 H   0  0  0  0  0  0  0  0  0  0  0  0
  139.3040   76.9050  221.9840 C   0  0  0  0  0  0  0  0  0  0  0  0
  138.7790   78.1300  221.5300 C   0  0  0  0  0  0  0  0  0  0  0  0
  139.4200   78.8270  220.9702 H   0  0  0  0  0  0  0  0  0  0  0  0
  137.4460   78.4640  221.7880 C   0  0  0  0  0  0  0  0  0  0  0  0
  137.0366   79.4148  221.4160 H   0  0  0  0  0  0  0  0  0  0  0  0
  136.6330   77.5930  222.5170 C   0  0  0  0  0  0  0  0  0  0  0  0
  135.5826   77.8551  222.7122 H   0  0  0  0  0  0  0  0  0  0  0  0
  137.1530   76.3900  222.9980 C   0  0  0  0  0  0  0  0  0  0  0  0
  136.5154   75.7093  223.5811 H   0  0  0  0  0  0  0  0  0  0  0  0
  138.4820   76.0510  222.7390 C   0  0  0  0  0  0  0  0  0  0  0  0
  138.8896   75.1069  223.1294 H   0  0  0  0  0  0  0  0  0  0  0  0
  141.4960   77.6880  221.0410 C   0  0  0  0  0  0  0  0  0  0  0  0
  142.4631   77.3168  220.6710 H   0  0  0  0  0  0  0  0  0  0  0  0
  140.8669   78.0377  220.2092 H   0  0  0  0  0  0  0  0  0  0  0  0
  141.7400   78.8490  221.9700 C   0  0  0  0  0  0  0  0  0  0  0  0
  141.9070   80.1440  221.4510 C   0  0  0  0  0  0  0  0  0  0  0  0
  141.8181   80.3164  220.3682 H   0  0  0  0  0  0  0  0  0  0  0  0
  142.1860   81.2150  222.3070 C   0  0  0  0  0  0  0  0  0  0  0  0
  142.3032   82.2292  221.8976 H   0  0  0  0  0  0  0  0  0  0  0  0
  142.3160   80.9980  223.6810 C   0  0  0  0  0  0  0  0  0  0  0  0
  142.6000   82.0360  224.5080 F   0  0  0  0  0  0  0  0  0  0  0  0
  142.1570   79.7110  224.2050 C   0  0  0  0  0  0  0  0  0  0  0  0
  142.2586   79.5415  225.2871 H   0  0  0  0  0  0  0  0  0  0  0  0
  141.8690   78.6400  223.3540 C   0  0  0  0  0  0  0  0  0  0  0  0
  141.7428   77.6292  223.7693 H   0  0  0  0  0  0  0  0  0  0  0  0
  139.9710   71.2340  223.5400 C   0  0  0  0  0  0  0  0  0  0  0  0
  140.4930   71.6000  224.7420 N   0  0  0  0  0  0  0  0  0  0  0  0
  140.4750   70.7770  225.8230 C   0  0  0  0  0  0  0  0  0  0  0  0
  141.0470   71.1890  227.0320 C   0  0  0  0  0  0  0  0  0  0  0  0
  141.4919   72.1915  227.1165 H   0  0  0  0  0  0  0  0  0  0  0  0
  141.0530   70.3260  228.1330 C   0  0  0  0  0  0  0  0  0  0  0  0
  141.5044   70.6507  229.0821 H   0  0  0  0  0  0  0  0  0  0  0  0
  140.4860   69.0500  228.0300 C   0  0  0  0  0  0  0  0  0  0  0  0
  140.4980   68.2160  229.0990 F   0  0  0  0  0  0  0  0  0  0  0  0
  139.9090   68.6310  226.8260 C   0  0  0  0  0  0  0  0  0  0  0  0
  139.4645   67.6278  226.7483 H   0  0  0  0  0  0  0  0  0  0  0  0
  139.8980   69.4910  225.7190 C   0  0  0  0  0  0  0  0  0  0  0  0
  139.3440   69.0970  224.4960 C   0  0  0  0  0  0  0  0  0  0  0  0
  138.8779   68.1055  224.3970 H   0  0  0  0  0  0  0  0  0  0  0  0
  139.3830   69.9630  223.4010 C   0  0  0  0  0  0  0  0  0  0  0  0
  138.9566   69.6534  222.4354 H   0  0  0  0  0  0  0  0  0  0  0  0
  1  2  1  0
  2  3  1  0
  3  4  2  0
  4  5  1  0
  5  6  1  0
  5  7  1  0
  5  8  1  0
  8  9  2  0
  8 10  1  0
 10 11  1  0
 11 12  1  0
 11 13  1  0
 11 14  1  0
 14 15  1  6
 14 16  1  0
 16 17  1  0
 14 18  1  0
 18 19  1  0
 18 20  1  0
 18 21  1  0
 21 22  1  1
 21 23  1  0
 23 24  2  0
 23 25  1  0
 25 26  1  0
 26 27  1  1
 26 28  1  0
 28 29  2  0
 29 30  1  0
 29 31  1  0
 31 32  1  0
 31 33  2  0
 33 34  1  0
 33 35  1  0
 35 36  1  0
 35 37  2  0
 37 38  1  0
 26 39  1  0
 39 40  1  0
 39 41  1  0
 39 42  1  0
 42 43  2  0
 43 44  1  0
 43 45  1  0
 45 46  1  0
 45 47  2  0
 47 48  1  0
 47 49  1  0
 49 50  1  0
 49 51  2  0
 51 52  1  0
  3 53  1  0
 53 54  2  0
 54 55  1  0
 55 56  2  0
 56 57  1  0
 56 58  1  0
 58 59  1  0
 58 60  2  0
 60 61  1  0
 60 62  1  0
 62 63  1  0
 62 64  2  0
 64 65  1  0
 65 66  1  0
 65 67  2  0
 67 68  1  0
 21 10  1  0
 37 28  1  0
 51 42  1  0
 67 53  1  0
 64 55  1  0
M  CHG  1  25  -1
M  END
>  <UniqueID>  (68) 
4

>  <SMILES>  (68) 
O=C([N-][C@@H](Cc1ccc(F)cc1)c1ccccc1)[C@@H]1C[C@@H](O)CN1C(=O)C/N=C(\O)c1ccc2cc(F)ccc2n1

>  <Energy>  (68) 
71.37747220442975

>  <Genealogy>  (68) 
O=C(NCC(=O)N1C[C@H](O)C[C@H]1C(=O)[N-][C@@H](Cc1ccc(F)cc1)c1ccccc1)c1ccc2cc(F)ccc2n1 (protonated)
O=C([N-][C@@H](Cc1ccc(F)cc1)c1ccccc1)[C@@H]1C[C@@H](O)CN1C(=O)CN=C(O)c1ccc2cc(F)ccc2n1 (tautomer)
O=C([N-][C@@H](Cc1ccc(F)cc1)c1ccccc1)[C@@H]1C[C@@H](O)CN1C(=O)C/N=C(\O)c1ccc2cc(F)ccc2n1 (cis-trans isomerization)
O=C([N-][C@@H](Cc1ccc(F)cc1)c1ccccc1)[C@@H]1C[C@@H](O)CN1C(=O)C/N=C(\O)c1ccc2cc(F)ccc2n1 (3D coordinates assigned)
O=C([N-][C@@H](Cc1ccc(F)cc1)c1ccccc1)[C@@H]1C[C@@H](O)CN1C(=O)C/N=C(\O)c1ccc2cc(F)ccc2n1 (nonaromatic ring conformer: 71.37747220442975 kcal/mol)

>  <smiles>  (68) 
O=C(NCC(=O)N1C[C@H](O)C[C@H]1C(=O)N[C@@H](Cc1ccc(F)cc1)c1ccccc1)c1ccc2cc(F)ccc2n1

>  <score_type>  (68) 
oracle

>  <origin>  (68) 
autodockgpu

>  <m_score__min__energy>  (68) 
-9.3499999999999996

>  <m_primary>  (68) 
energy

>  <meeko>  (68) 
{"free_energy": -9.35, "intermolecular_energy": -13.23, "internal_energy": -3.21, "cluster_size": 5, "cluster_id": 1, "rank_in_cluster": 1}

>  <energy>  (68) 
-8.58

>  <cluster_rmsd>  (68) 
0.0

>  <rmsd>  (68) 
270.91

>  <cluster>  (68) 
3

$$$$
XFBXCNWOYUAVIW-ZAPLKEHQNA-M
     RDKit          3D

 68 72  0  0  0  0  0  0  0  0999 V2000
  139.0210   74.2770  222.7570 H   0  0  0  0  0  0  0  0  0  0  0  0
  138.4560   75.0190  222.3690 O   0  0  0  0  0  0  0  0  0  0  0  0
  138.9590   76.0130  221.5240 C   0  0  0  0  0  0  0  0  0  0  0  0
  139.0740   75.8280  220.2380 N   0  0  0  0  0  0  0  0  0  0  0  0
  140.3210   75.7620  219.4800 C   0  0  0  0  0  0  0  0  0  0  0  0
  141.1169   76.2629  220.0507 H   0  0  0  0  0  0  0  0  0  0  0  0
  140.1717   76.2618  218.5115 H   0  0  0  0  0  0  0  0  0  0  0  0
  140.7170   74.3390  219.2300 C   0  0  0  0  0  0  0  0  0  0  0  0
  140.0000   73.5980  218.5070 O   0  0  0  0  0  0  0  0  0  0  0  0
  141.9080   73.8110  219.8170 N   0  0  0  0  0  0  0  0  0  0  0  0
  143.2140   74.4010  219.5970 C   0  0  0  0  0  0  0  0  0  0  0  0
  143.2096   75.4638  219.8807 H   0  0  0  0  0  0  0  0  0  0  0  0
  143.5121   74.3557  218.5391 H   0  0  0  0  0  0  0  0  0  0  0  0
  144.1660   73.6130  220.4910 C   0  0  2  0  0  0  0  0  0  0  0  0
  144.4269   74.1708  221.4025 H   0  0  0  0  0  0  0  0  0  0  0  0
  145.3760   73.3600  219.8260 O   0  0  0  0  0  0  0  0  0  0  0  0
  145.6100   74.1940  219.3410 H   0  0  0  0  0  0  0  0  0  0  0  0
  143.4320   72.3080  220.8290 C   0  0  0  0  0  0  0  0  0  0  0  0
  143.6231   72.0208  221.8735 H   0  0  0  0  0  0  0  0  0  0  0  0
  143.7741   71.4761  220.1958 H   0  0  0  0  0  0  0  0  0  0  0  0
  141.9420   72.5990  220.6200 C   0  0  1  0  0  0  0  0  0  0  0  0
  141.4293   71.7556  220.1345 H   0  0  0  0  0  0  0  0  0  0  0  0
  141.2340   72.8230  221.9390 C   0  0  0  0  0  0  0  0  0  0  0  0
  140.8690   73.9900  222.2440 O   0  0  0  0  0  0  0  0  0  0  0  0
  140.9720   71.7630  222.8700 N   0  0  0  0  0  0  0  0  0  0  0  0
  139.8530   71.6680  223.8070 C   0  0  2  0  0  0  0  0  0  0  0  0
  139.4936   72.6809  224.0414 H   0  0  0  0  0  0  0  0  0  0  0  0
  140.3150   70.9970  225.0870 C   0  0  0  0  0  0  0  0  0  0  0  0
  140.2750   69.5980  225.2360 C   0  0  0  0  0  0  0  0  0  0  0  0
  139.9331   68.9679  224.4017 H   0  0  0  0  0  0  0  0  0  0  0  0
  140.6680   69.0060  226.4400 C   0  0  0  0  0  0  0  0  0  0  0  0
  140.6512   67.9111  226.5443 H   0  0  0  0  0  0  0  0  0  0  0  0
  141.0820   69.8020  227.5110 C   0  0  0  0  0  0  0  0  0  0  0  0
  141.3976   69.3335  228.4549 H   0  0  0  0  0  0  0  0  0  0  0  0
  141.0950   71.1910  227.3830 C   0  0  0  0  0  0  0  0  0  0  0  0
  141.4105   71.8180  228.2300 H   0  0  0  0  0  0  0  0  0  0  0  0
  140.7080   71.7860  226.1810 C   0  0  0  0  0  0  0  0  0  0  0  0
  140.7107   72.8822  226.0896 H   0  0  0  0  0  0  0  0  0  0  0  0
  138.6910   70.8730  223.1750 C   0  0  0  0  0  0  0  0  0  0  0  0
  139.1062   70.0667  222.5525 H   0  0  0  0  0  0  0  0  0  0  0  0
  138.0723   70.4617  223.9862 H   0  0  0  0  0  0  0  0  0  0  0  0
  137.8210   71.7560  222.3170 C   0  0  0  0  0  0  0  0  0  0  0  0
  138.1540   71.9810  220.9720 C   0  0  0  0  0  0  0  0  0  0  0  0
  139.0287   71.4790  220.5329 H   0  0  0  0  0  0  0  0  0  0  0  0
  137.3780   72.8410  220.1880 C   0  0  0  0  0  0  0  0  0  0  0  0
  137.6362   73.0043  219.1313 H   0  0  0  0  0  0  0  0  0  0  0  0
  136.2750   73.4930  220.7460 C   0  0  0  0  0  0  0  0  0  0  0  0
  135.5310   74.3370  219.9880 F   0  0  0  0  0  0  0  0  0  0  0  0
  135.9410   73.2790  222.0870 C   0  0  0  0  0  0  0  0  0  0  0  0
  135.0732   73.7932  222.5258 H   0  0  0  0  0  0  0  0  0  0  0  0
  136.7080   72.4130  222.8700 C   0  0  0  0  0  0  0  0  0  0  0  0
  136.4400   72.2445  223.9235 H   0  0  0  0  0  0  0  0  0  0  0  0
  139.3840   77.2910  222.1270 C   0  0  0  0  0  0  0  0  0  0  0  0
  140.7060   77.6180  222.1160 N   0  0  0  0  0  0  0  0  0  0  0  0
  141.1700   78.7820  222.6420 C   0  0  0  0  0  0  0  0  0  0  0  0
  142.5410   79.0620  222.6300 C   0  0  0  0  0  0  0  0  0  0  0  0
  143.2437   78.3505  222.1717 H   0  0  0  0  0  0  0  0  0  0  0  0
  143.0180   80.2470  223.2010 C   0  0  0  0  0  0  0  0  0  0  0  0
  144.0961   80.4651  223.1922 H   0  0  0  0  0  0  0  0  0  0  0  0
  142.1270   81.1550  223.7830 C   0  0  0  0  0  0  0  0  0  0  0  0
  142.5940   82.3000  224.3380 F   0  0  0  0  0  0  0  0  0  0  0  0
  140.7540   80.8850  223.7970 C   0  0  0  0  0  0  0  0  0  0  0  0
  140.0562   81.6015  224.2550 H   0  0  0  0  0  0  0  0  0  0  0  0
  140.2690   79.6990  223.2260 C   0  0  0  0  0  0  0  0  0  0  0  0
  138.9050   79.3910  223.2380 C   0  0  0  0  0  0  0  0  0  0  0  0
  138.1847   80.0981  223.6752 H   0  0  0  0  0  0  0  0  0  0  0  0
  138.4580   78.1840  222.6940 C   0  0  0  0  0  0  0  0  0  0  0  0
  137.3869   77.9338  222.7093 H   0  0  0  0  0  0  0  0  0  0  0  0
  1  2  1  0
  2  3  1  0
  3  4  2  0
  4  5  1  0
  5  6  1  0
  5  7  1  0
  5  8  1  0
  8  9  2  0
  8 10  1  0
 10 11  1  0
 11 12  1  0
 11 13  1  0
 11 14  1  0
 14 15  1  1
 14 16  1  0
 16 17  1  0
 14 18  1  0
 18 19  1  0
 18 20  1  0
 18 21  1  0
 21 22  1  6
 21 23  1  0
 23 24  2  0
 23 25  1  0
 25 26  1  0
 26 27  1  1
 26 28  1  0
 28 29  2  0
 29 30  1  0
 29 31  1  0
 31 32  1  0
 31 33  2  0
 33 34  1  0
 33 35  1  0
 35 36  1  0
 35 37  2  0
 37 38  1  0
 26 39  1  0
 39 40  1  0
 39 41  1  0
 39 42  1  0
 42 43  2  0
 43 44  1  0
 43 45  1  0
 45 46  1  0
 45 47  2  0
 47 48  1  0
 47 49  1  0
 49 50  1  0
 49 51  2  0
 51 52  1  0
  3 53  1  0
 53 54  2  0
 54 55  1  0
 55 56  2  0
 56 57  1  0
 56 58  1  0
 58 59  1  0
 58 60  2  0
 60 61  1  0
 60 62  1  0
 62 63  1  0
 62 64  2  0
 64 65  1  0
 65 66  1  0
 65 67  2  0
 67 68  1  0
 21 10  1  0
 37 28  1  0
 51 42  1  0
 67 53  1  0
 64 55  1  0
M  CHG  1  25  -1
M  END
>  <UniqueID>  (69) 
4

>  <SMILES>  (69) 
O=C([N-][C@@H](Cc1ccc(F)cc1)c1ccccc1)[C@@H]1C[C@@H](O)CN1C(=O)C/N=C(\O)c1ccc2cc(F)ccc2n1

>  <Energy>  (69) 
71.37747220442975

>  <Genealogy>  (69) 
O=C(NCC(=O)N1C[C@H](O)C[C@H]1C(=O)[N-][C@@H](Cc1ccc(F)cc1)c1ccccc1)c1ccc2cc(F)ccc2n1 (protonated)
O=C([N-][C@@H](Cc1ccc(F)cc1)c1ccccc1)[C@@H]1C[C@@H](O)CN1C(=O)CN=C(O)c1ccc2cc(F)ccc2n1 (tautomer)
O=C([N-][C@@H](Cc1ccc(F)cc1)c1ccccc1)[C@@H]1C[C@@H](O)CN1C(=O)C/N=C(\O)c1ccc2cc(F)ccc2n1 (cis-trans isomerization)
O=C([N-][C@@H](Cc1ccc(F)cc1)c1ccccc1)[C@@H]1C[C@@H](O)CN1C(=O)C/N=C(\O)c1ccc2cc(F)ccc2n1 (3D coordinates assigned)
O=C([N-][C@@H](Cc1ccc(F)cc1)c1ccccc1)[C@@H]1C[C@@H](O)CN1C(=O)C/N=C(\O)c1ccc2cc(F)ccc2n1 (nonaromatic ring conformer: 71.37747220442975 kcal/mol)

>  <smiles>  (69) 
O=C(NCC(=O)N1C[C@H](O)C[C@H]1C(=O)N[C@@H](Cc1ccc(F)cc1)c1ccccc1)c1ccc2cc(F)ccc2n1

>  <score_type>  (69) 
oracle

>  <origin>  (69) 
autodockgpu

>  <m_score__min__energy>  (69) 
-9.3499999999999996

>  <m_primary>  (69) 
energy

>  <meeko>  (69) 
{"free_energy": -8.18, "intermolecular_energy": -12.06, "internal_energy": -3.97, "cluster_size": 2, "cluster_id": 2, "rank_in_cluster": 2}

>  <energy>  (69) 
-8.56

>  <cluster_rmsd>  (69) 
1.29

>  <rmsd>  (69) 
270.84

>  <cluster>  (69) 
3

$$$$
XFBXCNWOYUAVIW-ZAPLKEHQNA-M
     RDKit          3D

 68 72  0  0  0  0  0  0  0  0999 V2000
  139.1520   74.2100  222.7840 H   0  0  0  0  0  0  0  0  0  0  0  0
  138.5770   74.9680  222.4430 O   0  0  0  0  0  0  0  0  0  0  0  0
  139.0480   75.9720  221.5910 C   0  0  0  0  0  0  0  0  0  0  0  0
  139.1490   75.7910  220.3040 N   0  0  0  0  0  0  0  0  0  0  0  0
  140.3650   75.9110  219.5030 C   0  0  0  0  0  0  0  0  0  0  0  0
  141.1341   76.4328  220.0914 H   0  0  0  0  0  0  0  0  0  0  0  0
  140.1307   76.4778  218.5899 H   0  0  0  0  0  0  0  0  0  0  0  0
  140.8800   74.5600  219.1100 C   0  0  0  0  0  0  0  0  0  0  0  0
  140.3250   73.9150  218.1820 O   0  0  0  0  0  0  0  0  0  0  0  0
  141.9990   73.9910  219.7930 N   0  0  0  0  0  0  0  0  0  0  0  0
  143.2490   74.7020  219.9680 C   0  0  0  0  0  0  0  0  0  0  0  0
  143.0769   75.6664  220.4683 H   0  0  0  0  0  0  0  0  0  0  0  0
  143.7324   74.9246  219.0053 H   0  0  0  0  0  0  0  0  0  0  0  0
  144.1100   73.7940  220.8400 C   0  0  2  0  0  0  0  0  0  0  0  0
  144.1433   74.1409  221.8833 H   0  0  0  0  0  0  0  0  0  0  0  0
  145.4390   73.7850  220.3890 O   0  0  0  0  0  0  0  0  0  0  0  0
  145.5070   74.5000  219.7040 H   0  0  0  0  0  0  0  0  0  0  0  0
  143.4760   72.4000  220.7370 C   0  0  0  0  0  0  0  0  0  0  0  0
  143.5094   71.8915  221.7118 H   0  0  0  0  0  0  0  0  0  0  0  0
  144.0146   71.7634  220.0196 H   0  0  0  0  0  0  0  0  0  0  0  0
  142.0230   72.6300  220.3050 C   0  0  1  0  0  0  0  0  0  0  0  0
  141.7001   71.8908  219.5571 H   0  0  0  0  0  0  0  0  0  0  0  0
  141.0730   72.4920  221.4750 C   0  0  0  0  0  0  0  0  0  0  0  0
  140.8350   73.5030  222.1900 O   0  0  0  0  0  0  0  0  0  0  0  0
  140.4390   71.2510  221.8190 N   0  0  0  0  0  0  0  0  0  0  0  0
  139.8770   70.8770  223.1180 C   0  0  2  0  0  0  0  0  0  0  0  0
  139.9950   69.7930  223.2632 H   0  0  0  0  0  0  0  0  0  0  0  0
  138.4010   71.2230  223.1530 C   0  0  0  0  0  0  0  0  0  0  0  0
  137.8580   72.2040  222.3030 C   0  0  0  0  0  0  0  0  0  0  0  0
  138.5035   72.7130  221.5720 H   0  0  0  0  0  0  0  0  0  0  0  0
  136.5020   72.5350  222.3830 C   0  0  0  0  0  0  0  0  0  0  0  0
  136.0804   73.2912  221.7045 H   0  0  0  0  0  0  0  0  0  0  0  0
  135.6820   71.9070  223.3230 C   0  0  0  0  0  0  0  0  0  0  0  0
  134.6136   72.1628  223.3791 H   0  0  0  0  0  0  0  0  0  0  0  0
  136.2180   70.9550  224.1910 C   0  0  0  0  0  0  0  0  0  0  0  0
  135.5739   70.4688  224.9385 H   0  0  0  0  0  0  0  0  0  0  0  0
  137.5700   70.6190  224.1120 C   0  0  0  0  0  0  0  0  0  0  0  0
  137.9888   69.8753  224.8060 H   0  0  0  0  0  0  0  0  0  0  0  0
  140.6260   71.6040  224.2540 C   0  0  0  0  0  0  0  0  0  0  0  0
  141.6761   71.7435  223.9577 H   0  0  0  0  0  0  0  0  0  0  0  0
  140.1354   72.5735  224.4257 H   0  0  0  0  0  0  0  0  0  0  0  0
  140.5800   70.8170  225.5380 C   0  0  0  0  0  0  0  0  0  0  0  0
  140.7400   71.4690  226.7720 C   0  0  0  0  0  0  0  0  0  0  0  0
  140.8578   72.5622  226.8031 H   0  0  0  0  0  0  0  0  0  0  0  0
  140.7500   70.7330  227.9610 C   0  0  0  0  0  0  0  0  0  0  0  0
  140.8629   71.2500  228.9254 H   0  0  0  0  0  0  0  0  0  0  0  0
  140.6170   69.3430  227.9270 C   0  0  0  0  0  0  0  0  0  0  0  0
  140.6400   68.6300  229.0800 F   0  0  0  0  0  0  0  0  0  0  0  0
  140.4640   68.6850  226.7020 C   0  0  0  0  0  0  0  0  0  0  0  0
  140.3602   67.5902  226.6752 H   0  0  0  0  0  0  0  0  0  0  0  0
  140.4430   69.4180  225.5120 C   0  0  0  0  0  0  0  0  0  0  0  0
  140.3187   68.8979  224.5507 H   0  0  0  0  0  0  0  0  0  0  0  0
  139.4570   77.2580  222.1890 C   0  0  0  0  0  0  0  0  0  0  0  0
  140.7770   77.5900  222.2000 N   0  0  0  0  0  0  0  0  0  0  0  0
  141.2270   78.7610  222.7240 C   0  0  0  0  0  0  0  0  0  0  0  0
  142.5960   79.0470  222.7350 C   0  0  0  0  0  0  0  0  0  0  0  0
  143.3103   78.3338  222.2978 H   0  0  0  0  0  0  0  0  0  0  0  0
  143.0570   80.2400  223.3020 C   0  0  0  0  0  0  0  0  0  0  0  0
  144.1341   80.4634  223.3101 H   0  0  0  0  0  0  0  0  0  0  0  0
  142.1510   81.1500  223.8590 C   0  0  0  0  0  0  0  0  0  0  0  0
  142.6040   82.3020  224.4110 F   0  0  0  0  0  0  0  0  0  0  0  0
  140.7790   80.8740  223.8490 C   0  0  0  0  0  0  0  0  0  0  0  0
  140.0693   81.5919  224.2860 H   0  0  0  0  0  0  0  0  0  0  0  0
  140.3110   79.6810  223.2810 C   0  0  0  0  0  0  0  0  0  0  0  0
  138.9470   79.3660  223.2700 C   0  0  0  0  0  0  0  0  0  0  0  0
  138.2153   80.0739  223.6866 H   0  0  0  0  0  0  0  0  0  0  0  0
  138.5160   78.1530  222.7300 C   0  0  0  0  0  0  0  0  0  0  0  0
  137.4459   77.8982  222.7275 H   0  0  0  0  0  0  0  0  0  0  0  0
  1  2  1  0
  2  3  1  0
  3  4  2  0
  4  5  1  0
  5  6  1  0
  5  7  1  0
  5  8  1  0
  8  9  2  0
  8 10  1  0
 10 11  1  0
 11 12  1  0
 11 13  1  0
 11 14  1  0
 14 15  1  1
 14 16  1  0
 16 17  1  0
 14 18  1  0
 18 19  1  0
 18 20  1  0
 18 21  1  0
 21 22  1  6
 21 23  1  0
 23 24  2  0
 23 25  1  0
 25 26  1  0
 26 27  1  1
 26 28  1  0
 28 29  2  0
 29 30  1  0
 29 31  1  0
 31 32  1  0
 31 33  2  0
 33 34  1  0
 33 35  1  0
 35 36  1  0
 35 37  2  0
 37 38  1  0
 26 39  1  0
 39 40  1  0
 39 41  1  0
 39 42  1  0
 42 43  2  0
 43 44  1  0
 43 45  1  0
 45 46  1  0
 45 47  2  0
 47 48  1  0
 47 49  1  0
 49 50  1  0
 49 51  2  0
 51 52  1  0
  3 53  1  0
 53 54  2  0
 54 55  1  0
 55 56  2  0
 56 57  1  0
 56 58  1  0
 58 59  1  0
 58 60  2  0
 60 61  1  0
 60 62  1  0
 62 63  1  0
 62 64  2  0
 64 65  1  0
 65 66  1  0
 65 67  2  0
 67 68  1  0
 21 10  1  0
 37 28  1  0
 51 42  1  0
 67 53  1  0
 64 55  1  0
M  CHG  1  25  -1
M  END
>  <UniqueID>  (70) 
4

>  <SMILES>  (70) 
O=C([N-][C@@H](Cc1ccc(F)cc1)c1ccccc1)[C@@H]1C[C@@H](O)CN1C(=O)C/N=C(\O)c1ccc2cc(F)ccc2n1

>  <Energy>  (70) 
71.37747220442975

>  <Genealogy>  (70) 
O=C(NCC(=O)N1C[C@H](O)C[C@H]1C(=O)[N-][C@@H](Cc1ccc(F)cc1)c1ccccc1)c1ccc2cc(F)ccc2n1 (protonated)
O=C([N-][C@@H](Cc1ccc(F)cc1)c1ccccc1)[C@@H]1C[C@@H](O)CN1C(=O)CN=C(O)c1ccc2cc(F)ccc2n1 (tautomer)
O=C([N-][C@@H](Cc1ccc(F)cc1)c1ccccc1)[C@@H]1C[C@@H](O)CN1C(=O)C/N=C(\O)c1ccc2cc(F)ccc2n1 (cis-trans isomerization)
O=C([N-][C@@H](Cc1ccc(F)cc1)c1ccccc1)[C@@H]1C[C@@H](O)CN1C(=O)C/N=C(\O)c1ccc2cc(F)ccc2n1 (3D coordinates assigned)
O=C([N-][C@@H](Cc1ccc(F)cc1)c1ccccc1)[C@@H]1C[C@@H](O)CN1C(=O)C/N=C(\O)c1ccc2cc(F)ccc2n1 (nonaromatic ring conformer: 71.37747220442975 kcal/mol)

>  <smiles>  (70) 
O=C(NCC(=O)N1C[C@H](O)C[C@H]1C(=O)N[C@@H](Cc1ccc(F)cc1)c1ccccc1)c1ccc2cc(F)ccc2n1

>  <score_type>  (70) 
oracle

>  <origin>  (70) 
autodockgpu

>  <m_score__min__energy>  (70) 
-9.3499999999999996

>  <m_primary>  (70) 
energy

>  <meeko>  (70) 
{"free_energy": -9.11, "intermolecular_energy": -12.98, "internal_energy": -3.37, "cluster_size": 5, "cluster_id": 1, "rank_in_cluster": 2}

>  <energy>  (70) 
-8.33

>  <cluster_rmsd>  (70) 
1.91

>  <rmsd>  (70) 
271.06

>  <cluster>  (70) 
3

$$$$
XFBXCNWOYUAVIW-ZAPLKEHQNA-M
     RDKit          3D

 68 72  0  0  0  0  0  0  0  0999 V2000
  139.2150   74.4430  222.8490 H   0  0  0  0  0  0  0  0  0  0  0  0
  139.9050   73.7200  222.6950 O   0  0  0  0  0  0  0  0  0  0  0  0
  139.5810   72.3830  222.4460 C   0  0  0  0  0  0  0  0  0  0  0  0
  139.1970   71.9770  221.2680 N   0  0  0  0  0  0  0  0  0  0  0  0
  137.9540   72.3360  220.5890 C   0  0  0  0  0  0  0  0  0  0  0  0
  137.1022   71.9500  221.1681 H   0  0  0  0  0  0  0  0  0  0  0  0
  137.9626   71.8954  219.5811 H   0  0  0  0  0  0  0  0  0  0  0  0
  137.8280   73.8240  220.4620 C   0  0  0  0  0  0  0  0  0  0  0  0
  138.3200   74.4190  219.4670 O   0  0  0  0  0  0  0  0  0  0  0  0
  137.1560   74.5770  221.4730 N   0  0  0  0  0  0  0  0  0  0  0  0
  136.5720   73.9590  222.6470 C   0  0  0  0  0  0  0  0  0  0  0  0
  137.3280   73.3737  223.1910 H   0  0  0  0  0  0  0  0  0  0  0  0
  135.7606   73.2642  222.3846 H   0  0  0  0  0  0  0  0  0  0  0  0
  136.0740   75.1180  223.5050 C   0  0  2  0  0  0  0  0  0  0  0  0
  136.7500   75.3229  224.3483 H   0  0  0  0  0  0  0  0  0  0  0  0
  134.8250   74.8170  224.0690 O   0  0  0  0  0  0  0  0  0  0  0  0
  134.6360   73.8680  223.8440 H   0  0  0  0  0  0  0  0  0  0  0  0
  135.9840   76.3230  222.5600 C   0  0  0  0  0  0  0  0  0  0  0  0
  136.3085   77.2388  223.0758 H   0  0  0  0  0  0  0  0  0  0  0  0
  134.9524   76.4910  222.2171 H   0  0  0  0  0  0  0  0  0  0  0  0
  136.9220   76.0100  221.3890 C   0  0  1  0  0  0  0  0  0  0  0  0
  136.4826   76.3124  220.4270 H   0  0  0  0  0  0  0  0  0  0  0  0
  138.2290   76.7620  221.5130 C   0  0  0  0  0  0  0  0  0  0  0  0
  138.3910   77.8170  220.8420 O   0  0  0  0  0  0  0  0  0  0  0  0
  139.3060   76.3170  222.3510 N   0  0  0  0  0  0  0  0  0  0  0  0
  140.7360   76.3590  222.0480 C   0  0  2  0  0  0  0  0  0  0  0  0
  141.2704   75.6950  222.7433 H   0  0  0  0  0  0  0  0  0  0  0  0
  141.2520   77.7750  222.2190 C   0  0  0  0  0  0  0  0  0  0  0  0
  141.4830   78.3210  223.4960 C   0  0  0  0  0  0  0  0  0  0  0  0
  141.3191   77.7054  224.3928 H   0  0  0  0  0  0  0  0  0  0  0  0
  141.9200   79.6430  223.6290 C   0  0  0  0  0  0  0  0  0  0  0  0
  142.1153   80.0585  224.6286 H   0  0  0  0  0  0  0  0  0  0  0  0
  142.1090   80.4370  222.4950 C   0  0  0  0  0  0  0  0  0  0  0  0
  142.4595   81.4742  222.6018 H   0  0  0  0  0  0  0  0  0  0  0  0
  141.8530   79.9140  221.2270 C   0  0  0  0  0  0  0  0  0  0  0  0
  141.9917   80.5424  220.3349 H   0  0  0  0  0  0  0  0  0  0  0  0
  141.4210   78.5940  221.0900 C   0  0  0  0  0  0  0  0  0  0  0  0
  141.2108   78.1909  220.0883 H   0  0  0  0  0  0  0  0  0  0  0  0
  140.9930   75.8660  220.6090 C   0  0  0  0  0  0  0  0  0  0  0  0
  140.1075   75.3174  220.2554 H   0  0  0  0  0  0  0  0  0  0  0  0
  141.1899   76.7421  219.9736 H   0  0  0  0  0  0  0  0  0  0  0  0
  142.1920   74.9550  220.5440 C   0  0  0  0  0  0  0  0  0  0  0  0
  143.4260   75.4450  220.0850 C   0  0  0  0  0  0  0  0  0  0  0  0
  143.5269   76.5058  219.8118 H   0  0  0  0  0  0  0  0  0  0  0  0
  144.5270   74.5890  219.9740 C   0  0  0  0  0  0  0  0  0  0  0  0
  145.4945   74.9805  219.6266 H   0  0  0  0  0  0  0  0  0  0  0  0
  144.3990   73.2370  220.3040 C   0  0  0  0  0  0  0  0  0  0  0  0
  145.4640   72.4050  220.1820 F   0  0  0  0  0  0  0  0  0  0  0  0
  143.1720   72.7400  220.7550 C   0  0  0  0  0  0  0  0  0  0  0  0
  143.0722   71.6758  221.0147 H   0  0  0  0  0  0  0  0  0  0  0  0
  142.0730   73.5940  220.8760 C   0  0  0  0  0  0  0  0  0  0  0  0
  141.1100   73.1997  221.2327 H   0  0  0  0  0  0  0  0  0  0  0  0
  139.6640   71.4250  223.5660 C   0  0  0  0  0  0  0  0  0  0  0  0
  140.2390   71.8250  224.7330 N   0  0  0  0  0  0  0  0  0  0  0  0
  140.3420   71.0030  225.8110 C   0  0  0  0  0  0  0  0  0  0  0  0
  140.9640   71.4510  226.9810 C   0  0  0  0  0  0  0  0  0  0  0  0
  141.3503   72.4793  227.0392 H   0  0  0  0  0  0  0  0  0  0  0  0
  141.0950   70.5920  228.0770 C   0  0  0  0  0  0  0  0  0  0  0  0
  141.5850   70.9459  228.9961 H   0  0  0  0  0  0  0  0  0  0  0  0
  140.6040   69.2830  228.0070 C   0  0  0  0  0  0  0  0  0  0  0  0
  140.7360   68.4530  229.0710 F   0  0  0  0  0  0  0  0  0  0  0  0
  139.9770   68.8270  226.8420 C   0  0  0  0  0  0  0  0  0  0  0  0
  139.5914   67.7981  226.7906 H   0  0  0  0  0  0  0  0  0  0  0  0
  139.8410   69.6840  225.7400 C   0  0  0  0  0  0  0  0  0  0  0  0
  139.2350   69.2550  224.5550 C   0  0  0  0  0  0  0  0  0  0  0  0
  138.8261   68.2363  224.4838 H   0  0  0  0  0  0  0  0  0  0  0  0
  139.1490   70.1200  223.4620 C   0  0  0  0  0  0  0  0  0  0  0  0
  138.6813   69.7829  222.5252 H   0  0  0  0  0  0  0  0  0  0  0  0
  1  2  1  0
  2  3  1  0
  3  4  2  0
  4  5  1  0
  5  6  1  0
  5  7  1  0
  5  8  1  0
  8  9  2  0
  8 10  1  0
 10 11  1  0
 11 12  1  0
 11 13  1  0
 11 14  1  0
 14 15  1  1
 14 16  1  0
 16 17  1  0
 14 18  1  0
 18 19  1  0
 18 20  1  0
 18 21  1  0
 21 22  1  6
 21 23  1  0
 23 24  2  0
 23 25  1  0
 25 26  1  0
 26 27  1  1
 26 28  1  0
 28 29  2  0
 29 30  1  0
 29 31  1  0
 31 32  1  0
 31 33  2  0
 33 34  1  0
 33 35  1  0
 35 36  1  0
 35 37  2  0
 37 38  1  0
 26 39  1  0
 39 40  1  0
 39 41  1  0
 39 42  1  0
 42 43  2  0
 43 44  1  0
 43 45  1  0
 45 46  1  0
 45 47  2  0
 47 48  1  0
 47 49  1  0
 49 50  1  0
 49 51  2  0
 51 52  1  0
  3 53  1  0
 53 54  2  0
 54 55  1  0
 55 56  2  0
 56 57  1  0
 56 58  1  0
 58 59  1  0
 58 60  2  0
 60 61  1  0
 60 62  1  0
 62 63  1  0
 62 64  2  0
 64 65  1  0
 65 66  1  0
 65 67  2  0
 67 68  1  0
 21 10  1  0
 37 28  1  0
 51 42  1  0
 67 53  1  0
 64 55  1  0
M  CHG  1  25  -1
M  END
>  <UniqueID>  (71) 
4

>  <SMILES>  (71) 
O=C([N-][C@@H](Cc1ccc(F)cc1)c1ccccc1)[C@@H]1C[C@@H](O)CN1C(=O)C/N=C(\O)c1ccc2cc(F)ccc2n1

>  <Energy>  (71) 
71.37747220442975

>  <Genealogy>  (71) 
O=C(NCC(=O)N1C[C@H](O)C[C@H]1C(=O)[N-][C@@H](Cc1ccc(F)cc1)c1ccccc1)c1ccc2cc(F)ccc2n1 (protonated)
O=C([N-][C@@H](Cc1ccc(F)cc1)c1ccccc1)[C@@H]1C[C@@H](O)CN1C(=O)CN=C(O)c1ccc2cc(F)ccc2n1 (tautomer)
O=C([N-][C@@H](Cc1ccc(F)cc1)c1ccccc1)[C@@H]1C[C@@H](O)CN1C(=O)C/N=C(\O)c1ccc2cc(F)ccc2n1 (cis-trans isomerization)
O=C([N-][C@@H](Cc1ccc(F)cc1)c1ccccc1)[C@@H]1C[C@@H](O)CN1C(=O)C/N=C(\O)c1ccc2cc(F)ccc2n1 (3D coordinates assigned)
O=C([N-][C@@H](Cc1ccc(F)cc1)c1ccccc1)[C@@H]1C[C@@H](O)CN1C(=O)C/N=C(\O)c1ccc2cc(F)ccc2n1 (nonaromatic ring conformer: 71.37747220442975 kcal/mol)

>  <smiles>  (71) 
O=C(NCC(=O)N1C[C@H](O)C[C@H]1C(=O)N[C@@H](Cc1ccc(F)cc1)c1ccccc1)c1ccc2cc(F)ccc2n1

>  <score_type>  (71) 
oracle

>  <origin>  (71) 
autodockgpu

>  <m_score__min__energy>  (71) 
-9.3499999999999996

>  <m_primary>  (71) 
energy

>  <meeko>  (71) 
{"free_energy": -8.56, "intermolecular_energy": -12.44, "internal_energy": -3.76, "cluster_size": 5, "cluster_id": 3, "rank_in_cluster": 2}

>  <energy>  (71) 
-7.96

>  <cluster_rmsd>  (71) 
1.46

>  <rmsd>  (71) 
270.85

>  <cluster>  (71) 
3

$$$$
XFBXCNWOYUAVIW-ZAPLKEHQNA-M
     RDKit          3D

 68 72  0  0  0  0  0  0  0  0999 V2000
  139.3330   73.7400  222.7550 H   0  0  0  0  0  0  0  0  0  0  0  0
  139.7640   72.8270  222.7970 O   0  0  0  0  0  0  0  0  0  0  0  0
  139.0390   71.6310  222.8270 C   0  0  0  0  0  0  0  0  0  0  0  0
  138.1450   71.3470  221.9210 N   0  0  0  0  0  0  0  0  0  0  0  0
  136.9930   72.1650  221.5530 C   0  0  0  0  0  0  0  0  0  0  0  0
  136.1841   71.5095  221.1979 H   0  0  0  0  0  0  0  0  0  0  0  0
  137.2963   72.8639  220.7595 H   0  0  0  0  0  0  0  0  0  0  0  0
  136.5040   72.9560  222.7280 C   0  0  0  0  0  0  0  0  0  0  0  0
  136.0990   72.3670  223.7650 O   0  0  0  0  0  0  0  0  0  0  0  0
  136.4870   74.3840  222.6760 N   0  0  0  0  0  0  0  0  0  0  0  0
  135.9050   75.1950  223.7260 C   0  0  0  0  0  0  0  0  0  0  0  0
  136.3636   74.9558  224.6968 H   0  0  0  0  0  0  0  0  0  0  0  0
  134.8249   75.0159  223.8320 H   0  0  0  0  0  0  0  0  0  0  0  0
  136.2070   76.6380  223.3330 C   0  0  2  0  0  0  0  0  0  0  0  0
  137.0392   77.0561  223.9184 H   0  0  0  0  0  0  0  0  0  0  0  0
  135.1000   77.4630  223.5830 O   0  0  0  0  0  0  0  0  0  0  0  0
  134.3150   77.0100  223.1780 H   0  0  0  0  0  0  0  0  0  0  0  0
  136.5450   76.5960  221.8370 C   0  0  0  0  0  0  0  0  0  0  0  0
  137.3654   77.2929  221.6105 H   0  0  0  0  0  0  0  0  0  0  0  0
  135.6846   76.8949  221.2202 H   0  0  0  0  0  0  0  0  0  0  0  0
  136.9740   75.1540  221.5430 C   0  0  1  0  0  0  0  0  0  0  0  0
  136.5697   74.7987  220.5837 H   0  0  0  0  0  0  0  0  0  0  0  0
  138.4790   75.0370  221.4370 C   0  0  0  0  0  0  0  0  0  0  0  0
  138.9710   74.2410  220.5920 O   0  0  0  0  0  0  0  0  0  0  0  0
  139.3770   75.7840  222.2710 N   0  0  0  0  0  0  0  0  0  0  0  0
  140.3390   76.8010  221.8440 C   0  0  2  0  0  0  0  0  0  0  0  0
  139.8208   77.5511  221.2285 H   0  0  0  0  0  0  0  0  0  0  0  0
  141.4330   76.1520  221.0180 C   0  0  0  0  0  0  0  0  0  0  0  0
  141.7940   74.8050  221.2080 C   0  0  0  0  0  0  0  0  0  0  0  0
  141.2553   74.1926  221.9461 H   0  0  0  0  0  0  0  0  0  0  0  0
  142.8340   74.2420  220.4630 C   0  0  0  0  0  0  0  0  0  0  0  0
  143.1002   73.1842  220.6048 H   0  0  0  0  0  0  0  0  0  0  0  0
  143.5360   75.0190  219.5390 C   0  0  0  0  0  0  0  0  0  0  0  0
  144.3492   74.5715  218.9487 H   0  0  0  0  0  0  0  0  0  0  0  0
  143.2050   76.3640  219.3650 C   0  0  0  0  0  0  0  0  0  0  0  0
  143.7645   76.9789  218.6447 H   0  0  0  0  0  0  0  0  0  0  0  0
  142.1650   76.9290  220.1040 C   0  0  0  0  0  0  0  0  0  0  0  0
  141.9159   77.9920  219.9700 H   0  0  0  0  0  0  0  0  0  0  0  0
  140.9450   77.5130  223.0710 C   0  0  0  0  0  0  0  0  0  0  0  0
  140.2768   77.3707  223.9331 H   0  0  0  0  0  0  0  0  0  0  0  0
  141.9360   77.0782  223.2680 H   0  0  0  0  0  0  0  0  0  0  0  0
  141.1170   78.9900  222.8230 C   0  0  0  0  0  0  0  0  0  0  0  0
  139.9940   79.8030  222.5970 C   0  0  0  0  0  0  0  0  0  0  0  0
  138.9847   79.3679  222.6421 H   0  0  0  0  0  0  0  0  0  0  0  0
  140.1540   81.1630  222.3150 C   0  0  0  0  0  0  0  0  0  0  0  0
  139.2707   81.7977  222.1512 H   0  0  0  0  0  0  0  0  0  0  0  0
  141.4350   81.7170  222.2410 C   0  0  0  0  0  0  0  0  0  0  0  0
  141.5890   83.0340  221.9530 F   0  0  0  0  0  0  0  0  0  0  0  0
  142.5580   80.9130  222.4570 C   0  0  0  0  0  0  0  0  0  0  0  0
  143.5658   81.3497  222.3971 H   0  0  0  0  0  0  0  0  0  0  0  0
  142.4020   79.5550  222.7490 C   0  0  0  0  0  0  0  0  0  0  0  0
  143.2879   78.9262  222.9215 H   0  0  0  0  0  0  0  0  0  0  0  0
  139.2960   70.6890  223.9330 C   0  0  0  0  0  0  0  0  0  0  0  0
  139.8930   71.1500  225.0670 N   0  0  0  0  0  0  0  0  0  0  0  0
  140.1510   70.3440  226.1300 C   0  0  0  0  0  0  0  0  0  0  0  0
  140.7900   70.8590  227.2640 C   0  0  0  0  0  0  0  0  0  0  0  0
  141.0631   71.9237  227.3058 H   0  0  0  0  0  0  0  0  0  0  0  0
  141.0810   70.0190  228.3440 C   0  0  0  0  0  0  0  0  0  0  0  0
  141.5840   70.4245  229.2343 H   0  0  0  0  0  0  0  0  0  0  0  0
  140.7340   68.6640  228.2950 C   0  0  0  0  0  0  0  0  0  0  0  0
  141.0220   67.8540  229.3430 F   0  0  0  0  0  0  0  0  0  0  0  0
  140.0920   68.1420  227.1670 C   0  0  0  0  0  0  0  0  0  0  0  0
  139.8197   67.0768  227.1321 H   0  0  0  0  0  0  0  0  0  0  0  0
  139.7960   68.9780  226.0810 C   0  0  0  0  0  0  0  0  0  0  0  0
  139.1690   68.4850  224.9320 C   0  0  0  0  0  0  0  0  0  0  0  0
  138.8705   67.4276  224.8791 H   0  0  0  0  0  0  0  0  0  0  0  0
  138.9220   69.3350  223.8520 C   0  0  0  0  0  0  0  0  0  0  0  0
  138.4378   68.9483  222.9432 H   0  0  0  0  0  0  0  0  0  0  0  0
  1  2  1  0
  2  3  1  0
  3  4  2  0
  4  5  1  0
  5  6  1  0
  5  7  1  0
  5  8  1  0
  8  9  2  0
  8 10  1  0
 10 11  1  0
 11 12  1  0
 11 13  1  0
 11 14  1  0
 14 15  1  1
 14 16  1  0
 16 17  1  0
 14 18  1  0
 18 19  1  0
 18 20  1  0
 18 21  1  0
 21 22  1  6
 21 23  1  0
 23 24  2  0
 23 25  1  0
 25 26  1  0
 26 27  1  6
 26 28  1  0
 28 29  2  0
 29 30  1  0
 29 31  1  0
 31 32  1  0
 31 33  2  0
 33 34  1  0
 33 35  1  0
 35 36  1  0
 35 37  2  0
 37 38  1  0
 26 39  1  0
 39 40  1  0
 39 41  1  0
 39 42  1  0
 42 43  2  0
 43 44  1  0
 43 45  1  0
 45 46  1  0
 45 47  2  0
 47 48  1  0
 47 49  1  0
 49 50  1  0
 49 51  2  0
 51 52  1  0
  3 53  1  0
 53 54  2  0
 54 55  1  0
 55 56  2  0
 56 57  1  0
 56 58  1  0
 58 59  1  0
 58 60  2  0
 60 61  1  0
 60 62  1  0
 62 63  1  0
 62 64  2  0
 64 65  1  0
 65 66  1  0
 65 67  2  0
 67 68  1  0
 21 10  1  0
 37 28  1  0
 51 42  1  0
 67 53  1  0
 64 55  1  0
M  CHG  1  25  -1
M  END
>  <UniqueID>  (72) 
4

>  <SMILES>  (72) 
O=C([N-][C@@H](Cc1ccc(F)cc1)c1ccccc1)[C@@H]1C[C@@H](O)CN1C(=O)C/N=C(\O)c1ccc2cc(F)ccc2n1

>  <Energy>  (72) 
71.37747220442975

>  <Genealogy>  (72) 
O=C(NCC(=O)N1C[C@H](O)C[C@H]1C(=O)[N-][C@@H](Cc1ccc(F)cc1)c1ccccc1)c1ccc2cc(F)ccc2n1 (protonated)
O=C([N-][C@@H](Cc1ccc(F)cc1)c1ccccc1)[C@@H]1C[C@@H](O)CN1C(=O)CN=C(O)c1ccc2cc(F)ccc2n1 (tautomer)
O=C([N-][C@@H](Cc1ccc(F)cc1)c1ccccc1)[C@@H]1C[C@@H](O)CN1C(=O)C/N=C(\O)c1ccc2cc(F)ccc2n1 (cis-trans isomerization)
O=C([N-][C@@H](Cc1ccc(F)cc1)c1ccccc1)[C@@H]1C[C@@H](O)CN1C(=O)C/N=C(\O)c1ccc2cc(F)ccc2n1 (3D coordinates assigned)
O=C([N-][C@@H](Cc1ccc(F)cc1)c1ccccc1)[C@@H]1C[C@@H](O)CN1C(=O)C/N=C(\O)c1ccc2cc(F)ccc2n1 (nonaromatic ring conformer: 71.37747220442975 kcal/mol)

>  <smiles>  (72) 
O=C(NCC(=O)N1C[C@H](O)C[C@H]1C(=O)N[C@@H](Cc1ccc(F)cc1)c1ccccc1)c1ccc2cc(F)ccc2n1

>  <score_type>  (72) 
oracle

>  <origin>  (72) 
autodockgpu

>  <m_score__min__energy>  (72) 
-9.3499999999999996

>  <m_primary>  (72) 
energy

>  <meeko>  (72) 
{"free_energy": -8.33, "intermolecular_energy": -12.21, "internal_energy": -3.81, "cluster_size": 5, "cluster_id": 3, "rank_in_cluster": 3}

>  <energy>  (72) 
-7.85

>  <cluster_rmsd>  (72) 
1.45

>  <rmsd>  (72) 
270.78

>  <cluster>  (72) 
3

$$$$
XFBXCNWOYUAVIW-ZAPLKEHQNA-M
     RDKit          3D

 68 72  0  0  0  0  0  0  0  0999 V2000
  139.1920   74.2030  222.8080 H   0  0  0  0  0  0  0  0  0  0  0  0
  139.6640   73.3130  222.7250 O   0  0  0  0  0  0  0  0  0  0  0  0
  138.9980   72.0840  222.6950 C   0  0  0  0  0  0  0  0  0  0  0  0
  138.1430   71.7880  221.7560 N   0  0  0  0  0  0  0  0  0  0  0  0
  136.7220   71.5020  221.9350 C   0  0  0  0  0  0  0  0  0  0  0  0
  136.5479   71.1749  222.9707 H   0  0  0  0  0  0  0  0  0  0  0  0
  136.4305   70.7106  221.2288 H   0  0  0  0  0  0  0  0  0  0  0  0
  135.8940   72.7200  221.6590 C   0  0  0  0  0  0  0  0  0  0  0  0
  135.2360   72.8100  220.5900 O   0  0  0  0  0  0  0  0  0  0  0  0
  135.8540   73.7910  222.6050 N   0  0  0  0  0  0  0  0  0  0  0  0
  135.4540   73.5990  223.9840 C   0  0  0  0  0  0  0  0  0  0  0  0
  136.0757   72.8275  224.4617 H   0  0  0  0  0  0  0  0  0  0  0  0
  134.4102   73.2617  224.0652 H   0  0  0  0  0  0  0  0  0  0  0  0
  135.6690   74.9510  224.6570 C   0  0  2  0  0  0  0  0  0  0  0  0
  136.5855   74.9649  225.2651 H   0  0  0  0  0  0  0  0  0  0  0  0
  134.6130   75.2420  225.5340 O   0  0  0  0  0  0  0  0  0  0  0  0
  134.5920   76.2300  225.6310 H   0  0  0  0  0  0  0  0  0  0  0  0
  135.7440   75.9730  223.5150 C   0  0  0  0  0  0  0  0  0  0  0  0
  136.5059   76.7356  223.7337 H   0  0  0  0  0  0  0  0  0  0  0  0
  134.7869   76.4982  223.3802 H   0  0  0  0  0  0  0  0  0  0  0  0
  136.1300   75.1780  222.2630 C   0  0  1  0  0  0  0  0  0  0  0  0
  135.5696   75.5166  221.3791 H   0  0  0  0  0  0  0  0  0  0  0  0
  137.5950   75.3540  221.9280 C   0  0  0  0  0  0  0  0  0  0  0  0
  138.1000   74.6510  221.0120 O   0  0  0  0  0  0  0  0  0  0  0  0
  138.4440   76.2800  222.6210 N   0  0  0  0  0  0  0  0  0  0  0  0
  139.8520   76.5650  222.3430 C   0  0  2  0  0  0  0  0  0  0  0  0
  140.4779   75.8178  222.8528 H   0  0  0  0  0  0  0  0  0  0  0  0
  140.2050   77.9450  222.8630 C   0  0  0  0  0  0  0  0  0  0  0  0
  139.2140   78.9170  223.0930 C   0  0  0  0  0  0  0  0  0  0  0  0
  138.1554   78.6696  222.9251 H   0  0  0  0  0  0  0  0  0  0  0  0
  139.5680   80.1960  223.5340 C   0  0  0  0  0  0  0  0  0  0  0  0
  138.7868   80.9456  223.7284 H   0  0  0  0  0  0  0  0  0  0  0  0
  140.9120   80.5230  223.7280 C   0  0  0  0  0  0  0  0  0  0  0  0
  141.1879   81.5273  224.0819 H   0  0  0  0  0  0  0  0  0  0  0  0
  141.9050   79.5760  223.4730 C   0  0  0  0  0  0  0  0  0  0  0  0
  142.9639   79.8376  223.6157 H   0  0  0  0  0  0  0  0  0  0  0  0
  141.5550   78.2970  223.0370 C   0  0  0  0  0  0  0  0  0  0  0  0
  142.3424   77.5579  222.8277 H   0  0  0  0  0  0  0  0  0  0  0  0
  140.1260   76.4780  220.8270 C   0  0  0  0  0  0  0  0  0  0  0  0
  139.3243   75.8938  220.3516 H   0  0  0  0  0  0  0  0  0  0  0  0
  140.1576   77.5004  220.4223 H   0  0  0  0  0  0  0  0  0  0  0  0
  141.4500   75.8150  220.5430 C   0  0  0  0  0  0  0  0  0  0  0  0
  141.6870   74.4990  220.9730 C   0  0  0  0  0  0  0  0  0  0  0  0
  140.8900   73.9368  221.4816 H   0  0  0  0  0  0  0  0  0  0  0  0
  142.9320   73.9010  220.7570 C   0  0  0  0  0  0  0  0  0  0  0  0
  143.1086   72.8662  221.0857 H   0  0  0  0  0  0  0  0  0  0  0  0
  143.9530   74.6160  220.1240 C   0  0  0  0  0  0  0  0  0  0  0  0
  145.1640   74.0380  219.9270 F   0  0  0  0  0  0  0  0  0  0  0  0
  143.7270   75.9280  219.6990 C   0  0  0  0  0  0  0  0  0  0  0  0
  144.5310   76.4902  219.2016 H   0  0  0  0  0  0  0  0  0  0  0  0
  142.4810   76.5270  219.9050 C   0  0  0  0  0  0  0  0  0  0  0  0
  142.3064   77.5591  219.5668 H   0  0  0  0  0  0  0  0  0  0  0  0
  139.2700   71.1180  223.7770 C   0  0  0  0  0  0  0  0  0  0  0  0
  139.8410   71.5630  224.9300 N   0  0  0  0  0  0  0  0  0  0  0  0
  140.1110   70.7350  225.9730 C   0  0  0  0  0  0  0  0  0  0  0  0
  140.7220   71.2340  227.1290 C   0  0  0  0  0  0  0  0  0  0  0  0
  140.9631   72.3045  227.2052 H   0  0  0  0  0  0  0  0  0  0  0  0
  141.0260   70.3720  228.1870 C   0  0  0  0  0  0  0  0  0  0  0  0
  141.5064   70.7662  229.0946 H   0  0  0  0  0  0  0  0  0  0  0  0
  140.7210   69.0090  228.0950 C   0  0  0  0  0  0  0  0  0  0  0  0
  141.0220   68.1780  229.1220 F   0  0  0  0  0  0  0  0  0  0  0  0
  140.1070   68.5010  226.9440 C   0  0  0  0  0  0  0  0  0  0  0  0
  139.8674   67.4297  226.8746 H   0  0  0  0  0  0  0  0  0  0  0  0
  139.7980   69.3600  225.8800 C   0  0  0  0  0  0  0  0  0  0  0  0
  139.2000   68.8820  224.7090 C   0  0  0  0  0  0  0  0  0  0  0  0
  138.9355   67.8179  224.6211 H   0  0  0  0  0  0  0  0  0  0  0  0
  138.9390   69.7560  223.6520 C   0  0  0  0  0  0  0  0  0  0  0  0
  138.4771   69.3819  222.7264 H   0  0  0  0  0  0  0  0  0  0  0  0
  1  2  1  0
  2  3  1  0
  3  4  2  0
  4  5  1  0
  5  6  1  0
  5  7  1  0
  5  8  1  0
  8  9  2  0
  8 10  1  0
 10 11  1  0
 11 12  1  0
 11 13  1  0
 11 14  1  0
 14 15  1  1
 14 16  1  0
 16 17  1  0
 14 18  1  0
 18 19  1  0
 18 20  1  0
 18 21  1  0
 21 22  1  6
 21 23  1  0
 23 24  2  0
 23 25  1  0
 25 26  1  0
 26 27  1  1
 26 28  1  0
 28 29  2  0
 29 30  1  0
 29 31  1  0
 31 32  1  0
 31 33  2  0
 33 34  1  0
 33 35  1  0
 35 36  1  0
 35 37  2  0
 37 38  1  0
 26 39  1  0
 39 40  1  0
 39 41  1  0
 39 42  1  0
 42 43  2  0
 43 44  1  0
 43 45  1  0
 45 46  1  0
 45 47  2  0
 47 48  1  0
 47 49  1  0
 49 50  1  0
 49 51  2  0
 51 52  1  0
  3 53  1  0
 53 54  2  0
 54 55  1  0
 55 56  2  0
 56 57  1  0
 56 58  1  0
 58 59  1  0
 58 60  2  0
 60 61  1  0
 60 62  1  0
 62 63  1  0
 62 64  2  0
 64 65  1  0
 65 66  1  0
 65 67  2  0
 67 68  1  0
 21 10  1  0
 37 28  1  0
 51 42  1  0
 67 53  1  0
 64 55  1  0
M  CHG  1  25  -1
M  END
>  <UniqueID>  (73) 
4

>  <SMILES>  (73) 
O=C([N-][C@@H](Cc1ccc(F)cc1)c1ccccc1)[C@@H]1C[C@@H](O)CN1C(=O)C/N=C(\O)c1ccc2cc(F)ccc2n1

>  <Energy>  (73) 
71.37747220442975

>  <Genealogy>  (73) 
O=C(NCC(=O)N1C[C@H](O)C[C@H]1C(=O)[N-][C@@H](Cc1ccc(F)cc1)c1ccccc1)c1ccc2cc(F)ccc2n1 (protonated)
O=C([N-][C@@H](Cc1ccc(F)cc1)c1ccccc1)[C@@H]1C[C@@H](O)CN1C(=O)CN=C(O)c1ccc2cc(F)ccc2n1 (tautomer)
O=C([N-][C@@H](Cc1ccc(F)cc1)c1ccccc1)[C@@H]1C[C@@H](O)CN1C(=O)C/N=C(\O)c1ccc2cc(F)ccc2n1 (cis-trans isomerization)
O=C([N-][C@@H](Cc1ccc(F)cc1)c1ccccc1)[C@@H]1C[C@@H](O)CN1C(=O)C/N=C(\O)c1ccc2cc(F)ccc2n1 (3D coordinates assigned)
O=C([N-][C@@H](Cc1ccc(F)cc1)c1ccccc1)[C@@H]1C[C@@H](O)CN1C(=O)C/N=C(\O)c1ccc2cc(F)ccc2n1 (nonaromatic ring conformer: 71.37747220442975 kcal/mol)

>  <smiles>  (73) 
O=C(NCC(=O)N1C[C@H](O)C[C@H]1C(=O)N[C@@H](Cc1ccc(F)cc1)c1ccccc1)c1ccc2cc(F)ccc2n1

>  <score_type>  (73) 
oracle

>  <origin>  (73) 
autodockgpu

>  <m_score__min__energy>  (73) 
-9.3499999999999996

>  <m_primary>  (73) 
energy

>  <meeko>  (73) 
{"free_energy": -8.58, "intermolecular_energy": -12.46, "internal_energy": -3.88, "cluster_size": 5, "cluster_id": 3, "rank_in_cluster": 1}

>  <energy>  (73) 
-8.35

>  <cluster_rmsd>  (73) 
0.0

>  <rmsd>  (73) 
270.92

>  <cluster>  (73) 
4

$$$$
XFBXCNWOYUAVIW-ZAPLKEHQNA-M
     RDKit          3D

 68 72  0  0  0  0  0  0  0  0999 V2000
  139.1720   73.8890  222.7660 H   0  0  0  0  0  0  0  0  0  0  0  0
  138.6750   74.6140  222.2680 O   0  0  0  0  0  0  0  0  0  0  0  0
  139.2050   75.3030  221.1730 C   0  0  0  0  0  0  0  0  0  0  0  0
  139.0320   74.8860  219.9490 N   0  0  0  0  0  0  0  0  0  0  0  0
  138.9450   73.4960  219.5110 C   0  0  0  0  0  0  0  0  0  0  0  0
  138.1143   73.3945  218.7972 H   0  0  0  0  0  0  0  0  0  0  0  0
  138.7741   72.8596  220.3918 H   0  0  0  0  0  0  0  0  0  0  0  0
  140.2170   73.0650  218.8480 C   0  0  0  0  0  0  0  0  0  0  0  0
  140.2000   72.6230  217.6690 O   0  0  0  0  0  0  0  0  0  0  0  0
  141.4580   73.1470  219.5520 N   0  0  0  0  0  0  0  0  0  0  0  0
  142.3960   74.2340  219.3550 C   0  0  0  0  0  0  0  0  0  0  0  0
  141.9073   75.2026  219.5365 H   0  0  0  0  0  0  0  0  0  0  0  0
  142.7826   74.2611  218.3255 H   0  0  0  0  0  0  0  0  0  0  0  0
  143.5060   73.9960  220.3740 C   0  0  2  0  0  0  0  0  0  0  0  0
  143.4140   74.6651  221.2423 H   0  0  0  0  0  0  0  0  0  0  0  0
  144.7640   74.2590  219.8100 O   0  0  0  0  0  0  0  0  0  0  0  0
  144.6130   74.9150  219.0800 H   0  0  0  0  0  0  0  0  0  0  0  0
  143.3770   72.5250  220.7900 C   0  0  0  0  0  0  0  0  0  0  0  0
  143.5727   72.4134  221.8667 H   0  0  0  0  0  0  0  0  0  0  0  0
  144.1026   71.8906  220.2599 H   0  0  0  0  0  0  0  0  0  0  0  0
  141.9350   72.1210  220.4660 C   0  0  1  0  0  0  0  0  0  0  0  0
  141.8851   71.1111  220.0329 H   0  0  0  0  0  0  0  0  0  0  0  0
  141.0780   72.0910  221.7130 C   0  0  0  0  0  0  0  0  0  0  0  0
  140.8670   73.1670  222.3350 O   0  0  0  0  0  0  0  0  0  0  0  0
  140.5050   70.8820  222.2330 N   0  0  0  0  0  0  0  0  0  0  0  0
  139.6570   70.7450  223.4170 C   0  0  2  0  0  0  0  0  0  0  0  0
  139.5747   69.6798  223.6791 H   0  0  0  0  0  0  0  0  0  0  0  0
  138.2730   71.2900  223.1190 C   0  0  0  0  0  0  0  0  0  0  0  0
  137.3320   71.4990  224.1450 C   0  0  0  0  0  0  0  0  0  0  0  0
  137.6073   71.2965  225.1906 H   0  0  0  0  0  0  0  0  0  0  0  0
  136.0490   71.9630  223.8400 C   0  0  0  0  0  0  0  0  0  0  0  0
  135.3235   72.1403  224.6476 H   0  0  0  0  0  0  0  0  0  0  0  0
  135.6860   72.2020  222.5130 C   0  0  0  0  0  0  0  0  0  0  0  0
  134.6783   72.5743  222.2764 H   0  0  0  0  0  0  0  0  0  0  0  0
  136.6030   71.9680  221.4870 C   0  0  0  0  0  0  0  0  0  0  0  0
  136.3138   72.1457  220.4407 H   0  0  0  0  0  0  0  0  0  0  0  0
  137.8860   71.5090  221.7870 C   0  0  0  0  0  0  0  0  0  0  0  0
  138.6006   71.3170  220.9730 H   0  0  0  0  0  0  0  0  0  0  0  0
  140.2820   71.4930  224.6130 C   0  0  0  0  0  0  0  0  0  0  0  0
  141.2592   71.8973  224.3105 H   0  0  0  0  0  0  0  0  0  0  0  0
  139.5981   72.3019  224.9095 H   0  0  0  0  0  0  0  0  0  0  0  0
  140.4750   70.5800  225.7960 C   0  0  0  0  0  0  0  0  0  0  0  0
  140.1960   69.2080  225.6810 C   0  0  0  0  0  0  0  0  0  0  0  0
  139.8758   68.7929  224.7140 H   0  0  0  0  0  0  0  0  0  0  0  0
  140.3240   68.3680  226.7920 C   0  0  0  0  0  0  0  0  0  0  0  0
  140.1157   67.2923  226.6941 H   0  0  0  0  0  0  0  0  0  0  0  0
  140.7160   68.8930  228.0260 C   0  0  0  0  0  0  0  0  0  0  0  0
  140.8270   68.0790  229.1060 F   0  0  0  0  0  0  0  0  0  0  0  0
  140.9890   70.2590  228.1500 C   0  0  0  0  0  0  0  0  0  0  0  0
  141.2961   70.6719  229.1222 H   0  0  0  0  0  0  0  0  0  0  0  0
  140.8720   71.1000  227.0400 C   0  0  0  0  0  0  0  0  0  0  0  0
  141.0915   72.1732  227.1403 H   0  0  0  0  0  0  0  0  0  0  0  0
  139.9960   76.5220  221.4330 C   0  0  0  0  0  0  0  0  0  0  0  0
  139.5390   77.4210  222.3470 N   0  0  0  0  0  0  0  0  0  0  0  0
  140.2170   78.5600  222.6470 C   0  0  0  0  0  0  0  0  0  0  0  0
  139.6940   79.4670  223.5760 C   0  0  0  0  0  0  0  0  0  0  0  0
  138.7429   79.2479  224.0834 H   0  0  0  0  0  0  0  0  0  0  0  0
  140.3810   80.6520  223.8590 C   0  0  0  0  0  0  0  0  0  0  0  0
  139.9691   81.3636  224.5898 H   0  0  0  0  0  0  0  0  0  0  0  0
  141.5910   80.9350  223.2150 C   0  0  0  0  0  0  0  0  0  0  0  0
  142.2510   82.0870  223.4900 F   0  0  0  0  0  0  0  0  0  0  0  0
  142.1240   80.0320  222.2880 C   0  0  0  0  0  0  0  0  0  0  0  0
  143.0766   80.2559  221.7855 H   0  0  0  0  0  0  0  0  0  0  0  0
  141.4410   78.8410  222.0010 C   0  0  0  0  0  0  0  0  0  0  0  0
  141.9370   77.9250  221.0660 C   0  0  0  0  0  0  0  0  0  0  0  0
  142.8950   78.1177  220.5610 H   0  0  0  0  0  0  0  0  0  0  0  0
  141.2140   76.7660  220.7750 C   0  0  0  0  0  0  0  0  0  0  0  0
  141.5958   76.0477  220.0346 H   0  0  0  0  0  0  0  0  0  0  0  0
  1  2  1  0
  2  3  1  0
  3  4  2  0
  4  5  1  0
  5  6  1  0
  5  7  1  0
  5  8  1  0
  8  9  2  0
  8 10  1  0
 10 11  1  0
 11 12  1  0
 11 13  1  0
 11 14  1  0
 14 15  1  1
 14 16  1  0
 16 17  1  0
 14 18  1  0
 18 19  1  0
 18 20  1  0
 18 21  1  0
 21 22  1  6
 21 23  1  0
 23 24  2  0
 23 25  1  0
 25 26  1  0
 26 27  1  1
 26 28  1  0
 28 29  2  0
 29 30  1  0
 29 31  1  0
 31 32  1  0
 31 33  2  0
 33 34  1  0
 33 35  1  0
 35 36  1  0
 35 37  2  0
 37 38  1  0
 26 39  1  0
 39 40  1  0
 39 41  1  0
 39 42  1  0
 42 43  2  0
 43 44  1  0
 43 45  1  0
 45 46  1  0
 45 47  2  0
 47 48  1  0
 47 49  1  0
 49 50  1  0
 49 51  2  0
 51 52  1  0
  3 53  1  0
 53 54  2  0
 54 55  1  0
 55 56  2  0
 56 57  1  0
 56 58  1  0
 58 59  1  0
 58 60  2  0
 60 61  1  0
 60 62  1  0
 62 63  1  0
 62 64  2  0
 64 65  1  0
 65 66  1  0
 65 67  2  0
 67 68  1  0
 21 10  1  0
 37 28  1  0
 51 42  1  0
 67 53  1  0
 64 55  1  0
M  CHG  1  25  -1
M  END
>  <UniqueID>  (74) 
4

>  <SMILES>  (74) 
O=C([N-][C@@H](Cc1ccc(F)cc1)c1ccccc1)[C@@H]1C[C@@H](O)CN1C(=O)C/N=C(\O)c1ccc2cc(F)ccc2n1

>  <Energy>  (74) 
71.37747220442975

>  <Genealogy>  (74) 
O=C(NCC(=O)N1C[C@H](O)C[C@H]1C(=O)[N-][C@@H](Cc1ccc(F)cc1)c1ccccc1)c1ccc2cc(F)ccc2n1 (protonated)
O=C([N-][C@@H](Cc1ccc(F)cc1)c1ccccc1)[C@@H]1C[C@@H](O)CN1C(=O)CN=C(O)c1ccc2cc(F)ccc2n1 (tautomer)
O=C([N-][C@@H](Cc1ccc(F)cc1)c1ccccc1)[C@@H]1C[C@@H](O)CN1C(=O)C/N=C(\O)c1ccc2cc(F)ccc2n1 (cis-trans isomerization)
O=C([N-][C@@H](Cc1ccc(F)cc1)c1ccccc1)[C@@H]1C[C@@H](O)CN1C(=O)C/N=C(\O)c1ccc2cc(F)ccc2n1 (3D coordinates assigned)
O=C([N-][C@@H](Cc1ccc(F)cc1)c1ccccc1)[C@@H]1C[C@@H](O)CN1C(=O)C/N=C(\O)c1ccc2cc(F)ccc2n1 (nonaromatic ring conformer: 71.37747220442975 kcal/mol)

>  <smiles>  (74) 
O=C(NCC(=O)N1C[C@H](O)C[C@H]1C(=O)N[C@@H](Cc1ccc(F)cc1)c1ccccc1)c1ccc2cc(F)ccc2n1

>  <score_type>  (74) 
oracle

>  <origin>  (74) 
autodockgpu

>  <m_score__min__energy>  (74) 
-9.3499999999999996

>  <m_primary>  (74) 
energy

>  <meeko>  (74) 
{"free_energy": -7.69, "intermolecular_energy": -11.57, "internal_energy": -3.84, "cluster_size": 5, "cluster_id": 1, "rank_in_cluster": 5}

>  <energy>  (74) 
-8.17

>  <cluster_rmsd>  (74) 
0.0

>  <rmsd>  (74) 
271.57

>  <cluster>  (74) 
5

$$$$
XFBXCNWOYUAVIW-ZAPLKEHQNA-M
     RDKit          3D

 68 72  0  0  0  0  0  0  0  0999 V2000
  138.8800   73.9070  222.8200 H   0  0  0  0  0  0  0  0  0  0  0  0
  138.2910   74.4780  222.2300 O   0  0  0  0  0  0  0  0  0  0  0  0
  138.7810   75.4840  221.3910 C   0  0  0  0  0  0  0  0  0  0  0  0
  138.9280   75.2980  220.1090 N   0  0  0  0  0  0  0  0  0  0  0  0
  139.8090   74.3230  219.4700 C   0  0  0  0  0  0  0  0  0  0  0  0
  139.5434   74.2402  218.4058 H   0  0  0  0  0  0  0  0  0  0  0  0
  139.6841   73.3527  219.9728 H   0  0  0  0  0  0  0  0  0  0  0  0
  141.2420   74.7430  219.5870 C   0  0  0  0  0  0  0  0  0  0  0  0
  141.6000   75.8900  219.2120 O   0  0  0  0  0  0  0  0  0  0  0  0
  142.2140   73.8390  220.1180 N   0  0  0  0  0  0  0  0  0  0  0  0
  143.6350   74.1230  220.0990 C   0  0  0  0  0  0  0  0  0  0  0  0
  143.8433   75.0816  220.5967 H   0  0  0  0  0  0  0  0  0  0  0  0
  144.0235   74.2068  219.0733 H   0  0  0  0  0  0  0  0  0  0  0  0
  144.2840   72.9720  220.8620 C   0  0  2  0  0  0  0  0  0  0  0  0
  144.5685   73.2661  221.8831 H   0  0  0  0  0  0  0  0  0  0  0  0
  145.4680   72.5620  220.2280 O   0  0  0  0  0  0  0  0  0  0  0  0
  145.8940   71.8980  220.8310 H   0  0  0  0  0  0  0  0  0  0  0  0
  143.2410   71.8470  220.8790 C   0  0  0  0  0  0  0  0  0  0  0  0
  143.2517   71.3299  221.8498 H   0  0  0  0  0  0  0  0  0  0  0  0
  143.4485   71.0921  220.1063 H   0  0  0  0  0  0  0  0  0  0  0  0
  141.8860   72.5270  220.6520 C   0  0  1  0  0  0  0  0  0  0  0  0
  141.2472   71.9415  219.9744 H   0  0  0  0  0  0  0  0  0  0  0  0
  141.1150   72.6650  221.9470 C   0  0  0  0  0  0  0  0  0  0  0  0
  140.7840   73.8150  222.3400 O   0  0  0  0  0  0  0  0  0  0  0  0
  140.7550   71.5380  222.7600 N   0  0  0  0  0  0  0  0  0  0  0  0
  139.6300   71.4450  223.6920 C   0  0  2  0  0  0  0  0  0  0  0  0
  139.1804   72.4414  223.8145 H   0  0  0  0  0  0  0  0  0  0  0  0
  140.1240   70.9560  225.0390 C   0  0  0  0  0  0  0  0  0  0  0  0
  139.9430   69.6200  225.4440 C   0  0  0  0  0  0  0  0  0  0  0  0
  139.4637   68.9015  224.7628 H   0  0  0  0  0  0  0  0  0  0  0  0
  140.3700   69.2020  226.7090 C   0  0  0  0  0  0  0  0  0  0  0  0
  140.2409   68.1529  227.0133 H   0  0  0  0  0  0  0  0  0  0  0  0
  140.9600   70.1150  227.5860 C   0  0  0  0  0  0  0  0  0  0  0  0
  141.3028   69.7824  228.5769 H   0  0  0  0  0  0  0  0  0  0  0  0
  141.1150   71.4490  227.2060 C   0  0  0  0  0  0  0  0  0  0  0  0
  141.5689   72.1700  227.9018 H   0  0  0  0  0  0  0  0  0  0  0  0
  140.6940   71.8680  225.9430 C   0  0  0  0  0  0  0  0  0  0  0  0
  140.8096   72.9226  225.6525 H   0  0  0  0  0  0  0  0  0  0  0  0
  138.5530   70.4910  223.1370 C   0  0  0  0  0  0  0  0  0  0  0  0
  138.4630   70.6461  222.0517 H   0  0  0  0  0  0  0  0  0  0  0  0
  138.8582   69.4582  223.3609 H   0  0  0  0  0  0  0  0  0  0  0  0
  137.2120   70.7380  223.7800 C   0  0  0  0  0  0  0  0  0  0  0  0
  136.5700   71.9770  223.6180 C   0  0  0  0  0  0  0  0  0  0  0  0
  137.0273   72.7530  222.9866 H   0  0  0  0  0  0  0  0  0  0  0  0
  135.3510   72.2270  224.2570 C   0  0  0  0  0  0  0  0  0  0  0  0
  134.8460   73.1942  224.1176 H   0  0  0  0  0  0  0  0  0  0  0  0
  134.7740   71.2500  225.0720 C   0  0  0  0  0  0  0  0  0  0  0  0
  133.5980   71.4990  225.7020 F   0  0  0  0  0  0  0  0  0  0  0  0
  135.4100   70.0170  225.2430 C   0  0  0  0  0  0  0  0  0  0  0  0
  134.9550   69.2487  225.8854 H   0  0  0  0  0  0  0  0  0  0  0  0
  136.6230   69.7590  224.5990 C   0  0  0  0  0  0  0  0  0  0  0  0
  137.1188   68.7863  224.7334 H   0  0  0  0  0  0  0  0  0  0  0  0
  139.1540   76.7770  221.9970 C   0  0  0  0  0  0  0  0  0  0  0  0
  140.4510   77.1850  221.9320 N   0  0  0  0  0  0  0  0  0  0  0  0
  140.8660   78.3680  222.4580 C   0  0  0  0  0  0  0  0  0  0  0  0
  142.2150   78.7330  222.3890 C   0  0  0  0  0  0  0  0  0  0  0  0
  142.9384   78.0732  221.8877 H   0  0  0  0  0  0  0  0  0  0  0  0
  142.6440   79.9380  222.9580 C   0  0  0  0  0  0  0  0  0  0  0  0
  143.7046   80.2243  222.9027 H   0  0  0  0  0  0  0  0  0  0  0  0
  141.7260   80.7790  223.5970 C   0  0  0  0  0  0  0  0  0  0  0  0
  142.1470   81.9430  224.1500 F   0  0  0  0  0  0  0  0  0  0  0  0
  140.3740   80.4240  223.6670 C   0  0  0  0  0  0  0  0  0  0  0  0
  139.6548   81.0891  224.1675 H   0  0  0  0  0  0  0  0  0  0  0  0
  139.9380   79.2190  223.0980 C   0  0  0  0  0  0  0  0  0  0  0  0
  138.5970   78.8260  223.1650 C   0  0  0  0  0  0  0  0  0  0  0  0
  137.8550   79.4805  223.6457 H   0  0  0  0  0  0  0  0  0  0  0  0
  138.2010   77.6020  222.6210 C   0  0  0  0  0  0  0  0  0  0  0  0
  137.1494   77.2849  222.6803 H   0  0  0  0  0  0  0  0  0  0  0  0
  1  2  1  0
  2  3  1  0
  3  4  2  0
  4  5  1  0
  5  6  1  0
  5  7  1  0
  5  8  1  0
  8  9  2  0
  8 10  1  0
 10 11  1  0
 11 12  1  0
 11 13  1  0
 11 14  1  0
 14 15  1  1
 14 16  1  0
 16 17  1  0
 14 18  1  0
 18 19  1  0
 18 20  1  0
 18 21  1  0
 21 22  1  6
 21 23  1  0
 23 24  2  0
 23 25  1  0
 25 26  1  0
 26 27  1  1
 26 28  1  0
 28 29  2  0
 29 30  1  0
 29 31  1  0
 31 32  1  0
 31 33  2  0
 33 34  1  0
 33 35  1  0
 35 36  1  0
 35 37  2  0
 37 38  1  0
 26 39  1  0
 39 40  1  0
 39 41  1  0
 39 42  1  0
 42 43  2  0
 43 44  1  0
 43 45  1  0
 45 46  1  0
 45 47  2  0
 47 48  1  0
 47 49  1  0
 49 50  1  0
 49 51  2  0
 51 52  1  0
  3 53  1  0
 53 54  2  0
 54 55  1  0
 55 56  2  0
 56 57  1  0
 56 58  1  0
 58 59  1  0
 58 60  2  0
 60 61  1  0
 60 62  1  0
 62 63  1  0
 62 64  2  0
 64 65  1  0
 65 66  1  0
 65 67  2  0
 67 68  1  0
 21 10  1  0
 37 28  1  0
 51 42  1  0
 67 53  1  0
 64 55  1  0
M  CHG  1  25  -1
M  END
>  <UniqueID>  (75) 
4

>  <SMILES>  (75) 
O=C([N-][C@@H](Cc1ccc(F)cc1)c1ccccc1)[C@@H]1C[C@@H](O)CN1C(=O)C/N=C(\O)c1ccc2cc(F)ccc2n1

>  <Energy>  (75) 
71.37747220442975

>  <Genealogy>  (75) 
O=C(NCC(=O)N1C[C@H](O)C[C@H]1C(=O)[N-][C@@H](Cc1ccc(F)cc1)c1ccccc1)c1ccc2cc(F)ccc2n1 (protonated)
O=C([N-][C@@H](Cc1ccc(F)cc1)c1ccccc1)[C@@H]1C[C@@H](O)CN1C(=O)CN=C(O)c1ccc2cc(F)ccc2n1 (tautomer)
O=C([N-][C@@H](Cc1ccc(F)cc1)c1ccccc1)[C@@H]1C[C@@H](O)CN1C(=O)C/N=C(\O)c1ccc2cc(F)ccc2n1 (cis-trans isomerization)
O=C([N-][C@@H](Cc1ccc(F)cc1)c1ccccc1)[C@@H]1C[C@@H](O)CN1C(=O)C/N=C(\O)c1ccc2cc(F)ccc2n1 (3D coordinates assigned)
O=C([N-][C@@H](Cc1ccc(F)cc1)c1ccccc1)[C@@H]1C[C@@H](O)CN1C(=O)C/N=C(\O)c1ccc2cc(F)ccc2n1 (nonaromatic ring conformer: 71.37747220442975 kcal/mol)

>  <smiles>  (75) 
O=C(NCC(=O)N1C[C@H](O)C[C@H]1C(=O)N[C@@H](Cc1ccc(F)cc1)c1ccccc1)c1ccc2cc(F)ccc2n1

>  <score_type>  (75) 
oracle

>  <origin>  (75) 
autodockgpu

>  <m_score__min__energy>  (75) 
-9.3499999999999996

>  <m_primary>  (75) 
energy

>  <meeko>  (75) 
{"free_energy": -8.85, "intermolecular_energy": -12.73, "internal_energy": -3.42, "cluster_size": 2, "cluster_id": 2, "rank_in_cluster": 1}

>  <energy>  (75) 
-8.01

>  <cluster_rmsd>  (75) 
0.0

>  <rmsd>  (75) 
270.46

>  <cluster>  (75) 
6

$$$$
XFBXCNWOYUAVIW-ZAPLKEHQNA-M
     RDKit          3D

 68 72  0  0  0  0  0  0  0  0999 V2000
  139.0360   74.0580  222.8130 H   0  0  0  0  0  0  0  0  0  0  0  0
  138.5240   74.7850  222.3340 O   0  0  0  0  0  0  0  0  0  0  0  0
  139.0750   75.5800  221.3230 C   0  0  0  0  0  0  0  0  0  0  0  0
  139.0010   75.2420  220.0660 N   0  0  0  0  0  0  0  0  0  0  0  0
  139.9520   74.4080  219.3350 C   0  0  0  0  0  0  0  0  0  0  0  0
  139.6220   74.3164  218.2897 H   0  0  0  0  0  0  0  0  0  0  0  0
  139.9918   73.4178  219.8125 H   0  0  0  0  0  0  0  0  0  0  0  0
  141.3230   75.0110  219.3660 C   0  0  0  0  0  0  0  0  0  0  0  0
  141.5200   76.1640  218.9000 O   0  0  0  0  0  0  0  0  0  0  0  0
  142.4190   74.2760  219.9160 N   0  0  0  0  0  0  0  0  0  0  0  0
  143.7380   74.8520  220.0840 C   0  0  0  0  0  0  0  0  0  0  0  0
  143.6841   75.7688  220.6895 H   0  0  0  0  0  0  0  0  0  0  0  0
  144.1889   75.1334  219.1209 H   0  0  0  0  0  0  0  0  0  0  0  0
  144.5540   73.7830  220.8040 C   0  0  2  0  0  0  0  0  0  0  0  0
  144.6744   74.0103  221.8735 H   0  0  0  0  0  0  0  0  0  0  0  0
  145.8500   73.7070  220.2730 O   0  0  0  0  0  0  0  0  0  0  0  0
  145.9680   74.5110  219.7030 H   0  0  0  0  0  0  0  0  0  0  0  0
  143.7870   72.4700  220.5990 C   0  0  0  0  0  0  0  0  0  0  0  0
  143.8237   71.8590  221.5130 H   0  0  0  0  0  0  0  0  0  0  0  0
  144.2249   71.8695  219.7880 H   0  0  0  0  0  0  0  0  0  0  0  0
  142.3420   72.8710  220.2840 C   0  0  1  0  0  0  0  0  0  0  0  0
  141.9125   72.2469  219.4865 H   0  0  0  0  0  0  0  0  0  0  0  0
  141.4460   72.6930  221.4900 C   0  0  0  0  0  0  0  0  0  0  0  0
  141.0530   73.7150  222.1150 O   0  0  0  0  0  0  0  0  0  0  0  0
  141.0330   71.4040  221.9680 N   0  0  0  0  0  0  0  0  0  0  0  0
  140.1590   71.1220  223.1070 C   0  0  2  0  0  0  0  0  0  0  0  0
  140.1760   70.0420  223.3153 H   0  0  0  0  0  0  0  0  0  0  0  0
  138.7390   71.5410  222.7750 C   0  0  0  0  0  0  0  0  0  0  0  0
  137.7190   71.5030  223.7440 C   0  0  0  0  0  0  0  0  0  0  0  0
  137.9531   71.1942  224.7735 H   0  0  0  0  0  0  0  0  0  0  0  0
  136.4090   71.8560  223.4040 C   0  0  0  0  0  0  0  0  0  0  0  0
  135.6197   71.8414  224.1700 H   0  0  0  0  0  0  0  0  0  0  0  0
  136.1020   72.2270  222.0930 C   0  0  0  0  0  0  0  0  0  0  0  0
  135.0728   72.5115  221.8290 H   0  0  0  0  0  0  0  0  0  0  0  0
  137.1000   72.2370  221.1180 C   0  0  0  0  0  0  0  0  0  0  0  0
  136.8547   72.5178  220.0831 H   0  0  0  0  0  0  0  0  0  0  0  0
  138.4090   71.8910  221.4550 C   0  0  0  0  0  0  0  0  0  0  0  0
  139.1897   71.8923  220.6801 H   0  0  0  0  0  0  0  0  0  0  0  0
  140.6580   71.8670  224.3620 C   0  0  0  0  0  0  0  0  0  0  0  0
  141.7042   72.1688  224.2062 H   0  0  0  0  0  0  0  0  0  0  0  0
  140.0162   72.7464  224.5195 H   0  0  0  0  0  0  0  0  0  0  0  0
  140.5770   70.9960  225.5900 C   0  0  0  0  0  0  0  0  0  0  0  0
  140.7930   71.5500  226.8620 C   0  0  0  0  0  0  0  0  0  0  0  0
  140.9809   72.6289  226.9655 H   0  0  0  0  0  0  0  0  0  0  0  0
  140.7700   70.7340  227.9980 C   0  0  0  0  0  0  0  0  0  0  0  0
  140.9278   71.1742  228.9936 H   0  0  0  0  0  0  0  0  0  0  0  0
  140.5470   69.3610  227.8700 C   0  0  0  0  0  0  0  0  0  0  0  0
  140.5390   68.5690  228.9720 F   0  0  0  0  0  0  0  0  0  0  0  0
  140.3380   68.8010  226.6060 C   0  0  0  0  0  0  0  0  0  0  0  0
  140.1640   67.7195  226.5060 H   0  0  0  0  0  0  0  0  0  0  0  0
  140.3500   69.6140  225.4700 C   0  0  0  0  0  0  0  0  0  0  0  0
  140.1811   69.1708  224.4775 H   0  0  0  0  0  0  0  0  0  0  0  0
  139.7720   76.8200  221.7150 C   0  0  0  0  0  0  0  0  0  0  0  0
  139.4030   77.9950  221.1330 N   0  0  0  0  0  0  0  0  0  0  0  0
  139.9910   79.1790  221.4500 C   0  0  0  0  0  0  0  0  0  0  0  0
  139.5950   80.3560  220.8070 C   0  0  0  0  0  0  0  0  0  0  0  0
  138.7889   80.3296  220.0590 H   0  0  0  0  0  0  0  0  0  0  0  0
  140.2240   81.5670  221.1150 C   0  0  0  0  0  0  0  0  0  0  0  0
  139.9121   82.4918  220.6076 H   0  0  0  0  0  0  0  0  0  0  0  0
  141.2490   81.6050  222.0670 C   0  0  0  0  0  0  0  0  0  0  0  0
  141.8580   82.7800  222.3590 F   0  0  0  0  0  0  0  0  0  0  0  0
  141.6490   80.4330  222.7180 C   0  0  0  0  0  0  0  0  0  0  0  0
  142.4543   80.4662  223.4666 H   0  0  0  0  0  0  0  0  0  0  0  0
  141.0220   79.2160  222.4150 C   0  0  0  0  0  0  0  0  0  0  0  0
  141.4090   78.0230  223.0350 C   0  0  0  0  0  0  0  0  0  0  0  0
  142.2002   78.0319  223.7991 H   0  0  0  0  0  0  0  0  0  0  0  0
  140.7910   76.8210  222.6840 C   0  0  0  0  0  0  0  0  0  0  0  0
  141.0996   75.8800  223.1629 H   0  0  0  0  0  0  0  0  0  0  0  0
  1  2  1  0
  2  3  1  0
  3  4  2  0
  4  5  1  0
  5  6  1  0
  5  7  1  0
  5  8  1  0
  8  9  2  0
  8 10  1  0
 10 11  1  0
 11 12  1  0
 11 13  1  0
 11 14  1  0
 14 15  1  1
 14 16  1  0
 16 17  1  0
 14 18  1  0
 18 19  1  0
 18 20  1  0
 18 21  1  0
 21 22  1  6
 21 23  1  0
 23 24  2  0
 23 25  1  0
 25 26  1  0
 26 27  1  1
 26 28  1  0
 28 29  2  0
 29 30  1  0
 29 31  1  0
 31 32  1  0
 31 33  2  0
 33 34  1  0
 33 35  1  0
 35 36  1  0
 35 37  2  0
 37 38  1  0
 26 39  1  0
 39 40  1  0
 39 41  1  0
 39 42  1  0
 42 43  2  0
 43 44  1  0
 43 45  1  0
 45 46  1  0
 45 47  2  0
 47 48  1  0
 47 49  1  0
 49 50  1  0
 49 51  2  0
 51 52  1  0
  3 53  1  0
 53 54  2  0
 54 55  1  0
 55 56  2  0
 56 57  1  0
 56 58  1  0
 58 59  1  0
 58 60  2  0
 60 61  1  0
 60 62  1  0
 62 63  1  0
 62 64  2  0
 64 65  1  0
 65 66  1  0
 65 67  2  0
 67 68  1  0
 21 10  1  0
 37 28  1  0
 51 42  1  0
 67 53  1  0
 64 55  1  0
M  CHG  1  25  -1
M  END
>  <UniqueID>  (76) 
4

>  <SMILES>  (76) 
O=C([N-][C@@H](Cc1ccc(F)cc1)c1ccccc1)[C@@H]1C[C@@H](O)CN1C(=O)C/N=C(\O)c1ccc2cc(F)ccc2n1

>  <Energy>  (76) 
71.37747220442975

>  <Genealogy>  (76) 
O=C(NCC(=O)N1C[C@H](O)C[C@H]1C(=O)[N-][C@@H](Cc1ccc(F)cc1)c1ccccc1)c1ccc2cc(F)ccc2n1 (protonated)
O=C([N-][C@@H](Cc1ccc(F)cc1)c1ccccc1)[C@@H]1C[C@@H](O)CN1C(=O)CN=C(O)c1ccc2cc(F)ccc2n1 (tautomer)
O=C([N-][C@@H](Cc1ccc(F)cc1)c1ccccc1)[C@@H]1C[C@@H](O)CN1C(=O)C/N=C(\O)c1ccc2cc(F)ccc2n1 (cis-trans isomerization)
O=C([N-][C@@H](Cc1ccc(F)cc1)c1ccccc1)[C@@H]1C[C@@H](O)CN1C(=O)C/N=C(\O)c1ccc2cc(F)ccc2n1 (3D coordinates assigned)
O=C([N-][C@@H](Cc1ccc(F)cc1)c1ccccc1)[C@@H]1C[C@@H](O)CN1C(=O)C/N=C(\O)c1ccc2cc(F)ccc2n1 (nonaromatic ring conformer: 71.37747220442975 kcal/mol)

>  <smiles>  (76) 
O=C(NCC(=O)N1C[C@H](O)C[C@H]1C(=O)N[C@@H](Cc1ccc(F)cc1)c1ccccc1)c1ccc2cc(F)ccc2n1

>  <score_type>  (76) 
oracle

>  <origin>  (76) 
autodockgpu

>  <m_score__min__energy>  (76) 
-9.3499999999999996

>  <m_primary>  (76) 
energy

>  <meeko>  (76) 
{"free_energy": -7.98, "intermolecular_energy": -11.86, "internal_energy": -3.91, "cluster_size": 5, "cluster_id": 1, "rank_in_cluster": 3}

>  <energy>  (76) 
-7.95

>  <cluster_rmsd>  (76) 
0.0

>  <rmsd>  (76) 
270.82

>  <cluster>  (76) 
7

$$$$
XFBXCNWOYUAVIW-ZAPLKEHQNA-M
     RDKit          3D

 68 72  0  0  0  0  0  0  0  0999 V2000
  138.5850   74.2440  222.7220 H   0  0  0  0  0  0  0  0  0  0  0  0
  137.7740   74.7170  222.3490 O   0  0  0  0  0  0  0  0  0  0  0  0
  137.8470   75.8490  221.5320 C   0  0  0  0  0  0  0  0  0  0  0  0
  137.4180   75.8370  220.3000 N   0  0  0  0  0  0  0  0  0  0  0  0
  138.2420   75.8810  219.0950 C   0  0  0  0  0  0  0  0  0  0  0  0
  138.7988   76.8294  219.0735 H   0  0  0  0  0  0  0  0  0  0  0  0
  137.5853   75.8021  218.2161 H   0  0  0  0  0  0  0  0  0  0  0  0
  139.2140   74.7400  219.0720 C   0  0  0  0  0  0  0  0  0  0  0  0
  138.8610   73.6160  218.6300 O   0  0  0  0  0  0  0  0  0  0  0  0
  140.5450   74.9210  219.5610 N   0  0  0  0  0  0  0  0  0  0  0  0
  141.3100   76.1250  219.3110 C   0  0  0  0  0  0  0  0  0  0  0  0
  140.7607   77.0107  219.6630 H   0  0  0  0  0  0  0  0  0  0  0  0
  141.5006   76.2747  218.2380 H   0  0  0  0  0  0  0  0  0  0  0  0
  142.6040   75.9500  220.1000 C   0  0  2  0  0  0  0  0  0  0  0  0
  142.5988   76.5367  221.0304 H   0  0  0  0  0  0  0  0  0  0  0  0
  143.7040   76.4050  219.3570 O   0  0  0  0  0  0  0  0  0  0  0  0
  144.0690   77.1880  219.8470 H   0  0  0  0  0  0  0  0  0  0  0  0
  142.7100   74.4470  220.3910 C   0  0  0  0  0  0  0  0  0  0  0  0
  143.1069   74.2803  221.4033 H   0  0  0  0  0  0  0  0  0  0  0  0
  143.3922   73.9466  219.6879 H   0  0  0  0  0  0  0  0  0  0  0  0
  141.2840   73.8960  220.2800 C   0  0  1  0  0  0  0  0  0  0  0  0
  141.2645   72.9223  219.7685 H   0  0  0  0  0  0  0  0  0  0  0  0
  140.6730   73.6690  221.6460 C   0  0  0  0  0  0  0  0  0  0  0  0
  140.3390   74.6680  222.3370 O   0  0  0  0  0  0  0  0  0  0  0  0
  140.4720   72.3600  222.1990 N   0  0  0  0  0  0  0  0  0  0  0  0
  139.3220   71.8970  222.9760 C   0  0  2  0  0  0  0  0  0  0  0  0
  138.7052   72.7637  223.2562 H   0  0  0  0  0  0  0  0  0  0  0  0
  139.8030   71.2040  224.2360 C   0  0  0  0  0  0  0  0  0  0  0  0
  140.6880   71.8380  225.1290 C   0  0  0  0  0  0  0  0  0  0  0  0
  141.0175   72.8691  224.9336 H   0  0  0  0  0  0  0  0  0  0  0  0
  141.1500   71.1630  226.2630 C   0  0  0  0  0  0  0  0  0  0  0  0
  141.8274   71.6702  226.9658 H   0  0  0  0  0  0  0  0  0  0  0  0
  140.7530   69.8460  226.5050 C   0  0  0  0  0  0  0  0  0  0  0  0
  141.1127   69.3188  227.4010 H   0  0  0  0  0  0  0  0  0  0  0  0
  139.9000   69.1990  225.6100 C   0  0  0  0  0  0  0  0  0  0  0  0
  139.5953   68.1586  225.7962 H   0  0  0  0  0  0  0  0  0  0  0  0
  139.4330   69.8700  224.4790 C   0  0  0  0  0  0  0  0  0  0  0  0
  138.7697   69.3505  223.7717 H   0  0  0  0  0  0  0  0  0  0  0  0
  138.4580   70.9370  222.1330 C   0  0  0  0  0  0  0  0  0  0  0  0
  138.0856   70.1295  222.7805 H   0  0  0  0  0  0  0  0  0  0  0  0
  137.6237   71.5109  221.7033 H   0  0  0  0  0  0  0  0  0  0  0  0
  139.2480   70.3320  221.0010 C   0  0  0  0  0  0  0  0  0  0  0  0
  139.2620   70.9510  219.7410 C   0  0  0  0  0  0  0  0  0  0  0  0
  138.7293   71.9017  219.5915 H   0  0  0  0  0  0  0  0  0  0  0  0
  139.9510   70.3630  218.6750 C   0  0  0  0  0  0  0  0  0  0  0  0
  139.9680   70.8572  217.6924 H   0  0  0  0  0  0  0  0  0  0  0  0
  140.6180   69.1480  218.8570 C   0  0  0  0  0  0  0  0  0  0  0  0
  141.2750   68.5730  217.8190 F   0  0  0  0  0  0  0  0  0  0  0  0
  140.6030   68.5230  220.1070 C   0  0  0  0  0  0  0  0  0  0  0  0
  141.1274   67.5665  220.2489 H   0  0  0  0  0  0  0  0  0  0  0  0
  139.9230   69.1110  221.1770 C   0  0  0  0  0  0  0  0  0  0  0  0
  139.9158   68.6172  222.1599 H   0  0  0  0  0  0  0  0  0  0  0  0
  138.4480   77.0750  222.0920 C   0  0  0  0  0  0  0  0  0  0  0  0
  139.7930   77.2590  221.9830 N   0  0  0  0  0  0  0  0  0  0  0  0
  140.4150   78.3670  222.4660 C   0  0  0  0  0  0  0  0  0  0  0  0
  141.8030   78.4990  222.3530 C   0  0  0  0  0  0  0  0  0  0  0  0
  142.3911   77.7163  221.8516 H   0  0  0  0  0  0  0  0  0  0  0  0
  142.4430   79.6270  222.8780 C   0  0  0  0  0  0  0  0  0  0  0  0
  143.5346   79.7296  222.7890 H   0  0  0  0  0  0  0  0  0  0  0  0
  141.6980   80.6250  223.5160 C   0  0  0  0  0  0  0  0  0  0  0  0
  142.3240   81.7140  224.0270 F   0  0  0  0  0  0  0  0  0  0  0  0
  140.3090   80.5030  223.6310 C   0  0  0  0  0  0  0  0  0  0  0  0
  139.7262   81.2900  224.1321 H   0  0  0  0  0  0  0  0  0  0  0  0
  139.6610   79.3750  223.1060 C   0  0  0  0  0  0  0  0  0  0  0  0
  138.2760   79.2140  223.2180 C   0  0  0  0  0  0  0  0  0  0  0  0
  137.6684   79.9943  223.6996 H   0  0  0  0  0  0  0  0  0  0  0  0
  137.6650   78.0620  222.7180 C   0  0  0  0  0  0  0  0  0  0  0  0
  136.5774   77.9271  222.8131 H   0  0  0  0  0  0  0  0  0  0  0  0
  1  2  1  0
  2  3  1  0
  3  4  2  0
  4  5  1  0
  5  6  1  0
  5  7  1  0
  5  8  1  0
  8  9  2  0
  8 10  1  0
 10 11  1  0
 11 12  1  0
 11 13  1  0
 11 14  1  0
 14 15  1  1
 14 16  1  0
 16 17  1  0
 14 18  1  0
 18 19  1  0
 18 20  1  0
 18 21  1  0
 21 22  1  6
 21 23  1  0
 23 24  2  0
 23 25  1  0
 25 26  1  0
 26 27  1  1
 26 28  1  0
 28 29  2  0
 29 30  1  0
 29 31  1  0
 31 32  1  0
 31 33  2  0
 33 34  1  0
 33 35  1  0
 35 36  1  0
 35 37  2  0
 37 38  1  0
 26 39  1  0
 39 40  1  0
 39 41  1  0
 39 42  1  0
 42 43  2  0
 43 44  1  0
 43 45  1  0
 45 46  1  0
 45 47  2  0
 47 48  1  0
 47 49  1  0
 49 50  1  0
 49 51  2  0
 51 52  1  0
  3 53  1  0
 53 54  2  0
 54 55  1  0
 55 56  2  0
 56 57  1  0
 56 58  1  0
 58 59  1  0
 58 60  2  0
 60 61  1  0
 60 62  1  0
 62 63  1  0
 62 64  2  0
 64 65  1  0
 65 66  1  0
 65 67  2  0
 67 68  1  0
 21 10  1  0
 37 28  1  0
 51 42  1  0
 67 53  1  0
 64 55  1  0
M  CHG  1  25  -1
M  END
>  <UniqueID>  (77) 
4

>  <SMILES>  (77) 
O=C([N-][C@@H](Cc1ccc(F)cc1)c1ccccc1)[C@@H]1C[C@@H](O)CN1C(=O)C/N=C(\O)c1ccc2cc(F)ccc2n1

>  <Energy>  (77) 
71.37747220442975

>  <Genealogy>  (77) 
O=C(NCC(=O)N1C[C@H](O)C[C@H]1C(=O)[N-][C@@H](Cc1ccc(F)cc1)c1ccccc1)c1ccc2cc(F)ccc2n1 (protonated)
O=C([N-][C@@H](Cc1ccc(F)cc1)c1ccccc1)[C@@H]1C[C@@H](O)CN1C(=O)CN=C(O)c1ccc2cc(F)ccc2n1 (tautomer)
O=C([N-][C@@H](Cc1ccc(F)cc1)c1ccccc1)[C@@H]1C[C@@H](O)CN1C(=O)C/N=C(\O)c1ccc2cc(F)ccc2n1 (cis-trans isomerization)
O=C([N-][C@@H](Cc1ccc(F)cc1)c1ccccc1)[C@@H]1C[C@@H](O)CN1C(=O)C/N=C(\O)c1ccc2cc(F)ccc2n1 (3D coordinates assigned)
O=C([N-][C@@H](Cc1ccc(F)cc1)c1ccccc1)[C@@H]1C[C@@H](O)CN1C(=O)C/N=C(\O)c1ccc2cc(F)ccc2n1 (nonaromatic ring conformer: 71.37747220442975 kcal/mol)

>  <smiles>  (77) 
O=C(NCC(=O)N1C[C@H](O)C[C@H]1C(=O)N[C@@H](Cc1ccc(F)cc1)c1ccccc1)c1ccc2cc(F)ccc2n1

>  <score_type>  (77) 
oracle

>  <origin>  (77) 
autodockgpu

>  <m_score__min__energy>  (77) 
-9.3499999999999996

>  <m_primary>  (77) 
energy

>  <meeko>  (77) 
{"free_energy": -6.99, "intermolecular_energy": -10.86, "internal_energy": -4.39, "cluster_size": 3, "cluster_id": 7, "rank_in_cluster": 3}

>  <energy>  (77) 
-7.94

>  <cluster_rmsd>  (77) 
0.24

>  <rmsd>  (77) 
270.94

>  <cluster>  (77) 
7

$$$$
XFBXCNWOYUAVIW-ZAPLKEHQNA-M
     RDKit          3D

 68 72  0  0  0  0  0  0  0  0999 V2000
  138.4300   73.3710  222.8950 H   0  0  0  0  0  0  0  0  0  0  0  0
  138.3830   72.3880  222.6650 O   0  0  0  0  0  0  0  0  0  0  0  0
  139.4860   71.5290  222.7160 C   0  0  0  0  0  0  0  0  0  0  0  0
  140.3860   71.5090  221.7730 N   0  0  0  0  0  0  0  0  0  0  0  0
  141.1140   72.6600  221.2440 C   0  0  0  0  0  0  0  0  0  0  0  0
  141.4937   72.4164  220.2408 H   0  0  0  0  0  0  0  0  0  0  0  0
  141.9474   72.8922  221.9233 H   0  0  0  0  0  0  0  0  0  0  0  0
  140.2210   73.8590  221.1530 C   0  0  0  0  0  0  0  0  0  0  0  0
  140.0450   74.5970  222.1580 O   0  0  0  0  0  0  0  0  0  0  0  0
  139.5560   74.1690  219.9260 N   0  0  0  0  0  0  0  0  0  0  0  0
  138.6950   73.2220  219.2460 C   0  0  0  0  0  0  0  0  0  0  0  0
  137.8952   72.8767  219.9176 H   0  0  0  0  0  0  0  0  0  0  0  0
  139.2450   72.3266  218.9208 H   0  0  0  0  0  0  0  0  0  0  0  0
  138.1080   73.9900  218.0660 C   0  0  2  0  0  0  0  0  0  0  0  0
  137.0708   74.3026  218.2569 H   0  0  0  0  0  0  0  0  0  0  0  0
  138.0690   73.1830  216.9180 O   0  0  0  0  0  0  0  0  0  0  0  0
  137.9780   72.2470  217.2360 H   0  0  0  0  0  0  0  0  0  0  0  0
  139.0260   75.2030  217.8640 C   0  0  0  0  0  0  0  0  0  0  0  0
  138.4337   76.0912  217.5989 H   0  0  0  0  0  0  0  0  0  0  0  0
  139.7434   75.0351  217.0472 H   0  0  0  0  0  0  0  0  0  0  0  0
  139.7390   75.4180  219.2040 C   0  0  1  0  0  0  0  0  0  0  0  0
  140.7992   75.6746  219.0623 H   0  0  0  0  0  0  0  0  0  0  0  0
  139.1250   76.5650  219.9770 C   0  0  0  0  0  0  0  0  0  0  0  0
  137.8800   76.5710  220.1740 O   0  0  0  0  0  0  0  0  0  0  0  0
  139.8990   77.6620  220.4850 N   0  0  0  0  0  0  0  0  0  0  0  0
  141.3200   77.6520  220.8370 C   0  0  2  0  0  0  0  0  0  0  0  0
  141.5787   76.6710  221.2621 H   0  0  0  0  0  0  0  0  0  0  0  0
  141.5970   78.7270  221.8700 C   0  0  0  0  0  0  0  0  0  0  0  0
  142.0260   80.0130  221.4910 C   0  0  0  0  0  0  0  0  0  0  0  0
  142.1344   80.2623  220.4251 H   0  0  0  0  0  0  0  0  0  0  0  0
  142.3150   80.9750  222.4640 C   0  0  0  0  0  0  0  0  0  0  0  0
  142.6336   81.9834  222.1613 H   0  0  0  0  0  0  0  0  0  0  0  0
  142.2000   80.6580  223.8190 C   0  0  0  0  0  0  0  0  0  0  0  0
  142.4209   81.4186  224.5823 H   0  0  0  0  0  0  0  0  0  0  0  0
  141.8050   79.3770  224.2050 C   0  0  0  0  0  0  0  0  0  0  0  0
  141.7251   79.1247  225.2727 H   0  0  0  0  0  0  0  0  0  0  0  0
  141.5110   78.4150  223.2370 C   0  0  0  0  0  0  0  0  0  0  0  0
  141.2093   77.4037  223.5474 H   0  0  0  0  0  0  0  0  0  0  0  0
  142.1840   77.8800  219.5800 C   0  0  0  0  0  0  0  0  0  0  0  0
  141.5385   78.2316  218.7616 H   0  0  0  0  0  0  0  0  0  0  0  0
  142.9533   78.6283  219.8212 H   0  0  0  0  0  0  0  0  0  0  0  0
  142.8760   76.6130  219.1480 C   0  0  0  0  0  0  0  0  0  0  0  0
  143.1370   76.3800  217.7880 C   0  0  0  0  0  0  0  0  0  0  0  0
  142.8724   77.1429  217.0411 H   0  0  0  0  0  0  0  0  0  0  0  0
  143.7320   75.1820  217.3790 C   0  0  0  0  0  0  0  0  0  0  0  0
  143.9459   75.0105  216.3137 H   0  0  0  0  0  0  0  0  0  0  0  0
  144.0550   74.2030  218.3220 C   0  0  0  0  0  0  0  0  0  0  0  0
  144.6190   73.0360  217.9230 F   0  0  0  0  0  0  0  0  0  0  0  0
  143.7920   74.4240  219.6780 C   0  0  0  0  0  0  0  0  0  0  0  0
  144.0459   73.6525  220.4199 H   0  0  0  0  0  0  0  0  0  0  0  0
  143.2070   75.6240  220.0910 C   0  0  0  0  0  0  0  0  0  0  0  0
  143.0046   75.7956  221.1585 H   0  0  0  0  0  0  0  0  0  0  0  0
  139.6050   70.6160  223.8690 C   0  0  0  0  0  0  0  0  0  0  0  0
  140.1960   71.0670  225.0090 N   0  0  0  0  0  0  0  0  0  0  0  0
  140.3320   70.2880  226.1150 C   0  0  0  0  0  0  0  0  0  0  0  0
  140.9700   70.7880  227.2550 C   0  0  0  0  0  0  0  0  0  0  0  0
  141.3427   71.8229  227.2675 H   0  0  0  0  0  0  0  0  0  0  0  0
  141.1340   69.9720  228.3790 C   0  0  0  0  0  0  0  0  0  0  0  0
  141.6364   70.3667  229.2745 H   0  0  0  0  0  0  0  0  0  0  0  0
  140.6610   68.6550  228.3680 C   0  0  0  0  0  0  0  0  0  0  0  0
  140.8270   67.8670  229.4580 F   0  0  0  0  0  0  0  0  0  0  0  0
  140.0190   68.1470  227.2330 C   0  0  0  0  0  0  0  0  0  0  0  0
  139.6475   67.1116  227.2273 H   0  0  0  0  0  0  0  0  0  0  0  0
  139.8500   68.9600  226.1030 C   0  0  0  0  0  0  0  0  0  0  0  0
  139.2270   68.4780  224.9460 C   0  0  0  0  0  0  0  0  0  0  0  0
  138.8315   67.4519  224.9205 H   0  0  0  0  0  0  0  0  0  0  0  0
  139.1080   69.3010  223.8240 C   0  0  0  0  0  0  0  0  0  0  0  0
  138.6279   68.9226  222.9095 H   0  0  0  0  0  0  0  0  0  0  0  0
  1  2  1  0
  2  3  1  0
  3  4  2  0
  4  5  1  0
  5  6  1  0
  5  7  1  0
  5  8  1  0
  8  9  2  0
  8 10  1  0
 10 11  1  0
 11 12  1  0
 11 13  1  0
 11 14  1  0
 14 15  1  1
 14 16  1  0
 16 17  1  0
 14 18  1  0
 18 19  1  0
 18 20  1  0
 18 21  1  0
 21 22  1  6
 21 23  1  0
 23 24  2  0
 23 25  1  0
 25 26  1  0
 26 27  1  1
 26 28  1  0
 28 29  2  0
 29 30  1  0
 29 31  1  0
 31 32  1  0
 31 33  2  0
 33 34  1  0
 33 35  1  0
 35 36  1  0
 35 37  2  0
 37 38  1  0
 26 39  1  0
 39 40  1  0
 39 41  1  0
 39 42  1  0
 42 43  2  0
 43 44  1  0
 43 45  1  0
 45 46  1  0
 45 47  2  0
 47 48  1  0
 47 49  1  0
 49 50  1  0
 49 51  2  0
 51 52  1  0
  3 53  1  0
 53 54  2  0
 54 55  1  0
 55 56  2  0
 56 57  1  0
 56 58  1  0
 58 59  1  0
 58 60  2  0
 60 61  1  0
 60 62  1  0
 62 63  1  0
 62 64  2  0
 64 65  1  0
 65 66  1  0
 65 67  2  0
 67 68  1  0
 21 10  1  0
 37 28  1  0
 51 42  1  0
 67 53  1  0
 64 55  1  0
M  CHG  1  25  -1
M  END
>  <UniqueID>  (78) 
4

>  <SMILES>  (78) 
O=C([N-][C@@H](Cc1ccc(F)cc1)c1ccccc1)[C@@H]1C[C@@H](O)CN1C(=O)C/N=C(\O)c1ccc2cc(F)ccc2n1

>  <Energy>  (78) 
71.37747220442975

>  <Genealogy>  (78) 
O=C(NCC(=O)N1C[C@H](O)C[C@H]1C(=O)[N-][C@@H](Cc1ccc(F)cc1)c1ccccc1)c1ccc2cc(F)ccc2n1 (protonated)
O=C([N-][C@@H](Cc1ccc(F)cc1)c1ccccc1)[C@@H]1C[C@@H](O)CN1C(=O)CN=C(O)c1ccc2cc(F)ccc2n1 (tautomer)
O=C([N-][C@@H](Cc1ccc(F)cc1)c1ccccc1)[C@@H]1C[C@@H](O)CN1C(=O)C/N=C(\O)c1ccc2cc(F)ccc2n1 (cis-trans isomerization)
O=C([N-][C@@H](Cc1ccc(F)cc1)c1ccccc1)[C@@H]1C[C@@H](O)CN1C(=O)C/N=C(\O)c1ccc2cc(F)ccc2n1 (3D coordinates assigned)
O=C([N-][C@@H](Cc1ccc(F)cc1)c1ccccc1)[C@@H]1C[C@@H](O)CN1C(=O)C/N=C(\O)c1ccc2cc(F)ccc2n1 (nonaromatic ring conformer: 71.37747220442975 kcal/mol)

>  <smiles>  (78) 
O=C(NCC(=O)N1C[C@H](O)C[C@H]1C(=O)N[C@@H](Cc1ccc(F)cc1)c1ccccc1)c1ccc2cc(F)ccc2n1

>  <score_type>  (78) 
oracle

>  <origin>  (78) 
autodockgpu

>  <m_score__min__energy>  (78) 
-9.3499999999999996

>  <m_primary>  (78) 
energy

>  <meeko>  (78) 
{"free_energy": -8.01, "intermolecular_energy": -11.89, "internal_energy": -3.26, "cluster_size": 1, "cluster_id": 6, "rank_in_cluster": 1}

>  <energy>  (78) 
-6.99

>  <cluster_rmsd>  (78) 
1.87

>  <rmsd>  (78) 
270.2

>  <cluster>  (78) 
7

$$$$
XFBXCNWOYUAVIW-ZAPLKEHQNA-M
     RDKit          3D

 68 72  0  0  0  0  0  0  0  0999 V2000
  141.4790   72.2120  220.1930 H   0  0  0  0  0  0  0  0  0  0  0  0
  140.5490   72.2190  220.5880 O   0  0  0  0  0  0  0  0  0  0  0  0
  140.2400   72.7890  221.8270 C   0  0  0  0  0  0  0  0  0  0  0  0
  140.0910   74.0760  221.9740 N   0  0  0  0  0  0  0  0  0  0  0  0
  141.1060   75.0990  221.7340 C   0  0  0  0  0  0  0  0  0  0  0  0
  141.5830   75.3647  222.6889 H   0  0  0  0  0  0  0  0  0  0  0  0
  140.6199   75.9804  221.2902 H   0  0  0  0  0  0  0  0  0  0  0  0
  142.1520   74.5990  220.7850 C   0  0  0  0  0  0  0  0  0  0  0  0
  142.7780   73.5350  221.0340 O   0  0  0  0  0  0  0  0  0  0  0  0
  142.4520   75.3320  219.5950 N   0  0  0  0  0  0  0  0  0  0  0  0
  143.1640   74.7470  218.4770 C   0  0  0  0  0  0  0  0  0  0  0  0
  142.6500   73.8406  218.1245 H   0  0  0  0  0  0  0  0  0  0  0  0
  144.1855   74.4464  218.7531 H   0  0  0  0  0  0  0  0  0  0  0  0
  143.1600   75.8190  217.3930 C   0  0  2  0  0  0  0  0  0  0  0  0
  142.4162   75.6071  216.6108 H   0  0  0  0  0  0  0  0  0  0  0  0
  144.4050   75.8750  216.7450 O   0  0  0  0  0  0  0  0  0  0  0  0
  145.0850   75.6240  217.4230 H   0  0  0  0  0  0  0  0  0  0  0  0
  142.8470   77.1360  218.1150 C   0  0  0  0  0  0  0  0  0  0  0  0
  142.1846   77.7619  217.4989 H   0  0  0  0  0  0  0  0  0  0  0  0
  143.7604   77.7185  218.3058 H   0  0  0  0  0  0  0  0  0  0  0  0
  142.1470   76.7440  219.4210 C   0  0  1  0  0  0  0  0  0  0  0  0
  142.4901   77.3595  220.2657 H   0  0  0  0  0  0  0  0  0  0  0  0
  140.6510   76.9500  219.3280 C   0  0  0  0  0  0  0  0  0  0  0  0
  139.9740   76.1820  218.5930 O   0  0  0  0  0  0  0  0  0  0  0  0
  139.9660   77.9970  220.0300 N   0  0  0  0  0  0  0  0  0  0  0  0
  140.4010   79.3850  220.1880 C   0  0  2  0  0  0  0  0  0  0  0  0
  141.0536   79.6550  219.3446 H   0  0  0  0  0  0  0  0  0  0  0  0
  141.1770   79.5320  221.4820 C   0  0  0  0  0  0  0  0  0  0  0  0
  141.1270   78.5430  222.4830 C   0  0  0  0  0  0  0  0  0  0  0  0
  140.5404   77.6271  222.3184 H   0  0  0  0  0  0  0  0  0  0  0  0
  141.8190   78.7190  223.6850 C   0  0  0  0  0  0  0  0  0  0  0  0
  141.7896   77.9345  224.4556 H   0  0  0  0  0  0  0  0  0  0  0  0
  142.5480   79.8900  223.9090 C   0  0  0  0  0  0  0  0  0  0  0  0
  143.0981   80.0235  224.8521 H   0  0  0  0  0  0  0  0  0  0  0  0
  142.5780   80.8900  222.9360 C   0  0  0  0  0  0  0  0  0  0  0  0
  143.1425   81.8166  223.1172 H   0  0  0  0  0  0  0  0  0  0  0  0
  141.8920   80.7150  221.7330 C   0  0  0  0  0  0  0  0  0  0  0  0
  141.9114   81.5111  220.9741 H   0  0  0  0  0  0  0  0  0  0  0  0
  139.1830   80.3320  220.1840 C   0  0  0  0  0  0  0  0  0  0  0  0
  139.5121   81.3364  219.8792 H   0  0  0  0  0  0  0  0  0  0  0  0
  138.4382   79.9335  219.4794 H   0  0  0  0  0  0  0  0  0  0  0  0
  138.5460   80.4180  221.5470 C   0  0  0  0  0  0  0  0  0  0  0  0
  138.6900   81.5820  222.3200 C   0  0  0  0  0  0  0  0  0  0  0  0
  139.2332   82.4471  221.9120 H   0  0  0  0  0  0  0  0  0  0  0  0
  138.1450   81.6450  223.6070 C   0  0  0  0  0  0  0  0  0  0  0  0
  138.2509   82.5627  224.2041 H   0  0  0  0  0  0  0  0  0  0  0  0
  137.4660   80.5430  224.1350 C   0  0  0  0  0  0  0  0  0  0  0  0
  136.9490   80.6010  225.3870 F   0  0  0  0  0  0  0  0  0  0  0  0
  137.3230   79.3790  223.3730 C   0  0  0  0  0  0  0  0  0  0  0  0
  136.7881   78.5123  223.7887 H   0  0  0  0  0  0  0  0  0  0  0  0
  137.8590   79.3160  222.0840 C   0  0  0  0  0  0  0  0  0  0  0  0
  137.7426   78.3995  221.4869 H   0  0  0  0  0  0  0  0  0  0  0  0
  140.1020   71.8920  222.9910 C   0  0  0  0  0  0  0  0  0  0  0  0
  140.6510   72.2660  224.1800 N   0  0  0  0  0  0  0  0  0  0  0  0
  140.5550   71.4980  225.2970 C   0  0  0  0  0  0  0  0  0  0  0  0
  141.1580   71.9120  226.4900 C   0  0  0  0  0  0  0  0  0  0  0  0
  141.6912   72.8732  226.5319 H   0  0  0  0  0  0  0  0  0  0  0  0
  141.0830   71.1040  227.6290 C   0  0  0  0  0  0  0  0  0  0  0  0
  141.5579   71.4309  228.5658 H   0  0  0  0  0  0  0  0  0  0  0  0
  140.4050   69.8800  227.5800 C   0  0  0  0  0  0  0  0  0  0  0  0
  140.3390   69.0990  228.6860 F   0  0  0  0  0  0  0  0  0  0  0  0
  139.7970   69.4590  226.3920 C   0  0  0  0  0  0  0  0  0  0  0  0
  139.2648   68.4969  226.3566 H   0  0  0  0  0  0  0  0  0  0  0  0
  139.8670   70.2650  225.2470 C   0  0  0  0  0  0  0  0  0  0  0  0
  139.2840   69.8670  224.0400 C   0  0  0  0  0  0  0  0  0  0  0  0
  138.7307   68.9180  223.9831 H   0  0  0  0  0  0  0  0  0  0  0  0
  139.4040   70.6740  222.9070 C   0  0  0  0  0  0  0  0  0  0  0  0
  138.9549   70.3588  221.9536 H   0  0  0  0  0  0  0  0  0  0  0  0
  1  2  1  0
  2  3  1  0
  3  4  2  0
  4  5  1  0
  5  6  1  0
  5  7  1  0
  5  8  1  0
  8  9  2  0
  8 10  1  0
 10 11  1  0
 11 12  1  0
 11 13  1  0
 11 14  1  0
 14 15  1  6
 14 16  1  0
 16 17  1  0
 14 18  1  0
 18 19  1  0
 18 20  1  0
 18 21  1  0
 21 22  1  1
 21 23  1  0
 23 24  2  0
 23 25  1  0
 25 26  1  0
 26 27  1  6
 26 28  1  0
 28 29  2  0
 29 30  1  0
 29 31  1  0
 31 32  1  0
 31 33  2  0
 33 34  1  0
 33 35  1  0
 35 36  1  0
 35 37  2  0
 37 38  1  0
 26 39  1  0
 39 40  1  0
 39 41  1  0
 39 42  1  0
 42 43  2  0
 43 44  1  0
 43 45  1  0
 45 46  1  0
 45 47  2  0
 47 48  1  0
 47 49  1  0
 49 50  1  0
 49 51  2  0
 51 52  1  0
  3 53  1  0
 53 54  2  0
 54 55  1  0
 55 56  2  0
 56 57  1  0
 56 58  1  0
 58 59  1  0
 58 60  2  0
 60 61  1  0
 60 62  1  0
 62 63  1  0
 62 64  2  0
 64 65  1  0
 65 66  1  0
 65 67  2  0
 67 68  1  0
 21 10  1  0
 37 28  1  0
 51 42  1  0
 67 53  1  0
 64 55  1  0
M  CHG  1  25  -1
M  END
>  <UniqueID>  (79) 
4

>  <SMILES>  (79) 
O=C([N-][C@@H](Cc1ccc(F)cc1)c1ccccc1)[C@@H]1C[C@@H](O)CN1C(=O)C/N=C(\O)c1ccc2cc(F)ccc2n1

>  <Energy>  (79) 
71.37747220442975

>  <Genealogy>  (79) 
O=C(NCC(=O)N1C[C@H](O)C[C@H]1C(=O)[N-][C@@H](Cc1ccc(F)cc1)c1ccccc1)c1ccc2cc(F)ccc2n1 (protonated)
O=C([N-][C@@H](Cc1ccc(F)cc1)c1ccccc1)[C@@H]1C[C@@H](O)CN1C(=O)CN=C(O)c1ccc2cc(F)ccc2n1 (tautomer)
O=C([N-][C@@H](Cc1ccc(F)cc1)c1ccccc1)[C@@H]1C[C@@H](O)CN1C(=O)C/N=C(\O)c1ccc2cc(F)ccc2n1 (cis-trans isomerization)
O=C([N-][C@@H](Cc1ccc(F)cc1)c1ccccc1)[C@@H]1C[C@@H](O)CN1C(=O)C/N=C(\O)c1ccc2cc(F)ccc2n1 (3D coordinates assigned)
O=C([N-][C@@H](Cc1ccc(F)cc1)c1ccccc1)[C@@H]1C[C@@H](O)CN1C(=O)C/N=C(\O)c1ccc2cc(F)ccc2n1 (nonaromatic ring conformer: 71.37747220442975 kcal/mol)

>  <smiles>  (79) 
O=C(NCC(=O)N1C[C@H](O)C[C@H]1C(=O)N[C@@H](Cc1ccc(F)cc1)c1ccccc1)c1ccc2cc(F)ccc2n1

>  <score_type>  (79) 
oracle

>  <origin>  (79) 
autodockgpu

>  <m_score__min__energy>  (79) 
-9.3499999999999996

>  <m_primary>  (79) 
energy

>  <meeko>  (79) 
{"free_energy": -7.86, "intermolecular_energy": -11.74, "internal_energy": -3.25, "cluster_size": 1, "cluster_id": 9, "rank_in_cluster": 1}

>  <energy>  (79) 
-7.87

>  <cluster_rmsd>  (79) 
0.0

>  <rmsd>  (79) 
270.6

>  <cluster>  (79) 
8

$$$$
XFBXCNWOYUAVIW-ZAPLKEHQNA-M
     RDKit          3D

 68 72  0  0  0  0  0  0  0  0999 V2000
  137.3090   73.4420  223.1190 H   0  0  0  0  0  0  0  0  0  0  0  0
  137.4420   72.4400  223.0970 O   0  0  0  0  0  0  0  0  0  0  0  0
  138.6970   71.8280  223.0150 C   0  0  0  0  0  0  0  0  0  0  0  0
  139.5270   72.0900  222.0450 N   0  0  0  0  0  0  0  0  0  0  0  0
  139.1760   72.5460  220.7020 C   0  0  0  0  0  0  0  0  0  0  0  0
  138.4980   71.8142  220.2385 H   0  0  0  0  0  0  0  0  0  0  0  0
  140.0983   72.6423  220.1104 H   0  0  0  0  0  0  0  0  0  0  0  0
  138.4970   73.8810  220.7530 C   0  0  0  0  0  0  0  0  0  0  0  0
  137.2680   73.9770  220.4990 O   0  0  0  0  0  0  0  0  0  0  0  0
  139.2430   75.0540  221.0820 N   0  0  0  0  0  0  0  0  0  0  0  0
  140.1560   75.6840  220.1510 C   0  0  0  0  0  0  0  0  0  0  0  0
  139.6379   75.9358  219.2139 H   0  0  0  0  0  0  0  0  0  0  0  0
  140.9920   75.0209  219.8840 H   0  0  0  0  0  0  0  0  0  0  0  0
  140.6360   76.9500  220.8530 C   0  0  2  0  0  0  0  0  0  0  0  0
  140.1339   77.8482  220.4644 H   0  0  0  0  0  0  0  0  0  0  0  0
  142.0100   77.1460  220.6400 O   0  0  0  0  0  0  0  0  0  0  0  0
  142.4270   77.2170  221.5380 H   0  0  0  0  0  0  0  0  0  0  0  0
  140.3270   76.7400  222.3420 C   0  0  0  0  0  0  0  0  0  0  0  0
  139.9792   77.6792  222.7969 H   0  0  0  0  0  0  0  0  0  0  0  0
  141.2201   76.4206  222.8991 H   0  0  0  0  0  0  0  0  0  0  0  0
  139.2210   75.6800  222.3950 C   0  0  1  0  0  0  0  0  0  0  0  0
  139.3882   74.9604  223.2100 H   0  0  0  0  0  0  0  0  0  0  0  0
  137.8690   76.3070  222.6550 C   0  0  0  0  0  0  0  0  0  0  0  0
  136.9310   75.5810  223.0820 O   0  0  0  0  0  0  0  0  0  0  0  0
  137.5990   77.6980  222.4200 N   0  0  0  0  0  0  0  0  0  0  0  0
  138.2260   78.8420  223.0820 C   0  0  2  0  0  0  0  0  0  0  0  0
  138.9633   78.4762  223.8118 H   0  0  0  0  0  0  0  0  0  0  0  0
  137.1690   79.6520  223.8080 C   0  0  0  0  0  0  0  0  0  0  0  0
  135.7970   79.4360  223.5820 C   0  0  0  0  0  0  0  0  0  0  0  0
  135.4740   78.6440  222.8903 H   0  0  0  0  0  0  0  0  0  0  0  0
  134.8420   80.2240  224.2330 C   0  0  0  0  0  0  0  0  0  0  0  0
  133.7707   80.0388  224.0654 H   0  0  0  0  0  0  0  0  0  0  0  0
  135.2460   81.2450  225.0950 C   0  0  0  0  0  0  0  0  0  0  0  0
  134.4930   81.8584  225.6115 H   0  0  0  0  0  0  0  0  0  0  0  0
  136.6050   81.4880  225.3020 C   0  0  0  0  0  0  0  0  0  0  0  0
  136.9226   82.2995  225.9733 H   0  0  0  0  0  0  0  0  0  0  0  0
  137.5610   80.7010  224.6570 C   0  0  0  0  0  0  0  0  0  0  0  0
  138.6306   80.9039  224.8148 H   0  0  0  0  0  0  0  0  0  0  0  0
  138.9590   79.7220  222.0490 C   0  0  0  0  0  0  0  0  0  0  0  0
  138.9908   79.1915  221.0859 H   0  0  0  0  0  0  0  0  0  0  0  0
  138.4123   80.6719  221.9550 H   0  0  0  0  0  0  0  0  0  0  0  0
  140.3690   80.0290  222.4860 C   0  0  0  0  0  0  0  0  0  0  0  0
  141.2600   80.6570  221.6010 C   0  0  0  0  0  0  0  0  0  0  0  0
  140.9161   80.9621  220.6017 H   0  0  0  0  0  0  0  0  0  0  0  0
  142.5840   80.8960  221.9860 C   0  0  0  0  0  0  0  0  0  0  0  0
  143.2752   81.3992  221.2938 H   0  0  0  0  0  0  0  0  0  0  0  0
  143.0290   80.4960  223.2490 C   0  0  0  0  0  0  0  0  0  0  0  0
  144.3160   80.7160  223.6160 F   0  0  0  0  0  0  0  0  0  0  0  0
  142.1490   79.8640  224.1330 C   0  0  0  0  0  0  0  0  0  0  0  0
  142.5003   79.5491  225.1267 H   0  0  0  0  0  0  0  0  0  0  0  0
  140.8230   79.6320  223.7550 C   0  0  0  0  0  0  0  0  0  0  0  0
  140.1327   79.1368  224.4537 H   0  0  0  0  0  0  0  0  0  0  0  0
  139.0620   70.8480  224.0550 C   0  0  0  0  0  0  0  0  0  0  0  0
  139.6780   71.2870  225.1870 N   0  0  0  0  0  0  0  0  0  0  0  0
  140.0350   70.4450  226.1930 C   0  0  0  0  0  0  0  0  0  0  0  0
  140.6890   70.9400  227.3270 C   0  0  0  0  0  0  0  0  0  0  0  0
  140.8939   72.0169  227.4177 H   0  0  0  0  0  0  0  0  0  0  0  0
  141.0820   70.0650  228.3450 C   0  0  0  0  0  0  0  0  0  0  0  0
  141.5968   70.4553  229.2353 H   0  0  0  0  0  0  0  0  0  0  0  0
  140.8220   68.6940  228.2340 C   0  0  0  0  0  0  0  0  0  0  0  0
  141.2080   67.8500  229.2220 F   0  0  0  0  0  0  0  0  0  0  0  0
  140.1650   68.1900  227.1060 C   0  0  0  0  0  0  0  0  0  0  0  0
  139.9602   67.1124  227.0231 H   0  0  0  0  0  0  0  0  0  0  0  0
  139.7680   69.0620  226.0810 C   0  0  0  0  0  0  0  0  0  0  0  0
  139.1250   68.5900  224.9320 C   0  0  0  0  0  0  0  0  0  0  0  0
  138.8950   67.5190  224.8312 H   0  0  0  0  0  0  0  0  0  0  0  0
  138.7750   69.4780  223.9130 C   0  0  0  0  0  0  0  0  0  0  0  0
  138.2776   69.1085  223.0041 H   0  0  0  0  0  0  0  0  0  0  0  0
  1  2  1  0
  2  3  1  0
  3  4  2  0
  4  5  1  0
  5  6  1  0
  5  7  1  0
  5  8  1  0
  8  9  2  0
  8 10  1  0
 10 11  1  0
 11 12  1  0
 11 13  1  0
 11 14  1  0
 14 15  1  6
 14 16  1  0
 16 17  1  0
 14 18  1  0
 18 19  1  0
 18 20  1  0
 18 21  1  0
 21 22  1  1
 21 23  1  0
 23 24  2  0
 23 25  1  0
 25 26  1  0
 26 27  1  1
 26 28  1  0
 28 29  2  0
 29 30  1  0
 29 31  1  0
 31 32  1  0
 31 33  2  0
 33 34  1  0
 33 35  1  0
 35 36  1  0
 35 37  2  0
 37 38  1  0
 26 39  1  0
 39 40  1  0
 39 41  1  0
 39 42  1  0
 42 43  2  0
 43 44  1  0
 43 45  1  0
 45 46  1  0
 45 47  2  0
 47 48  1  0
 47 49  1  0
 49 50  1  0
 49 51  2  0
 51 52  1  0
  3 53  1  0
 53 54  2  0
 54 55  1  0
 55 56  2  0
 56 57  1  0
 56 58  1  0
 58 59  1  0
 58 60  2  0
 60 61  1  0
 60 62  1  0
 62 63  1  0
 62 64  2  0
 64 65  1  0
 65 66  1  0
 65 67  2  0
 67 68  1  0
 21 10  1  0
 37 28  1  0
 51 42  1  0
 67 53  1  0
 64 55  1  0
M  CHG  1  25  -1
M  END
>  <UniqueID>  (80) 
4

>  <SMILES>  (80) 
O=C([N-][C@@H](Cc1ccc(F)cc1)c1ccccc1)[C@@H]1C[C@@H](O)CN1C(=O)C/N=C(\O)c1ccc2cc(F)ccc2n1

>  <Energy>  (80) 
71.37747220442975

>  <Genealogy>  (80) 
O=C(NCC(=O)N1C[C@H](O)C[C@H]1C(=O)[N-][C@@H](Cc1ccc(F)cc1)c1ccccc1)c1ccc2cc(F)ccc2n1 (protonated)
O=C([N-][C@@H](Cc1ccc(F)cc1)c1ccccc1)[C@@H]1C[C@@H](O)CN1C(=O)CN=C(O)c1ccc2cc(F)ccc2n1 (tautomer)
O=C([N-][C@@H](Cc1ccc(F)cc1)c1ccccc1)[C@@H]1C[C@@H](O)CN1C(=O)C/N=C(\O)c1ccc2cc(F)ccc2n1 (cis-trans isomerization)
O=C([N-][C@@H](Cc1ccc(F)cc1)c1ccccc1)[C@@H]1C[C@@H](O)CN1C(=O)C/N=C(\O)c1ccc2cc(F)ccc2n1 (3D coordinates assigned)
O=C([N-][C@@H](Cc1ccc(F)cc1)c1ccccc1)[C@@H]1C[C@@H](O)CN1C(=O)C/N=C(\O)c1ccc2cc(F)ccc2n1 (nonaromatic ring conformer: 71.37747220442975 kcal/mol)

>  <smiles>  (80) 
O=C(NCC(=O)N1C[C@H](O)C[C@H]1C(=O)N[C@@H](Cc1ccc(F)cc1)c1ccccc1)c1ccc2cc(F)ccc2n1

>  <score_type>  (80) 
oracle

>  <origin>  (80) 
autodockgpu

>  <m_score__min__energy>  (80) 
-9.3499999999999996

>  <m_primary>  (80) 
energy

>  <meeko>  (80) 
{"free_energy": -8.17, "intermolecular_energy": -12.05, "internal_energy": -3.26, "cluster_size": 1, "cluster_id": 5, "rank_in_cluster": 1}

>  <energy>  (80) 
-7.86

>  <cluster_rmsd>  (80) 
0.0

>  <rmsd>  (80) 
271.2

>  <cluster>  (80) 
9

$$$$
