KXOWNDOGMRUJAS-RMKNXTFCNA-N
     RDKit          3D

 43 46  0  0  0  0  0  0  0  0999 V2000
  143.5508   75.8769  218.1512 H   0  0  0  0  0  0  0  0  0  0  0  0
  143.5470   75.5150  219.1900 C   0  0  0  0  0  0  0  0  0  0  0  0
  142.7270   76.1110  220.0670 C   0  0  0  0  0  0  0  0  0  0  0  0
  142.8778   77.1694  220.3259 H   0  0  0  0  0  0  0  0  0  0  0  0
  141.6240   75.3540  220.6860 C   0  0  0  0  0  0  0  0  0  0  0  0
  141.8140   74.0300  220.9290 N   0  0  0  0  0  0  0  0  0  0  0  0
  140.8400   73.2570  221.4680 C   0  0  0  0  0  0  0  0  0  0  0  0
  141.0790   71.8970  221.7130 C   0  0  0  0  0  0  0  0  0  0  0  0
  142.0619   71.4610  221.4812 H   0  0  0  0  0  0  0  0  0  0  0  0
  140.0680   71.0950  222.2520 C   0  0  0  0  0  0  0  0  0  0  0  0
  140.2544   70.0273  222.4396 H   0  0  0  0  0  0  0  0  0  0  0  0
  138.8180   71.6510  222.5530 C   0  0  0  0  0  0  0  0  0  0  0  0
  137.8390   70.8700  223.0730 F   0  0  0  0  0  0  0  0  0  0  0  0
  138.5750   73.0080  222.3180 C   0  0  0  0  0  0  0  0  0  0  0  0
  137.5919   73.4398  222.5570 H   0  0  0  0  0  0  0  0  0  0  0  0
  139.5890   73.8230  221.7750 C   0  0  0  0  0  0  0  0  0  0  0  0
  139.3950   75.1910  221.5150 C   0  0  0  0  0  0  0  0  0  0  0  0
  138.2740   75.7140  221.7730 O   0  0  0  0  0  0  0  0  0  0  0  0
  140.4120   75.9480  220.9740 N   0  0  0  0  0  0  0  0  0  0  0  0
  140.1830   77.3740  220.6340 C   0  0  0  0  0  0  0  0  0  0  0  0
  140.5865   77.5743  219.6305 H   0  0  0  0  0  0  0  0  0  0  0  0
  139.1013   77.5721  220.6597 H   0  0  0  0  0  0  0  0  0  0  0  0
  140.8630   78.2810  221.6300 C   0  0  0  0  0  0  0  0  0  0  0  0
  141.1670   77.8110  222.9190 C   0  0  0  0  0  0  0  0  0  0  0  0
  140.9083   76.7798  223.2013 H   0  0  0  0  0  0  0  0  0  0  0  0
  141.7970   78.6490  223.8440 C   0  0  0  0  0  0  0  0  0  0  0  0
  142.0280   78.2768  224.8530 H   0  0  0  0  0  0  0  0  0  0  0  0
  142.1350   79.9620  223.4890 C   0  0  0  0  0  0  0  0  0  0  0  0
  142.6238   80.6214  224.2213 H   0  0  0  0  0  0  0  0  0  0  0  0
  141.8510   80.4330  222.2050 C   0  0  0  0  0  0  0  0  0  0  0  0
  142.1860   81.7030  221.8610 F   0  0  0  0  0  0  0  0  0  0  0  0
  141.2170   79.6000  221.2780 C   0  0  0  0  0  0  0  0  0  0  0  0
  140.9931   79.9755  220.2686 H   0  0  0  0  0  0  0  0  0  0  0  0
  144.4480   74.3950  219.5460 C   0  0  0  0  0  0  0  0  0  0  0  0
  144.7650   73.4440  218.5660 C   0  0  0  0  0  0  0  0  0  0  0  0
  144.3143   73.5187  217.5653 H   0  0  0  0  0  0  0  0  0  0  0  0
  145.6280   72.4280  218.8460 N   0  0  0  0  0  0  0  0  0  0  0  0
  146.1860   72.2800  220.0770 C   0  0  0  0  0  0  0  0  0  0  0  0
  146.8853   71.4524  220.2672 H   0  0  0  0  0  0  0  0  0  0  0  0
  145.8730   73.1760  221.0990 C   0  0  0  0  0  0  0  0  0  0  0  0
  146.3193   73.0578  222.0974 H   0  0  0  0  0  0  0  0  0  0  0  0
  144.9870   74.2250  220.8420 C   0  0  0  0  0  0  0  0  0  0  0  0
  144.7085   74.9193  221.6485 H   0  0  0  0  0  0  0  0  0  0  0  0
  1  2  1  0
  2  3  2  0
  3  4  1  0
  3  5  1  0
  5  6  2  0
  6  7  1  0
  7  8  2  0
  8  9  1  0
  8 10  1  0
 10 11  1  0
 10 12  2  0
 12 13  1  0
 12 14  1  0
 14 15  1  0
 14 16  2  0
 16 17  1  0
 17 18  2  0
 17 19  1  0
 19 20  1  0
 20 21  1  0
 20 22  1  0
 20 23  1  0
 23 24  2  0
 24 25  1  0
 24 26  1  0
 26 27  1  0
 26 28  2  0
 28 29  1  0
 28 30  1  0
 30 31  1  0
 30 32  2  0
 32 33  1  0
  2 34  1  0
 34 35  2  0
 35 36  1  0
 35 37  1  0
 37 38  2  0
 38 39  1  0
 38 40  1  0
 40 41  1  0
 40 42  2  0
 42 43  1  0
 19  5  1  0
 32 23  1  0
 42 34  1  0
 16  7  1  0
M  END
>  <UniqueID>  (1) 
255

>  <SMILES>  (1) 
O=c1c2cc(F)ccc2nc(/C=C/c2cccnc2)n1Cc1cccc(F)c1

>  <Energy>  (1) 
63.037306643374215

>  <Genealogy>  (1) 
O=c1c2cc(F)ccc2nc(/C=C/c2cccnc2)n1Cc1cccc(F)c1 (cis-trans isomerization)
O=c1c2cc(F)ccc2nc(/C=C/c2cccnc2)n1Cc1cccc(F)c1 (3D coordinates assigned)
O=c1c2cc(F)ccc2nc(/C=C/c2cccnc2)n1Cc1cccc(F)c1 (optimized conformer: 63.037306643374215 kcal/mol)

>  <smiles>  (1) 
O=c1c2cc(F)ccc2nc(/C=C/c2cccnc2)n1Cc1cccc(F)c1

>  <score_type>  (1) 
oracle

>  <origin>  (1) 
autodockgpu

>  <m_score__min__energy>  (1) 
-7.1900000000000004

>  <m_primary>  (1) 
energy

>  <meeko>  (1) 
{"free_energy": -7.04, "intermolecular_energy": -8.53, "internal_energy": -1.27, "cluster_size": 3, "cluster_id": 2, "rank_in_cluster": 2}

>  <energy>  (1) 
-7.19

>  <cluster_rmsd>  (1) 
0.0

>  <rmsd>  (1) 
268.68

>  <cluster>  (1) 
1

$$$$
KXOWNDOGMRUJAS-RMKNXTFCNA-N
     RDKit          3D

 43 46  0  0  0  0  0  0  0  0999 V2000
  139.4214   77.0003  220.5515 H   0  0  0  0  0  0  0  0  0  0  0  0
  140.0680   76.7890  221.4160 C   0  0  0  0  0  0  0  0  0  0  0  0
  140.0210   75.5650  221.9580 C   0  0  0  0  0  0  0  0  0  0  0  0
  139.2254   75.3137  222.6748 H   0  0  0  0  0  0  0  0  0  0  0  0
  141.0310   74.5530  221.5980 C   0  0  0  0  0  0  0  0  0  0  0  0
  142.2580   74.9860  221.2030 N   0  0  0  0  0  0  0  0  0  0  0  0
  143.2320   74.1220  220.8260 C   0  0  0  0  0  0  0  0  0  0  0  0
  144.4880   74.6080  220.4340 C   0  0  0  0  0  0  0  0  0  0  0  0
  144.6870   75.6898  220.4453 H   0  0  0  0  0  0  0  0  0  0  0  0
  145.4870   73.7180  220.0290 C   0  0  0  0  0  0  0  0  0  0  0  0
  146.4710   74.0997  219.7190 H   0  0  0  0  0  0  0  0  0  0  0  0
  145.2350   72.3400  220.0180 C   0  0  0  0  0  0  0  0  0  0  0  0
  146.2050   71.4800  219.6210 F   0  0  0  0  0  0  0  0  0  0  0  0
  143.9870   71.8480  220.4140 C   0  0  0  0  0  0  0  0  0  0  0  0
  143.7948   70.7650  220.4045 H   0  0  0  0  0  0  0  0  0  0  0  0
  142.9760   72.7390  220.8250 C   0  0  0  0  0  0  0  0  0  0  0  0
  141.7020   72.2970  221.2270 C   0  0  0  0  0  0  0  0  0  0  0  0
  141.4500   71.0590  221.2210 O   0  0  0  0  0  0  0  0  0  0  0  0
  140.7400   73.2050  221.6120 N   0  0  0  0  0  0  0  0  0  0  0  0
  139.3760   72.7420  221.9680 C   0  0  0  0  0  0  0  0  0  0  0  0
  138.7552   73.6135  222.2230 H   0  0  0  0  0  0  0  0  0  0  0  0
  138.9514   72.2059  221.1065 H   0  0  0  0  0  0  0  0  0  0  0  0
  139.4160   71.8020  223.1480 C   0  0  0  0  0  0  0  0  0  0  0  0
  138.4270   70.8160  223.2980 C   0  0  0  0  0  0  0  0  0  0  0  0
  137.6215   70.7305  222.5538 H   0  0  0  0  0  0  0  0  0  0  0  0
  138.4620   69.9430  224.3890 C   0  0  0  0  0  0  0  0  0  0  0  0
  137.6816   69.1762  224.5033 H   0  0  0  0  0  0  0  0  0  0  0  0
  139.4890   70.0420  225.3380 C   0  0  0  0  0  0  0  0  0  0  0  0
  139.5098   69.3585  226.1996 H   0  0  0  0  0  0  0  0  0  0  0  0
  140.4860   71.0090  225.1890 C   0  0  0  0  0  0  0  0  0  0  0  0
  141.4830   71.0990  226.1050 F   0  0  0  0  0  0  0  0  0  0  0  0
  140.4520   71.8880  224.1010 C   0  0  0  0  0  0  0  0  0  0  0  0
  141.2373   72.6500  223.9884 H   0  0  0  0  0  0  0  0  0  0  0  0
  140.9440   77.8740  221.9180 C   0  0  0  0  0  0  0  0  0  0  0  0
  141.3980   78.8490  221.0190 C   0  0  0  0  0  0  0  0  0  0  0  0
  141.1334   78.7769  219.9537 H   0  0  0  0  0  0  0  0  0  0  0  0
  142.1650   79.8850  221.4580 N   0  0  0  0  0  0  0  0  0  0  0  0
  142.5420   79.9990  222.7590 C   0  0  0  0  0  0  0  0  0  0  0  0
  143.1563   80.8529  223.0806 H   0  0  0  0  0  0  0  0  0  0  0  0
  142.1500   79.0330  223.6870 C   0  0  0  0  0  0  0  0  0  0  0  0
  142.4558   79.1185  224.7402 H   0  0  0  0  0  0  0  0  0  0  0  0
  141.3660   77.9570  223.2660 C   0  0  0  0  0  0  0  0  0  0  0  0
  141.0765   77.1739  223.9822 H   0  0  0  0  0  0  0  0  0  0  0  0
  1  2  1  0
  2  3  2  0
  3  4  1  0
  3  5  1  0
  5  6  2  0
  6  7  1  0
  7  8  2  0
  8  9  1  0
  8 10  1  0
 10 11  1  0
 10 12  2  0
 12 13  1  0
 12 14  1  0
 14 15  1  0
 14 16  2  0
 16 17  1  0
 17 18  2  0
 17 19  1  0
 19 20  1  0
 20 21  1  0
 20 22  1  0
 20 23  1  0
 23 24  2  0
 24 25  1  0
 24 26  1  0
 26 27  1  0
 26 28  2  0
 28 29  1  0
 28 30  1  0
 30 31  1  0
 30 32  2  0
 32 33  1  0
  2 34  1  0
 34 35  2  0
 35 36  1  0
 35 37  1  0
 37 38  2  0
 38 39  1  0
 38 40  1  0
 40 41  1  0
 40 42  2  0
 42 43  1  0
 19  5  1  0
 32 23  1  0
 42 34  1  0
 16  7  1  0
M  END
>  <UniqueID>  (2) 
255

>  <SMILES>  (2) 
O=c1c2cc(F)ccc2nc(/C=C/c2cccnc2)n1Cc1cccc(F)c1

>  <Energy>  (2) 
63.037306643374215

>  <Genealogy>  (2) 
O=c1c2cc(F)ccc2nc(/C=C/c2cccnc2)n1Cc1cccc(F)c1 (cis-trans isomerization)
O=c1c2cc(F)ccc2nc(/C=C/c2cccnc2)n1Cc1cccc(F)c1 (3D coordinates assigned)
O=c1c2cc(F)ccc2nc(/C=C/c2cccnc2)n1Cc1cccc(F)c1 (optimized conformer: 63.037306643374215 kcal/mol)

>  <smiles>  (2) 
O=c1c2cc(F)ccc2nc(/C=C/c2cccnc2)n1Cc1cccc(F)c1

>  <score_type>  (2) 
oracle

>  <origin>  (2) 
autodockgpu

>  <m_score__min__energy>  (2) 
-7.1900000000000004

>  <m_primary>  (2) 
energy

>  <meeko>  (2) 
{"free_energy": -7.02, "intermolecular_energy": -8.51, "internal_energy": -1.09, "cluster_size": 3, "cluster_id": 3, "rank_in_cluster": 3}

>  <energy>  (2) 
-7.05

>  <cluster_rmsd>  (2) 
0.0

>  <rmsd>  (2) 
268.62

>  <cluster>  (2) 
2

$$$$
KXOWNDOGMRUJAS-RMKNXTFCNA-N
     RDKit          3D

 43 46  0  0  0  0  0  0  0  0999 V2000
  139.1855   76.5720  223.5441 H   0  0  0  0  0  0  0  0  0  0  0  0
  139.0230   77.1830  222.6440 C   0  0  0  0  0  0  0  0  0  0  0  0
  139.1170   76.5870  221.4470 C   0  0  0  0  0  0  0  0  0  0  0  0
  138.2190   76.4677  220.8230 H   0  0  0  0  0  0  0  0  0  0  0  0
  140.4170   76.0910  220.9630 C   0  0  0  0  0  0  0  0  0  0  0  0
  140.7700   74.8130  221.2690 N   0  0  0  0  0  0  0  0  0  0  0  0
  141.9600   74.2910  220.8870 C   0  0  0  0  0  0  0  0  0  0  0  0
  142.2830   72.9660  221.2140 C   0  0  0  0  0  0  0  0  0  0  0  0
  141.5633   72.3457  221.7683 H   0  0  0  0  0  0  0  0  0  0  0  0
  143.5190   72.4330  220.8360 C   0  0  0  0  0  0  0  0  0  0  0  0
  143.7726   71.3947  221.0960 H   0  0  0  0  0  0  0  0  0  0  0  0
  144.4350   73.2210  220.1260 C   0  0  0  0  0  0  0  0  0  0  0  0
  145.6330   72.7020  219.7640 F   0  0  0  0  0  0  0  0  0  0  0  0
  144.1170   74.5410  219.7900 C   0  0  0  0  0  0  0  0  0  0  0  0
  144.8382   75.1548  219.2304 H   0  0  0  0  0  0  0  0  0  0  0  0
  142.8730   75.0850  220.1680 C   0  0  0  0  0  0  0  0  0  0  0  0
  142.5070   76.4080  219.8610 C   0  0  0  0  0  0  0  0  0  0  0  0
  143.3180   77.1400  219.2260 O   0  0  0  0  0  0  0  0  0  0  0  0
  141.2830   76.9010  220.2580 N   0  0  0  0  0  0  0  0  0  0  0  0
  140.9270   78.3180  219.9950 C   0  0  0  0  0  0  0  0  0  0  0  0
  141.3743   78.6303  219.0398 H   0  0  0  0  0  0  0  0  0  0  0  0
  139.8311   78.4027  219.9522 H   0  0  0  0  0  0  0  0  0  0  0  0
  141.4370   79.2150  221.0960 C   0  0  0  0  0  0  0  0  0  0  0  0
  142.1050   78.6630  222.2020 C   0  0  0  0  0  0  0  0  0  0  0  0
  142.2555   77.5751  222.2647 H   0  0  0  0  0  0  0  0  0  0  0  0
  142.5790   79.4920  223.2230 C   0  0  0  0  0  0  0  0  0  0  0  0
  143.0960   79.0535  224.0893 H   0  0  0  0  0  0  0  0  0  0  0  0
  142.3980   80.8790  223.1470 C   0  0  0  0  0  0  0  0  0  0  0  0
  142.7665   81.5271  223.9558 H   0  0  0  0  0  0  0  0  0  0  0  0
  141.7490   81.4390  222.0430 C   0  0  0  0  0  0  0  0  0  0  0  0
  141.5800   82.7830  221.9670 F   0  0  0  0  0  0  0  0  0  0  0  0
  141.2690   80.6130  221.0210 C   0  0  0  0  0  0  0  0  0  0  0  0
  140.7576   81.0566  220.1540 H   0  0  0  0  0  0  0  0  0  0  0  0
  138.7120   78.6200  222.8190 C   0  0  0  0  0  0  0  0  0  0  0  0
  137.8650   79.2470  221.8940 C   0  0  0  0  0  0  0  0  0  0  0  0
  137.4765   78.6794  221.0356 H   0  0  0  0  0  0  0  0  0  0  0  0
  137.5210   80.5550  222.0530 N   0  0  0  0  0  0  0  0  0  0  0  0
  138.0000   81.3030  223.0830 C   0  0  0  0  0  0  0  0  0  0  0  0
  137.6954   82.3550  223.1859 H   0  0  0  0  0  0  0  0  0  0  0  0
  138.8770   80.7380  224.0090 C   0  0  0  0  0  0  0  0  0  0  0  0
  139.2698   81.3401  224.8416 H   0  0  0  0  0  0  0  0  0  0  0  0
  139.2510   79.4000  223.8680 C   0  0  0  0  0  0  0  0  0  0  0  0
  139.9659   78.9522  224.5740 H   0  0  0  0  0  0  0  0  0  0  0  0
  1  2  1  0
  2  3  2  0
  3  4  1  0
  3  5  1  0
  5  6  2  0
  6  7  1  0
  7  8  2  0
  8  9  1  0
  8 10  1  0
 10 11  1  0
 10 12  2  0
 12 13  1  0
 12 14  1  0
 14 15  1  0
 14 16  2  0
 16 17  1  0
 17 18  2  0
 17 19  1  0
 19 20  1  0
 20 21  1  0
 20 22  1  0
 20 23  1  0
 23 24  2  0
 24 25  1  0
 24 26  1  0
 26 27  1  0
 26 28  2  0
 28 29  1  0
 28 30  1  0
 30 31  1  0
 30 32  2  0
 32 33  1  0
  2 34  1  0
 34 35  2  0
 35 36  1  0
 35 37  1  0
 37 38  2  0
 38 39  1  0
 38 40  1  0
 40 41  1  0
 40 42  2  0
 42 43  1  0
 19  5  1  0
 32 23  1  0
 42 34  1  0
 16  7  1  0
M  END
>  <UniqueID>  (3) 
255

>  <SMILES>  (3) 
O=c1c2cc(F)ccc2nc(/C=C/c2cccnc2)n1Cc1cccc(F)c1

>  <Energy>  (3) 
63.037306643374215

>  <Genealogy>  (3) 
O=c1c2cc(F)ccc2nc(/C=C/c2cccnc2)n1Cc1cccc(F)c1 (cis-trans isomerization)
O=c1c2cc(F)ccc2nc(/C=C/c2cccnc2)n1Cc1cccc(F)c1 (3D coordinates assigned)
O=c1c2cc(F)ccc2nc(/C=C/c2cccnc2)n1Cc1cccc(F)c1 (optimized conformer: 63.037306643374215 kcal/mol)

>  <smiles>  (3) 
O=c1c2cc(F)ccc2nc(/C=C/c2cccnc2)n1Cc1cccc(F)c1

>  <score_type>  (3) 
oracle

>  <origin>  (3) 
autodockgpu

>  <m_score__min__energy>  (3) 
-7.1900000000000004

>  <m_primary>  (3) 
energy

>  <meeko>  (3) 
{"free_energy": -6.33, "intermolecular_energy": -7.82, "internal_energy": -1.9, "cluster_size": 13, "cluster_id": 4, "rank_in_cluster": 4}

>  <energy>  (3) 
-7.04

>  <cluster_rmsd>  (3) 
0.03

>  <rmsd>  (3) 
268.6

>  <cluster>  (3) 
2

$$$$
KXOWNDOGMRUJAS-RMKNXTFCNA-N
     RDKit          3D

 43 46  0  0  0  0  0  0  0  0999 V2000
  139.2547   76.6558  223.5632 H   0  0  0  0  0  0  0  0  0  0  0  0
  139.0420   77.2310  222.6500 C   0  0  0  0  0  0  0  0  0  0  0  0
  139.1170   76.5990  221.4710 C   0  0  0  0  0  0  0  0  0  0  0  0
  138.2077   76.4512  220.8700 H   0  0  0  0  0  0  0  0  0  0  0  0
  140.4130   76.1010  220.9760 C   0  0  0  0  0  0  0  0  0  0  0  0
  140.7670   74.8240  221.2810 N   0  0  0  0  0  0  0  0  0  0  0  0
  141.9530   74.2990  220.8900 C   0  0  0  0  0  0  0  0  0  0  0  0
  142.2770   72.9750  221.2170 C   0  0  0  0  0  0  0  0  0  0  0  0
  141.5615   72.3570  221.7793 H   0  0  0  0  0  0  0  0  0  0  0  0
  143.5090   72.4390  220.8290 C   0  0  0  0  0  0  0  0  0  0  0  0
  143.7636   71.4010  221.0891 H   0  0  0  0  0  0  0  0  0  0  0  0
  144.4190   73.2240  220.1090 C   0  0  0  0  0  0  0  0  0  0  0  0
  145.6140   72.7030  219.7370 F   0  0  0  0  0  0  0  0  0  0  0  0
  144.1000   74.5440  219.7730 C   0  0  0  0  0  0  0  0  0  0  0  0
  144.8174   75.1559  219.2065 H   0  0  0  0  0  0  0  0  0  0  0  0
  142.8600   75.0900  220.1600 C   0  0  0  0  0  0  0  0  0  0  0  0
  142.4920   76.4130  219.8530 C   0  0  0  0  0  0  0  0  0  0  0  0
  143.2980   77.1420  219.2080 O   0  0  0  0  0  0  0  0  0  0  0  0
  141.2730   76.9090  220.2600 N   0  0  0  0  0  0  0  0  0  0  0  0
  140.9160   78.3250  219.9970 C   0  0  0  0  0  0  0  0  0  0  0  0
  141.3605   78.6367  219.0403 H   0  0  0  0  0  0  0  0  0  0  0  0
  139.8200   78.4094  219.9572 H   0  0  0  0  0  0  0  0  0  0  0  0
  141.4290   79.2230  221.0960 C   0  0  0  0  0  0  0  0  0  0  0  0
  142.0950   78.6720  222.2030 C   0  0  0  0  0  0  0  0  0  0  0  0
  142.2424   77.5839  222.2680 H   0  0  0  0  0  0  0  0  0  0  0  0
  142.5710   79.5010  223.2220 C   0  0  0  0  0  0  0  0  0  0  0  0
  143.0871   79.0629  224.0890 H   0  0  0  0  0  0  0  0  0  0  0  0
  142.3930   80.8890  223.1430 C   0  0  0  0  0  0  0  0  0  0  0  0
  142.7625   81.5380  223.9506 H   0  0  0  0  0  0  0  0  0  0  0  0
  141.7460   81.4480  222.0380 C   0  0  0  0  0  0  0  0  0  0  0  0
  141.5800   82.7920  221.9600 F   0  0  0  0  0  0  0  0  0  0  0  0
  141.2630   80.6210  221.0180 C   0  0  0  0  0  0  0  0  0  0  0  0
  140.7511   81.0637  220.1508 H   0  0  0  0  0  0  0  0  0  0  0  0
  138.6880   78.6630  222.7900 C   0  0  0  0  0  0  0  0  0  0  0  0
  139.2380   79.3950  223.8510 C   0  0  0  0  0  0  0  0  0  0  0  0
  139.8887   78.8935  224.5825 H   0  0  0  0  0  0  0  0  0  0  0  0
  138.9710   80.7240  223.9810 N   0  0  0  0  0  0  0  0  0  0  0  0
  138.1480   81.3780  223.1180 C   0  0  0  0  0  0  0  0  0  0  0  0
  137.9593   82.4539  223.2475 H   0  0  0  0  0  0  0  0  0  0  0  0
  137.5430   80.6860  222.0690 C   0  0  0  0  0  0  0  0  0  0  0  0
  136.8730   81.2099  221.3714 H   0  0  0  0  0  0  0  0  0  0  0  0
  137.7960   79.3220  221.9130 C   0  0  0  0  0  0  0  0  0  0  0  0
  137.3012   78.7597  221.1074 H   0  0  0  0  0  0  0  0  0  0  0  0
  1  2  1  0
  2  3  2  0
  3  4  1  0
  3  5  1  0
  5  6  2  0
  6  7  1  0
  7  8  2  0
  8  9  1  0
  8 10  1  0
 10 11  1  0
 10 12  2  0
 12 13  1  0
 12 14  1  0
 14 15  1  0
 14 16  2  0
 16 17  1  0
 17 18  2  0
 17 19  1  0
 19 20  1  0
 20 21  1  0
 20 22  1  0
 20 23  1  0
 23 24  2  0
 24 25  1  0
 24 26  1  0
 26 27  1  0
 26 28  2  0
 28 29  1  0
 28 30  1  0
 30 31  1  0
 30 32  2  0
 32 33  1  0
  2 34  1  0
 34 35  2  0
 35 36  1  0
 35 37  1  0
 37 38  2  0
 38 39  1  0
 38 40  1  0
 40 41  1  0
 40 42  2  0
 42 43  1  0
 19  5  1  0
 32 23  1  0
 42 34  1  0
 16  7  1  0
M  END
>  <UniqueID>  (4) 
255

>  <SMILES>  (4) 
O=c1c2cc(F)ccc2nc(/C=C/c2cccnc2)n1Cc1cccc(F)c1

>  <Energy>  (4) 
63.037306643374215

>  <Genealogy>  (4) 
O=c1c2cc(F)ccc2nc(/C=C/c2cccnc2)n1Cc1cccc(F)c1 (cis-trans isomerization)
O=c1c2cc(F)ccc2nc(/C=C/c2cccnc2)n1Cc1cccc(F)c1 (3D coordinates assigned)
O=c1c2cc(F)ccc2nc(/C=C/c2cccnc2)n1Cc1cccc(F)c1 (optimized conformer: 63.037306643374215 kcal/mol)

>  <smiles>  (4) 
O=c1c2cc(F)ccc2nc(/C=C/c2cccnc2)n1Cc1cccc(F)c1

>  <score_type>  (4) 
oracle

>  <origin>  (4) 
autodockgpu

>  <m_score__min__energy>  (4) 
-7.1900000000000004

>  <m_primary>  (4) 
energy

>  <meeko>  (4) 
{"free_energy": -6.25, "intermolecular_energy": -7.74, "internal_energy": -1.91, "cluster_size": 13, "cluster_id": 4, "rank_in_cluster": 13}

>  <energy>  (4) 
-7.01

>  <cluster_rmsd>  (4) 
0.12

>  <rmsd>  (4) 
268.63

>  <cluster>  (4) 
2

$$$$
KXOWNDOGMRUJAS-RMKNXTFCNA-N
     RDKit          3D

 43 46  0  0  0  0  0  0  0  0999 V2000
  139.1717   76.5558  223.4867 H   0  0  0  0  0  0  0  0  0  0  0  0
  139.0040   77.2040  222.6140 C   0  0  0  0  0  0  0  0  0  0  0  0
  139.1090   76.6630  221.3930 C   0  0  0  0  0  0  0  0  0  0  0  0
  138.2254   76.6081  220.7402 H   0  0  0  0  0  0  0  0  0  0  0  0
  140.4040   76.1410  220.9210 C   0  0  0  0  0  0  0  0  0  0  0  0
  140.7320   74.8590  221.2400 N   0  0  0  0  0  0  0  0  0  0  0  0
  141.9150   74.3130  220.8690 C   0  0  0  0  0  0  0  0  0  0  0  0
  142.2120   72.9860  221.2100 C   0  0  0  0  0  0  0  0  0  0  0  0
  141.4785   72.3842  221.7666 H   0  0  0  0  0  0  0  0  0  0  0  0
  143.4400   72.4270  220.8430 C   0  0  0  0  0  0  0  0  0  0  0  0
  143.6726   71.3861  221.1120 H   0  0  0  0  0  0  0  0  0  0  0  0
  144.3740   73.1920  220.1330 C   0  0  0  0  0  0  0  0  0  0  0  0
  145.5650   72.6500  219.7820 F   0  0  0  0  0  0  0  0  0  0  0  0
  144.0820   74.5150  219.7840 C   0  0  0  0  0  0  0  0  0  0  0  0
  144.8179   75.1108  219.2242 H   0  0  0  0  0  0  0  0  0  0  0  0
  142.8460   75.0850  220.1490 C   0  0  0  0  0  0  0  0  0  0  0  0
  142.5050   76.4110  219.8290 C   0  0  0  0  0  0  0  0  0  0  0  0
  143.3330   77.1230  219.1920 O   0  0  0  0  0  0  0  0  0  0  0  0
  141.2880   76.9300  220.2140 N   0  0  0  0  0  0  0  0  0  0  0  0
  140.9590   78.3500  219.9370 C   0  0  0  0  0  0  0  0  0  0  0  0
  141.4455   78.6560  218.9991 H   0  0  0  0  0  0  0  0  0  0  0  0
  139.8666   78.4477  219.8529 H   0  0  0  0  0  0  0  0  0  0  0  0
  141.4380   79.2420  221.0560 C   0  0  0  0  0  0  0  0  0  0  0  0
  142.1130   78.6910  222.1570 C   0  0  0  0  0  0  0  0  0  0  0  0
  142.2923   77.6067  222.2027 H   0  0  0  0  0  0  0  0  0  0  0  0
  142.5580   79.5140  223.1950 C   0  0  0  0  0  0  0  0  0  0  0  0
  143.0816   79.0749  224.0570 H   0  0  0  0  0  0  0  0  0  0  0  0
  142.3390   80.8980  223.1410 C   0  0  0  0  0  0  0  0  0  0  0  0
  142.6840   81.5427  223.9628 H   0  0  0  0  0  0  0  0  0  0  0  0
  141.6820   81.4570  222.0420 C   0  0  0  0  0  0  0  0  0  0  0  0
  141.4770   82.7970  221.9870 F   0  0  0  0  0  0  0  0  0  0  0  0
  141.2310   80.6360  221.0030 C   0  0  0  0  0  0  0  0  0  0  0  0
  140.7124   81.0799  220.1405 H   0  0  0  0  0  0  0  0  0  0  0  0
  138.6740   78.6290  222.8520 C   0  0  0  0  0  0  0  0  0  0  0  0
  137.7780   79.2700  221.9860 C   0  0  0  0  0  0  0  0  0  0  0  0
  137.3639   78.7242  221.1254 H   0  0  0  0  0  0  0  0  0  0  0  0
  137.4170   80.5650  222.2040 N   0  0  0  0  0  0  0  0  0  0  0  0
  137.9260   81.2870  223.2380 C   0  0  0  0  0  0  0  0  0  0  0  0
  137.6078   82.3291  223.3893 H   0  0  0  0  0  0  0  0  0  0  0  0
  138.8510   80.7080  224.1070 C   0  0  0  0  0  0  0  0  0  0  0  0
  139.2674   81.2893  224.9429 H   0  0  0  0  0  0  0  0  0  0  0  0
  139.2430   79.3830  223.9050 C   0  0  0  0  0  0  0  0  0  0  0  0
  139.9946   78.9254  224.5650 H   0  0  0  0  0  0  0  0  0  0  0  0
  1  2  1  0
  2  3  2  0
  3  4  1  0
  3  5  1  0
  5  6  2  0
  6  7  1  0
  7  8  2  0
  8  9  1  0
  8 10  1  0
 10 11  1  0
 10 12  2  0
 12 13  1  0
 12 14  1  0
 14 15  1  0
 14 16  2  0
 16 17  1  0
 17 18  2  0
 17 19  1  0
 19 20  1  0
 20 21  1  0
 20 22  1  0
 20 23  1  0
 23 24  2  0
 24 25  1  0
 24 26  1  0
 26 27  1  0
 26 28  2  0
 28 29  1  0
 28 30  1  0
 30 31  1  0
 30 32  2  0
 32 33  1  0
  2 34  1  0
 34 35  2  0
 35 36  1  0
 35 37  1  0
 37 38  2  0
 38 39  1  0
 38 40  1  0
 40 41  1  0
 40 42  2  0
 42 43  1  0
 19  5  1  0
 32 23  1  0
 42 34  1  0
 16  7  1  0
M  END
>  <UniqueID>  (5) 
255

>  <SMILES>  (5) 
O=c1c2cc(F)ccc2nc(/C=C/c2cccnc2)n1Cc1cccc(F)c1

>  <Energy>  (5) 
63.037306643374215

>  <Genealogy>  (5) 
O=c1c2cc(F)ccc2nc(/C=C/c2cccnc2)n1Cc1cccc(F)c1 (cis-trans isomerization)
O=c1c2cc(F)ccc2nc(/C=C/c2cccnc2)n1Cc1cccc(F)c1 (3D coordinates assigned)
O=c1c2cc(F)ccc2nc(/C=C/c2cccnc2)n1Cc1cccc(F)c1 (optimized conformer: 63.037306643374215 kcal/mol)

>  <smiles>  (5) 
O=c1c2cc(F)ccc2nc(/C=C/c2cccnc2)n1Cc1cccc(F)c1

>  <score_type>  (5) 
oracle

>  <origin>  (5) 
autodockgpu

>  <m_score__min__energy>  (5) 
-7.1900000000000004

>  <m_primary>  (5) 
energy

>  <meeko>  (5) 
{"free_energy": -6.31, "intermolecular_energy": -7.8, "internal_energy": -1.9, "cluster_size": 13, "cluster_id": 4, "rank_in_cluster": 10}

>  <energy>  (5) 
-7.03

>  <cluster_rmsd>  (5) 
0.0

>  <rmsd>  (5) 
268.79

>  <cluster>  (5) 
3

$$$$
KXOWNDOGMRUJAS-RMKNXTFCNA-N
     RDKit          3D

 43 46  0  0  0  0  0  0  0  0999 V2000
  139.2080   76.5822  223.5317 H   0  0  0  0  0  0  0  0  0  0  0  0
  139.0350   77.2040  222.6410 C   0  0  0  0  0  0  0  0  0  0  0  0
  139.1270   76.6250  221.4360 C   0  0  0  0  0  0  0  0  0  0  0  0
  138.2307   76.5277  220.8057 H   0  0  0  0  0  0  0  0  0  0  0  0
  140.4230   76.1180  220.9510 C   0  0  0  0  0  0  0  0  0  0  0  0
  140.7690   74.8400  221.2630 N   0  0  0  0  0  0  0  0  0  0  0  0
  141.9550   74.3080  220.8810 C   0  0  0  0  0  0  0  0  0  0  0  0
  142.2700   72.9830  221.2140 C   0  0  0  0  0  0  0  0  0  0  0  0
  141.5476   72.3703  221.7733 H   0  0  0  0  0  0  0  0  0  0  0  0
  143.5010   72.4400  220.8360 C   0  0  0  0  0  0  0  0  0  0  0  0
  143.7482   71.4012  221.1003 H   0  0  0  0  0  0  0  0  0  0  0  0
  144.4210   73.2190  220.1200 C   0  0  0  0  0  0  0  0  0  0  0  0
  145.6150   72.6910  219.7580 F   0  0  0  0  0  0  0  0  0  0  0  0
  144.1100   74.5390  219.7780 C   0  0  0  0  0  0  0  0  0  0  0  0
  144.8336   75.1455  219.2136 H   0  0  0  0  0  0  0  0  0  0  0  0
  142.8700   75.0930  220.1560 C   0  0  0  0  0  0  0  0  0  0  0  0
  142.5120   76.4170  219.8420 C   0  0  0  0  0  0  0  0  0  0  0  0
  143.3260   77.1400  219.2010 O   0  0  0  0  0  0  0  0  0  0  0  0
  141.2920   76.9200  220.2400 N   0  0  0  0  0  0  0  0  0  0  0  0
  140.9450   78.3370  219.9700 C   0  0  0  0  0  0  0  0  0  0  0  0
  141.4144   78.6491  219.0254 H   0  0  0  0  0  0  0  0  0  0  0  0
  139.8506   78.4241  219.9023 H   0  0  0  0  0  0  0  0  0  0  0  0
  141.4320   79.2320  221.0830 C   0  0  0  0  0  0  0  0  0  0  0  0
  142.1180   78.6840  222.1790 C   0  0  0  0  0  0  0  0  0  0  0  0
  142.2989   77.6000  222.2258 H   0  0  0  0  0  0  0  0  0  0  0  0
  142.5720   79.5110  223.2110 C   0  0  0  0  0  0  0  0  0  0  0  0
  143.1042   79.0750  224.0693 H   0  0  0  0  0  0  0  0  0  0  0  0
  142.3510   80.8940  223.1550 C   0  0  0  0  0  0  0  0  0  0  0  0
  142.7026   81.5411  223.9721 H   0  0  0  0  0  0  0  0  0  0  0  0
  141.6840   81.4500  222.0610 C   0  0  0  0  0  0  0  0  0  0  0  0
  141.4770   82.7900  222.0050 F   0  0  0  0  0  0  0  0  0  0  0  0
  141.2240   80.6260  221.0280 C   0  0  0  0  0  0  0  0  0  0  0  0
  140.6976   81.0674  220.1689 H   0  0  0  0  0  0  0  0  0  0  0  0
  138.7130   78.6360  222.8380 C   0  0  0  0  0  0  0  0  0  0  0  0
  137.8820   79.2770  221.9080 C   0  0  0  0  0  0  0  0  0  0  0  0
  137.5135   78.7244  221.0312 H   0  0  0  0  0  0  0  0  0  0  0  0
  137.5290   80.5800  222.0850 N   0  0  0  0  0  0  0  0  0  0  0  0
  137.9840   81.3110  223.1380 C   0  0  0  0  0  0  0  0  0  0  0  0
  137.6722   82.3594  223.2549 H   0  0  0  0  0  0  0  0  0  0  0  0
  138.8460   80.7320  224.0700 C   0  0  0  0  0  0  0  0  0  0  0  0
  139.2203   81.3203  224.9208 H   0  0  0  0  0  0  0  0  0  0  0  0
  139.2290   79.3980  223.9120 C   0  0  0  0  0  0  0  0  0  0  0  0
  139.9322   78.9400  224.6231 H   0  0  0  0  0  0  0  0  0  0  0  0
  1  2  1  0
  2  3  2  0
  3  4  1  0
  3  5  1  0
  5  6  2  0
  6  7  1  0
  7  8  2  0
  8  9  1  0
  8 10  1  0
 10 11  1  0
 10 12  2  0
 12 13  1  0
 12 14  1  0
 14 15  1  0
 14 16  2  0
 16 17  1  0
 17 18  2  0
 17 19  1  0
 19 20  1  0
 20 21  1  0
 20 22  1  0
 20 23  1  0
 23 24  2  0
 24 25  1  0
 24 26  1  0
 26 27  1  0
 26 28  2  0
 28 29  1  0
 28 30  1  0
 30 31  1  0
 30 32  2  0
 32 33  1  0
  2 34  1  0
 34 35  2  0
 35 36  1  0
 35 37  1  0
 37 38  2  0
 38 39  1  0
 38 40  1  0
 40 41  1  0
 40 42  2  0
 42 43  1  0
 19  5  1  0
 32 23  1  0
 42 34  1  0
 16  7  1  0
M  END
>  <UniqueID>  (6) 
255

>  <SMILES>  (6) 
O=c1c2cc(F)ccc2nc(/C=C/c2cccnc2)n1Cc1cccc(F)c1

>  <Energy>  (6) 
63.037306643374215

>  <Genealogy>  (6) 
O=c1c2cc(F)ccc2nc(/C=C/c2cccnc2)n1Cc1cccc(F)c1 (cis-trans isomerization)
O=c1c2cc(F)ccc2nc(/C=C/c2cccnc2)n1Cc1cccc(F)c1 (3D coordinates assigned)
O=c1c2cc(F)ccc2nc(/C=C/c2cccnc2)n1Cc1cccc(F)c1 (optimized conformer: 63.037306643374215 kcal/mol)

>  <smiles>  (6) 
O=c1c2cc(F)ccc2nc(/C=C/c2cccnc2)n1Cc1cccc(F)c1

>  <score_type>  (6) 
oracle

>  <origin>  (6) 
autodockgpu

>  <m_score__min__energy>  (6) 
-7.1900000000000004

>  <m_primary>  (6) 
energy

>  <meeko>  (6) 
{"free_energy": -6.32, "intermolecular_energy": -7.81, "internal_energy": -1.91, "cluster_size": 13, "cluster_id": 4, "rank_in_cluster": 9}

>  <energy>  (6) 
-7.02

>  <cluster_rmsd>  (6) 
0.42

>  <rmsd>  (6) 
268.88

>  <cluster>  (6) 
3

$$$$
KXOWNDOGMRUJAS-RMKNXTFCNA-N
     RDKit          3D

 43 46  0  0  0  0  0  0  0  0999 V2000
  139.2424   76.5874  223.5200 H   0  0  0  0  0  0  0  0  0  0  0  0
  139.0540   77.2000  222.6260 C   0  0  0  0  0  0  0  0  0  0  0  0
  139.1460   76.6140  221.4240 C   0  0  0  0  0  0  0  0  0  0  0  0
  138.2489   76.5074  220.7964 H   0  0  0  0  0  0  0  0  0  0  0  0
  140.4440   76.1120  220.9400 C   0  0  0  0  0  0  0  0  0  0  0  0
  140.7960   74.8360  221.2570 N   0  0  0  0  0  0  0  0  0  0  0  0
  141.9850   74.3090  220.8760 C   0  0  0  0  0  0  0  0  0  0  0  0
  142.3060   72.9870  221.2150 C   0  0  0  0  0  0  0  0  0  0  0  0
  141.5873   72.3737  221.7783 H   0  0  0  0  0  0  0  0  0  0  0  0
  143.5400   72.4480  220.8370 C   0  0  0  0  0  0  0  0  0  0  0  0
  143.7929   71.4118  221.1061 H   0  0  0  0  0  0  0  0  0  0  0  0
  144.4540   73.2270  220.1160 C   0  0  0  0  0  0  0  0  0  0  0  0
  145.6500   72.7030  219.7540 F   0  0  0  0  0  0  0  0  0  0  0  0
  144.1370   74.5450  219.7680 C   0  0  0  0  0  0  0  0  0  0  0  0
  144.8572   75.1524  219.2002 H   0  0  0  0  0  0  0  0  0  0  0  0
  142.8950   75.0940  220.1450 C   0  0  0  0  0  0  0  0  0  0  0  0
  142.5290   76.4150  219.8260 C   0  0  0  0  0  0  0  0  0  0  0  0
  143.3390   77.1390  219.1800 O   0  0  0  0  0  0  0  0  0  0  0  0
  141.3080   76.9140  220.2230 N   0  0  0  0  0  0  0  0  0  0  0  0
  140.9530   78.3280  219.9470 C   0  0  0  0  0  0  0  0  0  0  0  0
  141.4235   78.6398  219.0029 H   0  0  0  0  0  0  0  0  0  0  0  0
  139.8583   78.4081  219.8754 H   0  0  0  0  0  0  0  0  0  0  0  0
  141.4310   79.2300  221.0590 C   0  0  0  0  0  0  0  0  0  0  0  0
  142.1170   78.6900  222.1590 C   0  0  0  0  0  0  0  0  0  0  0  0
  142.3050   77.6074  222.2097 H   0  0  0  0  0  0  0  0  0  0  0  0
  142.5620   79.5230  223.1900 C   0  0  0  0  0  0  0  0  0  0  0  0
  143.0947   79.0934  224.0512 H   0  0  0  0  0  0  0  0  0  0  0  0
  142.3310   80.9040  223.1290 C   0  0  0  0  0  0  0  0  0  0  0  0
  142.6748   81.5560  223.9455 H   0  0  0  0  0  0  0  0  0  0  0  0
  141.6640   81.4520  222.0310 C   0  0  0  0  0  0  0  0  0  0  0  0
  141.4480   82.7900  221.9700 F   0  0  0  0  0  0  0  0  0  0  0  0
  141.2130   80.6220  221.0000 C   0  0  0  0  0  0  0  0  0  0  0  0
  140.6854   81.0571  220.1384 H   0  0  0  0  0  0  0  0  0  0  0  0
  138.7120   78.6290  222.8140 C   0  0  0  0  0  0  0  0  0  0  0  0
  137.8590   79.2490  221.8910 C   0  0  0  0  0  0  0  0  0  0  0  0
  137.4878   78.6834  221.0236 H   0  0  0  0  0  0  0  0  0  0  0  0
  137.4870   80.5480  222.0620 N   0  0  0  0  0  0  0  0  0  0  0  0
  137.9450   81.2940  223.1020 C   0  0  0  0  0  0  0  0  0  0  0  0
  137.6193   82.3387  223.2139 H   0  0  0  0  0  0  0  0  0  0  0  0
  138.8270   80.7370  224.0270 C   0  0  0  0  0  0  0  0  0  0  0  0
  139.2020   81.3382  224.8684 H   0  0  0  0  0  0  0  0  0  0  0  0
  139.2300   79.4080  223.8750 C   0  0  0  0  0  0  0  0  0  0  0  0
  139.9500   78.9674  224.5803 H   0  0  0  0  0  0  0  0  0  0  0  0
  1  2  1  0
  2  3  2  0
  3  4  1  0
  3  5  1  0
  5  6  2  0
  6  7  1  0
  7  8  2  0
  8  9  1  0
  8 10  1  0
 10 11  1  0
 10 12  2  0
 12 13  1  0
 12 14  1  0
 14 15  1  0
 14 16  2  0
 16 17  1  0
 17 18  2  0
 17 19  1  0
 19 20  1  0
 20 21  1  0
 20 22  1  0
 20 23  1  0
 23 24  2  0
 24 25  1  0
 24 26  1  0
 26 27  1  0
 26 28  2  0
 28 29  1  0
 28 30  1  0
 30 31  1  0
 30 32  2  0
 32 33  1  0
  2 34  1  0
 34 35  2  0
 35 36  1  0
 35 37  1  0
 37 38  2  0
 38 39  1  0
 38 40  1  0
 40 41  1  0
 40 42  2  0
 42 43  1  0
 19  5  1  0
 32 23  1  0
 42 34  1  0
 16  7  1  0
M  END
>  <UniqueID>  (7) 
255

>  <SMILES>  (7) 
O=c1c2cc(F)ccc2nc(/C=C/c2cccnc2)n1Cc1cccc(F)c1

>  <Energy>  (7) 
63.037306643374215

>  <Genealogy>  (7) 
O=c1c2cc(F)ccc2nc(/C=C/c2cccnc2)n1Cc1cccc(F)c1 (cis-trans isomerization)
O=c1c2cc(F)ccc2nc(/C=C/c2cccnc2)n1Cc1cccc(F)c1 (3D coordinates assigned)
O=c1c2cc(F)ccc2nc(/C=C/c2cccnc2)n1Cc1cccc(F)c1 (optimized conformer: 63.037306643374215 kcal/mol)

>  <smiles>  (7) 
O=c1c2cc(F)ccc2nc(/C=C/c2cccnc2)n1Cc1cccc(F)c1

>  <score_type>  (7) 
oracle

>  <origin>  (7) 
autodockgpu

>  <m_score__min__energy>  (7) 
-7.1900000000000004

>  <m_primary>  (7) 
energy

>  <meeko>  (7) 
{"free_energy": -6.33, "intermolecular_energy": -7.82, "internal_energy": -1.9, "cluster_size": 13, "cluster_id": 4, "rank_in_cluster": 6}

>  <energy>  (7) 
-7.02

>  <cluster_rmsd>  (7) 
0.41

>  <rmsd>  (7) 
268.89

>  <cluster>  (7) 
3

$$$$
KXOWNDOGMRUJAS-RMKNXTFCNA-N
     RDKit          3D

 43 46  0  0  0  0  0  0  0  0999 V2000
  141.9983   71.9472  222.3370 H   0  0  0  0  0  0  0  0  0  0  0  0
  140.9310   72.0860  222.5640 C   0  0  0  0  0  0  0  0  0  0  0  0
  140.2150   72.8980  221.7740 C   0  0  0  0  0  0  0  0  0  0  0  0
  139.2659   72.5462  221.3434 H   0  0  0  0  0  0  0  0  0  0  0  0
  140.6940   74.2600  221.4800 C   0  0  0  0  0  0  0  0  0  0  0  0
  140.1570   75.2930  222.1840 N   0  0  0  0  0  0  0  0  0  0  0  0
  140.5210   76.5780  221.9540 C   0  0  0  0  0  0  0  0  0  0  0  0
  139.9520   77.6140  222.7070 C   0  0  0  0  0  0  0  0  0  0  0  0
  139.2203   77.3828  223.4951 H   0  0  0  0  0  0  0  0  0  0  0  0
  140.3140   78.9420  222.4570 C   0  0  0  0  0  0  0  0  0  0  0  0
  139.8641   79.7547  223.0461 H   0  0  0  0  0  0  0  0  0  0  0  0
  141.2490   79.2370  221.4570 C   0  0  0  0  0  0  0  0  0  0  0  0
  141.5950   80.5250  221.2150 F   0  0  0  0  0  0  0  0  0  0  0  0
  141.8270   78.2080  220.7060 C   0  0  0  0  0  0  0  0  0  0  0  0
  142.5626   78.4451  219.9233 H   0  0  0  0  0  0  0  0  0  0  0  0
  141.4670   76.8670  220.9520 C   0  0  0  0  0  0  0  0  0  0  0  0
  142.0130   75.7960  220.2230 C   0  0  0  0  0  0  0  0  0  0  0  0
  142.8550   76.0380  219.3120 O   0  0  0  0  0  0  0  0  0  0  0  0
  141.6250   74.5010  220.4920 N   0  0  0  0  0  0  0  0  0  0  0  0
  142.1490   73.3800  219.6740 C   0  0  0  0  0  0  0  0  0  0  0  0
  141.5765   72.4691  219.9031 H   0  0  0  0  0  0  0  0  0  0  0  0
  142.0450   73.6429  218.6110 H   0  0  0  0  0  0  0  0  0  0  0  0
  143.6080   73.1330  219.9680 C   0  0  0  0  0  0  0  0  0  0  0  0
  144.3040   73.9820  220.8450 C   0  0  0  0  0  0  0  0  0  0  0  0
  143.7826   74.8277  221.3172 H   0  0  0  0  0  0  0  0  0  0  0  0
  145.6550   73.7570  221.1200 C   0  0  0  0  0  0  0  0  0  0  0  0
  146.1948   74.4292  221.8031 H   0  0  0  0  0  0  0  0  0  0  0  0
  146.3250   72.6770  220.5280 C   0  0  0  0  0  0  0  0  0  0  0  0
  147.3908   72.5069  220.7403 H   0  0  0  0  0  0  0  0  0  0  0  0
  145.6370   71.8170  219.6680 C   0  0  0  0  0  0  0  0  0  0  0  0
  146.2850   70.7680  219.1000 F   0  0  0  0  0  0  0  0  0  0  0  0
  144.2860   72.0420  219.3850 C   0  0  0  0  0  0  0  0  0  0  0  0
  143.7493   71.3648  218.7043 H   0  0  0  0  0  0  0  0  0  0  0  0
  140.3620   71.3650  223.7270 C   0  0  0  0  0  0  0  0  0  0  0  0
  139.2370   70.5510  223.5340 C   0  0  0  0  0  0  0  0  0  0  0  0
  138.7707   70.4880  222.5397 H   0  0  0  0  0  0  0  0  0  0  0  0
  138.7190   69.8380  224.5720 N   0  0  0  0  0  0  0  0  0  0  0  0
  139.2440   69.9080  225.8250 C   0  0  0  0  0  0  0  0  0  0  0  0
  138.8047   69.3128  226.6391 H   0  0  0  0  0  0  0  0  0  0  0  0
  140.3390   70.7340  226.0780 C   0  0  0  0  0  0  0  0  0  0  0  0
  140.7653   70.7965  227.0901 H   0  0  0  0  0  0  0  0  0  0  0  0
  140.8890   71.4810  225.0340 C   0  0  0  0  0  0  0  0  0  0  0  0
  141.7324   72.1598  225.2285 H   0  0  0  0  0  0  0  0  0  0  0  0
  1  2  1  0
  2  3  2  0
  3  4  1  0
  3  5  1  0
  5  6  2  0
  6  7  1  0
  7  8  2  0
  8  9  1  0
  8 10  1  0
 10 11  1  0
 10 12  2  0
 12 13  1  0
 12 14  1  0
 14 15  1  0
 14 16  2  0
 16 17  1  0
 17 18  2  0
 17 19  1  0
 19 20  1  0
 20 21  1  0
 20 22  1  0
 20 23  1  0
 23 24  2  0
 24 25  1  0
 24 26  1  0
 26 27  1  0
 26 28  2  0
 28 29  1  0
 28 30  1  0
 30 31  1  0
 30 32  2  0
 32 33  1  0
  2 34  1  0
 34 35  2  0
 35 36  1  0
 35 37  1  0
 37 38  2  0
 38 39  1  0
 38 40  1  0
 40 41  1  0
 40 42  2  0
 42 43  1  0
 19  5  1  0
 32 23  1  0
 42 34  1  0
 16  7  1  0
M  END
>  <UniqueID>  (8) 
255

>  <SMILES>  (8) 
O=c1c2cc(F)ccc2nc(/C=C/c2cccnc2)n1Cc1cccc(F)c1

>  <Energy>  (8) 
63.037306643374215

>  <Genealogy>  (8) 
O=c1c2cc(F)ccc2nc(/C=C/c2cccnc2)n1Cc1cccc(F)c1 (cis-trans isomerization)
O=c1c2cc(F)ccc2nc(/C=C/c2cccnc2)n1Cc1cccc(F)c1 (3D coordinates assigned)
O=c1c2cc(F)ccc2nc(/C=C/c2cccnc2)n1Cc1cccc(F)c1 (optimized conformer: 63.037306643374215 kcal/mol)

>  <smiles>  (8) 
O=c1c2cc(F)ccc2nc(/C=C/c2cccnc2)n1Cc1cccc(F)c1

>  <score_type>  (8) 
oracle

>  <origin>  (8) 
autodockgpu

>  <m_score__min__energy>  (8) 
-7.1900000000000004

>  <m_primary>  (8) 
energy

>  <meeko>  (8) 
{"free_energy": -7.19, "intermolecular_energy": -8.69, "internal_energy": -0.94, "cluster_size": 1, "cluster_id": 1, "rank_in_cluster": 1}

>  <energy>  (8) 
-6.42

>  <cluster_rmsd>  (8) 
0.0

>  <rmsd>  (8) 
269.22

>  <cluster>  (8) 
4

$$$$
KXOWNDOGMRUJAS-RMKNXTFCNA-N
     RDKit          3D

 43 46  0  0  0  0  0  0  0  0999 V2000
  139.1753   76.5733  223.5095 H   0  0  0  0  0  0  0  0  0  0  0  0
  139.0110   77.1920  222.6150 C   0  0  0  0  0  0  0  0  0  0  0  0
  139.1120   76.6080  221.4130 C   0  0  0  0  0  0  0  0  0  0  0  0
  138.2194   76.5006  220.7792 H   0  0  0  0  0  0  0  0  0  0  0  0
  140.4150   76.1090  220.9370 C   0  0  0  0  0  0  0  0  0  0  0  0
  140.7650   74.8320  221.2520 N   0  0  0  0  0  0  0  0  0  0  0  0
  141.9570   74.3070  220.8780 C   0  0  0  0  0  0  0  0  0  0  0  0
  142.2770   72.9850  221.2150 C   0  0  0  0  0  0  0  0  0  0  0  0
  141.5550   72.3693  221.7715 H   0  0  0  0  0  0  0  0  0  0  0  0
  143.5140   72.4480  220.8440 C   0  0  0  0  0  0  0  0  0  0  0  0
  143.7655   71.4111  221.1114 H   0  0  0  0  0  0  0  0  0  0  0  0
  144.4330   73.2300  220.1320 C   0  0  0  0  0  0  0  0  0  0  0  0
  145.6320   72.7090  219.7770 F   0  0  0  0  0  0  0  0  0  0  0  0
  144.1170   74.5490  219.7870 C   0  0  0  0  0  0  0  0  0  0  0  0
  144.8408   75.1591  219.2267 H   0  0  0  0  0  0  0  0  0  0  0  0
  142.8720   75.0960  220.1570 C   0  0  0  0  0  0  0  0  0  0  0  0
  142.5070   76.4170  219.8390 C   0  0  0  0  0  0  0  0  0  0  0  0
  143.3210   77.1440  219.2020 O   0  0  0  0  0  0  0  0  0  0  0  0
  141.2830   76.9140  220.2290 N   0  0  0  0  0  0  0  0  0  0  0  0
  140.9290   78.3290  219.9550 C   0  0  0  0  0  0  0  0  0  0  0  0
  141.3951   78.6400  219.0084 H   0  0  0  0  0  0  0  0  0  0  0  0
  139.8340   78.4109  219.8893 H   0  0  0  0  0  0  0  0  0  0  0  0
  141.4140   79.2300  221.0640 C   0  0  0  0  0  0  0  0  0  0  0  0
  142.0970   78.6870  222.1650 C   0  0  0  0  0  0  0  0  0  0  0  0
  142.2776   77.6032  222.2176 H   0  0  0  0  0  0  0  0  0  0  0  0
  142.5480   79.5190  223.1940 C   0  0  0  0  0  0  0  0  0  0  0  0
  143.0779   79.0872  224.0558 H   0  0  0  0  0  0  0  0  0  0  0  0
  142.3270   80.9020  223.1310 C   0  0  0  0  0  0  0  0  0  0  0  0
  142.6760   81.5532  223.9460 H   0  0  0  0  0  0  0  0  0  0  0  0
  141.6630   81.4520  222.0320 C   0  0  0  0  0  0  0  0  0  0  0  0
  141.4570   82.7920  221.9680 F   0  0  0  0  0  0  0  0  0  0  0  0
  141.2060   80.6230  221.0020 C   0  0  0  0  0  0  0  0  0  0  0  0
  140.6817   81.0602  220.1394 H   0  0  0  0  0  0  0  0  0  0  0  0
  138.6900   78.6260  222.8040 C   0  0  0  0  0  0  0  0  0  0  0  0
  137.8530   79.2600  221.8750 C   0  0  0  0  0  0  0  0  0  0  0  0
  137.4797   78.7015  221.0040 H   0  0  0  0  0  0  0  0  0  0  0  0
  137.5000   80.5640  222.0460 N   0  0  0  0  0  0  0  0  0  0  0  0
  137.9610   81.3020  223.0900 C   0  0  0  0  0  0  0  0  0  0  0  0
  137.6496   82.3511  223.2012 H   0  0  0  0  0  0  0  0  0  0  0  0
  138.8290   80.7300  224.0210 C   0  0  0  0  0  0  0  0  0  0  0  0
  139.2077   81.3240  224.8658 H   0  0  0  0  0  0  0  0  0  0  0  0
  139.2120   79.3950  223.8690 C   0  0  0  0  0  0  0  0  0  0  0  0
  139.9202   78.9421  224.5785 H   0  0  0  0  0  0  0  0  0  0  0  0
  1  2  1  0
  2  3  2  0
  3  4  1  0
  3  5  1  0
  5  6  2  0
  6  7  1  0
  7  8  2  0
  8  9  1  0
  8 10  1  0
 10 11  1  0
 10 12  2  0
 12 13  1  0
 12 14  1  0
 14 15  1  0
 14 16  2  0
 16 17  1  0
 17 18  2  0
 17 19  1  0
 19 20  1  0
 20 21  1  0
 20 22  1  0
 20 23  1  0
 23 24  2  0
 24 25  1  0
 24 26  1  0
 26 27  1  0
 26 28  2  0
 28 29  1  0
 28 30  1  0
 30 31  1  0
 30 32  2  0
 32 33  1  0
  2 34  1  0
 34 35  2  0
 35 36  1  0
 35 37  1  0
 37 38  2  0
 38 39  1  0
 38 40  1  0
 40 41  1  0
 40 42  2  0
 42 43  1  0
 19  5  1  0
 32 23  1  0
 42 34  1  0
 16  7  1  0
M  END
>  <UniqueID>  (9) 
255

>  <SMILES>  (9) 
O=c1c2cc(F)ccc2nc(/C=C/c2cccnc2)n1Cc1cccc(F)c1

>  <Energy>  (9) 
63.037306643374215

>  <Genealogy>  (9) 
O=c1c2cc(F)ccc2nc(/C=C/c2cccnc2)n1Cc1cccc(F)c1 (cis-trans isomerization)
O=c1c2cc(F)ccc2nc(/C=C/c2cccnc2)n1Cc1cccc(F)c1 (3D coordinates assigned)
O=c1c2cc(F)ccc2nc(/C=C/c2cccnc2)n1Cc1cccc(F)c1 (optimized conformer: 63.037306643374215 kcal/mol)

>  <smiles>  (9) 
O=c1c2cc(F)ccc2nc(/C=C/c2cccnc2)n1Cc1cccc(F)c1

>  <score_type>  (9) 
oracle

>  <origin>  (9) 
autodockgpu

>  <m_score__min__energy>  (9) 
-7.1900000000000004

>  <m_primary>  (9) 
energy

>  <meeko>  (9) 
{"free_energy": -6.32, "intermolecular_energy": -7.81, "internal_energy": -1.91, "cluster_size": 13, "cluster_id": 4, "rank_in_cluster": 8}

>  <energy>  (9) 
-6.38

>  <cluster_rmsd>  (9) 
1.97

>  <rmsd>  (9) 
269.15

>  <cluster>  (9) 
4

$$$$
KXOWNDOGMRUJAS-RMKNXTFCNA-N
     RDKit          3D

 43 46  0  0  0  0  0  0  0  0999 V2000
  139.2977   76.6320  223.5020 H   0  0  0  0  0  0  0  0  0  0  0  0
  139.0730   77.2410  222.6140 C   0  0  0  0  0  0  0  0  0  0  0  0
  139.1560   76.6600  221.4090 C   0  0  0  0  0  0  0  0  0  0  0  0
  138.2568   76.5694  220.7820 H   0  0  0  0  0  0  0  0  0  0  0  0
  140.4460   76.1420  220.9200 C   0  0  0  0  0  0  0  0  0  0  0  0
  140.7840   74.8630  221.2370 N   0  0  0  0  0  0  0  0  0  0  0  0
  141.9640   74.3200  220.8520 C   0  0  0  0  0  0  0  0  0  0  0  0
  142.2710   72.9950  221.1910 C   0  0  0  0  0  0  0  0  0  0  0  0
  141.5470   72.3906  221.7571 H   0  0  0  0  0  0  0  0  0  0  0  0
  143.4970   72.4410  220.8100 C   0  0  0  0  0  0  0  0  0  0  0  0
  143.7384   71.4023  221.0798 H   0  0  0  0  0  0  0  0  0  0  0  0
  144.4180   73.2080  220.0850 C   0  0  0  0  0  0  0  0  0  0  0  0
  145.6060   72.6700  219.7200 F   0  0  0  0  0  0  0  0  0  0  0  0
  144.1150   74.5290  219.7370 C   0  0  0  0  0  0  0  0  0  0  0  0
  144.8402   75.1268  219.1654 H   0  0  0  0  0  0  0  0  0  0  0  0
  142.8820   75.0940  220.1180 C   0  0  0  0  0  0  0  0  0  0  0  0
  142.5310   76.4190  219.7990 C   0  0  0  0  0  0  0  0  0  0  0  0
  143.3480   77.1320  219.1500 O   0  0  0  0  0  0  0  0  0  0  0  0
  141.3170   76.9330  220.2000 N   0  0  0  0  0  0  0  0  0  0  0  0
  140.9790   78.3510  219.9240 C   0  0  0  0  0  0  0  0  0  0  0  0
  141.4625   78.6603  218.9856 H   0  0  0  0  0  0  0  0  0  0  0  0
  139.8859   78.4419  219.8414 H   0  0  0  0  0  0  0  0  0  0  0  0
  141.4540   79.2460  221.0430 C   0  0  0  0  0  0  0  0  0  0  0  0
  142.1370   78.6980  222.1410 C   0  0  0  0  0  0  0  0  0  0  0  0
  142.3249   77.6150  222.1846 H   0  0  0  0  0  0  0  0  0  0  0  0
  142.5790   79.5240  223.1790 C   0  0  0  0  0  0  0  0  0  0  0  0
  143.1093   79.0885  224.0387 H   0  0  0  0  0  0  0  0  0  0  0  0
  142.3480   80.9060  223.1270 C   0  0  0  0  0  0  0  0  0  0  0  0
  142.6896   81.5522  223.9490 H   0  0  0  0  0  0  0  0  0  0  0  0
  141.6840   81.4620  222.0310 C   0  0  0  0  0  0  0  0  0  0  0  0
  141.4670   82.8000  221.9780 F   0  0  0  0  0  0  0  0  0  0  0  0
  141.2350   80.6380  220.9920 C   0  0  0  0  0  0  0  0  0  0  0  0
  140.7091   81.0784  220.1321 H   0  0  0  0  0  0  0  0  0  0  0  0
  138.6950   78.6590  222.8140 C   0  0  0  0  0  0  0  0  0  0  0  0
  139.3080   79.3840  223.8450 C   0  0  0  0  0  0  0  0  0  0  0  0
  140.0272   78.8856  224.5115 H   0  0  0  0  0  0  0  0  0  0  0  0
  139.0180   80.7020  224.0260 N   0  0  0  0  0  0  0  0  0  0  0  0
  138.1140   81.3520  223.2460 C   0  0  0  0  0  0  0  0  0  0  0  0
  137.9090   82.4194  223.4151 H   0  0  0  0  0  0  0  0  0  0  0  0
  137.4460   80.6660  222.2310 C   0  0  0  0  0  0  0  0  0  0  0  0
  136.7106   81.1865  221.5999 H   0  0  0  0  0  0  0  0  0  0  0  0
  137.7200   79.3120  222.0240 C   0  0  0  0  0  0  0  0  0  0  0  0
  137.1777   78.7536  221.2468 H   0  0  0  0  0  0  0  0  0  0  0  0
  1  2  1  0
  2  3  2  0
  3  4  1  0
  3  5  1  0
  5  6  2  0
  6  7  1  0
  7  8  2  0
  8  9  1  0
  8 10  1  0
 10 11  1  0
 10 12  2  0
 12 13  1  0
 12 14  1  0
 14 15  1  0
 14 16  2  0
 16 17  1  0
 17 18  2  0
 17 19  1  0
 19 20  1  0
 20 21  1  0
 20 22  1  0
 20 23  1  0
 23 24  2  0
 24 25  1  0
 24 26  1  0
 26 27  1  0
 26 28  2  0
 28 29  1  0
 28 30  1  0
 30 31  1  0
 30 32  2  0
 32 33  1  0
  2 34  1  0
 34 35  2  0
 35 36  1  0
 35 37  1  0
 37 38  2  0
 38 39  1  0
 38 40  1  0
 40 41  1  0
 40 42  2  0
 42 43  1  0
 19  5  1  0
 32 23  1  0
 42 34  1  0
 16  7  1  0
M  END
>  <UniqueID>  (10) 
255

>  <SMILES>  (10) 
O=c1c2cc(F)ccc2nc(/C=C/c2cccnc2)n1Cc1cccc(F)c1

>  <Energy>  (10) 
63.037306643374215

>  <Genealogy>  (10) 
O=c1c2cc(F)ccc2nc(/C=C/c2cccnc2)n1Cc1cccc(F)c1 (cis-trans isomerization)
O=c1c2cc(F)ccc2nc(/C=C/c2cccnc2)n1Cc1cccc(F)c1 (3D coordinates assigned)
O=c1c2cc(F)ccc2nc(/C=C/c2cccnc2)n1Cc1cccc(F)c1 (optimized conformer: 63.037306643374215 kcal/mol)

>  <smiles>  (10) 
O=c1c2cc(F)ccc2nc(/C=C/c2cccnc2)n1Cc1cccc(F)c1

>  <score_type>  (10) 
oracle

>  <origin>  (10) 
autodockgpu

>  <m_score__min__energy>  (10) 
-7.1900000000000004

>  <m_primary>  (10) 
energy

>  <meeko>  (10) 
{"free_energy": -6.25, "intermolecular_energy": -7.74, "internal_energy": -1.9, "cluster_size": 13, "cluster_id": 4, "rank_in_cluster": 11}

>  <energy>  (10) 
-6.33

>  <cluster_rmsd>  (10) 
1.95

>  <rmsd>  (10) 
269.13

>  <cluster>  (10) 
4

$$$$
KXOWNDOGMRUJAS-RMKNXTFCNA-N
     RDKit          3D

 43 46  0  0  0  0  0  0  0  0999 V2000
  141.3855   80.4108  219.0831 H   0  0  0  0  0  0  0  0  0  0  0  0
  141.1250   79.8390  219.9860 C   0  0  0  0  0  0  0  0  0  0  0  0
  140.3460   78.7570  219.8490 C   0  0  0  0  0  0  0  0  0  0  0  0
  139.3293   78.8620  219.4424 H   0  0  0  0  0  0  0  0  0  0  0  0
  140.8460   77.4270  220.2410 C   0  0  0  0  0  0  0  0  0  0  0  0
  142.0840   77.0580  219.8170 N   0  0  0  0  0  0  0  0  0  0  0  0
  142.6050   75.8410  220.1090 C   0  0  0  0  0  0  0  0  0  0  0  0
  143.8890   75.5020  219.6610 C   0  0  0  0  0  0  0  0  0  0  0  0
  144.4799   76.2288  219.0843 H   0  0  0  0  0  0  0  0  0  0  0  0
  144.4190   74.2400  219.9470 C   0  0  0  0  0  0  0  0  0  0  0  0
  145.4255   73.9733  219.5923 H   0  0  0  0  0  0  0  0  0  0  0  0
  143.6690   73.3150  220.6850 C   0  0  0  0  0  0  0  0  0  0  0  0
  144.1840   72.0910  220.9580 F   0  0  0  0  0  0  0  0  0  0  0  0
  142.3890   73.6500  221.1420 C   0  0  0  0  0  0  0  0  0  0  0  0
  141.8047   72.9218  221.7236 H   0  0  0  0  0  0  0  0  0  0  0  0
  141.8490   74.9200  220.8570 C   0  0  0  0  0  0  0  0  0  0  0  0
  140.5660   75.3040  221.2870 C   0  0  0  0  0  0  0  0  0  0  0  0
  139.8680   74.4860  221.9510 O   0  0  0  0  0  0  0  0  0  0  0  0
  140.0740   76.5540  220.9790 N   0  0  0  0  0  0  0  0  0  0  0  0
  138.6940   76.9310  221.3720 C   0  0  0  0  0  0  0  0  0  0  0  0
  138.1282   77.2144  220.4723 H   0  0  0  0  0  0  0  0  0  0  0  0
  138.2223   76.0696  221.8675 H   0  0  0  0  0  0  0  0  0  0  0  0
  138.7060   78.0940  222.3350 C   0  0  0  0  0  0  0  0  0  0  0  0
  139.8250   78.3170  223.1550 C   0  0  0  0  0  0  0  0  0  0  0  0
  140.6920   77.6427  223.0948 H   0  0  0  0  0  0  0  0  0  0  0  0
  139.8400   79.3930  224.0470 C   0  0  0  0  0  0  0  0  0  0  0  0
  140.7168   79.5601  224.6898 H   0  0  0  0  0  0  0  0  0  0  0  0
  138.7410   80.2600  224.1250 C   0  0  0  0  0  0  0  0  0  0  0  0
  138.7528   81.1011  224.8338 H   0  0  0  0  0  0  0  0  0  0  0  0
  137.6310   80.0550  223.3020 C   0  0  0  0  0  0  0  0  0  0  0  0
  136.5720   80.8990  223.3730 F   0  0  0  0  0  0  0  0  0  0  0  0
  137.6100   78.9770  222.4110 C   0  0  0  0  0  0  0  0  0  0  0  0
  136.7333   78.8175  221.7660 H   0  0  0  0  0  0  0  0  0  0  0  0
  141.6540   80.3060  221.2890 C   0  0  0  0  0  0  0  0  0  0  0  0
  141.2530   81.5600  221.7720 C   0  0  0  0  0  0  0  0  0  0  0  0
  140.5875   82.1924  221.1660 H   0  0  0  0  0  0  0  0  0  0  0  0
  141.6830   81.9990  222.9870 N   0  0  0  0  0  0  0  0  0  0  0  0
  142.5280   81.2640  223.7580 C   0  0  0  0  0  0  0  0  0  0  0  0
  142.8493   81.6452  224.7385 H   0  0  0  0  0  0  0  0  0  0  0  0
  142.9880   80.0260  223.3060 C   0  0  0  0  0  0  0  0  0  0  0  0
  143.6748   79.4294  223.9244 H   0  0  0  0  0  0  0  0  0  0  0  0
  142.5680   79.5520  222.0610 C   0  0  0  0  0  0  0  0  0  0  0  0
  142.9482   78.5923  221.6811 H   0  0  0  0  0  0  0  0  0  0  0  0
  1  2  1  0
  2  3  2  0
  3  4  1  0
  3  5  1  0
  5  6  2  0
  6  7  1  0
  7  8  2  0
  8  9  1  0
  8 10  1  0
 10 11  1  0
 10 12  2  0
 12 13  1  0
 12 14  1  0
 14 15  1  0
 14 16  2  0
 16 17  1  0
 17 18  2  0
 17 19  1  0
 19 20  1  0
 20 21  1  0
 20 22  1  0
 20 23  1  0
 23 24  2  0
 24 25  1  0
 24 26  1  0
 26 27  1  0
 26 28  2  0
 28 29  1  0
 28 30  1  0
 30 31  1  0
 30 32  2  0
 32 33  1  0
  2 34  1  0
 34 35  2  0
 35 36  1  0
 35 37  1  0
 37 38  2  0
 38 39  1  0
 38 40  1  0
 40 41  1  0
 40 42  2  0
 42 43  1  0
 19  5  1  0
 32 23  1  0
 42 34  1  0
 16  7  1  0
M  END
>  <UniqueID>  (11) 
255

>  <SMILES>  (11) 
O=c1c2cc(F)ccc2nc(/C=C/c2cccnc2)n1Cc1cccc(F)c1

>  <Energy>  (11) 
63.037306643374215

>  <Genealogy>  (11) 
O=c1c2cc(F)ccc2nc(/C=C/c2cccnc2)n1Cc1cccc(F)c1 (cis-trans isomerization)
O=c1c2cc(F)ccc2nc(/C=C/c2cccnc2)n1Cc1cccc(F)c1 (3D coordinates assigned)
O=c1c2cc(F)ccc2nc(/C=C/c2cccnc2)n1Cc1cccc(F)c1 (optimized conformer: 63.037306643374215 kcal/mol)

>  <smiles>  (11) 
O=c1c2cc(F)ccc2nc(/C=C/c2cccnc2)n1Cc1cccc(F)c1

>  <score_type>  (11) 
oracle

>  <origin>  (11) 
autodockgpu

>  <m_score__min__energy>  (11) 
-7.1900000000000004

>  <m_primary>  (11) 
energy

>  <meeko>  (11) 
{"free_energy": -6.42, "intermolecular_energy": -7.92, "internal_energy": -1.75, "cluster_size": 13, "cluster_id": 4, "rank_in_cluster": 1}

>  <energy>  (11) 
-6.33

>  <cluster_rmsd>  (11) 
1.95

>  <rmsd>  (11) 
269.14

>  <cluster>  (11) 
4

$$$$
KXOWNDOGMRUJAS-RMKNXTFCNA-N
     RDKit          3D

 43 46  0  0  0  0  0  0  0  0999 V2000
  139.3011   76.6043  223.5506 H   0  0  0  0  0  0  0  0  0  0  0  0
  139.0870   77.2030  222.6530 C   0  0  0  0  0  0  0  0  0  0  0  0
  139.1650   76.6030  221.4570 C   0  0  0  0  0  0  0  0  0  0  0  0
  138.2587   76.4816  220.8455 H   0  0  0  0  0  0  0  0  0  0  0  0
  140.4590   76.1050  220.9570 C   0  0  0  0  0  0  0  0  0  0  0  0
  140.8180   74.8310  221.2710 N   0  0  0  0  0  0  0  0  0  0  0  0
  142.0030   74.3070  220.8770 C   0  0  0  0  0  0  0  0  0  0  0  0
  142.3330   72.9860  221.2130 C   0  0  0  0  0  0  0  0  0  0  0  0
  141.6232   72.3705  221.7851 H   0  0  0  0  0  0  0  0  0  0  0  0
  143.5640   72.4510  220.8210 C   0  0  0  0  0  0  0  0  0  0  0  0
  143.8236   71.4160  221.0884 H   0  0  0  0  0  0  0  0  0  0  0  0
  144.4670   73.2320  220.0880 C   0  0  0  0  0  0  0  0  0  0  0  0
  145.6610   72.7110  219.7130 F   0  0  0  0  0  0  0  0  0  0  0  0
  144.1420   74.5480  219.7430 C   0  0  0  0  0  0  0  0  0  0  0  0
  144.8534   75.1569  219.1657 H   0  0  0  0  0  0  0  0  0  0  0  0
  142.9030   75.0940  220.1350 C   0  0  0  0  0  0  0  0  0  0  0  0
  142.5290   76.4130  219.8190 C   0  0  0  0  0  0  0  0  0  0  0  0
  143.3290   77.1390  219.1630 O   0  0  0  0  0  0  0  0  0  0  0  0
  141.3110   76.9090  220.2300 N   0  0  0  0  0  0  0  0  0  0  0  0
  140.9490   78.3220  219.9570 C   0  0  0  0  0  0  0  0  0  0  0  0
  141.4118   78.6358  219.0097 H   0  0  0  0  0  0  0  0  0  0  0  0
  139.8535   78.3980  219.8932 H   0  0  0  0  0  0  0  0  0  0  0  0
  141.4310   79.2250  221.0650 C   0  0  0  0  0  0  0  0  0  0  0  0
  142.1210   78.6870  222.1640 C   0  0  0  0  0  0  0  0  0  0  0  0
  142.3088   77.6044  222.2159 H   0  0  0  0  0  0  0  0  0  0  0  0
  142.5700   79.5210  223.1920 C   0  0  0  0  0  0  0  0  0  0  0  0
  143.1047   79.0919  224.0522 H   0  0  0  0  0  0  0  0  0  0  0  0
  142.3410   80.9020  223.1300 C   0  0  0  0  0  0  0  0  0  0  0  0
  142.6891   81.5549  223.9440 H   0  0  0  0  0  0  0  0  0  0  0  0
  141.6700   81.4490  222.0330 C   0  0  0  0  0  0  0  0  0  0  0  0
  141.4540   82.7870  221.9710 F   0  0  0  0  0  0  0  0  0  0  0  0
  141.2140   80.6170  221.0050 C   0  0  0  0  0  0  0  0  0  0  0  0
  140.6831   81.0511  220.1449 H   0  0  0  0  0  0  0  0  0  0  0  0
  138.7280   78.6290  222.8310 C   0  0  0  0  0  0  0  0  0  0  0  0
  137.8660   79.2310  221.9040 C   0  0  0  0  0  0  0  0  0  0  0  0
  137.5002   78.6538  221.0420 H   0  0  0  0  0  0  0  0  0  0  0  0
  137.4790   80.5270  222.0650 N   0  0  0  0  0  0  0  0  0  0  0  0
  137.9280   81.2870  223.0990 C   0  0  0  0  0  0  0  0  0  0  0  0
  137.5887   82.3281  223.2040 H   0  0  0  0  0  0  0  0  0  0  0  0
  138.8190   80.7470  224.0270 C   0  0  0  0  0  0  0  0  0  0  0  0
  139.1886   81.3592  224.8628 H   0  0  0  0  0  0  0  0  0  0  0  0
  139.2370   79.4230  223.8850 C   0  0  0  0  0  0  0  0  0  0  0  0
  139.9627   78.9967  224.5932 H   0  0  0  0  0  0  0  0  0  0  0  0
  1  2  1  0
  2  3  2  0
  3  4  1  0
  3  5  1  0
  5  6  2  0
  6  7  1  0
  7  8  2  0
  8  9  1  0
  8 10  1  0
 10 11  1  0
 10 12  2  0
 12 13  1  0
 12 14  1  0
 14 15  1  0
 14 16  2  0
 16 17  1  0
 17 18  2  0
 17 19  1  0
 19 20  1  0
 20 21  1  0
 20 22  1  0
 20 23  1  0
 23 24  2  0
 24 25  1  0
 24 26  1  0
 26 27  1  0
 26 28  2  0
 28 29  1  0
 28 30  1  0
 30 31  1  0
 30 32  2  0
 32 33  1  0
  2 34  1  0
 34 35  2  0
 35 36  1  0
 35 37  1  0
 37 38  2  0
 38 39  1  0
 38 40  1  0
 40 41  1  0
 40 42  2  0
 42 43  1  0
 19  5  1  0
 32 23  1  0
 42 34  1  0
 16  7  1  0
M  END
>  <UniqueID>  (12) 
255

>  <SMILES>  (12) 
O=c1c2cc(F)ccc2nc(/C=C/c2cccnc2)n1Cc1cccc(F)c1

>  <Energy>  (12) 
63.037306643374215

>  <Genealogy>  (12) 
O=c1c2cc(F)ccc2nc(/C=C/c2cccnc2)n1Cc1cccc(F)c1 (cis-trans isomerization)
O=c1c2cc(F)ccc2nc(/C=C/c2cccnc2)n1Cc1cccc(F)c1 (3D coordinates assigned)
O=c1c2cc(F)ccc2nc(/C=C/c2cccnc2)n1Cc1cccc(F)c1 (optimized conformer: 63.037306643374215 kcal/mol)

>  <smiles>  (12) 
O=c1c2cc(F)ccc2nc(/C=C/c2cccnc2)n1Cc1cccc(F)c1

>  <score_type>  (12) 
oracle

>  <origin>  (12) 
autodockgpu

>  <m_score__min__energy>  (12) 
-7.1900000000000004

>  <m_primary>  (12) 
energy

>  <meeko>  (12) 
{"free_energy": -6.33, "intermolecular_energy": -7.83, "internal_energy": -1.9, "cluster_size": 13, "cluster_id": 4, "rank_in_cluster": 3}

>  <energy>  (12) 
-6.33

>  <cluster_rmsd>  (12) 
1.95

>  <rmsd>  (12) 
269.12

>  <cluster>  (12) 
4

$$$$
KXOWNDOGMRUJAS-RMKNXTFCNA-N
     RDKit          3D

 43 46  0  0  0  0  0  0  0  0999 V2000
  139.3446   76.6705  223.5488 H   0  0  0  0  0  0  0  0  0  0  0  0
  139.0960   77.2660  222.6580 C   0  0  0  0  0  0  0  0  0  0  0  0
  139.1650   76.6720  221.4580 C   0  0  0  0  0  0  0  0  0  0  0  0
  138.2576   76.5701  220.8446 H   0  0  0  0  0  0  0  0  0  0  0  0
  140.4510   76.1550  220.9570 C   0  0  0  0  0  0  0  0  0  0  0  0
  140.7940   74.8780  221.2740 N   0  0  0  0  0  0  0  0  0  0  0  0
  141.9720   74.3370  220.8780 C   0  0  0  0  0  0  0  0  0  0  0  0
  142.2850   73.0130  221.2170 C   0  0  0  0  0  0  0  0  0  0  0  0
  141.5682   72.4088  221.7924 H   0  0  0  0  0  0  0  0  0  0  0  0
  143.5080   72.4600  220.8240 C   0  0  0  0  0  0  0  0  0  0  0  0
  143.7542   71.4223  221.0933 H   0  0  0  0  0  0  0  0  0  0  0  0
  144.4200   73.2280  220.0870 C   0  0  0  0  0  0  0  0  0  0  0  0
  145.6050   72.6910  219.7100 F   0  0  0  0  0  0  0  0  0  0  0  0
  144.1110   74.5470  219.7390 C   0  0  0  0  0  0  0  0  0  0  0  0
  144.8289   75.1447  219.1582 H   0  0  0  0  0  0  0  0  0  0  0  0
  142.8800   75.1110  220.1320 C   0  0  0  0  0  0  0  0  0  0  0  0
  142.5230   76.4340  219.8130 C   0  0  0  0  0  0  0  0  0  0  0  0
  143.3310   77.1470  219.1540 O   0  0  0  0  0  0  0  0  0  0  0  0
  141.3120   76.9460  220.2260 N   0  0  0  0  0  0  0  0  0  0  0  0
  140.9680   78.3630  219.9500 C   0  0  0  0  0  0  0  0  0  0  0  0
  141.4495   78.6741  219.0112 H   0  0  0  0  0  0  0  0  0  0  0  0
  139.8744   78.4494  219.8683 H   0  0  0  0  0  0  0  0  0  0  0  0
  141.4400   79.2600  221.0680 C   0  0  0  0  0  0  0  0  0  0  0  0
  142.1280   78.7160  222.1660 C   0  0  0  0  0  0  0  0  0  0  0  0
  142.3218   77.6341  222.2092 H   0  0  0  0  0  0  0  0  0  0  0  0
  142.5670   79.5430  223.2030 C   0  0  0  0  0  0  0  0  0  0  0  0
  143.0992   79.1094  224.0625 H   0  0  0  0  0  0  0  0  0  0  0  0
  142.3310   80.9240  223.1510 C   0  0  0  0  0  0  0  0  0  0  0  0
  142.6723   81.5719  223.9718 H   0  0  0  0  0  0  0  0  0  0  0  0
  141.6620   81.4770  222.0560 C   0  0  0  0  0  0  0  0  0  0  0  0
  141.4390   82.8140  222.0040 F   0  0  0  0  0  0  0  0  0  0  0  0
  141.2160   80.6510  221.0180 C   0  0  0  0  0  0  0  0  0  0  0  0
  140.6878   81.0895  220.1585 H   0  0  0  0  0  0  0  0  0  0  0  0
  138.7030   78.6810  222.8480 C   0  0  0  0  0  0  0  0  0  0  0  0
  139.2830   79.4100  223.8960 C   0  0  0  0  0  0  0  0  0  0  0  0
  139.9875   78.9161  224.5814 H   0  0  0  0  0  0  0  0  0  0  0  0
  138.9790   80.7260  224.0700 N   0  0  0  0  0  0  0  0  0  0  0  0
  138.0910   81.3700  223.2650 C   0  0  0  0  0  0  0  0  0  0  0  0
  137.8735   82.4358  223.4288 H   0  0  0  0  0  0  0  0  0  0  0  0
  137.4560   80.6800  222.2320 C   0  0  0  0  0  0  0  0  0  0  0  0
  136.7349   81.1956  221.5807 H   0  0  0  0  0  0  0  0  0  0  0  0
  137.7450   79.3280  222.0330 C   0  0  0  0  0  0  0  0  0  0  0  0
  137.2271   78.7660  221.2418 H   0  0  0  0  0  0  0  0  0  0  0  0
  1  2  1  0
  2  3  2  0
  3  4  1  0
  3  5  1  0
  5  6  2  0
  6  7  1  0
  7  8  2  0
  8  9  1  0
  8 10  1  0
 10 11  1  0
 10 12  2  0
 12 13  1  0
 12 14  1  0
 14 15  1  0
 14 16  2  0
 16 17  1  0
 17 18  2  0
 17 19  1  0
 19 20  1  0
 20 21  1  0
 20 22  1  0
 20 23  1  0
 23 24  2  0
 24 25  1  0
 24 26  1  0
 26 27  1  0
 26 28  2  0
 28 29  1  0
 28 30  1  0
 30 31  1  0
 30 32  2  0
 32 33  1  0
  2 34  1  0
 34 35  2  0
 35 36  1  0
 35 37  1  0
 37 38  2  0
 38 39  1  0
 38 40  1  0
 40 41  1  0
 40 42  2  0
 42 43  1  0
 19  5  1  0
 32 23  1  0
 42 34  1  0
 16  7  1  0
M  END
>  <UniqueID>  (13) 
255

>  <SMILES>  (13) 
O=c1c2cc(F)ccc2nc(/C=C/c2cccnc2)n1Cc1cccc(F)c1

>  <Energy>  (13) 
63.037306643374215

>  <Genealogy>  (13) 
O=c1c2cc(F)ccc2nc(/C=C/c2cccnc2)n1Cc1cccc(F)c1 (cis-trans isomerization)
O=c1c2cc(F)ccc2nc(/C=C/c2cccnc2)n1Cc1cccc(F)c1 (3D coordinates assigned)
O=c1c2cc(F)ccc2nc(/C=C/c2cccnc2)n1Cc1cccc(F)c1 (optimized conformer: 63.037306643374215 kcal/mol)

>  <smiles>  (13) 
O=c1c2cc(F)ccc2nc(/C=C/c2cccnc2)n1Cc1cccc(F)c1

>  <score_type>  (13) 
oracle

>  <origin>  (13) 
autodockgpu

>  <m_score__min__energy>  (13) 
-7.1900000000000004

>  <m_primary>  (13) 
energy

>  <meeko>  (13) 
{"free_energy": -6.25, "intermolecular_energy": -7.74, "internal_energy": -1.9, "cluster_size": 13, "cluster_id": 4, "rank_in_cluster": 12}

>  <energy>  (13) 
-6.33

>  <cluster_rmsd>  (13) 
1.94

>  <rmsd>  (13) 
269.13

>  <cluster>  (13) 
4

$$$$
KXOWNDOGMRUJAS-RMKNXTFCNA-N
     RDKit          3D

 43 46  0  0  0  0  0  0  0  0999 V2000
  143.6014   75.9454  218.0573 H   0  0  0  0  0  0  0  0  0  0  0  0
  143.5550   75.6040  219.1020 C   0  0  0  0  0  0  0  0  0  0  0  0
  142.6860   76.2030  219.9270 C   0  0  0  0  0  0  0  0  0  0  0  0
  142.7627   77.2848  220.1111 H   0  0  0  0  0  0  0  0  0  0  0  0
  141.6280   75.4200  220.5890 C   0  0  0  0  0  0  0  0  0  0  0  0
  141.8430   74.0910  220.7860 N   0  0  0  0  0  0  0  0  0  0  0  0
  140.9100   73.2940  221.3600 C   0  0  0  0  0  0  0  0  0  0  0  0
  141.1740   71.9310  221.5530 C   0  0  0  0  0  0  0  0  0  0  0  0
  142.1448   71.5110  221.2511 H   0  0  0  0  0  0  0  0  0  0  0  0
  140.2040   71.1050  222.1290 C   0  0  0  0  0  0  0  0  0  0  0  0
  140.4110   70.0349  222.2777 H   0  0  0  0  0  0  0  0  0  0  0  0
  138.9680   71.6400  222.5170 C   0  0  0  0  0  0  0  0  0  0  0  0
  138.0290   70.8360  223.0720 F   0  0  0  0  0  0  0  0  0  0  0  0
  138.7010   73.0010  222.3340 C   0  0  0  0  0  0  0  0  0  0  0  0
  137.7308   73.4172  222.6431 H   0  0  0  0  0  0  0  0  0  0  0  0
  139.6740   73.8390  221.7540 C   0  0  0  0  0  0  0  0  0  0  0  0
  139.4530   75.2120  221.5430 C   0  0  0  0  0  0  0  0  0  0  0  0
  138.3450   75.7170  221.8800 O   0  0  0  0  0  0  0  0  0  0  0  0
  140.4300   75.9930  220.9640 N   0  0  0  0  0  0  0  0  0  0  0  0
  140.1690   77.4250  220.6770 C   0  0  0  0  0  0  0  0  0  0  0  0
  140.5477   77.6658  219.6727 H   0  0  0  0  0  0  0  0  0  0  0  0
  139.0848   77.6023  220.7316 H   0  0  0  0  0  0  0  0  0  0  0  0
  140.8540   78.3110  221.6890 C   0  0  0  0  0  0  0  0  0  0  0  0
  141.1400   77.8220  222.9740 C   0  0  0  0  0  0  0  0  0  0  0  0
  140.8635   76.7917  223.2422 H   0  0  0  0  0  0  0  0  0  0  0  0
  141.7750   78.6400  223.9140 C   0  0  0  0  0  0  0  0  0  0  0  0
  141.9924   78.2527  224.9204 H   0  0  0  0  0  0  0  0  0  0  0  0
  142.1350   79.9520  223.5770 C   0  0  0  0  0  0  0  0  0  0  0  0
  142.6275   80.5957  224.3207 H   0  0  0  0  0  0  0  0  0  0  0  0
  141.8680   80.4420  222.2960 C   0  0  0  0  0  0  0  0  0  0  0  0
  142.2240   81.7100  221.9690 F   0  0  0  0  0  0  0  0  0  0  0  0
  141.2290   79.6280  221.3540 C   0  0  0  0  0  0  0  0  0  0  0  0
  141.0183   80.0177  220.3472 H   0  0  0  0  0  0  0  0  0  0  0  0
  144.4570   74.5060  219.5220 C   0  0  0  0  0  0  0  0  0  0  0  0
  144.7940   73.5140  218.5910 C   0  0  0  0  0  0  0  0  0  0  0  0
  144.3585   73.5407  217.5812 H   0  0  0  0  0  0  0  0  0  0  0  0
  145.6580   72.5170  218.9300 N   0  0  0  0  0  0  0  0  0  0  0  0
  146.1960   72.4270  220.1760 C   0  0  0  0  0  0  0  0  0  0  0  0
  146.8952   71.6121  220.4150 H   0  0  0  0  0  0  0  0  0  0  0  0
  145.8620   73.3670  221.1510 C   0  0  0  0  0  0  0  0  0  0  0  0
  146.2934   73.2968  222.1604 H   0  0  0  0  0  0  0  0  0  0  0  0
  144.9750   74.3980  220.8340 C   0  0  0  0  0  0  0  0  0  0  0  0
  144.6793   75.1257  221.6040 H   0  0  0  0  0  0  0  0  0  0  0  0
  1  2  1  0
  2  3  2  0
  3  4  1  0
  3  5  1  0
  5  6  2  0
  6  7  1  0
  7  8  2  0
  8  9  1  0
  8 10  1  0
 10 11  1  0
 10 12  2  0
 12 13  1  0
 12 14  1  0
 14 15  1  0
 14 16  2  0
 16 17  1  0
 17 18  2  0
 17 19  1  0
 19 20  1  0
 20 21  1  0
 20 22  1  0
 20 23  1  0
 23 24  2  0
 24 25  1  0
 24 26  1  0
 26 27  1  0
 26 28  2  0
 28 29  1  0
 28 30  1  0
 30 31  1  0
 30 32  2  0
 32 33  1  0
  2 34  1  0
 34 35  2  0
 35 36  1  0
 35 37  1  0
 37 38  2  0
 38 39  1  0
 38 40  1  0
 40 41  1  0
 40 42  2  0
 42 43  1  0
 19  5  1  0
 32 23  1  0
 42 34  1  0
 16  7  1  0
M  END
>  <UniqueID>  (14) 
255

>  <SMILES>  (14) 
O=c1c2cc(F)ccc2nc(/C=C/c2cccnc2)n1Cc1cccc(F)c1

>  <Energy>  (14) 
63.037306643374215

>  <Genealogy>  (14) 
O=c1c2cc(F)ccc2nc(/C=C/c2cccnc2)n1Cc1cccc(F)c1 (cis-trans isomerization)
O=c1c2cc(F)ccc2nc(/C=C/c2cccnc2)n1Cc1cccc(F)c1 (3D coordinates assigned)
O=c1c2cc(F)ccc2nc(/C=C/c2cccnc2)n1Cc1cccc(F)c1 (optimized conformer: 63.037306643374215 kcal/mol)

>  <smiles>  (14) 
O=c1c2cc(F)ccc2nc(/C=C/c2cccnc2)n1Cc1cccc(F)c1

>  <score_type>  (14) 
oracle

>  <origin>  (14) 
autodockgpu

>  <m_score__min__energy>  (14) 
-7.1900000000000004

>  <m_primary>  (14) 
energy

>  <meeko>  (14) 
{"free_energy": -7.01, "intermolecular_energy": -8.5, "internal_energy": -1.27, "cluster_size": 3, "cluster_id": 2, "rank_in_cluster": 3}

>  <energy>  (14) 
-6.33

>  <cluster_rmsd>  (14) 
1.96

>  <rmsd>  (14) 
269.14

>  <cluster>  (14) 
4

$$$$
KXOWNDOGMRUJAS-RMKNXTFCNA-N
     RDKit          3D

 43 46  0  0  0  0  0  0  0  0999 V2000
  140.2036   77.0051  220.0645 H   0  0  0  0  0  0  0  0  0  0  0  0
  140.5580   76.8300  221.0910 C   0  0  0  0  0  0  0  0  0  0  0  0
  140.4090   75.6050  221.6130 C   0  0  0  0  0  0  0  0  0  0  0  0
  139.5801   75.4025  222.3072 H   0  0  0  0  0  0  0  0  0  0  0  0
  141.3510   74.5280  221.2610 C   0  0  0  0  0  0  0  0  0  0  0  0
  142.6080   74.8770  220.8750 N   0  0  0  0  0  0  0  0  0  0  0  0
  143.5240   73.9500  220.5070 C   0  0  0  0  0  0  0  0  0  0  0  0
  144.8120   74.3490  220.1240 C   0  0  0  0  0  0  0  0  0  0  0  0
  145.0829   75.4151  220.1358 H   0  0  0  0  0  0  0  0  0  0  0  0
  145.7530   73.3940  219.7270 C   0  0  0  0  0  0  0  0  0  0  0  0
  146.7625   73.7091  219.4242 H   0  0  0  0  0  0  0  0  0  0  0  0
  145.4100   72.0360  219.7150 C   0  0  0  0  0  0  0  0  0  0  0  0
  146.3220   71.1120  219.3260 F   0  0  0  0  0  0  0  0  0  0  0  0
  144.1290   71.6290  220.1030 C   0  0  0  0  0  0  0  0  0  0  0  0
  143.8657   70.5610  220.0950 H   0  0  0  0  0  0  0  0  0  0  0  0
  143.1760   72.5860  220.5040 C   0  0  0  0  0  0  0  0  0  0  0  0
  141.8730   72.2310  220.8980 C   0  0  0  0  0  0  0  0  0  0  0  0
  141.5390   71.0130  220.8910 O   0  0  0  0  0  0  0  0  0  0  0  0
  140.9710   73.2020  221.2750 N   0  0  0  0  0  0  0  0  0  0  0  0
  139.5760   72.8320  221.6210 C   0  0  0  0  0  0  0  0  0  0  0  0
  138.9995   73.7475  221.8198 H   0  0  0  0  0  0  0  0  0  0  0  0
  139.1397   72.2786  220.7764 H   0  0  0  0  0  0  0  0  0  0  0  0
  139.5400   71.9500  222.8450 C   0  0  0  0  0  0  0  0  0  0  0  0
  138.4340   71.1170  223.0810 C   0  0  0  0  0  0  0  0  0  0  0  0
  137.5932   71.1083  222.3718 H   0  0  0  0  0  0  0  0  0  0  0  0
  138.3980   70.2990  224.2140 C   0  0  0  0  0  0  0  0  0  0  0  0
  137.5264   69.6531  224.3963 H   0  0  0  0  0  0  0  0  0  0  0  0
  139.4680   70.2990  225.1180 C   0  0  0  0  0  0  0  0  0  0  0  0
  139.4330   69.6595  226.0123 H   0  0  0  0  0  0  0  0  0  0  0  0
  140.5800   71.1120  224.8830 C   0  0  0  0  0  0  0  0  0  0  0  0
  141.6180   71.1070  225.7560 F   0  0  0  0  0  0  0  0  0  0  0  0
  140.6180   71.9370  223.7540 C   0  0  0  0  0  0  0  0  0  0  0  0
  141.4931   72.5788  223.5744 H   0  0  0  0  0  0  0  0  0  0  0  0
  141.1750   77.9620  221.8230 C   0  0  0  0  0  0  0  0  0  0  0  0
  141.6590   79.0560  221.0930 C   0  0  0  0  0  0  0  0  0  0  0  0
  141.6106   79.0449  219.9941 H   0  0  0  0  0  0  0  0  0  0  0  0
  142.1890   80.1330  221.7370 N   0  0  0  0  0  0  0  0  0  0  0  0
  142.2950   80.1780  223.0920 C   0  0  0  0  0  0  0  0  0  0  0  0
  142.7216   81.0664  223.5807 H   0  0  0  0  0  0  0  0  0  0  0  0
  141.8630   79.0980  223.8630 C   0  0  0  0  0  0  0  0  0  0  0  0
  141.9492   79.1284  224.9592 H   0  0  0  0  0  0  0  0  0  0  0  0
  141.3200   77.9780  223.2290 C   0  0  0  0  0  0  0  0  0  0  0  0
  141.0051   77.1081  223.8241 H   0  0  0  0  0  0  0  0  0  0  0  0
  1  2  1  0
  2  3  2  0
  3  4  1  0
  3  5  1  0
  5  6  2  0
  6  7  1  0
  7  8  2  0
  8  9  1  0
  8 10  1  0
 10 11  1  0
 10 12  2  0
 12 13  1  0
 12 14  1  0
 14 15  1  0
 14 16  2  0
 16 17  1  0
 17 18  2  0
 17 19  1  0
 19 20  1  0
 20 21  1  0
 20 22  1  0
 20 23  1  0
 23 24  2  0
 24 25  1  0
 24 26  1  0
 26 27  1  0
 26 28  2  0
 28 29  1  0
 28 30  1  0
 30 31  1  0
 30 32  2  0
 32 33  1  0
  2 34  1  0
 34 35  2  0
 35 36  1  0
 35 37  1  0
 37 38  2  0
 38 39  1  0
 38 40  1  0
 40 41  1  0
 40 42  2  0
 42 43  1  0
 19  5  1  0
 32 23  1  0
 42 34  1  0
 16  7  1  0
M  END
>  <UniqueID>  (15) 
255

>  <SMILES>  (15) 
O=c1c2cc(F)ccc2nc(/C=C/c2cccnc2)n1Cc1cccc(F)c1

>  <Energy>  (15) 
63.037306643374215

>  <Genealogy>  (15) 
O=c1c2cc(F)ccc2nc(/C=C/c2cccnc2)n1Cc1cccc(F)c1 (cis-trans isomerization)
O=c1c2cc(F)ccc2nc(/C=C/c2cccnc2)n1Cc1cccc(F)c1 (3D coordinates assigned)
O=c1c2cc(F)ccc2nc(/C=C/c2cccnc2)n1Cc1cccc(F)c1 (optimized conformer: 63.037306643374215 kcal/mol)

>  <smiles>  (15) 
O=c1c2cc(F)ccc2nc(/C=C/c2cccnc2)n1Cc1cccc(F)c1

>  <score_type>  (15) 
oracle

>  <origin>  (15) 
autodockgpu

>  <m_score__min__energy>  (15) 
-7.1900000000000004

>  <m_primary>  (15) 
energy

>  <meeko>  (15) 
{"free_energy": -7.03, "intermolecular_energy": -8.52, "internal_energy": -1.01, "cluster_size": 3, "cluster_id": 3, "rank_in_cluster": 1}

>  <energy>  (15) 
-6.32

>  <cluster_rmsd>  (15) 
1.94

>  <rmsd>  (15) 
269.12

>  <cluster>  (15) 
4

$$$$
KXOWNDOGMRUJAS-RMKNXTFCNA-N
     RDKit          3D

 43 46  0  0  0  0  0  0  0  0999 V2000
  139.3379   76.5511  223.4943 H   0  0  0  0  0  0  0  0  0  0  0  0
  139.0850   77.2080  222.6490 C   0  0  0  0  0  0  0  0  0  0  0  0
  139.1850   76.7120  221.4080 C   0  0  0  0  0  0  0  0  0  0  0  0
  138.3038   76.7012  220.7496 H   0  0  0  0  0  0  0  0  0  0  0  0
  140.4710   76.1810  220.9220 C   0  0  0  0  0  0  0  0  0  0  0  0
  140.8010   74.9030  221.2520 N   0  0  0  0  0  0  0  0  0  0  0  0
  141.9770   74.3490  220.8690 C   0  0  0  0  0  0  0  0  0  0  0  0
  142.2770   73.0260  221.2210 C   0  0  0  0  0  0  0  0  0  0  0  0
  141.5511   72.4323  221.7960 H   0  0  0  0  0  0  0  0  0  0  0  0
  143.4980   72.4600  220.8420 C   0  0  0  0  0  0  0  0  0  0  0  0
  143.7332   71.4223  221.1210 H   0  0  0  0  0  0  0  0  0  0  0  0
  144.4220   73.2140  220.1070 C   0  0  0  0  0  0  0  0  0  0  0  0
  145.6060   72.6640  219.7430 F   0  0  0  0  0  0  0  0  0  0  0  0
  144.1260   74.5330  219.7450 C   0  0  0  0  0  0  0  0  0  0  0  0
  144.8528   75.1202  219.1645 H   0  0  0  0  0  0  0  0  0  0  0  0
  142.8970   75.1090  220.1240 C   0  0  0  0  0  0  0  0  0  0  0  0
  142.5540   76.4330  219.7920 C   0  0  0  0  0  0  0  0  0  0  0  0
  143.3730   77.1340  219.1330 O   0  0  0  0  0  0  0  0  0  0  0  0
  141.3440   76.9580  220.1900 N   0  0  0  0  0  0  0  0  0  0  0  0
  141.0140   78.3760  219.9010 C   0  0  0  0  0  0  0  0  0  0  0  0
  141.5182   78.6807  218.9721 H   0  0  0  0  0  0  0  0  0  0  0  0
  139.9230   78.4676  219.7947 H   0  0  0  0  0  0  0  0  0  0  0  0
  141.4650   79.2750  221.0250 C   0  0  0  0  0  0  0  0  0  0  0  0
  142.1550   78.7380  222.1240 C   0  0  0  0  0  0  0  0  0  0  0  0
  142.3652   77.6590  222.1642 H   0  0  0  0  0  0  0  0  0  0  0  0
  142.5760   79.5680  223.1670 C   0  0  0  0  0  0  0  0  0  0  0  0
  143.1116   79.1399  224.0272 H   0  0  0  0  0  0  0  0  0  0  0  0
  142.3170   80.9450  223.1190 C   0  0  0  0  0  0  0  0  0  0  0  0
  142.6419   81.5952  223.9447 H   0  0  0  0  0  0  0  0  0  0  0  0
  141.6460   81.4910  222.0220 C   0  0  0  0  0  0  0  0  0  0  0  0
  141.4020   82.8250  221.9740 F   0  0  0  0  0  0  0  0  0  0  0  0
  141.2190   80.6630  220.9790 C   0  0  0  0  0  0  0  0  0  0  0  0
  140.6886   81.0965  220.1184 H   0  0  0  0  0  0  0  0  0  0  0  0
  138.6520   78.5940  222.9430 C   0  0  0  0  0  0  0  0  0  0  0  0
  137.5490   79.1190  222.2550 C   0  0  0  0  0  0  0  0  0  0  0  0
  137.0470   78.5157  221.4843 H   0  0  0  0  0  0  0  0  0  0  0  0
  137.0960   80.3720  222.5360 N   0  0  0  0  0  0  0  0  0  0  0  0
  137.7040   81.1650  223.4590 C   0  0  0  0  0  0  0  0  0  0  0  0
  137.3081   82.1703  223.6656 H   0  0  0  0  0  0  0  0  0  0  0  0
  138.8290   80.7050  224.1440 C   0  0  0  0  0  0  0  0  0  0  0  0
  139.3251   81.3435  224.8898 H   0  0  0  0  0  0  0  0  0  0  0  0
  139.3190   79.4250  223.8730 C   0  0  0  0  0  0  0  0  0  0  0  0
  140.2240   79.0634  224.3832 H   0  0  0  0  0  0  0  0  0  0  0  0
  1  2  1  0
  2  3  2  0
  3  4  1  0
  3  5  1  0
  5  6  2  0
  6  7  1  0
  7  8  2  0
  8  9  1  0
  8 10  1  0
 10 11  1  0
 10 12  2  0
 12 13  1  0
 12 14  1  0
 14 15  1  0
 14 16  2  0
 16 17  1  0
 17 18  2  0
 17 19  1  0
 19 20  1  0
 20 21  1  0
 20 22  1  0
 20 23  1  0
 23 24  2  0
 24 25  1  0
 24 26  1  0
 26 27  1  0
 26 28  2  0
 28 29  1  0
 28 30  1  0
 30 31  1  0
 30 32  2  0
 32 33  1  0
  2 34  1  0
 34 35  2  0
 35 36  1  0
 35 37  1  0
 37 38  2  0
 38 39  1  0
 38 40  1  0
 40 41  1  0
 40 42  2  0
 42 43  1  0
 19  5  1  0
 32 23  1  0
 42 34  1  0
 16  7  1  0
M  END
>  <UniqueID>  (16) 
255

>  <SMILES>  (16) 
O=c1c2cc(F)ccc2nc(/C=C/c2cccnc2)n1Cc1cccc(F)c1

>  <Energy>  (16) 
63.037306643374215

>  <Genealogy>  (16) 
O=c1c2cc(F)ccc2nc(/C=C/c2cccnc2)n1Cc1cccc(F)c1 (cis-trans isomerization)
O=c1c2cc(F)ccc2nc(/C=C/c2cccnc2)n1Cc1cccc(F)c1 (3D coordinates assigned)
O=c1c2cc(F)ccc2nc(/C=C/c2cccnc2)n1Cc1cccc(F)c1 (optimized conformer: 63.037306643374215 kcal/mol)

>  <smiles>  (16) 
O=c1c2cc(F)ccc2nc(/C=C/c2cccnc2)n1Cc1cccc(F)c1

>  <score_type>  (16) 
oracle

>  <origin>  (16) 
autodockgpu

>  <m_score__min__energy>  (16) 
-7.1900000000000004

>  <m_primary>  (16) 
energy

>  <meeko>  (16) 
{"free_energy": -6.38, "intermolecular_energy": -7.87, "internal_energy": -1.83, "cluster_size": 13, "cluster_id": 4, "rank_in_cluster": 2}

>  <energy>  (16) 
-6.32

>  <cluster_rmsd>  (16) 
1.94

>  <rmsd>  (16) 
269.14

>  <cluster>  (16) 
4

$$$$
KXOWNDOGMRUJAS-RMKNXTFCNA-N
     RDKit          3D

 43 46  0  0  0  0  0  0  0  0999 V2000
  143.5529   75.8685  218.1434 H   0  0  0  0  0  0  0  0  0  0  0  0
  143.5530   75.5120  219.1840 C   0  0  0  0  0  0  0  0  0  0  0  0
  142.7380   76.1150  220.0610 C   0  0  0  0  0  0  0  0  0  0  0  0
  142.8931   77.1742  220.3138 H   0  0  0  0  0  0  0  0  0  0  0  0
  141.6350   75.3650  220.6880 C   0  0  0  0  0  0  0  0  0  0  0  0
  141.8180   74.0390  220.9290 N   0  0  0  0  0  0  0  0  0  0  0  0
  140.8430   73.2720  221.4750 C   0  0  0  0  0  0  0  0  0  0  0  0
  141.0740   71.9100  221.7160 C   0  0  0  0  0  0  0  0  0  0  0  0
  142.0517   71.4671  221.4754 H   0  0  0  0  0  0  0  0  0  0  0  0
  140.0620   71.1150  222.2620 C   0  0  0  0  0  0  0  0  0  0  0  0
  140.2426   70.0459  222.4475 H   0  0  0  0  0  0  0  0  0  0  0  0
  138.8180   71.6790  222.5730 C   0  0  0  0  0  0  0  0  0  0  0  0
  137.8380   70.9050  223.0990 F   0  0  0  0  0  0  0  0  0  0  0  0
  138.5830   73.0390  222.3410 C   0  0  0  0  0  0  0  0  0  0  0  0
  137.6051   73.4779  222.5883 H   0  0  0  0  0  0  0  0  0  0  0  0
  139.5980   73.8460  221.7910 C   0  0  0  0  0  0  0  0  0  0  0  0
  139.4120   75.2160  221.5330 C   0  0  0  0  0  0  0  0  0  0  0  0
  138.2960   75.7470  221.8000 O   0  0  0  0  0  0  0  0  0  0  0  0
  140.4300   75.9660  220.9860 N   0  0  0  0  0  0  0  0  0  0  0  0
  140.2080   77.3940  220.6490 C   0  0  0  0  0  0  0  0  0  0  0  0
  140.6236   77.5972  219.6510 H   0  0  0  0  0  0  0  0  0  0  0  0
  139.1264   77.5941  220.6632 H   0  0  0  0  0  0  0  0  0  0  0  0
  140.8780   78.2960  221.6560 C   0  0  0  0  0  0  0  0  0  0  0  0
  141.1720   77.8190  222.9440 C   0  0  0  0  0  0  0  0  0  0  0  0
  140.9122   76.7858  223.2178 H   0  0  0  0  0  0  0  0  0  0  0  0
  141.7930   78.6510  223.8790 C   0  0  0  0  0  0  0  0  0  0  0  0
  142.0158   78.2722  224.8874 H   0  0  0  0  0  0  0  0  0  0  0  0
  142.1330   79.9670  223.5360 C   0  0  0  0  0  0  0  0  0  0  0  0
  142.6156   80.6219  224.2764 H   0  0  0  0  0  0  0  0  0  0  0  0
  141.8580   80.4460  222.2520 C   0  0  0  0  0  0  0  0  0  0  0  0
  142.1930   81.7180  221.9190 F   0  0  0  0  0  0  0  0  0  0  0  0
  141.2330   79.6180  221.3150 C   0  0  0  0  0  0  0  0  0  0  0  0
  141.0168   79.9994  220.3062 H   0  0  0  0  0  0  0  0  0  0  0  0
  144.4540   74.3910  219.5410 C   0  0  0  0  0  0  0  0  0  0  0  0
  144.7720   73.4400  218.5620 C   0  0  0  0  0  0  0  0  0  0  0  0
  144.3228   73.5142  217.5607 H   0  0  0  0  0  0  0  0  0  0  0  0
  145.6340   72.4250  218.8440 N   0  0  0  0  0  0  0  0  0  0  0  0
  146.1900   72.2760  220.0760 C   0  0  0  0  0  0  0  0  0  0  0  0
  146.8883   71.4480  220.2676 H   0  0  0  0  0  0  0  0  0  0  0  0
  145.8750   73.1730  221.0970 C   0  0  0  0  0  0  0  0  0  0  0  0
  146.3197   73.0550  222.0962 H   0  0  0  0  0  0  0  0  0  0  0  0
  144.9900   74.2220  220.8390 C   0  0  0  0  0  0  0  0  0  0  0  0
  144.7099   74.9165  221.6448 H   0  0  0  0  0  0  0  0  0  0  0  0
  1  2  1  0
  2  3  2  0
  3  4  1  0
  3  5  1  0
  5  6  2  0
  6  7  1  0
  7  8  2  0
  8  9  1  0
  8 10  1  0
 10 11  1  0
 10 12  2  0
 12 13  1  0
 12 14  1  0
 14 15  1  0
 14 16  2  0
 16 17  1  0
 17 18  2  0
 17 19  1  0
 19 20  1  0
 20 21  1  0
 20 22  1  0
 20 23  1  0
 23 24  2  0
 24 25  1  0
 24 26  1  0
 26 27  1  0
 26 28  2  0
 28 29  1  0
 28 30  1  0
 30 31  1  0
 30 32  2  0
 32 33  1  0
  2 34  1  0
 34 35  2  0
 35 36  1  0
 35 37  1  0
 37 38  2  0
 38 39  1  0
 38 40  1  0
 40 41  1  0
 40 42  2  0
 42 43  1  0
 19  5  1  0
 32 23  1  0
 42 34  1  0
 16  7  1  0
M  END
>  <UniqueID>  (17) 
255

>  <SMILES>  (17) 
O=c1c2cc(F)ccc2nc(/C=C/c2cccnc2)n1Cc1cccc(F)c1

>  <Energy>  (17) 
63.037306643374215

>  <Genealogy>  (17) 
O=c1c2cc(F)ccc2nc(/C=C/c2cccnc2)n1Cc1cccc(F)c1 (cis-trans isomerization)
O=c1c2cc(F)ccc2nc(/C=C/c2cccnc2)n1Cc1cccc(F)c1 (3D coordinates assigned)
O=c1c2cc(F)ccc2nc(/C=C/c2cccnc2)n1Cc1cccc(F)c1 (optimized conformer: 63.037306643374215 kcal/mol)

>  <smiles>  (17) 
O=c1c2cc(F)ccc2nc(/C=C/c2cccnc2)n1Cc1cccc(F)c1

>  <score_type>  (17) 
oracle

>  <origin>  (17) 
autodockgpu

>  <m_score__min__energy>  (17) 
-7.1900000000000004

>  <m_primary>  (17) 
energy

>  <meeko>  (17) 
{"free_energy": -7.05, "intermolecular_energy": -8.54, "internal_energy": -1.26, "cluster_size": 3, "cluster_id": 2, "rank_in_cluster": 1}

>  <energy>  (17) 
-6.31

>  <cluster_rmsd>  (17) 
1.94

>  <rmsd>  (17) 
269.13

>  <cluster>  (17) 
4

$$$$
KXOWNDOGMRUJAS-RMKNXTFCNA-N
     RDKit          3D

 43 46  0  0  0  0  0  0  0  0999 V2000
  139.2550   76.5906  223.5169 H   0  0  0  0  0  0  0  0  0  0  0  0
  139.0640   77.2010  222.6220 C   0  0  0  0  0  0  0  0  0  0  0  0
  139.1520   76.6120  221.4220 C   0  0  0  0  0  0  0  0  0  0  0  0
  138.2529   76.5032  220.7977 H   0  0  0  0  0  0  0  0  0  0  0  0
  140.4500   76.1090  220.9350 C   0  0  0  0  0  0  0  0  0  0  0  0
  140.8020   74.8340  221.2510 N   0  0  0  0  0  0  0  0  0  0  0  0
  141.9890   74.3060  220.8670 C   0  0  0  0  0  0  0  0  0  0  0  0
  142.3110   72.9840  221.2050 C   0  0  0  0  0  0  0  0  0  0  0  0
  141.5937   72.3706  221.7700 H   0  0  0  0  0  0  0  0  0  0  0  0
  143.5440   72.4450  220.8240 C   0  0  0  0  0  0  0  0  0  0  0  0
  143.7969   71.4085  221.0916 H   0  0  0  0  0  0  0  0  0  0  0  0
  144.4570   73.2240  220.1020 C   0  0  0  0  0  0  0  0  0  0  0  0
  145.6530   72.7000  219.7380 F   0  0  0  0  0  0  0  0  0  0  0  0
  144.1400   74.5420  219.7550 C   0  0  0  0  0  0  0  0  0  0  0  0
  144.8593   75.1490  219.1856 H   0  0  0  0  0  0  0  0  0  0  0  0
  142.8990   75.0920  220.1350 C   0  0  0  0  0  0  0  0  0  0  0  0
  142.5330   76.4120  219.8180 C   0  0  0  0  0  0  0  0  0  0  0  0
  143.3420   77.1360  219.1710 O   0  0  0  0  0  0  0  0  0  0  0  0
  141.3120   76.9110  220.2170 N   0  0  0  0  0  0  0  0  0  0  0  0
  140.9570   78.3260  219.9430 C   0  0  0  0  0  0  0  0  0  0  0  0
  141.4250   78.6380  218.9977 H   0  0  0  0  0  0  0  0  0  0  0  0
  139.8621   78.4065  219.8750 H   0  0  0  0  0  0  0  0  0  0  0  0
  141.4380   79.2270  221.0530 C   0  0  0  0  0  0  0  0  0  0  0  0
  142.1240   78.6860  222.1530 C   0  0  0  0  0  0  0  0  0  0  0  0
  142.3094   77.6029  222.2040 H   0  0  0  0  0  0  0  0  0  0  0  0
  142.5720   79.5180  223.1830 C   0  0  0  0  0  0  0  0  0  0  0  0
  143.1042   79.0871  224.0439 H   0  0  0  0  0  0  0  0  0  0  0  0
  142.3450   80.9000  223.1220 C   0  0  0  0  0  0  0  0  0  0  0  0
  142.6917   81.5512  223.9379 H   0  0  0  0  0  0  0  0  0  0  0  0
  141.6780   81.4500  222.0240 C   0  0  0  0  0  0  0  0  0  0  0  0
  141.4650   82.7880  221.9630 F   0  0  0  0  0  0  0  0  0  0  0  0
  141.2240   80.6200  220.9930 C   0  0  0  0  0  0  0  0  0  0  0  0
  140.6975   81.0561  220.1312 H   0  0  0  0  0  0  0  0  0  0  0  0
  138.7230   78.6310  222.8080 C   0  0  0  0  0  0  0  0  0  0  0  0
  137.8730   79.2510  221.8810 C   0  0  0  0  0  0  0  0  0  0  0  0
  137.5033   78.6846  221.0135 H   0  0  0  0  0  0  0  0  0  0  0  0
  137.5030   80.5500  222.0490 N   0  0  0  0  0  0  0  0  0  0  0  0
  137.9590   81.2980  223.0890 C   0  0  0  0  0  0  0  0  0  0  0  0
  137.6346   82.3433  223.1984 H   0  0  0  0  0  0  0  0  0  0  0  0
  138.8380   80.7400  224.0170 C   0  0  0  0  0  0  0  0  0  0  0  0
  139.2121   81.3419  224.8583 H   0  0  0  0  0  0  0  0  0  0  0  0
  139.2390   79.4110  223.8690 C   0  0  0  0  0  0  0  0  0  0  0  0
  139.9561   78.9706  224.5774 H   0  0  0  0  0  0  0  0  0  0  0  0
  1  2  1  0
  2  3  2  0
  3  4  1  0
  3  5  1  0
  5  6  2  0
  6  7  1  0
  7  8  2  0
  8  9  1  0
  8 10  1  0
 10 11  1  0
 10 12  2  0
 12 13  1  0
 12 14  1  0
 14 15  1  0
 14 16  2  0
 16 17  1  0
 17 18  2  0
 17 19  1  0
 19 20  1  0
 20 21  1  0
 20 22  1  0
 20 23  1  0
 23 24  2  0
 24 25  1  0
 24 26  1  0
 26 27  1  0
 26 28  2  0
 28 29  1  0
 28 30  1  0
 30 31  1  0
 30 32  2  0
 32 33  1  0
  2 34  1  0
 34 35  2  0
 35 36  1  0
 35 37  1  0
 37 38  2  0
 38 39  1  0
 38 40  1  0
 40 41  1  0
 40 42  2  0
 42 43  1  0
 19  5  1  0
 32 23  1  0
 42 34  1  0
 16  7  1  0
M  END
>  <UniqueID>  (18) 
255

>  <SMILES>  (18) 
O=c1c2cc(F)ccc2nc(/C=C/c2cccnc2)n1Cc1cccc(F)c1

>  <Energy>  (18) 
63.037306643374215

>  <Genealogy>  (18) 
O=c1c2cc(F)ccc2nc(/C=C/c2cccnc2)n1Cc1cccc(F)c1 (cis-trans isomerization)
O=c1c2cc(F)ccc2nc(/C=C/c2cccnc2)n1Cc1cccc(F)c1 (3D coordinates assigned)
O=c1c2cc(F)ccc2nc(/C=C/c2cccnc2)n1Cc1cccc(F)c1 (optimized conformer: 63.037306643374215 kcal/mol)

>  <smiles>  (18) 
O=c1c2cc(F)ccc2nc(/C=C/c2cccnc2)n1Cc1cccc(F)c1

>  <score_type>  (18) 
oracle

>  <origin>  (18) 
autodockgpu

>  <m_score__min__energy>  (18) 
-7.1900000000000004

>  <m_primary>  (18) 
energy

>  <meeko>  (18) 
{"free_energy": -6.33, "intermolecular_energy": -7.82, "internal_energy": -1.9, "cluster_size": 13, "cluster_id": 4, "rank_in_cluster": 5}

>  <energy>  (18) 
-6.25

>  <cluster_rmsd>  (18) 
1.86

>  <rmsd>  (18) 
269.14

>  <cluster>  (18) 
4

$$$$
KXOWNDOGMRUJAS-RMKNXTFCNA-N
     RDKit          3D

 43 46  0  0  0  0  0  0  0  0999 V2000
  139.4027   77.0252  220.5568 H   0  0  0  0  0  0  0  0  0  0  0  0
  140.0520   76.8050  221.4170 C   0  0  0  0  0  0  0  0  0  0  0  0
  139.9990   75.5780  221.9550 C   0  0  0  0  0  0  0  0  0  0  0  0
  139.1993   75.3262  222.6672 H   0  0  0  0  0  0  0  0  0  0  0  0
  141.0080   74.5650  221.5960 C   0  0  0  0  0  0  0  0  0  0  0  0
  142.2370   74.9970  221.2040 N   0  0  0  0  0  0  0  0  0  0  0  0
  143.2100   74.1310  220.8300 C   0  0  0  0  0  0  0  0  0  0  0  0
  144.4670   74.6150  220.4410 C   0  0  0  0  0  0  0  0  0  0  0  0
  144.6673   75.6965  220.4529 H   0  0  0  0  0  0  0  0  0  0  0  0
  145.4660   73.7240  220.0380 C   0  0  0  0  0  0  0  0  0  0  0  0
  146.4510   74.1049  219.7302 H   0  0  0  0  0  0  0  0  0  0  0  0
  145.2130   72.3460  220.0260 C   0  0  0  0  0  0  0  0  0  0  0  0
  146.1820   71.4840  219.6310 F   0  0  0  0  0  0  0  0  0  0  0  0
  143.9630   71.8550  220.4200 C   0  0  0  0  0  0  0  0  0  0  0  0
  143.7697   70.7722  220.4112 H   0  0  0  0  0  0  0  0  0  0  0  0
  142.9520   72.7480  220.8280 C   0  0  0  0  0  0  0  0  0  0  0  0
  141.6770   72.3080  221.2270 C   0  0  0  0  0  0  0  0  0  0  0  0
  141.4240   71.0700  221.2210 O   0  0  0  0  0  0  0  0  0  0  0  0
  140.7150   73.2170  221.6100 N   0  0  0  0  0  0  0  0  0  0  0  0
  139.3500   72.7560  221.9630 C   0  0  0  0  0  0  0  0  0  0  0  0
  138.7311   73.6280  222.2212 H   0  0  0  0  0  0  0  0  0  0  0  0
  138.9246   72.2246  221.0989 H   0  0  0  0  0  0  0  0  0  0  0  0
  139.3870   71.8110  223.1390 C   0  0  0  0  0  0  0  0  0  0  0  0
  138.4010   70.8200  223.2770 C   0  0  0  0  0  0  0  0  0  0  0  0
  137.6009   70.7348  222.5269 H   0  0  0  0  0  0  0  0  0  0  0  0
  138.4330   69.9410  224.3650 C   0  0  0  0  0  0  0  0  0  0  0  0
  137.6554   69.1701  224.4704 H   0  0  0  0  0  0  0  0  0  0  0  0
  139.4530   70.0400  225.3210 C   0  0  0  0  0  0  0  0  0  0  0  0
  139.4710   69.3527  226.1796 H   0  0  0  0  0  0  0  0  0  0  0  0
  140.4470   71.0120  225.1830 C   0  0  0  0  0  0  0  0  0  0  0  0
  141.4380   71.1020  226.1050 F   0  0  0  0  0  0  0  0  0  0  0  0
  140.4160   71.8960  224.0990 C   0  0  0  0  0  0  0  0  0  0  0  0
  141.1989   72.6617  223.9952 H   0  0  0  0  0  0  0  0  0  0  0  0
  140.9390   77.8800  221.9200 C   0  0  0  0  0  0  0  0  0  0  0  0
  141.4000   78.8530  221.0210 C   0  0  0  0  0  0  0  0  0  0  0  0
  141.1324   78.7851  219.9562 H   0  0  0  0  0  0  0  0  0  0  0  0
  142.1770   79.8810  221.4600 N   0  0  0  0  0  0  0  0  0  0  0  0
  142.5580   79.9890  222.7610 C   0  0  0  0  0  0  0  0  0  0  0  0
  143.1809   80.8366  223.0829 H   0  0  0  0  0  0  0  0  0  0  0  0
  142.1590   79.0250  223.6880 C   0  0  0  0  0  0  0  0  0  0  0  0
  142.4671   79.1059  224.7409 H   0  0  0  0  0  0  0  0  0  0  0  0
  141.3650   77.9570  223.2660 C   0  0  0  0  0  0  0  0  0  0  0  0
  141.0706   77.1748  223.9812 H   0  0  0  0  0  0  0  0  0  0  0  0
  1  2  1  0
  2  3  2  0
  3  4  1  0
  3  5  1  0
  5  6  2  0
  6  7  1  0
  7  8  2  0
  8  9  1  0
  8 10  1  0
 10 11  1  0
 10 12  2  0
 12 13  1  0
 12 14  1  0
 14 15  1  0
 14 16  2  0
 16 17  1  0
 17 18  2  0
 17 19  1  0
 19 20  1  0
 20 21  1  0
 20 22  1  0
 20 23  1  0
 23 24  2  0
 24 25  1  0
 24 26  1  0
 26 27  1  0
 26 28  2  0
 28 29  1  0
 28 30  1  0
 30 31  1  0
 30 32  2  0
 32 33  1  0
  2 34  1  0
 34 35  2  0
 35 36  1  0
 35 37  1  0
 37 38  2  0
 38 39  1  0
 38 40  1  0
 40 41  1  0
 40 42  2  0
 42 43  1  0
 19  5  1  0
 32 23  1  0
 42 34  1  0
 16  7  1  0
M  END
>  <UniqueID>  (19) 
255

>  <SMILES>  (19) 
O=c1c2cc(F)ccc2nc(/C=C/c2cccnc2)n1Cc1cccc(F)c1

>  <Energy>  (19) 
63.037306643374215

>  <Genealogy>  (19) 
O=c1c2cc(F)ccc2nc(/C=C/c2cccnc2)n1Cc1cccc(F)c1 (cis-trans isomerization)
O=c1c2cc(F)ccc2nc(/C=C/c2cccnc2)n1Cc1cccc(F)c1 (3D coordinates assigned)
O=c1c2cc(F)ccc2nc(/C=C/c2cccnc2)n1Cc1cccc(F)c1 (optimized conformer: 63.037306643374215 kcal/mol)

>  <smiles>  (19) 
O=c1c2cc(F)ccc2nc(/C=C/c2cccnc2)n1Cc1cccc(F)c1

>  <score_type>  (19) 
oracle

>  <origin>  (19) 
autodockgpu

>  <m_score__min__energy>  (19) 
-7.1900000000000004

>  <m_primary>  (19) 
energy

>  <meeko>  (19) 
{"free_energy": -7.02, "intermolecular_energy": -8.51, "internal_energy": -1.09, "cluster_size": 3, "cluster_id": 3, "rank_in_cluster": 2}

>  <energy>  (19) 
-6.25

>  <cluster_rmsd>  (19) 
1.86

>  <rmsd>  (19) 
269.16

>  <cluster>  (19) 
4

$$$$
KXOWNDOGMRUJAS-RMKNXTFCNA-N
     RDKit          3D

 43 46  0  0  0  0  0  0  0  0999 V2000
  139.2040   76.6083  223.5443 H   0  0  0  0  0  0  0  0  0  0  0  0
  139.0340   77.2080  222.6380 C   0  0  0  0  0  0  0  0  0  0  0  0
  139.1220   76.5980  221.4480 C   0  0  0  0  0  0  0  0  0  0  0  0
  138.2202   76.4668  220.8319 H   0  0  0  0  0  0  0  0  0  0  0  0
  140.4220   76.1020  220.9610 C   0  0  0  0  0  0  0  0  0  0  0  0
  140.7740   74.8240  221.2650 N   0  0  0  0  0  0  0  0  0  0  0  0
  141.9630   74.3010  220.8800 C   0  0  0  0  0  0  0  0  0  0  0  0
  142.2850   72.9760  221.2050 C   0  0  0  0  0  0  0  0  0  0  0  0
  141.5658   72.3559  221.7601 H   0  0  0  0  0  0  0  0  0  0  0  0
  143.5200   72.4420  220.8240 C   0  0  0  0  0  0  0  0  0  0  0  0
  143.7730   71.4030  221.0819 H   0  0  0  0  0  0  0  0  0  0  0  0
  144.4350   73.2300  220.1140 C   0  0  0  0  0  0  0  0  0  0  0  0
  145.6330   72.7110  219.7490 F   0  0  0  0  0  0  0  0  0  0  0  0
  144.1180   74.5510  219.7800 C   0  0  0  0  0  0  0  0  0  0  0  0
  144.8388   75.1650  219.2201 H   0  0  0  0  0  0  0  0  0  0  0  0
  142.8750   75.0950  220.1610 C   0  0  0  0  0  0  0  0  0  0  0  0
  142.5090   76.4190  219.8550 C   0  0  0  0  0  0  0  0  0  0  0  0
  143.3200   77.1500  219.2200 O   0  0  0  0  0  0  0  0  0  0  0  0
  141.2860   76.9130  220.2550 N   0  0  0  0  0  0  0  0  0  0  0  0
  140.9310   78.3300  219.9940 C   0  0  0  0  0  0  0  0  0  0  0  0
  141.3764   78.6428  219.0381 H   0  0  0  0  0  0  0  0  0  0  0  0
  139.8351   78.4163  219.9535 H   0  0  0  0  0  0  0  0  0  0  0  0
  141.4450   79.2250  221.0950 C   0  0  0  0  0  0  0  0  0  0  0  0
  142.1030   78.6710  222.2050 C   0  0  0  0  0  0  0  0  0  0  0  0
  142.2429   77.5820  222.2715 H   0  0  0  0  0  0  0  0  0  0  0  0
  142.5810   79.4980  223.2260 C   0  0  0  0  0  0  0  0  0  0  0  0
  143.0905   79.0571  224.0955 H   0  0  0  0  0  0  0  0  0  0  0  0
  142.4130   80.8870  223.1450 C   0  0  0  0  0  0  0  0  0  0  0  0
  142.7836   81.5344  223.9534 H   0  0  0  0  0  0  0  0  0  0  0  0
  141.7740   81.4490  222.0360 C   0  0  0  0  0  0  0  0  0  0  0  0
  141.6180   82.7940  221.9560 F   0  0  0  0  0  0  0  0  0  0  0  0
  141.2900   80.6250  221.0150 C   0  0  0  0  0  0  0  0  0  0  0  0
  140.7858   81.0708  220.1449 H   0  0  0  0  0  0  0  0  0  0  0  0
  138.7200   78.6470  222.7980 C   0  0  0  0  0  0  0  0  0  0  0  0
  137.9040   79.2720  221.8450 C   0  0  0  0  0  0  0  0  0  0  0  0
  137.5415   78.7023  220.9767 H   0  0  0  0  0  0  0  0  0  0  0  0
  137.5580   80.5810  221.9890 N   0  0  0  0  0  0  0  0  0  0  0  0
  138.0060   81.3320  223.0300 C   0  0  0  0  0  0  0  0  0  0  0  0
  137.7008   82.3850  223.1191 H   0  0  0  0  0  0  0  0  0  0  0  0
  138.8520   80.7690  223.9850 C   0  0  0  0  0  0  0  0  0  0  0  0
  139.2195   81.3736  224.8272 H   0  0  0  0  0  0  0  0  0  0  0  0
  139.2280   79.4290  223.8610 C   0  0  0  0  0  0  0  0  0  0  0  0
  139.9195   78.9822  224.5906 H   0  0  0  0  0  0  0  0  0  0  0  0
  1  2  1  0
  2  3  2  0
  3  4  1  0
  3  5  1  0
  5  6  2  0
  6  7  1  0
  7  8  2  0
  8  9  1  0
  8 10  1  0
 10 11  1  0
 10 12  2  0
 12 13  1  0
 12 14  1  0
 14 15  1  0
 14 16  2  0
 16 17  1  0
 17 18  2  0
 17 19  1  0
 19 20  1  0
 20 21  1  0
 20 22  1  0
 20 23  1  0
 23 24  2  0
 24 25  1  0
 24 26  1  0
 26 27  1  0
 26 28  2  0
 28 29  1  0
 28 30  1  0
 30 31  1  0
 30 32  2  0
 32 33  1  0
  2 34  1  0
 34 35  2  0
 35 36  1  0
 35 37  1  0
 37 38  2  0
 38 39  1  0
 38 40  1  0
 40 41  1  0
 40 42  2  0
 42 43  1  0
 19  5  1  0
 32 23  1  0
 42 34  1  0
 16  7  1  0
M  END
>  <UniqueID>  (20) 
255

>  <SMILES>  (20) 
O=c1c2cc(F)ccc2nc(/C=C/c2cccnc2)n1Cc1cccc(F)c1

>  <Energy>  (20) 
63.037306643374215

>  <Genealogy>  (20) 
O=c1c2cc(F)ccc2nc(/C=C/c2cccnc2)n1Cc1cccc(F)c1 (cis-trans isomerization)
O=c1c2cc(F)ccc2nc(/C=C/c2cccnc2)n1Cc1cccc(F)c1 (3D coordinates assigned)
O=c1c2cc(F)ccc2nc(/C=C/c2cccnc2)n1Cc1cccc(F)c1 (optimized conformer: 63.037306643374215 kcal/mol)

>  <smiles>  (20) 
O=c1c2cc(F)ccc2nc(/C=C/c2cccnc2)n1Cc1cccc(F)c1

>  <score_type>  (20) 
oracle

>  <origin>  (20) 
autodockgpu

>  <m_score__min__energy>  (20) 
-7.1900000000000004

>  <m_primary>  (20) 
energy

>  <meeko>  (20) 
{"free_energy": -6.33, "intermolecular_energy": -7.82, "internal_energy": -1.9, "cluster_size": 13, "cluster_id": 4, "rank_in_cluster": 7}

>  <energy>  (20) 
-6.25

>  <cluster_rmsd>  (20) 
1.87

>  <rmsd>  (20) 
269.14

>  <cluster>  (20) 
4

$$$$
