OVVDNOVAKMLMDA-DTQAZKPQNA-N
     RDKit          3D

 48 51  0  0  0  0  0  0  0  0999 V2000
  136.6891   75.4225  221.4571 H   0  0  0  0  0  0  0  0  0  0  0  0
  136.9720   75.6430  222.4970 C   0  0  0  0  0  0  0  0  0  0  0  0
  138.1110   76.3110  222.7170 C   0  0  0  0  0  0  0  0  0  0  0  0
  138.1036   77.1990  223.3662 H   0  0  0  0  0  0  0  0  0  0  0  0
  139.3740   75.8710  222.1000 C   0  0  0  0  0  0  0  0  0  0  0  0
  139.6670   74.5450  222.1510 N   0  0  0  0  0  0  0  0  0  0  0  0
  140.7960   74.0440  221.5980 C   0  0  0  0  0  0  0  0  0  0  0  0
  141.0640   72.6690  221.6710 C   0  0  0  0  0  0  0  0  0  0  0  0
  140.3574   71.9972  222.1803 H   0  0  0  0  0  0  0  0  0  0  0  0
  142.2300   72.1520  221.0960 C   0  0  0  0  0  0  0  0  0  0  0  0
  142.4369   71.0729  221.1488 H   0  0  0  0  0  0  0  0  0  0  0  0
  143.1330   73.0060  220.4540 C   0  0  0  0  0  0  0  0  0  0  0  0
  144.0512   72.5970  220.0072 H   0  0  0  0  0  0  0  0  0  0  0  0
  142.8720   74.3810  220.3780 C   0  0  0  0  0  0  0  0  0  0  0  0
  143.5838   75.0480  219.8696 H   0  0  0  0  0  0  0  0  0  0  0  0
  141.6990   74.9100  220.9520 C   0  0  0  0  0  0  0  0  0  0  0  0
  141.3860   76.2810  220.8950 C   0  0  0  0  0  0  0  0  0  0  0  0
  142.1870   77.0780  220.3270 O   0  0  0  0  0  0  0  0  0  0  0  0
  140.2210   76.7500  221.4570 N   0  0  0  0  0  0  0  0  0  0  0  0
  139.8780   78.1910  221.3560 C   0  0  0  0  0  0  0  0  0  0  0  0
  139.9586   78.5029  220.3042 H   0  0  0  0  0  0  0  0  0  0  0  0
  138.8528   78.3247  221.7317 H   0  0  0  0  0  0  0  0  0  0  0  0
  140.7990   79.0490  222.1920 C   0  0  0  0  0  0  0  0  0  0  0  0
  141.2460   78.6140  223.4580 C   0  0  0  0  0  0  0  0  0  0  0  0
  140.8914   77.6556  223.8651 H   0  0  0  0  0  0  0  0  0  0  0  0
  142.1400   79.3990  224.1980 C   0  0  0  0  0  0  0  0  0  0  0  0
  142.4774   79.0611  225.1890 H   0  0  0  0  0  0  0  0  0  0  0  0
  142.6040   80.6120  223.6780 C   0  0  0  0  0  0  0  0  0  0  0  0
  143.2894   81.2368  224.2695 H   0  0  0  0  0  0  0  0  0  0  0  0
  142.1970   81.0320  222.4050 C   0  0  0  0  0  0  0  0  0  0  0  0
  142.5731   81.9799  221.9927 H   0  0  0  0  0  0  0  0  0  0  0  0
  141.3130   80.2470  221.6580 C   0  0  0  0  0  0  0  0  0  0  0  0
  141.0174   80.5668  220.6479 H   0  0  0  0  0  0  0  0  0  0  0  0
  136.0720   75.1850  223.5830 C   0  0  0  0  0  0  0  0  0  0  0  0
  135.8220   73.8060  223.7180 C   0  0  0  0  0  0  0  0  0  0  0  0
  136.2819   73.0960  223.0149 H   0  0  0  0  0  0  0  0  0  0  0  0
  134.9930   73.3330  224.7400 C   0  0  0  0  0  0  0  0  0  0  0  0
  134.8162   72.2522  224.8430 H   0  0  0  0  0  0  0  0  0  0  0  0
  134.3850   74.2260  225.6350 C   0  0  0  0  0  0  0  0  0  0  0  0
  133.5770   73.6960  226.6560 O   0  0  0  0  0  0  0  0  0  0  0  0
  133.3180   72.2990  226.8390 C   0  0  0  0  0  0  0  0  0  0  0  0
  133.2759   72.0717  227.9144 H   0  0  0  0  0  0  0  0  0  0  0  0
  132.3565   72.0400  226.3715 H   0  0  0  0  0  0  0  0  0  0  0  0
  134.1227   71.7126  226.3715 H   0  0  0  0  0  0  0  0  0  0  0  0
  134.6040   75.6110  225.4840 C   0  0  0  0  0  0  0  0  0  0  0  0
  134.1146   76.3206  226.1673 H   0  0  0  0  0  0  0  0  0  0  0  0
  135.4410   76.0860  224.4690 C   0  0  0  0  0  0  0  0  0  0  0  0
  135.6088   77.1677  224.3601 H   0  0  0  0  0  0  0  0  0  0  0  0
  1  2  1  0
  2  3  2  0
  3  4  1  0
  3  5  1  0
  5  6  2  0
  6  7  1  0
  7  8  2  0
  8  9  1  0
  8 10  1  0
 10 11  1  0
 10 12  2  0
 12 13  1  0
 12 14  1  0
 14 15  1  0
 14 16  2  0
 16 17  1  0
 17 18  2  0
 17 19  1  0
 19 20  1  0
 20 21  1  0
 20 22  1  0
 20 23  1  0
 23 24  2  0
 24 25  1  0
 24 26  1  0
 26 27  1  0
 26 28  2  0
 28 29  1  0
 28 30  1  0
 30 31  1  0
 30 32  2  0
 32 33  1  0
  2 34  1  0
 34 35  2  0
 35 36  1  0
 35 37  1  0
 37 38  1  0
 37 39  2  0
 39 40  1  0
 40 41  1  0
 41 42  1  0
 41 43  1  0
 41 44  1  0
 39 45  1  0
 45 46  1  0
 45 47  2  0
 47 48  1  0
 19  5  1  0
 32 23  1  0
 47 34  1  0
 16  7  1  0
M  END
>  <UniqueID>  (1) 
69

>  <SMILES>  (1) 
COc1ccc(/C=C/c2nc3ccccc3c(=O)n2Cc2ccccc2)cc1

>  <Energy>  (1) 
68.61639091905492

>  <Genealogy>  (1) 
COc1ccc(/C=C/c2nc3ccccc3c(=O)n2Cc2ccccc2)cc1 (cis-trans isomerization)
COc1ccc(/C=C/c2nc3ccccc3c(=O)n2Cc2ccccc2)cc1 (3D coordinates assigned)
COc1ccc(/C=C/c2nc3ccccc3c(=O)n2Cc2ccccc2)cc1 (optimized conformer: 68.61639091905492 kcal/mol)

>  <smiles>  (1) 
COc1ccc(/C=C/c2nc3ccccc3c(=O)n2Cc2ccccc2)cc1

>  <score_type>  (1) 
oracle

>  <origin>  (1) 
autodockgpu

>  <m_score__min__energy>  (1) 
-7.7300000000000004

>  <m_primary>  (1) 
energy

>  <meeko>  (1) 
{"free_energy": -7.63, "intermolecular_energy": -9.42, "internal_energy": -1.12, "cluster_size": 3, "cluster_id": 2, "rank_in_cluster": 2}

>  <energy>  (1) 
-7.73

>  <cluster_rmsd>  (1) 
0.0

>  <rmsd>  (1) 
270.03

>  <cluster>  (1) 
1

$$$$
OVVDNOVAKMLMDA-DTQAZKPQNA-N
     RDKit          3D

 48 51  0  0  0  0  0  0  0  0999 V2000
  140.8271   73.8338  222.5122 H   0  0  0  0  0  0  0  0  0  0  0  0
  140.9860   72.8900  221.9700 C   0  0  0  0  0  0  0  0  0  0  0  0
  140.0940   71.9050  222.1350 C   0  0  0  0  0  0  0  0  0  0  0  0
  139.4703   71.5887  221.2859 H   0  0  0  0  0  0  0  0  0  0  0  0
  139.9380   71.2400  223.4400 C   0  0  0  0  0  0  0  0  0  0  0  0
  140.5900   71.7840  224.5010 N   0  0  0  0  0  0  0  0  0  0  0  0
  140.4940   71.2540  225.7430 C   0  0  0  0  0  0  0  0  0  0  0  0
  141.1810   71.8440  226.8140 C   0  0  0  0  0  0  0  0  0  0  0  0
  141.7998   72.7375  226.6445 H   0  0  0  0  0  0  0  0  0  0  0  0
  141.0800   71.2970  228.0980 C   0  0  0  0  0  0  0  0  0  0  0  0
  141.6167   71.7622  228.9380 H   0  0  0  0  0  0  0  0  0  0  0  0
  140.2960   70.1580  228.3130 C   0  0  0  0  0  0  0  0  0  0  0  0
  140.2195   69.7281  229.3226 H   0  0  0  0  0  0  0  0  0  0  0  0
  139.6080   69.5630  227.2470 C   0  0  0  0  0  0  0  0  0  0  0  0
  138.9927   68.6681  227.4218 H   0  0  0  0  0  0  0  0  0  0  0  0
  139.7030   70.1090  225.9520 C   0  0  0  0  0  0  0  0  0  0  0  0
  139.0240   69.5550  224.8510 C   0  0  0  0  0  0  0  0  0  0  0  0
  138.3140   68.5210  225.0150 O   0  0  0  0  0  0  0  0  0  0  0  0
  139.1350   70.1310  223.6060 N   0  0  0  0  0  0  0  0  0  0  0  0
  138.3820   69.5660  222.4590 C   0  0  0  0  0  0  0  0  0  0  0  0
  137.3763   69.2795  222.8002 H   0  0  0  0  0  0  0  0  0  0  0  0
  138.3301   70.3342  221.6734 H   0  0  0  0  0  0  0  0  0  0  0  0
  139.0670   68.3490  221.8800 C   0  0  0  0  0  0  0  0  0  0  0  0
  138.7760   67.0550  222.3620 C   0  0  0  0  0  0  0  0  0  0  0  0
  138.0715   66.9262  223.1969 H   0  0  0  0  0  0  0  0  0  0  0  0
  139.3820   65.9340  221.7800 C   0  0  0  0  0  0  0  0  0  0  0  0
  139.1604   64.9279  222.1655 H   0  0  0  0  0  0  0  0  0  0  0  0
  140.2680   66.0920  220.7100 C   0  0  0  0  0  0  0  0  0  0  0  0
  140.7588   65.2118  220.2691 H   0  0  0  0  0  0  0  0  0  0  0  0
  140.5320   67.3700  220.1980 C   0  0  0  0  0  0  0  0  0  0  0  0
  141.2192   67.4908  219.3476 H   0  0  0  0  0  0  0  0  0  0  0  0
  139.9210   68.4920  220.7690 C   0  0  0  0  0  0  0  0  0  0  0  0
  140.1086   69.4908  220.3481 H   0  0  0  0  0  0  0  0  0  0  0  0
  142.1770   72.7740  221.0940 C   0  0  0  0  0  0  0  0  0  0  0  0
  142.7770   73.9520  220.6090 C   0  0  0  0  0  0  0  0  0  0  0  0
  142.3495   74.9309  220.8718 H   0  0  0  0  0  0  0  0  0  0  0  0
  143.9120   73.8860  219.7960 C   0  0  0  0  0  0  0  0  0  0  0  0
  144.3792   74.8141  219.4349 H   0  0  0  0  0  0  0  0  0  0  0  0
  144.4600   72.6460  219.4370 C   0  0  0  0  0  0  0  0  0  0  0  0
  145.6130   72.6360  218.6330 O   0  0  0  0  0  0  0  0  0  0  0  0
  145.7180   73.2910  217.3630 C   0  0  0  0  0  0  0  0  0  0  0  0
  145.8904   74.3663  217.5182 H   0  0  0  0  0  0  0  0  0  0  0  0
  146.5589   72.8626  216.7979 H   0  0  0  0  0  0  0  0  0  0  0  0
  144.7853   73.1469  216.7979 H   0  0  0  0  0  0  0  0  0  0  0  0
  143.8440   71.4610  219.8910 C   0  0  0  0  0  0  0  0  0  0  0  0
  144.2533   70.4832  219.5971 H   0  0  0  0  0  0  0  0  0  0  0  0
  142.7140   71.5250  220.7140 C   0  0  0  0  0  0  0  0  0  0  0  0
  142.2414   70.5965  221.0669 H   0  0  0  0  0  0  0  0  0  0  0  0
  1  2  1  0
  2  3  2  0
  3  4  1  0
  3  5  1  0
  5  6  2  0
  6  7  1  0
  7  8  2  0
  8  9  1  0
  8 10  1  0
 10 11  1  0
 10 12  2  0
 12 13  1  0
 12 14  1  0
 14 15  1  0
 14 16  2  0
 16 17  1  0
 17 18  2  0
 17 19  1  0
 19 20  1  0
 20 21  1  0
 20 22  1  0
 20 23  1  0
 23 24  2  0
 24 25  1  0
 24 26  1  0
 26 27  1  0
 26 28  2  0
 28 29  1  0
 28 30  1  0
 30 31  1  0
 30 32  2  0
 32 33  1  0
  2 34  1  0
 34 35  2  0
 35 36  1  0
 35 37  1  0
 37 38  1  0
 37 39  2  0
 39 40  1  0
 40 41  1  0
 41 42  1  0
 41 43  1  0
 41 44  1  0
 39 45  1  0
 45 46  1  0
 45 47  2  0
 47 48  1  0
 19  5  1  0
 32 23  1  0
 47 34  1  0
 16  7  1  0
M  END
>  <UniqueID>  (2) 
69

>  <SMILES>  (2) 
COc1ccc(/C=C/c2nc3ccccc3c(=O)n2Cc2ccccc2)cc1

>  <Energy>  (2) 
68.61639091905492

>  <Genealogy>  (2) 
COc1ccc(/C=C/c2nc3ccccc3c(=O)n2Cc2ccccc2)cc1 (cis-trans isomerization)
COc1ccc(/C=C/c2nc3ccccc3c(=O)n2Cc2ccccc2)cc1 (3D coordinates assigned)
COc1ccc(/C=C/c2nc3ccccc3c(=O)n2Cc2ccccc2)cc1 (optimized conformer: 68.61639091905492 kcal/mol)

>  <smiles>  (2) 
COc1ccc(/C=C/c2nc3ccccc3c(=O)n2Cc2ccccc2)cc1

>  <score_type>  (2) 
oracle

>  <origin>  (2) 
autodockgpu

>  <m_score__min__energy>  (2) 
-7.7300000000000004

>  <m_primary>  (2) 
energy

>  <meeko>  (2) 
{"free_energy": -7.59, "intermolecular_energy": -9.38, "internal_energy": -1.28, "cluster_size": 7, "cluster_id": 3, "rank_in_cluster": 2}

>  <energy>  (2) 
-7.62

>  <cluster_rmsd>  (2) 
0.12

>  <rmsd>  (2) 
270.03

>  <cluster>  (2) 
1

$$$$
OVVDNOVAKMLMDA-DTQAZKPQNA-N
     RDKit          3D

 48 51  0  0  0  0  0  0  0  0999 V2000
  136.7021   75.4214  221.4411 H   0  0  0  0  0  0  0  0  0  0  0  0
  136.9780   75.6550  222.4800 C   0  0  0  0  0  0  0  0  0  0  0  0
  138.1080   76.3390  222.6980 C   0  0  0  0  0  0  0  0  0  0  0  0
  138.0866   77.2349  223.3358 H   0  0  0  0  0  0  0  0  0  0  0  0
  139.3790   75.9060  222.0940 C   0  0  0  0  0  0  0  0  0  0  0  0
  139.6720   74.5790  222.1340 N   0  0  0  0  0  0  0  0  0  0  0  0
  140.8090   74.0850  221.5910 C   0  0  0  0  0  0  0  0  0  0  0  0
  141.0760   72.7090  221.6520 C   0  0  0  0  0  0  0  0  0  0  0  0
  140.3624   72.0317  222.1440 H   0  0  0  0  0  0  0  0  0  0  0  0
  142.2500   72.1980  221.0870 C   0  0  0  0  0  0  0  0  0  0  0  0
  142.4559   71.1183  221.1296 H   0  0  0  0  0  0  0  0  0  0  0  0
  143.1620   73.0600  220.4680 C   0  0  0  0  0  0  0  0  0  0  0  0
  144.0864   72.6564  220.0292 H   0  0  0  0  0  0  0  0  0  0  0  0
  142.9020   74.4360  220.4050 C   0  0  0  0  0  0  0  0  0  0  0  0
  143.6217   75.1092  219.9162 H   0  0  0  0  0  0  0  0  0  0  0  0
  141.7200   74.9580  220.9670 C   0  0  0  0  0  0  0  0  0  0  0  0
  141.4080   76.3290  220.9220 C   0  0  0  0  0  0  0  0  0  0  0  0
  142.2170   77.1330  220.3750 O   0  0  0  0  0  0  0  0  0  0  0  0
  140.2350   76.7920  221.4730 N   0  0  0  0  0  0  0  0  0  0  0  0
  139.8940   78.2340  221.3840 C   0  0  0  0  0  0  0  0  0  0  0  0
  139.9323   78.5440  220.3293 H   0  0  0  0  0  0  0  0  0  0  0  0
  138.8858   78.3722  221.8016 H   0  0  0  0  0  0  0  0  0  0  0  0
  140.8520   79.0900  222.1800 C   0  0  0  0  0  0  0  0  0  0  0  0
  141.1760   80.3980  221.7590 C   0  0  0  0  0  0  0  0  0  0  0  0
  140.7606   80.7906  220.8192 H   0  0  0  0  0  0  0  0  0  0  0  0
  142.0250   81.1970  222.5350 C   0  0  0  0  0  0  0  0  0  0  0  0
  142.2818   82.2124  222.1989 H   0  0  0  0  0  0  0  0  0  0  0  0
  142.5470   80.7070  223.7360 C   0  0  0  0  0  0  0  0  0  0  0  0
  143.2320   81.3284  224.3315 H   0  0  0  0  0  0  0  0  0  0  0  0
  142.1980   79.4240  224.1820 C   0  0  0  0  0  0  0  0  0  0  0  0
  142.5981   79.0446  225.1339 H   0  0  0  0  0  0  0  0  0  0  0  0
  141.3410   78.6270  223.4160 C   0  0  0  0  0  0  0  0  0  0  0  0
  141.0473   77.6321  223.7818 H   0  0  0  0  0  0  0  0  0  0  0  0
  136.0790   75.1960  223.5660 C   0  0  0  0  0  0  0  0  0  0  0  0
  135.8210   73.8180  223.6950 C   0  0  0  0  0  0  0  0  0  0  0  0
  136.2742   73.1090  222.9865 H   0  0  0  0  0  0  0  0  0  0  0  0
  134.9930   73.3440  224.7170 C   0  0  0  0  0  0  0  0  0  0  0  0
  134.8109   72.2636  224.8149 H   0  0  0  0  0  0  0  0  0  0  0  0
  134.3930   74.2350  225.6180 C   0  0  0  0  0  0  0  0  0  0  0  0
  133.5850   73.7060  226.6390 O   0  0  0  0  0  0  0  0  0  0  0  0
  133.3660   72.3060  226.8510 C   0  0  0  0  0  0  0  0  0  0  0  0
  133.3337   72.0993  227.9309 H   0  0  0  0  0  0  0  0  0  0  0  0
  132.4107   72.0107  226.3924 H   0  0  0  0  0  0  0  0  0  0  0  0
  134.1854   71.7331  226.3924 H   0  0  0  0  0  0  0  0  0  0  0  0
  134.6200   75.6200  225.4740 C   0  0  0  0  0  0  0  0  0  0  0  0
  134.1373   76.3286  226.1631 H   0  0  0  0  0  0  0  0  0  0  0  0
  135.4560   76.0960  224.4590 C   0  0  0  0  0  0  0  0  0  0  0  0
  135.6294   77.1773  224.3554 H   0  0  0  0  0  0  0  0  0  0  0  0
  1  2  1  0
  2  3  2  0
  3  4  1  0
  3  5  1  0
  5  6  2  0
  6  7  1  0
  7  8  2  0
  8  9  1  0
  8 10  1  0
 10 11  1  0
 10 12  2  0
 12 13  1  0
 12 14  1  0
 14 15  1  0
 14 16  2  0
 16 17  1  0
 17 18  2  0
 17 19  1  0
 19 20  1  0
 20 21  1  0
 20 22  1  0
 20 23  1  0
 23 24  2  0
 24 25  1  0
 24 26  1  0
 26 27  1  0
 26 28  2  0
 28 29  1  0
 28 30  1  0
 30 31  1  0
 30 32  2  0
 32 33  1  0
  2 34  1  0
 34 35  2  0
 35 36  1  0
 35 37  1  0
 37 38  1  0
 37 39  2  0
 39 40  1  0
 40 41  1  0
 41 42  1  0
 41 43  1  0
 41 44  1  0
 39 45  1  0
 45 46  1  0
 45 47  2  0
 47 48  1  0
 19  5  1  0
 32 23  1  0
 47 34  1  0
 16  7  1  0
M  END
>  <UniqueID>  (3) 
69

>  <SMILES>  (3) 
COc1ccc(/C=C/c2nc3ccccc3c(=O)n2Cc2ccccc2)cc1

>  <Energy>  (3) 
68.61639091905492

>  <Genealogy>  (3) 
COc1ccc(/C=C/c2nc3ccccc3c(=O)n2Cc2ccccc2)cc1 (cis-trans isomerization)
COc1ccc(/C=C/c2nc3ccccc3c(=O)n2Cc2ccccc2)cc1 (3D coordinates assigned)
COc1ccc(/C=C/c2nc3ccccc3c(=O)n2Cc2ccccc2)cc1 (optimized conformer: 68.61639091905492 kcal/mol)

>  <smiles>  (3) 
COc1ccc(/C=C/c2nc3ccccc3c(=O)n2Cc2ccccc2)cc1

>  <score_type>  (3) 
oracle

>  <origin>  (3) 
autodockgpu

>  <m_score__min__energy>  (3) 
-7.7300000000000004

>  <m_primary>  (3) 
energy

>  <meeko>  (3) 
{"free_energy": -7.63, "intermolecular_energy": -9.42, "internal_energy": -1.09, "cluster_size": 3, "cluster_id": 2, "rank_in_cluster": 1}

>  <energy>  (3) 
-7.61

>  <cluster_rmsd>  (3) 
1.47

>  <rmsd>  (3) 
270.45

>  <cluster>  (3) 
1

$$$$
OVVDNOVAKMLMDA-DTQAZKPQNA-N
     RDKit          3D

 48 51  0  0  0  0  0  0  0  0999 V2000
  138.8004   73.4062  222.5614 H   0  0  0  0  0  0  0  0  0  0  0  0
  139.5980   72.6600  222.4310 C   0  0  0  0  0  0  0  0  0  0  0  0
  140.6280   72.9650  221.6310 C   0  0  0  0  0  0  0  0  0  0  0  0
  141.2515   72.1589  221.2169 H   0  0  0  0  0  0  0  0  0  0  0  0
  140.9360   74.3660  221.2990 C   0  0  0  0  0  0  0  0  0  0  0  0
  140.4390   75.3280  222.1210 N   0  0  0  0  0  0  0  0  0  0  0  0
  140.6820   76.6420  221.9070 C   0  0  0  0  0  0  0  0  0  0  0  0
  140.1520   77.6050  222.7770 C   0  0  0  0  0  0  0  0  0  0  0  0
  139.5361   77.2926  223.6332 H   0  0  0  0  0  0  0  0  0  0  0  0
  140.4060   78.9640  222.5570 C   0  0  0  0  0  0  0  0  0  0  0  0
  139.9933   79.7188  223.2425 H   0  0  0  0  0  0  0  0  0  0  0  0
  141.1850   79.3620  221.4650 C   0  0  0  0  0  0  0  0  0  0  0  0
  141.3809   80.4305  221.2922 H   0  0  0  0  0  0  0  0  0  0  0  0
  141.7170   78.4040  220.5900 C   0  0  0  0  0  0  0  0  0  0  0  0
  142.3293   78.7221  219.7334 H   0  0  0  0  0  0  0  0  0  0  0  0
  141.4680   77.0350  220.8070 C   0  0  0  0  0  0  0  0  0  0  0  0
  141.9860   76.0340  219.9640 C   0  0  0  0  0  0  0  0  0  0  0  0
  142.6870   76.3650  218.9650 O   0  0  0  0  0  0  0  0  0  0  0  0
  141.7280   74.7070  220.2230 N   0  0  0  0  0  0  0  0  0  0  0  0
  142.3140   73.6560  219.3530 C   0  0  0  0  0  0  0  0  0  0  0  0
  141.7002   72.7465  219.4313 H   0  0  0  0  0  0  0  0  0  0  0  0
  142.3288   74.0367  218.3211 H   0  0  0  0  0  0  0  0  0  0  0  0
  143.7340   73.3230  219.7500 C   0  0  0  0  0  0  0  0  0  0  0  0
  144.4650   74.1730  220.6070 C   0  0  0  0  0  0  0  0  0  0  0  0
  144.0155   75.1119  220.9627 H   0  0  0  0  0  0  0  0  0  0  0  0
  145.7620   73.8240  221.0060 C   0  0  0  0  0  0  0  0  0  0  0  0
  146.3326   74.4938  221.6661 H   0  0  0  0  0  0  0  0  0  0  0  0
  146.3320   72.6250  220.5660 C   0  0  0  0  0  0  0  0  0  0  0  0
  147.3583   72.3635  220.8632 H   0  0  0  0  0  0  0  0  0  0  0  0
  145.5980   71.7560  219.7470 C   0  0  0  0  0  0  0  0  0  0  0  0
  146.0436   70.8075  219.4126 H   0  0  0  0  0  0  0  0  0  0  0  0
  144.2990   72.0950  219.3550 C   0  0  0  0  0  0  0  0  0  0  0  0
  143.7155   71.3987  218.7348 H   0  0  0  0  0  0  0  0  0  0  0  0
  139.4770   71.3690  223.1500 C   0  0  0  0  0  0  0  0  0  0  0  0
  140.2030   71.1880  224.3420 C   0  0  0  0  0  0  0  0  0  0  0  0
  140.8546   71.9933  224.7122 H   0  0  0  0  0  0  0  0  0  0  0  0
  140.1020   69.9920  225.0590 C   0  0  0  0  0  0  0  0  0  0  0  0
  140.6637   69.8688  225.9967 H   0  0  0  0  0  0  0  0  0  0  0  0
  139.2900   68.9480  224.5920 C   0  0  0  0  0  0  0  0  0  0  0  0
  139.2090   67.7740  225.3600 O   0  0  0  0  0  0  0  0  0  0  0  0
  140.0100   67.5090  226.5180 C   0  0  0  0  0  0  0  0  0  0  0  0
  139.4192   67.7045  227.4251 H   0  0  0  0  0  0  0  0  0  0  0  0
  140.3308   66.4569  226.5090 H   0  0  0  0  0  0  0  0  0  0  0  0
  140.8950   68.1622  226.5090 H   0  0  0  0  0  0  0  0  0  0  0  0
  138.5870   69.1100  223.3800 C   0  0  0  0  0  0  0  0  0  0  0  0
  137.9646   68.2893  222.9939 H   0  0  0  0  0  0  0  0  0  0  0  0
  138.6780   70.3100  222.6670 C   0  0  0  0  0  0  0  0  0  0  0  0
  138.1237   70.4293  221.7244 H   0  0  0  0  0  0  0  0  0  0  0  0
  1  2  1  0
  2  3  2  0
  3  4  1  0
  3  5  1  0
  5  6  2  0
  6  7  1  0
  7  8  2  0
  8  9  1  0
  8 10  1  0
 10 11  1  0
 10 12  2  0
 12 13  1  0
 12 14  1  0
 14 15  1  0
 14 16  2  0
 16 17  1  0
 17 18  2  0
 17 19  1  0
 19 20  1  0
 20 21  1  0
 20 22  1  0
 20 23  1  0
 23 24  2  0
 24 25  1  0
 24 26  1  0
 26 27  1  0
 26 28  2  0
 28 29  1  0
 28 30  1  0
 30 31  1  0
 30 32  2  0
 32 33  1  0
  2 34  1  0
 34 35  2  0
 35 36  1  0
 35 37  1  0
 37 38  1  0
 37 39  2  0
 39 40  1  0
 40 41  1  0
 41 42  1  0
 41 43  1  0
 41 44  1  0
 39 45  1  0
 45 46  1  0
 45 47  2  0
 47 48  1  0
 19  5  1  0
 32 23  1  0
 47 34  1  0
 16  7  1  0
M  END
>  <UniqueID>  (4) 
69

>  <SMILES>  (4) 
COc1ccc(/C=C/c2nc3ccccc3c(=O)n2Cc2ccccc2)cc1

>  <Energy>  (4) 
68.61639091905492

>  <Genealogy>  (4) 
COc1ccc(/C=C/c2nc3ccccc3c(=O)n2Cc2ccccc2)cc1 (cis-trans isomerization)
COc1ccc(/C=C/c2nc3ccccc3c(=O)n2Cc2ccccc2)cc1 (3D coordinates assigned)
COc1ccc(/C=C/c2nc3ccccc3c(=O)n2Cc2ccccc2)cc1 (optimized conformer: 68.61639091905492 kcal/mol)

>  <smiles>  (4) 
COc1ccc(/C=C/c2nc3ccccc3c(=O)n2Cc2ccccc2)cc1

>  <score_type>  (4) 
oracle

>  <origin>  (4) 
autodockgpu

>  <m_score__min__energy>  (4) 
-7.7300000000000004

>  <m_primary>  (4) 
energy

>  <meeko>  (4) 
{"free_energy": -7.62, "intermolecular_energy": -9.41, "internal_energy": -1.08, "cluster_size": 7, "cluster_id": 1, "rank_in_cluster": 2}

>  <energy>  (4) 
-7.59

>  <cluster_rmsd>  (4) 
0.29

>  <rmsd>  (4) 
270.02

>  <cluster>  (4) 
1

$$$$
OVVDNOVAKMLMDA-DTQAZKPQNA-N
     RDKit          3D

 48 51  0  0  0  0  0  0  0  0999 V2000
  136.7788   75.0255  221.4452 H   0  0  0  0  0  0  0  0  0  0  0  0
  136.9920   75.4600  222.4330 C   0  0  0  0  0  0  0  0  0  0  0  0
  138.0660   76.2480  222.5610 C   0  0  0  0  0  0  0  0  0  0  0  0
  137.9755   77.2087  223.0891 H   0  0  0  0  0  0  0  0  0  0  0  0
  139.3680   75.8440  222.0030 C   0  0  0  0  0  0  0  0  0  0  0  0
  139.6780   74.5210  222.0330 N   0  0  0  0  0  0  0  0  0  0  0  0
  140.8440   74.0520  221.5300 C   0  0  0  0  0  0  0  0  0  0  0  0
  141.1280   72.6790  221.5780 C   0  0  0  0  0  0  0  0  0  0  0  0
  140.4041   71.9830  222.0269 H   0  0  0  0  0  0  0  0  0  0  0  0
  142.3320   72.1950  221.0550 C   0  0  0  0  0  0  0  0  0  0  0  0
  142.5525   71.1179  221.0895 H   0  0  0  0  0  0  0  0  0  0  0  0
  143.2560   73.0800  220.4880 C   0  0  0  0  0  0  0  0  0  0  0  0
  144.2032   72.6971  220.0804 H   0  0  0  0  0  0  0  0  0  0  0  0
  142.9780   74.4530  220.4380 C   0  0  0  0  0  0  0  0  0  0  0  0
  143.7072   75.1446  219.9909 H   0  0  0  0  0  0  0  0  0  0  0  0
  141.7670   74.9490  220.9590 C   0  0  0  0  0  0  0  0  0  0  0  0
  141.4370   76.3160  220.9240 C   0  0  0  0  0  0  0  0  0  0  0  0
  142.2560   77.1400  220.4250 O   0  0  0  0  0  0  0  0  0  0  0  0
  140.2360   76.7530  221.4340 N   0  0  0  0  0  0  0  0  0  0  0  0
  139.8770   78.1910  221.3550 C   0  0  0  0  0  0  0  0  0  0  0  0
  139.9481   78.5184  220.3073 H   0  0  0  0  0  0  0  0  0  0  0  0
  138.8526   78.3086  221.7380 H   0  0  0  0  0  0  0  0  0  0  0  0
  140.7940   79.0470  222.1980 C   0  0  0  0  0  0  0  0  0  0  0  0
  141.2260   78.6130  223.4690 C   0  0  0  0  0  0  0  0  0  0  0  0
  140.8631   77.6571  223.8747 H   0  0  0  0  0  0  0  0  0  0  0  0
  142.1160   79.3960  224.2160 C   0  0  0  0  0  0  0  0  0  0  0  0
  142.4425   79.0585  225.2107 H   0  0  0  0  0  0  0  0  0  0  0  0
  142.5900   80.6060  223.6990 C   0  0  0  0  0  0  0  0  0  0  0  0
  143.2711   81.2296  224.2967 H   0  0  0  0  0  0  0  0  0  0  0  0
  142.1980   81.0250  222.4200 C   0  0  0  0  0  0  0  0  0  0  0  0
  142.5823   81.9703  222.0091 H   0  0  0  0  0  0  0  0  0  0  0  0
  141.3180   80.2410  221.6660 C   0  0  0  0  0  0  0  0  0  0  0  0
  141.0338   80.5590  220.6520 H   0  0  0  0  0  0  0  0  0  0  0  0
  136.0740   75.1420  223.5540 C   0  0  0  0  0  0  0  0  0  0  0  0
  135.8180   73.7920  223.8560 C   0  0  0  0  0  0  0  0  0  0  0  0
  136.2861   72.9992  223.2540 H   0  0  0  0  0  0  0  0  0  0  0  0
  134.9720   73.4510  224.9170 C   0  0  0  0  0  0  0  0  0  0  0  0
  134.7901   72.3918  225.1515 H   0  0  0  0  0  0  0  0  0  0  0  0
  134.3540   74.4500  225.6840 C   0  0  0  0  0  0  0  0  0  0  0  0
  133.5290   74.0530  226.7510 O   0  0  0  0  0  0  0  0  0  0  0  0
  132.8380   72.8000  226.8150 C   0  0  0  0  0  0  0  0  0  0  0  0
  132.6835   72.5198  227.8674 H   0  0  0  0  0  0  0  0  0  0  0  0
  131.8634   72.8927  226.3134 H   0  0  0  0  0  0  0  0  0  0  0  0
  133.4364   72.0252  226.3134 H   0  0  0  0  0  0  0  0  0  0  0  0
  134.5800   75.8050  225.3650 C   0  0  0  0  0  0  0  0  0  0  0  0
  134.0831   76.5952  225.9469 H   0  0  0  0  0  0  0  0  0  0  0  0
  135.4340   76.1480  224.3110 C   0  0  0  0  0  0  0  0  0  0  0  0
  135.6079   77.2072  224.0706 H   0  0  0  0  0  0  0  0  0  0  0  0
  1  2  1  0
  2  3  2  0
  3  4  1  0
  3  5  1  0
  5  6  2  0
  6  7  1  0
  7  8  2  0
  8  9  1  0
  8 10  1  0
 10 11  1  0
 10 12  2  0
 12 13  1  0
 12 14  1  0
 14 15  1  0
 14 16  2  0
 16 17  1  0
 17 18  2  0
 17 19  1  0
 19 20  1  0
 20 21  1  0
 20 22  1  0
 20 23  1  0
 23 24  2  0
 24 25  1  0
 24 26  1  0
 26 27  1  0
 26 28  2  0
 28 29  1  0
 28 30  1  0
 30 31  1  0
 30 32  2  0
 32 33  1  0
  2 34  1  0
 34 35  2  0
 35 36  1  0
 35 37  1  0
 37 38  1  0
 37 39  2  0
 39 40  1  0
 40 41  1  0
 41 42  1  0
 41 43  1  0
 41 44  1  0
 39 45  1  0
 45 46  1  0
 45 47  2  0
 47 48  1  0
 19  5  1  0
 32 23  1  0
 47 34  1  0
 16  7  1  0
M  END
>  <UniqueID>  (5) 
69

>  <SMILES>  (5) 
COc1ccc(/C=C/c2nc3ccccc3c(=O)n2Cc2ccccc2)cc1

>  <Energy>  (5) 
68.61639091905492

>  <Genealogy>  (5) 
COc1ccc(/C=C/c2nc3ccccc3c(=O)n2Cc2ccccc2)cc1 (cis-trans isomerization)
COc1ccc(/C=C/c2nc3ccccc3c(=O)n2Cc2ccccc2)cc1 (3D coordinates assigned)
COc1ccc(/C=C/c2nc3ccccc3c(=O)n2Cc2ccccc2)cc1 (optimized conformer: 68.61639091905492 kcal/mol)

>  <smiles>  (5) 
COc1ccc(/C=C/c2nc3ccccc3c(=O)n2Cc2ccccc2)cc1

>  <score_type>  (5) 
oracle

>  <origin>  (5) 
autodockgpu

>  <m_score__min__energy>  (5) 
-7.7300000000000004

>  <m_primary>  (5) 
energy

>  <meeko>  (5) 
{"free_energy": -7.62, "intermolecular_energy": -9.41, "internal_energy": -1.1, "cluster_size": 3, "cluster_id": 2, "rank_in_cluster": 3}

>  <energy>  (5) 
-7.54

>  <cluster_rmsd>  (5) 
0.67

>  <rmsd>  (5) 
270.23

>  <cluster>  (5) 
1

$$$$
OVVDNOVAKMLMDA-DTQAZKPQNA-N
     RDKit          3D

 48 51  0  0  0  0  0  0  0  0999 V2000
  139.0484   73.8180  222.3996 H   0  0  0  0  0  0  0  0  0  0  0  0
  139.5680   72.8730  222.1830 C   0  0  0  0  0  0  0  0  0  0  0  0
  138.9390   71.7240  222.4620 C   0  0  0  0  0  0  0  0  0  0  0  0
  138.1617   71.3505  221.7791 H   0  0  0  0  0  0  0  0  0  0  0  0
  139.2750   70.9550  223.6710 C   0  0  0  0  0  0  0  0  0  0  0  0
  139.9630   71.5980  224.6510 N   0  0  0  0  0  0  0  0  0  0  0  0
  140.3040   70.9780  225.8050 C   0  0  0  0  0  0  0  0  0  0  0  0
  141.0130   71.6750  226.7940 C   0  0  0  0  0  0  0  0  0  0  0  0
  141.2949   72.7257  226.6308 H   0  0  0  0  0  0  0  0  0  0  0  0
  141.3620   71.0350  227.9880 C   0  0  0  0  0  0  0  0  0  0  0  0
  141.9150   71.5838  228.7646 H   0  0  0  0  0  0  0  0  0  0  0  0
  141.0080   69.6970  228.1950 C   0  0  0  0  0  0  0  0  0  0  0  0
  141.2861   69.1952  229.1336 H   0  0  0  0  0  0  0  0  0  0  0  0
  140.3000   68.9940  227.2100 C   0  0  0  0  0  0  0  0  0  0  0  0
  140.0239   67.9424  227.3769 H   0  0  0  0  0  0  0  0  0  0  0  0
  139.9420   69.6330  226.0070 C   0  0  0  0  0  0  0  0  0  0  0  0
  139.2230   68.9750  224.9920 C   0  0  0  0  0  0  0  0  0  0  0  0
  138.8970   67.7620  225.1480 O   0  0  0  0  0  0  0  0  0  0  0  0
  138.8830   69.6420  223.8370 N   0  0  0  0  0  0  0  0  0  0  0  0
  138.0890   68.9540  222.7900 C   0  0  0  0  0  0  0  0  0  0  0  0
  137.3811   68.2660  223.2753 H   0  0  0  0  0  0  0  0  0  0  0  0
  137.5598   69.7207  222.2051 H   0  0  0  0  0  0  0  0  0  0  0  0
  138.9650   68.1660  221.8440 C   0  0  0  0  0  0  0  0  0  0  0  0
  139.7930   68.8200  220.9080 C   0  0  0  0  0  0  0  0  0  0  0  0
  139.7753   69.9173  220.8333 H   0  0  0  0  0  0  0  0  0  0  0  0
  140.6380   68.0770  220.0730 C   0  0  0  0  0  0  0  0  0  0  0  0
  141.2743   68.5909  219.3375 H   0  0  0  0  0  0  0  0  0  0  0  0
  140.6730   66.6830  220.1740 C   0  0  0  0  0  0  0  0  0  0  0  0
  141.3208   66.1000  219.5029 H   0  0  0  0  0  0  0  0  0  0  0  0
  139.8840   66.0270  221.1290 C   0  0  0  0  0  0  0  0  0  0  0  0
  139.9224   64.9311  221.2153 H   0  0  0  0  0  0  0  0  0  0  0  0
  139.0480   66.7660  221.9720 C   0  0  0  0  0  0  0  0  0  0  0  0
  138.4518   66.2508  222.7395 H   0  0  0  0  0  0  0  0  0  0  0  0
  140.9290   72.9370  221.5970 C   0  0  0  0  0  0  0  0  0  0  0  0
  141.4400   74.1890  221.2080 C   0  0  0  0  0  0  0  0  0  0  0  0
  140.8237   75.0921  221.3290 H   0  0  0  0  0  0  0  0  0  0  0  0
  142.7250   74.2930  220.6690 C   0  0  0  0  0  0  0  0  0  0  0  0
  143.1174   75.2795  220.3810 H   0  0  0  0  0  0  0  0  0  0  0  0
  143.5190   73.1500  220.4920 C   0  0  0  0  0  0  0  0  0  0  0  0
  144.8110   73.3130  219.9630 O   0  0  0  0  0  0  0  0  0  0  0  0
  145.9490   73.7290  220.7270 C   0  0  0  0  0  0  0  0  0  0  0  0
  145.7208   73.6456  221.7998 H   0  0  0  0  0  0  0  0  0  0  0  0
  146.8084   73.0869  220.4839 H   0  0  0  0  0  0  0  0  0  0  0  0
  146.1917   74.7740  220.4839 H   0  0  0  0  0  0  0  0  0  0  0  0
  143.0000   71.8880  220.8480 C   0  0  0  0  0  0  0  0  0  0  0  0
  143.6058   70.9831  220.6926 H   0  0  0  0  0  0  0  0  0  0  0  0
  141.7180   71.7820  221.3980 C   0  0  0  0  0  0  0  0  0  0  0  0
  141.3222   70.7943  221.6769 H   0  0  0  0  0  0  0  0  0  0  0  0
  1  2  1  0
  2  3  2  0
  3  4  1  0
  3  5  1  0
  5  6  2  0
  6  7  1  0
  7  8  2  0
  8  9  1  0
  8 10  1  0
 10 11  1  0
 10 12  2  0
 12 13  1  0
 12 14  1  0
 14 15  1  0
 14 16  2  0
 16 17  1  0
 17 18  2  0
 17 19  1  0
 19 20  1  0
 20 21  1  0
 20 22  1  0
 20 23  1  0
 23 24  2  0
 24 25  1  0
 24 26  1  0
 26 27  1  0
 26 28  2  0
 28 29  1  0
 28 30  1  0
 30 31  1  0
 30 32  2  0
 32 33  1  0
  2 34  1  0
 34 35  2  0
 35 36  1  0
 35 37  1  0
 37 38  1  0
 37 39  2  0
 39 40  1  0
 40 41  1  0
 41 42  1  0
 41 43  1  0
 41 44  1  0
 39 45  1  0
 45 46  1  0
 45 47  2  0
 47 48  1  0
 19  5  1  0
 32 23  1  0
 47 34  1  0
 16  7  1  0
M  END
>  <UniqueID>  (6) 
69

>  <SMILES>  (6) 
COc1ccc(/C=C/c2nc3ccccc3c(=O)n2Cc2ccccc2)cc1

>  <Energy>  (6) 
68.61639091905492

>  <Genealogy>  (6) 
COc1ccc(/C=C/c2nc3ccccc3c(=O)n2Cc2ccccc2)cc1 (cis-trans isomerization)
COc1ccc(/C=C/c2nc3ccccc3c(=O)n2Cc2ccccc2)cc1 (3D coordinates assigned)
COc1ccc(/C=C/c2nc3ccccc3c(=O)n2Cc2ccccc2)cc1 (optimized conformer: 68.61639091905492 kcal/mol)

>  <smiles>  (6) 
COc1ccc(/C=C/c2nc3ccccc3c(=O)n2Cc2ccccc2)cc1

>  <score_type>  (6) 
oracle

>  <origin>  (6) 
autodockgpu

>  <m_score__min__energy>  (6) 
-7.7300000000000004

>  <m_primary>  (6) 
energy

>  <meeko>  (6) 
{"free_energy": -7.31, "intermolecular_energy": -9.1, "internal_energy": -1.54, "cluster_size": 7, "cluster_id": 3, "rank_in_cluster": 6}

>  <energy>  (6) 
-7.51

>  <cluster_rmsd>  (6) 
0.64

>  <rmsd>  (6) 
270.2

>  <cluster>  (6) 
1

$$$$
OVVDNOVAKMLMDA-DTQAZKPQNA-N
     RDKit          3D

 48 51  0  0  0  0  0  0  0  0999 V2000
  141.9748   72.8214  222.5274 H   0  0  0  0  0  0  0  0  0  0  0  0
  140.8940   72.6280  222.4610 C   0  0  0  0  0  0  0  0  0  0  0  0
  140.1410   73.4730  221.7460 C   0  0  0  0  0  0  0  0  0  0  0  0
  139.1706   73.1361  221.3524 H   0  0  0  0  0  0  0  0  0  0  0  0
  140.5960   74.8480  221.4800 C   0  0  0  0  0  0  0  0  0  0  0  0
  140.1880   75.8200  222.3370 N   0  0  0  0  0  0  0  0  0  0  0  0
  140.5680   77.1100  222.1840 C   0  0  0  0  0  0  0  0  0  0  0  0
  140.1250   78.0850  223.0900 C   0  0  0  0  0  0  0  0  0  0  0  0
  139.4665   77.8019  223.9244 H   0  0  0  0  0  0  0  0  0  0  0  0
  140.5210   79.4180  222.9320 C   0  0  0  0  0  0  0  0  0  0  0  0
  140.1770   80.1817  223.6450 H   0  0  0  0  0  0  0  0  0  0  0  0
  141.3540   79.7800  221.8680 C   0  0  0  0  0  0  0  0  0  0  0  0
  141.6611   80.8291  221.7447 H   0  0  0  0  0  0  0  0  0  0  0  0
  141.7990   78.8100  220.9580 C   0  0  0  0  0  0  0  0  0  0  0  0
  142.4550   79.0993  220.1237 H   0  0  0  0  0  0  0  0  0  0  0  0
  141.4070   77.4660  221.1110 C   0  0  0  0  0  0  0  0  0  0  0  0
  141.8340   76.4540  220.2320 C   0  0  0  0  0  0  0  0  0  0  0  0
  142.5810   76.7530  219.2560 O   0  0  0  0  0  0  0  0  0  0  0  0
  141.4370   75.1510  220.4290 N   0  0  0  0  0  0  0  0  0  0  0  0
  141.9260   74.0830  219.5210 C   0  0  0  0  0  0  0  0  0  0  0  0
  141.2529   73.2162  219.5966 H   0  0  0  0  0  0  0  0  0  0  0  0
  141.9404   74.4860  218.4976 H   0  0  0  0  0  0  0  0  0  0  0  0
  143.3290   73.6440  219.8710 C   0  0  0  0  0  0  0  0  0  0  0  0
  144.2400   74.5400  220.4700 C   0  0  0  0  0  0  0  0  0  0  0  0
  143.9437   75.5836  220.6517 H   0  0  0  0  0  0  0  0  0  0  0  0
  145.5210   74.1040  220.8340 C   0  0  0  0  0  0  0  0  0  0  0  0
  146.2317   74.8083  221.2911 H   0  0  0  0  0  0  0  0  0  0  0  0
  145.8970   72.7750  220.6170 C   0  0  0  0  0  0  0  0  0  0  0  0
  146.9104   72.4406  220.8839 H   0  0  0  0  0  0  0  0  0  0  0  0
  144.9850   71.8680  220.0600 C   0  0  0  0  0  0  0  0  0  0  0  0
  145.2787   70.8198  219.9020 H   0  0  0  0  0  0  0  0  0  0  0  0
  143.7010   72.2960  219.7050 C   0  0  0  0  0  0  0  0  0  0  0  0
  142.9783   71.5757  219.2941 H   0  0  0  0  0  0  0  0  0  0  0  0
  140.3470   71.4450  223.1680 C   0  0  0  0  0  0  0  0  0  0  0  0
  140.6400   71.2770  224.5340 C   0  0  0  0  0  0  0  0  0  0  0  0
  141.2764   72.0108  225.0502 H   0  0  0  0  0  0  0  0  0  0  0  0
  140.1280   70.1840  225.2400 C   0  0  0  0  0  0  0  0  0  0  0  0
  140.3539   70.0717  226.3107 H   0  0  0  0  0  0  0  0  0  0  0  0
  139.3290   69.2300  224.5940 C   0  0  0  0  0  0  0  0  0  0  0  0
  138.8240   68.1610  225.3540 O   0  0  0  0  0  0  0  0  0  0  0  0
  139.5050   67.5680  226.4660 C   0  0  0  0  0  0  0  0  0  0  0  0
  139.0722   67.9449  227.4044 H   0  0  0  0  0  0  0  0  0  0  0  0
  139.3931   66.4745  226.4238 H   0  0  0  0  0  0  0  0  0  0  0  0
  140.5727   67.8292  226.4238 H   0  0  0  0  0  0  0  0  0  0  0  0
  139.0590   69.3730  223.2170 C   0  0  0  0  0  0  0  0  0  0  0  0
  138.4509   68.6186  222.6965 H   0  0  0  0  0  0  0  0  0  0  0  0
  139.5620   70.4710  222.5110 C   0  0  0  0  0  0  0  0  0  0  0  0
  139.3451   70.5768  221.4378 H   0  0  0  0  0  0  0  0  0  0  0  0
  1  2  1  0
  2  3  2  0
  3  4  1  0
  3  5  1  0
  5  6  2  0
  6  7  1  0
  7  8  2  0
  8  9  1  0
  8 10  1  0
 10 11  1  0
 10 12  2  0
 12 13  1  0
 12 14  1  0
 14 15  1  0
 14 16  2  0
 16 17  1  0
 17 18  2  0
 17 19  1  0
 19 20  1  0
 20 21  1  0
 20 22  1  0
 20 23  1  0
 23 24  2  0
 24 25  1  0
 24 26  1  0
 26 27  1  0
 26 28  2  0
 28 29  1  0
 28 30  1  0
 30 31  1  0
 30 32  2  0
 32 33  1  0
  2 34  1  0
 34 35  2  0
 35 36  1  0
 35 37  1  0
 37 38  1  0
 37 39  2  0
 39 40  1  0
 40 41  1  0
 41 42  1  0
 41 43  1  0
 41 44  1  0
 39 45  1  0
 45 46  1  0
 45 47  2  0
 47 48  1  0
 19  5  1  0
 32 23  1  0
 47 34  1  0
 16  7  1  0
M  END
>  <UniqueID>  (7) 
69

>  <SMILES>  (7) 
COc1ccc(/C=C/c2nc3ccccc3c(=O)n2Cc2ccccc2)cc1

>  <Energy>  (7) 
68.61639091905492

>  <Genealogy>  (7) 
COc1ccc(/C=C/c2nc3ccccc3c(=O)n2Cc2ccccc2)cc1 (cis-trans isomerization)
COc1ccc(/C=C/c2nc3ccccc3c(=O)n2Cc2ccccc2)cc1 (3D coordinates assigned)
COc1ccc(/C=C/c2nc3ccccc3c(=O)n2Cc2ccccc2)cc1 (optimized conformer: 68.61639091905492 kcal/mol)

>  <smiles>  (7) 
COc1ccc(/C=C/c2nc3ccccc3c(=O)n2Cc2ccccc2)cc1

>  <score_type>  (7) 
oracle

>  <origin>  (7) 
autodockgpu

>  <m_score__min__energy>  (7) 
-7.7300000000000004

>  <m_primary>  (7) 
energy

>  <meeko>  (7) 
{"free_energy": -7.51, "intermolecular_energy": -9.3, "internal_energy": -1.18, "cluster_size": 7, "cluster_id": 1, "rank_in_cluster": 6}

>  <energy>  (7) 
-7.44

>  <cluster_rmsd>  (7) 
1.25

>  <rmsd>  (7) 
270.36

>  <cluster>  (7) 
1

$$$$
OVVDNOVAKMLMDA-DTQAZKPQNA-N
     RDKit          3D

 48 51  0  0  0  0  0  0  0  0999 V2000
  141.9512   72.6822  222.1475 H   0  0  0  0  0  0  0  0  0  0  0  0
  140.8650   72.6140  222.3070 C   0  0  0  0  0  0  0  0  0  0  0  0
  140.0790   73.5280  221.7250 C   0  0  0  0  0  0  0  0  0  0  0  0
  139.0542   73.2565  221.4317 H   0  0  0  0  0  0  0  0  0  0  0  0
  140.5710   74.8930  221.4730 C   0  0  0  0  0  0  0  0  0  0  0  0
  140.1650   75.8720  222.3240 N   0  0  0  0  0  0  0  0  0  0  0  0
  140.5760   77.1540  222.1830 C   0  0  0  0  0  0  0  0  0  0  0  0
  140.1350   78.1360  223.0810 C   0  0  0  0  0  0  0  0  0  0  0  0
  139.4515   77.8654  223.8993 H   0  0  0  0  0  0  0  0  0  0  0  0
  140.5640   79.4610  222.9370 C   0  0  0  0  0  0  0  0  0  0  0  0
  140.2210   80.2304  223.6444 H   0  0  0  0  0  0  0  0  0  0  0  0
  141.4290   79.8060  221.8930 C   0  0  0  0  0  0  0  0  0  0  0  0
  141.7630   80.8480  221.7804 H   0  0  0  0  0  0  0  0  0  0  0  0
  141.8720   78.8300  220.9900 C   0  0  0  0  0  0  0  0  0  0  0  0
  142.5513   79.1074  220.1705 H   0  0  0  0  0  0  0  0  0  0  0  0
  141.4480   77.4940  221.1310 C   0  0  0  0  0  0  0  0  0  0  0  0
  141.8720   76.4750  220.2580 C   0  0  0  0  0  0  0  0  0  0  0  0
  142.6470   76.7590  219.3000 O   0  0  0  0  0  0  0  0  0  0  0  0
  141.4420   75.1800  220.4420 N   0  0  0  0  0  0  0  0  0  0  0  0
  141.9270   74.1040  219.5430 C   0  0  0  0  0  0  0  0  0  0  0  0
  141.2439   73.2449  219.6159 H   0  0  0  0  0  0  0  0  0  0  0  0
  141.9549   74.5029  218.5183 H   0  0  0  0  0  0  0  0  0  0  0  0
  143.3220   73.6510  219.9070 C   0  0  0  0  0  0  0  0  0  0  0  0
  144.2530   74.5510  220.4680 C   0  0  0  0  0  0  0  0  0  0  0  0
  143.9788   75.6070  220.6081 H   0  0  0  0  0  0  0  0  0  0  0  0
  145.5250   74.1040  220.8470 C   0  0  0  0  0  0  0  0  0  0  0  0
  146.2512   74.8113  221.2741 H   0  0  0  0  0  0  0  0  0  0  0  0
  145.8730   72.7590  220.6830 C   0  0  0  0  0  0  0  0  0  0  0  0
  146.8799   72.4145  220.9612 H   0  0  0  0  0  0  0  0  0  0  0  0
  144.9410   71.8500  220.1650 C   0  0  0  0  0  0  0  0  0  0  0  0
  145.2121   70.7902  220.0493 H   0  0  0  0  0  0  0  0  0  0  0  0
  143.6660   72.2900  219.7950 C   0  0  0  0  0  0  0  0  0  0  0  0
  142.9277   71.5689  219.4143 H   0  0  0  0  0  0  0  0  0  0  0  0
  140.3460   71.5140  223.1560 C   0  0  0  0  0  0  0  0  0  0  0  0
  139.6310   70.4670  222.5450 C   0  0  0  0  0  0  0  0  0  0  0  0
  139.4564   70.4860  221.4591 H   0  0  0  0  0  0  0  0  0  0  0  0
  139.1410   69.4030  223.3080 C   0  0  0  0  0  0  0  0  0  0  0  0
  138.5951   68.5845  222.8159 H   0  0  0  0  0  0  0  0  0  0  0  0
  139.3400   69.3710  224.6960 C   0  0  0  0  0  0  0  0  0  0  0  0
  138.8440   68.2690  225.4140 O   0  0  0  0  0  0  0  0  0  0  0  0
  139.5970   67.5340  226.3870 C   0  0  0  0  0  0  0  0  0  0  0  0
  139.2858   67.8378  227.3974 H   0  0  0  0  0  0  0  0  0  0  0  0
  139.4142   66.4573  226.2552 H   0  0  0  0  0  0  0  0  0  0  0  0
  140.6689   67.7428  226.2552 H   0  0  0  0  0  0  0  0  0  0  0  0
  140.0270   70.4340  225.3200 C   0  0  0  0  0  0  0  0  0  0  0  0
  140.1699   70.4292  226.4107 H   0  0  0  0  0  0  0  0  0  0  0  0
  140.5270   71.4940  224.5560 C   0  0  0  0  0  0  0  0  0  0  0  0
  141.0646   72.3172  225.0493 H   0  0  0  0  0  0  0  0  0  0  0  0
  1  2  1  0
  2  3  2  0
  3  4  1  0
  3  5  1  0
  5  6  2  0
  6  7  1  0
  7  8  2  0
  8  9  1  0
  8 10  1  0
 10 11  1  0
 10 12  2  0
 12 13  1  0
 12 14  1  0
 14 15  1  0
 14 16  2  0
 16 17  1  0
 17 18  2  0
 17 19  1  0
 19 20  1  0
 20 21  1  0
 20 22  1  0
 20 23  1  0
 23 24  2  0
 24 25  1  0
 24 26  1  0
 26 27  1  0
 26 28  2  0
 28 29  1  0
 28 30  1  0
 30 31  1  0
 30 32  2  0
 32 33  1  0
  2 34  1  0
 34 35  2  0
 35 36  1  0
 35 37  1  0
 37 38  1  0
 37 39  2  0
 39 40  1  0
 40 41  1  0
 41 42  1  0
 41 43  1  0
 41 44  1  0
 39 45  1  0
 45 46  1  0
 45 47  2  0
 47 48  1  0
 19  5  1  0
 32 23  1  0
 47 34  1  0
 16  7  1  0
M  END
>  <UniqueID>  (8) 
69

>  <SMILES>  (8) 
COc1ccc(/C=C/c2nc3ccccc3c(=O)n2Cc2ccccc2)cc1

>  <Energy>  (8) 
68.61639091905492

>  <Genealogy>  (8) 
COc1ccc(/C=C/c2nc3ccccc3c(=O)n2Cc2ccccc2)cc1 (cis-trans isomerization)
COc1ccc(/C=C/c2nc3ccccc3c(=O)n2Cc2ccccc2)cc1 (3D coordinates assigned)
COc1ccc(/C=C/c2nc3ccccc3c(=O)n2Cc2ccccc2)cc1 (optimized conformer: 68.61639091905492 kcal/mol)

>  <smiles>  (8) 
COc1ccc(/C=C/c2nc3ccccc3c(=O)n2Cc2ccccc2)cc1

>  <score_type>  (8) 
oracle

>  <origin>  (8) 
autodockgpu

>  <m_score__min__energy>  (8) 
-7.7300000000000004

>  <m_primary>  (8) 
energy

>  <meeko>  (8) 
{"free_energy": -7.54, "intermolecular_energy": -9.33, "internal_energy": -1.17, "cluster_size": 7, "cluster_id": 1, "rank_in_cluster": 5}

>  <energy>  (8) 
-7.63

>  <cluster_rmsd>  (8) 
0.0

>  <rmsd>  (8) 
270.24

>  <cluster>  (8) 
2

$$$$
OVVDNOVAKMLMDA-DTQAZKPQNA-N
     RDKit          3D

 48 51  0  0  0  0  0  0  0  0999 V2000
  138.5701   71.4844  222.8696 H   0  0  0  0  0  0  0  0  0  0  0  0
  139.6390   71.4570  223.1280 C   0  0  0  0  0  0  0  0  0  0  0  0
  140.5280   71.8110  222.1910 C   0  0  0  0  0  0  0  0  0  0  0  0
  141.2380   71.0644  221.8056 H   0  0  0  0  0  0  0  0  0  0  0  0
  140.5660   73.1870  221.6710 C   0  0  0  0  0  0  0  0  0  0  0  0
  139.8730   74.1350  222.3540 N   0  0  0  0  0  0  0  0  0  0  0  0
  139.8610   75.4310  221.9620 C   0  0  0  0  0  0  0  0  0  0  0  0
  139.1340   76.3800  222.6940 C   0  0  0  0  0  0  0  0  0  0  0  0
  138.5702   76.0713  223.5866 H   0  0  0  0  0  0  0  0  0  0  0  0
  139.1250   77.7200  222.2900 C   0  0  0  0  0  0  0  0  0  0  0  0
  138.5574   78.4648  222.8672 H   0  0  0  0  0  0  0  0  0  0  0  0
  139.8380   78.1120  221.1520 C   0  0  0  0  0  0  0  0  0  0  0  0
  139.8272   79.1651  220.8344 H   0  0  0  0  0  0  0  0  0  0  0  0
  140.5660   77.1680  220.4150 C   0  0  0  0  0  0  0  0  0  0  0  0
  141.1250   77.4818  219.5211 H   0  0  0  0  0  0  0  0  0  0  0  0
  140.5830   75.8180  220.8170 C   0  0  0  0  0  0  0  0  0  0  0  0
  141.3060   74.8340  220.1180 C   0  0  0  0  0  0  0  0  0  0  0  0
  141.9530   75.1580  219.0810 O   0  0  0  0  0  0  0  0  0  0  0  0
  141.3040   73.5290  220.5560 N   0  0  0  0  0  0  0  0  0  0  0  0
  142.1030   72.5060  219.8370 C   0  0  0  0  0  0  0  0  0  0  0  0
  141.7904   71.5074  220.1764 H   0  0  0  0  0  0  0  0  0  0  0  0
  141.9264   72.6315  218.7585 H   0  0  0  0  0  0  0  0  0  0  0  0
  143.5840   72.6670  220.0910 C   0  0  0  0  0  0  0  0  0  0  0  0
  144.5180   71.7700  219.5290 C   0  0  0  0  0  0  0  0  0  0  0  0
  144.1665   70.9169  218.9301 H   0  0  0  0  0  0  0  0  0  0  0  0
  145.8900   71.9620  219.7310 C   0  0  0  0  0  0  0  0  0  0  0  0
  146.6133   71.2549  219.2987 H   0  0  0  0  0  0  0  0  0  0  0  0
  146.3420   73.0520  220.4820 C   0  0  0  0  0  0  0  0  0  0  0  0
  147.4191   73.1885  220.6586 H   0  0  0  0  0  0  0  0  0  0  0  0
  145.4240   73.9710  221.0100 C   0  0  0  0  0  0  0  0  0  0  0  0
  145.7821   74.8352  221.5887 H   0  0  0  0  0  0  0  0  0  0  0  0
  144.0530   73.7890  220.8010 C   0  0  0  0  0  0  0  0  0  0  0  0
  143.3372   74.5264  221.1934 H   0  0  0  0  0  0  0  0  0  0  0  0
  140.0210   71.0300  224.4960 C   0  0  0  0  0  0  0  0  0  0  0  0
  139.6400   69.7490  224.9360 C   0  0  0  0  0  0  0  0  0  0  0  0
  139.0581   69.0937  224.2711 H   0  0  0  0  0  0  0  0  0  0  0  0
  139.9960   69.3030  226.2130 C   0  0  0  0  0  0  0  0  0  0  0  0
  139.7030   68.2945  226.5402 H   0  0  0  0  0  0  0  0  0  0  0  0
  140.7240   70.1320  227.0800 C   0  0  0  0  0  0  0  0  0  0  0  0
  141.0730   69.6280  228.3440 O   0  0  0  0  0  0  0  0  0  0  0  0
  141.0810   68.2360  228.6860 C   0  0  0  0  0  0  0  0  0  0  0  0
  141.0816   68.1274  229.7806 H   0  0  0  0  0  0  0  0  0  0  0  0
  140.1856   67.7510  228.2699 H   0  0  0  0  0  0  0  0  0  0  0  0
  141.9819   67.7614  228.2699 H   0  0  0  0  0  0  0  0  0  0  0  0
  141.0800   71.4300  226.6570 C   0  0  0  0  0  0  0  0  0  0  0  0
  141.6321   72.0955  227.3370 H   0  0  0  0  0  0  0  0  0  0  0  0
  140.7340   71.8740  225.3770 C   0  0  0  0  0  0  0  0  0  0  0  0
  141.0185   72.8863  225.0539 H   0  0  0  0  0  0  0  0  0  0  0  0
  1  2  1  0
  2  3  2  0
  3  4  1  0
  3  5  1  0
  5  6  2  0
  6  7  1  0
  7  8  2  0
  8  9  1  0
  8 10  1  0
 10 11  1  0
 10 12  2  0
 12 13  1  0
 12 14  1  0
 14 15  1  0
 14 16  2  0
 16 17  1  0
 17 18  2  0
 17 19  1  0
 19 20  1  0
 20 21  1  0
 20 22  1  0
 20 23  1  0
 23 24  2  0
 24 25  1  0
 24 26  1  0
 26 27  1  0
 26 28  2  0
 28 29  1  0
 28 30  1  0
 30 31  1  0
 30 32  2  0
 32 33  1  0
  2 34  1  0
 34 35  2  0
 35 36  1  0
 35 37  1  0
 37 38  1  0
 37 39  2  0
 39 40  1  0
 40 41  1  0
 41 42  1  0
 41 43  1  0
 41 44  1  0
 39 45  1  0
 45 46  1  0
 45 47  2  0
 47 48  1  0
 19  5  1  0
 32 23  1  0
 47 34  1  0
 16  7  1  0
M  END
>  <UniqueID>  (9) 
69

>  <SMILES>  (9) 
COc1ccc(/C=C/c2nc3ccccc3c(=O)n2Cc2ccccc2)cc1

>  <Energy>  (9) 
68.61639091905492

>  <Genealogy>  (9) 
COc1ccc(/C=C/c2nc3ccccc3c(=O)n2Cc2ccccc2)cc1 (cis-trans isomerization)
COc1ccc(/C=C/c2nc3ccccc3c(=O)n2Cc2ccccc2)cc1 (3D coordinates assigned)
COc1ccc(/C=C/c2nc3ccccc3c(=O)n2Cc2ccccc2)cc1 (optimized conformer: 68.61639091905492 kcal/mol)

>  <smiles>  (9) 
COc1ccc(/C=C/c2nc3ccccc3c(=O)n2Cc2ccccc2)cc1

>  <score_type>  (9) 
oracle

>  <origin>  (9) 
autodockgpu

>  <m_score__min__energy>  (9) 
-7.7300000000000004

>  <m_primary>  (9) 
energy

>  <meeko>  (9) 
{"free_energy": -7.61, "intermolecular_energy": -9.4, "internal_energy": -1.06, "cluster_size": 7, "cluster_id": 1, "rank_in_cluster": 3}

>  <energy>  (9) 
-7.63

>  <cluster_rmsd>  (9) 
0.09

>  <rmsd>  (9) 
270.22

>  <cluster>  (9) 
2

$$$$
OVVDNOVAKMLMDA-DTQAZKPQNA-N
     RDKit          3D

 48 51  0  0  0  0  0  0  0  0999 V2000
  138.9662   73.3711  222.0765 H   0  0  0  0  0  0  0  0  0  0  0  0
  139.7000   72.5610  221.9530 C   0  0  0  0  0  0  0  0  0  0  0  0
  139.3190   71.3100  222.2420 C   0  0  0  0  0  0  0  0  0  0  0  0
  138.7954   70.7118  221.4817 H   0  0  0  0  0  0  0  0  0  0  0  0
  139.5930   70.7260  223.5660 C   0  0  0  0  0  0  0  0  0  0  0  0
  140.1900   71.5230  224.4910 N   0  0  0  0  0  0  0  0  0  0  0  0
  140.4670   71.0810  225.7390 C   0  0  0  0  0  0  0  0  0  0  0  0
  141.0840   71.9340  226.6660 C   0  0  0  0  0  0  0  0  0  0  0  0
  141.3462   72.9625  226.3771 H   0  0  0  0  0  0  0  0  0  0  0  0
  141.3660   71.4770  227.9580 C   0  0  0  0  0  0  0  0  0  0  0  0
  141.8450   72.1480  228.6862 H   0  0  0  0  0  0  0  0  0  0  0  0
  141.0390   70.1670  228.3240 C   0  0  0  0  0  0  0  0  0  0  0  0
  141.2660   69.8088  229.3390 H   0  0  0  0  0  0  0  0  0  0  0  0
  140.4230   69.3090  227.4020 C   0  0  0  0  0  0  0  0  0  0  0  0
  140.1667   68.2803  227.6955 H   0  0  0  0  0  0  0  0  0  0  0  0
  140.1320   69.7620  226.1010 C   0  0  0  0  0  0  0  0  0  0  0  0
  139.5070   68.9440  225.1420 C   0  0  0  0  0  0  0  0  0  0  0  0
  139.2060   67.7530  225.4430 O   0  0  0  0  0  0  0  0  0  0  0  0
  139.2290   69.4350  223.8870 N   0  0  0  0  0  0  0  0  0  0  0  0
  138.5310   68.5790  222.8950 C   0  0  0  0  0  0  0  0  0  0  0  0
  138.7586   68.9482  221.8841 H   0  0  0  0  0  0  0  0  0  0  0  0
  138.8836   67.5456  223.0287 H   0  0  0  0  0  0  0  0  0  0  0  0
  137.0330   68.5920  223.0940 C   0  0  0  0  0  0  0  0  0  0  0  0
  136.1910   67.7760  222.3100 C   0  0  0  0  0  0  0  0  0  0  0  0
  136.6203   67.1496  221.5142 H   0  0  0  0  0  0  0  0  0  0  0  0
  134.8090   67.7610  222.5420 C   0  0  0  0  0  0  0  0  0  0  0  0
  134.1547   67.1297  221.9229 H   0  0  0  0  0  0  0  0  0  0  0  0
  134.2610   68.5480  223.5600 C   0  0  0  0  0  0  0  0  0  0  0  0
  133.1735   68.5525  223.7253 H   0  0  0  0  0  0  0  0  0  0  0  0
  135.0950   69.3310  224.3700 C   0  0  0  0  0  0  0  0  0  0  0  0
  134.6633   69.9391  225.1786 H   0  0  0  0  0  0  0  0  0  0  0  0
  136.4760   69.3390  224.1500 C   0  0  0  0  0  0  0  0  0  0  0  0
  137.1308   69.9320  224.8054 H   0  0  0  0  0  0  0  0  0  0  0  0
  141.0600   72.9110  221.4750 C   0  0  0  0  0  0  0  0  0  0  0  0
  141.9940   71.8770  221.2780 C   0  0  0  0  0  0  0  0  0  0  0  0
  141.7102   70.8360  221.4918 H   0  0  0  0  0  0  0  0  0  0  0  0
  143.2810   72.1650  220.8120 C   0  0  0  0  0  0  0  0  0  0  0  0
  143.9978   71.3467  220.6489 H   0  0  0  0  0  0  0  0  0  0  0  0
  143.6650   73.4880  220.5510 C   0  0  0  0  0  0  0  0  0  0  0  0
  144.9630   73.7200  220.0650 O   0  0  0  0  0  0  0  0  0  0  0  0
  146.1410   73.7290  220.8810 C   0  0  0  0  0  0  0  0  0  0  0  0
  145.8519   73.7268  221.9423 H   0  0  0  0  0  0  0  0  0  0  0  0
  146.7445   72.8354  220.6635 H   0  0  0  0  0  0  0  0  0  0  0  0
  146.7308   74.6317  220.6635 H   0  0  0  0  0  0  0  0  0  0  0  0
  142.7440   74.5320  220.7780 C   0  0  0  0  0  0  0  0  0  0  0  0
  143.0422   75.5750  220.5957 H   0  0  0  0  0  0  0  0  0  0  0  0
  141.4530   74.2460  221.2340 C   0  0  0  0  0  0  0  0  0  0  0  0
  140.7397   75.0655  221.4059 H   0  0  0  0  0  0  0  0  0  0  0  0
  1  2  1  0
  2  3  2  0
  3  4  1  0
  3  5  1  0
  5  6  2  0
  6  7  1  0
  7  8  2  0
  8  9  1  0
  8 10  1  0
 10 11  1  0
 10 12  2  0
 12 13  1  0
 12 14  1  0
 14 15  1  0
 14 16  2  0
 16 17  1  0
 17 18  2  0
 17 19  1  0
 19 20  1  0
 20 21  1  0
 20 22  1  0
 20 23  1  0
 23 24  2  0
 24 25  1  0
 24 26  1  0
 26 27  1  0
 26 28  2  0
 28 29  1  0
 28 30  1  0
 30 31  1  0
 30 32  2  0
 32 33  1  0
  2 34  1  0
 34 35  2  0
 35 36  1  0
 35 37  1  0
 37 38  1  0
 37 39  2  0
 39 40  1  0
 40 41  1  0
 41 42  1  0
 41 43  1  0
 41 44  1  0
 39 45  1  0
 45 46  1  0
 45 47  2  0
 47 48  1  0
 19  5  1  0
 32 23  1  0
 47 34  1  0
 16  7  1  0
M  END
>  <UniqueID>  (10) 
69

>  <SMILES>  (10) 
COc1ccc(/C=C/c2nc3ccccc3c(=O)n2Cc2ccccc2)cc1

>  <Energy>  (10) 
68.61639091905492

>  <Genealogy>  (10) 
COc1ccc(/C=C/c2nc3ccccc3c(=O)n2Cc2ccccc2)cc1 (cis-trans isomerization)
COc1ccc(/C=C/c2nc3ccccc3c(=O)n2Cc2ccccc2)cc1 (3D coordinates assigned)
COc1ccc(/C=C/c2nc3ccccc3c(=O)n2Cc2ccccc2)cc1 (optimized conformer: 68.61639091905492 kcal/mol)

>  <smiles>  (10) 
COc1ccc(/C=C/c2nc3ccccc3c(=O)n2Cc2ccccc2)cc1

>  <score_type>  (10) 
oracle

>  <origin>  (10) 
autodockgpu

>  <m_score__min__energy>  (10) 
-7.7300000000000004

>  <m_primary>  (10) 
energy

>  <meeko>  (10) 
{"free_energy": -7.48, "intermolecular_energy": -9.27, "internal_energy": -1.26, "cluster_size": 7, "cluster_id": 3, "rank_in_cluster": 5}

>  <energy>  (10) 
-7.62

>  <cluster_rmsd>  (10) 
0.21

>  <rmsd>  (10) 
270.23

>  <cluster>  (10) 
2

$$$$
OVVDNOVAKMLMDA-DTQAZKPQNA-N
     RDKit          3D

 48 51  0  0  0  0  0  0  0  0999 V2000
  135.1636   68.3831  222.7858 H   0  0  0  0  0  0  0  0  0  0  0  0
  135.8770   68.9740  223.3790 C   0  0  0  0  0  0  0  0  0  0  0  0
  137.1850   68.7340  223.2220 C   0  0  0  0  0  0  0  0  0  0  0  0
  137.5330   68.1753  222.3407 H   0  0  0  0  0  0  0  0  0  0  0  0
  138.1630   69.2090  224.2150 C   0  0  0  0  0  0  0  0  0  0  0  0
  138.4790   68.3680  225.2350 N   0  0  0  0  0  0  0  0  0  0  0  0
  139.3790   68.7090  226.1860 C   0  0  0  0  0  0  0  0  0  0  0  0
  139.6790   67.8130  227.2230 C   0  0  0  0  0  0  0  0  0  0  0  0
  139.1804   66.8334  227.2647 H   0  0  0  0  0  0  0  0  0  0  0  0
  140.6120   68.1650  228.2040 C   0  0  0  0  0  0  0  0  0  0  0  0
  140.8507   67.4597  229.0137 H   0  0  0  0  0  0  0  0  0  0  0  0
  141.2420   69.4140  228.1560 C   0  0  0  0  0  0  0  0  0  0  0  0
  141.9724   69.6898  228.9309 H   0  0  0  0  0  0  0  0  0  0  0  0
  140.9450   70.3150  227.1230 C   0  0  0  0  0  0  0  0  0  0  0  0
  141.4434   71.2950  227.0883 H   0  0  0  0  0  0  0  0  0  0  0  0
  140.0090   69.9660  226.1300 C   0  0  0  0  0  0  0  0  0  0  0  0
  139.6840   70.8300  225.0670 C   0  0  0  0  0  0  0  0  0  0  0  0
  140.2320   71.9680  225.0020 O   0  0  0  0  0  0  0  0  0  0  0  0
  138.7740   70.4410  224.1110 N   0  0  0  0  0  0  0  0  0  0  0  0
  138.4680   71.3410  222.9710 C   0  0  0  0  0  0  0  0  0  0  0  0
  137.7784   70.8257  222.2862 H   0  0  0  0  0  0  0  0  0  0  0  0
  138.0149   72.2590  223.3735 H   0  0  0  0  0  0  0  0  0  0  0  0
  139.7140   71.7290  222.2090 C   0  0  0  0  0  0  0  0  0  0  0  0
  140.3790   70.7970  221.3840 C   0  0  0  0  0  0  0  0  0  0  0  0
  140.0138   69.7613  221.3217 H   0  0  0  0  0  0  0  0  0  0  0  0
  141.5030   71.1870  220.6440 C   0  0  0  0  0  0  0  0  0  0  0  0
  142.0238   70.4548  220.0094 H   0  0  0  0  0  0  0  0  0  0  0  0
  141.9640   72.5060  220.7110 C   0  0  0  0  0  0  0  0  0  0  0  0
  142.8596   72.8043  220.1462 H   0  0  0  0  0  0  0  0  0  0  0  0
  141.2860   73.4480  221.4970 C   0  0  0  0  0  0  0  0  0  0  0  0
  141.6425   74.4878  221.5390 H   0  0  0  0  0  0  0  0  0  0  0  0
  140.1560   73.0660  222.2280 C   0  0  0  0  0  0  0  0  0  0  0  0
  139.6096   73.8142  222.8210 H   0  0  0  0  0  0  0  0  0  0  0  0
  135.3400   69.9950  224.3110 C   0  0  0  0  0  0  0  0  0  0  0  0
  135.3810   71.3490  223.9270 C   0  0  0  0  0  0  0  0  0  0  0  0
  135.8193   71.6291  222.9578 H   0  0  0  0  0  0  0  0  0  0  0  0
  134.8680   72.3400  224.7700 C   0  0  0  0  0  0  0  0  0  0  0  0
  134.8922   73.3929  224.4523 H   0  0  0  0  0  0  0  0  0  0  0  0
  134.3230   72.0020  226.0170 C   0  0  0  0  0  0  0  0  0  0  0  0
  133.8040   73.0340  226.8170 O   0  0  0  0  0  0  0  0  0  0  0  0
  132.4290   73.1400  227.2090 C   0  0  0  0  0  0  0  0  0  0  0  0
  132.3601   73.1453  228.3068 H   0  0  0  0  0  0  0  0  0  0  0  0
  132.0050   74.0735  226.8105 H   0  0  0  0  0  0  0  0  0  0  0  0
  131.8670   72.2825  226.8105 H   0  0  0  0  0  0  0  0  0  0  0  0
  134.3100   70.6510  226.4220 C   0  0  0  0  0  0  0  0  0  0  0  0
  133.9035   70.3782  227.4070 H   0  0  0  0  0  0  0  0  0  0  0  0
  134.8120   69.6570  225.5760 C   0  0  0  0  0  0  0  0  0  0  0  0
  134.7954   68.6054  225.8981 H   0  0  0  0  0  0  0  0  0  0  0  0
  1  2  1  0
  2  3  2  0
  3  4  1  0
  3  5  1  0
  5  6  2  0
  6  7  1  0
  7  8  2  0
  8  9  1  0
  8 10  1  0
 10 11  1  0
 10 12  2  0
 12 13  1  0
 12 14  1  0
 14 15  1  0
 14 16  2  0
 16 17  1  0
 17 18  2  0
 17 19  1  0
 19 20  1  0
 20 21  1  0
 20 22  1  0
 20 23  1  0
 23 24  2  0
 24 25  1  0
 24 26  1  0
 26 27  1  0
 26 28  2  0
 28 29  1  0
 28 30  1  0
 30 31  1  0
 30 32  2  0
 32 33  1  0
  2 34  1  0
 34 35  2  0
 35 36  1  0
 35 37  1  0
 37 38  1  0
 37 39  2  0
 39 40  1  0
 40 41  1  0
 41 42  1  0
 41 43  1  0
 41 44  1  0
 39 45  1  0
 45 46  1  0
 45 47  2  0
 47 48  1  0
 19  5  1  0
 32 23  1  0
 47 34  1  0
 16  7  1  0
M  END
>  <UniqueID>  (11) 
69

>  <SMILES>  (11) 
COc1ccc(/C=C/c2nc3ccccc3c(=O)n2Cc2ccccc2)cc1

>  <Energy>  (11) 
68.61639091905492

>  <Genealogy>  (11) 
COc1ccc(/C=C/c2nc3ccccc3c(=O)n2Cc2ccccc2)cc1 (cis-trans isomerization)
COc1ccc(/C=C/c2nc3ccccc3c(=O)n2Cc2ccccc2)cc1 (3D coordinates assigned)
COc1ccc(/C=C/c2nc3ccccc3c(=O)n2Cc2ccccc2)cc1 (optimized conformer: 68.61639091905492 kcal/mol)

>  <smiles>  (11) 
COc1ccc(/C=C/c2nc3ccccc3c(=O)n2Cc2ccccc2)cc1

>  <score_type>  (11) 
oracle

>  <origin>  (11) 
autodockgpu

>  <m_score__min__energy>  (11) 
-7.7300000000000004

>  <m_primary>  (11) 
energy

>  <meeko>  (11) 
{"free_energy": -7.07, "intermolecular_energy": -8.86, "internal_energy": -1.53, "cluster_size": 2, "cluster_id": 5, "rank_in_cluster": 2}

>  <energy>  (11) 
-7.61

>  <cluster_rmsd>  (11) 
0.0

>  <rmsd>  (11) 
269.64

>  <cluster>  (11) 
3

$$$$
OVVDNOVAKMLMDA-DTQAZKPQNA-N
     RDKit          3D

 48 51  0  0  0  0  0  0  0  0999 V2000
  138.8900   73.5478  222.4792 H   0  0  0  0  0  0  0  0  0  0  0  0
  139.6880   72.8020  222.3490 C   0  0  0  0  0  0  0  0  0  0  0  0
  140.7350   73.1210  221.5780 C   0  0  0  0  0  0  0  0  0  0  0  0
  141.3833   72.3240  221.1849 H   0  0  0  0  0  0  0  0  0  0  0  0
  141.0290   74.5260  221.2500 C   0  0  0  0  0  0  0  0  0  0  0  0
  140.5540   75.4790  222.0940 N   0  0  0  0  0  0  0  0  0  0  0  0
  140.7870   76.7960  221.8840 C   0  0  0  0  0  0  0  0  0  0  0  0
  140.2810   77.7500  222.7790 C   0  0  0  0  0  0  0  0  0  0  0  0
  139.6927   77.4287  223.6511 H   0  0  0  0  0  0  0  0  0  0  0  0
  140.5250   79.1110  222.5620 C   0  0  0  0  0  0  0  0  0  0  0  0
  140.1312   79.8589  223.2660 H   0  0  0  0  0  0  0  0  0  0  0  0
  141.2690   79.5210  221.4510 C   0  0  0  0  0  0  0  0  0  0  0  0
  141.4564   80.5916  221.2817 H   0  0  0  0  0  0  0  0  0  0  0  0
  141.7770   78.5720  220.5520 C   0  0  0  0  0  0  0  0  0  0  0  0
  142.3627   78.8994  219.6804 H   0  0  0  0  0  0  0  0  0  0  0  0
  141.5380   77.2000  220.7640 C   0  0  0  0  0  0  0  0  0  0  0  0
  142.0340   76.2080  219.8980 C   0  0  0  0  0  0  0  0  0  0  0  0
  142.7030   76.5500  218.8810 O   0  0  0  0  0  0  0  0  0  0  0  0
  141.7880   74.8790  220.1530 N   0  0  0  0  0  0  0  0  0  0  0  0
  142.3500   73.8370  219.2570 C   0  0  0  0  0  0  0  0  0  0  0  0
  141.7081   72.9448  219.3026 H   0  0  0  0  0  0  0  0  0  0  0  0
  142.3863   74.2476  218.2372 H   0  0  0  0  0  0  0  0  0  0  0  0
  143.7550   73.4490  219.6560 C   0  0  0  0  0  0  0  0  0  0  0  0
  144.5390   74.2980  220.4660 C   0  0  0  0  0  0  0  0  0  0  0  0
  144.1422   75.2740  220.7820 H   0  0  0  0  0  0  0  0  0  0  0  0
  145.8210   73.9020  220.8690 C   0  0  0  0  0  0  0  0  0  0  0  0
  146.4324   74.5710  221.4924 H   0  0  0  0  0  0  0  0  0  0  0  0
  146.3240   72.6560  220.4790 C   0  0  0  0  0  0  0  0  0  0  0  0
  147.3390   72.3556  220.7781 H   0  0  0  0  0  0  0  0  0  0  0  0
  145.5370   71.7900  219.7080 C   0  0  0  0  0  0  0  0  0  0  0  0
  145.9298   70.8057  219.4133 H   0  0  0  0  0  0  0  0  0  0  0  0
  144.2520   72.1770  219.3130 C   0  0  0  0  0  0  0  0  0  0  0  0
  143.6265   71.4839  218.7313 H   0  0  0  0  0  0  0  0  0  0  0  0
  139.5480   71.4950  223.0370 C   0  0  0  0  0  0  0  0  0  0  0  0
  140.1470   71.3280  224.2990 C   0  0  0  0  0  0  0  0  0  0  0  0
  140.7171   72.1551  224.7472 H   0  0  0  0  0  0  0  0  0  0  0  0
  140.0220   70.1170  224.9870 C   0  0  0  0  0  0  0  0  0  0  0  0
  140.4831   70.0035  225.9792 H   0  0  0  0  0  0  0  0  0  0  0  0
  139.3140   69.0460  224.4230 C   0  0  0  0  0  0  0  0  0  0  0  0
  139.2020   67.8580  225.1640 O   0  0  0  0  0  0  0  0  0  0  0  0
  139.8950   67.6040  226.3930 C   0  0  0  0  0  0  0  0  0  0  0  0
  139.2375   67.8450  227.2413 H   0  0  0  0  0  0  0  0  0  0  0  0
  140.1806   66.5428  226.4404 H   0  0  0  0  0  0  0  0  0  0  0  0
  140.7987   68.2293  226.4404 H   0  0  0  0  0  0  0  0  0  0  0  0
  138.7400   69.1960  223.1430 C   0  0  0  0  0  0  0  0  0  0  0  0
  138.2007   68.3551  222.6825 H   0  0  0  0  0  0  0  0  0  0  0  0
  138.8540   70.4100  222.4570 C   0  0  0  0  0  0  0  0  0  0  0  0
  138.4008   70.5201  221.4608 H   0  0  0  0  0  0  0  0  0  0  0  0
  1  2  1  0
  2  3  2  0
  3  4  1  0
  3  5  1  0
  5  6  2  0
  6  7  1  0
  7  8  2  0
  8  9  1  0
  8 10  1  0
 10 11  1  0
 10 12  2  0
 12 13  1  0
 12 14  1  0
 14 15  1  0
 14 16  2  0
 16 17  1  0
 17 18  2  0
 17 19  1  0
 19 20  1  0
 20 21  1  0
 20 22  1  0
 20 23  1  0
 23 24  2  0
 24 25  1  0
 24 26  1  0
 26 27  1  0
 26 28  2  0
 28 29  1  0
 28 30  1  0
 30 31  1  0
 30 32  2  0
 32 33  1  0
  2 34  1  0
 34 35  2  0
 35 36  1  0
 35 37  1  0
 37 38  1  0
 37 39  2  0
 39 40  1  0
 40 41  1  0
 41 42  1  0
 41 43  1  0
 41 44  1  0
 39 45  1  0
 45 46  1  0
 45 47  2  0
 47 48  1  0
 19  5  1  0
 32 23  1  0
 47 34  1  0
 16  7  1  0
M  END
>  <UniqueID>  (12) 
69

>  <SMILES>  (12) 
COc1ccc(/C=C/c2nc3ccccc3c(=O)n2Cc2ccccc2)cc1

>  <Energy>  (12) 
68.61639091905492

>  <Genealogy>  (12) 
COc1ccc(/C=C/c2nc3ccccc3c(=O)n2Cc2ccccc2)cc1 (cis-trans isomerization)
COc1ccc(/C=C/c2nc3ccccc3c(=O)n2Cc2ccccc2)cc1 (3D coordinates assigned)
COc1ccc(/C=C/c2nc3ccccc3c(=O)n2Cc2ccccc2)cc1 (optimized conformer: 68.61639091905492 kcal/mol)

>  <smiles>  (12) 
COc1ccc(/C=C/c2nc3ccccc3c(=O)n2Cc2ccccc2)cc1

>  <score_type>  (12) 
oracle

>  <origin>  (12) 
autodockgpu

>  <m_score__min__energy>  (12) 
-7.7300000000000004

>  <m_primary>  (12) 
energy

>  <meeko>  (12) 
{"free_energy": -7.59, "intermolecular_energy": -9.38, "internal_energy": -1.09, "cluster_size": 7, "cluster_id": 1, "rank_in_cluster": 4}

>  <energy>  (12) 
-7.59

>  <cluster_rmsd>  (12) 
0.14

>  <rmsd>  (12) 
269.67

>  <cluster>  (12) 
3

$$$$
OVVDNOVAKMLMDA-DTQAZKPQNA-N
     RDKit          3D

 48 51  0  0  0  0  0  0  0  0999 V2000
  135.1812   68.3451  223.1912 H   0  0  0  0  0  0  0  0  0  0  0  0
  135.8860   69.0830  223.6020 C   0  0  0  0  0  0  0  0  0  0  0  0
  137.1920   68.9130  223.3650 C   0  0  0  0  0  0  0  0  0  0  0  0
  137.5173   68.4524  222.4205 H   0  0  0  0  0  0  0  0  0  0  0  0
  138.1990   69.3350  224.3530 C   0  0  0  0  0  0  0  0  0  0  0  0
  138.4820   68.4750  225.3660 N   0  0  0  0  0  0  0  0  0  0  0  0
  139.4040   68.7680  226.3120 C   0  0  0  0  0  0  0  0  0  0  0  0
  139.6690   67.8540  227.3420 C   0  0  0  0  0  0  0  0  0  0  0  0
  139.1251   66.8987  227.3823 H   0  0  0  0  0  0  0  0  0  0  0  0
  140.6250   68.1560  228.3190 C   0  0  0  0  0  0  0  0  0  0  0  0
  140.8351   67.4366  229.1242 H   0  0  0  0  0  0  0  0  0  0  0  0
  141.3130   69.3730  228.2710 C   0  0  0  0  0  0  0  0  0  0  0  0
  142.0617   69.6098  229.0413 H   0  0  0  0  0  0  0  0  0  0  0  0
  141.0520   70.2920  227.2450 C   0  0  0  0  0  0  0  0  0  0  0  0
  141.5962   71.2474  227.2121 H   0  0  0  0  0  0  0  0  0  0  0  0
  140.0940   69.9940  226.2560 C   0  0  0  0  0  0  0  0  0  0  0  0
  139.8030   70.8770  225.2010 C   0  0  0  0  0  0  0  0  0  0  0  0
  140.4040   71.9880  225.1360 O   0  0  0  0  0  0  0  0  0  0  0  0
  138.8680   70.5370  224.2490 N   0  0  0  0  0  0  0  0  0  0  0  0
  138.5970   71.4560  223.1160 C   0  0  0  0  0  0  0  0  0  0  0  0
  137.6928   71.1154  222.5903 H   0  0  0  0  0  0  0  0  0  0  0  0
  138.4611   72.4687  223.5234 H   0  0  0  0  0  0  0  0  0  0  0  0
  139.7470   71.4960  222.1350 C   0  0  0  0  0  0  0  0  0  0  0  0
  140.6660   72.5660  222.1390 C   0  0  0  0  0  0  0  0  0  0  0  0
  140.5271   73.4054  222.8362 H   0  0  0  0  0  0  0  0  0  0  0  0
  141.7550   72.5630  221.2580 C   0  0  0  0  0  0  0  0  0  0  0  0
  142.4633   73.4046  221.2573 H   0  0  0  0  0  0  0  0  0  0  0  0
  141.9430   71.4910  220.3790 C   0  0  0  0  0  0  0  0  0  0  0  0
  142.7865   71.5007  219.6731 H   0  0  0  0  0  0  0  0  0  0  0  0
  141.0570   70.4040  220.3970 C   0  0  0  0  0  0  0  0  0  0  0  0
  141.2132   69.5559  219.7141 H   0  0  0  0  0  0  0  0  0  0  0  0
  139.9750   70.3980  221.2830 C   0  0  0  0  0  0  0  0  0  0  0  0
  139.2985   69.5312  221.3146 H   0  0  0  0  0  0  0  0  0  0  0  0
  135.3390   70.2150  224.3900 C   0  0  0  0  0  0  0  0  0  0  0  0
  134.6970   69.9410  225.6110 C   0  0  0  0  0  0  0  0  0  0  0  0
  134.5978   68.9008  225.9547 H   0  0  0  0  0  0  0  0  0  0  0  0
  134.1840   70.9820  226.3910 C   0  0  0  0  0  0  0  0  0  0  0  0
  133.6957   70.7554  227.3503 H   0  0  0  0  0  0  0  0  0  0  0  0
  134.2870   72.3130  225.9600 C   0  0  0  0  0  0  0  0  0  0  0  0
  133.7730   73.3230  226.7910 O   0  0  0  0  0  0  0  0  0  0  0  0
  132.3980   73.4280  227.1780 C   0  0  0  0  0  0  0  0  0  0  0  0
  132.3254   73.4335  228.2756 H   0  0  0  0  0  0  0  0  0  0  0  0
  131.9747   74.3611  226.7778 H   0  0  0  0  0  0  0  0  0  0  0  0
  131.8379   72.5700  226.7778 H   0  0  0  0  0  0  0  0  0  0  0  0
  134.9000   72.5910  224.7200 C   0  0  0  0  0  0  0  0  0  0  0  0
  134.9669   73.6292  224.3627 H   0  0  0  0  0  0  0  0  0  0  0  0
  135.4230   71.5520  223.9430 C   0  0  0  0  0  0  0  0  0  0  0  0
  135.9022   71.7775  222.9789 H   0  0  0  0  0  0  0  0  0  0  0  0
  1  2  1  0
  2  3  2  0
  3  4  1  0
  3  5  1  0
  5  6  2  0
  6  7  1  0
  7  8  2  0
  8  9  1  0
  8 10  1  0
 10 11  1  0
 10 12  2  0
 12 13  1  0
 12 14  1  0
 14 15  1  0
 14 16  2  0
 16 17  1  0
 17 18  2  0
 17 19  1  0
 19 20  1  0
 20 21  1  0
 20 22  1  0
 20 23  1  0
 23 24  2  0
 24 25  1  0
 24 26  1  0
 26 27  1  0
 26 28  2  0
 28 29  1  0
 28 30  1  0
 30 31  1  0
 30 32  2  0
 32 33  1  0
  2 34  1  0
 34 35  2  0
 35 36  1  0
 35 37  1  0
 37 38  1  0
 37 39  2  0
 39 40  1  0
 40 41  1  0
 41 42  1  0
 41 43  1  0
 41 44  1  0
 39 45  1  0
 45 46  1  0
 45 47  2  0
 47 48  1  0
 19  5  1  0
 32 23  1  0
 47 34  1  0
 16  7  1  0
M  END
>  <UniqueID>  (13) 
69

>  <SMILES>  (13) 
COc1ccc(/C=C/c2nc3ccccc3c(=O)n2Cc2ccccc2)cc1

>  <Energy>  (13) 
68.61639091905492

>  <Genealogy>  (13) 
COc1ccc(/C=C/c2nc3ccccc3c(=O)n2Cc2ccccc2)cc1 (cis-trans isomerization)
COc1ccc(/C=C/c2nc3ccccc3c(=O)n2Cc2ccccc2)cc1 (3D coordinates assigned)
COc1ccc(/C=C/c2nc3ccccc3c(=O)n2Cc2ccccc2)cc1 (optimized conformer: 68.61639091905492 kcal/mol)

>  <smiles>  (13) 
COc1ccc(/C=C/c2nc3ccccc3c(=O)n2Cc2ccccc2)cc1

>  <score_type>  (13) 
oracle

>  <origin>  (13) 
autodockgpu

>  <m_score__min__energy>  (13) 
-7.7300000000000004

>  <m_primary>  (13) 
energy

>  <meeko>  (13) 
{"free_energy": -7.1, "intermolecular_energy": -8.89, "internal_energy": -1.56, "cluster_size": 2, "cluster_id": 5, "rank_in_cluster": 1}

>  <energy>  (13) 
-7.58

>  <cluster_rmsd>  (13) 
1.49

>  <rmsd>  (13) 
269.65

>  <cluster>  (13) 
3

$$$$
OVVDNOVAKMLMDA-DTQAZKPQNA-N
     RDKit          3D

 48 51  0  0  0  0  0  0  0  0999 V2000
  138.5020   71.7607  222.4014 H   0  0  0  0  0  0  0  0  0  0  0  0
  139.5380   71.6830  222.7630 C   0  0  0  0  0  0  0  0  0  0  0  0
  140.5260   72.0710  221.9470 C   0  0  0  0  0  0  0  0  0  0  0  0
  141.2704   71.3356  221.6078 H   0  0  0  0  0  0  0  0  0  0  0  0
  140.6290   73.4690  221.4980 C   0  0  0  0  0  0  0  0  0  0  0  0
  139.9860   74.4120  222.2370 N   0  0  0  0  0  0  0  0  0  0  0  0
  140.0360   75.7260  221.9130 C   0  0  0  0  0  0  0  0  0  0  0  0
  139.3600   76.6690  222.7000 C   0  0  0  0  0  0  0  0  0  0  0  0
  138.7871   76.3415  223.5801 H   0  0  0  0  0  0  0  0  0  0  0  0
  139.4140   78.0270  222.3660 C   0  0  0  0  0  0  0  0  0  0  0  0
  138.8868   78.7669  222.9861 H   0  0  0  0  0  0  0  0  0  0  0  0
  140.1380   78.4440  221.2440 C   0  0  0  0  0  0  0  0  0  0  0  0
  140.1765   79.5117  220.9821 H   0  0  0  0  0  0  0  0  0  0  0  0
  140.8150   77.5050  220.4520 C   0  0  0  0  0  0  0  0  0  0  0  0
  141.3835   77.8376  219.5710 H   0  0  0  0  0  0  0  0  0  0  0  0
  140.7680   76.1370  220.7830 C   0  0  0  0  0  0  0  0  0  0  0  0
  141.4380   75.1570  220.0270 C   0  0  0  0  0  0  0  0  0  0  0  0
  142.0930   75.5040  219.0020 O   0  0  0  0  0  0  0  0  0  0  0  0
  141.3750   73.8330  220.3960 N   0  0  0  0  0  0  0  0  0  0  0  0
  142.1180   72.8110  219.6180 C   0  0  0  0  0  0  0  0  0  0  0  0
  141.7312   71.8148  219.8788 H   0  0  0  0  0  0  0  0  0  0  0  0
  141.9736   73.0246  218.5486 H   0  0  0  0  0  0  0  0  0  0  0  0
  143.6010   72.8510  219.9080 C   0  0  0  0  0  0  0  0  0  0  0  0
  144.1450   73.8230  220.7740 C   0  0  0  0  0  0  0  0  0  0  0  0
  143.4924   74.5904  221.2158 H   0  0  0  0  0  0  0  0  0  0  0  0
  145.5130   73.8140  221.0730 C   0  0  0  0  0  0  0  0  0  0  0  0
  145.9341   74.5791  221.7418 H   0  0  0  0  0  0  0  0  0  0  0  0
  146.3450   72.8330  220.5220 C   0  0  0  0  0  0  0  0  0  0  0  0
  147.4232   72.8413  220.7398 H   0  0  0  0  0  0  0  0  0  0  0  0
  145.8060   71.8400  219.6930 C   0  0  0  0  0  0  0  0  0  0  0  0
  146.4591   71.0616  219.2716 H   0  0  0  0  0  0  0  0  0  0  0  0
  144.4380   71.8380  219.4010 C   0  0  0  0  0  0  0  0  0  0  0  0
  144.0138   71.0413  218.7723 H   0  0  0  0  0  0  0  0  0  0  0  0
  139.7680   71.1540  224.1290 C   0  0  0  0  0  0  0  0  0  0  0  0
  140.7050   71.8020  224.9560 C   0  0  0  0  0  0  0  0  0  0  0  0
  141.2583   72.6736  224.5762 H   0  0  0  0  0  0  0  0  0  0  0  0
  140.9370   71.3450  226.2570 C   0  0  0  0  0  0  0  0  0  0  0  0
  141.6615   71.8685  226.8982 H   0  0  0  0  0  0  0  0  0  0  0  0
  140.2530   70.2240  226.7510 C   0  0  0  0  0  0  0  0  0  0  0  0
  140.5090   69.8180  228.0720 O   0  0  0  0  0  0  0  0  0  0  0  0
  140.8040   68.4710  228.4600 C   0  0  0  0  0  0  0  0  0  0  0  0
  140.8194   68.4006  229.5576 H   0  0  0  0  0  0  0  0  0  0  0  0
  140.0322   67.7969  228.0602 H   0  0  0  0  0  0  0  0  0  0  0  0
  141.7869   68.1812  228.0602 H   0  0  0  0  0  0  0  0  0  0  0  0
  139.3380   69.5500  225.9160 C   0  0  0  0  0  0  0  0  0  0  0  0
  138.8126   68.6576  226.2868 H   0  0  0  0  0  0  0  0  0  0  0  0
  139.0960   70.0120  224.6180 C   0  0  0  0  0  0  0  0  0  0  0  0
  138.3780   69.4827  223.9743 H   0  0  0  0  0  0  0  0  0  0  0  0
  1  2  1  0
  2  3  2  0
  3  4  1  0
  3  5  1  0
  5  6  2  0
  6  7  1  0
  7  8  2  0
  8  9  1  0
  8 10  1  0
 10 11  1  0
 10 12  2  0
 12 13  1  0
 12 14  1  0
 14 15  1  0
 14 16  2  0
 16 17  1  0
 17 18  2  0
 17 19  1  0
 19 20  1  0
 20 21  1  0
 20 22  1  0
 20 23  1  0
 23 24  2  0
 24 25  1  0
 24 26  1  0
 26 27  1  0
 26 28  2  0
 28 29  1  0
 28 30  1  0
 30 31  1  0
 30 32  2  0
 32 33  1  0
  2 34  1  0
 34 35  2  0
 35 36  1  0
 35 37  1  0
 37 38  1  0
 37 39  2  0
 39 40  1  0
 40 41  1  0
 41 42  1  0
 41 43  1  0
 41 44  1  0
 39 45  1  0
 45 46  1  0
 45 47  2  0
 47 48  1  0
 19  5  1  0
 32 23  1  0
 47 34  1  0
 16  7  1  0
M  END
>  <UniqueID>  (14) 
69

>  <SMILES>  (14) 
COc1ccc(/C=C/c2nc3ccccc3c(=O)n2Cc2ccccc2)cc1

>  <Energy>  (14) 
68.61639091905492

>  <Genealogy>  (14) 
COc1ccc(/C=C/c2nc3ccccc3c(=O)n2Cc2ccccc2)cc1 (cis-trans isomerization)
COc1ccc(/C=C/c2nc3ccccc3c(=O)n2Cc2ccccc2)cc1 (3D coordinates assigned)
COc1ccc(/C=C/c2nc3ccccc3c(=O)n2Cc2ccccc2)cc1 (optimized conformer: 68.61639091905492 kcal/mol)

>  <smiles>  (14) 
COc1ccc(/C=C/c2nc3ccccc3c(=O)n2Cc2ccccc2)cc1

>  <score_type>  (14) 
oracle

>  <origin>  (14) 
autodockgpu

>  <m_score__min__energy>  (14) 
-7.7300000000000004

>  <m_primary>  (14) 
energy

>  <meeko>  (14) 
{"free_energy": -7.44, "intermolecular_energy": -9.23, "internal_energy": -1.13, "cluster_size": 7, "cluster_id": 1, "rank_in_cluster": 7}

>  <energy>  (14) 
-7.49

>  <cluster_rmsd>  (14) 
1.99

>  <rmsd>  (14) 
269.88

>  <cluster>  (14) 
3

$$$$
OVVDNOVAKMLMDA-DTQAZKPQNA-N
     RDKit          3D

 48 51  0  0  0  0  0  0  0  0999 V2000
  140.8701   71.7193  221.1649 H   0  0  0  0  0  0  0  0  0  0  0  0
  140.0320   72.1720  221.7150 C   0  0  0  0  0  0  0  0  0  0  0  0
  139.1520   71.3590  222.3130 C   0  0  0  0  0  0  0  0  0  0  0  0
  138.1900   71.1453  221.8242 H   0  0  0  0  0  0  0  0  0  0  0  0
  139.4570   70.7480  223.6170 C   0  0  0  0  0  0  0  0  0  0  0  0
  140.0470   71.5350  224.5550 N   0  0  0  0  0  0  0  0  0  0  0  0
  140.3510   71.0670  225.7880 C   0  0  0  0  0  0  0  0  0  0  0  0
  140.9590   71.9110  226.7290 C   0  0  0  0  0  0  0  0  0  0  0  0
  141.1913   72.9531  226.4642 H   0  0  0  0  0  0  0  0  0  0  0  0
  141.2700   71.4270  228.0050 C   0  0  0  0  0  0  0  0  0  0  0  0
  141.7434   72.0900  228.7441 H   0  0  0  0  0  0  0  0  0  0  0  0
  140.9790   70.1000  228.3410 C   0  0  0  0  0  0  0  0  0  0  0  0
  141.2275   69.7216  229.3435 H   0  0  0  0  0  0  0  0  0  0  0  0
  140.3720   69.2510  227.4050 C   0  0  0  0  0  0  0  0  0  0  0  0
  140.1445   68.2091  227.6746 H   0  0  0  0  0  0  0  0  0  0  0  0
  140.0530   69.7310  226.1190 C   0  0  0  0  0  0  0  0  0  0  0  0
  139.4350   68.9230  225.1470 C   0  0  0  0  0  0  0  0  0  0  0  0
  139.1680   67.7180  225.4200 O   0  0  0  0  0  0  0  0  0  0  0  0
  139.1300   69.4390  223.9080 N   0  0  0  0  0  0  0  0  0  0  0  0
  138.4400   68.5930  222.9030 C   0  0  0  0  0  0  0  0  0  0  0  0
  138.6689   68.9769  221.8979 H   0  0  0  0  0  0  0  0  0  0  0  0
  138.7977   67.5599  223.0243 H   0  0  0  0  0  0  0  0  0  0  0  0
  136.9410   68.5950  223.0970 C   0  0  0  0  0  0  0  0  0  0  0  0
  136.1060   67.7840  222.2990 C   0  0  0  0  0  0  0  0  0  0  0  0
  136.5413   67.1695  221.4972 H   0  0  0  0  0  0  0  0  0  0  0  0
  134.7240   67.7600  222.5260 C   0  0  0  0  0  0  0  0  0  0  0  0
  134.0751   67.1348  221.8950 H   0  0  0  0  0  0  0  0  0  0  0  0
  134.1670   68.5290  223.5530 C   0  0  0  0  0  0  0  0  0  0  0  0
  133.0790   68.5241  223.7150 H   0  0  0  0  0  0  0  0  0  0  0  0
  134.9940   69.3060  224.3760 C   0  0  0  0  0  0  0  0  0  0  0  0
  134.5561   69.9009  225.1911 H   0  0  0  0  0  0  0  0  0  0  0  0
  136.3760   69.3250  224.1610 C   0  0  0  0  0  0  0  0  0  0  0  0
  137.0251   69.9132  224.8264 H   0  0  0  0  0  0  0  0  0  0  0  0
  139.9350   73.6510  221.7560 C   0  0  0  0  0  0  0  0  0  0  0  0
  141.1090   74.4110  221.5990 C   0  0  0  0  0  0  0  0  0  0  0  0
  142.0746   73.9021  221.4627 H   0  0  0  0  0  0  0  0  0  0  0  0
  141.0570   75.8080  221.6150 C   0  0  0  0  0  0  0  0  0  0  0  0
  141.9805   76.3900  221.4791 H   0  0  0  0  0  0  0  0  0  0  0  0
  139.8370   76.4730  221.8030 C   0  0  0  0  0  0  0  0  0  0  0  0
  139.8370   77.8790  221.7910 O   0  0  0  0  0  0  0  0  0  0  0  0
  140.8350   78.6920  222.4190 C   0  0  0  0  0  0  0  0  0  0  0  0
  140.7379   78.6129  223.5119 H   0  0  0  0  0  0  0  0  0  0  0  0
  141.8340   78.3474  222.1137 H   0  0  0  0  0  0  0  0  0  0  0  0
  140.6995   79.7401  222.1137 H   0  0  0  0  0  0  0  0  0  0  0  0
  138.6610   75.7180  221.9950 C   0  0  0  0  0  0  0  0  0  0  0  0
  137.7027   76.2303  222.1658 H   0  0  0  0  0  0  0  0  0  0  0  0
  138.7090   74.3200  221.9690 C   0  0  0  0  0  0  0  0  0  0  0  0
  137.7869   73.7384  222.1152 H   0  0  0  0  0  0  0  0  0  0  0  0
  1  2  1  0
  2  3  2  0
  3  4  1  0
  3  5  1  0
  5  6  2  0
  6  7  1  0
  7  8  2  0
  8  9  1  0
  8 10  1  0
 10 11  1  0
 10 12  2  0
 12 13  1  0
 12 14  1  0
 14 15  1  0
 14 16  2  0
 16 17  1  0
 17 18  2  0
 17 19  1  0
 19 20  1  0
 20 21  1  0
 20 22  1  0
 20 23  1  0
 23 24  2  0
 24 25  1  0
 24 26  1  0
 26 27  1  0
 26 28  2  0
 28 29  1  0
 28 30  1  0
 30 31  1  0
 30 32  2  0
 32 33  1  0
  2 34  1  0
 34 35  2  0
 35 36  1  0
 35 37  1  0
 37 38  1  0
 37 39  2  0
 39 40  1  0
 40 41  1  0
 41 42  1  0
 41 43  1  0
 41 44  1  0
 39 45  1  0
 45 46  1  0
 45 47  2  0
 47 48  1  0
 19  5  1  0
 32 23  1  0
 47 34  1  0
 16  7  1  0
M  END
>  <UniqueID>  (15) 
69

>  <SMILES>  (15) 
COc1ccc(/C=C/c2nc3ccccc3c(=O)n2Cc2ccccc2)cc1

>  <Energy>  (15) 
68.61639091905492

>  <Genealogy>  (15) 
COc1ccc(/C=C/c2nc3ccccc3c(=O)n2Cc2ccccc2)cc1 (cis-trans isomerization)
COc1ccc(/C=C/c2nc3ccccc3c(=O)n2Cc2ccccc2)cc1 (3D coordinates assigned)
COc1ccc(/C=C/c2nc3ccccc3c(=O)n2Cc2ccccc2)cc1 (optimized conformer: 68.61639091905492 kcal/mol)

>  <smiles>  (15) 
COc1ccc(/C=C/c2nc3ccccc3c(=O)n2Cc2ccccc2)cc1

>  <score_type>  (15) 
oracle

>  <origin>  (15) 
autodockgpu

>  <m_score__min__energy>  (15) 
-7.7300000000000004

>  <m_primary>  (15) 
energy

>  <meeko>  (15) 
{"free_energy": -7.26, "intermolecular_energy": -9.05, "internal_energy": -1.21, "cluster_size": 1, "cluster_id": 4, "rank_in_cluster": 1}

>  <energy>  (15) 
-7.48

>  <cluster_rmsd>  (15) 
1.99

>  <rmsd>  (15) 
269.86

>  <cluster>  (15) 
3

$$$$
OVVDNOVAKMLMDA-DTQAZKPQNA-N
     RDKit          3D

 48 51  0  0  0  0  0  0  0  0999 V2000
  139.0241   73.4569  222.1511 H   0  0  0  0  0  0  0  0  0  0  0  0
  139.7180   72.6160  222.0050 C   0  0  0  0  0  0  0  0  0  0  0  0
  139.2890   71.3820  222.2950 C   0  0  0  0  0  0  0  0  0  0  0  0
  138.7160   70.8163  221.5456 H   0  0  0  0  0  0  0  0  0  0  0  0
  139.5740   70.7720  223.6040 C   0  0  0  0  0  0  0  0  0  0  0  0
  140.1680   71.5550  224.5430 N   0  0  0  0  0  0  0  0  0  0  0  0
  140.4550   71.0880  225.7810 C   0  0  0  0  0  0  0  0  0  0  0  0
  141.0680   71.9260  226.7230 C   0  0  0  0  0  0  0  0  0  0  0  0
  141.3182   72.9632  226.4553 H   0  0  0  0  0  0  0  0  0  0  0  0
  141.3620   71.4440  228.0040 C   0  0  0  0  0  0  0  0  0  0  0  0
  141.8396   72.1033  228.7438 H   0  0  0  0  0  0  0  0  0  0  0  0
  141.0480   70.1230  228.3430 C   0  0  0  0  0  0  0  0  0  0  0  0
  141.2826   69.7450  229.3490 H   0  0  0  0  0  0  0  0  0  0  0  0
  140.4360   69.2800  227.4060 C   0  0  0  0  0  0  0  0  0  0  0  0
  140.1910   68.2427  227.6780 H   0  0  0  0  0  0  0  0  0  0  0  0
  140.1340   69.7590  226.1160 C   0  0  0  0  0  0  0  0  0  0  0  0
  139.5120   68.9560  225.1420 C   0  0  0  0  0  0  0  0  0  0  0  0
  139.2240   67.7550  225.4180 O   0  0  0  0  0  0  0  0  0  0  0  0
  139.2240   69.4710  223.8990 N   0  0  0  0  0  0  0  0  0  0  0  0
  138.5290   68.6300  222.8920 C   0  0  0  0  0  0  0  0  0  0  0  0
  138.7347   69.0328  221.8893 H   0  0  0  0  0  0  0  0  0  0  0  0
  138.9039   67.6006  222.9904 H   0  0  0  0  0  0  0  0  0  0  0  0
  137.0340   68.6070  223.1120 C   0  0  0  0  0  0  0  0  0  0  0  0
  136.1980   67.7890  222.3220 C   0  0  0  0  0  0  0  0  0  0  0  0
  136.6290   67.1886  221.5073 H   0  0  0  0  0  0  0  0  0  0  0  0
  134.8210   67.7400  222.5730 C   0  0  0  0  0  0  0  0  0  0  0  0
  134.1715   67.1081  221.9494 H   0  0  0  0  0  0  0  0  0  0  0  0
  134.2700   68.4930  223.6150 C   0  0  0  0  0  0  0  0  0  0  0  0
  133.1851   68.4707  223.7950 H   0  0  0  0  0  0  0  0  0  0  0  0
  135.0990   69.2760  224.4300 C   0  0  0  0  0  0  0  0  0  0  0  0
  134.6662   69.8568  225.2578 H   0  0  0  0  0  0  0  0  0  0  0  0
  136.4760   69.3190  224.1910 C   0  0  0  0  0  0  0  0  0  0  0  0
  137.1271   69.9125  224.8497 H   0  0  0  0  0  0  0  0  0  0  0  0
  141.0800   72.9090  221.4970 C   0  0  0  0  0  0  0  0  0  0  0  0
  141.4190   74.2420  221.1990 C   0  0  0  0  0  0  0  0  0  0  0  0
  140.6720   75.0384  221.3320 H   0  0  0  0  0  0  0  0  0  0  0  0
  142.6990   74.5610  220.7350 C   0  0  0  0  0  0  0  0  0  0  0  0
  142.9557   75.6086  220.5189 H   0  0  0  0  0  0  0  0  0  0  0  0
  143.6580   73.5560  220.5430 C   0  0  0  0  0  0  0  0  0  0  0  0
  144.9350   73.9330  220.0930 O   0  0  0  0  0  0  0  0  0  0  0  0
  146.1400   73.7700  220.8520 C   0  0  0  0  0  0  0  0  0  0  0  0
  145.9040   73.8019  221.9259 H   0  0  0  0  0  0  0  0  0  0  0  0
  146.5999   72.8015  220.6063 H   0  0  0  0  0  0  0  0  0  0  0  0
  146.8407   74.5815  220.6063 H   0  0  0  0  0  0  0  0  0  0  0  0
  143.3140   72.2140  220.8070 C   0  0  0  0  0  0  0  0  0  0  0  0
  144.0521   71.4159  220.6387 H   0  0  0  0  0  0  0  0  0  0  0  0
  142.0380   71.8940  221.2820 C   0  0  0  0  0  0  0  0  0  0  0  0
  141.7791   70.8452  221.4894 H   0  0  0  0  0  0  0  0  0  0  0  0
  1  2  1  0
  2  3  2  0
  3  4  1  0
  3  5  1  0
  5  6  2  0
  6  7  1  0
  7  8  2  0
  8  9  1  0
  8 10  1  0
 10 11  1  0
 10 12  2  0
 12 13  1  0
 12 14  1  0
 14 15  1  0
 14 16  2  0
 16 17  1  0
 17 18  2  0
 17 19  1  0
 19 20  1  0
 20 21  1  0
 20 22  1  0
 20 23  1  0
 23 24  2  0
 24 25  1  0
 24 26  1  0
 26 27  1  0
 26 28  2  0
 28 29  1  0
 28 30  1  0
 30 31  1  0
 30 32  2  0
 32 33  1  0
  2 34  1  0
 34 35  2  0
 35 36  1  0
 35 37  1  0
 37 38  1  0
 37 39  2  0
 39 40  1  0
 40 41  1  0
 41 42  1  0
 41 43  1  0
 41 44  1  0
 39 45  1  0
 45 46  1  0
 45 47  2  0
 47 48  1  0
 19  5  1  0
 32 23  1  0
 47 34  1  0
 16  7  1  0
M  END
>  <UniqueID>  (16) 
69

>  <SMILES>  (16) 
COc1ccc(/C=C/c2nc3ccccc3c(=O)n2Cc2ccccc2)cc1

>  <Energy>  (16) 
68.61639091905492

>  <Genealogy>  (16) 
COc1ccc(/C=C/c2nc3ccccc3c(=O)n2Cc2ccccc2)cc1 (cis-trans isomerization)
COc1ccc(/C=C/c2nc3ccccc3c(=O)n2Cc2ccccc2)cc1 (3D coordinates assigned)
COc1ccc(/C=C/c2nc3ccccc3c(=O)n2Cc2ccccc2)cc1 (optimized conformer: 68.61639091905492 kcal/mol)

>  <smiles>  (16) 
COc1ccc(/C=C/c2nc3ccccc3c(=O)n2Cc2ccccc2)cc1

>  <score_type>  (16) 
oracle

>  <origin>  (16) 
autodockgpu

>  <m_score__min__energy>  (16) 
-7.7300000000000004

>  <m_primary>  (16) 
energy

>  <meeko>  (16) 
{"free_energy": -7.49, "intermolecular_energy": -9.28, "internal_energy": -1.24, "cluster_size": 7, "cluster_id": 3, "rank_in_cluster": 4}

>  <energy>  (16) 
-7.31

>  <cluster_rmsd>  (16) 
1.09

>  <rmsd>  (16) 
269.77

>  <cluster>  (16) 
3

$$$$
OVVDNOVAKMLMDA-DTQAZKPQNA-N
     RDKit          3D

 48 51  0  0  0  0  0  0  0  0999 V2000
  140.4753   73.6454  222.4237 H   0  0  0  0  0  0  0  0  0  0  0  0
  140.8190   72.7090  221.9600 C   0  0  0  0  0  0  0  0  0  0  0  0
  140.0910   71.6020  222.1500 C   0  0  0  0  0  0  0  0  0  0  0  0
  139.4908   71.1975  221.3217 H   0  0  0  0  0  0  0  0  0  0  0  0
  140.0840   70.9190  223.4550 C   0  0  0  0  0  0  0  0  0  0  0  0
  140.5540   71.6110  224.5260 N   0  0  0  0  0  0  0  0  0  0  0  0
  140.5720   71.0740  225.7680 C   0  0  0  0  0  0  0  0  0  0  0  0
  141.0640   71.8190  226.8490 C   0  0  0  0  0  0  0  0  0  0  0  0
  141.4378   72.8408  226.6872 H   0  0  0  0  0  0  0  0  0  0  0  0
  141.0800   71.2640  228.1340 C   0  0  0  0  0  0  0  0  0  0  0  0
  141.4628   71.8507  228.9821 H   0  0  0  0  0  0  0  0  0  0  0  0
  140.6090   69.9630  228.3390 C   0  0  0  0  0  0  0  0  0  0  0  0
  140.6247   69.5279  229.3492 H   0  0  0  0  0  0  0  0  0  0  0  0
  140.1170   69.2110  227.2630 C   0  0  0  0  0  0  0  0  0  0  0  0
  139.7478   68.1884  227.4305 H   0  0  0  0  0  0  0  0  0  0  0  0
  140.0950   69.7640  225.9670 C   0  0  0  0  0  0  0  0  0  0  0  0
  139.6020   69.0560  224.8560 C   0  0  0  0  0  0  0  0  0  0  0  0
  139.1780   67.8740  225.0110 O   0  0  0  0  0  0  0  0  0  0  0  0
  139.5880   69.6410  223.6110 N   0  0  0  0  0  0  0  0  0  0  0  0
  139.0270   68.9030  222.4520 C   0  0  0  0  0  0  0  0  0  0  0  0
  139.2081   69.4869  221.5375 H   0  0  0  0  0  0  0  0  0  0  0  0
  139.5218   67.9219  222.4016 H   0  0  0  0  0  0  0  0  0  0  0  0
  137.5410   68.6700  222.5960 C   0  0  0  0  0  0  0  0  0  0  0  0
  136.9160   67.5670  221.9770 C   0  0  0  0  0  0  0  0  0  0  0  0
  137.5057   66.8855  221.3463 H   0  0  0  0  0  0  0  0  0  0  0  0
  135.5470   67.3370  222.1630 C   0  0  0  0  0  0  0  0  0  0  0  0
  135.0619   66.4813  221.6706 H   0  0  0  0  0  0  0  0  0  0  0  0
  134.7960   68.1940  222.9740 C   0  0  0  0  0  0  0  0  0  0  0  0
  133.7167   68.0239  223.1011 H   0  0  0  0  0  0  0  0  0  0  0  0
  135.4160   69.2690  223.6250 C   0  0  0  0  0  0  0  0  0  0  0  0
  134.8257   69.9344  224.2722 H   0  0  0  0  0  0  0  0  0  0  0  0
  136.7850   69.4960  223.4520 C   0  0  0  0  0  0  0  0  0  0  0  0
  137.2743   70.3234  223.9867 H   0  0  0  0  0  0  0  0  0  0  0  0
  142.0660   72.7380  221.1560 C   0  0  0  0  0  0  0  0  0  0  0  0
  142.6620   71.5180  220.7890 C   0  0  0  0  0  0  0  0  0  0  0  0
  142.2080   70.5693  221.1114 H   0  0  0  0  0  0  0  0  0  0  0  0
  143.8280   71.5030  220.0170 C   0  0  0  0  0  0  0  0  0  0  0  0
  144.2773   70.5420  219.7259 H   0  0  0  0  0  0  0  0  0  0  0  0
  144.4290   72.7030  219.6110 C   0  0  0  0  0  0  0  0  0  0  0  0
  145.5880   72.6320  218.8200 O   0  0  0  0  0  0  0  0  0  0  0  0
  145.6580   73.0460  217.4500 C   0  0  0  0  0  0  0  0  0  0  0  0
  145.8412   74.1296  217.4033 H   0  0  0  0  0  0  0  0  0  0  0  0
  146.4788   72.5133  216.9475 H   0  0  0  0  0  0  0  0  0  0  0  0
  144.7077   72.8128  216.9475 H   0  0  0  0  0  0  0  0  0  0  0  0
  143.8550   73.9300  220.0040 C   0  0  0  0  0  0  0  0  0  0  0  0
  144.3308   74.8768  219.7086 H   0  0  0  0  0  0  0  0  0  0  0  0
  142.6830   73.9480  220.7680 C   0  0  0  0  0  0  0  0  0  0  0  0
  142.2399   74.9091  221.0680 H   0  0  0  0  0  0  0  0  0  0  0  0
  1  2  1  0
  2  3  2  0
  3  4  1  0
  3  5  1  0
  5  6  2  0
  6  7  1  0
  7  8  2  0
  8  9  1  0
  8 10  1  0
 10 11  1  0
 10 12  2  0
 12 13  1  0
 12 14  1  0
 14 15  1  0
 14 16  2  0
 16 17  1  0
 17 18  2  0
 17 19  1  0
 19 20  1  0
 20 21  1  0
 20 22  1  0
 20 23  1  0
 23 24  2  0
 24 25  1  0
 24 26  1  0
 26 27  1  0
 26 28  2  0
 28 29  1  0
 28 30  1  0
 30 31  1  0
 30 32  2  0
 32 33  1  0
  2 34  1  0
 34 35  2  0
 35 36  1  0
 35 37  1  0
 37 38  1  0
 37 39  2  0
 39 40  1  0
 40 41  1  0
 41 42  1  0
 41 43  1  0
 41 44  1  0
 39 45  1  0
 45 46  1  0
 45 47  2  0
 47 48  1  0
 19  5  1  0
 32 23  1  0
 47 34  1  0
 16  7  1  0
M  END
>  <UniqueID>  (17) 
69

>  <SMILES>  (17) 
COc1ccc(/C=C/c2nc3ccccc3c(=O)n2Cc2ccccc2)cc1

>  <Energy>  (17) 
68.61639091905492

>  <Genealogy>  (17) 
COc1ccc(/C=C/c2nc3ccccc3c(=O)n2Cc2ccccc2)cc1 (cis-trans isomerization)
COc1ccc(/C=C/c2nc3ccccc3c(=O)n2Cc2ccccc2)cc1 (3D coordinates assigned)
COc1ccc(/C=C/c2nc3ccccc3c(=O)n2Cc2ccccc2)cc1 (optimized conformer: 68.61639091905492 kcal/mol)

>  <smiles>  (17) 
COc1ccc(/C=C/c2nc3ccccc3c(=O)n2Cc2ccccc2)cc1

>  <score_type>  (17) 
oracle

>  <origin>  (17) 
autodockgpu

>  <m_score__min__energy>  (17) 
-7.7300000000000004

>  <m_primary>  (17) 
energy

>  <meeko>  (17) 
{"free_energy": -7.58, "intermolecular_energy": -9.37, "internal_energy": -1.14, "cluster_size": 7, "cluster_id": 3, "rank_in_cluster": 3}

>  <energy>  (17) 
-7.31

>  <cluster_rmsd>  (17) 
1.21

>  <rmsd>  (17) 
269.79

>  <cluster>  (17) 
3

$$$$
OVVDNOVAKMLMDA-DTQAZKPQNA-N
     RDKit          3D

 48 51  0  0  0  0  0  0  0  0999 V2000
  138.6760   73.5002  222.2491 H   0  0  0  0  0  0  0  0  0  0  0  0
  139.3070   72.6060  222.1380 C   0  0  0  0  0  0  0  0  0  0  0  0
  138.7960   71.4200  222.4940 C   0  0  0  0  0  0  0  0  0  0  0  0
  138.0808   70.9141  221.8287 H   0  0  0  0  0  0  0  0  0  0  0  0
  139.1810   70.7860  223.7660 C   0  0  0  0  0  0  0  0  0  0  0  0
  139.8920   71.5350  224.6500 N   0  0  0  0  0  0  0  0  0  0  0  0
  140.2770   71.0450  225.8510 C   0  0  0  0  0  0  0  0  0  0  0  0
  141.0090   71.8490  226.7360 C   0  0  0  0  0  0  0  0  0  0  0  0
  141.2729   72.8787  226.4532 H   0  0  0  0  0  0  0  0  0  0  0  0
  141.4040   71.3420  227.9790 C   0  0  0  0  0  0  0  0  0  0  0  0
  141.9752   71.9747  228.6743 H   0  0  0  0  0  0  0  0  0  0  0  0
  141.0730   70.0310  228.3380 C   0  0  0  0  0  0  0  0  0  0  0  0
  141.3872   69.6342  229.3146 H   0  0  0  0  0  0  0  0  0  0  0  0
  140.3420   69.2210  227.4570 C   0  0  0  0  0  0  0  0  0  0  0  0
  140.0837   68.1909  227.7439 H   0  0  0  0  0  0  0  0  0  0  0  0
  139.9380   69.7250  226.2050 C   0  0  0  0  0  0  0  0  0  0  0  0
  139.1950   68.9570  225.2900 C   0  0  0  0  0  0  0  0  0  0  0  0
  138.8880   67.7660  225.5840 O   0  0  0  0  0  0  0  0  0  0  0  0
  138.8100   69.4960  224.0830 N   0  0  0  0  0  0  0  0  0  0  0  0
  137.9910   68.6930  223.1420 C   0  0  0  0  0  0  0  0  0  0  0  0
  137.3992   67.9656  223.7171 H   0  0  0  0  0  0  0  0  0  0  0  0
  137.3395   69.3816  222.5840 H   0  0  0  0  0  0  0  0  0  0  0  0
  138.8470   67.9470  222.1450 C   0  0  0  0  0  0  0  0  0  0  0  0
  138.6480   66.5700  221.9060 C   0  0  0  0  0  0  0  0  0  0  0  0
  137.8877   66.0183  222.4784 H   0  0  0  0  0  0  0  0  0  0  0  0
  139.4160   65.9040  220.9420 C   0  0  0  0  0  0  0  0  0  0  0  0
  139.2655   64.8285  220.7668 H   0  0  0  0  0  0  0  0  0  0  0  0
  140.3740   66.6050  220.2020 C   0  0  0  0  0  0  0  0  0  0  0  0
  140.9910   66.0755  219.4611 H   0  0  0  0  0  0  0  0  0  0  0  0
  140.5490   67.9810  220.4030 C   0  0  0  0  0  0  0  0  0  0  0  0
  141.2934   68.5332  219.8106 H   0  0  0  0  0  0  0  0  0  0  0  0
  139.7770   68.6520  221.3570 C   0  0  0  0  0  0  0  0  0  0  0  0
  139.8971   69.7370  221.4925 H   0  0  0  0  0  0  0  0  0  0  0  0
  140.6790   72.7760  221.6020 C   0  0  0  0  0  0  0  0  0  0  0  0
  141.1310   74.0750  221.3010 C   0  0  0  0  0  0  0  0  0  0  0  0
  140.4623   74.9351  221.4532 H   0  0  0  0  0  0  0  0  0  0  0  0
  142.4240   74.2790  220.8100 C   0  0  0  0  0  0  0  0  0  0  0  0
  142.7691   75.3000  220.5897 H   0  0  0  0  0  0  0  0  0  0  0  0
  143.2850   73.1920  220.5960 C   0  0  0  0  0  0  0  0  0  0  0  0
  144.5810   73.4540  220.1210 O   0  0  0  0  0  0  0  0  0  0  0  0
  145.7620   73.4120  220.9310 C   0  0  0  0  0  0  0  0  0  0  0  0
  145.4783   73.4221  221.9937 H   0  0  0  0  0  0  0  0  0  0  0  0
  146.3253   72.4933  220.7106 H   0  0  0  0  0  0  0  0  0  0  0  0
  146.3891   74.2884  220.7106 H   0  0  0  0  0  0  0  0  0  0  0  0
  142.8260   71.8850  220.8640 C   0  0  0  0  0  0  0  0  0  0  0  0
  143.4855   71.0243  220.6789 H   0  0  0  0  0  0  0  0  0  0  0  0
  141.5360   71.6790  221.3640 C   0  0  0  0  0  0  0  0  0  0  0  0
  141.1871   70.6569  221.5730 H   0  0  0  0  0  0  0  0  0  0  0  0
  1  2  1  0
  2  3  2  0
  3  4  1  0
  3  5  1  0
  5  6  2  0
  6  7  1  0
  7  8  2  0
  8  9  1  0
  8 10  1  0
 10 11  1  0
 10 12  2  0
 12 13  1  0
 12 14  1  0
 14 15  1  0
 14 16  2  0
 16 17  1  0
 17 18  2  0
 17 19  1  0
 19 20  1  0
 20 21  1  0
 20 22  1  0
 20 23  1  0
 23 24  2  0
 24 25  1  0
 24 26  1  0
 26 27  1  0
 26 28  2  0
 28 29  1  0
 28 30  1  0
 30 31  1  0
 30 32  2  0
 32 33  1  0
  2 34  1  0
 34 35  2  0
 35 36  1  0
 35 37  1  0
 37 38  1  0
 37 39  2  0
 39 40  1  0
 40 41  1  0
 41 42  1  0
 41 43  1  0
 41 44  1  0
 39 45  1  0
 45 46  1  0
 45 47  2  0
 47 48  1  0
 19  5  1  0
 32 23  1  0
 47 34  1  0
 16  7  1  0
M  END
>  <UniqueID>  (18) 
69

>  <SMILES>  (18) 
COc1ccc(/C=C/c2nc3ccccc3c(=O)n2Cc2ccccc2)cc1

>  <Energy>  (18) 
68.61639091905492

>  <Genealogy>  (18) 
COc1ccc(/C=C/c2nc3ccccc3c(=O)n2Cc2ccccc2)cc1 (cis-trans isomerization)
COc1ccc(/C=C/c2nc3ccccc3c(=O)n2Cc2ccccc2)cc1 (3D coordinates assigned)
COc1ccc(/C=C/c2nc3ccccc3c(=O)n2Cc2ccccc2)cc1 (optimized conformer: 68.61639091905492 kcal/mol)

>  <smiles>  (18) 
COc1ccc(/C=C/c2nc3ccccc3c(=O)n2Cc2ccccc2)cc1

>  <score_type>  (18) 
oracle

>  <origin>  (18) 
autodockgpu

>  <m_score__min__energy>  (18) 
-7.7300000000000004

>  <m_primary>  (18) 
energy

>  <meeko>  (18) 
{"free_energy": -7.31, "intermolecular_energy": -9.1, "internal_energy": -1.45, "cluster_size": 7, "cluster_id": 3, "rank_in_cluster": 7}

>  <energy>  (18) 
-7.26

>  <cluster_rmsd>  (18) 
0.0

>  <rmsd>  (18) 
269.77

>  <cluster>  (18) 
4

$$$$
OVVDNOVAKMLMDA-DTQAZKPQNA-N
     RDKit          3D

 48 51  0  0  0  0  0  0  0  0999 V2000
  140.7567   73.9191  222.4590 H   0  0  0  0  0  0  0  0  0  0  0  0
  140.9800   72.9930  221.9090 C   0  0  0  0  0  0  0  0  0  0  0  0
  140.1420   71.9570  222.0430 C   0  0  0  0  0  0  0  0  0  0  0  0
  139.5660   71.6083  221.1731 H   0  0  0  0  0  0  0  0  0  0  0  0
  139.9820   71.2790  223.3400 C   0  0  0  0  0  0  0  0  0  0  0  0
  140.6160   71.8230  224.4130 N   0  0  0  0  0  0  0  0  0  0  0  0
  140.5150   71.2800  225.6480 C   0  0  0  0  0  0  0  0  0  0  0  0
  141.1830   71.8700  226.7310 C   0  0  0  0  0  0  0  0  0  0  0  0
  141.7912   72.7733  226.5757 H   0  0  0  0  0  0  0  0  0  0  0  0
  141.0760   71.3100  228.0090 C   0  0  0  0  0  0  0  0  0  0  0  0
  141.5972   71.7756  228.8585 H   0  0  0  0  0  0  0  0  0  0  0  0
  140.3070   70.1590  228.2070 C   0  0  0  0  0  0  0  0  0  0  0  0
  140.2268   69.7197  229.2123 H   0  0  0  0  0  0  0  0  0  0  0  0
  139.6380   69.5630  227.1290 C   0  0  0  0  0  0  0  0  0  0  0  0
  139.0342   68.6577  227.2899 H   0  0  0  0  0  0  0  0  0  0  0  0
  139.7380   70.1220  225.8400 C   0  0  0  0  0  0  0  0  0  0  0  0
  139.0780   69.5690  224.7270 C   0  0  0  0  0  0  0  0  0  0  0  0
  138.3820   68.5230  224.8740 O   0  0  0  0  0  0  0  0  0  0  0  0
  139.1930   70.1570  223.4880 N   0  0  0  0  0  0  0  0  0  0  0  0
  138.4600   69.5920  222.3280 C   0  0  0  0  0  0  0  0  0  0  0  0
  137.4413   69.3258  222.6463 H   0  0  0  0  0  0  0  0  0  0  0  0
  138.4408   70.3523  221.5333 H   0  0  0  0  0  0  0  0  0  0  0  0
  139.1390   68.3580  221.7800 C   0  0  0  0  0  0  0  0  0  0  0  0
  138.8290   67.0760  222.2820 C   0  0  0  0  0  0  0  0  0  0  0  0
  138.1138   66.9701  223.1110 H   0  0  0  0  0  0  0  0  0  0  0  0
  139.4290   65.9380  221.7280 C   0  0  0  0  0  0  0  0  0  0  0  0
  139.1917   64.9416  222.1290 H   0  0  0  0  0  0  0  0  0  0  0  0
  140.3300   66.0670  220.6650 C   0  0  0  0  0  0  0  0  0  0  0  0
  140.8172   65.1742  220.2459 H   0  0  0  0  0  0  0  0  0  0  0  0
  140.6120   67.3330  220.1340 C   0  0  0  0  0  0  0  0  0  0  0  0
  141.3102   67.4314  219.2897 H   0  0  0  0  0  0  0  0  0  0  0  0
  140.0070   68.4710  220.6760 C   0  0  0  0  0  0  0  0  0  0  0  0
  140.2097   69.4596  220.2382 H   0  0  0  0  0  0  0  0  0  0  0  0
  142.1940   72.9560  221.0570 C   0  0  0  0  0  0  0  0  0  0  0  0
  142.7890   71.7110  220.7810 C   0  0  0  0  0  0  0  0  0  0  0  0
  142.3593   70.7929  221.2083 H   0  0  0  0  0  0  0  0  0  0  0  0
  143.9230   71.6340  219.9670 C   0  0  0  0  0  0  0  0  0  0  0  0
  144.3705   70.6536  219.7466 H   0  0  0  0  0  0  0  0  0  0  0  0
  144.4950   72.7960  219.4290 C   0  0  0  0  0  0  0  0  0  0  0  0
  145.6240   72.6600  218.6020 O   0  0  0  0  0  0  0  0  0  0  0  0
  145.6870   73.1090  217.2430 C   0  0  0  0  0  0  0  0  0  0  0  0
  145.8398   74.1982  217.2234 H   0  0  0  0  0  0  0  0  0  0  0  0
  146.5242   72.6120  216.7311 H   0  0  0  0  0  0  0  0  0  0  0  0
  144.7453   72.8616  216.7311 H   0  0  0  0  0  0  0  0  0  0  0  0
  143.9240   74.0500  219.7300 C   0  0  0  0  0  0  0  0  0  0  0  0
  144.3775   74.9690  219.3303 H   0  0  0  0  0  0  0  0  0  0  0  0
  142.7830   74.1290  220.5350 C   0  0  0  0  0  0  0  0  0  0  0  0
  142.3417   75.1104  220.7630 H   0  0  0  0  0  0  0  0  0  0  0  0
  1  2  1  0
  2  3  2  0
  3  4  1  0
  3  5  1  0
  5  6  2  0
  6  7  1  0
  7  8  2  0
  8  9  1  0
  8 10  1  0
 10 11  1  0
 10 12  2  0
 12 13  1  0
 12 14  1  0
 14 15  1  0
 14 16  2  0
 16 17  1  0
 17 18  2  0
 17 19  1  0
 19 20  1  0
 20 21  1  0
 20 22  1  0
 20 23  1  0
 23 24  2  0
 24 25  1  0
 24 26  1  0
 26 27  1  0
 26 28  2  0
 28 29  1  0
 28 30  1  0
 30 31  1  0
 30 32  2  0
 32 33  1  0
  2 34  1  0
 34 35  2  0
 35 36  1  0
 35 37  1  0
 37 38  1  0
 37 39  2  0
 39 40  1  0
 40 41  1  0
 41 42  1  0
 41 43  1  0
 41 44  1  0
 39 45  1  0
 45 46  1  0
 45 47  2  0
 47 48  1  0
 19  5  1  0
 32 23  1  0
 47 34  1  0
 16  7  1  0
M  END
>  <UniqueID>  (19) 
69

>  <SMILES>  (19) 
COc1ccc(/C=C/c2nc3ccccc3c(=O)n2Cc2ccccc2)cc1

>  <Energy>  (19) 
68.61639091905492

>  <Genealogy>  (19) 
COc1ccc(/C=C/c2nc3ccccc3c(=O)n2Cc2ccccc2)cc1 (cis-trans isomerization)
COc1ccc(/C=C/c2nc3ccccc3c(=O)n2Cc2ccccc2)cc1 (3D coordinates assigned)
COc1ccc(/C=C/c2nc3ccccc3c(=O)n2Cc2ccccc2)cc1 (optimized conformer: 68.61639091905492 kcal/mol)

>  <smiles>  (19) 
COc1ccc(/C=C/c2nc3ccccc3c(=O)n2Cc2ccccc2)cc1

>  <score_type>  (19) 
oracle

>  <origin>  (19) 
autodockgpu

>  <m_score__min__energy>  (19) 
-7.7300000000000004

>  <m_primary>  (19) 
energy

>  <meeko>  (19) 
{"free_energy": -7.61, "intermolecular_energy": -9.4, "internal_energy": -1.25, "cluster_size": 7, "cluster_id": 3, "rank_in_cluster": 1}

>  <energy>  (19) 
-7.1

>  <cluster_rmsd>  (19) 
0.0

>  <rmsd>  (19) 
269.83

>  <cluster>  (19) 
5

$$$$
OVVDNOVAKMLMDA-DTQAZKPQNA-N
     RDKit          3D

 48 51  0  0  0  0  0  0  0  0999 V2000
  138.6594   73.3321  222.4857 H   0  0  0  0  0  0  0  0  0  0  0  0
  139.4880   72.6140  222.3980 C   0  0  0  0  0  0  0  0  0  0  0  0
  140.4940   72.9050  221.5650 C   0  0  0  0  0  0  0  0  0  0  0  0
  141.0648   72.0897  221.0965 H   0  0  0  0  0  0  0  0  0  0  0  0
  140.8460   74.3040  221.2680 C   0  0  0  0  0  0  0  0  0  0  0  0
  140.3190   75.2660  222.0700 N   0  0  0  0  0  0  0  0  0  0  0  0
  140.5980   76.5780  221.8860 C   0  0  0  0  0  0  0  0  0  0  0  0
  140.0360   77.5420  222.7350 C   0  0  0  0  0  0  0  0  0  0  0  0
  139.3662   77.2321  223.5507 H   0  0  0  0  0  0  0  0  0  0  0  0
  140.3260   78.8970  222.5460 C   0  0  0  0  0  0  0  0  0  0  0  0
  139.8874   79.6520  223.2150 H   0  0  0  0  0  0  0  0  0  0  0  0
  141.1740   79.2920  221.5060 C   0  0  0  0  0  0  0  0  0  0  0  0
  141.3985   80.3585  221.3575 H   0  0  0  0  0  0  0  0  0  0  0  0
  141.7390   78.3340  220.6520 C   0  0  0  0  0  0  0  0  0  0  0  0
  142.4055   78.6501  219.8360 H   0  0  0  0  0  0  0  0  0  0  0  0
  141.4540   76.9680  220.8380 C   0  0  0  0  0  0  0  0  0  0  0  0
  142.0020   75.9670  220.0160 C   0  0  0  0  0  0  0  0  0  0  0  0
  142.7660   76.2950  219.0620 O   0  0  0  0  0  0  0  0  0  0  0  0
  141.7060   74.6420  220.2430 N   0  0  0  0  0  0  0  0  0  0  0  0
  142.3220   73.5890  219.3970 C   0  0  0  0  0  0  0  0  0  0  0  0
  141.7226   72.6704  219.4799 H   0  0  0  0  0  0  0  0  0  0  0  0
  142.3452   73.9550  218.3599 H   0  0  0  0  0  0  0  0  0  0  0  0
  143.7420   73.2860  219.8190 C   0  0  0  0  0  0  0  0  0  0  0  0
  144.3950   74.0780  220.7880 C   0  0  0  0  0  0  0  0  0  0  0  0
  143.8835   74.9523  221.2168 H   0  0  0  0  0  0  0  0  0  0  0  0
  145.6920   73.7540  221.2050 C   0  0  0  0  0  0  0  0  0  0  0  0
  146.2012   74.3805  221.9521 H   0  0  0  0  0  0  0  0  0  0  0  0
  146.3410   72.6350  220.6730 C   0  0  0  0  0  0  0  0  0  0  0  0
  147.3674   72.3941  220.9867 H   0  0  0  0  0  0  0  0  0  0  0  0
  145.6840   71.8200  219.7400 C   0  0  0  0  0  0  0  0  0  0  0  0
  146.1908   70.9333  219.3313 H   0  0  0  0  0  0  0  0  0  0  0  0
  144.3850   72.1340  219.3290 C   0  0  0  0  0  0  0  0  0  0  0  0
  143.8625   71.4767  218.6184 H   0  0  0  0  0  0  0  0  0  0  0  0
  139.4320   71.3740  223.2090 C   0  0  0  0  0  0  0  0  0  0  0  0
  138.6020   70.3220  222.7800 C   0  0  0  0  0  0  0  0  0  0  0  0
  138.0017   70.4380  221.8656 H   0  0  0  0  0  0  0  0  0  0  0  0
  138.5350   69.1300  223.5080 C   0  0  0  0  0  0  0  0  0  0  0  0
  137.8916   68.3105  223.1551 H   0  0  0  0  0  0  0  0  0  0  0  0
  139.2820   68.9710  224.6850 C   0  0  0  0  0  0  0  0  0  0  0  0
  139.1940   67.7460  225.3680 O   0  0  0  0  0  0  0  0  0  0  0  0
  140.0100   67.3870  226.4900 C   0  0  0  0  0  0  0  0  0  0  0  0
  139.4755   67.6221  227.4222 H   0  0  0  0  0  0  0  0  0  0  0  0
  140.2287   66.3095  226.4545 H   0  0  0  0  0  0  0  0  0  0  0  0
  140.9521   67.9537  226.4545 H   0  0  0  0  0  0  0  0  0  0  0  0
  140.0900   70.0350  225.1380 C   0  0  0  0  0  0  0  0  0  0  0  0
  140.6627   69.9288  226.0711 H   0  0  0  0  0  0  0  0  0  0  0  0
  140.1660   71.2240  224.4060 C   0  0  0  0  0  0  0  0  0  0  0  0
  140.8013   72.0473  224.7647 H   0  0  0  0  0  0  0  0  0  0  0  0
  1  2  1  0
  2  3  2  0
  3  4  1  0
  3  5  1  0
  5  6  2  0
  6  7  1  0
  7  8  2  0
  8  9  1  0
  8 10  1  0
 10 11  1  0
 10 12  2  0
 12 13  1  0
 12 14  1  0
 14 15  1  0
 14 16  2  0
 16 17  1  0
 17 18  2  0
 17 19  1  0
 19 20  1  0
 20 21  1  0
 20 22  1  0
 20 23  1  0
 23 24  2  0
 24 25  1  0
 24 26  1  0
 26 27  1  0
 26 28  2  0
 28 29  1  0
 28 30  1  0
 30 31  1  0
 30 32  2  0
 32 33  1  0
  2 34  1  0
 34 35  2  0
 35 36  1  0
 35 37  1  0
 37 38  1  0
 37 39  2  0
 39 40  1  0
 40 41  1  0
 41 42  1  0
 41 43  1  0
 41 44  1  0
 39 45  1  0
 45 46  1  0
 45 47  2  0
 47 48  1  0
 19  5  1  0
 32 23  1  0
 47 34  1  0
 16  7  1  0
M  END
>  <UniqueID>  (20) 
69

>  <SMILES>  (20) 
COc1ccc(/C=C/c2nc3ccccc3c(=O)n2Cc2ccccc2)cc1

>  <Energy>  (20) 
68.61639091905492

>  <Genealogy>  (20) 
COc1ccc(/C=C/c2nc3ccccc3c(=O)n2Cc2ccccc2)cc1 (cis-trans isomerization)
COc1ccc(/C=C/c2nc3ccccc3c(=O)n2Cc2ccccc2)cc1 (3D coordinates assigned)
COc1ccc(/C=C/c2nc3ccccc3c(=O)n2Cc2ccccc2)cc1 (optimized conformer: 68.61639091905492 kcal/mol)

>  <smiles>  (20) 
COc1ccc(/C=C/c2nc3ccccc3c(=O)n2Cc2ccccc2)cc1

>  <score_type>  (20) 
oracle

>  <origin>  (20) 
autodockgpu

>  <m_score__min__energy>  (20) 
-7.7300000000000004

>  <m_primary>  (20) 
energy

>  <meeko>  (20) 
{"free_energy": -7.73, "intermolecular_energy": -9.52, "internal_energy": -1.07, "cluster_size": 7, "cluster_id": 1, "rank_in_cluster": 1}

>  <energy>  (20) 
-7.07

>  <cluster_rmsd>  (20) 
0.37

>  <rmsd>  (20) 
269.8

>  <cluster>  (20) 
5

$$$$
