
     RDKit          3D

 44 47  0  0  0  0  0  0  0  0999 V2000
  140.5610   74.1650  221.9270 O   0  0  0  0  0  0  0  0  0  0  0  0
  141.4110   74.7050  221.1700 C   0  0  0  0  0  0  0  0  0  0  0  0
  142.4780   73.9490  220.7840 C   0  0  0  0  0  0  0  0  0  0  0  0
  142.6260   72.6450  221.2020 C   0  0  0  0  0  0  0  0  0  0  0  0
  143.7460   71.9580  220.7540 C   0  0  0  0  0  0  0  0  0  0  0  0
  144.6790   72.5750  219.9140 C   0  0  0  0  0  0  0  0  0  0  0  0
  144.5200   73.8820  219.5030 C   0  0  0  0  0  0  0  0  0  0  0  0
  143.4000   74.5390  219.9620 C   0  0  0  0  0  0  0  0  0  0  0  0
  143.2090   75.7930  219.5910 N   0  0  0  0  0  0  0  0  0  0  0  0
  142.1490   76.5870  219.9580 C   0  0  0  0  0  0  0  0  0  0  0  0
  142.1880   77.9270  219.4690 C   0  0  0  0  0  0  0  0  0  0  0  0
  141.2640   78.7920  219.2040 C   0  0  0  0  0  0  0  0  0  0  0  0
  141.0030   80.0080  220.0000 C   0  0  0  0  0  0  0  0  0  0  0  0
  141.9860   80.4770  220.8840 C   0  0  0  0  0  0  0  0  0  0  0  0
  141.8300   81.5850  221.6530 C   0  0  0  0  0  0  0  0  0  0  0  0
  140.6740   82.3040  221.5920 C   0  0  0  0  0  0  0  0  0  0  0  0
  139.6870   81.8670  220.7320 C   0  0  0  0  0  0  0  0  0  0  0  0
  139.8530   80.7250  219.9400 C   0  0  0  0  0  0  0  0  0  0  0  0
  141.2540   76.0130  220.7550 N   0  0  0  0  0  0  0  0  0  0  0  0
  140.0650   76.6430  221.2530 C   0  0  0  0  0  0  0  0  0  0  0  0
  140.2700   77.6940  222.2480 C   0  0  0  0  0  0  0  0  0  0  0  0
  141.4410   77.9230  222.9460 C   0  0  0  0  0  0  0  0  0  0  0  0
  141.5690   78.9250  223.8970 C   0  0  0  0  0  0  0  0  0  0  0  0
  140.5220   79.7560  224.2010 C   0  0  0  0  0  0  0  0  0  0  0  0
  139.3410   79.5540  223.5220 C   0  0  0  0  0  0  0  0  0  0  0  0
  137.9410   80.5720  223.8440 Cl  0  0  0  0  0  0  0  0  0  0  0  0
  139.2240   78.5620  222.5850 C   0  0  0  0  0  0  0  0  0  0  0  0
  141.8876   72.1679  221.8632 H   0  0  0  0  0  0  0  0  0  0  0  0
  143.9020   70.9141  221.0638 H   0  0  0  0  0  0  0  0  0  0  0  0
  145.5572   72.0063  219.5744 H   0  0  0  0  0  0  0  0  0  0  0  0
  145.2497   74.3739  218.8431 H   0  0  0  0  0  0  0  0  0  0  0  0
  143.2062   78.2978  219.2799 H   0  0  0  0  0  0  0  0  0  0  0  0
  140.6286   78.6093  218.3249 H   0  0  0  0  0  0  0  0  0  0  0  0
  142.9310   79.9189  220.9579 H   0  0  0  0  0  0  0  0  0  0  0  0
  142.6389   81.9032  222.3271 H   0  0  0  0  0  0  0  0  0  0  0  0
  140.5321   83.2039  222.2085 H   0  0  0  0  0  0  0  0  0  0  0  0
  138.7449   82.4312  220.6673 H   0  0  0  0  0  0  0  0  0  0  0  0
  139.0454   80.4067  219.2643 H   0  0  0  0  0  0  0  0  0  0  0  0
  139.5350   77.0871  220.3975 H   0  0  0  0  0  0  0  0  0  0  0  0
  139.5008   75.8511  221.7674 H   0  0  0  0  0  0  0  0  0  0  0  0
  142.3104   77.2820  222.7381 H   0  0  0  0  0  0  0  0  0  0  0  0
  142.5294   79.0552  224.4173 H   0  0  0  0  0  0  0  0  0  0  0  0
  140.6210   80.5505  224.9553 H   0  0  0  0  0  0  0  0  0  0  0  0
  138.2591   78.4409  222.0709 H   0  0  0  0  0  0  0  0  0  0  0  0
  1  2  2  0
  2  3  1  0
  3  4  2  0
  4  5  1  0
  5  6  2  0
  6  7  1  0
  7  8  2  0
  8  9  1  0
  9 10  2  0
 10 11  1  0
 11 12  2  0
 12 13  1  0
 13 14  2  0
 14 15  1  0
 15 16  2  0
 16 17  1  0
 17 18  2  0
 10 19  1  0
 19 20  1  0
 20 21  1  0
 21 22  2  0
 22 23  1  0
 23 24  2  0
 24 25  1  0
 25 26  1  0
 25 27  2  0
 19  2  1  0
 27 21  1  0
  8  3  1  0
 18 13  1  0
  4 28  1  0
  5 29  1  0
  6 30  1  0
  7 31  1  0
 11 32  1  0
 12 33  1  0
 14 34  1  0
 15 35  1  0
 16 36  1  0
 17 37  1  0
 18 38  1  0
 20 39  1  0
 20 40  1  0
 22 41  1  0
 23 42  1  0
 24 43  1  0
 27 44  1  0
M  END
>  <smiles>  (1) 
O=c1c2ccccc2nc(/C=C/c2ccccc2)n1Cc1cccc(Cl)c1

>  <score_type>  (1) 
oracle

>  <origin>  (1) 
autodockgpu

>  <m_score__min__energy>  (1) 
-8.0999999999999996

>  <m_primary>  (1) 
energy

>  <meeko>  (1) 
{"free_energy": -6.92, "intermolecular_energy": -8.41, "internal_energy": -2.12, "cluster_size": 8, "cluster_id": 5, "rank_in_cluster": 6}

>  <energy>  (1) 
-8.1

>  <cluster_rmsd>  (1) 
0.0

>  <rmsd>  (1) 
271.96

>  <cluster>  (1) 
1

$$$$

     RDKit          3D

 44 47  0  0  0  0  0  0  0  0999 V2000
  142.2870   74.5190  219.0010 O   0  0  0  0  0  0  0  0  0  0  0  0
  141.6360   74.5430  220.0790 C   0  0  0  0  0  0  0  0  0  0  0  0
  141.3560   75.7640  220.6170 C   0  0  0  0  0  0  0  0  0  0  0  0
  141.7640   76.9300  220.0080 C   0  0  0  0  0  0  0  0  0  0  0  0
  141.4280   78.1230  220.6320 C   0  0  0  0  0  0  0  0  0  0  0  0
  140.7050   78.1300  221.8300 C   0  0  0  0  0  0  0  0  0  0  0  0
  140.3030   76.9540  222.4300 C   0  0  0  0  0  0  0  0  0  0  0  0
  140.6490   75.7860  221.7890 C   0  0  0  0  0  0  0  0  0  0  0  0
  140.2820   74.6380  222.3300 N   0  0  0  0  0  0  0  0  0  0  0  0
  140.5450   73.3890  221.8210 C   0  0  0  0  0  0  0  0  0  0  0  0
  140.0870   72.2940  222.6140 C   0  0  0  0  0  0  0  0  0  0  0  0
  140.7050   71.3580  223.2590 C   0  0  0  0  0  0  0  0  0  0  0  0
  140.5370   71.0840  224.6990 C   0  0  0  0  0  0  0  0  0  0  0  0
  139.7990   69.9630  225.1060 C   0  0  0  0  0  0  0  0  0  0  0  0
  139.5940   69.6360  226.4080 C   0  0  0  0  0  0  0  0  0  0  0  0
  140.1170   70.4110  227.3980 C   0  0  0  0  0  0  0  0  0  0  0  0
  140.8480   71.5220  227.0310 C   0  0  0  0  0  0  0  0  0  0  0  0
  141.0570   71.8540  225.6870 C   0  0  0  0  0  0  0  0  0  0  0  0
  141.2310   73.3680  220.6830 N   0  0  0  0  0  0  0  0  0  0  0  0
  141.6070   72.1850  219.9640 C   0  0  0  0  0  0  0  0  0  0  0  0
  143.0450   71.9490  219.8340 C   0  0  0  0  0  0  0  0  0  0  0  0
  143.6350   71.0210  218.9980 C   0  0  0  0  0  0  0  0  0  0  0  0
  145.0070   70.8270  218.9350 C   0  0  0  0  0  0  0  0  0  0  0  0
  145.8660   71.5600  219.7120 C   0  0  0  0  0  0  0  0  0  0  0  0
  145.3090   72.4950  220.5560 C   0  0  0  0  0  0  0  0  0  0  0  0
  146.3320   73.4840  221.5930 Cl  0  0  0  0  0  0  0  0  0  0  0  0
  143.9530   72.6780  220.6120 C   0  0  0  0  0  0  0  0  0  0  0  0
  142.3324   76.9161  219.0664 H   0  0  0  0  0  0  0  0  0  0  0  0
  141.7344   79.0771  220.1783 H   0  0  0  0  0  0  0  0  0  0  0  0
  140.4524   79.0908  222.3023 H   0  0  0  0  0  0  0  0  0  0  0  0
  139.7352   76.9502  223.3721 H   0  0  0  0  0  0  0  0  0  0  0  0
  138.9914   72.2341  222.6922 H   0  0  0  0  0  0  0  0  0  0  0  0
  141.4038   70.7228  222.6949 H   0  0  0  0  0  0  0  0  0  0  0  0
  139.3638   69.3153  224.3307 H   0  0  0  0  0  0  0  0  0  0  0  0
  139.0043   68.7433  226.6634 H   0  0  0  0  0  0  0  0  0  0  0  0
  139.9615   70.1591  228.4574 H   0  0  0  0  0  0  0  0  0  0  0  0
  141.2777   72.1635  227.8145 H   0  0  0  0  0  0  0  0  0  0  0  0
  141.6474   72.7460  225.4305 H   0  0  0  0  0  0  0  0  0  0  0  0
  141.1687   71.3204  220.4840 H   0  0  0  0  0  0  0  0  0  0  0  0
  141.2337   72.3270  218.9391 H   0  0  0  0  0  0  0  0  0  0  0  0
  142.9877   70.4084  218.3533 H   0  0  0  0  0  0  0  0  0  0  0  0
  145.4136   70.0702  218.2481 H   0  0  0  0  0  0  0  0  0  0  0  0
  146.9543   71.4078  219.6635 H   0  0  0  0  0  0  0  0  0  0  0  0
  143.5568   73.4363  221.3034 H   0  0  0  0  0  0  0  0  0  0  0  0
  1  2  2  0
  2  3  1  0
  3  4  2  0
  4  5  1  0
  5  6  2  0
  6  7  1  0
  7  8  2  0
  8  9  1  0
  9 10  2  0
 10 11  1  0
 11 12  2  0
 12 13  1  0
 13 14  2  0
 14 15  1  0
 15 16  2  0
 16 17  1  0
 17 18  2  0
 10 19  1  0
 19 20  1  0
 20 21  1  0
 21 22  2  0
 22 23  1  0
 23 24  2  0
 24 25  1  0
 25 26  1  0
 25 27  2  0
 19  2  1  0
 27 21  1  0
  8  3  1  0
 18 13  1  0
  4 28  1  0
  5 29  1  0
  6 30  1  0
  7 31  1  0
 11 32  1  0
 12 33  1  0
 14 34  1  0
 15 35  1  0
 16 36  1  0
 17 37  1  0
 18 38  1  0
 20 39  1  0
 20 40  1  0
 22 41  1  0
 23 42  1  0
 24 43  1  0
 27 44  1  0
M  END
>  <smiles>  (2) 
O=c1c2ccccc2nc(/C=C/c2ccccc2)n1Cc1cccc(Cl)c1

>  <score_type>  (2) 
oracle

>  <origin>  (2) 
autodockgpu

>  <m_score__min__energy>  (2) 
-8.0999999999999996

>  <m_primary>  (2) 
energy

>  <meeko>  (2) 
{"free_energy": -8.03, "intermolecular_energy": -9.52, "internal_energy": -1.09, "cluster_size": 2, "cluster_id": 1, "rank_in_cluster": 2}

>  <energy>  (2) 
-8.03

>  <cluster_rmsd>  (2) 
0.27

>  <rmsd>  (2) 
271.88

>  <cluster>  (2) 
1

$$$$

     RDKit          3D

 44 47  0  0  0  0  0  0  0  0999 V2000
  138.8420   67.7660  225.4550 O   0  0  0  0  0  0  0  0  0  0  0  0
  139.2050   68.9500  225.2280 C   0  0  0  0  0  0  0  0  0  0  0  0
  139.9010   69.5940  226.2080 C   0  0  0  0  0  0  0  0  0  0  0  0
  140.2010   68.9760  227.4020 C   0  0  0  0  0  0  0  0  0  0  0  0
  140.9150   69.7130  228.3360 C   0  0  0  0  0  0  0  0  0  0  0  0
  141.3090   71.0280  228.0660 C   0  0  0  0  0  0  0  0  0  0  0  0
  141.0010   71.6360  226.8660 C   0  0  0  0  0  0  0  0  0  0  0  0
  140.2930   70.8810  225.9570 C   0  0  0  0  0  0  0  0  0  0  0  0
  139.9790   71.4250  224.7950 N   0  0  0  0  0  0  0  0  0  0  0  0
  139.2790   70.8120  223.7840 C   0  0  0  0  0  0  0  0  0  0  0  0
  139.0190   71.6230  222.6390 C   0  0  0  0  0  0  0  0  0  0  0  0
  139.4750   72.7710  222.2540 C   0  0  0  0  0  0  0  0  0  0  0  0
  140.7950   72.9800  221.6280 C   0  0  0  0  0  0  0  0  0  0  0  0
  141.6430   71.8820  221.4230 C   0  0  0  0  0  0  0  0  0  0  0  0
  142.8720   71.9840  220.8550 C   0  0  0  0  0  0  0  0  0  0  0  0
  143.3410   73.1970  220.4510 C   0  0  0  0  0  0  0  0  0  0  0  0
  142.5300   74.2980  220.6390 C   0  0  0  0  0  0  0  0  0  0  0  0
  141.2630   74.1870  221.2240 C   0  0  0  0  0  0  0  0  0  0  0  0
  138.9000   69.5620  224.0270 N   0  0  0  0  0  0  0  0  0  0  0  0
  138.1730   68.7250  223.1160 C   0  0  0  0  0  0  0  0  0  0  0  0
  138.9770   68.0290  222.1120 C   0  0  0  0  0  0  0  0  0  0  0  0
  139.1300   66.6590  222.0120 C   0  0  0  0  0  0  0  0  0  0  0  0
  139.9250   66.0560  221.0490 C   0  0  0  0  0  0  0  0  0  0  0  0
  140.6150   66.8010  220.1280 C   0  0  0  0  0  0  0  0  0  0  0  0
  140.4820   68.1700  220.1990 C   0  0  0  0  0  0  0  0  0  0  0  0
  141.3290   69.2090  219.0580 Cl  0  0  0  0  0  0  0  0  0  0  0  0
  139.6950   68.7560  221.1540 C   0  0  0  0  0  0  0  0  0  0  0  0
  139.8877   67.9416  227.6064 H   0  0  0  0  0  0  0  0  0  0  0  0
  141.1750   69.2568  229.3026 H   0  0  0  0  0  0  0  0  0  0  0  0
  141.8752   71.5881  228.8248 H   0  0  0  0  0  0  0  0  0  0  0  0
  141.3052   72.6701  226.6467 H   0  0  0  0  0  0  0  0  0  0  0  0
  138.2852   71.1853  221.9462 H   0  0  0  0  0  0  0  0  0  0  0  0
  138.8343   73.6525  222.4037 H   0  0  0  0  0  0  0  0  0  0  0  0
  141.2947   70.8874  221.7385 H   0  0  0  0  0  0  0  0  0  0  0  0
  143.4906   71.0844  220.7208 H   0  0  0  0  0  0  0  0  0  0  0  0
  144.3346   73.2962  219.9895 H   0  0  0  0  0  0  0  0  0  0  0  0
  142.8885   75.2881  220.3210 H   0  0  0  0  0  0  0  0  0  0  0  0
  140.6425   75.0855  221.3569 H   0  0  0  0  0  0  0  0  0  0  0  0
  137.6400   67.9658  223.7072 H   0  0  0  0  0  0  0  0  0  0  0  0
  137.5109   69.3998  222.5535 H   0  0  0  0  0  0  0  0  0  0  0  0
  138.5967   66.0176  222.7291 H   0  0  0  0  0  0  0  0  0  0  0  0
  140.0035   64.9591  221.0236 H   0  0  0  0  0  0  0  0  0  0  0  0
  141.2482   66.3255  219.3645 H   0  0  0  0  0  0  0  0  0  0  0  0
  139.6230   69.8535  221.1697 H   0  0  0  0  0  0  0  0  0  0  0  0
  1  2  2  0
  2  3  1  0
  3  4  2  0
  4  5  1  0
  5  6  2  0
  6  7  1  0
  7  8  2  0
  8  9  1  0
  9 10  2  0
 10 11  1  0
 11 12  2  0
 12 13  1  0
 13 14  2  0
 14 15  1  0
 15 16  2  0
 16 17  1  0
 17 18  2  0
 10 19  1  0
 19 20  1  0
 20 21  1  0
 21 22  2  0
 22 23  1  0
 23 24  2  0
 24 25  1  0
 25 26  1  0
 25 27  2  0
 19  2  1  0
 27 21  1  0
  8  3  1  0
 18 13  1  0
  4 28  1  0
  5 29  1  0
  6 30  1  0
  7 31  1  0
 11 32  1  0
 12 33  1  0
 14 34  1  0
 15 35  1  0
 16 36  1  0
 17 37  1  0
 18 38  1  0
 20 39  1  0
 20 40  1  0
 22 41  1  0
 23 42  1  0
 24 43  1  0
 27 44  1  0
M  END
>  <smiles>  (3) 
O=c1c2ccccc2nc(/C=C/c2ccccc2)n1Cc1cccc(Cl)c1

>  <score_type>  (3) 
oracle

>  <origin>  (3) 
autodockgpu

>  <m_score__min__energy>  (3) 
-8.0999999999999996

>  <m_primary>  (3) 
energy

>  <meeko>  (3) 
{"free_energy": -7.39, "intermolecular_energy": -8.89, "internal_energy": -1.69, "cluster_size": 2, "cluster_id": 4, "rank_in_cluster": 1}

>  <energy>  (3) 
-8.07

>  <cluster_rmsd>  (3) 
0.0

>  <rmsd>  (3) 
272.21

>  <cluster>  (3) 
2

$$$$

     RDKit          3D

 44 47  0  0  0  0  0  0  0  0999 V2000
  142.4750   74.7080  219.1250 O   0  0  0  0  0  0  0  0  0  0  0  0
  141.7610   74.7460  220.1610 C   0  0  0  0  0  0  0  0  0  0  0  0
  141.4700   75.9740  220.6790 C   0  0  0  0  0  0  0  0  0  0  0  0
  141.9350   77.1300  220.0940 C   0  0  0  0  0  0  0  0  0  0  0  0
  141.5830   78.3310  220.6950 C   0  0  0  0  0  0  0  0  0  0  0  0
  140.7900   78.3540  221.8460 C   0  0  0  0  0  0  0  0  0  0  0  0
  140.3310   77.1870  222.4230 C   0  0  0  0  0  0  0  0  0  0  0  0
  140.6940   76.0110  221.8060 C   0  0  0  0  0  0  0  0  0  0  0  0
  140.2740   74.8720  222.3260 N   0  0  0  0  0  0  0  0  0  0  0  0
  140.5460   73.6170  221.8360 C   0  0  0  0  0  0  0  0  0  0  0  0
  140.0210   72.5330  222.6010 C   0  0  0  0  0  0  0  0  0  0  0  0
  140.5620   71.4740  223.1100 C   0  0  0  0  0  0  0  0  0  0  0  0
  140.4260   71.0600  224.5200 C   0  0  0  0  0  0  0  0  0  0  0  0
  141.0700   71.8000  225.5220 C   0  0  0  0  0  0  0  0  0  0  0  0
  140.9990   71.4910  226.8420 C   0  0  0  0  0  0  0  0  0  0  0  0
  140.2740   70.4140  227.2540 C   0  0  0  0  0  0  0  0  0  0  0  0
  139.6290   69.6640  226.2920 C   0  0  0  0  0  0  0  0  0  0  0  0
  139.7050   69.9870  224.9330 C   0  0  0  0  0  0  0  0  0  0  0  0
  141.2980   73.5810  220.7410 N   0  0  0  0  0  0  0  0  0  0  0  0
  141.6970   72.3890  220.0490 C   0  0  0  0  0  0  0  0  0  0  0  0
  143.1380   72.1930  219.8960 C   0  0  0  0  0  0  0  0  0  0  0  0
  143.7470   71.4440  218.9070 C   0  0  0  0  0  0  0  0  0  0  0  0
  145.1210   71.2760  218.8270 C   0  0  0  0  0  0  0  0  0  0  0  0
  145.9640   71.8550  219.7390 C   0  0  0  0  0  0  0  0  0  0  0  0
  145.3880   72.6100  220.7370 C   0  0  0  0  0  0  0  0  0  0  0  0
  146.3900   73.3930  221.9550 Cl  0  0  0  0  0  0  0  0  0  0  0  0
  144.0290   72.7690  220.8090 C   0  0  0  0  0  0  0  0  0  0  0  0
  142.5591   77.1033  219.1886 H   0  0  0  0  0  0  0  0  0  0  0  0
  141.9332   79.2783  220.2591 H   0  0  0  0  0  0  0  0  0  0  0  0
  140.5267   79.3205  222.3006 H   0  0  0  0  0  0  0  0  0  0  0  0
  139.7073   77.1962  223.3291 H   0  0  0  0  0  0  0  0  0  0  0  0
  138.9416   72.6140  222.7968 H   0  0  0  0  0  0  0  0  0  0  0  0
  141.1653   70.8378  222.4457 H   0  0  0  0  0  0  0  0  0  0  0  0
  141.6636   72.6765  225.2229 H   0  0  0  0  0  0  0  0  0  0  0  0
  141.5280   72.1116  227.5803 H   0  0  0  0  0  0  0  0  0  0  0  0
  140.2049   70.1505  228.3197 H   0  0  0  0  0  0  0  0  0  0  0  0
  139.0393   68.7887  226.6020 H   0  0  0  0  0  0  0  0  0  0  0  0
  139.1766   69.3669  224.1939 H   0  0  0  0  0  0  0  0  0  0  0  0
  141.2963   71.5273  220.6029 H   0  0  0  0  0  0  0  0  0  0  0  0
  141.2996   72.4895  219.0282 H   0  0  0  0  0  0  0  0  0  0  0  0
  143.1134   70.9595  218.1495 H   0  0  0  0  0  0  0  0  0  0  0  0
  145.5429   70.6656  218.0150 H   0  0  0  0  0  0  0  0  0  0  0  0
  147.0542   71.7226  219.6769 H   0  0  0  0  0  0  0  0  0  0  0  0
  143.6173   73.3802  221.6257 H   0  0  0  0  0  0  0  0  0  0  0  0
  1  2  2  0
  2  3  1  0
  3  4  2  0
  4  5  1  0
  5  6  2  0
  6  7  1  0
  7  8  2  0
  8  9  1  0
  9 10  2  0
 10 11  1  0
 11 12  2  0
 12 13  1  0
 13 14  2  0
 14 15  1  0
 15 16  2  0
 16 17  1  0
 17 18  2  0
 10 19  1  0
 19 20  1  0
 20 21  1  0
 21 22  2  0
 22 23  1  0
 23 24  2  0
 24 25  1  0
 25 26  1  0
 25 27  2  0
 19  2  1  0
 27 21  1  0
  8  3  1  0
 18 13  1  0
  4 28  1  0
  5 29  1  0
  6 30  1  0
  7 31  1  0
 11 32  1  0
 12 33  1  0
 14 34  1  0
 15 35  1  0
 16 36  1  0
 17 37  1  0
 18 38  1  0
 20 39  1  0
 20 40  1  0
 22 41  1  0
 23 42  1  0
 24 43  1  0
 27 44  1  0
M  END
>  <smiles>  (4) 
O=c1c2ccccc2nc(/C=C/c2ccccc2)n1Cc1cccc(Cl)c1

>  <score_type>  (4) 
oracle

>  <origin>  (4) 
autodockgpu

>  <m_score__min__energy>  (4) 
-8.0999999999999996

>  <m_primary>  (4) 
energy

>  <meeko>  (4) 
{"free_energy": -8.1, "intermolecular_energy": -9.59, "internal_energy": -1.06, "cluster_size": 2, "cluster_id": 1, "rank_in_cluster": 1}

>  <energy>  (4) 
-8.05

>  <cluster_rmsd>  (4) 
0.08

>  <rmsd>  (4) 
272.18

>  <cluster>  (4) 
2

$$$$

     RDKit          3D

 44 47  0  0  0  0  0  0  0  0999 V2000
  139.9640   74.2040  221.9630 O   0  0  0  0  0  0  0  0  0  0  0  0
  140.6990   74.9770  221.2950 C   0  0  0  0  0  0  0  0  0  0  0  0
  141.9150   74.5020  220.8990 C   0  0  0  0  0  0  0  0  0  0  0  0
  142.3260   73.2260  221.2150 C   0  0  0  0  0  0  0  0  0  0  0  0
  143.5790   72.8340  220.7650 C   0  0  0  0  0  0  0  0  0  0  0  0
  144.3830   73.7070  220.0240 C   0  0  0  0  0  0  0  0  0  0  0  0
  143.9590   74.9830  219.7150 C   0  0  0  0  0  0  0  0  0  0  0  0
  142.7110   75.3450  220.1730 C   0  0  0  0  0  0  0  0  0  0  0  0
  142.2680   76.5590  219.8980 N   0  0  0  0  0  0  0  0  0  0  0  0
  141.0520   77.0740  220.2780 C   0  0  0  0  0  0  0  0  0  0  0  0
  140.8170   78.4310  219.9030 C   0  0  0  0  0  0  0  0  0  0  0  0
  141.5170   79.5120  220.0320 C   0  0  0  0  0  0  0  0  0  0  0  0
  141.8260   80.1600  221.3210 C   0  0  0  0  0  0  0  0  0  0  0  0
  142.6180   79.4840  222.2610 C   0  0  0  0  0  0  0  0  0  0  0  0
  142.9510   80.0050  223.4690 C   0  0  0  0  0  0  0  0  0  0  0  0
  142.5130   81.2450  223.8240 C   0  0  0  0  0  0  0  0  0  0  0  0
  141.7310   81.9360  222.9210 C   0  0  0  0  0  0  0  0  0  0  0  0
  141.3910   81.3950  221.6760 C   0  0  0  0  0  0  0  0  0  0  0  0
  140.2780   76.2550  220.9820 N   0  0  0  0  0  0  0  0  0  0  0  0
  138.9680   76.5720  221.4730 C   0  0  0  0  0  0  0  0  0  0  0  0
  138.8700   77.7780  222.2940 C   0  0  0  0  0  0  0  0  0  0  0  0
  139.8670   78.2790  223.1100 C   0  0  0  0  0  0  0  0  0  0  0  0
  139.7070   79.4180  223.8850 C   0  0  0  0  0  0  0  0  0  0  0  0
  138.5310   80.1210  223.8820 C   0  0  0  0  0  0  0  0  0  0  0  0
  137.5170   79.6500  223.0770 C   0  0  0  0  0  0  0  0  0  0  0  0
  135.9700   80.4870  223.0070 Cl  0  0  0  0  0  0  0  0  0  0  0  0
  137.6840   78.5230  222.3170 C   0  0  0  0  0  0  0  0  0  0  0  0
  141.6882   72.5464  221.7993 H   0  0  0  0  0  0  0  0  0  0  0  0
  143.9453   71.8224  220.9942 H   0  0  0  0  0  0  0  0  0  0  0  0
  145.3722   73.3695  219.6812 H   0  0  0  0  0  0  0  0  0  0  0  0
  144.5849   75.6755  219.1331 H   0  0  0  0  0  0  0  0  0  0  0  0
  139.8488   78.5895  219.4056 H   0  0  0  0  0  0  0  0  0  0  0  0
  141.9088   79.9802  219.1170 H   0  0  0  0  0  0  0  0  0  0  0  0
  142.9881   78.4801  222.0058 H   0  0  0  0  0  0  0  0  0  0  0  0
  143.5763   79.4245  224.1633 H   0  0  0  0  0  0  0  0  0  0  0  0
  142.7743   81.6816  224.7993 H   0  0  0  0  0  0  0  0  0  0  0  0
  141.3652   82.9387  223.1869 H   0  0  0  0  0  0  0  0  0  0  0  0
  140.7668   81.9751  220.9804 H   0  0  0  0  0  0  0  0  0  0  0  0
  138.3043   76.6998  220.6052 H   0  0  0  0  0  0  0  0  0  0  0  0
  138.6868   75.7381  222.1329 H   0  0  0  0  0  0  0  0  0  0  0  0
  140.8310   77.7503  223.1463 H   0  0  0  0  0  0  0  0  0  0  0  0
  140.5404   79.7637  224.5143 H   0  0  0  0  0  0  0  0  0  0  0  0
  138.4018   81.0240  224.4968 H   0  0  0  0  0  0  0  0  0  0  0  0
  136.8437   78.1855  221.6926 H   0  0  0  0  0  0  0  0  0  0  0  0
  1  2  2  0
  2  3  1  0
  3  4  2  0
  4  5  1  0
  5  6  2  0
  6  7  1  0
  7  8  2  0
  8  9  1  0
  9 10  2  0
 10 11  1  0
 11 12  2  0
 12 13  1  0
 13 14  2  0
 14 15  1  0
 15 16  2  0
 16 17  1  0
 17 18  2  0
 10 19  1  0
 19 20  1  0
 20 21  1  0
 21 22  2  0
 22 23  1  0
 23 24  2  0
 24 25  1  0
 25 26  1  0
 25 27  2  0
 19  2  1  0
 27 21  1  0
  8  3  1  0
 18 13  1  0
  4 28  1  0
  5 29  1  0
  6 30  1  0
  7 31  1  0
 11 32  1  0
 12 33  1  0
 14 34  1  0
 15 35  1  0
 16 36  1  0
 17 37  1  0
 18 38  1  0
 20 39  1  0
 20 40  1  0
 22 41  1  0
 23 42  1  0
 24 43  1  0
 27 44  1  0
M  END
>  <smiles>  (5) 
O=c1c2ccccc2nc(/C=C/c2ccccc2)n1Cc1cccc(Cl)c1

>  <score_type>  (5) 
oracle

>  <origin>  (5) 
autodockgpu

>  <m_score__min__energy>  (5) 
-8.0999999999999996

>  <m_primary>  (5) 
energy

>  <meeko>  (5) 
{"free_energy": -7.34, "intermolecular_energy": -8.83, "internal_energy": -1.85, "cluster_size": 8, "cluster_id": 5, "rank_in_cluster": 1}

>  <energy>  (5) 
-8.04

>  <cluster_rmsd>  (5) 
0.51

>  <rmsd>  (5) 
272.07

>  <cluster>  (5) 
2

$$$$

     RDKit          3D

 44 47  0  0  0  0  0  0  0  0999 V2000
  141.5000   71.1160  221.1830 O   0  0  0  0  0  0  0  0  0  0  0  0
  141.7300   72.3540  221.1870 C   0  0  0  0  0  0  0  0  0  0  0  0
  142.9770   72.7620  220.8130 C   0  0  0  0  0  0  0  0  0  0  0  0
  143.9490   71.8600  220.4430 C   0  0  0  0  0  0  0  0  0  0  0  0
  145.1850   72.3730  220.0770 C   0  0  0  0  0  0  0  0  0  0  0  0
  145.4240   73.7520  220.0890 C   0  0  0  0  0  0  0  0  0  0  0  0
  144.4410   74.6460  220.4630 C   0  0  0  0  0  0  0  0  0  0  0  0
  143.2240   74.1090  220.8190 C   0  0  0  0  0  0  0  0  0  0  0  0
  142.2560   74.9310  221.1830 N   0  0  0  0  0  0  0  0  0  0  0  0
  140.9890   74.5590  221.5670 C   0  0  0  0  0  0  0  0  0  0  0  0
  140.1310   75.6280  221.9640 C   0  0  0  0  0  0  0  0  0  0  0  0
  140.0140   76.8540  221.5680 C   0  0  0  0  0  0  0  0  0  0  0  0
  140.9020   77.9570  221.9860 C   0  0  0  0  0  0  0  0  0  0  0  0
  141.3240   78.0330  223.3220 C   0  0  0  0  0  0  0  0  0  0  0  0
  142.1400   79.0110  223.7920 C   0  0  0  0  0  0  0  0  0  0  0  0
  142.5910   79.9870  222.9550 C   0  0  0  0  0  0  0  0  0  0  0  0
  142.1930   79.9400  221.6350 C   0  0  0  0  0  0  0  0  0  0  0  0
  141.3530   78.9290  221.1550 C   0  0  0  0  0  0  0  0  0  0  0  0
  140.7490   73.2530  221.5600 N   0  0  0  0  0  0  0  0  0  0  0  0
  139.5000   72.6380  221.9080 C   0  0  0  0  0  0  0  0  0  0  0  0
  139.5470   71.6870  223.0180 C   0  0  0  0  0  0  0  0  0  0  0  0
  138.8450   70.4980  223.0880 C   0  0  0  0  0  0  0  0  0  0  0  0
  138.9120   69.6460  224.1790 C   0  0  0  0  0  0  0  0  0  0  0  0
  139.6930   69.9420  225.2670 C   0  0  0  0  0  0  0  0  0  0  0  0
  140.4060   71.1190  225.2270 C   0  0  0  0  0  0  0  0  0  0  0  0
  141.4370   71.5830  226.5770 Cl  0  0  0  0  0  0  0  0  0  0  0  0
  140.3330   71.9550  224.1450 C   0  0  0  0  0  0  0  0  0  0  0  0
  143.7538   70.7775  220.4378 H   0  0  0  0  0  0  0  0  0  0  0  0
  145.9886   71.6861  219.7730 H   0  0  0  0  0  0  0  0  0  0  0  0
  146.4140   74.1306  219.7948 H   0  0  0  0  0  0  0  0  0  0  0  0
  144.6205   75.7312  220.4760 H   0  0  0  0  0  0  0  0  0  0  0  0
  139.4296   75.3553  222.7663 H   0  0  0  0  0  0  0  0  0  0  0  0
  139.1962   77.0911  220.8715 H   0  0  0  0  0  0  0  0  0  0  0  0
  140.9761   77.2610  224.0242 H   0  0  0  0  0  0  0  0  0  0  0  0
  142.4377   79.0155  224.8509 H   0  0  0  0  0  0  0  0  0  0  0  0
  143.2516   80.7871  223.3203 H   0  0  0  0  0  0  0  0  0  0  0  0
  142.5452   80.7178  220.9415 H   0  0  0  0  0  0  0  0  0  0  0  0
  141.0564   78.9227  220.0958 H   0  0  0  0  0  0  0  0  0  0  0  0
  138.7938   73.4371  222.1777 H   0  0  0  0  0  0  0  0  0  0  0  0
  139.1984   72.0537  221.0262 H   0  0  0  0  0  0  0  0  0  0  0  0
  138.2044   70.2155  222.2395 H   0  0  0  0  0  0  0  0  0  0  0  0
  138.3274   68.7142  224.1723 H   0  0  0  0  0  0  0  0  0  0  0  0
  139.7473   69.2678  226.1344 H   0  0  0  0  0  0  0  0  0  0  0  0
  140.9217   72.8841  224.1622 H   0  0  0  0  0  0  0  0  0  0  0  0
  1  2  2  0
  2  3  1  0
  3  4  2  0
  4  5  1  0
  5  6  2  0
  6  7  1  0
  7  8  2  0
  8  9  1  0
  9 10  2  0
 10 11  1  0
 11 12  2  0
 12 13  1  0
 13 14  2  0
 14 15  1  0
 15 16  2  0
 16 17  1  0
 17 18  2  0
 10 19  1  0
 19 20  1  0
 20 21  1  0
 21 22  2  0
 22 23  1  0
 23 24  2  0
 24 25  1  0
 25 26  1  0
 25 27  2  0
 19  2  1  0
 27 21  1  0
  8  3  1  0
 18 13  1  0
  4 28  1  0
  5 29  1  0
  6 30  1  0
  7 31  1  0
 11 32  1  0
 12 33  1  0
 14 34  1  0
 15 35  1  0
 16 36  1  0
 17 37  1  0
 18 38  1  0
 20 39  1  0
 20 40  1  0
 22 41  1  0
 23 42  1  0
 24 43  1  0
 27 44  1  0
M  END
>  <smiles>  (6) 
O=c1c2ccccc2nc(/C=C/c2ccccc2)n1Cc1cccc(Cl)c1

>  <score_type>  (6) 
oracle

>  <origin>  (6) 
autodockgpu

>  <m_score__min__energy>  (6) 
-8.0999999999999996

>  <m_primary>  (6) 
energy

>  <meeko>  (6) 
{"free_energy": -8.02, "intermolecular_energy": -9.51, "internal_energy": -1.22, "cluster_size": 7, "cluster_id": 2, "rank_in_cluster": 4}

>  <energy>  (6) 
-8.02

>  <cluster_rmsd>  (6) 
0.07

>  <rmsd>  (6) 
272.2

>  <cluster>  (6) 
2

$$$$

     RDKit          3D

 44 47  0  0  0  0  0  0  0  0999 V2000
  140.5870   74.0240  221.9770 O   0  0  0  0  0  0  0  0  0  0  0  0
  141.4330   74.5950  221.2410 C   0  0  0  0  0  0  0  0  0  0  0  0
  142.5050   73.8600  220.8270 C   0  0  0  0  0  0  0  0  0  0  0  0
  142.6580   72.5420  221.1960 C   0  0  0  0  0  0  0  0  0  0  0  0
  143.7820   71.8780  220.7230 C   0  0  0  0  0  0  0  0  0  0  0  0
  144.7120   72.5290  219.9060 C   0  0  0  0  0  0  0  0  0  0  0  0
  144.5460   73.8510  219.5450 C   0  0  0  0  0  0  0  0  0  0  0  0
  143.4230   74.4850  220.0270 C   0  0  0  0  0  0  0  0  0  0  0  0
  143.2270   75.7500  219.7030 N   0  0  0  0  0  0  0  0  0  0  0  0
  142.1630   76.5250  220.0990 C   0  0  0  0  0  0  0  0  0  0  0  0
  142.1950   77.8820  219.6600 C   0  0  0  0  0  0  0  0  0  0  0  0
  141.2660   78.7330  219.3650 C   0  0  0  0  0  0  0  0  0  0  0  0
  141.0210   79.9910  220.0960 C   0  0  0  0  0  0  0  0  0  0  0  0
  141.9810   80.4580  221.0060 C   0  0  0  0  0  0  0  0  0  0  0  0
  141.8370   81.6050  221.7200 C   0  0  0  0  0  0  0  0  0  0  0  0
  140.7180   82.3670  221.5720 C   0  0  0  0  0  0  0  0  0  0  0  0
  139.7540   81.9340  220.6840 C   0  0  0  0  0  0  0  0  0  0  0  0
  139.9080   80.7520  219.9500 C   0  0  0  0  0  0  0  0  0  0  0  0
  141.2710   75.9180  220.8750 N   0  0  0  0  0  0  0  0  0  0  0  0
  140.0780   76.5230  221.3960 C   0  0  0  0  0  0  0  0  0  0  0  0
  140.2820   77.6200  222.3400 C   0  0  0  0  0  0  0  0  0  0  0  0
  141.4520   77.8840  223.0270 C   0  0  0  0  0  0  0  0  0  0  0  0
  141.5780   78.9290  223.9290 C   0  0  0  0  0  0  0  0  0  0  0  0
  140.5300   79.7730  224.1920 C   0  0  0  0  0  0  0  0  0  0  0  0
  139.3500   79.5380  223.5220 C   0  0  0  0  0  0  0  0  0  0  0  0
  137.9480   80.5690  223.7950 Cl  0  0  0  0  0  0  0  0  0  0  0  0
  139.2350   78.5020  222.6340 C   0  0  0  0  0  0  0  0  0  0  0  0
  141.9213   72.0369  221.8380 H   0  0  0  0  0  0  0  0  0  0  0  0
  143.9434   70.8244  220.9949 H   0  0  0  0  0  0  0  0  0  0  0  0
  145.5922   71.9772  219.5444 H   0  0  0  0  0  0  0  0  0  0  0  0
  145.2738   74.3713  218.9049 H   0  0  0  0  0  0  0  0  0  0  0  0
  143.2125   78.2854  219.5504 H   0  0  0  0  0  0  0  0  0  0  0  0
  140.6136   78.5026  218.5099 H   0  0  0  0  0  0  0  0  0  0  0  0
  142.8968   79.8656  221.1488 H   0  0  0  0  0  0  0  0  0  0  0  0
  142.6261   81.9188  222.4192 H   0  0  0  0  0  0  0  0  0  0  0  0
  140.5865   83.2984  222.1423 H   0  0  0  0  0  0  0  0  0  0  0  0
  138.8413   82.5331  220.5497 H   0  0  0  0  0  0  0  0  0  0  0  0
  139.1202   80.4380  219.2494 H   0  0  0  0  0  0  0  0  0  0  0  0
  139.4980   76.9123  220.5462 H   0  0  0  0  0  0  0  0  0  0  0  0
  139.5647   75.7323  221.9628 H   0  0  0  0  0  0  0  0  0  0  0  0
  142.3226   77.2354  222.8499 H   0  0  0  0  0  0  0  0  0  0  0  0
  142.5376   79.0842  224.4439 H   0  0  0  0  0  0  0  0  0  0  0  0
  140.6276   80.6026  224.9077 H   0  0  0  0  0  0  0  0  0  0  0  0
  138.2707   78.3551  222.1256 H   0  0  0  0  0  0  0  0  0  0  0  0
  1  2  2  0
  2  3  1  0
  3  4  2  0
  4  5  1  0
  5  6  2  0
  6  7  1  0
  7  8  2  0
  8  9  1  0
  9 10  2  0
 10 11  1  0
 11 12  2  0
 12 13  1  0
 13 14  2  0
 14 15  1  0
 15 16  2  0
 16 17  1  0
 17 18  2  0
 10 19  1  0
 19 20  1  0
 20 21  1  0
 21 22  2  0
 22 23  1  0
 23 24  2  0
 24 25  1  0
 25 26  1  0
 25 27  2  0
 19  2  1  0
 27 21  1  0
  8  3  1  0
 18 13  1  0
  4 28  1  0
  5 29  1  0
  6 30  1  0
  7 31  1  0
 11 32  1  0
 12 33  1  0
 14 34  1  0
 15 35  1  0
 16 36  1  0
 17 37  1  0
 18 38  1  0
 20 39  1  0
 20 40  1  0
 22 41  1  0
 23 42  1  0
 24 43  1  0
 27 44  1  0
M  END
>  <smiles>  (7) 
O=c1c2ccccc2nc(/C=C/c2ccccc2)n1Cc1cccc(Cl)c1

>  <score_type>  (7) 
oracle

>  <origin>  (7) 
autodockgpu

>  <m_score__min__energy>  (7) 
-8.0999999999999996

>  <m_primary>  (7) 
energy

>  <meeko>  (7) 
{"free_energy": -7.04, "intermolecular_energy": -8.53, "internal_energy": -2.07, "cluster_size": 8, "cluster_id": 5, "rank_in_cluster": 2}

>  <energy>  (7) 
-8.01

>  <cluster_rmsd>  (7) 
0.1

>  <rmsd>  (7) 
272.17

>  <cluster>  (7) 
2

$$$$

     RDKit          3D

 44 47  0  0  0  0  0  0  0  0999 V2000
  141.8460   71.0720  220.8460 O   0  0  0  0  0  0  0  0  0  0  0  0
  142.0660   72.3120  220.8560 C   0  0  0  0  0  0  0  0  0  0  0  0
  143.3410   72.7260  220.6050 C   0  0  0  0  0  0  0  0  0  0  0  0
  144.3510   71.8270  220.3480 C   0  0  0  0  0  0  0  0  0  0  0  0
  145.6150   72.3470  220.1030 C   0  0  0  0  0  0  0  0  0  0  0  0
  145.8410   73.7270  220.1190 C   0  0  0  0  0  0  0  0  0  0  0  0
  144.8190   74.6170  220.3790 C   0  0  0  0  0  0  0  0  0  0  0  0
  143.5760   74.0740  220.6180 C   0  0  0  0  0  0  0  0  0  0  0  0
  142.5700   74.8920  220.8700 N   0  0  0  0  0  0  0  0  0  0  0  0
  141.2740   74.5150  221.1280 C   0  0  0  0  0  0  0  0  0  0  0  0
  140.3720   75.5820  221.4210 C   0  0  0  0  0  0  0  0  0  0  0  0
  140.3380   76.4710  222.3600 C   0  0  0  0  0  0  0  0  0  0  0  0
  141.0310   77.7730  222.3050 C   0  0  0  0  0  0  0  0  0  0  0  0
  141.5510   78.3280  223.4840 C   0  0  0  0  0  0  0  0  0  0  0  0
  142.2020   79.5190  223.5240 C   0  0  0  0  0  0  0  0  0  0  0  0
  142.3790   80.2410  222.3830 C   0  0  0  0  0  0  0  0  0  0  0  0
  141.8780   79.7220  221.2070 C   0  0  0  0  0  0  0  0  0  0  0  0
  141.2090   78.4940  221.1700 C   0  0  0  0  0  0  0  0  0  0  0  0
  141.0450   73.2070  221.1150 N   0  0  0  0  0  0  0  0  0  0  0  0
  139.7720   72.5860  221.3430 C   0  0  0  0  0  0  0  0  0  0  0  0
  139.7130   71.6460  222.4610 C   0  0  0  0  0  0  0  0  0  0  0  0
  139.0570   70.4300  222.4560 C   0  0  0  0  0  0  0  0  0  0  0  0
  139.0170   69.5890  223.5580 C   0  0  0  0  0  0  0  0  0  0  0  0
  139.6400   69.9250  224.7330 C   0  0  0  0  0  0  0  0  0  0  0  0
  140.3040   71.1300  224.7700 C   0  0  0  0  0  0  0  0  0  0  0  0
  141.1340   71.6470  226.2350 Cl  0  0  0  0  0  0  0  0  0  0  0  0
  140.3370   71.9540  223.6760 C   0  0  0  0  0  0  0  0  0  0  0  0
  144.1648   70.7429  220.3372 H   0  0  0  0  0  0  0  0  0  0  0  0
  146.4509   71.6634  219.8932 H   0  0  0  0  0  0  0  0  0  0  0  0
  146.8528   74.1103  219.9206 H   0  0  0  0  0  0  0  0  0  0  0  0
  144.9883   75.7038  220.3946 H   0  0  0  0  0  0  0  0  0  0  0  0
  139.5403   75.6646  220.7059 H   0  0  0  0  0  0  0  0  0  0  0  0
  139.7520   76.2407  223.2620 H   0  0  0  0  0  0  0  0  0  0  0  0
  141.4249   77.7701  224.4236 H   0  0  0  0  0  0  0  0  0  0  0  0
  142.5874   79.9016  224.4806 H   0  0  0  0  0  0  0  0  0  0  0  0
  142.9046   81.2072  222.3985 H   0  0  0  0  0  0  0  0  0  0  0  0
  142.0081   80.2890  220.2734 H   0  0  0  0  0  0  0  0  0  0  0  0
  140.8245   78.1103  220.2135 H   0  0  0  0  0  0  0  0  0  0  0  0
  139.0373   73.3824  221.5327 H   0  0  0  0  0  0  0  0  0  0  0  0
  139.5646   71.9908  220.4415 H   0  0  0  0  0  0  0  0  0  0  0  0
  138.5431   70.1146  221.5360 H   0  0  0  0  0  0  0  0  0  0  0  0
  138.4753   68.6342  223.4885 H   0  0  0  0  0  0  0  0  0  0  0  0
  139.6102   69.2597  225.6085 H   0  0  0  0  0  0  0  0  0  0  0  0
  140.8816   72.9063  223.7562 H   0  0  0  0  0  0  0  0  0  0  0  0
  1  2  2  0
  2  3  1  0
  3  4  2  0
  4  5  1  0
  5  6  2  0
  6  7  1  0
  7  8  2  0
  8  9  1  0
  9 10  2  0
 10 11  1  0
 11 12  2  0
 12 13  1  0
 13 14  2  0
 14 15  1  0
 15 16  2  0
 16 17  1  0
 17 18  2  0
 10 19  1  0
 19 20  1  0
 20 21  1  0
 21 22  2  0
 22 23  1  0
 23 24  2  0
 24 25  1  0
 25 26  1  0
 25 27  2  0
 19  2  1  0
 27 21  1  0
  8  3  1  0
 18 13  1  0
  4 28  1  0
  5 29  1  0
  6 30  1  0
  7 31  1  0
 11 32  1  0
 12 33  1  0
 14 34  1  0
 15 35  1  0
 16 36  1  0
 17 37  1  0
 18 38  1  0
 20 39  1  0
 20 40  1  0
 22 41  1  0
 23 42  1  0
 24 43  1  0
 27 44  1  0
M  END
>  <smiles>  (8) 
O=c1c2ccccc2nc(/C=C/c2ccccc2)n1Cc1cccc(Cl)c1

>  <score_type>  (8) 
oracle

>  <origin>  (8) 
autodockgpu

>  <m_score__min__energy>  (8) 
-8.0999999999999996

>  <m_primary>  (8) 
energy

>  <meeko>  (8) 
{"free_energy": -8.04, "intermolecular_energy": -9.53, "internal_energy": -1.21, "cluster_size": 7, "cluster_id": 2, "rank_in_cluster": 3}

>  <energy>  (8) 
-7.98

>  <cluster_rmsd>  (8) 
0.48

>  <rmsd>  (8) 
272.1

>  <cluster>  (8) 
2

$$$$

     RDKit          3D

 44 47  0  0  0  0  0  0  0  0999 V2000
  141.4900   71.0920  221.1720 O   0  0  0  0  0  0  0  0  0  0  0  0
  141.7390   72.3270  221.1810 C   0  0  0  0  0  0  0  0  0  0  0  0
  142.9920   72.7180  220.8130 C   0  0  0  0  0  0  0  0  0  0  0  0
  143.9520   71.8020  220.4420 C   0  0  0  0  0  0  0  0  0  0  0  0
  145.1970   72.2990  220.0810 C   0  0  0  0  0  0  0  0  0  0  0  0
  145.4560   73.6730  220.0990 C   0  0  0  0  0  0  0  0  0  0  0  0
  144.4850   74.5800  220.4730 C   0  0  0  0  0  0  0  0  0  0  0  0
  143.2600   74.0600  220.8240 C   0  0  0  0  0  0  0  0  0  0  0  0
  142.3030   74.8950  221.1880 N   0  0  0  0  0  0  0  0  0  0  0  0
  141.0290   74.5410  221.5670 C   0  0  0  0  0  0  0  0  0  0  0  0
  140.1860   75.6210  221.9650 C   0  0  0  0  0  0  0  0  0  0  0  0
  140.1080   76.8580  221.5940 C   0  0  0  0  0  0  0  0  0  0  0  0
  140.9610   77.9440  222.1170 C   0  0  0  0  0  0  0  0  0  0  0  0
  141.4060   78.9500  221.2470 C   0  0  0  0  0  0  0  0  0  0  0  0
  142.1920   79.9840  221.6430 C   0  0  0  0  0  0  0  0  0  0  0  0
  142.5890   80.0840  222.9420 C   0  0  0  0  0  0  0  0  0  0  0  0
  142.1680   79.1090  223.8230 C   0  0  0  0  0  0  0  0  0  0  0  0
  141.3570   78.0450  223.4100 C   0  0  0  0  0  0  0  0  0  0  0  0
  140.7700   73.2380  221.5540 N   0  0  0  0  0  0  0  0  0  0  0  0
  139.5110   72.6410  221.8970 C   0  0  0  0  0  0  0  0  0  0  0  0
  139.5420   71.6770  222.9960 C   0  0  0  0  0  0  0  0  0  0  0  0
  138.8430   70.4850  223.0400 C   0  0  0  0  0  0  0  0  0  0  0  0
  138.8950   69.6200  224.1230 C   0  0  0  0  0  0  0  0  0  0  0  0
  139.6570   69.9060  225.2270 C   0  0  0  0  0  0  0  0  0  0  0  0
  140.3660   71.0860  225.2130 C   0  0  0  0  0  0  0  0  0  0  0  0
  141.3720   71.5380  226.5860 Cl  0  0  0  0  0  0  0  0  0  0  0  0
  140.3080   71.9340  224.1400 C   0  0  0  0  0  0  0  0  0  0  0  0
  143.7409   70.7225  220.4322 H   0  0  0  0  0  0  0  0  0  0  0  0
  145.9914   71.6017  219.7763 H   0  0  0  0  0  0  0  0  0  0  0  0
  146.4525   74.0380  219.8096 H   0  0  0  0  0  0  0  0  0  0  0  0
  144.6802   75.6624  220.4897 H   0  0  0  0  0  0  0  0  0  0  0  0
  139.4571   75.3475  222.7421 H   0  0  0  0  0  0  0  0  0  0  0  0
  139.3541   77.1188  220.8366 H   0  0  0  0  0  0  0  0  0  0  0  0
  141.1031   78.8988  220.1908 H   0  0  0  0  0  0  0  0  0  0  0  0
  142.5090   80.7430  220.9126 H   0  0  0  0  0  0  0  0  0  0  0  0
  143.2253   80.9159  223.2783 H   0  0  0  0  0  0  0  0  0  0  0  0
  142.4775   79.1692  224.8768 H   0  0  0  0  0  0  0  0  0  0  0  0
  141.0388   77.2857  224.1395 H   0  0  0  0  0  0  0  0  0  0  0  0
  138.8193   73.4493  222.1765 H   0  0  0  0  0  0  0  0  0  0  0  0
  139.1987   72.0717  221.0091 H   0  0  0  0  0  0  0  0  0  0  0  0
  138.2177   70.2104  222.1777 H   0  0  0  0  0  0  0  0  0  0  0  0
  138.3138   68.6865  224.0960 H   0  0  0  0  0  0  0  0  0  0  0  0
  139.6998   69.2216  226.0871 H   0  0  0  0  0  0  0  0  0  0  0  0
  140.8929   72.8648  224.1782 H   0  0  0  0  0  0  0  0  0  0  0  0
  1  2  2  0
  2  3  1  0
  3  4  2  0
  4  5  1  0
  5  6  2  0
  6  7  1  0
  7  8  2  0
  8  9  1  0
  9 10  2  0
 10 11  1  0
 11 12  2  0
 12 13  1  0
 13 14  2  0
 14 15  1  0
 15 16  2  0
 16 17  1  0
 17 18  2  0
 10 19  1  0
 19 20  1  0
 20 21  1  0
 21 22  2  0
 22 23  1  0
 23 24  2  0
 24 25  1  0
 25 26  1  0
 25 27  2  0
 19  2  1  0
 27 21  1  0
  8  3  1  0
 18 13  1  0
  4 28  1  0
  5 29  1  0
  6 30  1  0
  7 31  1  0
 11 32  1  0
 12 33  1  0
 14 34  1  0
 15 35  1  0
 16 36  1  0
 17 37  1  0
 18 38  1  0
 20 39  1  0
 20 40  1  0
 22 41  1  0
 23 42  1  0
 24 43  1  0
 27 44  1  0
M  END
>  <smiles>  (9) 
O=c1c2ccccc2nc(/C=C/c2ccccc2)n1Cc1cccc(Cl)c1

>  <score_type>  (9) 
oracle

>  <origin>  (9) 
autodockgpu

>  <m_score__min__energy>  (9) 
-8.0999999999999996

>  <m_primary>  (9) 
energy

>  <meeko>  (9) 
{"free_energy": -8.07, "intermolecular_energy": -9.56, "internal_energy": -1.19, "cluster_size": 7, "cluster_id": 2, "rank_in_cluster": 1}

>  <energy>  (9) 
-7.98

>  <cluster_rmsd>  (9) 
0.42

>  <rmsd>  (9) 
272.07

>  <cluster>  (9) 
2

$$$$

     RDKit          3D

 44 47  0  0  0  0  0  0  0  0999 V2000
  141.8110   71.1260  220.9440 O   0  0  0  0  0  0  0  0  0  0  0  0
  142.0290   72.3660  220.9200 C   0  0  0  0  0  0  0  0  0  0  0  0
  143.3040   72.7750  220.6600 C   0  0  0  0  0  0  0  0  0  0  0  0
  144.3160   71.8710  220.4300 C   0  0  0  0  0  0  0  0  0  0  0  0
  145.5800   72.3850  220.1720 C   0  0  0  0  0  0  0  0  0  0  0  0
  145.8030   73.7660  220.1510 C   0  0  0  0  0  0  0  0  0  0  0  0
  144.7790   74.6610  220.3840 C   0  0  0  0  0  0  0  0  0  0  0  0
  143.5370   74.1230  220.6360 C   0  0  0  0  0  0  0  0  0  0  0  0
  142.5290   74.9470  220.8630 N   0  0  0  0  0  0  0  0  0  0  0  0
  141.2330   74.5750  221.1300 C   0  0  0  0  0  0  0  0  0  0  0  0
  140.3290   75.6470  221.3910 C   0  0  0  0  0  0  0  0  0  0  0  0
  140.2480   76.5140  222.3480 C   0  0  0  0  0  0  0  0  0  0  0  0
  140.9880   77.7910  222.3850 C   0  0  0  0  0  0  0  0  0  0  0  0
  141.1670   78.5180  221.1990 C   0  0  0  0  0  0  0  0  0  0  0  0
  141.8340   79.7000  221.1420 C   0  0  0  0  0  0  0  0  0  0  0  0
  142.3690   80.2390  222.2720 C   0  0  0  0  0  0  0  0  0  0  0  0
  142.2100   79.5470  223.4550 C   0  0  0  0  0  0  0  0  0  0  0  0
  141.5220   78.3290  223.5090 C   0  0  0  0  0  0  0  0  0  0  0  0
  141.0060   73.2660  221.1520 N   0  0  0  0  0  0  0  0  0  0  0  0
  139.7340   72.6490  221.3960 C   0  0  0  0  0  0  0  0  0  0  0  0
  139.6750   71.7410  222.5400 C   0  0  0  0  0  0  0  0  0  0  0  0
  139.0010   70.5350  222.5750 C   0  0  0  0  0  0  0  0  0  0  0  0
  138.9620   69.7250  223.7010 C   0  0  0  0  0  0  0  0  0  0  0  0
  139.6020   70.0840  224.8580 C   0  0  0  0  0  0  0  0  0  0  0  0
  140.2840   71.2800  224.8550 C   0  0  0  0  0  0  0  0  0  0  0  0
  141.1370   71.8250  226.2960 Cl  0  0  0  0  0  0  0  0  0  0  0  0
  140.3160   72.0740  223.7390 C   0  0  0  0  0  0  0  0  0  0  0  0
  144.1313   70.7868  220.4497 H   0  0  0  0  0  0  0  0  0  0  0  0
  146.4171   71.6972  219.9816 H   0  0  0  0  0  0  0  0  0  0  0  0
  146.8145   74.1458  219.9447 H   0  0  0  0  0  0  0  0  0  0  0  0
  144.9463   75.7481  220.3692 H   0  0  0  0  0  0  0  0  0  0  0  0
  139.5453   75.7588  220.6272 H   0  0  0  0  0  0  0  0  0  0  0  0
  139.5817   76.2837  223.1924 H   0  0  0  0  0  0  0  0  0  0  0  0
  140.7460   78.1105  220.2680 H   0  0  0  0  0  0  0  0  0  0  0  0
  141.9421   80.2230  220.1804 H   0  0  0  0  0  0  0  0  0  0  0  0
  142.9108   81.1958  222.2427 H   0  0  0  0  0  0  0  0  0  0  0  0
  142.6351   79.9633  224.3802 H   0  0  0  0  0  0  0  0  0  0  0  0
  141.4139   77.8049  224.4700 H   0  0  0  0  0  0  0  0  0  0  0  0
  138.9975   73.4490  221.5620 H   0  0  0  0  0  0  0  0  0  0  0  0
  139.5293   72.0279  220.5115 H   0  0  0  0  0  0  0  0  0  0  0  0
  138.4718   70.2023  221.6698 H   0  0  0  0  0  0  0  0  0  0  0  0
  138.4065   68.7763  223.6640 H   0  0  0  0  0  0  0  0  0  0  0  0
  139.5722   69.4435  225.7518 H   0  0  0  0  0  0  0  0  0  0  0  0
  140.8735   73.0210  223.7876 H   0  0  0  0  0  0  0  0  0  0  0  0
  1  2  2  0
  2  3  1  0
  3  4  2  0
  4  5  1  0
  5  6  2  0
  6  7  1  0
  7  8  2  0
  8  9  1  0
  9 10  2  0
 10 11  1  0
 11 12  2  0
 12 13  1  0
 13 14  2  0
 14 15  1  0
 15 16  2  0
 16 17  1  0
 17 18  2  0
 10 19  1  0
 19 20  1  0
 20 21  1  0
 21 22  2  0
 22 23  1  0
 23 24  2  0
 24 25  1  0
 25 26  1  0
 25 27  2  0
 19  2  1  0
 27 21  1  0
  8  3  1  0
 18 13  1  0
  4 28  1  0
  5 29  1  0
  6 30  1  0
  7 31  1  0
 11 32  1  0
 12 33  1  0
 14 34  1  0
 15 35  1  0
 16 36  1  0
 17 37  1  0
 18 38  1  0
 20 39  1  0
 20 40  1  0
 22 41  1  0
 23 42  1  0
 24 43  1  0
 27 44  1  0
M  END
>  <smiles>  (10) 
O=c1c2ccccc2nc(/C=C/c2ccccc2)n1Cc1cccc(Cl)c1

>  <score_type>  (10) 
oracle

>  <origin>  (10) 
autodockgpu

>  <m_score__min__energy>  (10) 
-8.0999999999999996

>  <m_primary>  (10) 
energy

>  <meeko>  (10) 
{"free_energy": -7.98, "intermolecular_energy": -9.48, "internal_energy": -1.23, "cluster_size": 7, "cluster_id": 2, "rank_in_cluster": 6}

>  <energy>  (10) 
-7.66

>  <cluster_rmsd>  (10) 
0.0

>  <rmsd>  (10) 
271.45

>  <cluster>  (10) 
3

$$$$

     RDKit          3D

 44 47  0  0  0  0  0  0  0  0999 V2000
  139.8940   74.8460  221.9930 O   0  0  0  0  0  0  0  0  0  0  0  0
  140.6260   75.5690  221.2670 C   0  0  0  0  0  0  0  0  0  0  0  0
  141.8160   75.0460  220.8570 C   0  0  0  0  0  0  0  0  0  0  0  0
  142.2070   73.7760  221.2180 C   0  0  0  0  0  0  0  0  0  0  0  0
  143.4360   73.3320  220.7500 C   0  0  0  0  0  0  0  0  0  0  0  0
  144.2360   74.1500  219.9440 C   0  0  0  0  0  0  0  0  0  0  0  0
  143.8330   75.4210  219.5900 C   0  0  0  0  0  0  0  0  0  0  0  0
  142.6100   75.8350  220.0680 C   0  0  0  0  0  0  0  0  0  0  0  0
  142.1860   77.0450  219.7510 N   0  0  0  0  0  0  0  0  0  0  0  0
  140.9960   77.6080  220.1440 C   0  0  0  0  0  0  0  0  0  0  0  0
  140.7810   78.9520  219.7140 C   0  0  0  0  0  0  0  0  0  0  0  0
  141.3000   80.0820  220.0720 C   0  0  0  0  0  0  0  0  0  0  0  0
  141.7680   80.3930  221.4360 C   0  0  0  0  0  0  0  0  0  0  0  0
  141.4490   81.6340  222.0080 C   0  0  0  0  0  0  0  0  0  0  0  0
  141.8370   82.0030  223.2560 C   0  0  0  0  0  0  0  0  0  0  0  0
  142.5750   81.1530  224.0220 C   0  0  0  0  0  0  0  0  0  0  0  0
  142.9060   79.9240  223.4880 C   0  0  0  0  0  0  0  0  0  0  0  0
  142.5030   79.5480  222.2010 C   0  0  0  0  0  0  0  0  0  0  0  0
  140.2250   76.8420  220.9090 N   0  0  0  0  0  0  0  0  0  0  0  0
  138.9390   77.2140  221.4240 C   0  0  0  0  0  0  0  0  0  0  0  0
  138.9050   78.4320  222.2320 C   0  0  0  0  0  0  0  0  0  0  0  0
  139.5600   78.6170  223.4350 C   0  0  0  0  0  0  0  0  0  0  0  0
  139.4710   79.7900  224.1700 C   0  0  0  0  0  0  0  0  0  0  0  0
  138.7160   80.8480  223.7330 C   0  0  0  0  0  0  0  0  0  0  0  0
  138.0520   80.6950  222.5370 C   0  0  0  0  0  0  0  0  0  0  0  0
  137.0580   81.9990  221.8950 Cl  0  0  0  0  0  0  0  0  0  0  0  0
  138.1450   79.5320  221.8190 C   0  0  0  0  0  0  0  0  0  0  0  0
  141.5715   73.1395  221.8513 H   0  0  0  0  0  0  0  0  0  0  0  0
  143.7859   72.3237  221.0162 H   0  0  0  0  0  0  0  0  0  0  0  0
  145.2050   73.7721  219.5858 H   0  0  0  0  0  0  0  0  0  0  0  0
  144.4568   76.0704  218.9582 H   0  0  0  0  0  0  0  0  0  0  0  0
  140.0242   79.0457  218.9213 H   0  0  0  0  0  0  0  0  0  0  0  0
  141.3991   80.8652  219.3060 H   0  0  0  0  0  0  0  0  0  0  0  0
  140.8542   82.3444  221.4151 H   0  0  0  0  0  0  0  0  0  0  0  0
  141.5544   82.9908  223.6489 H   0  0  0  0  0  0  0  0  0  0  0  0
  142.8973   81.4368  225.0347 H   0  0  0  0  0  0  0  0  0  0  0  0
  143.5020   79.2217  224.0893 H   0  0  0  0  0  0  0  0  0  0  0  0
  142.7845   78.5601  221.8075 H   0  0  0  0  0  0  0  0  0  0  0  0
  138.2617   77.3571  220.5692 H   0  0  0  0  0  0  0  0  0  0  0  0
  138.6407   76.3989  222.0997 H   0  0  0  0  0  0  0  0  0  0  0  0
  140.1797   77.7971  223.8272 H   0  0  0  0  0  0  0  0  0  0  0  0
  140.0165   79.8731  225.1216 H   0  0  0  0  0  0  0  0  0  0  0  0
  138.6440   81.7795  224.3136 H   0  0  0  0  0  0  0  0  0  0  0  0
  137.5943   79.4592  220.8696 H   0  0  0  0  0  0  0  0  0  0  0  0
  1  2  2  0
  2  3  1  0
  3  4  2  0
  4  5  1  0
  5  6  2  0
  6  7  1  0
  7  8  2  0
  8  9  1  0
  9 10  2  0
 10 11  1  0
 11 12  2  0
 12 13  1  0
 13 14  2  0
 14 15  1  0
 15 16  2  0
 16 17  1  0
 17 18  2  0
 10 19  1  0
 19 20  1  0
 20 21  1  0
 21 22  2  0
 22 23  1  0
 23 24  2  0
 24 25  1  0
 25 26  1  0
 25 27  2  0
 19  2  1  0
 27 21  1  0
  8  3  1  0
 18 13  1  0
  4 28  1  0
  5 29  1  0
  6 30  1  0
  7 31  1  0
 11 32  1  0
 12 33  1  0
 14 34  1  0
 15 35  1  0
 16 36  1  0
 17 37  1  0
 18 38  1  0
 20 39  1  0
 20 40  1  0
 22 41  1  0
 23 42  1  0
 24 43  1  0
 27 44  1  0
M  END
>  <smiles>  (11) 
O=c1c2ccccc2nc(/C=C/c2ccccc2)n1Cc1cccc(Cl)c1

>  <score_type>  (11) 
oracle

>  <origin>  (11) 
autodockgpu

>  <m_score__min__energy>  (11) 
-8.0999999999999996

>  <m_primary>  (11) 
energy

>  <meeko>  (11) 
{"free_energy": -6.79, "intermolecular_energy": -8.28, "internal_energy": -2.26, "cluster_size": 8, "cluster_id": 5, "rank_in_cluster": 8}

>  <energy>  (11) 
-7.39

>  <cluster_rmsd>  (11) 
0.0

>  <rmsd>  (11) 
271.29

>  <cluster>  (11) 
4

$$$$

     RDKit          3D

 44 47  0  0  0  0  0  0  0  0999 V2000
  141.6930   71.0690  220.9340 O   0  0  0  0  0  0  0  0  0  0  0  0
  141.9100   72.3090  220.9500 C   0  0  0  0  0  0  0  0  0  0  0  0
  143.1780   72.7280  220.6740 C   0  0  0  0  0  0  0  0  0  0  0  0
  144.1850   71.8340  220.3870 C   0  0  0  0  0  0  0  0  0  0  0  0
  145.4420   72.3580  220.1180 C   0  0  0  0  0  0  0  0  0  0  0  0
  145.6650   73.7390  220.1410 C   0  0  0  0  0  0  0  0  0  0  0  0
  144.6470   74.6250  220.4310 C   0  0  0  0  0  0  0  0  0  0  0  0
  143.4110   74.0770  220.6930 C   0  0  0  0  0  0  0  0  0  0  0  0
  142.4090   74.8910  220.9740 N   0  0  0  0  0  0  0  0  0  0  0  0
  141.1190   74.5080  221.2580 C   0  0  0  0  0  0  0  0  0  0  0  0
  140.2220   75.5700  221.5800 C   0  0  0  0  0  0  0  0  0  0  0  0
  140.2470   76.4990  222.4790 C   0  0  0  0  0  0  0  0  0  0  0  0
  140.9580   77.7840  222.3360 C   0  0  0  0  0  0  0  0  0  0  0  0
  141.4870   78.4110  223.4740 C   0  0  0  0  0  0  0  0  0  0  0  0
  142.1550   79.5930  223.4330 C   0  0  0  0  0  0  0  0  0  0  0  0
  142.3390   80.2330  222.2450 C   0  0  0  0  0  0  0  0  0  0  0  0
  141.8290   79.6440  221.1070 C   0  0  0  0  0  0  0  0  0  0  0  0
  141.1420   78.4240  221.1540 C   0  0  0  0  0  0  0  0  0  0  0  0
  140.8940   73.1990  221.2380 N   0  0  0  0  0  0  0  0  0  0  0  0
  139.6270   72.5730  221.4900 C   0  0  0  0  0  0  0  0  0  0  0  0
  139.5860   71.6520  222.6240 C   0  0  0  0  0  0  0  0  0  0  0  0
  138.8850   70.4620  222.6690 C   0  0  0  0  0  0  0  0  0  0  0  0
  138.8660   69.6380  223.7850 C   0  0  0  0  0  0  0  0  0  0  0  0
  139.5550   69.9670  224.9230 C   0  0  0  0  0  0  0  0  0  0  0  0
  140.2650   71.1460  224.9110 C   0  0  0  0  0  0  0  0  0  0  0  0
  141.1810   71.6520  226.3270 Cl  0  0  0  0  0  0  0  0  0  0  0  0
  140.2770   71.9530  223.8040 C   0  0  0  0  0  0  0  0  0  0  0  0
  144.0011   70.7496  220.3715 H   0  0  0  0  0  0  0  0  0  0  0  0
  146.2743   71.6780  219.8835 H   0  0  0  0  0  0  0  0  0  0  0  0
  146.6713   74.1264  219.9237 H   0  0  0  0  0  0  0  0  0  0  0  0
  144.8143   75.7120  220.4517 H   0  0  0  0  0  0  0  0  0  0  0  0
  139.3318   75.6054  220.9348 H   0  0  0  0  0  0  0  0  0  0  0  0
  139.6999   76.3187  223.4161 H   0  0  0  0  0  0  0  0  0  0  0  0
  141.3540   77.9203  224.4495 H   0  0  0  0  0  0  0  0  0  0  0  0
  142.5480   80.0340  224.3609 H   0  0  0  0  0  0  0  0  0  0  0  0
  142.8780   81.1906  222.1946 H   0  0  0  0  0  0  0  0  0  0  0  0
  141.9652   80.1451  220.1373 H   0  0  0  0  0  0  0  0  0  0  0  0
  140.7492   77.9821  220.2264 H   0  0  0  0  0  0  0  0  0  0  0  0
  138.8888   73.3675  221.6739 H   0  0  0  0  0  0  0  0  0  0  0  0
  139.4144   71.9612  220.6009 H   0  0  0  0  0  0  0  0  0  0  0  0
  138.3161   70.1540  221.7794 H   0  0  0  0  0  0  0  0  0  0  0  0
  138.2871   68.7031  223.7558 H   0  0  0  0  0  0  0  0  0  0  0  0
  139.5412   69.3157  225.8094 H   0  0  0  0  0  0  0  0  0  0  0  0
  140.8594   72.8853  223.8443 H   0  0  0  0  0  0  0  0  0  0  0  0
  1  2  2  0
  2  3  1  0
  3  4  2  0
  4  5  1  0
  5  6  2  0
  6  7  1  0
  7  8  2  0
  8  9  1  0
  9 10  2  0
 10 11  1  0
 11 12  2  0
 12 13  1  0
 13 14  2  0
 14 15  1  0
 15 16  2  0
 16 17  1  0
 17 18  2  0
 10 19  1  0
 19 20  1  0
 20 21  1  0
 21 22  2  0
 22 23  1  0
 23 24  2  0
 24 25  1  0
 25 26  1  0
 25 27  2  0
 19  2  1  0
 27 21  1  0
  8  3  1  0
 18 13  1  0
  4 28  1  0
  5 29  1  0
  6 30  1  0
  7 31  1  0
 11 32  1  0
 12 33  1  0
 14 34  1  0
 15 35  1  0
 16 36  1  0
 17 37  1  0
 18 38  1  0
 20 39  1  0
 20 40  1  0
 22 41  1  0
 23 42  1  0
 24 43  1  0
 27 44  1  0
M  END
>  <smiles>  (12) 
O=c1c2ccccc2nc(/C=C/c2ccccc2)n1Cc1cccc(Cl)c1

>  <score_type>  (12) 
oracle

>  <origin>  (12) 
autodockgpu

>  <m_score__min__energy>  (12) 
-8.0999999999999996

>  <m_primary>  (12) 
energy

>  <meeko>  (12) 
{"free_energy": -7.98, "intermolecular_energy": -9.47, "internal_energy": -1.23, "cluster_size": 7, "cluster_id": 2, "rank_in_cluster": 7}

>  <energy>  (12) 
-7.37

>  <cluster_rmsd>  (12) 
0.26

>  <rmsd>  (12) 
271.29

>  <cluster>  (12) 
4

$$$$

     RDKit          3D

 44 47  0  0  0  0  0  0  0  0999 V2000
  140.5650   74.0430  221.9720 O   0  0  0  0  0  0  0  0  0  0  0  0
  141.4200   74.6070  221.2390 C   0  0  0  0  0  0  0  0  0  0  0  0
  142.4900   73.8640  220.8360 C   0  0  0  0  0  0  0  0  0  0  0  0
  142.6340   72.5470  221.2100 C   0  0  0  0  0  0  0  0  0  0  0  0
  143.7570   71.8750  220.7470 C   0  0  0  0  0  0  0  0  0  0  0  0
  144.6970   72.5190  219.9350 C   0  0  0  0  0  0  0  0  0  0  0  0
  144.5400   73.8400  219.5680 C   0  0  0  0  0  0  0  0  0  0  0  0
  143.4170   74.4810  220.0400 C   0  0  0  0  0  0  0  0  0  0  0  0
  143.2300   75.7470  219.7100 N   0  0  0  0  0  0  0  0  0  0  0  0
  142.1670   76.5280  220.0960 C   0  0  0  0  0  0  0  0  0  0  0  0
  142.2100   77.8840  219.6530 C   0  0  0  0  0  0  0  0  0  0  0  0
  141.2870   78.7410  219.3580 C   0  0  0  0  0  0  0  0  0  0  0  0
  141.0370   79.9910  220.1020 C   0  0  0  0  0  0  0  0  0  0  0  0
  142.0020   80.4610  221.0050 C   0  0  0  0  0  0  0  0  0  0  0  0
  141.8540   81.5990  221.7300 C   0  0  0  0  0  0  0  0  0  0  0  0
  140.7250   82.3500  221.6020 C   0  0  0  0  0  0  0  0  0  0  0  0
  139.7550   81.9140  220.7220 C   0  0  0  0  0  0  0  0  0  0  0  0
  139.9130   80.7400  219.9760 C   0  0  0  0  0  0  0  0  0  0  0  0
  141.2670   75.9290  220.8680 N   0  0  0  0  0  0  0  0  0  0  0  0
  140.0740   76.5420  221.3780 C   0  0  0  0  0  0  0  0  0  0  0  0
  140.2770   77.6300  222.3340 C   0  0  0  0  0  0  0  0  0  0  0  0
  141.4460   77.8870  223.0240 C   0  0  0  0  0  0  0  0  0  0  0  0
  141.5710   78.9230  223.9370 C   0  0  0  0  0  0  0  0  0  0  0  0
  140.5230   79.7640  224.2080 C   0  0  0  0  0  0  0  0  0  0  0  0
  139.3430   79.5360  223.5350 C   0  0  0  0  0  0  0  0  0  0  0  0
  137.9420   80.5630  223.8170 Cl  0  0  0  0  0  0  0  0  0  0  0  0
  139.2290   78.5090  222.6360 C   0  0  0  0  0  0  0  0  0  0  0  0
  141.8904   72.0481  221.8489 H   0  0  0  0  0  0  0  0  0  0  0  0
  143.9100   70.8211  221.0224 H   0  0  0  0  0  0  0  0  0  0  0  0
  145.5776   71.9619  219.5826 H   0  0  0  0  0  0  0  0  0  0  0  0
  145.2746   74.3543  218.9309 H   0  0  0  0  0  0  0  0  0  0  0  0
  143.2305   78.2787  219.5400 H   0  0  0  0  0  0  0  0  0  0  0  0
  140.6438   78.5230  218.4927 H   0  0  0  0  0  0  0  0  0  0  0  0
  142.9258   79.8776  221.1321 H   0  0  0  0  0  0  0  0  0  0  0  0
  142.6479   81.9154  222.4226 H   0  0  0  0  0  0  0  0  0  0  0  0
  140.5904   83.2751  222.1818 H   0  0  0  0  0  0  0  0  0  0  0  0
  138.8343   82.5042  220.6039 H   0  0  0  0  0  0  0  0  0  0  0  0
  139.1201   80.4226  219.2827 H   0  0  0  0  0  0  0  0  0  0  0  0
  139.5093   76.9440  220.5239 H   0  0  0  0  0  0  0  0  0  0  0  0
  139.5451   75.7522  221.9316 H   0  0  0  0  0  0  0  0  0  0  0  0
  142.3169   77.2405  222.8408 H   0  0  0  0  0  0  0  0  0  0  0  0
  142.5302   79.0730  224.4541 H   0  0  0  0  0  0  0  0  0  0  0  0
  140.6202   80.5862  224.9323 H   0  0  0  0  0  0  0  0  0  0  0  0
  138.2652   78.3672  222.1250 H   0  0  0  0  0  0  0  0  0  0  0  0
  1  2  2  0
  2  3  1  0
  3  4  2  0
  4  5  1  0
  5  6  2  0
  6  7  1  0
  7  8  2  0
  8  9  1  0
  9 10  2  0
 10 11  1  0
 11 12  2  0
 12 13  1  0
 13 14  2  0
 14 15  1  0
 15 16  2  0
 16 17  1  0
 17 18  2  0
 10 19  1  0
 19 20  1  0
 20 21  1  0
 21 22  2  0
 22 23  1  0
 23 24  2  0
 24 25  1  0
 25 26  1  0
 25 27  2  0
 19  2  1  0
 27 21  1  0
  8  3  1  0
 18 13  1  0
  4 28  1  0
  5 29  1  0
  6 30  1  0
  7 31  1  0
 11 32  1  0
 12 33  1  0
 14 34  1  0
 15 35  1  0
 16 36  1  0
 17 37  1  0
 18 38  1  0
 20 39  1  0
 20 40  1  0
 22 41  1  0
 23 42  1  0
 24 43  1  0
 27 44  1  0
M  END
>  <smiles>  (13) 
O=c1c2ccccc2nc(/C=C/c2ccccc2)n1Cc1cccc(Cl)c1

>  <score_type>  (13) 
oracle

>  <origin>  (13) 
autodockgpu

>  <m_score__min__energy>  (13) 
-8.0999999999999996

>  <m_primary>  (13) 
energy

>  <meeko>  (13) 
{"free_energy": -7.03, "intermolecular_energy": -8.52, "internal_energy": -2.08, "cluster_size": 8, "cluster_id": 5, "rank_in_cluster": 3}

>  <energy>  (13) 
-7.34

>  <cluster_rmsd>  (13) 
0.0

>  <rmsd>  (13) 
272.43

>  <cluster>  (13) 
5

$$$$

     RDKit          3D

 44 47  0  0  0  0  0  0  0  0999 V2000
  140.8150   74.1180  221.9630 O   0  0  0  0  0  0  0  0  0  0  0  0
  141.4580   74.7030  221.0520 C   0  0  0  0  0  0  0  0  0  0  0  0
  142.5280   74.0480  220.5180 C   0  0  0  0  0  0  0  0  0  0  0  0
  142.8940   72.7940  220.9520 C   0  0  0  0  0  0  0  0  0  0  0  0
  143.9960   72.2080  220.3450 C   0  0  0  0  0  0  0  0  0  0  0  0
  144.6990   72.8740  219.3350 C   0  0  0  0  0  0  0  0  0  0  0  0
  144.3220   74.1310  218.9090 C   0  0  0  0  0  0  0  0  0  0  0  0
  143.2250   74.6870  219.5280 C   0  0  0  0  0  0  0  0  0  0  0  0
  142.8300   75.8900  219.1490 N   0  0  0  0  0  0  0  0  0  0  0  0
  141.7600   76.5830  219.6620 C   0  0  0  0  0  0  0  0  0  0  0  0
  141.5610   77.8890  219.1230 C   0  0  0  0  0  0  0  0  0  0  0  0
  142.1790   79.0130  219.2930 C   0  0  0  0  0  0  0  0  0  0  0  0
  141.6370   80.1620  220.0450 C   0  0  0  0  0  0  0  0  0  0  0  0
  142.2300   80.5310  221.2610 C   0  0  0  0  0  0  0  0  0  0  0  0
  141.7960   81.5730  222.0170 C   0  0  0  0  0  0  0  0  0  0  0  0
  140.7340   82.3200  221.6070 C   0  0  0  0  0  0  0  0  0  0  0  0
  140.1280   81.9810  220.4140 C   0  0  0  0  0  0  0  0  0  0  0  0
  140.5790   80.9070  219.6390 C   0  0  0  0  0  0  0  0  0  0  0  0
  141.0830   75.9620  220.6220 N   0  0  0  0  0  0  0  0  0  0  0  0
  139.9280   76.4850  221.2920 C   0  0  0  0  0  0  0  0  0  0  0  0
  140.1840   77.5370  222.2750 C   0  0  0  0  0  0  0  0  0  0  0  0
  141.3700   77.7270  222.9580 C   0  0  0  0  0  0  0  0  0  0  0  0
  141.5470   78.7310  223.8980 C   0  0  0  0  0  0  0  0  0  0  0  0
  140.5360   79.6050  224.2050 C   0  0  0  0  0  0  0  0  0  0  0  0
  139.3410   79.4430  223.5400 C   0  0  0  0  0  0  0  0  0  0  0  0
  137.9850   80.5170  223.8680 Cl  0  0  0  0  0  0  0  0  0  0  0  0
  139.1760   78.4470  222.6140 C   0  0  0  0  0  0  0  0  0  0  0  0
  142.3361   72.2777  221.7471 H   0  0  0  0  0  0  0  0  0  0  0  0
  144.3212   71.2062  220.6623 H   0  0  0  0  0  0  0  0  0  0  0  0
  145.5691   72.3859  218.8717 H   0  0  0  0  0  0  0  0  0  0  0  0
  144.8695   74.6614  218.1160 H   0  0  0  0  0  0  0  0  0  0  0  0
  140.7140   77.9530  218.4241 H   0  0  0  0  0  0  0  0  0  0  0  0
  143.1783   79.1199  218.8458 H   0  0  0  0  0  0  0  0  0  0  0  0
  143.0900   79.9472  221.6209 H   0  0  0  0  0  0  0  0  0  0  0  0
  142.3038   81.8138  222.9626 H   0  0  0  0  0  0  0  0  0  0  0  0
  140.3704   83.1669  222.2075 H   0  0  0  0  0  0  0  0  0  0  0  0
  139.2681   82.5706  220.0635 H   0  0  0  0  0  0  0  0  0  0  0  0
  140.0717   80.6651  218.6934 H   0  0  0  0  0  0  0  0  0  0  0  0
  139.2512   76.8948  220.5277 H   0  0  0  0  0  0  0  0  0  0  0  0
  139.5050   75.6428  221.8593 H   0  0  0  0  0  0  0  0  0  0  0  0
  142.2118   77.0513  222.7465 H   0  0  0  0  0  0  0  0  0  0  0  0
  142.5172   78.8282  224.4072 H   0  0  0  0  0  0  0  0  0  0  0  0
  140.6736   80.4017  224.9508 H   0  0  0  0  0  0  0  0  0  0  0  0
  138.2017   78.3579  222.1113 H   0  0  0  0  0  0  0  0  0  0  0  0
  1  2  2  0
  2  3  1  0
  3  4  2  0
  4  5  1  0
  5  6  2  0
  6  7  1  0
  7  8  2  0
  8  9  1  0
  9 10  2  0
 10 11  1  0
 11 12  2  0
 12 13  1  0
 13 14  2  0
 14 15  1  0
 15 16  2  0
 16 17  1  0
 17 18  2  0
 10 19  1  0
 19 20  1  0
 20 21  1  0
 21 22  2  0
 22 23  1  0
 23 24  2  0
 24 25  1  0
 25 26  1  0
 25 27  2  0
 19  2  1  0
 27 21  1  0
  8  3  1  0
 18 13  1  0
  4 28  1  0
  5 29  1  0
  6 30  1  0
  7 31  1  0
 11 32  1  0
 12 33  1  0
 14 34  1  0
 15 35  1  0
 16 36  1  0
 17 37  1  0
 18 38  1  0
 20 39  1  0
 20 40  1  0
 22 41  1  0
 23 42  1  0
 24 43  1  0
 27 44  1  0
M  END
>  <smiles>  (14) 
O=c1c2ccccc2nc(/C=C/c2ccccc2)n1Cc1cccc(Cl)c1

>  <score_type>  (14) 
oracle

>  <origin>  (14) 
autodockgpu

>  <m_score__min__energy>  (14) 
-8.0999999999999996

>  <m_primary>  (14) 
energy

>  <meeko>  (14) 
{"free_energy": -6.79, "intermolecular_energy": -8.28, "internal_energy": -2.13, "cluster_size": 8, "cluster_id": 5, "rank_in_cluster": 7}

>  <energy>  (14) 
-7.04

>  <cluster_rmsd>  (14) 
1.23

>  <rmsd>  (14) 
272.29

>  <cluster>  (14) 
5

$$$$

     RDKit          3D

 44 47  0  0  0  0  0  0  0  0999 V2000
  139.1980   67.7590  225.3650 O   0  0  0  0  0  0  0  0  0  0  0  0
  139.4780   68.9710  225.1740 C   0  0  0  0  0  0  0  0  0  0  0  0
  140.1000   69.6400  226.1880 C   0  0  0  0  0  0  0  0  0  0  0  0
  140.4140   69.0170  227.3750 C   0  0  0  0  0  0  0  0  0  0  0  0
  141.0480   69.7810  228.3450 C   0  0  0  0  0  0  0  0  0  0  0  0
  141.3500   71.1280  228.1150 C   0  0  0  0  0  0  0  0  0  0  0  0
  141.0290   71.7400  226.9210 C   0  0  0  0  0  0  0  0  0  0  0  0
  140.4020   70.9580  225.9770 C   0  0  0  0  0  0  0  0  0  0  0  0
  140.0790   71.5060  224.8190 N   0  0  0  0  0  0  0  0  0  0  0  0
  139.4530   70.8680  223.7750 C   0  0  0  0  0  0  0  0  0  0  0  0
  139.1630   71.6860  222.6420 C   0  0  0  0  0  0  0  0  0  0  0  0
  139.6640   72.7980  222.2100 C   0  0  0  0  0  0  0  0  0  0  0  0
  140.9980   72.9310  221.5930 C   0  0  0  0  0  0  0  0  0  0  0  0
  141.4560   74.1990  221.2080 C   0  0  0  0  0  0  0  0  0  0  0  0
  142.6680   74.4130  220.6340 C   0  0  0  0  0  0  0  0  0  0  0  0
  143.5100   73.3670  220.4040 C   0  0  0  0  0  0  0  0  0  0  0  0
  143.0880   72.1060  220.7700 C   0  0  0  0  0  0  0  0  0  0  0  0
  141.8380   71.8910  221.3620 C   0  0  0  0  0  0  0  0  0  0  0  0
  139.1600   69.5880  223.9800 N   0  0  0  0  0  0  0  0  0  0  0  0
  138.5210   68.7230  223.0310 C   0  0  0  0  0  0  0  0  0  0  0  0
  137.0730   68.5800  223.1750 C   0  0  0  0  0  0  0  0  0  0  0  0
  136.2460   67.8710  222.3230 C   0  0  0  0  0  0  0  0  0  0  0  0
  134.8730   67.7890  222.5000 C   0  0  0  0  0  0  0  0  0  0  0  0
  134.2510   68.4180  223.5470 C   0  0  0  0  0  0  0  0  0  0  0  0
  135.0470   69.1320  224.4150 C   0  0  0  0  0  0  0  0  0  0  0  0
  134.3390   69.9730  225.7900 Cl  0  0  0  0  0  0  0  0  0  0  0  0
  136.4030   69.2070  224.2320 C   0  0  0  0  0  0  0  0  0  0  0  0
  140.1724   67.9578  227.5474 H   0  0  0  0  0  0  0  0  0  0  0  0
  141.3167   69.3215  229.3076 H   0  0  0  0  0  0  0  0  0  0  0  0
  141.8530   71.7100  228.9014 H   0  0  0  0  0  0  0  0  0  0  0  0
  141.2620   72.7984  226.7328 H   0  0  0  0  0  0  0  0  0  0  0  0
  138.3525   71.2930  222.0106 H   0  0  0  0  0  0  0  0  0  0  0  0
  139.0532   73.7074  222.3096 H   0  0  0  0  0  0  0  0  0  0  0  0
  140.7998   75.0650  221.3797 H   0  0  0  0  0  0  0  0  0  0  0  0
  142.9705   75.4329  220.3542 H   0  0  0  0  0  0  0  0  0  0  0  0
  144.4955   73.5232  219.9409 H   0  0  0  0  0  0  0  0  0  0  0  0
  143.7512   71.2467  220.5920 H   0  0  0  0  0  0  0  0  0  0  0  0
  141.5345   70.8714  221.6420 H   0  0  0  0  0  0  0  0  0  0  0  0
  138.7227   69.1185  222.0246 H   0  0  0  0  0  0  0  0  0  0  0  0
  138.9395   67.7216  223.2103 H   0  0  0  0  0  0  0  0  0  0  0  0
  136.6975   67.3487  221.4666 H   0  0  0  0  0  0  0  0  0  0  0  0
  134.2712   67.2076  221.7860 H   0  0  0  0  0  0  0  0  0  0  0  0
  133.1619   68.3552  223.6880 H   0  0  0  0  0  0  0  0  0  0  0  0
  136.9953   69.7898  224.9527 H   0  0  0  0  0  0  0  0  0  0  0  0
  1  2  2  0
  2  3  1  0
  3  4  2  0
  4  5  1  0
  5  6  2  0
  6  7  1  0
  7  8  2  0
  8  9  1  0
  9 10  2  0
 10 11  1  0
 11 12  2  0
 12 13  1  0
 13 14  2  0
 14 15  1  0
 15 16  2  0
 16 17  1  0
 17 18  2  0
 10 19  1  0
 19 20  1  0
 20 21  1  0
 21 22  2  0
 22 23  1  0
 23 24  2  0
 24 25  1  0
 25 26  1  0
 25 27  2  0
 19  2  1  0
 27 21  1  0
  8  3  1  0
 18 13  1  0
  4 28  1  0
  5 29  1  0
  6 30  1  0
  7 31  1  0
 11 32  1  0
 12 33  1  0
 14 34  1  0
 15 35  1  0
 16 36  1  0
 17 37  1  0
 18 38  1  0
 20 39  1  0
 20 40  1  0
 22 41  1  0
 23 42  1  0
 24 43  1  0
 27 44  1  0
M  END
>  <smiles>  (15) 
O=c1c2ccccc2nc(/C=C/c2ccccc2)n1Cc1cccc(Cl)c1

>  <score_type>  (15) 
oracle

>  <origin>  (15) 
autodockgpu

>  <m_score__min__energy>  (15) 
-8.0999999999999996

>  <m_primary>  (15) 
energy

>  <meeko>  (15) 
{"free_energy": -7.66, "intermolecular_energy": -9.15, "internal_energy": -1.3, "cluster_size": 1, "cluster_id": 3, "rank_in_cluster": 1}

>  <energy>  (15) 
-7.03

>  <cluster_rmsd>  (15) 
1.23

>  <rmsd>  (15) 
272.29

>  <cluster>  (15) 
5

$$$$

     RDKit          3D

 44 47  0  0  0  0  0  0  0  0999 V2000
  141.5080   71.0750  221.0620 O   0  0  0  0  0  0  0  0  0  0  0  0
  141.7650   72.3070  221.1060 C   0  0  0  0  0  0  0  0  0  0  0  0
  143.0240   72.6980  220.7580 C   0  0  0  0  0  0  0  0  0  0  0  0
  143.9800   71.7860  220.3710 C   0  0  0  0  0  0  0  0  0  0  0  0
  145.2320   72.2820  220.0340 C   0  0  0  0  0  0  0  0  0  0  0  0
  145.5000   73.6540  220.0890 C   0  0  0  0  0  0  0  0  0  0  0  0
  144.5330   74.5580  220.4800 C   0  0  0  0  0  0  0  0  0  0  0  0
  143.3010   74.0380  220.8070 C   0  0  0  0  0  0  0  0  0  0  0  0
  142.3470   74.8700  221.1850 N   0  0  0  0  0  0  0  0  0  0  0  0
  141.0680   74.5160  221.5430 C   0  0  0  0  0  0  0  0  0  0  0  0
  140.2290   75.5910  221.9630 C   0  0  0  0  0  0  0  0  0  0  0  0
  140.0800   76.8050  221.5410 C   0  0  0  0  0  0  0  0  0  0  0  0
  140.9020   77.9500  221.9790 C   0  0  0  0  0  0  0  0  0  0  0  0
  141.1860   78.1130  223.3430 C   0  0  0  0  0  0  0  0  0  0  0  0
  141.9330   79.1350  223.8330 C   0  0  0  0  0  0  0  0  0  0  0  0
  142.4500   80.0710  222.9890 C   0  0  0  0  0  0  0  0  0  0  0  0
  142.1880   79.9390  221.6410 C   0  0  0  0  0  0  0  0  0  0  0  0
  141.4180   78.8820  221.1400 C   0  0  0  0  0  0  0  0  0  0  0  0
  140.7990   73.2150  221.4940 N   0  0  0  0  0  0  0  0  0  0  0  0
  139.5330   72.6180  221.8110 C   0  0  0  0  0  0  0  0  0  0  0  0
  139.5330   71.6870  222.9380 C   0  0  0  0  0  0  0  0  0  0  0  0
  138.7740   70.5360  223.0290 C   0  0  0  0  0  0  0  0  0  0  0  0
  138.7990   69.7010  224.1360 C   0  0  0  0  0  0  0  0  0  0  0  0
  139.5930   69.9780  225.2190 C   0  0  0  0  0  0  0  0  0  0  0  0
  140.3630   71.1180  225.1580 C   0  0  0  0  0  0  0  0  0  0  0  0
  141.4160   71.5560  226.5010 Cl  0  0  0  0  0  0  0  0  0  0  0  0
  140.3310   71.9360  224.0610 C   0  0  0  0  0  0  0  0  0  0  0  0
  143.7608   70.7088  220.3305 H   0  0  0  0  0  0  0  0  0  0  0  0
  146.0242   71.5867  219.7194 H   0  0  0  0  0  0  0  0  0  0  0  0
  146.5008   74.0194  219.8153 H   0  0  0  0  0  0  0  0  0  0  0  0
  144.7363   75.6380  220.5278 H   0  0  0  0  0  0  0  0  0  0  0  0
  139.5803   75.3374  222.8143 H   0  0  0  0  0  0  0  0  0  0  0  0
  139.2856   76.9971  220.8047 H   0  0  0  0  0  0  0  0  0  0  0  0
  140.7827   77.3748  224.0518 H   0  0  0  0  0  0  0  0  0  0  0  0
  142.1213   79.2076  224.9143 H   0  0  0  0  0  0  0  0  0  0  0  0
  143.0570   80.9054  223.3702 H   0  0  0  0  0  0  0  0  0  0  0  0
  142.5947   80.6838  220.9411 H   0  0  0  0  0  0  0  0  0  0  0  0
  141.2305   78.8073  220.0587 H   0  0  0  0  0  0  0  0  0  0  0  0
  138.8263   73.4284  222.0428 H   0  0  0  0  0  0  0  0  0  0  0  0
  139.2555   72.0206  220.9300 H   0  0  0  0  0  0  0  0  0  0  0  0
  138.1203   70.2700  222.1852 H   0  0  0  0  0  0  0  0  0  0  0  0
  138.1696   68.7989  224.1454 H   0  0  0  0  0  0  0  0  0  0  0  0
  139.6140   69.3180  226.0987 H   0  0  0  0  0  0  0  0  0  0  0  0
  140.9647   72.8351  224.0618 H   0  0  0  0  0  0  0  0  0  0  0  0
  1  2  2  0
  2  3  1  0
  3  4  2  0
  4  5  1  0
  5  6  2  0
  6  7  1  0
  7  8  2  0
  8  9  1  0
  9 10  2  0
 10 11  1  0
 11 12  2  0
 12 13  1  0
 13 14  2  0
 14 15  1  0
 15 16  2  0
 16 17  1  0
 17 18  2  0
 10 19  1  0
 19 20  1  0
 20 21  1  0
 21 22  2  0
 22 23  1  0
 23 24  2  0
 24 25  1  0
 25 26  1  0
 25 27  2  0
 19  2  1  0
 27 21  1  0
  8  3  1  0
 18 13  1  0
  4 28  1  0
  5 29  1  0
  6 30  1  0
  7 31  1  0
 11 32  1  0
 12 33  1  0
 14 34  1  0
 15 35  1  0
 16 36  1  0
 17 37  1  0
 18 38  1  0
 20 39  1  0
 20 40  1  0
 22 41  1  0
 23 42  1  0
 24 43  1  0
 27 44  1  0
M  END
>  <smiles>  (16) 
O=c1c2ccccc2nc(/C=C/c2ccccc2)n1Cc1cccc(Cl)c1

>  <score_type>  (16) 
oracle

>  <origin>  (16) 
autodockgpu

>  <m_score__min__energy>  (16) 
-8.0999999999999996

>  <m_primary>  (16) 
energy

>  <meeko>  (16) 
{"free_energy": -8.01, "intermolecular_energy": -9.5, "internal_energy": -1.22, "cluster_size": 7, "cluster_id": 2, "rank_in_cluster": 5}

>  <energy>  (16) 
-7.02

>  <cluster_rmsd>  (16) 
1.22

>  <rmsd>  (16) 
272.28

>  <cluster>  (16) 
5

$$$$

     RDKit          3D

 44 47  0  0  0  0  0  0  0  0999 V2000
  141.4890   71.1030  221.0420 O   0  0  0  0  0  0  0  0  0  0  0  0
  141.7570   72.3330  221.0900 C   0  0  0  0  0  0  0  0  0  0  0  0
  143.0200   72.7130  220.7450 C   0  0  0  0  0  0  0  0  0  0  0  0
  143.9680   71.7940  220.3560 C   0  0  0  0  0  0  0  0  0  0  0  0
  145.2250   72.2800  220.0220 C   0  0  0  0  0  0  0  0  0  0  0  0
  145.5060   73.6490  220.0820 C   0  0  0  0  0  0  0  0  0  0  0  0
  144.5460   74.5600  220.4740 C   0  0  0  0  0  0  0  0  0  0  0  0
  143.3090   74.0500  220.7980 C   0  0  0  0  0  0  0  0  0  0  0  0
  142.3620   74.8900  221.1780 N   0  0  0  0  0  0  0  0  0  0  0  0
  141.0800   74.5460  221.5340 C   0  0  0  0  0  0  0  0  0  0  0  0
  140.2500   75.6280  221.9560 C   0  0  0  0  0  0  0  0  0  0  0  0
  140.1580   76.8630  221.5820 C   0  0  0  0  0  0  0  0  0  0  0  0
  140.9900   77.9610  222.1100 C   0  0  0  0  0  0  0  0  0  0  0  0
  141.4280   78.9730  221.2430 C   0  0  0  0  0  0  0  0  0  0  0  0
  142.1960   80.0190  221.6430 C   0  0  0  0  0  0  0  0  0  0  0  0
  142.5800   80.1260  222.9460 C   0  0  0  0  0  0  0  0  0  0  0  0
  142.1650   79.1470  223.8240 C   0  0  0  0  0  0  0  0  0  0  0  0
  141.3740   78.0700  223.4060 C   0  0  0  0  0  0  0  0  0  0  0  0
  140.7990   73.2490  221.4810 N   0  0  0  0  0  0  0  0  0  0  0  0
  139.5280   72.6620  221.7940 C   0  0  0  0  0  0  0  0  0  0  0  0
  139.5210   71.7150  222.9070 C   0  0  0  0  0  0  0  0  0  0  0  0
  138.7600   70.5630  222.9780 C   0  0  0  0  0  0  0  0  0  0  0  0
  138.7790   69.7120  224.0730 C   0  0  0  0  0  0  0  0  0  0  0  0
  139.5680   69.9730  225.1630 C   0  0  0  0  0  0  0  0  0  0  0  0
  140.3390   71.1130  225.1240 C   0  0  0  0  0  0  0  0  0  0  0  0
  141.3850   71.5310  226.4780 Cl  0  0  0  0  0  0  0  0  0  0  0  0
  140.3130   71.9470  224.0380 C   0  0  0  0  0  0  0  0  0  0  0  0
  143.7392   70.7190  220.3116 H   0  0  0  0  0  0  0  0  0  0  0  0
  146.0111   71.5785  219.7057 H   0  0  0  0  0  0  0  0  0  0  0  0
  146.5107   74.0062  219.8118 H   0  0  0  0  0  0  0  0  0  0  0  0
  144.7584   75.6381  220.5249 H   0  0  0  0  0  0  0  0  0  0  0  0
  139.5489   75.3578  222.7593 H   0  0  0  0  0  0  0  0  0  0  0  0
  139.4074   77.1117  220.8173 H   0  0  0  0  0  0  0  0  0  0  0  0
  141.1342   78.9163  220.1845 H   0  0  0  0  0  0  0  0  0  0  0  0
  142.5086   80.7811  220.9140 H   0  0  0  0  0  0  0  0  0  0  0  0
  143.2016   80.9671  223.2868 H   0  0  0  0  0  0  0  0  0  0  0  0
  142.4633   79.2140  224.8807 H   0  0  0  0  0  0  0  0  0  0  0  0
  141.0618   77.3068  224.1341 H   0  0  0  0  0  0  0  0  0  0  0  0
  138.8314   73.4770  222.0401 H   0  0  0  0  0  0  0  0  0  0  0  0
  139.2409   72.0805  220.9055 H   0  0  0  0  0  0  0  0  0  0  0  0
  138.1100   70.3099  222.1275 H   0  0  0  0  0  0  0  0  0  0  0  0
  138.1489   68.8104  224.0666 H   0  0  0  0  0  0  0  0  0  0  0  0
  139.5845   69.2997  226.0327 H   0  0  0  0  0  0  0  0  0  0  0  0
  140.9472   72.8456  224.0552 H   0  0  0  0  0  0  0  0  0  0  0  0
  1  2  2  0
  2  3  1  0
  3  4  2  0
  4  5  1  0
  5  6  2  0
  6  7  1  0
  7  8  2  0
  8  9  1  0
  9 10  2  0
 10 11  1  0
 11 12  2  0
 12 13  1  0
 13 14  2  0
 14 15  1  0
 15 16  2  0
 16 17  1  0
 17 18  2  0
 10 19  1  0
 19 20  1  0
 20 21  1  0
 21 22  2  0
 22 23  1  0
 23 24  2  0
 24 25  1  0
 25 26  1  0
 25 27  2  0
 19  2  1  0
 27 21  1  0
  8  3  1  0
 18 13  1  0
  4 28  1  0
  5 29  1  0
  6 30  1  0
  7 31  1  0
 11 32  1  0
 12 33  1  0
 14 34  1  0
 15 35  1  0
 16 36  1  0
 17 37  1  0
 18 38  1  0
 20 39  1  0
 20 40  1  0
 22 41  1  0
 23 42  1  0
 24 43  1  0
 27 44  1  0
M  END
>  <smiles>  (17) 
O=c1c2ccccc2nc(/C=C/c2ccccc2)n1Cc1cccc(Cl)c1

>  <score_type>  (17) 
oracle

>  <origin>  (17) 
autodockgpu

>  <m_score__min__energy>  (17) 
-8.0999999999999996

>  <m_primary>  (17) 
energy

>  <meeko>  (17) 
{"free_energy": -8.05, "intermolecular_energy": -9.54, "internal_energy": -1.21, "cluster_size": 7, "cluster_id": 2, "rank_in_cluster": 2}

>  <energy>  (17) 
-6.95

>  <cluster_rmsd>  (17) 
1.23

>  <rmsd>  (17) 
272.25

>  <cluster>  (17) 
5

$$$$

     RDKit          3D

 44 47  0  0  0  0  0  0  0  0999 V2000
  140.5230   74.0140  221.9830 O   0  0  0  0  0  0  0  0  0  0  0  0
  141.3810   74.5810  221.2570 C   0  0  0  0  0  0  0  0  0  0  0  0
  142.4490   73.8380  220.8500 C   0  0  0  0  0  0  0  0  0  0  0  0
  142.5880   72.5170  221.2150 C   0  0  0  0  0  0  0  0  0  0  0  0
  143.7100   71.8450  220.7490 C   0  0  0  0  0  0  0  0  0  0  0  0
  144.6530   72.4910  219.9430 C   0  0  0  0  0  0  0  0  0  0  0  0
  144.5020   73.8150  219.5850 C   0  0  0  0  0  0  0  0  0  0  0  0
  143.3800   74.4570  220.0600 C   0  0  0  0  0  0  0  0  0  0  0  0
  143.1980   75.7260  219.7400 N   0  0  0  0  0  0  0  0  0  0  0  0
  142.1370   76.5080  220.1290 C   0  0  0  0  0  0  0  0  0  0  0  0
  142.1860   77.8670  219.6960 C   0  0  0  0  0  0  0  0  0  0  0  0
  141.2670   78.7220  219.3810 C   0  0  0  0  0  0  0  0  0  0  0  0
  141.0040   79.9760  220.1140 C   0  0  0  0  0  0  0  0  0  0  0  0
  141.9870   80.4930  220.9710 C   0  0  0  0  0  0  0  0  0  0  0  0
  141.8300   81.6380  221.6830 C   0  0  0  0  0  0  0  0  0  0  0  0
  140.6720   82.3490  221.5870 C   0  0  0  0  0  0  0  0  0  0  0  0
  139.6850   81.8660  220.7530 C   0  0  0  0  0  0  0  0  0  0  0  0
  139.8520   80.6850  220.0200 C   0  0  0  0  0  0  0  0  0  0  0  0
  141.2330   75.9060  220.8950 N   0  0  0  0  0  0  0  0  0  0  0  0
  140.0420   76.5200  221.4080 C   0  0  0  0  0  0  0  0  0  0  0  0
  140.2470   77.6180  222.3510 C   0  0  0  0  0  0  0  0  0  0  0  0
  141.4220   77.8900  223.0250 C   0  0  0  0  0  0  0  0  0  0  0  0
  141.5500   78.9360  223.9270 C   0  0  0  0  0  0  0  0  0  0  0  0
  140.4980   79.7710  224.2020 C   0  0  0  0  0  0  0  0  0  0  0  0
  139.3130   79.5280  223.5440 C   0  0  0  0  0  0  0  0  0  0  0  0
  137.9070   80.5480  223.8320 Cl  0  0  0  0  0  0  0  0  0  0  0  0
  139.1960   78.4920  222.6560 C   0  0  0  0  0  0  0  0  0  0  0  0
  141.8416   72.0158  221.8488 H   0  0  0  0  0  0  0  0  0  0  0  0
  143.8595   70.7889  221.0177 H   0  0  0  0  0  0  0  0  0  0  0  0
  145.5318   71.9329  219.5877 H   0  0  0  0  0  0  0  0  0  0  0  0
  145.2397   74.3310  218.9529 H   0  0  0  0  0  0  0  0  0  0  0  0
  143.2074   78.2670  219.6137 H   0  0  0  0  0  0  0  0  0  0  0  0
  140.6383   78.4988  218.5064 H   0  0  0  0  0  0  0  0  0  0  0  0
  142.9338   79.9421  221.0712 H   0  0  0  0  0  0  0  0  0  0  0  0
  142.6392   81.9923  222.3385 H   0  0  0  0  0  0  0  0  0  0  0  0
  140.5285   83.2790  222.1566 H   0  0  0  0  0  0  0  0  0  0  0  0
  138.7414   82.4238  220.6615 H   0  0  0  0  0  0  0  0  0  0  0  0
  139.0437   80.3300  219.3638 H   0  0  0  0  0  0  0  0  0  0  0  0
  139.4694   76.9111  220.5541 H   0  0  0  0  0  0  0  0  0  0  0  0
  139.5210   75.7338  221.9741 H   0  0  0  0  0  0  0  0  0  0  0  0
  142.2954   77.2481  222.8379 H   0  0  0  0  0  0  0  0  0  0  0  0
  142.5140   79.0986  224.4313 H   0  0  0  0  0  0  0  0  0  0  0  0
  140.5964   80.6002  224.9181 H   0  0  0  0  0  0  0  0  0  0  0  0
  138.2277   78.3386  222.1571 H   0  0  0  0  0  0  0  0  0  0  0  0
  1  2  2  0
  2  3  1  0
  3  4  2  0
  4  5  1  0
  5  6  2  0
  6  7  1  0
  7  8  2  0
  8  9  1  0
  9 10  2  0
 10 11  1  0
 11 12  2  0
 12 13  1  0
 13 14  2  0
 14 15  1  0
 15 16  2  0
 16 17  1  0
 17 18  2  0
 10 19  1  0
 19 20  1  0
 20 21  1  0
 21 22  2  0
 22 23  1  0
 23 24  2  0
 24 25  1  0
 25 26  1  0
 25 27  2  0
 19  2  1  0
 27 21  1  0
  8  3  1  0
 18 13  1  0
  4 28  1  0
  5 29  1  0
  6 30  1  0
  7 31  1  0
 11 32  1  0
 12 33  1  0
 14 34  1  0
 15 35  1  0
 16 36  1  0
 17 37  1  0
 18 38  1  0
 20 39  1  0
 20 40  1  0
 22 41  1  0
 23 42  1  0
 24 43  1  0
 27 44  1  0
M  END
>  <smiles>  (18) 
O=c1c2ccccc2nc(/C=C/c2ccccc2)n1Cc1cccc(Cl)c1

>  <score_type>  (18) 
oracle

>  <origin>  (18) 
autodockgpu

>  <m_score__min__energy>  (18) 
-8.0999999999999996

>  <m_primary>  (18) 
energy

>  <meeko>  (18) 
{"free_energy": -7.02, "intermolecular_energy": -8.51, "internal_energy": -2.09, "cluster_size": 8, "cluster_id": 5, "rank_in_cluster": 4}

>  <energy>  (18) 
-6.92

>  <cluster_rmsd>  (18) 
1.24

>  <rmsd>  (18) 
272.24

>  <cluster>  (18) 
5

$$$$

     RDKit          3D

 44 47  0  0  0  0  0  0  0  0999 V2000
  140.5170   74.1390  221.9430 O   0  0  0  0  0  0  0  0  0  0  0  0
  141.3760   74.6770  221.1960 C   0  0  0  0  0  0  0  0  0  0  0  0
  142.4400   73.9140  220.8110 C   0  0  0  0  0  0  0  0  0  0  0  0
  142.5730   72.6070  221.2210 C   0  0  0  0  0  0  0  0  0  0  0  0
  143.6900   71.9130  220.7750 C   0  0  0  0  0  0  0  0  0  0  0  0
  144.6340   72.5260  219.9450 C   0  0  0  0  0  0  0  0  0  0  0  0
  144.4890   73.8380  219.5430 C   0  0  0  0  0  0  0  0  0  0  0  0
  143.3720   74.5020  219.9990 C   0  0  0  0  0  0  0  0  0  0  0  0
  143.1950   75.7600  219.6350 N   0  0  0  0  0  0  0  0  0  0  0  0
  142.1390   76.5600  220.0010 C   0  0  0  0  0  0  0  0  0  0  0  0
  142.1930   77.9030  219.5220 C   0  0  0  0  0  0  0  0  0  0  0  0
  141.2770   78.7730  219.2400 C   0  0  0  0  0  0  0  0  0  0  0  0
  141.0090   79.9910  220.0290 C   0  0  0  0  0  0  0  0  0  0  0  0
  142.0020   80.4910  220.8850 C   0  0  0  0  0  0  0  0  0  0  0  0
  141.8400   81.6030  221.6470 C   0  0  0  0  0  0  0  0  0  0  0  0
  140.6690   82.2970  221.6050 C   0  0  0  0  0  0  0  0  0  0  0  0
  139.6720   81.8300  220.7730 C   0  0  0  0  0  0  0  0  0  0  0  0
  139.8430   80.6830  219.9890 C   0  0  0  0  0  0  0  0  0  0  0  0
  141.2340   75.9890  220.7890 N   0  0  0  0  0  0  0  0  0  0  0  0
  140.0470   76.6260  221.2840 C   0  0  0  0  0  0  0  0  0  0  0  0
  140.2560   77.6840  222.2710 C   0  0  0  0  0  0  0  0  0  0  0  0
  141.4330   77.9240  222.9550 C   0  0  0  0  0  0  0  0  0  0  0  0
  141.5650   78.9320  223.8990 C   0  0  0  0  0  0  0  0  0  0  0  0
  140.5160   79.7590  224.2080 C   0  0  0  0  0  0  0  0  0  0  0  0
  139.3300   79.5470  223.5420 C   0  0  0  0  0  0  0  0  0  0  0  0
  137.9280   80.5590  223.8720 Cl  0  0  0  0  0  0  0  0  0  0  0  0
  139.2090   78.5480  222.6120 C   0  0  0  0  0  0  0  0  0  0  0  0
  141.8261   72.1322  221.8743 H   0  0  0  0  0  0  0  0  0  0  0  0
  143.8344   70.8658  221.0790 H   0  0  0  0  0  0  0  0  0  0  0  0
  145.5087   71.9514  219.6062 H   0  0  0  0  0  0  0  0  0  0  0  0
  145.2276   74.3283  218.8918 H   0  0  0  0  0  0  0  0  0  0  0  0
  143.2164   78.2724  219.3602 H   0  0  0  0  0  0  0  0  0  0  0  0
  140.6553   78.5920  218.3508 H   0  0  0  0  0  0  0  0  0  0  0  0
  142.9607   79.9547  220.9416 H   0  0  0  0  0  0  0  0  0  0  0  0
  142.6568   81.9443  222.3000 H   0  0  0  0  0  0  0  0  0  0  0  0
  140.5226   83.2008  222.2147 H   0  0  0  0  0  0  0  0  0  0  0  0
  138.7170   82.3738  220.7246 H   0  0  0  0  0  0  0  0  0  0  0  0
  139.0265   80.3406  219.3362 H   0  0  0  0  0  0  0  0  0  0  0  0
  139.5170   77.0651  220.4259 H   0  0  0  0  0  0  0  0  0  0  0  0
  139.4815   75.8394  221.8050 H   0  0  0  0  0  0  0  0  0  0  0  0
  142.3040   77.2872  222.7412 H   0  0  0  0  0  0  0  0  0  0  0  0
  142.5296   79.0704  224.4093 H   0  0  0  0  0  0  0  0  0  0  0  0
  140.6178   80.5584  224.9567 H   0  0  0  0  0  0  0  0  0  0  0  0
  138.2399   78.4185  222.1079 H   0  0  0  0  0  0  0  0  0  0  0  0
  1  2  2  0
  2  3  1  0
  3  4  2  0
  4  5  1  0
  5  6  2  0
  6  7  1  0
  7  8  2  0
  8  9  1  0
  9 10  2  0
 10 11  1  0
 11 12  2  0
 12 13  1  0
 13 14  2  0
 14 15  1  0
 15 16  2  0
 16 17  1  0
 17 18  2  0
 10 19  1  0
 19 20  1  0
 20 21  1  0
 21 22  2  0
 22 23  1  0
 23 24  2  0
 24 25  1  0
 25 26  1  0
 25 27  2  0
 19  2  1  0
 27 21  1  0
  8  3  1  0
 18 13  1  0
  4 28  1  0
  5 29  1  0
  6 30  1  0
  7 31  1  0
 11 32  1  0
 12 33  1  0
 14 34  1  0
 15 35  1  0
 16 36  1  0
 17 37  1  0
 18 38  1  0
 20 39  1  0
 20 40  1  0
 22 41  1  0
 23 42  1  0
 24 43  1  0
 27 44  1  0
M  END
>  <smiles>  (19) 
O=c1c2ccccc2nc(/C=C/c2ccccc2)n1Cc1cccc(Cl)c1

>  <score_type>  (19) 
oracle

>  <origin>  (19) 
autodockgpu

>  <m_score__min__energy>  (19) 
-8.0999999999999996

>  <m_primary>  (19) 
energy

>  <meeko>  (19) 
{"free_energy": -6.95, "intermolecular_energy": -8.44, "internal_energy": -2.12, "cluster_size": 8, "cluster_id": 5, "rank_in_cluster": 5}

>  <energy>  (19) 
-6.79

>  <cluster_rmsd>  (19) 
1.21

>  <rmsd>  (19) 
272.18

>  <cluster>  (19) 
5

$$$$

     RDKit          3D

 44 47  0  0  0  0  0  0  0  0999 V2000
  138.9630   67.7600  225.6650 O   0  0  0  0  0  0  0  0  0  0  0  0
  139.2400   68.9510  225.3630 C   0  0  0  0  0  0  0  0  0  0  0  0
  139.9590   69.6760  226.2670 C   0  0  0  0  0  0  0  0  0  0  0  0
  140.3710   69.1320  227.4630 C   0  0  0  0  0  0  0  0  0  0  0  0
  141.0990   69.9500  228.3160 C   0  0  0  0  0  0  0  0  0  0  0  0
  141.3970   71.2710  227.9650 C   0  0  0  0  0  0  0  0  0  0  0  0
  140.9780   71.8040  226.7630 C   0  0  0  0  0  0  0  0  0  0  0  0
  140.2580   70.9700  225.9370 C   0  0  0  0  0  0  0  0  0  0  0  0
  139.8390   71.4430  224.7760 N   0  0  0  0  0  0  0  0  0  0  0  0
  139.1130   70.7450  223.8400 C   0  0  0  0  0  0  0  0  0  0  0  0
  138.7330   71.4870  222.6820 C   0  0  0  0  0  0  0  0  0  0  0  0
  139.1410   72.6090  222.1840 C   0  0  0  0  0  0  0  0  0  0  0  0
  140.4950   72.8420  221.6450 C   0  0  0  0  0  0  0  0  0  0  0  0
  141.3650   71.7550  221.4730 C   0  0  0  0  0  0  0  0  0  0  0  0
  142.6260   71.8780  220.9840 C   0  0  0  0  0  0  0  0  0  0  0  0
  143.1060   73.1030  220.6310 C   0  0  0  0  0  0  0  0  0  0  0  0
  142.2750   74.1930  220.7890 C   0  0  0  0  0  0  0  0  0  0  0  0
  140.9750   74.0610  221.2930 C   0  0  0  0  0  0  0  0  0  0  0  0
  138.8240   69.4890  224.1610 N   0  0  0  0  0  0  0  0  0  0  0  0
  138.0910   68.5710  223.3370 C   0  0  0  0  0  0  0  0  0  0  0  0
  138.8670   67.8760  222.3110 C   0  0  0  0  0  0  0  0  0  0  0  0
  139.0140   66.5050  222.2050 C   0  0  0  0  0  0  0  0  0  0  0  0
  139.7840   65.9030  221.2220 C   0  0  0  0  0  0  0  0  0  0  0  0
  140.4530   66.6480  220.2850 C   0  0  0  0  0  0  0  0  0  0  0  0
  140.3260   68.0170  220.3630 C   0  0  0  0  0  0  0  0  0  0  0  0
  141.1470   69.0570  219.2030 Cl  0  0  0  0  0  0  0  0  0  0  0  0
  139.5630   68.6030  221.3380 C   0  0  0  0  0  0  0  0  0  0  0  0
  140.1330   68.0921  227.7314 H   0  0  0  0  0  0  0  0  0  0  0  0
  141.4465   69.5539  229.2816 H   0  0  0  0  0  0  0  0  0  0  0  0
  141.9762   71.8966  228.6601 H   0  0  0  0  0  0  0  0  0  0  0  0
  141.2074   72.8417  226.4793 H   0  0  0  0  0  0  0  0  0  0  0  0
  137.9338   71.0098  222.0959 H   0  0  0  0  0  0  0  0  0  0  0  0
  138.4295   73.4475  222.1607 H   0  0  0  0  0  0  0  0  0  0  0  0
  141.0075   70.7518  221.7483 H   0  0  0  0  0  0  0  0  0  0  0  0
  143.2610   70.9867  220.8727 H   0  0  0  0  0  0  0  0  0  0  0  0
  144.1246   73.2196  220.2323 H   0  0  0  0  0  0  0  0  0  0  0  0
  142.6431   75.1918  220.5119 H   0  0  0  0  0  0  0  0  0  0  0  0
  140.3390   74.9516  221.4042 H   0  0  0  0  0  0  0  0  0  0  0  0
  137.6438   67.8108  223.9944 H   0  0  0  0  0  0  0  0  0  0  0  0
  137.3554   69.1811  222.7924 H   0  0  0  0  0  0  0  0  0  0  0  0
  138.4967   65.8634  222.9335 H   0  0  0  0  0  0  0  0  0  0  0  0
  139.8599   64.8060  221.1930 H   0  0  0  0  0  0  0  0  0  0  0  0
  141.0650   66.1724  219.5044 H   0  0  0  0  0  0  0  0  0  0  0  0
  139.4936   69.7006  221.3574 H   0  0  0  0  0  0  0  0  0  0  0  0
  1  2  2  0
  2  3  1  0
  3  4  2  0
  4  5  1  0
  5  6  2  0
  6  7  1  0
  7  8  2  0
  8  9  1  0
  9 10  2  0
 10 11  1  0
 11 12  2  0
 12 13  1  0
 13 14  2  0
 14 15  1  0
 15 16  2  0
 16 17  1  0
 17 18  2  0
 10 19  1  0
 19 20  1  0
 20 21  1  0
 21 22  2  0
 22 23  1  0
 23 24  2  0
 24 25  1  0
 25 26  1  0
 25 27  2  0
 19  2  1  0
 27 21  1  0
  8  3  1  0
 18 13  1  0
  4 28  1  0
  5 29  1  0
  6 30  1  0
  7 31  1  0
 11 32  1  0
 12 33  1  0
 14 34  1  0
 15 35  1  0
 16 36  1  0
 17 37  1  0
 18 38  1  0
 20 39  1  0
 20 40  1  0
 22 41  1  0
 23 42  1  0
 24 43  1  0
 27 44  1  0
M  END
>  <smiles>  (20) 
O=c1c2ccccc2nc(/C=C/c2ccccc2)n1Cc1cccc(Cl)c1

>  <score_type>  (20) 
oracle

>  <origin>  (20) 
autodockgpu

>  <m_score__min__energy>  (20) 
-8.0999999999999996

>  <m_primary>  (20) 
energy

>  <meeko>  (20) 
{"free_energy": -7.37, "intermolecular_energy": -8.86, "internal_energy": -1.74, "cluster_size": 2, "cluster_id": 4, "rank_in_cluster": 2}

>  <energy>  (20) 
-6.79

>  <cluster_rmsd>  (20) 
0.73

>  <rmsd>  (20) 
272.53

>  <cluster>  (20) 
5

$$$$
