
     RDKit          3D

 44 48  0  0  1  0  0  0  0  0999 V2000
  141.8660   73.9010  220.9860 C   0  0  0  0  0  0  0  0  0  0  0  0
  140.6710   74.0940  221.6770 C   0  0  0  0  0  0  0  0  0  0  0  0
  139.9740   72.9910  222.1180 C   0  0  0  0  0  0  0  0  0  0  0  0
  140.4120   71.7040  221.9010 C   0  0  0  0  0  0  0  0  0  0  0  0
  139.7170   70.4910  222.3540 C   0  0  0  0  0  0  0  0  0  0  0  0
  138.8080   70.7330  223.4470 N   0  0  0  0  0  0  0  0  0  0  0  0
  137.6540   71.4620  222.9130 C   0  0  0  0  0  0  0  0  0  0  0  0
  136.5270   71.0610  223.8100 C   0  0  0  0  0  0  0  0  0  0  0  0
  135.3090   71.6570  224.0550 C   0  0  0  0  0  0  0  0  0  0  0  0
  134.4770   71.0270  224.9570 C   0  0  0  0  0  0  0  0  0  0  0  0
  134.8350   69.8500  225.5980 C   0  0  0  0  0  0  0  0  0  0  0  0
  136.0750   69.2790  225.3250 C   0  0  0  0  0  0  0  0  0  0  0  0
  136.9410   69.8930  224.4140 C   0  0  0  0  0  0  0  0  0  0  0  0
  138.3000   69.4980  223.9460 C   0  0  2  0  0  0  0  0  0  0  0  0
  139.0200   69.0060  225.1440 C   0  0  0  0  0  0  0  0  0  0  0  0
  139.1520   67.7430  225.6110 N   0  0  0  0  0  0  0  0  0  0  0  0
  139.8630   67.7080  226.7000 N   0  0  0  0  0  0  0  0  0  0  0  0
  140.2340   68.9790  226.9970 C   0  0  0  0  0  0  0  0  0  0  0  0
  140.9800   69.5460  228.0090 C   0  0  0  0  0  0  0  0  0  0  0  0
  141.2250   70.9070  228.0940 C   0  0  0  0  0  0  0  0  0  0  0  0
  140.7010   71.7340  227.1220 C   0  0  0  0  0  0  0  0  0  0  0  0
  139.9590   71.1790  226.1120 C   0  0  0  0  0  0  0  0  0  0  0  0
  139.7050   69.8230  226.0160 C   0  0  0  0  0  0  0  0  0  0  0  0
  141.5980   71.5480  221.2130 C   0  0  0  0  0  0  0  0  0  0  0  0
  142.3280   72.6240  220.7540 C   0  0  0  0  0  0  0  0  0  0  0  0
  142.4398   74.7677  220.6261 H   0  0  0  0  0  0  0  0  0  0  0  0
  140.2915   75.1089  221.8667 H   0  0  0  0  0  0  0  0  0  0  0  0
  139.0316   73.1442  222.6643 H   0  0  0  0  0  0  0  0  0  0  0  0
  139.1461   70.0787  221.5090 H   0  0  0  0  0  0  0  0  0  0  0  0
  140.4838   69.7899  222.7151 H   0  0  0  0  0  0  0  0  0  0  0  0
  137.8224   72.5481  222.9582 H   0  0  0  0  0  0  0  0  0  0  0  0
  137.4578   71.2288  221.8561 H   0  0  0  0  0  0  0  0  0  0  0  0
  135.0140   72.5912  223.5548 H   0  0  0  0  0  0  0  0  0  0  0  0
  133.4957   71.4734  225.1756 H   0  0  0  0  0  0  0  0  0  0  0  0
  134.1478   69.3739  226.3129 H   0  0  0  0  0  0  0  0  0  0  0  0
  136.3735   68.3459  225.8252 H   0  0  0  0  0  0  0  0  0  0  0  0
  138.3686   68.7086  223.1831 H   0  0  0  0  0  0  0  0  0  0  0  0
  140.0930   66.8430  227.2320 H   0  0  0  0  0  0  0  0  0  0  0  0
  141.3996   68.8877  228.7840 H   0  0  0  0  0  0  0  0  0  0  0  0
  141.8246   71.3194  228.9189 H   0  0  0  0  0  0  0  0  0  0  0  0
  140.8756   72.8195  227.1569 H   0  0  0  0  0  0  0  0  0  0  0  0
  139.5454   71.8447  225.3401 H   0  0  0  0  0  0  0  0  0  0  0  0
  141.9736   70.5314  221.0245 H   0  0  0  0  0  0  0  0  0  0  0  0
  143.2696   72.4644  220.2082 H   0  0  0  0  0  0  0  0  0  0  0  0
  1  2  2  0
  2  3  1  0
  3  4  2  0
  4  5  1  0
  5  6  1  0
  6  7  1  0
  7  8  1  0
  8  9  2  0
  9 10  1  0
 10 11  2  0
 11 12  1  0
 12 13  2  0
 13 14  1  0
 14 15  1  0
 15 16  2  0
 16 17  1  0
 17 18  1  0
 18 19  2  0
 19 20  1  0
 20 21  2  0
 21 22  1  0
 22 23  2  0
  4 24  1  0
 24 25  2  0
 25  1  1  0
 14  6  1  0
 23 15  1  0
 13  8  1  0
 23 18  1  0
  1 26  1  0
  2 27  1  0
  3 28  1  0
  5 29  1  0
  5 30  1  0
  7 31  1  0
  7 32  1  0
  9 33  1  0
 10 34  1  0
 11 35  1  0
 12 36  1  0
 14 37  1  6
 17 38  1  0
 19 39  1  0
 20 40  1  0
 21 41  1  0
 22 42  1  0
 24 43  1  0
 25 44  1  0
M  END
>  <smiles>  (1) 
c1ccc(CN2Cc3ccccc3C2c2n[nH]c3ccccc23)cc1

>  <score_type>  (1) 
oracle

>  <origin>  (1) 
autodockgpu

>  <m_score__min__energy>  (1) 
-8.1199999999999992

>  <m_primary>  (1) 
energy

>  <meeko>  (1) 
{"free_energy": -8.12, "intermolecular_energy": -9.01, "internal_energy": -1.18, "cluster_size": 13, "cluster_id": 1, "rank_in_cluster": 1}

>  <energy>  (1) 
-8.12

>  <cluster_rmsd>  (1) 
0.0

>  <rmsd>  (1) 
271.93

>  <cluster>  (1) 
1

$$$$

     RDKit          3D

 44 48  0  0  1  0  0  0  0  0999 V2000
  141.9110   73.8660  220.9000 C   0  0  0  0  0  0  0  0  0  0  0  0
  140.7960   74.0720  221.7100 C   0  0  0  0  0  0  0  0  0  0  0  0
  140.1010   72.9770  222.1750 C   0  0  0  0  0  0  0  0  0  0  0  0
  140.4680   71.6850  221.8710 C   0  0  0  0  0  0  0  0  0  0  0  0
  139.7740   70.4800  222.3440 C   0  0  0  0  0  0  0  0  0  0  0  0
  138.8670   70.7400  223.4340 N   0  0  0  0  0  0  0  0  0  0  0  0
  137.7220   71.4780  222.8940 C   0  0  0  0  0  0  0  0  0  0  0  0
  136.5890   71.0960  223.7940 C   0  0  0  0  0  0  0  0  0  0  0  0
  135.3780   71.7070  224.0330 C   0  0  0  0  0  0  0  0  0  0  0  0
  134.5390   71.0930  224.9390 C   0  0  0  0  0  0  0  0  0  0  0  0
  134.8820   69.9170  225.5870 C   0  0  0  0  0  0  0  0  0  0  0  0
  136.1160   69.3300  225.3190 C   0  0  0  0  0  0  0  0  0  0  0  0
  136.9890   69.9270  224.4060 C   0  0  0  0  0  0  0  0  0  0  0  0
  138.3440   69.5140  223.9420 C   0  0  2  0  0  0  0  0  0  0  0  0
  139.0570   69.0220  225.1430 C   0  0  0  0  0  0  0  0  0  0  0  0
  139.1970   67.7570  225.6040 N   0  0  0  0  0  0  0  0  0  0  0  0
  139.8980   67.7220  226.7000 N   0  0  0  0  0  0  0  0  0  0  0  0
  140.2540   68.9950  227.0070 C   0  0  0  0  0  0  0  0  0  0  0  0
  140.9850   69.5630  228.0300 C   0  0  0  0  0  0  0  0  0  0  0  0
  141.2150   70.9260  228.1250 C   0  0  0  0  0  0  0  0  0  0  0  0
  140.6930   71.7540  227.1530 C   0  0  0  0  0  0  0  0  0  0  0  0
  139.9650   71.1980  226.1330 C   0  0  0  0  0  0  0  0  0  0  0  0
  139.7270   69.8400  226.0260 C   0  0  0  0  0  0  0  0  0  0  0  0
  141.5780   71.5170  221.0670 C   0  0  0  0  0  0  0  0  0  0  0  0
  142.3010   72.5830  220.5800 C   0  0  0  0  0  0  0  0  0  0  0  0
  142.4793   74.7261  220.5163 H   0  0  0  0  0  0  0  0  0  0  0  0
  140.4763   75.0910  221.9736 H   0  0  0  0  0  0  0  0  0  0  0  0
  139.2200   73.1409  222.8129 H   0  0  0  0  0  0  0  0  0  0  0  0
  139.2018   70.0543  221.5065 H   0  0  0  0  0  0  0  0  0  0  0  0
  140.5412   69.7844  222.7149 H   0  0  0  0  0  0  0  0  0  0  0  0
  137.9027   72.5624  222.9314 H   0  0  0  0  0  0  0  0  0  0  0  0
  137.5237   71.2394  221.8386 H   0  0  0  0  0  0  0  0  0  0  0  0
  135.0936   72.6405  223.5253 H   0  0  0  0  0  0  0  0  0  0  0  0
  133.5633   71.5528  225.1549 H   0  0  0  0  0  0  0  0  0  0  0  0
  134.1884   69.4532  226.3038 H   0  0  0  0  0  0  0  0  0  0  0  0
  136.4033   68.3969  225.8258 H   0  0  0  0  0  0  0  0  0  0  0  0
  138.4042   68.7187  223.1844 H   0  0  0  0  0  0  0  0  0  0  0  0
  140.1310   66.8560  227.2280 H   0  0  0  0  0  0  0  0  0  0  0  0
  141.4040   68.9042  228.8049 H   0  0  0  0  0  0  0  0  0  0  0  0
  141.8019   71.3394  228.9585 H   0  0  0  0  0  0  0  0  0  0  0  0
  140.8579   72.8407  227.1955 H   0  0  0  0  0  0  0  0  0  0  0  0
  139.5501   71.8644  225.3624 H   0  0  0  0  0  0  0  0  0  0  0  0
  141.8956   70.4966  220.8066 H   0  0  0  0  0  0  0  0  0  0  0  0
  143.1808   72.4126  219.9421 H   0  0  0  0  0  0  0  0  0  0  0  0
  1  2  2  0
  2  3  1  0
  3  4  2  0
  4  5  1  0
  5  6  1  0
  6  7  1  0
  7  8  1  0
  8  9  2  0
  9 10  1  0
 10 11  2  0
 11 12  1  0
 12 13  2  0
 13 14  1  0
 14 15  1  0
 15 16  2  0
 16 17  1  0
 17 18  1  0
 18 19  2  0
 19 20  1  0
 20 21  2  0
 21 22  1  0
 22 23  2  0
  4 24  1  0
 24 25  2  0
 25  1  1  0
 14  6  1  0
 23 15  1  0
 13  8  1  0
 23 18  1  0
  1 26  1  0
  2 27  1  0
  3 28  1  0
  5 29  1  0
  5 30  1  0
  7 31  1  0
  7 32  1  0
  9 33  1  0
 10 34  1  0
 11 35  1  0
 12 36  1  0
 14 37  1  6
 17 38  1  0
 19 39  1  0
 20 40  1  0
 21 41  1  0
 22 42  1  0
 24 43  1  0
 25 44  1  0
M  END
>  <smiles>  (2) 
c1ccc(CN2Cc3ccccc3C2c2n[nH]c3ccccc23)cc1

>  <score_type>  (2) 
oracle

>  <origin>  (2) 
autodockgpu

>  <m_score__min__energy>  (2) 
-8.1199999999999992

>  <m_primary>  (2) 
energy

>  <meeko>  (2) 
{"free_energy": -8.1, "intermolecular_energy": -8.99, "internal_energy": -1.2, "cluster_size": 13, "cluster_id": 1, "rank_in_cluster": 7}

>  <energy>  (2) 
-8.11

>  <cluster_rmsd>  (2) 
1.4

>  <rmsd>  (2) 
272.06

>  <cluster>  (2) 
1

$$$$

     RDKit          3D

 44 48  0  0  1  0  0  0  0  0999 V2000
  141.9520   73.7860  220.8320 C   0  0  0  0  0  0  0  0  0  0  0  0
  140.9970   73.9870  221.8280 C   0  0  0  0  0  0  0  0  0  0  0  0
  140.3080   72.8990  222.3160 C   0  0  0  0  0  0  0  0  0  0  0  0
  140.5260   71.6190  221.8580 C   0  0  0  0  0  0  0  0  0  0  0  0
  139.8300   70.4210  222.3460 C   0  0  0  0  0  0  0  0  0  0  0  0
  138.9180   70.6970  223.4280 N   0  0  0  0  0  0  0  0  0  0  0  0
  137.7890   71.4520  222.8780 C   0  0  0  0  0  0  0  0  0  0  0  0
  136.6440   71.0890  223.7690 C   0  0  0  0  0  0  0  0  0  0  0  0
  135.4410   71.7200  223.9980 C   0  0  0  0  0  0  0  0  0  0  0  0
  134.5840   71.1200  224.8980 C   0  0  0  0  0  0  0  0  0  0  0  0
  134.9040   69.9390  225.5500 C   0  0  0  0  0  0  0  0  0  0  0  0
  136.1300   69.3330  225.2930 C   0  0  0  0  0  0  0  0  0  0  0  0
  137.0210   69.9150  224.3860 C   0  0  0  0  0  0  0  0  0  0  0  0
  138.3720   69.4800  223.9330 C   0  0  2  0  0  0  0  0  0  0  0  0
  139.0680   68.9780  225.1410 C   0  0  0  0  0  0  0  0  0  0  0  0
  139.1960   67.7110  225.5980 N   0  0  0  0  0  0  0  0  0  0  0  0
  139.8820   67.6670  226.7020 N   0  0  0  0  0  0  0  0  0  0  0  0
  140.2410   68.9360  227.0200 C   0  0  0  0  0  0  0  0  0  0  0  0
  140.9630   69.4960  228.0540 C   0  0  0  0  0  0  0  0  0  0  0  0
  141.2000   70.8570  228.1580 C   0  0  0  0  0  0  0  0  0  0  0  0
  140.6930   71.6920  227.1840 C   0  0  0  0  0  0  0  0  0  0  0  0
  139.9760   71.1450  226.1520 C   0  0  0  0  0  0  0  0  0  0  0  0
  139.7310   69.7880  226.0360 C   0  0  0  0  0  0  0  0  0  0  0  0
  141.4790   71.4550  220.8720 C   0  0  0  0  0  0  0  0  0  0  0  0
  142.1910   72.5150  220.3560 C   0  0  0  0  0  0  0  0  0  0  0  0
  142.5137   74.6406  220.4269 H   0  0  0  0  0  0  0  0  0  0  0  0
  140.7976   74.9964  222.2169 H   0  0  0  0  0  0  0  0  0  0  0  0
  139.5548   73.0587  223.1016 H   0  0  0  0  0  0  0  0  0  0  0  0
  139.2616   69.9827  221.5125 H   0  0  0  0  0  0  0  0  0  0  0  0
  140.5956   69.7313  222.7308 H   0  0  0  0  0  0  0  0  0  0  0  0
  137.9863   72.5335  222.9155 H   0  0  0  0  0  0  0  0  0  0  0  0
  137.5954   71.2153  221.8214 H   0  0  0  0  0  0  0  0  0  0  0  0
  135.1761   72.6577  223.4876 H   0  0  0  0  0  0  0  0  0  0  0  0
  133.6137   71.5950  225.1052 H   0  0  0  0  0  0  0  0  0  0  0  0
  134.1976   69.4867  226.2616 H   0  0  0  0  0  0  0  0  0  0  0  0
  136.3982   68.3962  225.8033 H   0  0  0  0  0  0  0  0  0  0  0  0
  138.4256   68.6830  223.1768 H   0  0  0  0  0  0  0  0  0  0  0  0
  140.1050   66.7970  227.2290 H   0  0  0  0  0  0  0  0  0  0  0  0
  141.3688   68.8316  228.8311 H   0  0  0  0  0  0  0  0  0  0  0  0
  141.7803   71.2633  228.9996 H   0  0  0  0  0  0  0  0  0  0  0  0
  140.8612   72.7779  227.2348 H   0  0  0  0  0  0  0  0  0  0  0  0
  139.5760   71.8171  225.3785 H   0  0  0  0  0  0  0  0  0  0  0  0
  141.6760   70.4440  220.4859 H   0  0  0  0  0  0  0  0  0  0  0  0
  142.9435   72.3486  219.5711 H   0  0  0  0  0  0  0  0  0  0  0  0
  1  2  2  0
  2  3  1  0
  3  4  2  0
  4  5  1  0
  5  6  1  0
  6  7  1  0
  7  8  1  0
  8  9  2  0
  9 10  1  0
 10 11  2  0
 11 12  1  0
 12 13  2  0
 13 14  1  0
 14 15  1  0
 15 16  2  0
 16 17  1  0
 17 18  1  0
 18 19  2  0
 19 20  1  0
 20 21  2  0
 21 22  1  0
 22 23  2  0
  4 24  1  0
 24 25  2  0
 25  1  1  0
 14  6  1  0
 23 15  1  0
 13  8  1  0
 23 18  1  0
  1 26  1  0
  2 27  1  0
  3 28  1  0
  5 29  1  0
  5 30  1  0
  7 31  1  0
  7 32  1  0
  9 33  1  0
 10 34  1  0
 11 35  1  0
 12 36  1  0
 14 37  1  6
 17 38  1  0
 19 39  1  0
 20 40  1  0
 21 41  1  0
 22 42  1  0
 24 43  1  0
 25 44  1  0
M  END
>  <smiles>  (3) 
c1ccc(CN2Cc3ccccc3C2c2n[nH]c3ccccc23)cc1

>  <score_type>  (3) 
oracle

>  <origin>  (3) 
autodockgpu

>  <m_score__min__energy>  (3) 
-8.1199999999999992

>  <m_primary>  (3) 
energy

>  <meeko>  (3) 
{"free_energy": -8.02, "intermolecular_energy": -8.91, "internal_energy": -1.27, "cluster_size": 13, "cluster_id": 1, "rank_in_cluster": 9}

>  <energy>  (3) 
-8.11

>  <cluster_rmsd>  (3) 
0.03

>  <rmsd>  (3) 
271.94

>  <cluster>  (3) 
1

$$$$

     RDKit          3D

 44 48  0  0  1  0  0  0  0  0999 V2000
  141.8450   73.9360  221.0120 C   0  0  0  0  0  0  0  0  0  0  0  0
  140.6680   74.1260  221.7330 C   0  0  0  0  0  0  0  0  0  0  0  0
  139.9700   73.0210  222.1690 C   0  0  0  0  0  0  0  0  0  0  0  0
  140.3910   71.7340  221.9200 C   0  0  0  0  0  0  0  0  0  0  0  0
  139.6960   70.5200  222.3650 C   0  0  0  0  0  0  0  0  0  0  0  0
  138.7890   70.7560  223.4620 N   0  0  0  0  0  0  0  0  0  0  0  0
  137.6330   71.4870  222.9350 C   0  0  0  0  0  0  0  0  0  0  0  0
  136.5090   71.0800  223.8350 C   0  0  0  0  0  0  0  0  0  0  0  0
  135.2920   71.6740  224.0860 C   0  0  0  0  0  0  0  0  0  0  0  0
  134.4630   71.0390  224.9880 C   0  0  0  0  0  0  0  0  0  0  0  0
  134.8230   69.8600  225.6210 C   0  0  0  0  0  0  0  0  0  0  0  0
  136.0630   69.2910  225.3420 C   0  0  0  0  0  0  0  0  0  0  0  0
  136.9260   69.9100  224.4320 C   0  0  0  0  0  0  0  0  0  0  0  0
  138.2840   69.5180  223.9570 C   0  0  2  0  0  0  0  0  0  0  0  0
  139.0080   69.0210  225.1510 C   0  0  0  0  0  0  0  0  0  0  0  0
  139.1370   67.7570  225.6150 N   0  0  0  0  0  0  0  0  0  0  0  0
  139.8530   67.7170  226.7000 N   0  0  0  0  0  0  0  0  0  0  0  0
  140.2310   68.9850  226.9970 C   0  0  0  0  0  0  0  0  0  0  0  0
  140.9860   69.5470  228.0060 C   0  0  0  0  0  0  0  0  0  0  0  0
  141.2370   70.9080  228.0920 C   0  0  0  0  0  0  0  0  0  0  0  0
  140.7120   71.7390  227.1240 C   0  0  0  0  0  0  0  0  0  0  0  0
  139.9610   71.1890  226.1170 C   0  0  0  0  0  0  0  0  0  0  0  0
  139.7020   69.8330  226.0200 C   0  0  0  0  0  0  0  0  0  0  0  0
  141.5610   71.5810  221.2030 C   0  0  0  0  0  0  0  0  0  0  0  0
  142.2900   72.6580  220.7480 C   0  0  0  0  0  0  0  0  0  0  0  0
  142.4181   74.8040  220.6540 H   0  0  0  0  0  0  0  0  0  0  0  0
  140.3024   75.1405  221.9503 H   0  0  0  0  0  0  0  0  0  0  0  0
  139.0408   73.1729  222.7378 H   0  0  0  0  0  0  0  0  0  0  0  0
  139.1229   70.1146  221.5182 H   0  0  0  0  0  0  0  0  0  0  0  0
  140.4624   69.8150  222.7194 H   0  0  0  0  0  0  0  0  0  0  0  0
  137.8007   72.5730  222.9849 H   0  0  0  0  0  0  0  0  0  0  0  0
  137.4333   71.2595  221.8775 H   0  0  0  0  0  0  0  0  0  0  0  0
  134.9950   72.6103  223.5909 H   0  0  0  0  0  0  0  0  0  0  0  0
  133.4824   71.4841  225.2124 H   0  0  0  0  0  0  0  0  0  0  0  0
  134.1378   69.3796  226.3349 H   0  0  0  0  0  0  0  0  0  0  0  0
  136.3634   68.3556  225.8368 H   0  0  0  0  0  0  0  0  0  0  0  0
  138.3512   68.7323  223.1900 H   0  0  0  0  0  0  0  0  0  0  0  0
  140.0820   66.8500  227.2290 H   0  0  0  0  0  0  0  0  0  0  0  0
  141.4078   68.8855  228.7770 H   0  0  0  0  0  0  0  0  0  0  0  0
  141.8420   71.3165  228.9148 H   0  0  0  0  0  0  0  0  0  0  0  0
  140.8926   72.8235  227.1593 H   0  0  0  0  0  0  0  0  0  0  0  0
  139.5444   71.8578  225.3494 H   0  0  0  0  0  0  0  0  0  0  0  0
  141.9234   70.5649  220.9878 H   0  0  0  0  0  0  0  0  0  0  0  0
  143.2183   72.4997  220.1795 H   0  0  0  0  0  0  0  0  0  0  0  0
  1  2  2  0
  2  3  1  0
  3  4  2  0
  4  5  1  0
  5  6  1  0
  6  7  1  0
  7  8  1  0
  8  9  2  0
  9 10  1  0
 10 11  2  0
 11 12  1  0
 12 13  2  0
 13 14  1  0
 14 15  1  0
 15 16  2  0
 16 17  1  0
 17 18  1  0
 18 19  2  0
 19 20  1  0
 20 21  2  0
 21 22  1  0
 22 23  2  0
  4 24  1  0
 24 25  2  0
 25  1  1  0
 14  6  1  0
 23 15  1  0
 13  8  1  0
 23 18  1  0
  1 26  1  0
  2 27  1  0
  3 28  1  0
  5 29  1  0
  5 30  1  0
  7 31  1  0
  7 32  1  0
  9 33  1  0
 10 34  1  0
 11 35  1  0
 12 36  1  0
 14 37  1  6
 17 38  1  0
 19 39  1  0
 20 40  1  0
 21 41  1  0
 22 42  1  0
 24 43  1  0
 25 44  1  0
M  END
>  <smiles>  (4) 
c1ccc(CN2Cc3ccccc3C2c2n[nH]c3ccccc23)cc1

>  <score_type>  (4) 
oracle

>  <origin>  (4) 
autodockgpu

>  <m_score__min__energy>  (4) 
-8.1199999999999992

>  <m_primary>  (4) 
energy

>  <meeko>  (4) 
{"free_energy": -8.11, "intermolecular_energy": -9.0, "internal_energy": -1.19, "cluster_size": 13, "cluster_id": 1, "rank_in_cluster": 5}

>  <energy>  (4) 
-8.11

>  <cluster_rmsd>  (4) 
0.05

>  <rmsd>  (4) 
271.92

>  <cluster>  (4) 
1

$$$$

     RDKit          3D

 44 48  0  0  1  0  0  0  0  0999 V2000
  142.1940   81.5710  223.7700 C   0  0  0  0  0  0  0  0  0  0  0  0
  141.5300   81.6980  222.5510 C   0  0  0  0  0  0  0  0  0  0  0  0
  141.2730   80.5640  221.8130 C   0  0  0  0  0  0  0  0  0  0  0  0
  141.6460   79.3070  222.2340 C   0  0  0  0  0  0  0  0  0  0  0  0
  141.3920   78.0630  221.4960 C   0  0  0  0  0  0  0  0  0  0  0  0
  140.4490   77.1950  222.1570 N   0  0  0  0  0  0  0  0  0  0  0  0
  139.2750   77.9990  222.5090 C   0  0  0  0  0  0  0  0  0  0  0  0
  138.1480   77.0170  222.4970 C   0  0  0  0  0  0  0  0  0  0  0  0
  136.8990   77.0660  223.0770 C   0  0  0  0  0  0  0  0  0  0  0  0
  136.0760   75.9770  222.8780 C   0  0  0  0  0  0  0  0  0  0  0  0
  136.4720   74.8770  222.1330 C   0  0  0  0  0  0  0  0  0  0  0  0
  137.7420   74.8640  221.5640 C   0  0  0  0  0  0  0  0  0  0  0  0
  138.6000   75.9530  221.7470 C   0  0  0  0  0  0  0  0  0  0  0  0
  139.9850   76.1940  221.2530 C   0  0  2  0  0  0  0  0  0  0  0  0
  140.6990   74.9030  221.3870 C   0  0  0  0  0  0  0  0  0  0  0  0
  140.3130   73.7660  222.0110 N   0  0  0  0  0  0  0  0  0  0  0  0
  141.2180   72.8360  221.9130 N   0  0  0  0  0  0  0  0  0  0  0  0
  142.2580   73.3400  221.2030 C   0  0  0  0  0  0  0  0  0  0  0  0
  143.4720   72.8290  220.7910 C   0  0  0  0  0  0  0  0  0  0  0  0
  144.3880   73.5630  220.0550 C   0  0  0  0  0  0  0  0  0  0  0  0
  144.0740   74.8630  219.7170 C   0  0  0  0  0  0  0  0  0  0  0  0
  142.8710   75.3790  220.1220 C   0  0  0  0  0  0  0  0  0  0  0  0
  141.9470   74.6580  220.8580 C   0  0  0  0  0  0  0  0  0  0  0  0
  142.3020   79.2170  223.4460 C   0  0  0  0  0  0  0  0  0  0  0  0
  142.5790   80.3250  224.2160 C   0  0  0  0  0  0  0  0  0  0  0  0
  142.4104   82.4638  224.3751 H   0  0  0  0  0  0  0  0  0  0  0  0
  141.2167   82.6868  222.1848 H   0  0  0  0  0  0  0  0  0  0  0  0
  140.7499   80.6662  220.8507 H   0  0  0  0  0  0  0  0  0  0  0  0
  140.9946   78.3201  220.5030 H   0  0  0  0  0  0  0  0  0  0  0  0
  142.3465   77.5203  221.4300 H   0  0  0  0  0  0  0  0  0  0  0  0
  139.3927   78.4471  223.5067 H   0  0  0  0  0  0  0  0  0  0  0  0
  139.1131   78.8381  221.8164 H   0  0  0  0  0  0  0  0  0  0  0  0
  136.5735   77.9329  223.6708 H   0  0  0  0  0  0  0  0  0  0  0  0
  135.0713   75.9816  223.3257 H   0  0  0  0  0  0  0  0  0  0  0  0
  135.7907   74.0248  221.9933 H   0  0  0  0  0  0  0  0  0  0  0  0
  138.0706   73.9979  220.9708 H   0  0  0  0  0  0  0  0  0  0  0  0
  140.1057   76.5215  220.2099 H   0  0  0  0  0  0  0  0  0  0  0  0
  141.1330   71.8810  222.3180 H   0  0  0  0  0  0  0  0  0  0  0  0
  143.7237   71.7923  221.0590 H   0  0  0  0  0  0  0  0  0  0  0  0
  145.3457   73.1184  219.7466 H   0  0  0  0  0  0  0  0  0  0  0  0
  144.7771   75.4747  219.1326 H   0  0  0  0  0  0  0  0  0  0  0  0
  142.6279   76.4165  219.8489 H   0  0  0  0  0  0  0  0  0  0  0  0
  142.6140   78.2265  223.8088 H   0  0  0  0  0  0  0  0  0  0  0  0
  143.1023   80.2165  225.1774 H   0  0  0  0  0  0  0  0  0  0  0  0
  1  2  2  0
  2  3  1  0
  3  4  2  0
  4  5  1  0
  5  6  1  0
  6  7  1  0
  7  8  1  0
  8  9  2  0
  9 10  1  0
 10 11  2  0
 11 12  1  0
 12 13  2  0
 13 14  1  0
 14 15  1  0
 15 16  2  0
 16 17  1  0
 17 18  1  0
 18 19  2  0
 19 20  1  0
 20 21  2  0
 21 22  1  0
 22 23  2  0
  4 24  1  0
 24 25  2  0
 25  1  1  0
 14  6  1  0
 23 15  1  0
 13  8  1  0
 23 18  1  0
  1 26  1  0
  2 27  1  0
  3 28  1  0
  5 29  1  0
  5 30  1  0
  7 31  1  0
  7 32  1  0
  9 33  1  0
 10 34  1  0
 11 35  1  0
 12 36  1  0
 14 37  1  6
 17 38  1  0
 19 39  1  0
 20 40  1  0
 21 41  1  0
 22 42  1  0
 24 43  1  0
 25 44  1  0
M  END
>  <smiles>  (5) 
c1ccc(CN2Cc3ccccc3C2c2n[nH]c3ccccc23)cc1

>  <score_type>  (5) 
oracle

>  <origin>  (5) 
autodockgpu

>  <m_score__min__energy>  (5) 
-8.1199999999999992

>  <m_primary>  (5) 
energy

>  <meeko>  (5) 
{"free_energy": -7.53, "intermolecular_energy": -8.43, "internal_energy": -1.11, "cluster_size": 5, "cluster_id": 3, "rank_in_cluster": 2}

>  <energy>  (5) 
-8.11

>  <cluster_rmsd>  (5) 
0.03

>  <rmsd>  (5) 
271.94

>  <cluster>  (5) 
1

$$$$

     RDKit          3D

 44 48  0  0  1  0  0  0  0  0999 V2000
  141.8870   73.9230  220.9480 C   0  0  0  0  0  0  0  0  0  0  0  0
  140.7030   74.1140  221.6580 C   0  0  0  0  0  0  0  0  0  0  0  0
  140.0090   73.0090  222.1020 C   0  0  0  0  0  0  0  0  0  0  0  0
  140.4420   71.7230  221.8720 C   0  0  0  0  0  0  0  0  0  0  0  0
  139.7520   70.5090  222.3270 C   0  0  0  0  0  0  0  0  0  0  0  0
  138.8380   70.7510  223.4170 N   0  0  0  0  0  0  0  0  0  0  0  0
  137.6830   71.4730  222.8770 C   0  0  0  0  0  0  0  0  0  0  0  0
  136.5550   71.0700  223.7730 C   0  0  0  0  0  0  0  0  0  0  0  0
  135.3340   71.6610  224.0120 C   0  0  0  0  0  0  0  0  0  0  0  0
  134.5030   71.0320  224.9150 C   0  0  0  0  0  0  0  0  0  0  0  0
  134.8630   69.8590  225.5600 C   0  0  0  0  0  0  0  0  0  0  0  0
  136.1070   69.2920  225.2930 C   0  0  0  0  0  0  0  0  0  0  0  0
  136.9720   69.9060  224.3830 C   0  0  0  0  0  0  0  0  0  0  0  0
  138.3340   69.5160  223.9200 C   0  0  2  0  0  0  0  0  0  0  0  0
  139.0530   69.0310  225.1210 C   0  0  0  0  0  0  0  0  0  0  0  0
  139.1950   67.7700  225.5900 N   0  0  0  0  0  0  0  0  0  0  0  0
  139.9010   67.7430  226.6820 N   0  0  0  0  0  0  0  0  0  0  0  0
  140.2590   69.0170  226.9800 C   0  0  0  0  0  0  0  0  0  0  0  0
  140.9940   69.5920  227.9950 C   0  0  0  0  0  0  0  0  0  0  0  0
  141.2260   70.9560  228.0800 C   0  0  0  0  0  0  0  0  0  0  0  0
  140.6990   71.7770  227.1050 C   0  0  0  0  0  0  0  0  0  0  0  0
  139.9660   71.2140  226.0920 C   0  0  0  0  0  0  0  0  0  0  0  0
  139.7270   69.8550  225.9950 C   0  0  0  0  0  0  0  0  0  0  0  0
  141.6180   71.5690  221.1650 C   0  0  0  0  0  0  0  0  0  0  0  0
  142.3430   72.6460  220.7030 C   0  0  0  0  0  0  0  0  0  0  0  0
  142.4567   74.7906  220.5837 H   0  0  0  0  0  0  0  0  0  0  0  0
  140.3291   75.1285  221.8604 H   0  0  0  0  0  0  0  0  0  0  0  0
  139.0740   73.1607  222.6612 H   0  0  0  0  0  0  0  0  0  0  0  0
  139.1857   70.0908  221.4818 H   0  0  0  0  0  0  0  0  0  0  0  0
  140.5211   69.8128  222.6929 H   0  0  0  0  0  0  0  0  0  0  0  0
  137.8466   72.5600  222.9187 H   0  0  0  0  0  0  0  0  0  0  0  0
  137.4907   71.2355  221.8203 H   0  0  0  0  0  0  0  0  0  0  0  0
  135.0357   72.5912  223.5062 H   0  0  0  0  0  0  0  0  0  0  0  0
  133.5203   71.4765  225.1310 H   0  0  0  0  0  0  0  0  0  0  0  0
  134.1751   69.3820  226.2736 H   0  0  0  0  0  0  0  0  0  0  0  0
  136.4082   68.3622  225.7977 H   0  0  0  0  0  0  0  0  0  0  0  0
  138.4081   68.7242  223.1600 H   0  0  0  0  0  0  0  0  0  0  0  0
  140.1370   66.8800  227.2150 H   0  0  0  0  0  0  0  0  0  0  0  0
  141.4156   68.9384  228.7729 H   0  0  0  0  0  0  0  0  0  0  0  0
  141.8177   71.3747  228.9074 H   0  0  0  0  0  0  0  0  0  0  0  0
  140.8638   72.8640  227.1394 H   0  0  0  0  0  0  0  0  0  0  0  0
  139.5477   71.8753  225.3189 H   0  0  0  0  0  0  0  0  0  0  0  0
  141.9884   70.5530  220.9639 H   0  0  0  0  0  0  0  0  0  0  0  0
  143.2770   72.4878  220.1439 H   0  0  0  0  0  0  0  0  0  0  0  0
  1  2  2  0
  2  3  1  0
  3  4  2  0
  4  5  1  0
  5  6  1  0
  6  7  1  0
  7  8  1  0
  8  9  2  0
  9 10  1  0
 10 11  2  0
 11 12  1  0
 12 13  2  0
 13 14  1  0
 14 15  1  0
 15 16  2  0
 16 17  1  0
 17 18  1  0
 18 19  2  0
 19 20  1  0
 20 21  2  0
 21 22  1  0
 22 23  2  0
  4 24  1  0
 24 25  2  0
 25  1  1  0
 14  6  1  0
 23 15  1  0
 13  8  1  0
 23 18  1  0
  1 26  1  0
  2 27  1  0
  3 28  1  0
  5 29  1  0
  5 30  1  0
  7 31  1  0
  7 32  1  0
  9 33  1  0
 10 34  1  0
 11 35  1  0
 12 36  1  0
 14 37  1  6
 17 38  1  0
 19 39  1  0
 20 40  1  0
 21 41  1  0
 22 42  1  0
 24 43  1  0
 25 44  1  0
M  END
>  <smiles>  (6) 
c1ccc(CN2Cc3ccccc3C2c2n[nH]c3ccccc23)cc1

>  <score_type>  (6) 
oracle

>  <origin>  (6) 
autodockgpu

>  <m_score__min__energy>  (6) 
-8.1199999999999992

>  <m_primary>  (6) 
energy

>  <meeko>  (6) 
{"free_energy": -8.11, "intermolecular_energy": -9.01, "internal_energy": -1.18, "cluster_size": 13, "cluster_id": 1, "rank_in_cluster": 4}

>  <energy>  (6) 
-8.11

>  <cluster_rmsd>  (6) 
0.05

>  <rmsd>  (6) 
271.94

>  <cluster>  (6) 
1

$$$$

     RDKit          3D

 44 48  0  0  1  0  0  0  0  0999 V2000
  142.1970   81.5750  223.7220 C   0  0  0  0  0  0  0  0  0  0  0  0
  141.5470   81.6930  222.4940 C   0  0  0  0  0  0  0  0  0  0  0  0
  141.2930   80.5530  221.7650 C   0  0  0  0  0  0  0  0  0  0  0  0
  141.6550   79.2990  222.2020 C   0  0  0  0  0  0  0  0  0  0  0  0
  141.4040   78.0480  221.4740 C   0  0  0  0  0  0  0  0  0  0  0  0
  140.4610   77.1840  222.1410 N   0  0  0  0  0  0  0  0  0  0  0  0
  139.2900   77.9910  222.4950 C   0  0  0  0  0  0  0  0  0  0  0  0
  138.1610   77.0100  222.4900 C   0  0  0  0  0  0  0  0  0  0  0  0
  136.9140   77.0630  223.0740 C   0  0  0  0  0  0  0  0  0  0  0  0
  136.0900   75.9740  222.8820 C   0  0  0  0  0  0  0  0  0  0  0  0
  136.4810   74.8700  222.1400 C   0  0  0  0  0  0  0  0  0  0  0  0
  137.7500   74.8530  221.5670 C   0  0  0  0  0  0  0  0  0  0  0  0
  138.6090   75.9420  221.7430 C   0  0  0  0  0  0  0  0  0  0  0  0
  139.9940   76.1800  221.2430 C   0  0  2  0  0  0  0  0  0  0  0  0
  140.7070   74.8880  221.3810 C   0  0  0  0  0  0  0  0  0  0  0  0
  140.3230   73.7560  222.0130 N   0  0  0  0  0  0  0  0  0  0  0  0
  141.2260   72.8240  221.9160 N   0  0  0  0  0  0  0  0  0  0  0  0
  142.2620   73.3220  221.1970 C   0  0  0  0  0  0  0  0  0  0  0  0
  143.4730   72.8070  220.7800 C   0  0  0  0  0  0  0  0  0  0  0  0
  144.3860   73.5350  220.0350 C   0  0  0  0  0  0  0  0  0  0  0  0
  144.0720   74.8340  219.6910 C   0  0  0  0  0  0  0  0  0  0  0  0
  142.8710   75.3540  220.1000 C   0  0  0  0  0  0  0  0  0  0  0  0
  141.9510   74.6390  220.8460 C   0  0  0  0  0  0  0  0  0  0  0  0
  142.2970   79.2170  223.4220 C   0  0  0  0  0  0  0  0  0  0  0  0
  142.5710   80.3320  224.1840 C   0  0  0  0  0  0  0  0  0  0  0  0
  142.4108   82.4726  224.3208 H   0  0  0  0  0  0  0  0  0  0  0  0
  141.2425   82.6795  222.1144 H   0  0  0  0  0  0  0  0  0  0  0  0
  140.7811   80.6480  220.7960 H   0  0  0  0  0  0  0  0  0  0  0  0
  141.0078   78.2960  220.4782 H   0  0  0  0  0  0  0  0  0  0  0  0
  142.3595   77.5062  221.4142 H   0  0  0  0  0  0  0  0  0  0  0  0
  139.4121   78.4418  223.4909 H   0  0  0  0  0  0  0  0  0  0  0  0
  139.1268   78.8285  221.8007 H   0  0  0  0  0  0  0  0  0  0  0  0
  136.5912   77.9326  223.6652 H   0  0  0  0  0  0  0  0  0  0  0  0
  135.0870   75.9815  223.3335 H   0  0  0  0  0  0  0  0  0  0  0  0
  135.7976   74.0186  222.0057 H   0  0  0  0  0  0  0  0  0  0  0  0
  138.0762   73.9840  220.9767 H   0  0  0  0  0  0  0  0  0  0  0  0
  140.1124   76.5029  220.1981 H   0  0  0  0  0  0  0  0  0  0  0  0
  141.1420   71.8710  222.3260 H   0  0  0  0  0  0  0  0  0  0  0  0
  143.7244   71.7712  221.0518 H   0  0  0  0  0  0  0  0  0  0  0  0
  145.3414   73.0871  219.7241 H   0  0  0  0  0  0  0  0  0  0  0  0
  144.7727   75.4414  219.0993 H   0  0  0  0  0  0  0  0  0  0  0  0
  142.6272   76.3898  219.8215 H   0  0  0  0  0  0  0  0  0  0  0  0
  142.5997   78.2286  223.7980 H   0  0  0  0  0  0  0  0  0  0  0  0
  143.0835   80.2306  225.1520 H   0  0  0  0  0  0  0  0  0  0  0  0
  1  2  2  0
  2  3  1  0
  3  4  2  0
  4  5  1  0
  5  6  1  0
  6  7  1  0
  7  8  1  0
  8  9  2  0
  9 10  1  0
 10 11  2  0
 11 12  1  0
 12 13  2  0
 13 14  1  0
 14 15  1  0
 15 16  2  0
 16 17  1  0
 17 18  1  0
 18 19  2  0
 19 20  1  0
 20 21  2  0
 21 22  1  0
 22 23  2  0
  4 24  1  0
 24 25  2  0
 25  1  1  0
 14  6  1  0
 23 15  1  0
 13  8  1  0
 23 18  1  0
  1 26  1  0
  2 27  1  0
  3 28  1  0
  5 29  1  0
  5 30  1  0
  7 31  1  0
  7 32  1  0
  9 33  1  0
 10 34  1  0
 11 35  1  0
 12 36  1  0
 14 37  1  6
 17 38  1  0
 19 39  1  0
 20 40  1  0
 21 41  1  0
 22 42  1  0
 24 43  1  0
 25 44  1  0
M  END
>  <smiles>  (7) 
c1ccc(CN2Cc3ccccc3C2c2n[nH]c3ccccc23)cc1

>  <score_type>  (7) 
oracle

>  <origin>  (7) 
autodockgpu

>  <m_score__min__energy>  (7) 
-8.1199999999999992

>  <m_primary>  (7) 
energy

>  <meeko>  (7) 
{"free_energy": -7.53, "intermolecular_energy": -8.43, "internal_energy": -1.11, "cluster_size": 5, "cluster_id": 3, "rank_in_cluster": 3}

>  <energy>  (7) 
-8.1

>  <cluster_rmsd>  (7) 
0.08

>  <rmsd>  (7) 
271.94

>  <cluster>  (7) 
1

$$$$

     RDKit          3D

 44 48  0  0  1  0  0  0  0  0999 V2000
  134.1370   72.3270  226.5210 C   0  0  0  0  0  0  0  0  0  0  0  0
  134.6230   72.4920  225.2250 C   0  0  0  0  0  0  0  0  0  0  0  0
  135.1420   71.4000  224.5660 C   0  0  0  0  0  0  0  0  0  0  0  0
  135.1980   70.1490  225.1380 C   0  0  0  0  0  0  0  0  0  0  0  0
  135.7300   68.9470  224.4820 C   0  0  0  0  0  0  0  0  0  0  0  0
  137.0600   69.1320  223.9540 N   0  0  0  0  0  0  0  0  0  0  0  0
  136.9510   69.9640  222.7530 C   0  0  0  0  0  0  0  0  0  0  0  0
  138.2620   70.6800  222.6900 C   0  0  0  0  0  0  0  0  0  0  0  0
  138.9020   71.3050  221.6430 C   0  0  0  0  0  0  0  0  0  0  0  0
  140.1270   71.8800  221.9140 C   0  0  0  0  0  0  0  0  0  0  0  0
  140.7010   71.8390  223.1750 C   0  0  0  0  0  0  0  0  0  0  0  0
  140.0230   71.1970  224.2080 C   0  0  0  0  0  0  0  0  0  0  0  0
  138.7800   70.6050  223.9660 C   0  0  0  0  0  0  0  0  0  0  0  0
  137.8570   69.8700  224.8780 C   0  0  2  0  0  0  0  0  0  0  0  0
  138.7170   69.0160  225.7300 C   0  0  0  0  0  0  0  0  0  0  0  0
  138.8300   67.6680  225.7610 N   0  0  0  0  0  0  0  0  0  0  0  0
  139.6960   67.2820  226.6520 N   0  0  0  0  0  0  0  0  0  0  0  0
  140.1980   68.3890  227.2530 C   0  0  0  0  0  0  0  0  0  0  0  0
  141.1300   68.5980  228.2490 C   0  0  0  0  0  0  0  0  0  0  0  0
  141.4810   69.8600  228.7000 C   0  0  0  0  0  0  0  0  0  0  0  0
  140.8730   70.9590  228.1290 C   0  0  0  0  0  0  0  0  0  0  0  0
  139.9460   70.7610  227.1390 C   0  0  0  0  0  0  0  0  0  0  0  0
  139.5850   69.5070  226.6790 C   0  0  0  0  0  0  0  0  0  0  0  0
  134.7090   70.0200  226.4220 C   0  0  0  0  0  0  0  0  0  0  0  0
  134.1810   71.0850  227.1190 C   0  0  0  0  0  0  0  0  0  0  0  0
  133.7189   73.1862  227.0660 H   0  0  0  0  0  0  0  0  0  0  0  0
  134.5925   73.4774  224.7372 H   0  0  0  0  0  0  0  0  0  0  0  0
  135.5264   71.5322  223.5439 H   0  0  0  0  0  0  0  0  0  0  0  0
  135.7559   68.1293  225.2173 H   0  0  0  0  0  0  0  0  0  0  0  0
  135.0692   68.7169  223.6332 H   0  0  0  0  0  0  0  0  0  0  0  0
  136.8018   69.3417  221.8583 H   0  0  0  0  0  0  0  0  0  0  0  0
  136.0937   70.6522  222.7906 H   0  0  0  0  0  0  0  0  0  0  0  0
  138.4575   71.3441  220.6376 H   0  0  0  0  0  0  0  0  0  0  0  0
  140.6665   72.3884  221.1013 H   0  0  0  0  0  0  0  0  0  0  0  0
  141.6794   72.3075  223.3573 H   0  0  0  0  0  0  0  0  0  0  0  0
  140.4654   71.1557  225.2142 H   0  0  0  0  0  0  0  0  0  0  0  0
  137.2243   70.4638  225.5541 H   0  0  0  0  0  0  0  0  0  0  0  0
  139.9440   66.2890  226.8480 H   0  0  0  0  0  0  0  0  0  0  0  0
  141.6161   67.7231  228.7054 H   0  0  0  0  0  0  0  0  0  0  0  0
  142.2291   69.9833  229.4970 H   0  0  0  0  0  0  0  0  0  0  0  0
  141.1277   71.9759  228.4623 H   0  0  0  0  0  0  0  0  0  0  0  0
  139.4656   71.6419  226.6882 H   0  0  0  0  0  0  0  0  0  0  0  0
  134.7418   69.0327  226.9059 H   0  0  0  0  0  0  0  0  0  0  0  0
  133.7988   70.9461  228.1411 H   0  0  0  0  0  0  0  0  0  0  0  0
  1  2  2  0
  2  3  1  0
  3  4  2  0
  4  5  1  0
  5  6  1  0
  6  7  1  0
  7  8  1  0
  8  9  2  0
  9 10  1  0
 10 11  2  0
 11 12  1  0
 12 13  2  0
 13 14  1  0
 14 15  1  0
 15 16  2  0
 16 17  1  0
 17 18  1  0
 18 19  2  0
 19 20  1  0
 20 21  2  0
 21 22  1  0
 22 23  2  0
  4 24  1  0
 24 25  2  0
 25  1  1  0
 14  6  1  0
 23 15  1  0
 13  8  1  0
 23 18  1  0
  1 26  1  0
  2 27  1  0
  3 28  1  0
  5 29  1  0
  5 30  1  0
  7 31  1  0
  7 32  1  0
  9 33  1  0
 10 34  1  0
 11 35  1  0
 12 36  1  0
 14 37  1  1
 17 38  1  0
 19 39  1  0
 20 40  1  0
 21 41  1  0
 22 42  1  0
 24 43  1  0
 25 44  1  0
M  END
>  <smiles>  (8) 
c1ccc(CN2Cc3ccccc3C2c2n[nH]c3ccccc23)cc1

>  <score_type>  (8) 
oracle

>  <origin>  (8) 
autodockgpu

>  <m_score__min__energy>  (8) 
-8.1199999999999992

>  <m_primary>  (8) 
energy

>  <meeko>  (8) 
{"free_energy": -8.07, "intermolecular_energy": -8.97, "internal_energy": -1.13, "cluster_size": 13, "cluster_id": 1, "rank_in_cluster": 8}

>  <energy>  (8) 
-8.07

>  <cluster_rmsd>  (8) 
1.4

>  <rmsd>  (8) 
272.07

>  <cluster>  (8) 
1

$$$$

     RDKit          3D

 44 48  0  0  1  0  0  0  0  0999 V2000
  142.2070   81.5960  223.7570 C   0  0  0  0  0  0  0  0  0  0  0  0
  141.5500   81.7120  222.5330 C   0  0  0  0  0  0  0  0  0  0  0  0
  141.3000   80.5710  221.8030 C   0  0  0  0  0  0  0  0  0  0  0  0
  141.6740   79.3190  222.2360 C   0  0  0  0  0  0  0  0  0  0  0  0
  141.4270   78.0680  221.5070 C   0  0  0  0  0  0  0  0  0  0  0  0
  140.4760   77.2070  222.1650 N   0  0  0  0  0  0  0  0  0  0  0  0
  139.3100   78.0200  222.5200 C   0  0  0  0  0  0  0  0  0  0  0  0
  138.1740   77.0470  222.5060 C   0  0  0  0  0  0  0  0  0  0  0  0
  136.9250   77.1050  223.0860 C   0  0  0  0  0  0  0  0  0  0  0  0
  136.0940   76.0240  222.8850 C   0  0  0  0  0  0  0  0  0  0  0  0
  136.4800   74.9220  222.1370 C   0  0  0  0  0  0  0  0  0  0  0  0
  137.7500   74.9000  221.5670 C   0  0  0  0  0  0  0  0  0  0  0  0
  138.6170   75.9810  221.7530 C   0  0  0  0  0  0  0  0  0  0  0  0
  140.0040   76.2120  221.2590 C   0  0  2  0  0  0  0  0  0  0  0  0
  140.7070   74.9140  221.3900 C   0  0  0  0  0  0  0  0  0  0  0  0
  140.3140   73.7810  222.0160 N   0  0  0  0  0  0  0  0  0  0  0  0
  141.2100   72.8430  221.9150 N   0  0  0  0  0  0  0  0  0  0  0  0
  142.2510   73.3370  221.1990 C   0  0  0  0  0  0  0  0  0  0  0  0
  143.4580   72.8150  220.7810 C   0  0  0  0  0  0  0  0  0  0  0  0
  144.3770   73.5400  220.0400 C   0  0  0  0  0  0  0  0  0  0  0  0
  144.0740   74.8430  219.7030 C   0  0  0  0  0  0  0  0  0  0  0  0
  142.8770   75.3700  220.1140 C   0  0  0  0  0  0  0  0  0  0  0  0
  141.9500   74.6580  220.8550 C   0  0  0  0  0  0  0  0  0  0  0  0
  142.3230   79.2400  223.4520 C   0  0  0  0  0  0  0  0  0  0  0  0
  142.5930   80.3550  224.2150 C   0  0  0  0  0  0  0  0  0  0  0  0
  142.4170   82.4940  224.3565 H   0  0  0  0  0  0  0  0  0  0  0  0
  141.2368   82.6971  222.1569 H   0  0  0  0  0  0  0  0  0  0  0  0
  140.7817   80.6638  220.8372 H   0  0  0  0  0  0  0  0  0  0  0  0
  141.0411   78.3160  220.5072 H   0  0  0  0  0  0  0  0  0  0  0  0
  142.3817   77.5239  221.4574 H   0  0  0  0  0  0  0  0  0  0  0  0
  139.4323   78.4642  223.5189 H   0  0  0  0  0  0  0  0  0  0  0  0
  139.1549   78.8626  221.8301 H   0  0  0  0  0  0  0  0  0  0  0  0
  136.6064   77.9733  223.6814 H   0  0  0  0  0  0  0  0  0  0  0  0
  135.0897   76.0358  223.3335 H   0  0  0  0  0  0  0  0  0  0  0  0
  135.7914   74.0759  221.9958 H   0  0  0  0  0  0  0  0  0  0  0  0
  138.0710   74.0330  220.9709 H   0  0  0  0  0  0  0  0  0  0  0  0
  140.1278   76.5411  220.2167 H   0  0  0  0  0  0  0  0  0  0  0  0
  141.1190   71.8880  222.3200 H   0  0  0  0  0  0  0  0  0  0  0  0
  143.7015   71.7761  221.0483 H   0  0  0  0  0  0  0  0  0  0  0  0
  145.3287   73.0860  219.7268 H   0  0  0  0  0  0  0  0  0  0  0  0
  144.7800   75.4481  219.1152 H   0  0  0  0  0  0  0  0  0  0  0  0
  142.6419   76.4095  219.8415 H   0  0  0  0  0  0  0  0  0  0  0  0
  142.6352   78.2532  223.8244 H   0  0  0  0  0  0  0  0  0  0  0  0
  143.1115   80.2556  225.1800 H   0  0  0  0  0  0  0  0  0  0  0  0
  1  2  2  0
  2  3  1  0
  3  4  2  0
  4  5  1  0
  5  6  1  0
  6  7  1  0
  7  8  1  0
  8  9  2  0
  9 10  1  0
 10 11  2  0
 11 12  1  0
 12 13  2  0
 13 14  1  0
 14 15  1  0
 15 16  2  0
 16 17  1  0
 17 18  1  0
 18 19  2  0
 19 20  1  0
 20 21  2  0
 21 22  1  0
 22 23  2  0
  4 24  1  0
 24 25  2  0
 25  1  1  0
 14  6  1  0
 23 15  1  0
 13  8  1  0
 23 18  1  0
  1 26  1  0
  2 27  1  0
  3 28  1  0
  5 29  1  0
  5 30  1  0
  7 31  1  0
  7 32  1  0
  9 33  1  0
 10 34  1  0
 11 35  1  0
 12 36  1  0
 14 37  1  6
 17 38  1  0
 19 39  1  0
 20 40  1  0
 21 41  1  0
 22 42  1  0
 24 43  1  0
 25 44  1  0
M  END
>  <smiles>  (9) 
c1ccc(CN2Cc3ccccc3C2c2n[nH]c3ccccc23)cc1

>  <score_type>  (9) 
oracle

>  <origin>  (9) 
autodockgpu

>  <m_score__min__energy>  (9) 
-8.1199999999999992

>  <m_primary>  (9) 
energy

>  <meeko>  (9) 
{"free_energy": -7.53, "intermolecular_energy": -8.43, "internal_energy": -1.11, "cluster_size": 5, "cluster_id": 3, "rank_in_cluster": 1}

>  <energy>  (9) 
-8.02

>  <cluster_rmsd>  (9) 
0.18

>  <rmsd>  (9) 
271.93

>  <cluster>  (9) 
1

$$$$

     RDKit          3D

 44 48  0  0  1  0  0  0  0  0999 V2000
  141.8460   73.8290  221.0870 C   0  0  0  0  0  0  0  0  0  0  0  0
  142.2300   72.5930  220.5690 C   0  0  0  0  0  0  0  0  0  0  0  0
  141.5330   71.4680  220.9500 C   0  0  0  0  0  0  0  0  0  0  0  0
  140.4690   71.5170  221.8230 C   0  0  0  0  0  0  0  0  0  0  0  0
  139.6840   70.3550  222.2580 C   0  0  0  0  0  0  0  0  0  0  0  0
  138.7910   70.6510  223.3510 N   0  0  0  0  0  0  0  0  0  0  0  0
  137.6320   71.3590  222.8010 C   0  0  0  0  0  0  0  0  0  0  0  0
  136.5170   71.0050  223.7320 C   0  0  0  0  0  0  0  0  0  0  0  0
  135.3050   71.6160  223.9660 C   0  0  0  0  0  0  0  0  0  0  0  0
  134.4840   71.0330  224.9090 C   0  0  0  0  0  0  0  0  0  0  0  0
  134.8470   69.8860  225.5980 C   0  0  0  0  0  0  0  0  0  0  0  0
  136.0810   69.2970  225.3340 C   0  0  0  0  0  0  0  0  0  0  0  0
  136.9350   69.8650  224.3840 C   0  0  0  0  0  0  0  0  0  0  0  0
  138.2860   69.4430  223.9150 C   0  0  2  0  0  0  0  0  0  0  0  0
  139.0220   69.0040  225.1240 C   0  0  0  0  0  0  0  0  0  0  0  0
  139.1660   67.7620  225.6410 N   0  0  0  0  0  0  0  0  0  0  0  0
  139.8890   67.7750  226.7230 N   0  0  0  0  0  0  0  0  0  0  0  0
  140.2560   69.0590  226.9630 C   0  0  0  0  0  0  0  0  0  0  0  0
  141.0100   69.6710  227.9430 C   0  0  0  0  0  0  0  0  0  0  0  0
  141.2470   71.0360  227.9690 C   0  0  0  0  0  0  0  0  0  0  0  0
  140.7080   71.8200  226.9700 C   0  0  0  0  0  0  0  0  0  0  0  0
  139.9580   71.2200  225.9920 C   0  0  0  0  0  0  0  0  0  0  0  0
  139.7120   69.8590  225.9540 C   0  0  0  0  0  0  0  0  0  0  0  0
  140.1150   72.7560  222.3170 C   0  0  0  0  0  0  0  0  0  0  0  0
  140.7840   73.9070  221.9620 C   0  0  0  0  0  0  0  0  0  0  0  0
  142.3897   74.7405  220.7979 H   0  0  0  0  0  0  0  0  0  0  0  0
  143.0747   72.5177  219.8684 H   0  0  0  0  0  0  0  0  0  0  0  0
  141.8377   70.4932  220.5415 H   0  0  0  0  0  0  0  0  0  0  0  0
  139.0874   69.9970  221.4060 H   0  0  0  0  0  0  0  0  0  0  0  0
  140.3947   69.5940  222.6128 H   0  0  0  0  0  0  0  0  0  0  0  0
  137.8049   72.4453  222.7932 H   0  0  0  0  0  0  0  0  0  0  0  0
  137.4192   71.0777  221.7591 H   0  0  0  0  0  0  0  0  0  0  0  0
  135.0056   72.5264  223.4261 H   0  0  0  0  0  0  0  0  0  0  0  0
  133.5081   71.4939  225.1215 H   0  0  0  0  0  0  0  0  0  0  0  0
  134.1686   69.4466  226.3441 H   0  0  0  0  0  0  0  0  0  0  0  0
  136.3832   68.3864  225.8720 H   0  0  0  0  0  0  0  0  0  0  0  0
  138.3405   68.6186  223.1888 H   0  0  0  0  0  0  0  0  0  0  0  0
  140.1300   66.9340  227.2860 H   0  0  0  0  0  0  0  0  0  0  0  0
  141.4424   69.0474  228.7394 H   0  0  0  0  0  0  0  0  0  0  0  0
  141.8526   71.4853  228.7699 H   0  0  0  0  0  0  0  0  0  0  0  0
  140.8770   72.9069  226.9585 H   0  0  0  0  0  0  0  0  0  0  0  0
  139.5309   71.8513  225.1988 H   0  0  0  0  0  0  0  0  0  0  0  0
  139.2702   72.8271  223.0179 H   0  0  0  0  0  0  0  0  0  0  0  0
  140.4735   74.8789  222.3730 H   0  0  0  0  0  0  0  0  0  0  0  0
  1  2  2  0
  2  3  1  0
  3  4  2  0
  4  5  1  0
  5  6  1  0
  6  7  1  0
  7  8  1  0
  8  9  2  0
  9 10  1  0
 10 11  2  0
 11 12  1  0
 12 13  2  0
 13 14  1  0
 14 15  1  0
 15 16  2  0
 16 17  1  0
 17 18  1  0
 18 19  2  0
 19 20  1  0
 20 21  2  0
 21 22  1  0
 22 23  2  0
  4 24  1  0
 24 25  2  0
 25  1  1  0
 14  6  1  0
 23 15  1  0
 13  8  1  0
 23 18  1  0
  1 26  1  0
  2 27  1  0
  3 28  1  0
  5 29  1  0
  5 30  1  0
  7 31  1  0
  7 32  1  0
  9 33  1  0
 10 34  1  0
 11 35  1  0
 12 36  1  0
 14 37  1  6
 17 38  1  0
 19 39  1  0
 20 40  1  0
 21 41  1  0
 22 42  1  0
 24 43  1  0
 25 44  1  0
M  END
>  <smiles>  (10) 
c1ccc(CN2Cc3ccccc3C2c2n[nH]c3ccccc23)cc1

>  <score_type>  (10) 
oracle

>  <origin>  (10) 
autodockgpu

>  <m_score__min__energy>  (10) 
-8.1199999999999992

>  <m_primary>  (10) 
energy

>  <meeko>  (10) 
{"free_energy": -7.92, "intermolecular_energy": -8.81, "internal_energy": -1.23, "cluster_size": 13, "cluster_id": 1, "rank_in_cluster": 12}

>  <energy>  (10) 
-8.01

>  <cluster_rmsd>  (10) 
0.17

>  <rmsd>  (10) 
271.92

>  <cluster>  (10) 
1

$$$$

     RDKit          3D

 44 48  0  0  1  0  0  0  0  0999 V2000
  142.7180   80.8570  223.8360 C   0  0  0  0  0  0  0  0  0  0  0  0
  141.3700   81.2100  223.8450 C   0  0  0  0  0  0  0  0  0  0  0  0
  140.4860   80.4770  223.0850 C   0  0  0  0  0  0  0  0  0  0  0  0
  140.8830   79.4050  222.3160 C   0  0  0  0  0  0  0  0  0  0  0  0
  139.9870   78.5820  221.4940 C   0  0  0  0  0  0  0  0  0  0  0  0
  139.3900   77.4910  222.2250 N   0  0  0  0  0  0  0  0  0  0  0  0
  138.0840   77.9440  222.7120 C   0  0  0  0  0  0  0  0  0  0  0  0
  137.2730   76.6890  222.7900 C   0  0  0  0  0  0  0  0  0  0  0  0
  136.1250   76.3960  223.4920 C   0  0  0  0  0  0  0  0  0  0  0  0
  135.6160   75.1220  223.3510 C   0  0  0  0  0  0  0  0  0  0  0  0
  136.2200   74.1680  222.5460 C   0  0  0  0  0  0  0  0  0  0  0  0
  137.3800   74.5030  221.8520 C   0  0  0  0  0  0  0  0  0  0  0  0
  137.9200   75.7870  221.9740 C   0  0  0  0  0  0  0  0  0  0  0  0
  139.1290   76.3970  221.3490 C   0  0  2  0  0  0  0  0  0  0  0  0
  140.1790   75.3520  221.3830 C   0  0  0  0  0  0  0  0  0  0  0  0
  140.1650   74.1340  221.9720 N   0  0  0  0  0  0  0  0  0  0  0  0
  141.2830   73.4970  221.7810 N   0  0  0  0  0  0  0  0  0  0  0  0
  142.0940   74.2920  221.0390 C   0  0  0  0  0  0  0  0  0  0  0  0
  143.3710   74.1520  220.5370 C   0  0  0  0  0  0  0  0  0  0  0  0
  143.9980   75.1340  219.7870 C   0  0  0  0  0  0  0  0  0  0  0  0
  143.3160   76.3050  219.5290 C   0  0  0  0  0  0  0  0  0  0  0  0
  142.0460   76.4530  220.0240 C   0  0  0  0  0  0  0  0  0  0  0  0
  141.4080   75.4810  220.7750 C   0  0  0  0  0  0  0  0  0  0  0  0
  142.2250   79.0820  222.3300 C   0  0  0  0  0  0  0  0  0  0  0  0
  143.1440   79.7890  223.0750 C   0  0  0  0  0  0  0  0  0  0  0  0
  143.4413   81.4296  224.4352 H   0  0  0  0  0  0  0  0  0  0  0  0
  141.0181   82.0595  224.4488 H   0  0  0  0  0  0  0  0  0  0  0  0
  139.4225   80.7580  223.0922 H   0  0  0  0  0  0  0  0  0  0  0  0
  139.1829   79.2231  221.1035 H   0  0  0  0  0  0  0  0  0  0  0  0
  140.5929   78.1433  220.6875 H   0  0  0  0  0  0  0  0  0  0  0  0
  138.1769   78.4120  223.7031 H   0  0  0  0  0  0  0  0  0  0  0  0
  137.6283   78.7033  222.0594 H   0  0  0  0  0  0  0  0  0  0  0  0
  135.6369   77.1431  224.1351 H   0  0  0  0  0  0  0  0  0  0  0  0
  134.6991   74.8533  223.8960 H   0  0  0  0  0  0  0  0  0  0  0  0
  135.7886   73.1601  222.4568 H   0  0  0  0  0  0  0  0  0  0  0  0
  137.8710   73.7582  221.2085 H   0  0  0  0  0  0  0  0  0  0  0  0
  139.0490   76.7392  220.3066 H   0  0  0  0  0  0  0  0  0  0  0  0
  141.4920   72.5440  222.1430 H   0  0  0  0  0  0  0  0  0  0  0  0
  143.9163   73.2187  220.7412 H   0  0  0  0  0  0  0  0  0  0  0  0
  145.0185   74.9829  219.4052 H   0  0  0  0  0  0  0  0  0  0  0  0
  143.7828   77.1058  218.9367 H   0  0  0  0  0  0  0  0  0  0  0  0
  141.5082   77.3894  219.8142 H   0  0  0  0  0  0  0  0  0  0  0  0
  142.5729   78.2311  221.7258 H   0  0  0  0  0  0  0  0  0  0  0  0
  144.2064   79.5042  223.0626 H   0  0  0  0  0  0  0  0  0  0  0  0
  1  2  2  0
  2  3  1  0
  3  4  2  0
  4  5  1  0
  5  6  1  0
  6  7  1  0
  7  8  1  0
  8  9  2  0
  9 10  1  0
 10 11  2  0
 11 12  1  0
 12 13  2  0
 13 14  1  0
 14 15  1  0
 15 16  2  0
 16 17  1  0
 17 18  1  0
 18 19  2  0
 19 20  1  0
 20 21  2  0
 21 22  1  0
 22 23  2  0
  4 24  1  0
 24 25  2  0
 25  1  1  0
 14  6  1  0
 23 15  1  0
 13  8  1  0
 23 18  1  0
  1 26  1  0
  2 27  1  0
  3 28  1  0
  5 29  1  0
  5 30  1  0
  7 31  1  0
  7 32  1  0
  9 33  1  0
 10 34  1  0
 11 35  1  0
 12 36  1  0
 14 37  1  6
 17 38  1  0
 19 39  1  0
 20 40  1  0
 21 41  1  0
 22 42  1  0
 24 43  1  0
 25 44  1  0
M  END
>  <smiles>  (11) 
c1ccc(CN2Cc3ccccc3C2c2n[nH]c3ccccc23)cc1

>  <score_type>  (11) 
oracle

>  <origin>  (11) 
autodockgpu

>  <m_score__min__energy>  (11) 
-8.1199999999999992

>  <m_primary>  (11) 
energy

>  <meeko>  (11) 
{"free_energy": -7.32, "intermolecular_energy": -8.21, "internal_energy": -1.28, "cluster_size": 5, "cluster_id": 3, "rank_in_cluster": 5}

>  <energy>  (11) 
-7.97

>  <cluster_rmsd>  (11) 
0.11

>  <rmsd>  (11) 
271.9

>  <cluster>  (11) 
1

$$$$

     RDKit          3D

 44 48  0  0  1  0  0  0  0  0999 V2000
  141.0220   73.9200  220.3040 C   0  0  0  0  0  0  0  0  0  0  0  0
  140.6050   72.8070  219.5760 C   0  0  0  0  0  0  0  0  0  0  0  0
  140.2440   71.6650  220.2560 C   0  0  0  0  0  0  0  0  0  0  0  0
  140.2800   71.5800  221.6300 C   0  0  0  0  0  0  0  0  0  0  0  0
  139.8990   70.3960  222.4100 C   0  0  0  0  0  0  0  0  0  0  0  0
  138.9860   70.6950  223.4860 N   0  0  0  0  0  0  0  0  0  0  0  0
  137.8770   71.4710  222.9250 C   0  0  0  0  0  0  0  0  0  0  0  0
  136.7180   71.1350  223.8100 C   0  0  0  0  0  0  0  0  0  0  0  0
  135.5270   71.7910  224.0280 C   0  0  0  0  0  0  0  0  0  0  0  0
  134.6520   71.2140  224.9250 C   0  0  0  0  0  0  0  0  0  0  0  0
  134.9430   70.0290  225.5840 C   0  0  0  0  0  0  0  0  0  0  0  0
  136.1580   69.3960  225.3370 C   0  0  0  0  0  0  0  0  0  0  0  0
  137.0660   69.9560  224.4340 C   0  0  0  0  0  0  0  0  0  0  0  0
  138.4120   69.4910  223.9920 C   0  0  2  0  0  0  0  0  0  0  0  0
  139.0890   68.9800  225.2070 C   0  0  0  0  0  0  0  0  0  0  0  0
  139.2020   67.7110  225.6600 N   0  0  0  0  0  0  0  0  0  0  0  0
  139.8740   67.6580  226.7720 N   0  0  0  0  0  0  0  0  0  0  0  0
  140.2380   68.9230  227.0990 C   0  0  0  0  0  0  0  0  0  0  0  0
  140.9510   69.4740  228.1440 C   0  0  0  0  0  0  0  0  0  0  0  0
  141.1960   70.8330  228.2560 C   0  0  0  0  0  0  0  0  0  0  0  0
  140.7080   71.6750  227.2790 C   0  0  0  0  0  0  0  0  0  0  0  0
  140.0000   71.1370  226.2360 C   0  0  0  0  0  0  0  0  0  0  0  0
  139.7460   69.7830  226.1120 C   0  0  0  0  0  0  0  0  0  0  0  0
  140.6980   72.7000  222.3210 C   0  0  0  0  0  0  0  0  0  0  0  0
  141.0680   73.8630  221.6800 C   0  0  0  0  0  0  0  0  0  0  0  0
  141.3140   74.8425  219.7809 H   0  0  0  0  0  0  0  0  0  0  0  0
  140.5649   72.8401  218.4772 H   0  0  0  0  0  0  0  0  0  0  0  0
  139.9145   70.7878  219.6799 H   0  0  0  0  0  0  0  0  0  0  0  0
  139.4191   69.6721  221.7350 H   0  0  0  0  0  0  0  0  0  0  0  0
  140.8171   69.9928  222.8623 H   0  0  0  0  0  0  0  0  0  0  0  0
  138.0964   72.5483  222.9597 H   0  0  0  0  0  0  0  0  0  0  0  0
  137.6859   71.2343  221.8679 H   0  0  0  0  0  0  0  0  0  0  0  0
  135.2846   72.7312  223.5110 H   0  0  0  0  0  0  0  0  0  0  0  0
  133.6909   71.7107  225.1243 H   0  0  0  0  0  0  0  0  0  0  0  0
  134.2228   69.5947  226.2930 H   0  0  0  0  0  0  0  0  0  0  0  0
  136.4033   68.4556  225.8522 H   0  0  0  0  0  0  0  0  0  0  0  0
  138.4549   68.6898  223.2395 H   0  0  0  0  0  0  0  0  0  0  0  0
  140.0840   66.7850  227.2990 H   0  0  0  0  0  0  0  0  0  0  0  0
  141.3426   68.8039  228.9235 H   0  0  0  0  0  0  0  0  0  0  0  0
  141.7680   71.2321  229.1066 H   0  0  0  0  0  0  0  0  0  0  0  0
  140.8838   72.7594  227.3358 H   0  0  0  0  0  0  0  0  0  0  0  0
  139.6151   71.8149  225.4599 H   0  0  0  0  0  0  0  0  0  0  0  0
  140.7371   72.6630  223.4197 H   0  0  0  0  0  0  0  0  0  0  0  0
  141.3968   74.7371  222.2613 H   0  0  0  0  0  0  0  0  0  0  0  0
  1  2  2  0
  2  3  1  0
  3  4  2  0
  4  5  1  0
  5  6  1  0
  6  7  1  0
  7  8  1  0
  8  9  2  0
  9 10  1  0
 10 11  2  0
 11 12  1  0
 12 13  2  0
 13 14  1  0
 14 15  1  0
 15 16  2  0
 16 17  1  0
 17 18  1  0
 18 19  2  0
 19 20  1  0
 20 21  2  0
 21 22  1  0
 22 23  2  0
  4 24  1  0
 24 25  2  0
 25  1  1  0
 14  6  1  0
 23 15  1  0
 13  8  1  0
 23 18  1  0
  1 26  1  0
  2 27  1  0
  3 28  1  0
  5 29  1  0
  5 30  1  0
  7 31  1  0
  7 32  1  0
  9 33  1  0
 10 34  1  0
 11 35  1  0
 12 36  1  0
 14 37  1  6
 17 38  1  0
 19 39  1  0
 20 40  1  0
 21 41  1  0
 22 42  1  0
 24 43  1  0
 25 44  1  0
M  END
>  <smiles>  (12) 
c1ccc(CN2Cc3ccccc3C2c2n[nH]c3ccccc23)cc1

>  <score_type>  (12) 
oracle

>  <origin>  (12) 
autodockgpu

>  <m_score__min__energy>  (12) 
-8.1199999999999992

>  <m_primary>  (12) 
energy

>  <meeko>  (12) 
{"free_energy": -7.78, "intermolecular_energy": -8.67, "internal_energy": -1.38, "cluster_size": 13, "cluster_id": 1, "rank_in_cluster": 13}

>  <energy>  (12) 
-7.92

>  <cluster_rmsd>  (12) 
0.16

>  <rmsd>  (12) 
271.9

>  <cluster>  (12) 
1

$$$$

     RDKit          3D

 44 48  0  0  1  0  0  0  0  0999 V2000
  137.6360   66.0560  220.4660 C   0  0  0  0  0  0  0  0  0  0  0  0
  138.5770   65.9080  221.4840 C   0  0  0  0  0  0  0  0  0  0  0  0
  139.1860   67.0330  221.9940 C   0  0  0  0  0  0  0  0  0  0  0  0
  138.9010   68.3000  221.5370 C   0  0  0  0  0  0  0  0  0  0  0  0
  139.5100   69.5350  222.0470 C   0  0  0  0  0  0  0  0  0  0  0  0
  138.7590   70.1360  223.1220 N   0  0  0  0  0  0  0  0  0  0  0  0
  137.7340   70.9950  222.5240 C   0  0  0  0  0  0  0  0  0  0  0  0
  136.6260   70.9900  223.5290 C   0  0  0  0  0  0  0  0  0  0  0  0
  135.5760   71.8590  223.7230 C   0  0  0  0  0  0  0  0  0  0  0  0
  134.7110   71.5720  224.7580 C   0  0  0  0  0  0  0  0  0  0  0  0
  134.8780   70.4650  225.5760 C   0  0  0  0  0  0  0  0  0  0  0  0
  135.9530   69.6100  225.3500 C   0  0  0  0  0  0  0  0  0  0  0  0
  136.8470   69.8730  224.3070 C   0  0  0  0  0  0  0  0  0  0  0  0
  138.0570   69.1310  223.8520 C   0  0  2  0  0  0  0  0  0  0  0  0
  138.7590   68.6980  225.0830 C   0  0  0  0  0  0  0  0  0  0  0  0
  138.8460   67.4670  225.6370 N   0  0  0  0  0  0  0  0  0  0  0  0
  139.5560   67.4820  226.7270 N   0  0  0  0  0  0  0  0  0  0  0  0
  139.9730   68.7560  226.9350 C   0  0  0  0  0  0  0  0  0  0  0  0
  140.7400   69.3640  227.9070 C   0  0  0  0  0  0  0  0  0  0  0  0
  141.0350   70.7190  227.8970 C   0  0  0  0  0  0  0  0  0  0  0  0
  140.5400   71.4950  226.8690 C   0  0  0  0  0  0  0  0  0  0  0  0
  139.7780   70.8980  225.8990 C   0  0  0  0  0  0  0  0  0  0  0  0
  139.4750   69.5480  225.8960 C   0  0  0  0  0  0  0  0  0  0  0  0
  137.9650   68.4110  220.5280 C   0  0  0  0  0  0  0  0  0  0  0  0
  137.3310   67.3130  219.9890 C   0  0  0  0  0  0  0  0  0  0  0  0
  137.1375   65.1709  220.0439 H   0  0  0  0  0  0  0  0  0  0  0  0
  138.8286   64.9103  221.8730 H   0  0  0  0  0  0  0  0  0  0  0  0
  139.9284   66.9147  222.7970 H   0  0  0  0  0  0  0  0  0  0  0  0
  140.5202   69.3011  222.4141 H   0  0  0  0  0  0  0  0  0  0  0  0
  139.5292   70.2572  221.2175 H   0  0  0  0  0  0  0  0  0  0  0  0
  138.1185   72.0142  222.3711 H   0  0  0  0  0  0  0  0  0  0  0  0
  137.4095   70.6408  221.5344 H   0  0  0  0  0  0  0  0  0  0  0  0
  135.4336   72.7415  223.0820 H   0  0  0  0  0  0  0  0  0  0  0  0
  133.8596   72.2441  224.9408 H   0  0  0  0  0  0  0  0  0  0  0  0
  134.1697   70.2649  226.3935 H   0  0  0  0  0  0  0  0  0  0  0  0
  136.0993   68.7282  225.9912 H   0  0  0  0  0  0  0  0  0  0  0  0
  137.9050   68.2327  223.2356 H   0  0  0  0  0  0  0  0  0  0  0  0
  139.7550   66.6480  227.3180 H   0  0  0  0  0  0  0  0  0  0  0  0
  141.1354   68.7463  228.7268 H   0  0  0  0  0  0  0  0  0  0  0  0
  141.6505   71.1657  228.6917 H   0  0  0  0  0  0  0  0  0  0  0  0
  140.7532   72.5734  226.8288 H   0  0  0  0  0  0  0  0  0  0  0  0
  139.3879   71.5231  225.0823 H   0  0  0  0  0  0  0  0  0  0  0  0
  137.7170   69.4105  220.1412 H   0  0  0  0  0  0  0  0  0  0  0  0
  136.5892   67.4380  219.1864 H   0  0  0  0  0  0  0  0  0  0  0  0
  1  2  2  0
  2  3  1  0
  3  4  2  0
  4  5  1  0
  5  6  1  0
  6  7  1  0
  7  8  1  0
  8  9  2  0
  9 10  1  0
 10 11  2  0
 11 12  1  0
 12 13  2  0
 13 14  1  0
 14 15  1  0
 15 16  2  0
 16 17  1  0
 17 18  1  0
 18 19  2  0
 19 20  1  0
 20 21  2  0
 21 22  1  0
 22 23  2  0
  4 24  1  0
 24 25  2  0
 25  1  1  0
 14  6  1  0
 23 15  1  0
 13  8  1  0
 23 18  1  0
  1 26  1  0
  2 27  1  0
  3 28  1  0
  5 29  1  0
  5 30  1  0
  7 31  1  0
  7 32  1  0
  9 33  1  0
 10 34  1  0
 11 35  1  0
 12 36  1  0
 14 37  1  6
 17 38  1  0
 19 39  1  0
 20 40  1  0
 21 41  1  0
 22 42  1  0
 24 43  1  0
 25 44  1  0
M  END
>  <smiles>  (13) 
c1ccc(CN2Cc3ccccc3C2c2n[nH]c3ccccc23)cc1

>  <score_type>  (13) 
oracle

>  <origin>  (13) 
autodockgpu

>  <m_score__min__energy>  (13) 
-8.1199999999999992

>  <m_primary>  (13) 
energy

>  <meeko>  (13) 
{"free_energy": -7.19, "intermolecular_energy": -8.09, "internal_energy": -1.6, "cluster_size": 2, "cluster_id": 2, "rank_in_cluster": 2}

>  <energy>  (13) 
-7.78

>  <cluster_rmsd>  (13) 
0.62

>  <rmsd>  (13) 
271.85

>  <cluster>  (13) 
1

$$$$

     RDKit          3D

 44 48  0  0  1  0  0  0  0  0999 V2000
  141.8480   73.9340  220.9530 C   0  0  0  0  0  0  0  0  0  0  0  0
  140.7080   74.1210  221.7320 C   0  0  0  0  0  0  0  0  0  0  0  0
  140.0230   73.0150  222.1850 C   0  0  0  0  0  0  0  0  0  0  0  0
  140.4230   71.7290  221.8970 C   0  0  0  0  0  0  0  0  0  0  0  0
  139.7410   70.5130  222.3580 C   0  0  0  0  0  0  0  0  0  0  0  0
  138.8320   70.7530  223.4520 N   0  0  0  0  0  0  0  0  0  0  0  0
  137.6760   71.4800  222.9200 C   0  0  0  0  0  0  0  0  0  0  0  0
  136.5510   71.0760  223.8180 C   0  0  0  0  0  0  0  0  0  0  0  0
  135.3320   71.6700  224.0640 C   0  0  0  0  0  0  0  0  0  0  0  0
  134.5030   71.0380  224.9670 C   0  0  0  0  0  0  0  0  0  0  0  0
  134.8620   69.8620  225.6060 C   0  0  0  0  0  0  0  0  0  0  0  0
  136.1030   69.2930  225.3320 C   0  0  0  0  0  0  0  0  0  0  0  0
  136.9670   69.9090  224.4210 C   0  0  0  0  0  0  0  0  0  0  0  0
  138.3260   69.5160  223.9510 C   0  0  2  0  0  0  0  0  0  0  0  0
  139.0480   69.0250  225.1480 C   0  0  0  0  0  0  0  0  0  0  0  0
  139.1930   67.7600  225.6080 N   0  0  0  0  0  0  0  0  0  0  0  0
  139.9010   67.7260  226.6990 N   0  0  0  0  0  0  0  0  0  0  0  0
  140.2570   68.9990  227.0040 C   0  0  0  0  0  0  0  0  0  0  0  0
  140.9940   69.5680  228.0230 C   0  0  0  0  0  0  0  0  0  0  0  0
  141.2230   70.9320  228.1170 C   0  0  0  0  0  0  0  0  0  0  0  0
  140.6930   71.7590  227.1490 C   0  0  0  0  0  0  0  0  0  0  0  0
  139.9600   71.2020  226.1330 C   0  0  0  0  0  0  0  0  0  0  0  0
  139.7220   69.8430  226.0270 C   0  0  0  0  0  0  0  0  0  0  0  0
  141.5560   71.5790  221.1230 C   0  0  0  0  0  0  0  0  0  0  0  0
  142.2710   72.6570  220.6490 C   0  0  0  0  0  0  0  0  0  0  0  0
  142.4098   74.8035  220.5811 H   0  0  0  0  0  0  0  0  0  0  0  0
  140.3608   75.1346  221.9810 H   0  0  0  0  0  0  0  0  0  0  0  0
  139.1231   73.1645  222.7996 H   0  0  0  0  0  0  0  0  0  0  0  0
  139.1721   70.0906  221.5166 H   0  0  0  0  0  0  0  0  0  0  0  0
  140.5151   69.8210  222.7212 H   0  0  0  0  0  0  0  0  0  0  0  0
  137.8423   72.5664  222.9659 H   0  0  0  0  0  0  0  0  0  0  0  0
  137.4789   71.2473  221.8631 H   0  0  0  0  0  0  0  0  0  0  0  0
  135.0345   72.6035  223.5640 H   0  0  0  0  0  0  0  0  0  0  0  0
  133.5218   71.4834  225.1879 H   0  0  0  0  0  0  0  0  0  0  0  0
  134.1755   69.3842  226.3204 H   0  0  0  0  0  0  0  0  0  0  0  0
  136.4034   68.3601  225.8315 H   0  0  0  0  0  0  0  0  0  0  0  0
  138.3948   68.7270  223.1876 H   0  0  0  0  0  0  0  0  0  0  0  0
  140.1400   66.8600  227.2250 H   0  0  0  0  0  0  0  0  0  0  0  0
  141.4187   68.9096  228.7951 H   0  0  0  0  0  0  0  0  0  0  0  0
  141.8151   71.3461  228.9464 H   0  0  0  0  0  0  0  0  0  0  0  0
  140.8554   72.8461  227.1913 H   0  0  0  0  0  0  0  0  0  0  0  0
  139.5406   71.8680  225.3645 H   0  0  0  0  0  0  0  0  0  0  0  0
  141.8999   70.5637  220.8761 H   0  0  0  0  0  0  0  0  0  0  0  0
  143.1699   72.5008  220.0345 H   0  0  0  0  0  0  0  0  0  0  0  0
  1  2  2  0
  2  3  1  0
  3  4  2  0
  4  5  1  0
  5  6  1  0
  6  7  1  0
  7  8  1  0
  8  9  2  0
  9 10  1  0
 10 11  2  0
 11 12  1  0
 12 13  2  0
 13 14  1  0
 14 15  1  0
 15 16  2  0
 16 17  1  0
 17 18  1  0
 18 19  2  0
 19 20  1  0
 20 21  2  0
 21 22  1  0
 22 23  2  0
  4 24  1  0
 24 25  2  0
 25  1  1  0
 14  6  1  0
 23 15  1  0
 13  8  1  0
 23 18  1  0
  1 26  1  0
  2 27  1  0
  3 28  1  0
  5 29  1  0
  5 30  1  0
  7 31  1  0
  7 32  1  0
  9 33  1  0
 10 34  1  0
 11 35  1  0
 12 36  1  0
 14 37  1  6
 17 38  1  0
 19 39  1  0
 20 40  1  0
 21 41  1  0
 22 42  1  0
 24 43  1  0
 25 44  1  0
M  END
>  <smiles>  (14) 
c1ccc(CN2Cc3ccccc3C2c2n[nH]c3ccccc23)cc1

>  <score_type>  (14) 
oracle

>  <origin>  (14) 
autodockgpu

>  <m_score__min__energy>  (14) 
-8.1199999999999992

>  <m_primary>  (14) 
energy

>  <meeko>  (14) 
{"free_energy": -8.11, "intermolecular_energy": -9.0, "internal_energy": -1.19, "cluster_size": 13, "cluster_id": 1, "rank_in_cluster": 6}

>  <energy>  (14) 
-7.81

>  <cluster_rmsd>  (14) 
0.0

>  <rmsd>  (14) 
271.29

>  <cluster>  (14) 
2

$$$$

     RDKit          3D

 44 48  0  0  1  0  0  0  0  0999 V2000
  141.8170   73.9180  221.1740 C   0  0  0  0  0  0  0  0  0  0  0  0
  142.3030   72.6750  220.7710 C   0  0  0  0  0  0  0  0  0  0  0  0
  141.6050   71.5420  221.1260 C   0  0  0  0  0  0  0  0  0  0  0  0
  140.4440   71.5890  221.8640 C   0  0  0  0  0  0  0  0  0  0  0  0
  139.6530   70.4180  222.2650 C   0  0  0  0  0  0  0  0  0  0  0  0
  138.7600   70.6870  223.3650 N   0  0  0  0  0  0  0  0  0  0  0  0
  137.5950   71.3970  222.8290 C   0  0  0  0  0  0  0  0  0  0  0  0
  136.4830   71.0160  223.7540 C   0  0  0  0  0  0  0  0  0  0  0  0
  135.2670   71.6140  224.0010 C   0  0  0  0  0  0  0  0  0  0  0  0
  134.4520   71.0060  224.9340 C   0  0  0  0  0  0  0  0  0  0  0  0
  134.8240   69.8490  225.6000 C   0  0  0  0  0  0  0  0  0  0  0  0
  136.0620   69.2750  225.3240 C   0  0  0  0  0  0  0  0  0  0  0  0
  136.9110   69.8670  224.3840 C   0  0  0  0  0  0  0  0  0  0  0  0
  138.2650   69.4640  223.9060 C   0  0  2  0  0  0  0  0  0  0  0  0
  139.0050   69.0080  225.1060 C   0  0  0  0  0  0  0  0  0  0  0  0
  139.1520   67.7580  225.6030 N   0  0  0  0  0  0  0  0  0  0  0  0
  139.8780   67.7560  226.6830 N   0  0  0  0  0  0  0  0  0  0  0  0
  140.2460   69.0360  226.9400 C   0  0  0  0  0  0  0  0  0  0  0  0
  141.0030   69.6340  227.9270 C   0  0  0  0  0  0  0  0  0  0  0  0
  141.2400   70.9990  227.9720 C   0  0  0  0  0  0  0  0  0  0  0  0
  140.6970   71.7970  226.9870 C   0  0  0  0  0  0  0  0  0  0  0  0
  139.9440   71.2110  226.0020 C   0  0  0  0  0  0  0  0  0  0  0  0
  139.6980   69.8510  225.9450 C   0  0  0  0  0  0  0  0  0  0  0  0
  139.9910   72.8360  222.2480 C   0  0  0  0  0  0  0  0  0  0  0  0
  140.6570   73.9950  221.9140 C   0  0  0  0  0  0  0  0  0  0  0  0
  142.3586   74.8359  220.9017 H   0  0  0  0  0  0  0  0  0  0  0  0
  143.2277   72.6005  220.1799 H   0  0  0  0  0  0  0  0  0  0  0  0
  141.9901   70.5620  220.8076 H   0  0  0  0  0  0  0  0  0  0  0  0
  139.0559   70.0871  221.4025 H   0  0  0  0  0  0  0  0  0  0  0  0
  140.3598   69.6440  222.5987 H   0  0  0  0  0  0  0  0  0  0  0  0
  137.7596   72.4845  222.8423 H   0  0  0  0  0  0  0  0  0  0  0  0
  137.3838   71.1346  221.7818 H   0  0  0  0  0  0  0  0  0  0  0  0
  134.9601   72.5325  223.4794 H   0  0  0  0  0  0  0  0  0  0  0  0
  133.4730   71.4553  225.1568 H   0  0  0  0  0  0  0  0  0  0  0  0
  134.1494   69.3898  226.3376 H   0  0  0  0  0  0  0  0  0  0  0  0
  136.3718   68.3570  225.8448 H   0  0  0  0  0  0  0  0  0  0  0  0
  138.3256   68.6540  223.1643 H   0  0  0  0  0  0  0  0  0  0  0  0
  140.1210   66.9060  227.2330 H   0  0  0  0  0  0  0  0  0  0  0  0
  141.4377   68.9990  228.7131 H   0  0  0  0  0  0  0  0  0  0  0  0
  141.8487   71.4367  228.7769 H   0  0  0  0  0  0  0  0  0  0  0  0
  140.8649   72.8841  226.9913 H   0  0  0  0  0  0  0  0  0  0  0  0
  139.5148   71.8537  225.2192 H   0  0  0  0  0  0  0  0  0  0  0  0
  139.0670   72.9062  222.8407 H   0  0  0  0  0  0  0  0  0  0  0  0
  140.2667   74.9721  222.2348 H   0  0  0  0  0  0  0  0  0  0  0  0
  1  2  2  0
  2  3  1  0
  3  4  2  0
  4  5  1  0
  5  6  1  0
  6  7  1  0
  7  8  1  0
  8  9  2  0
  9 10  1  0
 10 11  2  0
 11 12  1  0
 12 13  2  0
 13 14  1  0
 14 15  1  0
 15 16  2  0
 16 17  1  0
 17 18  1  0
 18 19  2  0
 19 20  1  0
 20 21  2  0
 21 22  1  0
 22 23  2  0
  4 24  1  0
 24 25  2  0
 25  1  1  0
 14  6  1  0
 23 15  1  0
 13  8  1  0
 23 18  1  0
  1 26  1  0
  2 27  1  0
  3 28  1  0
  5 29  1  0
  5 30  1  0
  7 31  1  0
  7 32  1  0
  9 33  1  0
 10 34  1  0
 11 35  1  0
 12 36  1  0
 14 37  1  6
 17 38  1  0
 19 39  1  0
 20 40  1  0
 21 41  1  0
 22 42  1  0
 24 43  1  0
 25 44  1  0
M  END
>  <smiles>  (15) 
c1ccc(CN2Cc3ccccc3C2c2n[nH]c3ccccc23)cc1

>  <score_type>  (15) 
oracle

>  <origin>  (15) 
autodockgpu

>  <m_score__min__energy>  (15) 
-8.1199999999999992

>  <m_primary>  (15) 
energy

>  <meeko>  (15) 
{"free_energy": -7.97, "intermolecular_energy": -8.87, "internal_energy": -1.17, "cluster_size": 13, "cluster_id": 1, "rank_in_cluster": 11}

>  <energy>  (15) 
-7.19

>  <cluster_rmsd>  (15) 
1.31

>  <rmsd>  (15) 
271.01

>  <cluster>  (15) 
2

$$$$

     RDKit          3D

 44 48  0  0  1  0  0  0  0  0999 V2000
  134.0990   72.2900  226.5070 C   0  0  0  0  0  0  0  0  0  0  0  0
  134.5990   72.4640  225.2170 C   0  0  0  0  0  0  0  0  0  0  0  0
  135.1310   71.3770  224.5590 C   0  0  0  0  0  0  0  0  0  0  0  0
  135.1880   70.1240  225.1260 C   0  0  0  0  0  0  0  0  0  0  0  0
  135.7340   68.9280  224.4720 C   0  0  0  0  0  0  0  0  0  0  0  0
  137.0650   69.1250  223.9510 N   0  0  0  0  0  0  0  0  0  0  0  0
  136.9560   69.9710  222.7590 C   0  0  0  0  0  0  0  0  0  0  0  0
  138.2650   70.6940  222.7090 C   0  0  0  0  0  0  0  0  0  0  0  0
  138.9060   71.3340  221.6710 C   0  0  0  0  0  0  0  0  0  0  0  0
  140.1260   71.9120  221.9540 C   0  0  0  0  0  0  0  0  0  0  0  0
  140.6950   71.8600  223.2170 C   0  0  0  0  0  0  0  0  0  0  0  0
  140.0170   71.2020  224.2400 C   0  0  0  0  0  0  0  0  0  0  0  0
  138.7770   70.6070  223.9860 C   0  0  0  0  0  0  0  0  0  0  0  0
  137.8550   69.8570  224.8860 C   0  0  2  0  0  0  0  0  0  0  0  0
  138.7160   68.9980  225.7320 C   0  0  0  0  0  0  0  0  0  0  0  0
  138.8280   67.6490  225.7550 N   0  0  0  0  0  0  0  0  0  0  0  0
  139.6960   67.2580  226.6420 N   0  0  0  0  0  0  0  0  0  0  0  0
  140.1980   68.3610  227.2490 C   0  0  0  0  0  0  0  0  0  0  0  0
  141.1320   68.5640  228.2450 C   0  0  0  0  0  0  0  0  0  0  0  0
  141.4830   69.8230  228.7040 C   0  0  0  0  0  0  0  0  0  0  0  0
  140.8750   70.9260  228.1400 C   0  0  0  0  0  0  0  0  0  0  0  0
  139.9470   70.7340  227.1500 C   0  0  0  0  0  0  0  0  0  0  0  0
  139.5850   69.4830  226.6830 C   0  0  0  0  0  0  0  0  0  0  0  0
  134.6850   69.9860  226.4040 C   0  0  0  0  0  0  0  0  0  0  0  0
  134.1430   71.0460  227.0990 C   0  0  0  0  0  0  0  0  0  0  0  0
  133.6701   73.1442  227.0514 H   0  0  0  0  0  0  0  0  0  0  0  0
  134.5691   73.4516  224.7335 H   0  0  0  0  0  0  0  0  0  0  0  0
  135.5254   71.5156  223.5415 H   0  0  0  0  0  0  0  0  0  0  0  0
  135.7633   68.1099  225.2067 H   0  0  0  0  0  0  0  0  0  0  0  0
  135.0798   68.6931  223.6195 H   0  0  0  0  0  0  0  0  0  0  0  0
  136.8125   69.3587  221.8565 H   0  0  0  0  0  0  0  0  0  0  0  0
  136.0954   70.6548  222.8017 H   0  0  0  0  0  0  0  0  0  0  0  0
  138.4657   71.3818  220.6641 H   0  0  0  0  0  0  0  0  0  0  0  0
  140.6663   72.4324  221.1494 H   0  0  0  0  0  0  0  0  0  0  0  0
  141.6697   72.3325  223.4087 H   0  0  0  0  0  0  0  0  0  0  0  0
  140.4563   71.1502  225.2471 H   0  0  0  0  0  0  0  0  0  0  0  0
  137.2168   70.4401  225.5662 H   0  0  0  0  0  0  0  0  0  0  0  0
  139.9430   66.2640  226.8320 H   0  0  0  0  0  0  0  0  0  0  0  0
  141.6196   67.6864  228.6945 H   0  0  0  0  0  0  0  0  0  0  0  0
  142.2311   69.9411  229.5018 H   0  0  0  0  0  0  0  0  0  0  0  0
  141.1306   71.9408  228.4789 H   0  0  0  0  0  0  0  0  0  0  0  0
  139.4665   71.6177  226.7049 H   0  0  0  0  0  0  0  0  0  0  0  0
  134.7177   68.9968  226.8841 H   0  0  0  0  0  0  0  0  0  0  0  0
  133.7496   70.9005  228.1159 H   0  0  0  0  0  0  0  0  0  0  0  0
  1  2  2  0
  2  3  1  0
  3  4  2  0
  4  5  1  0
  5  6  1  0
  6  7  1  0
  7  8  1  0
  8  9  2  0
  9 10  1  0
 10 11  2  0
 11 12  1  0
 12 13  2  0
 13 14  1  0
 14 15  1  0
 15 16  2  0
 16 17  1  0
 17 18  1  0
 18 19  2  0
 19 20  1  0
 20 21  2  0
 21 22  1  0
 22 23  2  0
  4 24  1  0
 24 25  2  0
 25  1  1  0
 14  6  1  0
 23 15  1  0
 13  8  1  0
 23 18  1  0
  1 26  1  0
  2 27  1  0
  3 28  1  0
  5 29  1  0
  5 30  1  0
  7 31  1  0
  7 32  1  0
  9 33  1  0
 10 34  1  0
 11 35  1  0
 12 36  1  0
 14 37  1  1
 17 38  1  0
 19 39  1  0
 20 40  1  0
 21 41  1  0
 22 42  1  0
 24 43  1  0
 25 44  1  0
M  END
>  <smiles>  (16) 
c1ccc(CN2Cc3ccccc3C2c2n[nH]c3ccccc23)cc1

>  <score_type>  (16) 
oracle

>  <origin>  (16) 
autodockgpu

>  <m_score__min__energy>  (16) 
-8.1199999999999992

>  <m_primary>  (16) 
energy

>  <meeko>  (16) 
{"free_energy": -8.11, "intermolecular_energy": -9.01, "internal_energy": -1.09, "cluster_size": 13, "cluster_id": 1, "rank_in_cluster": 2}

>  <energy>  (16) 
-7.53

>  <cluster_rmsd>  (16) 
0.0

>  <rmsd>  (16) 
272.19

>  <cluster>  (16) 
3

$$$$

     RDKit          3D

 44 48  0  0  1  0  0  0  0  0999 V2000
  142.0380   73.7220  220.8330 C   0  0  0  0  0  0  0  0  0  0  0  0
  141.0030   73.9630  221.7350 C   0  0  0  0  0  0  0  0  0  0  0  0
  140.2680   72.8970  222.2030 C   0  0  0  0  0  0  0  0  0  0  0  0
  140.5170   71.6000  221.8150 C   0  0  0  0  0  0  0  0  0  0  0  0
  139.7740   70.4230  222.2870 C   0  0  0  0  0  0  0  0  0  0  0  0
  138.8820   70.7180  223.3810 N   0  0  0  0  0  0  0  0  0  0  0  0
  137.7460   71.4690  222.8390 C   0  0  0  0  0  0  0  0  0  0  0  0
  136.6150   71.1230  223.7550 C   0  0  0  0  0  0  0  0  0  0  0  0
  135.4170   71.7600  223.9950 C   0  0  0  0  0  0  0  0  0  0  0  0
  134.5750   71.1770  224.9180 C   0  0  0  0  0  0  0  0  0  0  0  0
  134.9020   70.0050  225.5820 C   0  0  0  0  0  0  0  0  0  0  0  0
  136.1220   69.3900  225.3130 C   0  0  0  0  0  0  0  0  0  0  0  0
  136.9980   69.9570  224.3820 C   0  0  0  0  0  0  0  0  0  0  0  0
  138.3410   69.5100  223.9120 C   0  0  2  0  0  0  0  0  0  0  0  0
  139.0550   69.0230  225.1160 C   0  0  0  0  0  0  0  0  0  0  0  0
  139.1950   67.7610  225.5830 N   0  0  0  0  0  0  0  0  0  0  0  0
  139.8980   67.7320  226.6770 N   0  0  0  0  0  0  0  0  0  0  0  0
  140.2550   69.0060  226.9780 C   0  0  0  0  0  0  0  0  0  0  0  0
  140.9880   69.5780  227.9970 C   0  0  0  0  0  0  0  0  0  0  0  0
  141.2190   70.9420  228.0840 C   0  0  0  0  0  0  0  0  0  0  0  0
  140.6960   71.7650  227.1090 C   0  0  0  0  0  0  0  0  0  0  0  0
  139.9660   71.2040  226.0930 C   0  0  0  0  0  0  0  0  0  0  0  0
  139.7270   69.8460  225.9930 C   0  0  0  0  0  0  0  0  0  0  0  0
  141.5480   71.3950  220.9210 C   0  0  0  0  0  0  0  0  0  0  0  0
  142.3090   72.4320  220.4270 C   0  0  0  0  0  0  0  0  0  0  0  0
  142.6375   74.5590  220.4457 H   0  0  0  0  0  0  0  0  0  0  0  0
  140.7774   74.9871  222.0672 H   0  0  0  0  0  0  0  0  0  0  0  0
  139.4509   73.0891  222.9139 H   0  0  0  0  0  0  0  0  0  0  0  0
  139.1817   70.0242  221.4502 H   0  0  0  0  0  0  0  0  0  0  0  0
  140.5123   69.6944  222.6533 H   0  0  0  0  0  0  0  0  0  0  0  0
  137.9474   72.5503  222.8571 H   0  0  0  0  0  0  0  0  0  0  0  0
  137.5336   71.2175  221.7894 H   0  0  0  0  0  0  0  0  0  0  0  0
  135.1451   72.6902  223.4745 H   0  0  0  0  0  0  0  0  0  0  0  0
  133.6102   71.6587  225.1350 H   0  0  0  0  0  0  0  0  0  0  0  0
  134.2063   69.5662  226.3124 H   0  0  0  0  0  0  0  0  0  0  0  0
  136.3962   68.4597  225.8320 H   0  0  0  0  0  0  0  0  0  0  0  0
  138.3799   68.7022  223.1664 H   0  0  0  0  0  0  0  0  0  0  0  0
  140.1310   66.8680  227.2100 H   0  0  0  0  0  0  0  0  0  0  0  0
  141.4077   68.9229  228.7747 H   0  0  0  0  0  0  0  0  0  0  0  0
  141.8077   71.3595  228.9141 H   0  0  0  0  0  0  0  0  0  0  0  0
  140.8615   72.8519  227.1457 H   0  0  0  0  0  0  0  0  0  0  0  0
  139.5502   71.8667  225.3198 H   0  0  0  0  0  0  0  0  0  0  0  0
  141.7698   70.3692  220.5917 H   0  0  0  0  0  0  0  0  0  0  0  0
  143.1244   72.2331  219.7160 H   0  0  0  0  0  0  0  0  0  0  0  0
  1  2  2  0
  2  3  1  0
  3  4  2  0
  4  5  1  0
  5  6  1  0
  6  7  1  0
  7  8  1  0
  8  9  2  0
  9 10  1  0
 10 11  2  0
 11 12  1  0
 12 13  2  0
 13 14  1  0
 14 15  1  0
 15 16  2  0
 16 17  1  0
 17 18  1  0
 18 19  2  0
 19 20  1  0
 20 21  2  0
 21 22  1  0
 22 23  2  0
  4 24  1  0
 24 25  2  0
 25  1  1  0
 14  6  1  0
 23 15  1  0
 13  8  1  0
 23 18  1  0
  1 26  1  0
  2 27  1  0
  3 28  1  0
  5 29  1  0
  5 30  1  0
  7 31  1  0
  7 32  1  0
  9 33  1  0
 10 34  1  0
 11 35  1  0
 12 36  1  0
 14 37  1  6
 17 38  1  0
 19 39  1  0
 20 40  1  0
 21 41  1  0
 22 42  1  0
 24 43  1  0
 25 44  1  0
M  END
>  <smiles>  (17) 
c1ccc(CN2Cc3ccccc3C2c2n[nH]c3ccccc23)cc1

>  <score_type>  (17) 
oracle

>  <origin>  (17) 
autodockgpu

>  <m_score__min__energy>  (17) 
-8.1199999999999992

>  <m_primary>  (17) 
energy

>  <meeko>  (17) 
{"free_energy": -8.01, "intermolecular_energy": -8.9, "internal_energy": -1.28, "cluster_size": 13, "cluster_id": 1, "rank_in_cluster": 10}

>  <energy>  (17) 
-7.53

>  <cluster_rmsd>  (17) 
0.03

>  <rmsd>  (17) 
272.18

>  <cluster>  (17) 
3

$$$$

     RDKit          3D

 44 48  0  0  1  0  0  0  0  0999 V2000
  141.8540   73.9290  220.9850 C   0  0  0  0  0  0  0  0  0  0  0  0
  140.6670   74.1180  221.6900 C   0  0  0  0  0  0  0  0  0  0  0  0
  139.9730   73.0130  222.1300 C   0  0  0  0  0  0  0  0  0  0  0  0
  140.4080   71.7260  221.9010 C   0  0  0  0  0  0  0  0  0  0  0  0
  139.7170   70.5120  222.3530 C   0  0  0  0  0  0  0  0  0  0  0  0
  138.8080   70.7500  223.4470 N   0  0  0  0  0  0  0  0  0  0  0  0
  137.6500   71.4720  222.9150 C   0  0  0  0  0  0  0  0  0  0  0  0
  136.5270   71.0660  223.8160 C   0  0  0  0  0  0  0  0  0  0  0  0
  135.3060   71.6560  224.0620 C   0  0  0  0  0  0  0  0  0  0  0  0
  134.4800   71.0230  224.9670 C   0  0  0  0  0  0  0  0  0  0  0  0
  134.8440   69.8480  225.6070 C   0  0  0  0  0  0  0  0  0  0  0  0
  136.0870   69.2840  225.3320 C   0  0  0  0  0  0  0  0  0  0  0  0
  136.9480   69.9010  224.4200 C   0  0  0  0  0  0  0  0  0  0  0  0
  138.3080   69.5130  223.9490 C   0  0  2  0  0  0  0  0  0  0  0  0
  139.0320   69.0250  225.1460 C   0  0  0  0  0  0  0  0  0  0  0  0
  139.1780   67.7630  225.6100 N   0  0  0  0  0  0  0  0  0  0  0  0
  139.8890   67.7320  226.6990 N   0  0  0  0  0  0  0  0  0  0  0  0
  140.2470   69.0060  226.9980 C   0  0  0  0  0  0  0  0  0  0  0  0
  140.9870   69.5780  228.0120 C   0  0  0  0  0  0  0  0  0  0  0  0
  141.2180   70.9420  228.1000 C   0  0  0  0  0  0  0  0  0  0  0  0
  140.6860   71.7660  227.1300 C   0  0  0  0  0  0  0  0  0  0  0  0
  139.9490   71.2060  226.1180 C   0  0  0  0  0  0  0  0  0  0  0  0
  139.7100   69.8470  226.0190 C   0  0  0  0  0  0  0  0  0  0  0  0
  141.5870   71.5750  221.2000 C   0  0  0  0  0  0  0  0  0  0  0  0
  142.3130   72.6520  220.7410 C   0  0  0  0  0  0  0  0  0  0  0  0
  142.4241   74.7975  220.6236 H   0  0  0  0  0  0  0  0  0  0  0  0
  140.2910   75.1319  221.8915 H   0  0  0  0  0  0  0  0  0  0  0  0
  139.0356   73.1636  222.6855 H   0  0  0  0  0  0  0  0  0  0  0  0
  139.1466   70.0992  221.5079 H   0  0  0  0  0  0  0  0  0  0  0  0
  140.4861   69.8128  222.7130 H   0  0  0  0  0  0  0  0  0  0  0  0
  137.8130   72.5590  222.9583 H   0  0  0  0  0  0  0  0  0  0  0  0
  137.4523   71.2367  221.8588 H   0  0  0  0  0  0  0  0  0  0  0  0
  135.0046   72.5874  223.5604 H   0  0  0  0  0  0  0  0  0  0  0  0
  133.4978   71.4658  225.1889 H   0  0  0  0  0  0  0  0  0  0  0  0
  134.1600   69.3679  226.3223 H   0  0  0  0  0  0  0  0  0  0  0  0
  136.3914   68.3529  225.8324 H   0  0  0  0  0  0  0  0  0  0  0  0
  138.3801   68.7237  223.1863 H   0  0  0  0  0  0  0  0  0  0  0  0
  140.1280   66.8680  227.2280 H   0  0  0  0  0  0  0  0  0  0  0  0
  141.4130   68.9222  228.7856 H   0  0  0  0  0  0  0  0  0  0  0  0
  141.8131   71.3586  228.9261 H   0  0  0  0  0  0  0  0  0  0  0  0
  140.8500   72.8531  227.1675 H   0  0  0  0  0  0  0  0  0  0  0  0
  139.5277   71.8692  225.3481 H   0  0  0  0  0  0  0  0  0  0  0  0
  141.9600   70.5595  221.0008 H   0  0  0  0  0  0  0  0  0  0  0  0
  143.2493   72.4948  220.1855 H   0  0  0  0  0  0  0  0  0  0  0  0
  1  2  2  0
  2  3  1  0
  3  4  2  0
  4  5  1  0
  5  6  1  0
  6  7  1  0
  7  8  1  0
  8  9  2  0
  9 10  1  0
 10 11  2  0
 11 12  1  0
 12 13  2  0
 13 14  1  0
 14 15  1  0
 15 16  2  0
 16 17  1  0
 17 18  1  0
 18 19  2  0
 19 20  1  0
 20 21  2  0
 21 22  1  0
 22 23  2  0
  4 24  1  0
 24 25  2  0
 25  1  1  0
 14  6  1  0
 23 15  1  0
 13  8  1  0
 23 18  1  0
  1 26  1  0
  2 27  1  0
  3 28  1  0
  5 29  1  0
  5 30  1  0
  7 31  1  0
  7 32  1  0
  9 33  1  0
 10 34  1  0
 11 35  1  0
 12 36  1  0
 14 37  1  6
 17 38  1  0
 19 39  1  0
 20 40  1  0
 21 41  1  0
 22 42  1  0
 24 43  1  0
 25 44  1  0
M  END
>  <smiles>  (18) 
c1ccc(CN2Cc3ccccc3C2c2n[nH]c3ccccc23)cc1

>  <score_type>  (18) 
oracle

>  <origin>  (18) 
autodockgpu

>  <m_score__min__energy>  (18) 
-8.1199999999999992

>  <m_primary>  (18) 
energy

>  <meeko>  (18) 
{"free_energy": -8.11, "intermolecular_energy": -9.01, "internal_energy": -1.19, "cluster_size": 13, "cluster_id": 1, "rank_in_cluster": 3}

>  <energy>  (18) 
-7.53

>  <cluster_rmsd>  (18) 
0.04

>  <rmsd>  (18) 
272.17

>  <cluster>  (18) 
3

$$$$

     RDKit          3D

 44 48  0  0  1  0  0  0  0  0999 V2000
  133.1030   71.6350  226.8390 C   0  0  0  0  0  0  0  0  0  0  0  0
  133.5690   70.3250  226.7460 C   0  0  0  0  0  0  0  0  0  0  0  0
  134.6050   70.0480  225.8820 C   0  0  0  0  0  0  0  0  0  0  0  0
  135.2000   71.0170  225.1050 C   0  0  0  0  0  0  0  0  0  0  0  0
  136.3110   70.7840  224.1740 C   0  0  0  0  0  0  0  0  0  0  0  0
  136.6420   69.3880  224.0240 N   0  0  0  0  0  0  0  0  0  0  0  0
  136.0590   68.9260  222.7610 C   0  0  0  0  0  0  0  0  0  0  0  0
  136.9680   67.8200  222.3270 C   0  0  0  0  0  0  0  0  0  0  0  0
  136.7700   66.7800  221.4460 C   0  0  0  0  0  0  0  0  0  0  0  0
  137.8250   65.9110  221.2620 C   0  0  0  0  0  0  0  0  0  0  0  0
  139.0330   66.0600  221.9260 C   0  0  0  0  0  0  0  0  0  0  0  0
  139.1930   67.1240  222.8100 C   0  0  0  0  0  0  0  0  0  0  0  0
  138.1430   68.0240  223.0180 C   0  0  0  0  0  0  0  0  0  0  0  0
  138.0530   69.2280  223.8910 C   0  0  2  0  0  0  0  0  0  0  0  0
  138.7270   68.8680  225.1600 C   0  0  0  0  0  0  0  0  0  0  0  0
  138.7240   67.6940  225.8340 N   0  0  0  0  0  0  0  0  0  0  0  0
  139.4390   67.7640  226.9180 N   0  0  0  0  0  0  0  0  0  0  0  0
  139.9520   69.0170  226.9990 C   0  0  0  0  0  0  0  0  0  0  0  0
  140.7690   69.6590  227.9070 C   0  0  0  0  0  0  0  0  0  0  0  0
  141.1640   70.9790  227.7630 C   0  0  0  0  0  0  0  0  0  0  0  0
  140.7240   71.6850  226.6630 C   0  0  0  0  0  0  0  0  0  0  0  0
  139.9130   71.0540  225.7550 C   0  0  0  0  0  0  0  0  0  0  0  0
  139.5100   69.7380  225.8860 C   0  0  0  0  0  0  0  0  0  0  0  0
  134.7140   72.3040  225.2210 C   0  0  0  0  0  0  0  0  0  0  0  0
  133.6800   72.6260  226.0730 C   0  0  0  0  0  0  0  0  0  0  0  0
  132.2761   71.8782  227.5224 H   0  0  0  0  0  0  0  0  0  0  0  0
  133.1172   69.5260  227.3522 H   0  0  0  0  0  0  0  0  0  0  0  0
  134.9713   69.0133  225.8097 H   0  0  0  0  0  0  0  0  0  0  0  0
  136.0316   71.1851  223.1886 H   0  0  0  0  0  0  0  0  0  0  0  0
  137.1967   71.2878  224.5885 H   0  0  0  0  0  0  0  0  0  0  0  0
  135.0357   68.5533  222.9157 H   0  0  0  0  0  0  0  0  0  0  0  0
  135.9801   69.7280  222.0123 H   0  0  0  0  0  0  0  0  0  0  0  0
  135.8159   66.6488  220.9145 H   0  0  0  0  0  0  0  0  0  0  0  0
  137.7038   65.0698  220.5636 H   0  0  0  0  0  0  0  0  0  0  0  0
  139.8538   65.3475  221.7568 H   0  0  0  0  0  0  0  0  0  0  0  0
  140.1452   67.2566  223.3446 H   0  0  0  0  0  0  0  0  0  0  0  0
  138.5214   70.1560  223.5313 H   0  0  0  0  0  0  0  0  0  0  0  0
  139.5780   66.9800  227.5890 H   0  0  0  0  0  0  0  0  0  0  0  0
  141.1224   69.0975  228.7844 H   0  0  0  0  0  0  0  0  0  0  0  0
  141.8155   71.4545  228.5110 H   0  0  0  0  0  0  0  0  0  0  0  0
  141.0182   72.7348  226.5167 H   0  0  0  0  0  0  0  0  0  0  0  0
  139.5661   71.6227  224.8796 H   0  0  0  0  0  0  0  0  0  0  0  0
  135.1679   73.0999  224.6123 H   0  0  0  0  0  0  0  0  0  0  0  0
  133.3186   73.6627  226.1414 H   0  0  0  0  0  0  0  0  0  0  0  0
  1  2  2  0
  2  3  1  0
  3  4  2  0
  4  5  1  0
  5  6  1  0
  6  7  1  0
  7  8  1  0
  8  9  2  0
  9 10  1  0
 10 11  2  0
 11 12  1  0
 12 13  2  0
 13 14  1  0
 14 15  1  0
 15 16  2  0
 16 17  1  0
 17 18  1  0
 18 19  2  0
 19 20  1  0
 20 21  2  0
 21 22  1  0
 22 23  2  0
  4 24  1  0
 24 25  2  0
 25  1  1  0
 14  6  1  0
 23 15  1  0
 13  8  1  0
 23 18  1  0
  1 26  1  0
  2 27  1  0
  3 28  1  0
  5 29  1  0
  5 30  1  0
  7 31  1  0
  7 32  1  0
  9 33  1  0
 10 34  1  0
 11 35  1  0
 12 36  1  0
 14 37  1  6
 17 38  1  0
 19 39  1  0
 20 40  1  0
 21 41  1  0
 22 42  1  0
 24 43  1  0
 25 44  1  0
M  END
>  <smiles>  (19) 
c1ccc(CN2Cc3ccccc3C2c2n[nH]c3ccccc23)cc1

>  <score_type>  (19) 
oracle

>  <origin>  (19) 
autodockgpu

>  <m_score__min__energy>  (19) 
-8.1199999999999992

>  <m_primary>  (19) 
energy

>  <meeko>  (19) 
{"free_energy": -7.81, "intermolecular_energy": -8.71, "internal_energy": -1.28, "cluster_size": 2, "cluster_id": 2, "rank_in_cluster": 1}

>  <energy>  (19) 
-7.53

>  <cluster_rmsd>  (19) 
0.04

>  <rmsd>  (19) 
272.17

>  <cluster>  (19) 
3

$$$$

     RDKit          3D

 44 48  0  0  1  0  0  0  0  0999 V2000
  142.1990   81.5770  223.7430 C   0  0  0  0  0  0  0  0  0  0  0  0
  141.5450   81.7090  222.5190 C   0  0  0  0  0  0  0  0  0  0  0  0
  141.2820   80.5750  221.7820 C   0  0  0  0  0  0  0  0  0  0  0  0
  141.6400   79.3160  222.2080 C   0  0  0  0  0  0  0  0  0  0  0  0
  141.3780   78.0730  221.4720 C   0  0  0  0  0  0  0  0  0  0  0  0
  140.4410   77.2040  222.1400 N   0  0  0  0  0  0  0  0  0  0  0  0
  139.2660   78.0060  222.4940 C   0  0  0  0  0  0  0  0  0  0  0  0
  138.1420   77.0190  222.4910 C   0  0  0  0  0  0  0  0  0  0  0  0
  136.8950   77.0660  223.0760 C   0  0  0  0  0  0  0  0  0  0  0  0
  136.0760   75.9720  222.8850 C   0  0  0  0  0  0  0  0  0  0  0  0
  136.4730   74.8700  222.1440 C   0  0  0  0  0  0  0  0  0  0  0  0
  137.7410   74.8600  221.5700 C   0  0  0  0  0  0  0  0  0  0  0  0
  138.5950   75.9530  221.7440 C   0  0  0  0  0  0  0  0  0  0  0  0
  139.9780   76.1970  221.2430 C   0  0  2  0  0  0  0  0  0  0  0  0
  140.6970   74.9090  221.3810 C   0  0  0  0  0  0  0  0  0  0  0  0
  140.3180   73.7740  222.0110 N   0  0  0  0  0  0  0  0  0  0  0  0
  141.2260   72.8470  221.9150 N   0  0  0  0  0  0  0  0  0  0  0  0
  142.2620   73.3520  221.1990 C   0  0  0  0  0  0  0  0  0  0  0  0
  143.4760   72.8430  220.7850 C   0  0  0  0  0  0  0  0  0  0  0  0
  144.3870   73.5770  220.0430 C   0  0  0  0  0  0  0  0  0  0  0  0
  144.0670   74.8740  219.7000 C   0  0  0  0  0  0  0  0  0  0  0  0
  142.8630   75.3880  220.1070 C   0  0  0  0  0  0  0  0  0  0  0  0
  141.9440   74.6670  220.8490 C   0  0  0  0  0  0  0  0  0  0  0  0
  142.2860   79.2210  223.4240 C   0  0  0  0  0  0  0  0  0  0  0  0
  142.5690   80.3290  224.1940 C   0  0  0  0  0  0  0  0  0  0  0  0
  142.4195   82.4687  224.3482 H   0  0  0  0  0  0  0  0  0  0  0  0
  141.2445   82.7001  222.1484 H   0  0  0  0  0  0  0  0  0  0  0  0
  140.7661   80.6798  220.8161 H   0  0  0  0  0  0  0  0  0  0  0  0
  140.9714   78.3313  220.4831 H   0  0  0  0  0  0  0  0  0  0  0  0
  142.3317   77.5299  221.3977 H   0  0  0  0  0  0  0  0  0  0  0  0
  139.3866   78.4586  223.4893 H   0  0  0  0  0  0  0  0  0  0  0  0
  139.0981   78.8419  221.7990 H   0  0  0  0  0  0  0  0  0  0  0  0
  136.5682   77.9343  223.6670 H   0  0  0  0  0  0  0  0  0  0  0  0
  135.0730   75.9746  223.3366 H   0  0  0  0  0  0  0  0  0  0  0  0
  135.7947   74.0143  222.0112 H   0  0  0  0  0  0  0  0  0  0  0  0
  138.0709   73.9924  220.9797 H   0  0  0  0  0  0  0  0  0  0  0  0
  140.0940   76.5197  220.1978 H   0  0  0  0  0  0  0  0  0  0  0  0
  141.1460   71.8930  222.3240 H   0  0  0  0  0  0  0  0  0  0  0  0
  143.7318   71.8081  221.0563 H   0  0  0  0  0  0  0  0  0  0  0  0
  145.3455   73.1346  219.7339 H   0  0  0  0  0  0  0  0  0  0  0  0
  144.7657   75.4854  219.1101 H   0  0  0  0  0  0  0  0  0  0  0  0
  142.6155   76.4235  219.8304 H   0  0  0  0  0  0  0  0  0  0  0  0
  142.5850   78.2281  223.7910 H   0  0  0  0  0  0  0  0  0  0  0  0
  143.0852   80.2176  225.1590 H   0  0  0  0  0  0  0  0  0  0  0  0
  1  2  2  0
  2  3  1  0
  3  4  2  0
  4  5  1  0
  5  6  1  0
  6  7  1  0
  7  8  1  0
  8  9  2  0
  9 10  1  0
 10 11  2  0
 11 12  1  0
 12 13  2  0
 13 14  1  0
 14 15  1  0
 15 16  2  0
 16 17  1  0
 17 18  1  0
 18 19  2  0
 19 20  1  0
 20 21  2  0
 21 22  1  0
 22 23  2  0
  4 24  1  0
 24 25  2  0
 25  1  1  0
 14  6  1  0
 23 15  1  0
 13  8  1  0
 23 18  1  0
  1 26  1  0
  2 27  1  0
  3 28  1  0
  5 29  1  0
  5 30  1  0
  7 31  1  0
  7 32  1  0
  9 33  1  0
 10 34  1  0
 11 35  1  0
 12 36  1  0
 14 37  1  6
 17 38  1  0
 19 39  1  0
 20 40  1  0
 21 41  1  0
 22 42  1  0
 24 43  1  0
 25 44  1  0
M  END
>  <smiles>  (20) 
c1ccc(CN2Cc3ccccc3C2c2n[nH]c3ccccc23)cc1

>  <score_type>  (20) 
oracle

>  <origin>  (20) 
autodockgpu

>  <m_score__min__energy>  (20) 
-8.1199999999999992

>  <m_primary>  (20) 
energy

>  <meeko>  (20) 
{"free_energy": -7.53, "intermolecular_energy": -8.42, "internal_energy": -1.11, "cluster_size": 5, "cluster_id": 3, "rank_in_cluster": 4}

>  <energy>  (20) 
-7.32

>  <cluster_rmsd>  (20) 
0.94

>  <rmsd>  (20) 
272.05

>  <cluster>  (20) 
3

$$$$

     RDKit          3D

 44 48  0  0  1  0  0  0  0  0999 V2000
  140.4650   69.4260  228.1740 C   0  0  0  0  0  0  0  0  0  0  0  0
  140.6880   68.7430  227.0030 C   0  0  0  0  0  0  0  0  0  0  0  0
  140.7630   69.3940  225.7850 C   0  0  0  0  0  0  0  0  0  0  0  0
  140.6180   70.7520  225.6980 C   0  0  0  0  0  0  0  0  0  0  0  0
  140.7030   71.5070  224.4090 C   0  0  0  0  0  0  0  0  0  0  0  0
  139.8070   71.0420  223.4240 N   0  0  0  0  0  0  0  0  0  0  0  0
  138.5470   70.5180  223.8700 C   0  0  0  0  0  0  0  0  0  0  0  0
  137.5180   71.5130  223.4350 C   0  0  0  0  0  0  0  0  0  0  0  0
  136.2210   71.6920  223.8410 C   0  0  0  0  0  0  0  0  0  0  0  0
  135.4770   72.7110  223.2660 C   0  0  0  0  0  0  0  0  0  0  0  0
  136.0660   73.5140  222.3010 C   0  0  0  0  0  0  0  0  0  0  0  0
  137.3880   73.2970  221.9160 C   0  0  0  0  0  0  0  0  0  0  0  0
  138.1420   72.2860  222.4810 C   0  0  0  0  0  0  0  0  0  0  0  0
  139.5590   71.8120  222.2850 C   0  0  1  0  0  0  0  0  0  0  0  0
  140.4560   72.9080  221.9360 C   0  0  0  0  0  0  0  0  0  0  0  0
  140.3790   74.2380  222.1010 N   0  0  0  0  0  0  0  0  0  0  0  0
  141.4490   74.8230  221.5980 N   0  0  0  0  0  0  0  0  0  0  0  0
  142.2650   73.9150  221.0880 C   0  0  0  0  0  0  0  0  0  0  0  0
  143.5040   73.9590  220.4490 C   0  0  0  0  0  0  0  0  0  0  0  0
  144.1490   72.8260  220.0090 C   0  0  0  0  0  0  0  0  0  0  0  0
  143.5510   71.5790  220.2040 C   0  0  0  0  0  0  0  0  0  0  0  0
  142.3290   71.5610  220.8360 C   0  0  0  0  0  0  0  0  0  0  0  0
  141.6790   72.6950  221.2790 C   0  0  0  0  0  0  0  0  0  0  0  0
  140.3930   71.4360  226.8840 C   0  0  0  0  0  0  0  0  0  0  0  0
  140.3140   70.8120  228.1100 C   0  0  0  0  0  0  0  0  0  0  0  0
  140.4070   68.8951  229.1356 H   0  0  0  0  0  0  0  0  0  0  0  0
  140.8101   67.6503  227.0349 H   0  0  0  0  0  0  0  0  0  0  0  0
  140.9423   68.8100  224.8703 H   0  0  0  0  0  0  0  0  0  0  0  0
  140.4805   72.5653  224.6102 H   0  0  0  0  0  0  0  0  0  0  0  0
  141.7199   71.3617  224.0156 H   0  0  0  0  0  0  0  0  0  0  0  0
  138.3534   69.5389  223.4074 H   0  0  0  0  0  0  0  0  0  0  0  0
  138.5322   70.3687  224.9597 H   0  0  0  0  0  0  0  0  0  0  0  0
  135.7788   71.0396  224.6084 H   0  0  0  0  0  0  0  0  0  0  0  0
  134.4338   72.8801  223.5712 H   0  0  0  0  0  0  0  0  0  0  0  0
  135.4871   74.3262  221.8371 H   0  0  0  0  0  0  0  0  0  0  0  0
  137.8395   73.9425  221.1482 H   0  0  0  0  0  0  0  0  0  0  0  0
  139.7425   71.1731  221.4086 H   0  0  0  0  0  0  0  0  0  0  0  0
  141.6420   75.8650  221.5950 H   0  0  0  0  0  0  0  0  0  0  0  0
  143.9836   74.9362  220.2909 H   0  0  0  0  0  0  0  0  0  0  0  0
  145.1257   72.9016  219.5087 H   0  0  0  0  0  0  0  0  0  0  0  0
  144.0361   70.6511  219.8668 H   0  0  0  0  0  0  0  0  0  0  0  0
  141.8426   70.5877  220.9973 H   0  0  0  0  0  0  0  0  0  0  0  0
  140.2719   72.5286  226.8436 H   0  0  0  0  0  0  0  0  0  0  0  0
  140.1347   71.3971  229.0240 H   0  0  0  0  0  0  0  0  0  0  0  0
  1  2  2  0
  2  3  1  0
  3  4  2  0
  4  5  1  0
  5  6  1  0
  6  7  1  0
  7  8  1  0
  8  9  2  0
  9 10  1  0
 10 11  2  0
 11 12  1  0
 12 13  2  0
 13 14  1  0
 14 15  1  0
 15 16  2  0
 16 17  1  0
 17 18  1  0
 18 19  2  0
 19 20  1  0
 20 21  2  0
 21 22  1  0
 22 23  2  0
  4 24  1  0
 24 25  2  0
 25  1  1  0
 14  6  1  0
 23 15  1  0
 13  8  1  0
 23 18  1  0
  1 26  1  0
  2 27  1  0
  3 28  1  0
  5 29  1  0
  5 30  1  0
  7 31  1  0
  7 32  1  0
  9 33  1  0
 10 34  1  0
 11 35  1  0
 12 36  1  0
 14 37  1  6
 17 38  1  0
 19 39  1  0
 20 40  1  0
 21 41  1  0
 22 42  1  0
 24 43  1  0
 25 44  1  0
M  END
>  <smiles>  (21) 
c1ccc(CN2Cc3ccccc3C2c2n[nH]c3ccccc23)cc1

>  <score_type>  (21) 
oracle

>  <origin>  (21) 
autodockgpu

>  <m_score__min__energy>  (21) 
-7.9100000000000001

>  <m_primary>  (21) 
energy

>  <meeko>  (21) 
{"free_energy": -7.82, "intermolecular_energy": -8.72, "internal_energy": -1.22, "cluster_size": 12, "cluster_id": 2, "rank_in_cluster": 2}

>  <energy>  (21) 
-7.91

>  <cluster_rmsd>  (21) 
0.0

>  <rmsd>  (21) 
270.99

>  <cluster>  (21) 
1

$$$$

     RDKit          3D

 44 48  0  0  1  0  0  0  0  0999 V2000
  132.2440   69.4130  225.6300 C   0  0  0  0  0  0  0  0  0  0  0  0
  132.9680   68.4450  224.9760 C   0  0  0  0  0  0  0  0  0  0  0  0
  134.3450   68.5100  224.8790 C   0  0  0  0  0  0  0  0  0  0  0  0
  135.0470   69.5440  225.4370 C   0  0  0  0  0  0  0  0  0  0  0  0
  136.5380   69.6550  225.3730 C   0  0  0  0  0  0  0  0  0  0  0  0
  137.0590   69.5100  224.0700 N   0  0  0  0  0  0  0  0  0  0  0  0
  136.7500   70.5370  223.1160 C   0  0  0  0  0  0  0  0  0  0  0  0
  138.0370   71.2600  222.8690 C   0  0  0  0  0  0  0  0  0  0  0  0
  138.2790   72.4870  222.3080 C   0  0  0  0  0  0  0  0  0  0  0  0
  139.5900   72.9240  222.2010 C   0  0  0  0  0  0  0  0  0  0  0  0
  140.6120   72.1090  222.6620 C   0  0  0  0  0  0  0  0  0  0  0  0
  140.3220   70.8660  223.2250 C   0  0  0  0  0  0  0  0  0  0  0  0
  139.0200   70.4180  223.3390 C   0  0  0  0  0  0  0  0  0  0  0  0
  138.3990   69.1600  223.8870 C   0  0  1  0  0  0  0  0  0  0  0  0
  139.1680   68.6130  224.9990 C   0  0  0  0  0  0  0  0  0  0  0  0
  139.4870   67.3600  225.3590 N   0  0  0  0  0  0  0  0  0  0  0  0
  140.1990   67.3710  226.4700 N   0  0  0  0  0  0  0  0  0  0  0  0
  140.3760   68.6160  226.8820 C   0  0  0  0  0  0  0  0  0  0  0  0
  141.0320   69.2060  227.9620 C   0  0  0  0  0  0  0  0  0  0  0  0
  141.0620   70.5700  228.1530 C   0  0  0  0  0  0  0  0  0  0  0  0
  140.4160   71.4020  227.2370 C   0  0  0  0  0  0  0  0  0  0  0  0
  139.7760   70.7970  226.1800 C   0  0  0  0  0  0  0  0  0  0  0  0
  139.7440   69.4310  225.9860 C   0  0  0  0  0  0  0  0  0  0  0  0
  134.3110   70.5180  226.0960 C   0  0  0  0  0  0  0  0  0  0  0  0
  132.9390   70.4790  226.2050 C   0  0  0  0  0  0  0  0  0  0  0  0
  131.1480   69.3498  225.6986 H   0  0  0  0  0  0  0  0  0  0  0  0
  132.4379   67.5969  224.5181 H   0  0  0  0  0  0  0  0  0  0  0  0
  134.8867   67.7163  224.3436 H   0  0  0  0  0  0  0  0  0  0  0  0
  136.8300   70.6438  225.7564 H   0  0  0  0  0  0  0  0  0  0  0  0
  136.9492   68.8338  225.9784 H   0  0  0  0  0  0  0  0  0  0  0  0
  136.3742   70.0929  222.1824 H   0  0  0  0  0  0  0  0  0  0  0  0
  135.9680   71.2152  223.4882 H   0  0  0  0  0  0  0  0  0  0  0  0
  137.4486   73.1130  221.9495 H   0  0  0  0  0  0  0  0  0  0  0  0
  139.8163   73.9043  221.7563 H   0  0  0  0  0  0  0  0  0  0  0  0
  141.6568   72.4440  222.5835 H   0  0  0  0  0  0  0  0  0  0  0  0
  141.1450   70.2309  223.5848 H   0  0  0  0  0  0  0  0  0  0  0  0
  138.4234   68.2782  223.2299 H   0  0  0  0  0  0  0  0  0  0  0  0
  140.5800   66.5190  226.9710 H   0  0  0  0  0  0  0  0  0  0  0  0
  141.5445   68.5582  228.6884 H   0  0  0  0  0  0  0  0  0  0  0  0
  141.5893   70.9988  229.0179 H   0  0  0  0  0  0  0  0  0  0  0  0
  140.4185   72.4956  227.3553 H   0  0  0  0  0  0  0  0  0  0  0  0
  139.2612   71.4377  225.4489 H   0  0  0  0  0  0  0  0  0  0  0  0
  134.8491   71.3615  226.5531 H   0  0  0  0  0  0  0  0  0  0  0  0
  132.3984   71.2757  226.7371 H   0  0  0  0  0  0  0  0  0  0  0  0
  1  2  2  0
  2  3  1  0
  3  4  2  0
  4  5  1  0
  5  6  1  0
  6  7  1  0
  7  8  1  0
  8  9  2  0
  9 10  1  0
 10 11  2  0
 11 12  1  0
 12 13  2  0
 13 14  1  0
 14 15  1  0
 15 16  2  0
 16 17  1  0
 17 18  1  0
 18 19  2  0
 19 20  1  0
 20 21  2  0
 21 22  1  0
 22 23  2  0
  4 24  1  0
 24 25  2  0
 25  1  1  0
 14  6  1  0
 23 15  1  0
 13  8  1  0
 23 18  1  0
  1 26  1  0
  2 27  1  0
  3 28  1  0
  5 29  1  0
  5 30  1  0
  7 31  1  0
  7 32  1  0
  9 33  1  0
 10 34  1  0
 11 35  1  0
 12 36  1  0
 14 37  1  6
 17 38  1  0
 19 39  1  0
 20 40  1  0
 21 41  1  0
 22 42  1  0
 24 43  1  0
 25 44  1  0
M  END
>  <smiles>  (22) 
c1ccc(CN2Cc3ccccc3C2c2n[nH]c3ccccc23)cc1

>  <score_type>  (22) 
oracle

>  <origin>  (22) 
autodockgpu

>  <m_score__min__energy>  (22) 
-7.9100000000000001

>  <m_primary>  (22) 
energy

>  <meeko>  (22) 
{"free_energy": -7.91, "intermolecular_energy": -8.81, "internal_energy": -1.14, "cluster_size": 4, "cluster_id": 1, "rank_in_cluster": 1}

>  <energy>  (22) 
-7.88

>  <cluster_rmsd>  (22) 
0.07

>  <rmsd>  (22) 
270.97

>  <cluster>  (22) 
1

$$$$

     RDKit          3D

 44 48  0  0  1  0  0  0  0  0999 V2000
  140.4850   69.4270  228.1780 C   0  0  0  0  0  0  0  0  0  0  0  0
  140.7090   68.7410  227.0080 C   0  0  0  0  0  0  0  0  0  0  0  0
  140.7830   69.3900  225.7900 C   0  0  0  0  0  0  0  0  0  0  0  0
  140.6370   70.7480  225.7000 C   0  0  0  0  0  0  0  0  0  0  0  0
  140.7210   71.5000  224.4090 C   0  0  0  0  0  0  0  0  0  0  0  0
  139.8260   71.0330  223.4250 N   0  0  0  0  0  0  0  0  0  0  0  0
  138.5670   70.5070  223.8720 C   0  0  0  0  0  0  0  0  0  0  0  0
  137.5360   71.5010  223.4360 C   0  0  0  0  0  0  0  0  0  0  0  0
  136.2390   71.6780  223.8420 C   0  0  0  0  0  0  0  0  0  0  0  0
  135.4940   72.6960  223.2660 C   0  0  0  0  0  0  0  0  0  0  0  0
  136.0810   73.4980  222.3000 C   0  0  0  0  0  0  0  0  0  0  0  0
  137.4040   73.2820  221.9150 C   0  0  0  0  0  0  0  0  0  0  0  0
  138.1590   72.2730  222.4810 C   0  0  0  0  0  0  0  0  0  0  0  0
  139.5760   71.8010  222.2850 C   0  0  1  0  0  0  0  0  0  0  0  0
  140.4710   72.8980  221.9340 C   0  0  0  0  0  0  0  0  0  0  0  0
  140.3930   74.2280  222.0980 N   0  0  0  0  0  0  0  0  0  0  0  0
  141.4620   74.8130  221.5940 N   0  0  0  0  0  0  0  0  0  0  0  0
  142.2790   73.9060  221.0840 C   0  0  0  0  0  0  0  0  0  0  0  0
  143.5170   73.9510  220.4440 C   0  0  0  0  0  0  0  0  0  0  0  0
  144.1640   72.8180  220.0050 C   0  0  0  0  0  0  0  0  0  0  0  0
  143.5680   71.5710  220.2020 C   0  0  0  0  0  0  0  0  0  0  0  0
  142.3460   71.5520  220.8350 C   0  0  0  0  0  0  0  0  0  0  0  0
  141.6950   72.6860  221.2770 C   0  0  0  0  0  0  0  0  0  0  0  0
  140.4110   71.4340  226.8840 C   0  0  0  0  0  0  0  0  0  0  0  0
  140.3320   70.8120  228.1110 C   0  0  0  0  0  0  0  0  0  0  0  0
  140.4279   68.8982  229.1409 H   0  0  0  0  0  0  0  0  0  0  0  0
  140.8324   67.6485  227.0420 H   0  0  0  0  0  0  0  0  0  0  0  0
  140.9625   68.8045  224.8762 H   0  0  0  0  0  0  0  0  0  0  0  0
  140.4978   72.5586  224.6079 H   0  0  0  0  0  0  0  0  0  0  0  0
  141.7379   71.3538  224.0159 H   0  0  0  0  0  0  0  0  0  0  0  0
  138.3748   69.5273  223.4103 H   0  0  0  0  0  0  0  0  0  0  0  0
  138.5527   70.3581  224.9618 H   0  0  0  0  0  0  0  0  0  0  0  0
  135.7976   71.0254  224.6097 H   0  0  0  0  0  0  0  0  0  0  0  0
  134.4509   72.8647  223.5718 H   0  0  0  0  0  0  0  0  0  0  0  0
  135.5008   74.3086  221.8349 H   0  0  0  0  0  0  0  0  0  0  0  0
  137.8547   73.9271  221.1464 H   0  0  0  0  0  0  0  0  0  0  0  0
  139.7599   71.1610  221.4095 H   0  0  0  0  0  0  0  0  0  0  0  0
  141.6540   75.8560  221.5890 H   0  0  0  0  0  0  0  0  0  0  0  0
  143.9947   74.9288  220.2838 H   0  0  0  0  0  0  0  0  0  0  0  0
  145.1404   72.8944  219.5042 H   0  0  0  0  0  0  0  0  0  0  0  0
  144.0542   70.6434  219.8657 H   0  0  0  0  0  0  0  0  0  0  0  0
  141.8609   70.5783  220.9978 H   0  0  0  0  0  0  0  0  0  0  0  0
  140.2890   72.5264  226.8415 H   0  0  0  0  0  0  0  0  0  0  0  0
  140.1511   71.3986  229.0238 H   0  0  0  0  0  0  0  0  0  0  0  0
  1  2  2  0
  2  3  1  0
  3  4  2  0
  4  5  1  0
  5  6  1  0
  6  7  1  0
  7  8  1  0
  8  9  2  0
  9 10  1  0
 10 11  2  0
 11 12  1  0
 12 13  2  0
 13 14  1  0
 14 15  1  0
 15 16  2  0
 16 17  1  0
 17 18  1  0
 18 19  2  0
 19 20  1  0
 20 21  2  0
 21 22  1  0
 22 23  2  0
  4 24  1  0
 24 25  2  0
 25  1  1  0
 14  6  1  0
 23 15  1  0
 13  8  1  0
 23 18  1  0
  1 26  1  0
  2 27  1  0
  3 28  1  0
  5 29  1  0
  5 30  1  0
  7 31  1  0
  7 32  1  0
  9 33  1  0
 10 34  1  0
 11 35  1  0
 12 36  1  0
 14 37  1  6
 17 38  1  0
 19 39  1  0
 20 40  1  0
 21 41  1  0
 22 42  1  0
 24 43  1  0
 25 44  1  0
M  END
>  <smiles>  (23) 
c1ccc(CN2Cc3ccccc3C2c2n[nH]c3ccccc23)cc1

>  <score_type>  (23) 
oracle

>  <origin>  (23) 
autodockgpu

>  <m_score__min__energy>  (23) 
-7.9100000000000001

>  <m_primary>  (23) 
energy

>  <meeko>  (23) 
{"free_energy": -7.82, "intermolecular_energy": -8.71, "internal_energy": -1.22, "cluster_size": 12, "cluster_id": 2, "rank_in_cluster": 8}

>  <energy>  (23) 
-7.84

>  <cluster_rmsd>  (23) 
0.17

>  <rmsd>  (23) 
271.0

>  <cluster>  (23) 
1

$$$$

     RDKit          3D

 44 48  0  0  1  0  0  0  0  0999 V2000
  132.2370   69.3850  225.6480 C   0  0  0  0  0  0  0  0  0  0  0  0
  132.9730   68.3510  225.1240 C   0  0  0  0  0  0  0  0  0  0  0  0
  134.3510   68.4170  225.0240 C   0  0  0  0  0  0  0  0  0  0  0  0
  135.0390   69.5210  225.4480 C   0  0  0  0  0  0  0  0  0  0  0  0
  136.5290   69.6390  225.3750 C   0  0  0  0  0  0  0  0  0  0  0  0
  137.0430   69.4820  224.0720 N   0  0  0  0  0  0  0  0  0  0  0  0
  136.7390   70.5040  223.1110 C   0  0  0  0  0  0  0  0  0  0  0  0
  138.0310   71.2140  222.8550 C   0  0  0  0  0  0  0  0  0  0  0  0
  138.2810   72.4360  222.2840 C   0  0  0  0  0  0  0  0  0  0  0  0
  139.5950   72.8610  222.1690 C   0  0  0  0  0  0  0  0  0  0  0  0
  140.6120   72.0420  222.6320 C   0  0  0  0  0  0  0  0  0  0  0  0
  140.3150   70.8050  223.2050 C   0  0  0  0  0  0  0  0  0  0  0  0
  139.0090   70.3680  223.3270 C   0  0  0  0  0  0  0  0  0  0  0  0
  138.3800   69.1190  223.8860 C   0  0  1  0  0  0  0  0  0  0  0  0
  139.1490   68.5740  224.9990 C   0  0  0  0  0  0  0  0  0  0  0  0
  139.4660   67.3210  225.3620 N   0  0  0  0  0  0  0  0  0  0  0  0
  140.1790   67.3350  226.4730 N   0  0  0  0  0  0  0  0  0  0  0  0
  140.3580   68.5800  226.8820 C   0  0  0  0  0  0  0  0  0  0  0  0
  141.0150   69.1720  227.9600 C   0  0  0  0  0  0  0  0  0  0  0  0
  141.0470   70.5360  228.1480 C   0  0  0  0  0  0  0  0  0  0  0  0
  140.4010   71.3670  227.2300 C   0  0  0  0  0  0  0  0  0  0  0  0
  139.7610   70.7600  226.1750 C   0  0  0  0  0  0  0  0  0  0  0  0
  139.7270   69.3930  225.9840 C   0  0  0  0  0  0  0  0  0  0  0  0
  134.2900   70.5620  225.9770 C   0  0  0  0  0  0  0  0  0  0  0  0
  132.9180   70.5220  226.0870 C   0  0  0  0  0  0  0  0  0  0  0  0
  131.1413   69.3194  225.7199 H   0  0  0  0  0  0  0  0  0  0  0  0
  132.4532   67.4467  224.7747 H   0  0  0  0  0  0  0  0  0  0  0  0
  134.9032   67.5673  224.5962 H   0  0  0  0  0  0  0  0  0  0  0  0
  136.8179   70.6336  225.7456 H   0  0  0  0  0  0  0  0  0  0  0  0
  136.9479   68.8271  225.9877 H   0  0  0  0  0  0  0  0  0  0  0  0
  136.3567   70.0558  222.1820 H   0  0  0  0  0  0  0  0  0  0  0  0
  135.9634   71.1913  223.4799 H   0  0  0  0  0  0  0  0  0  0  0  0
  137.4544   73.0664  221.9243 H   0  0  0  0  0  0  0  0  0  0  0  0
  139.8275   73.8360  221.7160 H   0  0  0  0  0  0  0  0  0  0  0  0
  141.6590   72.3686  222.5474 H   0  0  0  0  0  0  0  0  0  0  0  0
  141.1344   70.1661  223.5661 H   0  0  0  0  0  0  0  0  0  0  0  0
  138.3943   68.2323  223.2352 H   0  0  0  0  0  0  0  0  0  0  0  0
  140.5590   66.4830  226.9760 H   0  0  0  0  0  0  0  0  0  0  0  0
  141.5270   68.5253  228.6877 H   0  0  0  0  0  0  0  0  0  0  0  0
  141.5755   70.9661  229.0115 H   0  0  0  0  0  0  0  0  0  0  0  0
  140.4040   72.4609  227.3460 H   0  0  0  0  0  0  0  0  0  0  0  0
  139.2473   71.3995  225.4421 H   0  0  0  0  0  0  0  0  0  0  0  0
  134.8173   71.4624  226.3252 H   0  0  0  0  0  0  0  0  0  0  0  0
  132.3670   71.3728  226.5142 H   0  0  0  0  0  0  0  0  0  0  0  0
  1  2  2  0
  2  3  1  0
  3  4  2  0
  4  5  1  0
  5  6  1  0
  6  7  1  0
  7  8  1  0
  8  9  2  0
  9 10  1  0
 10 11  2  0
 11 12  1  0
 12 13  2  0
 13 14  1  0
 14 15  1  0
 15 16  2  0
 16 17  1  0
 17 18  1  0
 18 19  2  0
 19 20  1  0
 20 21  2  0
 21 22  1  0
 22 23  2  0
  4 24  1  0
 24 25  2  0
 25  1  1  0
 14  6  1  0
 23 15  1  0
 13  8  1  0
 23 18  1  0
  1 26  1  0
  2 27  1  0
  3 28  1  0
  5 29  1  0
  5 30  1  0
  7 31  1  0
  7 32  1  0
  9 33  1  0
 10 34  1  0
 11 35  1  0
 12 36  1  0
 14 37  1  6
 17 38  1  0
 19 39  1  0
 20 40  1  0
 21 41  1  0
 22 42  1  0
 24 43  1  0
 25 44  1  0
M  END
>  <smiles>  (24) 
c1ccc(CN2Cc3ccccc3C2c2n[nH]c3ccccc23)cc1

>  <score_type>  (24) 
oracle

>  <origin>  (24) 
autodockgpu

>  <m_score__min__energy>  (24) 
-7.9100000000000001

>  <m_primary>  (24) 
energy

>  <meeko>  (24) 
{"free_energy": -7.88, "intermolecular_energy": -8.78, "internal_energy": -1.15, "cluster_size": 4, "cluster_id": 1, "rank_in_cluster": 2}

>  <energy>  (24) 
-7.83

>  <cluster_rmsd>  (24) 
0.12

>  <rmsd>  (24) 
270.99

>  <cluster>  (24) 
1

$$$$

     RDKit          3D

 44 48  0  0  1  0  0  0  0  0999 V2000
  140.4200   69.3020  228.1050 C   0  0  0  0  0  0  0  0  0  0  0  0
  140.2480   70.6640  228.0850 C   0  0  0  0  0  0  0  0  0  0  0  0
  140.3420   71.3910  226.9120 C   0  0  0  0  0  0  0  0  0  0  0  0
  140.6100   70.7770  225.7180 C   0  0  0  0  0  0  0  0  0  0  0  0
  140.7100   71.5130  224.4190 C   0  0  0  0  0  0  0  0  0  0  0  0
  139.8150   71.0430  223.4360 N   0  0  0  0  0  0  0  0  0  0  0  0
  138.5540   70.5220  223.8820 C   0  0  0  0  0  0  0  0  0  0  0  0
  137.5270   71.5160  223.4390 C   0  0  0  0  0  0  0  0  0  0  0  0
  136.2290   71.6990  223.8420 C   0  0  0  0  0  0  0  0  0  0  0  0
  135.4880   72.7150  223.2580 C   0  0  0  0  0  0  0  0  0  0  0  0
  136.0790   73.5110  222.2910 C   0  0  0  0  0  0  0  0  0  0  0  0
  137.4020   73.2910  221.9090 C   0  0  0  0  0  0  0  0  0  0  0  0
  138.1540   72.2820  222.4820 C   0  0  0  0  0  0  0  0  0  0  0  0
  139.5700   71.8060  222.2910 C   0  0  1  0  0  0  0  0  0  0  0  0
  140.4690   72.8990  221.9370 C   0  0  0  0  0  0  0  0  0  0  0  0
  140.3950   74.2300  222.0990 N   0  0  0  0  0  0  0  0  0  0  0  0
  141.4660   74.8110  221.5920 N   0  0  0  0  0  0  0  0  0  0  0  0
  142.2780   73.9000  221.0820 C   0  0  0  0  0  0  0  0  0  0  0  0
  143.5160   73.9400  220.4410 C   0  0  0  0  0  0  0  0  0  0  0  0
  144.1590   72.8030  220.0030 C   0  0  0  0  0  0  0  0  0  0  0  0
  143.5580   71.5590  220.2030 C   0  0  0  0  0  0  0  0  0  0  0  0
  142.3370   71.5450  220.8370 C   0  0  0  0  0  0  0  0  0  0  0  0
  141.6910   72.6820  221.2780 C   0  0  0  0  0  0  0  0  0  0  0  0
  140.7840   69.4010  225.7460 C   0  0  0  0  0  0  0  0  0  0  0  0
  140.6960   68.6540  226.9000 C   0  0  0  0  0  0  0  0  0  0  0  0
  140.3424   68.7367  229.0454 H   0  0  0  0  0  0  0  0  0  0  0  0
  140.0299   71.1905  229.0259 H   0  0  0  0  0  0  0  0  0  0  0  0
  140.1989   72.4813  226.9390 H   0  0  0  0  0  0  0  0  0  0  0  0
  140.4971   72.5762  224.6039 H   0  0  0  0  0  0  0  0  0  0  0  0
  141.7276   71.3523  224.0335 H   0  0  0  0  0  0  0  0  0  0  0  0
  138.3607   69.5406  223.4242 H   0  0  0  0  0  0  0  0  0  0  0  0
  138.5365   70.3780  224.9724 H   0  0  0  0  0  0  0  0  0  0  0  0
  135.7846   71.0526  224.6132 H   0  0  0  0  0  0  0  0  0  0  0  0
  134.4440   72.8866  223.5589 H   0  0  0  0  0  0  0  0  0  0  0  0
  135.5017   74.3212  221.8217 H   0  0  0  0  0  0  0  0  0  0  0  0
  137.8554   73.9315  221.1382 H   0  0  0  0  0  0  0  0  0  0  0  0
  139.7544   71.1619  221.4186 H   0  0  0  0  0  0  0  0  0  0  0  0
  141.6610   75.8530  221.5850 H   0  0  0  0  0  0  0  0  0  0  0  0
  143.9971   74.9159  220.2791 H   0  0  0  0  0  0  0  0  0  0  0  0
  145.1352   72.8746  219.5012 H   0  0  0  0  0  0  0  0  0  0  0  0
  144.0404   70.6290  219.8678 H   0  0  0  0  0  0  0  0  0  0  0  0
  141.8485   70.5733  221.0016 H   0  0  0  0  0  0  0  0  0  0  0  0
  141.0027   68.8815  224.8014 H   0  0  0  0  0  0  0  0  0  0  0  0
  140.8410   67.5639  226.8723 H   0  0  0  0  0  0  0  0  0  0  0  0
  1  2  2  0
  2  3  1  0
  3  4  2  0
  4  5  1  0
  5  6  1  0
  6  7  1  0
  7  8  1  0
  8  9  2  0
  9 10  1  0
 10 11  2  0
 11 12  1  0
 12 13  2  0
 13 14  1  0
 14 15  1  0
 15 16  2  0
 16 17  1  0
 17 18  1  0
 18 19  2  0
 19 20  1  0
 20 21  2  0
 21 22  1  0
 22 23  2  0
  4 24  1  0
 24 25  2  0
 25  1  1  0
 14  6  1  0
 23 15  1  0
 13  8  1  0
 23 18  1  0
  1 26  1  0
  2 27  1  0
  3 28  1  0
  5 29  1  0
  5 30  1  0
  7 31  1  0
  7 32  1  0
  9 33  1  0
 10 34  1  0
 11 35  1  0
 12 36  1  0
 14 37  1  6
 17 38  1  0
 19 39  1  0
 20 40  1  0
 21 41  1  0
 22 42  1  0
 24 43  1  0
 25 44  1  0
M  END
>  <smiles>  (25) 
c1ccc(CN2Cc3ccccc3C2c2n[nH]c3ccccc23)cc1

>  <score_type>  (25) 
oracle

>  <origin>  (25) 
autodockgpu

>  <m_score__min__energy>  (25) 
-7.9100000000000001

>  <m_primary>  (25) 
energy

>  <meeko>  (25) 
{"free_energy": -7.8, "intermolecular_energy": -8.7, "internal_energy": -1.22, "cluster_size": 12, "cluster_id": 2, "rank_in_cluster": 9}

>  <energy>  (25) 
-7.82

>  <cluster_rmsd>  (25) 
0.0

>  <rmsd>  (25) 
271.11

>  <cluster>  (25) 
2

$$$$

     RDKit          3D

 44 48  0  0  1  0  0  0  0  0999 V2000
  140.6210   69.6250  228.3210 C   0  0  0  0  0  0  0  0  0  0  0  0
  141.0130   68.8120  227.2850 C   0  0  0  0  0  0  0  0  0  0  0  0
  141.1040   69.2820  225.9880 C   0  0  0  0  0  0  0  0  0  0  0  0
  140.8080   70.5830  225.6830 C   0  0  0  0  0  0  0  0  0  0  0  0
  140.9020   71.1460  224.3000 C   0  0  0  0  0  0  0  0  0  0  0  0
  139.9280   70.6370  223.4170 N   0  0  0  0  0  0  0  0  0  0  0  0
  138.8860   69.8250  223.9770 C   0  0  0  0  0  0  0  0  0  0  0  0
  137.6370   70.6430  223.8780 C   0  0  0  0  0  0  0  0  0  0  0  0
  136.4300   70.5130  224.5150 C   0  0  0  0  0  0  0  0  0  0  0  0
  135.4270   71.4280  224.2350 C   0  0  0  0  0  0  0  0  0  0  0  0
  135.6730   72.4410  223.3230 C   0  0  0  0  0  0  0  0  0  0  0  0
  136.9150   72.5370  222.6960 C   0  0  0  0  0  0  0  0  0  0  0  0
  137.9260   71.6330  222.9650 C   0  0  0  0  0  0  0  0  0  0  0  0
  139.3380   71.4750  222.4670 C   0  0  1  0  0  0  0  0  0  0  0  0
  139.9500   72.7600  222.1480 C   0  0  0  0  0  0  0  0  0  0  0  0
  139.5620   74.0300  222.3460 N   0  0  0  0  0  0  0  0  0  0  0  0
  140.4630   74.8630  221.8620 N   0  0  0  0  0  0  0  0  0  0  0  0
  141.4690   74.1860  221.3320 C   0  0  0  0  0  0  0  0  0  0  0  0
  142.6610   74.5380  220.6990 C   0  0  0  0  0  0  0  0  0  0  0  0
  143.5550   73.6000  220.2340 C   0  0  0  0  0  0  0  0  0  0  0  0
  143.2680   72.2430  220.3960 C   0  0  0  0  0  0  0  0  0  0  0  0
  142.0870   71.9210  221.0220 C   0  0  0  0  0  0  0  0  0  0  0  0
  141.1880   72.8590  221.4910 C   0  0  0  0  0  0  0  0  0  0  0  0
  140.4130   71.3990  226.7340 C   0  0  0  0  0  0  0  0  0  0  0  0
  140.3130   70.9560  228.0340 C   0  0  0  0  0  0  0  0  0  0  0  0
  140.5518   69.2377  229.3482 H   0  0  0  0  0  0  0  0  0  0  0  0
  141.2607   67.7606  227.4928 H   0  0  0  0  0  0  0  0  0  0  0  0
  141.4200   68.5979  225.1867 H   0  0  0  0  0  0  0  0  0  0  0  0
  140.7809   72.2377  224.3598 H   0  0  0  0  0  0  0  0  0  0  0  0
  141.8844   70.8559  223.8992 H   0  0  0  0  0  0  0  0  0  0  0  0
  138.7789   68.8910  223.4059 H   0  0  0  0  0  0  0  0  0  0  0  0
  139.1055   69.5439  225.0176 H   0  0  0  0  0  0  0  0  0  0  0  0
  136.2607   69.6983  225.2344 H   0  0  0  0  0  0  0  0  0  0  0  0
  134.4481   71.3506  224.7308 H   0  0  0  0  0  0  0  0  0  0  0  0
  134.8851   73.1731  223.0922 H   0  0  0  0  0  0  0  0  0  0  0  0
  137.0937   73.3472  221.9738 H   0  0  0  0  0  0  0  0  0  0  0  0
  139.4572   70.9956  221.4842 H   0  0  0  0  0  0  0  0  0  0  0  0
  140.4040   75.9210  221.8850 H   0  0  0  0  0  0  0  0  0  0  0  0
  142.8954   75.6045  220.5664 H   0  0  0  0  0  0  0  0  0  0  0  0
  144.4856   73.9161  219.7400 H   0  0  0  0  0  0  0  0  0  0  0  0
  143.9577   71.4645  220.0379 H   0  0  0  0  0  0  0  0  0  0  0  0
  141.8444   70.8566  221.1569 H   0  0  0  0  0  0  0  0  0  0  0  0
  140.1682   72.4495  226.5182 H   0  0  0  0  0  0  0  0  0  0  0  0
  139.9952   71.6406  228.8342 H   0  0  0  0  0  0  0  0  0  0  0  0
  1  2  2  0
  2  3  1  0
  3  4  2  0
  4  5  1  0
  5  6  1  0
  6  7  1  0
  7  8  1  0
  8  9  2  0
  9 10  1  0
 10 11  2  0
 11 12  1  0
 12 13  2  0
 13 14  1  0
 14 15  1  0
 15 16  2  0
 16 17  1  0
 17 18  1  0
 18 19  2  0
 19 20  1  0
 20 21  2  0
 21 22  1  0
 22 23  2  0
  4 24  1  0
 24 25  2  0
 25  1  1  0
 14  6  1  0
 23 15  1  0
 13  8  1  0
 23 18  1  0
  1 26  1  0
  2 27  1  0
  3 28  1  0
  5 29  1  0
  5 30  1  0
  7 31  1  0
  7 32  1  0
  9 33  1  0
 10 34  1  0
 11 35  1  0
 12 36  1  0
 14 37  1  6
 17 38  1  0
 19 39  1  0
 20 40  1  0
 21 41  1  0
 22 42  1  0
 24 43  1  0
 25 44  1  0
M  END
>  <smiles>  (26) 
c1ccc(CN2Cc3ccccc3C2c2n[nH]c3ccccc23)cc1

>  <score_type>  (26) 
oracle

>  <origin>  (26) 
autodockgpu

>  <m_score__min__energy>  (26) 
-7.9100000000000001

>  <m_primary>  (26) 
energy

>  <meeko>  (26) 
{"free_energy": -7.52, "intermolecular_energy": -8.42, "internal_energy": -1.28, "cluster_size": 12, "cluster_id": 2, "rank_in_cluster": 12}

>  <energy>  (26) 
-7.82

>  <cluster_rmsd>  (26) 
0.01

>  <rmsd>  (26) 
271.11

>  <cluster>  (26) 
2

$$$$

     RDKit          3D

 44 48  0  0  1  0  0  0  0  0999 V2000
  137.0400   81.4990  224.9240 C   0  0  0  0  0  0  0  0  0  0  0  0
  138.0210   80.5370  224.9400 C   0  0  0  0  0  0  0  0  0  0  0  0
  138.3900   79.8580  223.7930 C   0  0  0  0  0  0  0  0  0  0  0  0
  137.7910   80.1210  222.5910 C   0  0  0  0  0  0  0  0  0  0  0  0
  138.1610   79.4250  221.3180 C   0  0  0  0  0  0  0  0  0  0  0  0
  139.4690   79.7160  220.8780 N   0  0  0  0  0  0  0  0  0  0  0  0
  139.9600   81.0480  221.0920 C   0  0  0  0  0  0  0  0  0  0  0  0
  141.0190   80.9240  222.1410 C   0  0  0  0  0  0  0  0  0  0  0  0
  141.5980   81.8740  222.9430 C   0  0  0  0  0  0  0  0  0  0  0  0
  142.5710   81.4790  223.8470 C   0  0  0  0  0  0  0  0  0  0  0  0
  142.9280   80.1420  223.9130 C   0  0  0  0  0  0  0  0  0  0  0  0
  142.3160   79.2080  223.0790 C   0  0  0  0  0  0  0  0  0  0  0  0
  141.3430   79.5860  222.1720 C   0  0  0  0  0  0  0  0  0  0  0  0
  140.5160   78.8350  221.1620 C   0  0  1  0  0  0  0  0  0  0  0  0
  140.2240   77.4750  221.6010 C   0  0  0  0  0  0  0  0  0  0  0  0
  139.2890   76.9590  222.4140 N   0  0  0  0  0  0  0  0  0  0  0  0
  139.4440   75.6520  222.5160 N   0  0  0  0  0  0  0  0  0  0  0  0
  140.4730   75.2590  221.7840 C   0  0  0  0  0  0  0  0  0  0  0  0
  141.0750   74.0290  221.5220 C   0  0  0  0  0  0  0  0  0  0  0  0
  142.1660   73.9020  220.6920 C   0  0  0  0  0  0  0  0  0  0  0  0
  142.6990   75.0410  220.0850 C   0  0  0  0  0  0  0  0  0  0  0  0
  142.0880   76.2430  220.3590 C   0  0  0  0  0  0  0  0  0  0  0  0
  140.9940   76.3730  221.1900 C   0  0  0  0  0  0  0  0  0  0  0  0
  136.8010   81.0920  222.5820 C   0  0  0  0  0  0  0  0  0  0  0  0
  136.4140   81.7820  223.7100 C   0  0  0  0  0  0  0  0  0  0  0  0
  136.7560   82.0315  225.8436 H   0  0  0  0  0  0  0  0  0  0  0  0
  138.5254   80.3011  225.8886 H   0  0  0  0  0  0  0  0  0  0  0  0
  139.1787   79.0932  223.8479 H   0  0  0  0  0  0  0  0  0  0  0  0
  138.0809   78.3397  221.4784 H   0  0  0  0  0  0  0  0  0  0  0  0
  137.4705   79.7836  220.5404 H   0  0  0  0  0  0  0  0  0  0  0  0
  140.3861   81.4538  220.1626 H   0  0  0  0  0  0  0  0  0  0  0  0
  139.1570   81.7320  221.4039 H   0  0  0  0  0  0  0  0  0  0  0  0
  141.2958   82.9292  222.8700 H   0  0  0  0  0  0  0  0  0  0  0  0
  143.0538   82.2175  224.5039 H   0  0  0  0  0  0  0  0  0  0  0  0
  143.6984   79.8159  224.6273 H   0  0  0  0  0  0  0  0  0  0  0  0
  142.6124   78.1507  223.1434 H   0  0  0  0  0  0  0  0  0  0  0  0
  141.0116   78.5915  220.2106 H   0  0  0  0  0  0  0  0  0  0  0  0
  138.8420   75.0000  223.0950 H   0  0  0  0  0  0  0  0  0  0  0  0
  140.6627   73.1262  221.9963 H   0  0  0  0  0  0  0  0  0  0  0  0
  142.6131   72.9138  220.5089 H   0  0  0  0  0  0  0  0  0  0  0  0
  143.5703   74.9799  219.4163 H   0  0  0  0  0  0  0  0  0  0  0  0
  142.4942   77.1510  219.8894 H   0  0  0  0  0  0  0  0  0  0  0  0
  136.3012   81.3222  221.6295 H   0  0  0  0  0  0  0  0  0  0  0  0
  135.6232   82.5446  223.6541 H   0  0  0  0  0  0  0  0  0  0  0  0
  1  2  2  0
  2  3  1  0
  3  4  2  0
  4  5  1  0
  5  6  1  0
  6  7  1  0
  7  8  1  0
  8  9  2  0
  9 10  1  0
 10 11  2  0
 11 12  1  0
 12 13  2  0
 13 14  1  0
 14 15  1  0
 15 16  2  0
 16 17  1  0
 17 18  1  0
 18 19  2  0
 19 20  1  0
 20 21  2  0
 21 22  1  0
 22 23  2  0
  4 24  1  0
 24 25  2  0
 25  1  1  0
 14  6  1  0
 23 15  1  0
 13  8  1  0
 23 18  1  0
  1 26  1  0
  2 27  1  0
  3 28  1  0
  5 29  1  0
  5 30  1  0
  7 31  1  0
  7 32  1  0
  9 33  1  0
 10 34  1  0
 11 35  1  0
 12 36  1  0
 14 37  1  6
 17 38  1  0
 19 39  1  0
 20 40  1  0
 21 41  1  0
 22 42  1  0
 24 43  1  0
 25 44  1  0
M  END
>  <smiles>  (27) 
c1ccc(CN2Cc3ccccc3C2c2n[nH]c3ccccc23)cc1

>  <score_type>  (27) 
oracle

>  <origin>  (27) 
autodockgpu

>  <m_score__min__energy>  (27) 
-7.9100000000000001

>  <m_primary>  (27) 
energy

>  <meeko>  (27) 
{"free_energy": -7.03, "intermolecular_energy": -7.93, "internal_energy": -1.65, "cluster_size": 4, "cluster_id": 3, "rank_in_cluster": 1}

>  <energy>  (27) 
-7.82

>  <cluster_rmsd>  (27) 
0.01

>  <rmsd>  (27) 
271.11

>  <cluster>  (27) 
2

$$$$

     RDKit          3D

 44 48  0  0  1  0  0  0  0  0999 V2000
  132.2440   69.5420  225.5430 C   0  0  0  0  0  0  0  0  0  0  0  0
  132.9280   70.7140  225.7590 C   0  0  0  0  0  0  0  0  0  0  0  0
  134.3100   70.7640  225.7240 C   0  0  0  0  0  0  0  0  0  0  0  0
  135.0530   69.6440  225.4700 C   0  0  0  0  0  0  0  0  0  0  0  0
  136.5480   69.6460  225.4080 C   0  0  0  0  0  0  0  0  0  0  0  0
  137.0580   69.5040  224.1010 N   0  0  0  0  0  0  0  0  0  0  0  0
  136.7500   70.5370  223.1530 C   0  0  0  0  0  0  0  0  0  0  0  0
  138.0390   71.2510  222.9000 C   0  0  0  0  0  0  0  0  0  0  0  0
  138.2850   72.4800  222.3420 C   0  0  0  0  0  0  0  0  0  0  0  0
  139.5990   72.9080  222.2270 C   0  0  0  0  0  0  0  0  0  0  0  0
  140.6190   72.0840  222.6770 C   0  0  0  0  0  0  0  0  0  0  0  0
  140.3250   70.8410  223.2370 C   0  0  0  0  0  0  0  0  0  0  0  0
  139.0200   70.4010  223.3590 C   0  0  0  0  0  0  0  0  0  0  0  0
  138.3950   69.1450  223.9060 C   0  0  1  0  0  0  0  0  0  0  0  0
  139.1680   68.5880  225.0110 C   0  0  0  0  0  0  0  0  0  0  0  0
  139.4860   67.3320  225.3600 N   0  0  0  0  0  0  0  0  0  0  0  0
  140.2040   67.3340  226.4670 N   0  0  0  0  0  0  0  0  0  0  0  0
  140.3870   68.5760  226.8870 C   0  0  0  0  0  0  0  0  0  0  0  0
  141.0490   69.1560  227.9680 C   0  0  0  0  0  0  0  0  0  0  0  0
  141.0830   70.5180  228.1690 C   0  0  0  0  0  0  0  0  0  0  0  0
  140.4340   71.3590  227.2620 C   0  0  0  0  0  0  0  0  0  0  0  0
  139.7880   70.7630  226.2040 C   0  0  0  0  0  0  0  0  0  0  0  0
  139.7520   69.3980  226.0000 C   0  0  0  0  0  0  0  0  0  0  0  0
  134.3560   68.4650  225.2530 C   0  0  0  0  0  0  0  0  0  0  0  0
  132.9810   68.3860  225.2830 C   0  0  0  0  0  0  0  0  0  0  0  0
  131.1448   69.5158  225.5742 H   0  0  0  0  0  0  0  0  0  0  0  0
  132.3628   71.6350  225.9648 H   0  0  0  0  0  0  0  0  0  0  0  0
  134.8206   71.7216  225.9036 H   0  0  0  0  0  0  0  0  0  0  0  0
  136.9122   70.5978  225.8221 H   0  0  0  0  0  0  0  0  0  0  0  0
  136.8965   68.7780  225.9869 H   0  0  0  0  0  0  0  0  0  0  0  0
  136.3645   70.0992  222.2204 H   0  0  0  0  0  0  0  0  0  0  0  0
  135.9756   71.2194  223.5333 H   0  0  0  0  0  0  0  0  0  0  0  0
  137.4563   73.1134  221.9927 H   0  0  0  0  0  0  0  0  0  0  0  0
  139.8290   73.8885  221.7845 H   0  0  0  0  0  0  0  0  0  0  0  0
  141.6655   72.4122  222.5920 H   0  0  0  0  0  0  0  0  0  0  0  0
  141.1464   70.1990  223.5880 H   0  0  0  0  0  0  0  0  0  0  0  0
  138.4092   68.2661  223.2447 H   0  0  0  0  0  0  0  0  0  0  0  0
  140.5860   66.4770  226.9600 H   0  0  0  0  0  0  0  0  0  0  0  0
  141.5633   68.5015  228.6871 H   0  0  0  0  0  0  0  0  0  0  0  0
  141.6155   70.9391  229.0345 H   0  0  0  0  0  0  0  0  0  0  0  0
  140.4393   72.4517  227.3885 H   0  0  0  0  0  0  0  0  0  0  0  0
  139.2712   71.4101  225.4800 H   0  0  0  0  0  0  0  0  0  0  0  0
  134.9286   67.5487  225.0470 H   0  0  0  0  0  0  0  0  0  0  0  0
  132.4723   67.4271  225.1049 H   0  0  0  0  0  0  0  0  0  0  0  0
  1  2  2  0
  2  3  1  0
  3  4  2  0
  4  5  1  0
  5  6  1  0
  6  7  1  0
  7  8  1  0
  8  9  2  0
  9 10  1  0
 10 11  2  0
 11 12  1  0
 12 13  2  0
 13 14  1  0
 14 15  1  0
 15 16  2  0
 16 17  1  0
 17 18  1  0
 18 19  2  0
 19 20  1  0
 20 21  2  0
 21 22  1  0
 22 23  2  0
  4 24  1  0
 24 25  2  0
 25  1  1  0
 14  6  1  0
 23 15  1  0
 13  8  1  0
 23 18  1  0
  1 26  1  0
  2 27  1  0
  3 28  1  0
  5 29  1  0
  5 30  1  0
  7 31  1  0
  7 32  1  0
  9 33  1  0
 10 34  1  0
 11 35  1  0
 12 36  1  0
 14 37  1  6
 17 38  1  0
 19 39  1  0
 20 40  1  0
 21 41  1  0
 22 42  1  0
 24 43  1  0
 25 44  1  0
M  END
>  <smiles>  (28) 
c1ccc(CN2Cc3ccccc3C2c2n[nH]c3ccccc23)cc1

>  <score_type>  (28) 
oracle

>  <origin>  (28) 
autodockgpu

>  <m_score__min__energy>  (28) 
-7.9100000000000001

>  <m_primary>  (28) 
energy

>  <meeko>  (28) 
{"free_energy": -7.84, "intermolecular_energy": -8.73, "internal_energy": -1.17, "cluster_size": 4, "cluster_id": 1, "rank_in_cluster": 3}

>  <energy>  (28) 
-7.82

>  <cluster_rmsd>  (28) 
0.01

>  <rmsd>  (28) 
271.12

>  <cluster>  (28) 
2

$$$$

     RDKit          3D

 44 48  0  0  1  0  0  0  0  0999 V2000
  140.4530   69.4490  228.1980 C   0  0  0  0  0  0  0  0  0  0  0  0
  140.6750   68.7610  227.0290 C   0  0  0  0  0  0  0  0  0  0  0  0
  140.7530   69.4080  225.8100 C   0  0  0  0  0  0  0  0  0  0  0  0
  140.6130   70.7660  225.7180 C   0  0  0  0  0  0  0  0  0  0  0  0
  140.7020   71.5170  224.4260 C   0  0  0  0  0  0  0  0  0  0  0  0
  139.8070   71.0500  223.4410 N   0  0  0  0  0  0  0  0  0  0  0  0
  138.5480   70.5240  223.8860 C   0  0  0  0  0  0  0  0  0  0  0  0
  137.5180   71.5190  223.4490 C   0  0  0  0  0  0  0  0  0  0  0  0
  136.2200   71.6970  223.8540 C   0  0  0  0  0  0  0  0  0  0  0  0
  135.4760   72.7140  223.2770 C   0  0  0  0  0  0  0  0  0  0  0  0
  136.0650   73.5170  222.3130 C   0  0  0  0  0  0  0  0  0  0  0  0
  137.3880   73.3010  221.9290 C   0  0  0  0  0  0  0  0  0  0  0  0
  138.1430   72.2910  222.4960 C   0  0  0  0  0  0  0  0  0  0  0  0
  139.5590   71.8180  222.3010 C   0  0  1  0  0  0  0  0  0  0  0  0
  140.4560   72.9150  221.9520 C   0  0  0  0  0  0  0  0  0  0  0  0
  140.3770   74.2450  222.1160 N   0  0  0  0  0  0  0  0  0  0  0  0
  141.4470   74.8310  221.6130 N   0  0  0  0  0  0  0  0  0  0  0  0
  142.2640   73.9230  221.1040 C   0  0  0  0  0  0  0  0  0  0  0  0
  143.5030   73.9680  220.4650 C   0  0  0  0  0  0  0  0  0  0  0  0
  144.1510   72.8350  220.0270 C   0  0  0  0  0  0  0  0  0  0  0  0
  143.5530   71.5880  220.2220 C   0  0  0  0  0  0  0  0  0  0  0  0
  142.3310   71.5690  220.8540 C   0  0  0  0  0  0  0  0  0  0  0  0
  141.6800   72.7030  221.2950 C   0  0  0  0  0  0  0  0  0  0  0  0
  140.3900   71.4550  226.9010 C   0  0  0  0  0  0  0  0  0  0  0  0
  140.3060   70.8360  228.1290 C   0  0  0  0  0  0  0  0  0  0  0  0
  140.3928   68.9216  229.1614 H   0  0  0  0  0  0  0  0  0  0  0  0
  140.7936   67.6680  227.0644 H   0  0  0  0  0  0  0  0  0  0  0  0
  140.9309   68.8204  224.8972 H   0  0  0  0  0  0  0  0  0  0  0  0
  140.4810   72.5764  224.6231 H   0  0  0  0  0  0  0  0  0  0  0  0
  141.7194   71.3688  224.0351 H   0  0  0  0  0  0  0  0  0  0  0  0
  138.3561   69.5446  223.4234 H   0  0  0  0  0  0  0  0  0  0  0  0
  138.5321   70.3741  224.9756 H   0  0  0  0  0  0  0  0  0  0  0  0
  135.7779   71.0452  224.6220 H   0  0  0  0  0  0  0  0  0  0  0  0
  134.4319   72.8817  223.5800 H   0  0  0  0  0  0  0  0  0  0  0  0
  135.4859   74.3287  221.8485 H   0  0  0  0  0  0  0  0  0  0  0  0
  137.8393   73.9461  221.1608 H   0  0  0  0  0  0  0  0  0  0  0  0
  139.7428   71.1784  221.4252 H   0  0  0  0  0  0  0  0  0  0  0  0
  141.6400   75.8730  221.6090 H   0  0  0  0  0  0  0  0  0  0  0  0
  143.9805   74.9459  220.3049 H   0  0  0  0  0  0  0  0  0  0  0  0
  145.1289   72.9110  219.5290 H   0  0  0  0  0  0  0  0  0  0  0  0
  144.0384   70.6603  219.8846 H   0  0  0  0  0  0  0  0  0  0  0  0
  141.8458   70.5953  221.0169 H   0  0  0  0  0  0  0  0  0  0  0  0
  140.2747   72.5480  226.8566 H   0  0  0  0  0  0  0  0  0  0  0  0
  140.1260   71.4249  229.0405 H   0  0  0  0  0  0  0  0  0  0  0  0
  1  2  2  0
  2  3  1  0
  3  4  2  0
  4  5  1  0
  5  6  1  0
  6  7  1  0
  7  8  1  0
  8  9  2  0
  9 10  1  0
 10 11  2  0
 11 12  1  0
 12 13  2  0
 13 14  1  0
 14 15  1  0
 15 16  2  0
 16 17  1  0
 17 18  1  0
 18 19  2  0
 19 20  1  0
 20 21  2  0
 21 22  1  0
 22 23  2  0
  4 24  1  0
 24 25  2  0
 25  1  1  0
 14  6  1  0
 23 15  1  0
 13  8  1  0
 23 18  1  0
  1 26  1  0
  2 27  1  0
  3 28  1  0
  5 29  1  0
  5 30  1  0
  7 31  1  0
  7 32  1  0
  9 33  1  0
 10 34  1  0
 11 35  1  0
 12 36  1  0
 14 37  1  6
 17 38  1  0
 19 39  1  0
 20 40  1  0
 21 41  1  0
 22 42  1  0
 24 43  1  0
 25 44  1  0
M  END
>  <smiles>  (29) 
c1ccc(CN2Cc3ccccc3C2c2n[nH]c3ccccc23)cc1

>  <score_type>  (29) 
oracle

>  <origin>  (29) 
autodockgpu

>  <m_score__min__energy>  (29) 
-7.9100000000000001

>  <m_primary>  (29) 
energy

>  <meeko>  (29) 
{"free_energy": -7.82, "intermolecular_energy": -8.71, "internal_energy": -1.22, "cluster_size": 12, "cluster_id": 2, "rank_in_cluster": 6}

>  <energy>  (29) 
-7.82

>  <cluster_rmsd>  (29) 
0.01

>  <rmsd>  (29) 
271.11

>  <cluster>  (29) 
2

$$$$

     RDKit          3D

 44 48  0  0  1  0  0  0  0  0999 V2000
  140.4570   69.4210  228.1570 C   0  0  0  0  0  0  0  0  0  0  0  0
  140.6830   68.7410  226.9850 C   0  0  0  0  0  0  0  0  0  0  0  0
  140.7600   69.3940  225.7690 C   0  0  0  0  0  0  0  0  0  0  0  0
  140.6150   70.7530  225.6850 C   0  0  0  0  0  0  0  0  0  0  0  0
  140.7020   71.5100  224.3970 C   0  0  0  0  0  0  0  0  0  0  0  0
  139.8060   71.0500  223.4110 N   0  0  0  0  0  0  0  0  0  0  0  0
  138.5450   70.5250  223.8540 C   0  0  0  0  0  0  0  0  0  0  0  0
  137.5180   71.5240  223.4210 C   0  0  0  0  0  0  0  0  0  0  0  0
  136.2200   71.7030  223.8280 C   0  0  0  0  0  0  0  0  0  0  0  0
  135.4790   72.7250  223.2550 C   0  0  0  0  0  0  0  0  0  0  0  0
  136.0690   73.5300  222.2930 C   0  0  0  0  0  0  0  0  0  0  0  0
  137.3910   73.3120  221.9080 C   0  0  0  0  0  0  0  0  0  0  0  0
  138.1440   72.2980  222.4700 C   0  0  0  0  0  0  0  0  0  0  0  0
  139.5590   71.8230  222.2730 C   0  0  1  0  0  0  0  0  0  0  0  0
  140.4580   72.9190  221.9280 C   0  0  0  0  0  0  0  0  0  0  0  0
  140.3800   74.2490  222.0910 N   0  0  0  0  0  0  0  0  0  0  0  0
  141.4530   74.8330  221.5930 N   0  0  0  0  0  0  0  0  0  0  0  0
  142.2720   73.9250  221.0880 C   0  0  0  0  0  0  0  0  0  0  0  0
  143.5140   73.9690  220.4570 C   0  0  0  0  0  0  0  0  0  0  0  0
  144.1630   72.8340  220.0230 C   0  0  0  0  0  0  0  0  0  0  0  0
  143.5640   71.5880  220.2160 C   0  0  0  0  0  0  0  0  0  0  0  0
  142.3380   71.5700  220.8410 C   0  0  0  0  0  0  0  0  0  0  0  0
  141.6860   72.7050  221.2780 C   0  0  0  0  0  0  0  0  0  0  0  0
  140.3870   71.4340  226.8710 C   0  0  0  0  0  0  0  0  0  0  0  0
  140.3050   70.8070  228.0950 C   0  0  0  0  0  0  0  0  0  0  0  0
  140.3975   68.8881  229.1174 H   0  0  0  0  0  0  0  0  0  0  0  0
  140.8059   67.6483  227.0149 H   0  0  0  0  0  0  0  0  0  0  0  0
  140.9408   68.8120  224.8533 H   0  0  0  0  0  0  0  0  0  0  0  0
  140.4822   72.5685  224.6001 H   0  0  0  0  0  0  0  0  0  0  0  0
  141.7186   71.3620  224.0037 H   0  0  0  0  0  0  0  0  0  0  0  0
  138.3507   69.5480  223.3875 H   0  0  0  0  0  0  0  0  0  0  0  0
  138.5286   70.3707  224.9430 H   0  0  0  0  0  0  0  0  0  0  0  0
  135.7764   71.0490  224.5932 H   0  0  0  0  0  0  0  0  0  0  0  0
  134.4359   72.8950  223.5599 H   0  0  0  0  0  0  0  0  0  0  0  0
  135.4915   74.3444  221.8313 H   0  0  0  0  0  0  0  0  0  0  0  0
  137.8436   73.9592  221.1424 H   0  0  0  0  0  0  0  0  0  0  0  0
  139.7411   71.1863  221.3947 H   0  0  0  0  0  0  0  0  0  0  0  0
  141.6460   75.8750  221.5890 H   0  0  0  0  0  0  0  0  0  0  0  0
  143.9938   74.9463  220.2997 H   0  0  0  0  0  0  0  0  0  0  0  0
  145.1432   72.9088  219.5294 H   0  0  0  0  0  0  0  0  0  0  0  0
  144.0512   70.6598  219.8827 H   0  0  0  0  0  0  0  0  0  0  0  0
  141.8508   70.5969  221.0011 H   0  0  0  0  0  0  0  0  0  0  0  0
  140.2658   72.5266  226.8328 H   0  0  0  0  0  0  0  0  0  0  0  0
  140.1224   71.3900  229.0097 H   0  0  0  0  0  0  0  0  0  0  0  0
  1  2  2  0
  2  3  1  0
  3  4  2  0
  4  5  1  0
  5  6  1  0
  6  7  1  0
  7  8  1  0
  8  9  2  0
  9 10  1  0
 10 11  2  0
 11 12  1  0
 12 13  2  0
 13 14  1  0
 14 15  1  0
 15 16  2  0
 16 17  1  0
 17 18  1  0
 18 19  2  0
 19 20  1  0
 20 21  2  0
 21 22  1  0
 22 23  2  0
  4 24  1  0
 24 25  2  0
 25  1  1  0
 14  6  1  0
 23 15  1  0
 13  8  1  0
 23 18  1  0
  1 26  1  0
  2 27  1  0
  3 28  1  0
  5 29  1  0
  5 30  1  0
  7 31  1  0
  7 32  1  0
  9 33  1  0
 10 34  1  0
 11 35  1  0
 12 36  1  0
 14 37  1  6
 17 38  1  0
 19 39  1  0
 20 40  1  0
 21 41  1  0
 22 42  1  0
 24 43  1  0
 25 44  1  0
M  END
>  <smiles>  (30) 
c1ccc(CN2Cc3ccccc3C2c2n[nH]c3ccccc23)cc1

>  <score_type>  (30) 
oracle

>  <origin>  (30) 
autodockgpu

>  <m_score__min__energy>  (30) 
-7.9100000000000001

>  <m_primary>  (30) 
energy

>  <meeko>  (30) 
{"free_energy": -7.82, "intermolecular_energy": -8.71, "internal_energy": -1.22, "cluster_size": 12, "cluster_id": 2, "rank_in_cluster": 5}

>  <energy>  (30) 
-7.82

>  <cluster_rmsd>  (30) 
0.02

>  <rmsd>  (30) 
271.13

>  <cluster>  (30) 
2

$$$$

     RDKit          3D

 44 48  0  0  1  0  0  0  0  0999 V2000
  140.4510   69.4400  228.1870 C   0  0  0  0  0  0  0  0  0  0  0  0
  140.6740   68.7510  227.0200 C   0  0  0  0  0  0  0  0  0  0  0  0
  140.7530   69.3960  225.7990 C   0  0  0  0  0  0  0  0  0  0  0  0
  140.6130   70.7540  225.7060 C   0  0  0  0  0  0  0  0  0  0  0  0
  140.7020   71.5030  224.4140 C   0  0  0  0  0  0  0  0  0  0  0  0
  139.8040   71.0400  223.4310 N   0  0  0  0  0  0  0  0  0  0  0  0
  138.5430   70.5170  223.8780 C   0  0  0  0  0  0  0  0  0  0  0  0
  137.5160   71.5150  223.4450 C   0  0  0  0  0  0  0  0  0  0  0  0
  136.2190   71.6960  223.8530 C   0  0  0  0  0  0  0  0  0  0  0  0
  135.4770   72.7160  223.2790 C   0  0  0  0  0  0  0  0  0  0  0  0
  136.0650   73.5180  222.3130 C   0  0  0  0  0  0  0  0  0  0  0  0
  137.3860   73.2980  221.9260 C   0  0  0  0  0  0  0  0  0  0  0  0
  138.1400   72.2860  222.4900 C   0  0  0  0  0  0  0  0  0  0  0  0
  139.5550   71.8090  222.2910 C   0  0  1  0  0  0  0  0  0  0  0  0
  140.4530   72.9040  221.9400 C   0  0  0  0  0  0  0  0  0  0  0  0
  140.3780   74.2340  222.1020 N   0  0  0  0  0  0  0  0  0  0  0  0
  141.4490   74.8170  221.5990 N   0  0  0  0  0  0  0  0  0  0  0  0
  142.2640   73.9060  221.0910 C   0  0  0  0  0  0  0  0  0  0  0  0
  143.5030   73.9480  220.4530 C   0  0  0  0  0  0  0  0  0  0  0  0
  144.1480   72.8130  220.0170 C   0  0  0  0  0  0  0  0  0  0  0  0
  143.5490   71.5670  220.2140 C   0  0  0  0  0  0  0  0  0  0  0  0
  142.3260   71.5520  220.8450 C   0  0  0  0  0  0  0  0  0  0  0  0
  141.6770   72.6880  221.2850 C   0  0  0  0  0  0  0  0  0  0  0  0
  140.3870   71.4440  226.8880 C   0  0  0  0  0  0  0  0  0  0  0  0
  140.3030   70.8260  228.1160 C   0  0  0  0  0  0  0  0  0  0  0  0
  140.3907   68.9139  229.1511 H   0  0  0  0  0  0  0  0  0  0  0  0
  140.7928   67.6581  227.0574 H   0  0  0  0  0  0  0  0  0  0  0  0
  140.9314   68.8072  224.8871 H   0  0  0  0  0  0  0  0  0  0  0  0
  140.4857   72.5634  224.6110 H   0  0  0  0  0  0  0  0  0  0  0  0
  141.7179   71.3496  224.0212 H   0  0  0  0  0  0  0  0  0  0  0  0
  138.3471   69.5389  223.4143 H   0  0  0  0  0  0  0  0  0  0  0  0
  138.5288   70.3656  224.9674 H   0  0  0  0  0  0  0  0  0  0  0  0
  135.7765   71.0443  224.6208 H   0  0  0  0  0  0  0  0  0  0  0  0
  134.4347   72.8872  223.5860 H   0  0  0  0  0  0  0  0  0  0  0  0
  135.4868   74.3312  221.8501 H   0  0  0  0  0  0  0  0  0  0  0  0
  137.8371   73.9422  221.1569 H   0  0  0  0  0  0  0  0  0  0  0  0
  139.7354   71.1687  221.4149 H   0  0  0  0  0  0  0  0  0  0  0  0
  141.6430   75.8580  221.5930 H   0  0  0  0  0  0  0  0  0  0  0  0
  143.9829   74.9246  220.2921 H   0  0  0  0  0  0  0  0  0  0  0  0
  145.1257   72.8866  219.5183 H   0  0  0  0  0  0  0  0  0  0  0  0
  144.0336   70.6379  219.8794 H   0  0  0  0  0  0  0  0  0  0  0  0
  141.8381   70.5797  221.0079 H   0  0  0  0  0  0  0  0  0  0  0  0
  140.2693   72.5367  226.8424 H   0  0  0  0  0  0  0  0  0  0  0  0
  140.1220   71.4157  229.0268 H   0  0  0  0  0  0  0  0  0  0  0  0
  1  2  2  0
  2  3  1  0
  3  4  2  0
  4  5  1  0
  5  6  1  0
  6  7  1  0
  7  8  1  0
  8  9  2  0
  9 10  1  0
 10 11  2  0
 11 12  1  0
 12 13  2  0
 13 14  1  0
 14 15  1  0
 15 16  2  0
 16 17  1  0
 17 18  1  0
 18 19  2  0
 19 20  1  0
 20 21  2  0
 21 22  1  0
 22 23  2  0
  4 24  1  0
 24 25  2  0
 25  1  1  0
 14  6  1  0
 23 15  1  0
 13  8  1  0
 23 18  1  0
  1 26  1  0
  2 27  1  0
  3 28  1  0
  5 29  1  0
  5 30  1  0
  7 31  1  0
  7 32  1  0
  9 33  1  0
 10 34  1  0
 11 35  1  0
 12 36  1  0
 14 37  1  6
 17 38  1  0
 19 39  1  0
 20 40  1  0
 21 41  1  0
 22 42  1  0
 24 43  1  0
 25 44  1  0
M  END
>  <smiles>  (31) 
c1ccc(CN2Cc3ccccc3C2c2n[nH]c3ccccc23)cc1

>  <score_type>  (31) 
oracle

>  <origin>  (31) 
autodockgpu

>  <m_score__min__energy>  (31) 
-7.9100000000000001

>  <m_primary>  (31) 
energy

>  <meeko>  (31) 
{"free_energy": -7.82, "intermolecular_energy": -8.71, "internal_energy": -1.22, "cluster_size": 12, "cluster_id": 2, "rank_in_cluster": 4}

>  <energy>  (31) 
-7.82

>  <cluster_rmsd>  (31) 
0.02

>  <rmsd>  (31) 
271.12

>  <cluster>  (31) 
2

$$$$

     RDKit          3D

 44 48  0  0  1  0  0  0  0  0999 V2000
  137.0520   81.4890  224.9360 C   0  0  0  0  0  0  0  0  0  0  0  0
  138.0310   80.5260  224.9410 C   0  0  0  0  0  0  0  0  0  0  0  0
  138.3960   79.8560  223.7880 C   0  0  0  0  0  0  0  0  0  0  0  0
  137.7940   80.1290  222.5900 C   0  0  0  0  0  0  0  0  0  0  0  0
  138.1600   79.4430  221.3110 C   0  0  0  0  0  0  0  0  0  0  0  0
  139.4710   79.7260  220.8750 N   0  0  0  0  0  0  0  0  0  0  0  0
  139.9690   81.0550  221.0900 C   0  0  0  0  0  0  0  0  0  0  0  0
  141.0230   80.9270  222.1440 C   0  0  0  0  0  0  0  0  0  0  0  0
  141.6040   81.8750  222.9470 C   0  0  0  0  0  0  0  0  0  0  0  0
  142.5710   81.4750  223.8560 C   0  0  0  0  0  0  0  0  0  0  0  0
  142.9200   80.1360  223.9250 C   0  0  0  0  0  0  0  0  0  0  0  0
  142.3060   79.2050  223.0890 C   0  0  0  0  0  0  0  0  0  0  0  0
  141.3390   79.5870  222.1780 C   0  0  0  0  0  0  0  0  0  0  0  0
  140.5120   78.8390  221.1650 C   0  0  1  0  0  0  0  0  0  0  0  0
  140.2110   77.4810  221.6050 C   0  0  0  0  0  0  0  0  0  0  0  0
  139.2710   76.9720  222.4160 N   0  0  0  0  0  0  0  0  0  0  0  0
  139.4170   75.6650  222.5190 N   0  0  0  0  0  0  0  0  0  0  0  0
  140.4450   75.2640  221.7900 C   0  0  0  0  0  0  0  0  0  0  0  0
  141.0400   74.0300  221.5300 C   0  0  0  0  0  0  0  0  0  0  0  0
  142.1320   73.8960  220.7020 C   0  0  0  0  0  0  0  0  0  0  0  0
  142.6740   75.0310  220.0950 C   0  0  0  0  0  0  0  0  0  0  0  0
  142.0700   76.2370  220.3670 C   0  0  0  0  0  0  0  0  0  0  0  0
  140.9740   76.3750  221.1960 C   0  0  0  0  0  0  0  0  0  0  0  0
  136.8060   81.1020  222.5910 C   0  0  0  0  0  0  0  0  0  0  0  0
  136.4230   81.7840  223.7260 C   0  0  0  0  0  0  0  0  0  0  0  0
  136.7712   82.0137  225.8611 H   0  0  0  0  0  0  0  0  0  0  0  0
  138.5376   80.2815  225.8863 H   0  0  0  0  0  0  0  0  0  0  0  0
  139.1841   79.0901  223.8346 H   0  0  0  0  0  0  0  0  0  0  0  0
  138.0698   78.3569  221.4605 H   0  0  0  0  0  0  0  0  0  0  0  0
  137.4741   79.8164  220.5363 H   0  0  0  0  0  0  0  0  0  0  0  0
  140.4015   81.4573  220.1620 H   0  0  0  0  0  0  0  0  0  0  0  0
  139.1684   81.7436  221.3981 H   0  0  0  0  0  0  0  0  0  0  0  0
  141.3085   82.9318  222.8712 H   0  0  0  0  0  0  0  0  0  0  0  0
  143.0552   82.2114  224.5143 H   0  0  0  0  0  0  0  0  0  0  0  0
  143.6853   79.8061  224.6430 H   0  0  0  0  0  0  0  0  0  0  0  0
  142.5964   78.1461  223.1554 H   0  0  0  0  0  0  0  0  0  0  0  0
  141.0097   78.5912  220.2158 H   0  0  0  0  0  0  0  0  0  0  0  0
  138.8090   75.0170  223.0980 H   0  0  0  0  0  0  0  0  0  0  0  0
  140.6214   73.1300  222.0041 H   0  0  0  0  0  0  0  0  0  0  0  0
  142.5731   72.9048  220.5204 H   0  0  0  0  0  0  0  0  0  0  0  0
  143.5462   74.9637  219.4281 H   0  0  0  0  0  0  0  0  0  0  0  0
  142.4833   77.1420  219.8979 H   0  0  0  0  0  0  0  0  0  0  0  0
  136.3044   81.3408  221.6416 H   0  0  0  0  0  0  0  0  0  0  0  0
  135.6338   82.5488  223.6785 H   0  0  0  0  0  0  0  0  0  0  0  0
  1  2  2  0
  2  3  1  0
  3  4  2  0
  4  5  1  0
  5  6  1  0
  6  7  1  0
  7  8  1  0
  8  9  2  0
  9 10  1  0
 10 11  2  0
 11 12  1  0
 12 13  2  0
 13 14  1  0
 14 15  1  0
 15 16  2  0
 16 17  1  0
 17 18  1  0
 18 19  2  0
 19 20  1  0
 20 21  2  0
 21 22  1  0
 22 23  2  0
  4 24  1  0
 24 25  2  0
 25  1  1  0
 14  6  1  0
 23 15  1  0
 13  8  1  0
 23 18  1  0
  1 26  1  0
  2 27  1  0
  3 28  1  0
  5 29  1  0
  5 30  1  0
  7 31  1  0
  7 32  1  0
  9 33  1  0
 10 34  1  0
 11 35  1  0
 12 36  1  0
 14 37  1  6
 17 38  1  0
 19 39  1  0
 20 40  1  0
 21 41  1  0
 22 42  1  0
 24 43  1  0
 25 44  1  0
M  END
>  <smiles>  (32) 
c1ccc(CN2Cc3ccccc3C2c2n[nH]c3ccccc23)cc1

>  <score_type>  (32) 
oracle

>  <origin>  (32) 
autodockgpu

>  <m_score__min__energy>  (32) 
-7.9100000000000001

>  <m_primary>  (32) 
energy

>  <meeko>  (32) 
{"free_energy": -7.03, "intermolecular_energy": -7.92, "internal_energy": -1.65, "cluster_size": 4, "cluster_id": 3, "rank_in_cluster": 2}

>  <energy>  (32) 
-7.82

>  <cluster_rmsd>  (32) 
0.03

>  <rmsd>  (32) 
271.12

>  <cluster>  (32) 
2

$$$$

     RDKit          3D

 44 48  0  0  1  0  0  0  0  0999 V2000
  140.4260   69.3140  228.1230 C   0  0  0  0  0  0  0  0  0  0  0  0
  140.2410   70.6750  228.0990 C   0  0  0  0  0  0  0  0  0  0  0  0
  140.3330   71.3990  226.9250 C   0  0  0  0  0  0  0  0  0  0  0  0
  140.6110   70.7860  225.7330 C   0  0  0  0  0  0  0  0  0  0  0  0
  140.7080   71.5200  224.4330 C   0  0  0  0  0  0  0  0  0  0  0  0
  139.8190   71.0420  223.4480 N   0  0  0  0  0  0  0  0  0  0  0  0
  138.5610   70.5120  223.8930 C   0  0  0  0  0  0  0  0  0  0  0  0
  137.5270   71.4970  223.4470 C   0  0  0  0  0  0  0  0  0  0  0  0
  136.2270   71.6700  223.8470 C   0  0  0  0  0  0  0  0  0  0  0  0
  135.4780   72.6790  223.2610 C   0  0  0  0  0  0  0  0  0  0  0  0
  136.0650   73.4790  222.2930 C   0  0  0  0  0  0  0  0  0  0  0  0
  137.3900   73.2680  221.9140 C   0  0  0  0  0  0  0  0  0  0  0  0
  138.1500   72.2660  222.4890 C   0  0  0  0  0  0  0  0  0  0  0  0
  139.5700   71.8010  222.3020 C   0  0  1  0  0  0  0  0  0  0  0  0
  140.4600   72.9010  221.9480 C   0  0  0  0  0  0  0  0  0  0  0  0
  140.3780   74.2300  222.1130 N   0  0  0  0  0  0  0  0  0  0  0  0
  141.4440   74.8200  221.6050 N   0  0  0  0  0  0  0  0  0  0  0  0
  142.2610   73.9140  221.0910 C   0  0  0  0  0  0  0  0  0  0  0  0
  143.4970   73.9640  220.4470 C   0  0  0  0  0  0  0  0  0  0  0  0
  144.1460   72.8330  220.0060 C   0  0  0  0  0  0  0  0  0  0  0  0
  143.5540   71.5840  220.2050 C   0  0  0  0  0  0  0  0  0  0  0  0
  142.3350   71.5610  220.8420 C   0  0  0  0  0  0  0  0  0  0  0  0
  141.6820   72.6930  221.2860 C   0  0  0  0  0  0  0  0  0  0  0  0
  140.7970   69.4120  225.7640 C   0  0  0  0  0  0  0  0  0  0  0  0
  140.7120   68.6660  226.9190 C   0  0  0  0  0  0  0  0  0  0  0  0
  140.3510   68.7500  229.0644 H   0  0  0  0  0  0  0  0  0  0  0  0
  140.0140   71.2019  229.0375 H   0  0  0  0  0  0  0  0  0  0  0  0
  140.1800   72.4880  226.9491 H   0  0  0  0  0  0  0  0  0  0  0  0
  140.4866   72.5819  224.6156 H   0  0  0  0  0  0  0  0  0  0  0  0
  141.7276   71.3655  224.0502 H   0  0  0  0  0  0  0  0  0  0  0  0
  138.3760   69.5284  223.4365 H   0  0  0  0  0  0  0  0  0  0  0  0
  138.5430   70.3698  224.9836 H   0  0  0  0  0  0  0  0  0  0  0  0
  135.7867   71.0207  224.6181 H   0  0  0  0  0  0  0  0  0  0  0  0
  134.4322   72.8424  223.5602 H   0  0  0  0  0  0  0  0  0  0  0  0
  135.4825   74.2843  221.8216 H   0  0  0  0  0  0  0  0  0  0  0  0
  137.8394   73.9109  221.1428 H   0  0  0  0  0  0  0  0  0  0  0  0
  139.7617   71.1565  221.4315 H   0  0  0  0  0  0  0  0  0  0  0  0
  141.6330   75.8620  221.5990 H   0  0  0  0  0  0  0  0  0  0  0  0
  143.9708   74.9435  220.2855 H   0  0  0  0  0  0  0  0  0  0  0  0
  145.1206   72.9122  219.5022 H   0  0  0  0  0  0  0  0  0  0  0  0
  144.0417   70.6579  219.8668 H   0  0  0  0  0  0  0  0  0  0  0  0
  141.8537   70.5857  221.0068 H   0  0  0  0  0  0  0  0  0  0  0  0
  141.0233   68.8929  224.8210 H   0  0  0  0  0  0  0  0  0  0  0  0
  140.8669   67.5773  226.8936 H   0  0  0  0  0  0  0  0  0  0  0  0
  1  2  2  0
  2  3  1  0
  3  4  2  0
  4  5  1  0
  5  6  1  0
  6  7  1  0
  7  8  1  0
  8  9  2  0
  9 10  1  0
 10 11  2  0
 11 12  1  0
 12 13  2  0
 13 14  1  0
 14 15  1  0
 15 16  2  0
 16 17  1  0
 17 18  1  0
 18 19  2  0
 19 20  1  0
 20 21  2  0
 21 22  1  0
 22 23  2  0
  4 24  1  0
 24 25  2  0
 25  1  1  0
 14  6  1  0
 23 15  1  0
 13  8  1  0
 23 18  1  0
  1 26  1  0
  2 27  1  0
  3 28  1  0
  5 29  1  0
  5 30  1  0
  7 31  1  0
  7 32  1  0
  9 33  1  0
 10 34  1  0
 11 35  1  0
 12 36  1  0
 14 37  1  6
 17 38  1  0
 19 39  1  0
 20 40  1  0
 21 41  1  0
 22 42  1  0
 24 43  1  0
 25 44  1  0
M  END
>  <smiles>  (33) 
c1ccc(CN2Cc3ccccc3C2c2n[nH]c3ccccc23)cc1

>  <score_type>  (33) 
oracle

>  <origin>  (33) 
autodockgpu

>  <m_score__min__energy>  (33) 
-7.9100000000000001

>  <m_primary>  (33) 
energy

>  <meeko>  (33) 
{"free_energy": -7.8, "intermolecular_energy": -8.69, "internal_energy": -1.22, "cluster_size": 12, "cluster_id": 2, "rank_in_cluster": 11}

>  <energy>  (33) 
-7.8

>  <cluster_rmsd>  (33) 
0.06

>  <rmsd>  (33) 
271.1

>  <cluster>  (33) 
2

$$$$

     RDKit          3D

 44 48  0  0  1  0  0  0  0  0999 V2000
  140.4690   69.4320  228.1650 C   0  0  0  0  0  0  0  0  0  0  0  0
  140.6850   68.7480  226.9920 C   0  0  0  0  0  0  0  0  0  0  0  0
  140.7600   69.4000  225.7750 C   0  0  0  0  0  0  0  0  0  0  0  0
  140.6230   70.7590  225.6890 C   0  0  0  0  0  0  0  0  0  0  0  0
  140.7080   71.5140  224.4010 C   0  0  0  0  0  0  0  0  0  0  0  0
  139.8100   71.0510  223.4160 N   0  0  0  0  0  0  0  0  0  0  0  0
  138.5500   70.5290  223.8620 C   0  0  0  0  0  0  0  0  0  0  0  0
  137.5230   71.5270  223.4280 C   0  0  0  0  0  0  0  0  0  0  0  0
  136.2260   71.7080  223.8350 C   0  0  0  0  0  0  0  0  0  0  0  0
  135.4840   72.7280  223.2600 C   0  0  0  0  0  0  0  0  0  0  0  0
  136.0730   73.5300  222.2960 C   0  0  0  0  0  0  0  0  0  0  0  0
  137.3950   73.3110  221.9100 C   0  0  0  0  0  0  0  0  0  0  0  0
  138.1480   72.2980  222.4740 C   0  0  0  0  0  0  0  0  0  0  0  0
  139.5630   71.8220  222.2770 C   0  0  1  0  0  0  0  0  0  0  0  0
  140.4620   72.9160  221.9280 C   0  0  0  0  0  0  0  0  0  0  0  0
  140.3870   74.2460  222.0920 N   0  0  0  0  0  0  0  0  0  0  0  0
  141.4590   74.8290  221.5890 N   0  0  0  0  0  0  0  0  0  0  0  0
  142.2740   73.9200  221.0800 C   0  0  0  0  0  0  0  0  0  0  0  0
  143.5130   73.9620  220.4430 C   0  0  0  0  0  0  0  0  0  0  0  0
  144.1580   72.8270  220.0050 C   0  0  0  0  0  0  0  0  0  0  0  0
  143.5580   71.5810  220.2000 C   0  0  0  0  0  0  0  0  0  0  0  0
  142.3350   71.5650  220.8310 C   0  0  0  0  0  0  0  0  0  0  0  0
  141.6860   72.7010  221.2720 C   0  0  0  0  0  0  0  0  0  0  0  0
  140.4050   71.4430  226.8760 C   0  0  0  0  0  0  0  0  0  0  0  0
  140.3250   70.8190  228.1020 C   0  0  0  0  0  0  0  0  0  0  0  0
  140.4112   68.9009  229.1265 H   0  0  0  0  0  0  0  0  0  0  0  0
  140.8011   67.6546  227.0225 H   0  0  0  0  0  0  0  0  0  0  0  0
  140.9329   68.8157  224.8592 H   0  0  0  0  0  0  0  0  0  0  0  0
  140.4875   72.5726  224.6029 H   0  0  0  0  0  0  0  0  0  0  0  0
  141.7243   71.3669  224.0066 H   0  0  0  0  0  0  0  0  0  0  0  0
  138.3543   69.5507  223.3986 H   0  0  0  0  0  0  0  0  0  0  0  0
  138.5353   70.3783  224.9515 H   0  0  0  0  0  0  0  0  0  0  0  0
  135.7831   71.0565  224.6028 H   0  0  0  0  0  0  0  0  0  0  0  0
  134.4410   72.8984  223.5652 H   0  0  0  0  0  0  0  0  0  0  0  0
  135.4951   74.3434  221.8329 H   0  0  0  0  0  0  0  0  0  0  0  0
  137.8471   73.9563  221.1424 H   0  0  0  0  0  0  0  0  0  0  0  0
  139.7448   71.1834  221.4000 H   0  0  0  0  0  0  0  0  0  0  0  0
  141.6530   75.8710  221.5850 H   0  0  0  0  0  0  0  0  0  0  0  0
  143.9937   74.9386  220.2842 H   0  0  0  0  0  0  0  0  0  0  0  0
  145.1358   72.9009  219.5066 H   0  0  0  0  0  0  0  0  0  0  0  0
  144.0421   70.6523  219.8637 H   0  0  0  0  0  0  0  0  0  0  0  0
  141.8472   70.5925  220.9931 H   0  0  0  0  0  0  0  0  0  0  0  0
  140.2905   72.5363  226.8367 H   0  0  0  0  0  0  0  0  0  0  0  0
  140.1504   71.4047  229.0166 H   0  0  0  0  0  0  0  0  0  0  0  0
  1  2  2  0
  2  3  1  0
  3  4  2  0
  4  5  1  0
  5  6  1  0
  6  7  1  0
  7  8  1  0
  8  9  2  0
  9 10  1  0
 10 11  2  0
 11 12  1  0
 12 13  2  0
 13 14  1  0
 14 15  1  0
 15 16  2  0
 16 17  1  0
 17 18  1  0
 18 19  2  0
 19 20  1  0
 20 21  2  0
 21 22  1  0
 22 23  2  0
  4 24  1  0
 24 25  2  0
 25  1  1  0
 14  6  1  0
 23 15  1  0
 13  8  1  0
 23 18  1  0
  1 26  1  0
  2 27  1  0
  3 28  1  0
  5 29  1  0
  5 30  1  0
  7 31  1  0
  7 32  1  0
  9 33  1  0
 10 34  1  0
 11 35  1  0
 12 36  1  0
 14 37  1  6
 17 38  1  0
 19 39  1  0
 20 40  1  0
 21 41  1  0
 22 42  1  0
 24 43  1  0
 25 44  1  0
M  END
>  <smiles>  (34) 
c1ccc(CN2Cc3ccccc3C2c2n[nH]c3ccccc23)cc1

>  <score_type>  (34) 
oracle

>  <origin>  (34) 
autodockgpu

>  <m_score__min__energy>  (34) 
-7.9100000000000001

>  <m_primary>  (34) 
energy

>  <meeko>  (34) 
{"free_energy": -7.82, "intermolecular_energy": -8.72, "internal_energy": -1.22, "cluster_size": 12, "cluster_id": 2, "rank_in_cluster": 3}

>  <energy>  (34) 
-7.8

>  <cluster_rmsd>  (34) 
0.06

>  <rmsd>  (34) 
271.11

>  <cluster>  (34) 
2

$$$$

     RDKit          3D

 44 48  0  0  1  0  0  0  0  0999 V2000
  137.0700   81.4810  224.9430 C   0  0  0  0  0  0  0  0  0  0  0  0
  138.0450   80.5130  224.9460 C   0  0  0  0  0  0  0  0  0  0  0  0
  138.4100   79.8470  223.7910 C   0  0  0  0  0  0  0  0  0  0  0  0
  137.8110   80.1270  222.5930 C   0  0  0  0  0  0  0  0  0  0  0  0
  138.1770   79.4450  221.3120 C   0  0  0  0  0  0  0  0  0  0  0  0
  139.4880   79.7280  220.8770 N   0  0  0  0  0  0  0  0  0  0  0  0
  139.9840   81.0580  221.0920 C   0  0  0  0  0  0  0  0  0  0  0  0
  141.0390   80.9300  222.1460 C   0  0  0  0  0  0  0  0  0  0  0  0
  141.6180   81.8780  222.9490 C   0  0  0  0  0  0  0  0  0  0  0  0
  142.5850   81.4790  223.8590 C   0  0  0  0  0  0  0  0  0  0  0  0
  142.9360   80.1400  223.9280 C   0  0  0  0  0  0  0  0  0  0  0  0
  142.3220   79.2080  223.0910 C   0  0  0  0  0  0  0  0  0  0  0  0
  141.3550   79.5900  222.1800 C   0  0  0  0  0  0  0  0  0  0  0  0
  140.5290   78.8420  221.1670 C   0  0  1  0  0  0  0  0  0  0  0  0
  140.2280   77.4840  221.6060 C   0  0  0  0  0  0  0  0  0  0  0  0
  139.2950   76.9750  222.4260 N   0  0  0  0  0  0  0  0  0  0  0  0
  139.4390   75.6670  222.5240 N   0  0  0  0  0  0  0  0  0  0  0  0
  140.4580   75.2650  221.7830 C   0  0  0  0  0  0  0  0  0  0  0  0
  141.0470   74.0300  221.5140 C   0  0  0  0  0  0  0  0  0  0  0  0
  142.1300   73.8950  220.6750 C   0  0  0  0  0  0  0  0  0  0  0  0
  142.6690   75.0300  220.0650 C   0  0  0  0  0  0  0  0  0  0  0  0
  142.0710   76.2370  220.3470 C   0  0  0  0  0  0  0  0  0  0  0  0
  140.9840   76.3760  221.1870 C   0  0  0  0  0  0  0  0  0  0  0  0
  136.8280   81.1050  222.5960 C   0  0  0  0  0  0  0  0  0  0  0  0
  136.4450   81.7830  223.7320 C   0  0  0  0  0  0  0  0  0  0  0  0
  136.7897   82.0036  225.8694 H   0  0  0  0  0  0  0  0  0  0  0  0
  138.5479   80.2616  225.8915 H   0  0  0  0  0  0  0  0  0  0  0  0
  139.1957   79.0785  223.8357 H   0  0  0  0  0  0  0  0  0  0  0  0
  138.0858   78.3585  221.4579 H   0  0  0  0  0  0  0  0  0  0  0  0
  137.4918   79.8219  220.5384 H   0  0  0  0  0  0  0  0  0  0  0  0
  140.4155   81.4613  220.1640 H   0  0  0  0  0  0  0  0  0  0  0  0
  139.1828   81.7458  221.4002 H   0  0  0  0  0  0  0  0  0  0  0  0
  141.3213   82.9345  222.8730 H   0  0  0  0  0  0  0  0  0  0  0  0
  143.0675   82.2159  224.5179 H   0  0  0  0  0  0  0  0  0  0  0  0
  143.7019   79.8108  224.6457 H   0  0  0  0  0  0  0  0  0  0  0  0
  142.6128   78.1492  223.1572 H   0  0  0  0  0  0  0  0  0  0  0  0
  141.0279   78.5947  220.2183 H   0  0  0  0  0  0  0  0  0  0  0  0
  138.8350   75.0200  223.1070 H   0  0  0  0  0  0  0  0  0  0  0  0
  140.6307   73.1300  221.9900 H   0  0  0  0  0  0  0  0  0  0  0  0
  142.5666   72.9030  220.4869 H   0  0  0  0  0  0  0  0  0  0  0  0
  143.5338   74.9621  219.3886 H   0  0  0  0  0  0  0  0  0  0  0  0
  142.4823   77.1423  219.8766 H   0  0  0  0  0  0  0  0  0  0  0  0
  136.3306   81.3509  221.6462 H   0  0  0  0  0  0  0  0  0  0  0  0
  135.6586   82.5507  223.6857 H   0  0  0  0  0  0  0  0  0  0  0  0
  1  2  2  0
  2  3  1  0
  3  4  2  0
  4  5  1  0
  5  6  1  0
  6  7  1  0
  7  8  1  0
  8  9  2  0
  9 10  1  0
 10 11  2  0
 11 12  1  0
 12 13  2  0
 13 14  1  0
 14 15  1  0
 15 16  2  0
 16 17  1  0
 17 18  1  0
 18 19  2  0
 19 20  1  0
 20 21  2  0
 21 22  1  0
 22 23  2  0
  4 24  1  0
 24 25  2  0
 25  1  1  0
 14  6  1  0
 23 15  1  0
 13  8  1  0
 23 18  1  0
  1 26  1  0
  2 27  1  0
  3 28  1  0
  5 29  1  0
  5 30  1  0
  7 31  1  0
  7 32  1  0
  9 33  1  0
 10 34  1  0
 11 35  1  0
 12 36  1  0
 14 37  1  6
 17 38  1  0
 19 39  1  0
 20 40  1  0
 21 41  1  0
 22 42  1  0
 24 43  1  0
 25 44  1  0
M  END
>  <smiles>  (35) 
c1ccc(CN2Cc3ccccc3C2c2n[nH]c3ccccc23)cc1

>  <score_type>  (35) 
oracle

>  <origin>  (35) 
autodockgpu

>  <m_score__min__energy>  (35) 
-7.9100000000000001

>  <m_primary>  (35) 
energy

>  <meeko>  (35) 
{"free_energy": -7.03, "intermolecular_energy": -7.92, "internal_energy": -1.65, "cluster_size": 4, "cluster_id": 3, "rank_in_cluster": 3}

>  <energy>  (35) 
-7.8

>  <cluster_rmsd>  (35) 
0.06

>  <rmsd>  (35) 
271.11

>  <cluster>  (35) 
2

$$$$

     RDKit          3D

 44 48  0  0  1  0  0  0  0  0999 V2000
  140.4550   69.4360  228.1760 C   0  0  0  0  0  0  0  0  0  0  0  0
  140.6710   68.7490  227.0050 C   0  0  0  0  0  0  0  0  0  0  0  0
  140.7480   69.3980  225.7860 C   0  0  0  0  0  0  0  0  0  0  0  0
  140.6130   70.7570  225.6980 C   0  0  0  0  0  0  0  0  0  0  0  0
  140.7010   71.5100  224.4080 C   0  0  0  0  0  0  0  0  0  0  0  0
  139.8050   71.0460  223.4230 N   0  0  0  0  0  0  0  0  0  0  0  0
  138.5460   70.5210  223.8680 C   0  0  0  0  0  0  0  0  0  0  0  0
  137.5170   71.5170  223.4340 C   0  0  0  0  0  0  0  0  0  0  0  0
  136.2190   71.6950  223.8400 C   0  0  0  0  0  0  0  0  0  0  0  0
  135.4760   72.7150  223.2660 C   0  0  0  0  0  0  0  0  0  0  0  0
  136.0640   73.5180  222.3020 C   0  0  0  0  0  0  0  0  0  0  0  0
  137.3860   73.3010  221.9170 C   0  0  0  0  0  0  0  0  0  0  0  0
  138.1410   72.2900  222.4810 C   0  0  0  0  0  0  0  0  0  0  0  0
  139.5570   71.8160  222.2840 C   0  0  1  0  0  0  0  0  0  0  0  0
  140.4540   72.9130  221.9360 C   0  0  0  0  0  0  0  0  0  0  0  0
  140.3750   74.2430  222.0990 N   0  0  0  0  0  0  0  0  0  0  0  0
  141.4460   74.8280  221.5980 N   0  0  0  0  0  0  0  0  0  0  0  0
  142.2640   73.9200  221.0910 C   0  0  0  0  0  0  0  0  0  0  0  0
  143.5050   73.9650  220.4560 C   0  0  0  0  0  0  0  0  0  0  0  0
  144.1530   72.8310  220.0200 C   0  0  0  0  0  0  0  0  0  0  0  0
  143.5560   71.5840  220.2150 C   0  0  0  0  0  0  0  0  0  0  0  0
  142.3320   71.5660  220.8430 C   0  0  0  0  0  0  0  0  0  0  0  0
  141.6800   72.7000  221.2820 C   0  0  0  0  0  0  0  0  0  0  0  0
  140.3960   71.4440  226.8830 C   0  0  0  0  0  0  0  0  0  0  0  0
  140.3140   70.8230  228.1100 C   0  0  0  0  0  0  0  0  0  0  0  0
  140.3949   68.9071  229.1386 H   0  0  0  0  0  0  0  0  0  0  0  0
  140.7855   67.6555  227.0383 H   0  0  0  0  0  0  0  0  0  0  0  0
  140.9207   68.8117  224.8715 H   0  0  0  0  0  0  0  0  0  0  0  0
  140.4810   72.5691  224.6075 H   0  0  0  0  0  0  0  0  0  0  0  0
  141.7179   71.3616  224.0157 H   0  0  0  0  0  0  0  0  0  0  0  0
  138.3527   69.5426  223.4040 H   0  0  0  0  0  0  0  0  0  0  0  0
  138.5310   70.3696  224.9574 H   0  0  0  0  0  0  0  0  0  0  0  0
  135.7763   71.0413  224.6059 H   0  0  0  0  0  0  0  0  0  0  0  0
  134.4331   72.8846  223.5719 H   0  0  0  0  0  0  0  0  0  0  0  0
  135.4850   74.3303  221.8385 H   0  0  0  0  0  0  0  0  0  0  0  0
  137.8371   73.9470  221.1494 H   0  0  0  0  0  0  0  0  0  0  0  0
  139.7402   71.1775  221.4072 H   0  0  0  0  0  0  0  0  0  0  0  0
  141.6380   75.8700  221.5930 H   0  0  0  0  0  0  0  0  0  0  0  0
  143.9838   74.9426  220.2976 H   0  0  0  0  0  0  0  0  0  0  0  0
  145.1314   72.9068  219.5230 H   0  0  0  0  0  0  0  0  0  0  0  0
  144.0432   70.6561  219.8810 H   0  0  0  0  0  0  0  0  0  0  0  0
  141.8457   70.5926  221.0042 H   0  0  0  0  0  0  0  0  0  0  0  0
  140.2839   72.5375  226.8412 H   0  0  0  0  0  0  0  0  0  0  0  0
  140.1401   71.4110  229.0233 H   0  0  0  0  0  0  0  0  0  0  0  0
  1  2  2  0
  2  3  1  0
  3  4  2  0
  4  5  1  0
  5  6  1  0
  6  7  1  0
  7  8  1  0
  8  9  2  0
  9 10  1  0
 10 11  2  0
 11 12  1  0
 12 13  2  0
 13 14  1  0
 14 15  1  0
 15 16  2  0
 16 17  1  0
 17 18  1  0
 18 19  2  0
 19 20  1  0
 20 21  2  0
 21 22  1  0
 22 23  2  0
  4 24  1  0
 24 25  2  0
 25  1  1  0
 14  6  1  0
 23 15  1  0
 13  8  1  0
 23 18  1  0
  1 26  1  0
  2 27  1  0
  3 28  1  0
  5 29  1  0
  5 30  1  0
  7 31  1  0
  7 32  1  0
  9 33  1  0
 10 34  1  0
 11 35  1  0
 12 36  1  0
 14 37  1  6
 17 38  1  0
 19 39  1  0
 20 40  1  0
 21 41  1  0
 22 42  1  0
 24 43  1  0
 25 44  1  0
M  END
>  <smiles>  (36) 
c1ccc(CN2Cc3ccccc3C2c2n[nH]c3ccccc23)cc1

>  <score_type>  (36) 
oracle

>  <origin>  (36) 
autodockgpu

>  <m_score__min__energy>  (36) 
-7.9100000000000001

>  <m_primary>  (36) 
energy

>  <meeko>  (36) 
{"free_energy": -7.82, "intermolecular_energy": -8.72, "internal_energy": -1.22, "cluster_size": 12, "cluster_id": 2, "rank_in_cluster": 1}

>  <energy>  (36) 
-7.52

>  <cluster_rmsd>  (36) 
0.73

>  <rmsd>  (36) 
271.17

>  <cluster>  (36) 
2

$$$$

     RDKit          3D

 44 48  0  0  1  0  0  0  0  0999 V2000
  140.4660   69.4370  228.1830 C   0  0  0  0  0  0  0  0  0  0  0  0
  140.6850   68.7500  227.0130 C   0  0  0  0  0  0  0  0  0  0  0  0
  140.7610   69.3970  225.7940 C   0  0  0  0  0  0  0  0  0  0  0  0
  140.6210   70.7550  225.7030 C   0  0  0  0  0  0  0  0  0  0  0  0
  140.7080   71.5060  224.4120 C   0  0  0  0  0  0  0  0  0  0  0  0
  139.8070   71.0440  223.4300 N   0  0  0  0  0  0  0  0  0  0  0  0
  138.5480   70.5200  223.8790 C   0  0  0  0  0  0  0  0  0  0  0  0
  137.5190   71.5180  223.4500 C   0  0  0  0  0  0  0  0  0  0  0  0
  136.2230   71.6980  223.8620 C   0  0  0  0  0  0  0  0  0  0  0  0
  135.4790   72.7190  223.2900 C   0  0  0  0  0  0  0  0  0  0  0  0
  136.0650   73.5220  222.3240 C   0  0  0  0  0  0  0  0  0  0  0  0
  137.3850   73.3030  221.9340 C   0  0  0  0  0  0  0  0  0  0  0  0
  138.1410   72.2910  222.4950 C   0  0  0  0  0  0  0  0  0  0  0  0
  139.5550   71.8150  222.2920 C   0  0  1  0  0  0  0  0  0  0  0  0
  140.4520   72.9100  221.9410 C   0  0  0  0  0  0  0  0  0  0  0  0
  140.3780   74.2400  222.1090 N   0  0  0  0  0  0  0  0  0  0  0  0
  141.4470   74.8240  221.6020 N   0  0  0  0  0  0  0  0  0  0  0  0
  142.2590   73.9160  221.0850 C   0  0  0  0  0  0  0  0  0  0  0  0
  143.4950   73.9590  220.4410 C   0  0  0  0  0  0  0  0  0  0  0  0
  144.1370   72.8250  219.9960 C   0  0  0  0  0  0  0  0  0  0  0  0
  143.5370   71.5800  220.1910 C   0  0  0  0  0  0  0  0  0  0  0  0
  142.3180   71.5620  220.8290 C   0  0  0  0  0  0  0  0  0  0  0  0
  141.6730   72.6970  221.2770 C   0  0  0  0  0  0  0  0  0  0  0  0
  140.4000   71.4440  226.8870 C   0  0  0  0  0  0  0  0  0  0  0  0
  140.3190   70.8240  228.1140 C   0  0  0  0  0  0  0  0  0  0  0  0
  140.4082   68.9093  229.1464 H   0  0  0  0  0  0  0  0  0  0  0  0
  140.8028   67.6569  227.0476 H   0  0  0  0  0  0  0  0  0  0  0  0
  140.9372   68.8097  224.8808 H   0  0  0  0  0  0  0  0  0  0  0  0
  140.4925   72.5662  224.6109 H   0  0  0  0  0  0  0  0  0  0  0  0
  141.7232   71.3533  224.0169 H   0  0  0  0  0  0  0  0  0  0  0  0
  138.3516   69.5425  223.4144 H   0  0  0  0  0  0  0  0  0  0  0  0
  138.5366   70.3672  224.9683 H   0  0  0  0  0  0  0  0  0  0  0  0
  135.7828   71.0457  224.6306 H   0  0  0  0  0  0  0  0  0  0  0  0
  134.4371   72.8894  223.5989 H   0  0  0  0  0  0  0  0  0  0  0  0
  135.4857   74.3357  221.8632 H   0  0  0  0  0  0  0  0  0  0  0  0
  137.8340   73.9483  221.1646 H   0  0  0  0  0  0  0  0  0  0  0  0
  139.7330   71.1765  221.4141 H   0  0  0  0  0  0  0  0  0  0  0  0
  141.6420   75.8660  221.5990 H   0  0  0  0  0  0  0  0  0  0  0  0
  143.9754   74.9358  220.2824 H   0  0  0  0  0  0  0  0  0  0  0  0
  145.1121   72.8995  219.4923 H   0  0  0  0  0  0  0  0  0  0  0  0
  144.0185   70.6520  219.8490 H   0  0  0  0  0  0  0  0  0  0  0  0
  141.8306   70.5893  220.9909 H   0  0  0  0  0  0  0  0  0  0  0  0
  140.2840   72.5370  226.8435 H   0  0  0  0  0  0  0  0  0  0  0  0
  140.1412   71.4125  229.0261 H   0  0  0  0  0  0  0  0  0  0  0  0
  1  2  2  0
  2  3  1  0
  3  4  2  0
  4  5  1  0
  5  6  1  0
  6  7  1  0
  7  8  1  0
  8  9  2  0
  9 10  1  0
 10 11  2  0
 11 12  1  0
 12 13  2  0
 13 14  1  0
 14 15  1  0
 15 16  2  0
 16 17  1  0
 17 18  1  0
 18 19  2  0
 19 20  1  0
 20 21  2  0
 21 22  1  0
 22 23  2  0
  4 24  1  0
 24 25  2  0
 25  1  1  0
 14  6  1  0
 23 15  1  0
 13  8  1  0
 23 18  1  0
  1 26  1  0
  2 27  1  0
  3 28  1  0
  5 29  1  0
  5 30  1  0
  7 31  1  0
  7 32  1  0
  9 33  1  0
 10 34  1  0
 11 35  1  0
 12 36  1  0
 14 37  1  6
 17 38  1  0
 19 39  1  0
 20 40  1  0
 21 41  1  0
 22 42  1  0
 24 43  1  0
 25 44  1  0
M  END
>  <smiles>  (37) 
c1ccc(CN2Cc3ccccc3C2c2n[nH]c3ccccc23)cc1

>  <score_type>  (37) 
oracle

>  <origin>  (37) 
autodockgpu

>  <m_score__min__energy>  (37) 
-7.9100000000000001

>  <m_primary>  (37) 
energy

>  <meeko>  (37) 
{"free_energy": -7.82, "intermolecular_energy": -8.71, "internal_energy": -1.22, "cluster_size": 12, "cluster_id": 2, "rank_in_cluster": 7}

>  <energy>  (37) 
-7.03

>  <cluster_rmsd>  (37) 
0.0

>  <rmsd>  (37) 
272.12

>  <cluster>  (37) 
3

$$$$

     RDKit          3D

 44 48  0  0  1  0  0  0  0  0999 V2000
  140.4210   69.3360  228.1510 C   0  0  0  0  0  0  0  0  0  0  0  0
  140.2480   70.6990  228.1180 C   0  0  0  0  0  0  0  0  0  0  0  0
  140.3420   71.4140  226.9390 C   0  0  0  0  0  0  0  0  0  0  0  0
  140.6110   70.7910  225.7510 C   0  0  0  0  0  0  0  0  0  0  0  0
  140.7100   71.5150  224.4460 C   0  0  0  0  0  0  0  0  0  0  0  0
  139.8130   71.0400  223.4680 N   0  0  0  0  0  0  0  0  0  0  0  0
  138.5520   70.5230  223.9200 C   0  0  0  0  0  0  0  0  0  0  0  0
  137.5250   71.5150  223.4740 C   0  0  0  0  0  0  0  0  0  0  0  0
  136.2280   71.7020  223.8780 C   0  0  0  0  0  0  0  0  0  0  0  0
  135.4870   72.7150  223.2900 C   0  0  0  0  0  0  0  0  0  0  0  0
  136.0760   73.5040  222.3150 C   0  0  0  0  0  0  0  0  0  0  0  0
  137.3980   73.2790  221.9320 C   0  0  0  0  0  0  0  0  0  0  0  0
  138.1500   72.2740  222.5100 C   0  0  0  0  0  0  0  0  0  0  0  0
  139.5660   71.7950  222.3180 C   0  0  1  0  0  0  0  0  0  0  0  0
  140.4640   72.8850  221.9550 C   0  0  0  0  0  0  0  0  0  0  0  0
  140.3980   74.2160  222.1180 N   0  0  0  0  0  0  0  0  0  0  0  0
  141.4650   74.7930  221.5990 N   0  0  0  0  0  0  0  0  0  0  0  0
  142.2680   73.8780  221.0800 C   0  0  0  0  0  0  0  0  0  0  0  0
  143.4990   73.9140  220.4250 C   0  0  0  0  0  0  0  0  0  0  0  0
  144.1320   72.7750  219.9810 C   0  0  0  0  0  0  0  0  0  0  0  0
  143.5290   71.5330  220.1860 C   0  0  0  0  0  0  0  0  0  0  0  0
  142.3150   71.5230  220.8340 C   0  0  0  0  0  0  0  0  0  0  0  0
  141.6780   72.6630  221.2820 C   0  0  0  0  0  0  0  0  0  0  0  0
  140.7850   69.4150  225.7900 C   0  0  0  0  0  0  0  0  0  0  0  0
  140.6970   68.6780  226.9510 C   0  0  0  0  0  0  0  0  0  0  0  0
  140.3442   68.7791  229.0965 H   0  0  0  0  0  0  0  0  0  0  0  0
  140.0292   71.2344  229.0537 H   0  0  0  0  0  0  0  0  0  0  0  0
  140.1978   72.5044  226.9561 H   0  0  0  0  0  0  0  0  0  0  0  0
  140.5001   72.5803  224.6224 H   0  0  0  0  0  0  0  0  0  0  0  0
  141.7264   71.3474  224.0603 H   0  0  0  0  0  0  0  0  0  0  0  0
  138.3566   69.5392  223.4683 H   0  0  0  0  0  0  0  0  0  0  0  0
  138.5370   70.3856  225.0113 H   0  0  0  0  0  0  0  0  0  0  0  0
  135.7843   71.0605  224.6537 H   0  0  0  0  0  0  0  0  0  0  0  0
  134.4444   72.8904  223.5935 H   0  0  0  0  0  0  0  0  0  0  0  0
  135.4984   74.3113  221.8411 H   0  0  0  0  0  0  0  0  0  0  0  0
  137.8505   73.9133  221.1555 H   0  0  0  0  0  0  0  0  0  0  0  0
  139.7480   71.1447  221.4497 H   0  0  0  0  0  0  0  0  0  0  0  0
  141.6640   75.8340  221.5900 H   0  0  0  0  0  0  0  0  0  0  0  0
  143.9816   74.8881  220.2571 H   0  0  0  0  0  0  0  0  0  0  0  0
  145.1035   72.8430  219.4697 H   0  0  0  0  0  0  0  0  0  0  0  0
  144.0041   70.6016  219.8441 H   0  0  0  0  0  0  0  0  0  0  0  0
  141.8250   70.5530  221.0045 H   0  0  0  0  0  0  0  0  0  0  0  0
  141.0035   68.8876  224.8497 H   0  0  0  0  0  0  0  0  0  0  0  0
  140.8420   67.5878  226.9326 H   0  0  0  0  0  0  0  0  0  0  0  0
  1  2  2  0
  2  3  1  0
  3  4  2  0
  4  5  1  0
  5  6  1  0
  6  7  1  0
  7  8  1  0
  8  9  2  0
  9 10  1  0
 10 11  2  0
 11 12  1  0
 12 13  2  0
 13 14  1  0
 14 15  1  0
 15 16  2  0
 16 17  1  0
 17 18  1  0
 18 19  2  0
 19 20  1  0
 20 21  2  0
 21 22  1  0
 22 23  2  0
  4 24  1  0
 24 25  2  0
 25  1  1  0
 14  6  1  0
 23 15  1  0
 13  8  1  0
 23 18  1  0
  1 26  1  0
  2 27  1  0
  3 28  1  0
  5 29  1  0
  5 30  1  0
  7 31  1  0
  7 32  1  0
  9 33  1  0
 10 34  1  0
 11 35  1  0
 12 36  1  0
 14 37  1  6
 17 38  1  0
 19 39  1  0
 20 40  1  0
 21 41  1  0
 22 42  1  0
 24 43  1  0
 25 44  1  0
M  END
>  <smiles>  (38) 
c1ccc(CN2Cc3ccccc3C2c2n[nH]c3ccccc23)cc1

>  <score_type>  (38) 
oracle

>  <origin>  (38) 
autodockgpu

>  <m_score__min__energy>  (38) 
-7.9100000000000001

>  <m_primary>  (38) 
energy

>  <meeko>  (38) 
{"free_energy": -7.8, "intermolecular_energy": -8.7, "internal_energy": -1.22, "cluster_size": 12, "cluster_id": 2, "rank_in_cluster": 10}

>  <energy>  (38) 
-7.03

>  <cluster_rmsd>  (38) 
0.02

>  <rmsd>  (38) 
272.12

>  <cluster>  (38) 
3

$$$$

     RDKit          3D

 44 48  0  0  1  0  0  0  0  0999 V2000
  132.2530   69.5640  225.5110 C   0  0  0  0  0  0  0  0  0  0  0  0
  132.9480   70.6900  225.8810 C   0  0  0  0  0  0  0  0  0  0  0  0
  134.3300   70.7310  225.8540 C   0  0  0  0  0  0  0  0  0  0  0  0
  135.0640   69.6470  225.4540 C   0  0  0  0  0  0  0  0  0  0  0  0
  136.5590   69.6430  225.3940 C   0  0  0  0  0  0  0  0  0  0  0  0
  137.0700   69.4920  224.0880 N   0  0  0  0  0  0  0  0  0  0  0  0
  136.7650   70.5210  223.1350 C   0  0  0  0  0  0  0  0  0  0  0  0
  138.0560   71.2310  222.8790 C   0  0  0  0  0  0  0  0  0  0  0  0
  138.3060   72.4560  222.3150 C   0  0  0  0  0  0  0  0  0  0  0  0
  139.6210   72.8800  222.1990 C   0  0  0  0  0  0  0  0  0  0  0  0
  140.6380   72.0560  222.6540 C   0  0  0  0  0  0  0  0  0  0  0  0
  140.3410   70.8170  223.2200 C   0  0  0  0  0  0  0  0  0  0  0  0
  139.0350   70.3810  223.3440 C   0  0  0  0  0  0  0  0  0  0  0  0
  138.4050   69.1290  223.8970 C   0  0  1  0  0  0  0  0  0  0  0  0
  139.1770   68.5760  225.0050 C   0  0  0  0  0  0  0  0  0  0  0  0
  139.4980   67.3220  225.3560 N   0  0  0  0  0  0  0  0  0  0  0  0
  140.2110   67.3270  226.4660 N   0  0  0  0  0  0  0  0  0  0  0  0
  140.3870   68.5700  226.8870 C   0  0  0  0  0  0  0  0  0  0  0  0
  141.0420   69.1540  227.9700 C   0  0  0  0  0  0  0  0  0  0  0  0
  141.0700   70.5160  228.1690 C   0  0  0  0  0  0  0  0  0  0  0  0
  140.4220   71.3540  227.2600 C   0  0  0  0  0  0  0  0  0  0  0  0
  139.7820   70.7540  226.1990 C   0  0  0  0  0  0  0  0  0  0  0  0
  139.7530   69.3890  225.9960 C   0  0  0  0  0  0  0  0  0  0  0  0
  134.3560   68.5140  225.0810 C   0  0  0  0  0  0  0  0  0  0  0  0
  132.9800   68.4450  225.1000 C   0  0  0  0  0  0  0  0  0  0  0  0
  131.1535   69.5446  225.5378 H   0  0  0  0  0  0  0  0  0  0  0  0
  132.3913   71.5810  226.2068 H   0  0  0  0  0  0  0  0  0  0  0  0
  134.8490   71.6515  226.1596 H   0  0  0  0  0  0  0  0  0  0  0  0
  136.9263   70.5956  225.8034 H   0  0  0  0  0  0  0  0  0  0  0  0
  136.9036   68.7769  225.9780 H   0  0  0  0  0  0  0  0  0  0  0  0
  136.3789   70.0796  222.2043 H   0  0  0  0  0  0  0  0  0  0  0  0
  135.9921   71.2071  223.5117 H   0  0  0  0  0  0  0  0  0  0  0  0
  137.4793   73.0898  221.9616 H   0  0  0  0  0  0  0  0  0  0  0  0
  139.8539   73.8576  221.7517 H   0  0  0  0  0  0  0  0  0  0  0  0
  141.6853   72.3813  222.5681 H   0  0  0  0  0  0  0  0  0  0  0  0
  141.1607   70.1747  223.5743 H   0  0  0  0  0  0  0  0  0  0  0  0
  138.4158   68.2461  223.2409 H   0  0  0  0  0  0  0  0  0  0  0  0
  140.5940   66.4720  226.9620 H   0  0  0  0  0  0  0  0  0  0  0  0
  141.5555   68.5025  228.6924 H   0  0  0  0  0  0  0  0  0  0  0  0
  141.5980   70.9398  229.0360 H   0  0  0  0  0  0  0  0  0  0  0  0
  140.4227   72.4468  227.3860 H   0  0  0  0  0  0  0  0  0  0  0  0
  139.2650   71.3982  225.4726 H   0  0  0  0  0  0  0  0  0  0  0  0
  134.9202   67.6280  224.7543 H   0  0  0  0  0  0  0  0  0  0  0  0
  132.4625   67.5231  224.7963 H   0  0  0  0  0  0  0  0  0  0  0  0
  1  2  2  0
  2  3  1  0
  3  4  2  0
  4  5  1  0
  5  6  1  0
  6  7  1  0
  7  8  1  0
  8  9  2  0
  9 10  1  0
 10 11  2  0
 11 12  1  0
 12 13  2  0
 13 14  1  0
 14 15  1  0
 15 16  2  0
 16 17  1  0
 17 18  1  0
 18 19  2  0
 19 20  1  0
 20 21  2  0
 21 22  1  0
 22 23  2  0
  4 24  1  0
 24 25  2  0
 25  1  1  0
 14  6  1  0
 23 15  1  0
 13  8  1  0
 23 18  1  0
  1 26  1  0
  2 27  1  0
  3 28  1  0
  5 29  1  0
  5 30  1  0
  7 31  1  0
  7 32  1  0
  9 33  1  0
 10 34  1  0
 11 35  1  0
 12 36  1  0
 14 37  1  6
 17 38  1  0
 19 39  1  0
 20 40  1  0
 21 41  1  0
 22 42  1  0
 24 43  1  0
 25 44  1  0
M  END
>  <smiles>  (39) 
c1ccc(CN2Cc3ccccc3C2c2n[nH]c3ccccc23)cc1

>  <score_type>  (39) 
oracle

>  <origin>  (39) 
autodockgpu

>  <m_score__min__energy>  (39) 
-7.9100000000000001

>  <m_primary>  (39) 
energy

>  <meeko>  (39) 
{"free_energy": -7.83, "intermolecular_energy": -8.72, "internal_energy": -1.18, "cluster_size": 4, "cluster_id": 1, "rank_in_cluster": 4}

>  <energy>  (39) 
-7.03

>  <cluster_rmsd>  (39) 
0.03

>  <rmsd>  (39) 
272.13

>  <cluster>  (39) 
3

$$$$

     RDKit          3D

 44 48  0  0  1  0  0  0  0  0999 V2000
  137.0680   81.4910  224.8990 C   0  0  0  0  0  0  0  0  0  0  0  0
  138.0430   80.5220  224.9070 C   0  0  0  0  0  0  0  0  0  0  0  0
  138.4170   79.8600  223.7530 C   0  0  0  0  0  0  0  0  0  0  0  0
  137.8300   80.1450  222.5500 C   0  0  0  0  0  0  0  0  0  0  0  0
  138.2060   79.4680  221.2700 C   0  0  0  0  0  0  0  0  0  0  0  0
  139.5220   79.7510  220.8490 N   0  0  0  0  0  0  0  0  0  0  0  0
  140.0160   81.0810  221.0640 C   0  0  0  0  0  0  0  0  0  0  0  0
  141.0570   80.9590  222.1310 C   0  0  0  0  0  0  0  0  0  0  0  0
  141.6270   81.9110  222.9370 C   0  0  0  0  0  0  0  0  0  0  0  0
  142.5840   81.5160  223.8590 C   0  0  0  0  0  0  0  0  0  0  0  0
  142.9340   80.1780  223.9380 C   0  0  0  0  0  0  0  0  0  0  0  0
  142.3310   79.2420  223.0990 C   0  0  0  0  0  0  0  0  0  0  0  0
  141.3740   79.6190  222.1740 C   0  0  0  0  0  0  0  0  0  0  0  0
  140.5600   78.8660  221.1550 C   0  0  1  0  0  0  0  0  0  0  0  0
  140.2560   77.5100  221.5960 C   0  0  0  0  0  0  0  0  0  0  0  0
  139.3160   77.0050  222.4110 N   0  0  0  0  0  0  0  0  0  0  0  0
  139.4570   75.6970  222.5150 N   0  0  0  0  0  0  0  0  0  0  0  0
  140.4820   75.2920  221.7820 C   0  0  0  0  0  0  0  0  0  0  0  0
  141.0720   74.0550  221.5220 C   0  0  0  0  0  0  0  0  0  0  0  0
  142.1620   73.9170  220.6920 C   0  0  0  0  0  0  0  0  0  0  0  0
  142.7060   75.0490  220.0820 C   0  0  0  0  0  0  0  0  0  0  0  0
  142.1070   76.2580  220.3550 C   0  0  0  0  0  0  0  0  0  0  0  0
  141.0140   76.4000  221.1860 C   0  0  0  0  0  0  0  0  0  0  0  0
  136.8470   81.1240  222.5490 C   0  0  0  0  0  0  0  0  0  0  0  0
  136.4540   81.7980  223.6840 C   0  0  0  0  0  0  0  0  0  0  0  0
  136.7797   82.0102  225.8249 H   0  0  0  0  0  0  0  0  0  0  0  0
  138.5379   80.2671  225.8557 H   0  0  0  0  0  0  0  0  0  0  0  0
  139.2009   79.0899  223.8023 H   0  0  0  0  0  0  0  0  0  0  0  0
  138.1115   78.3811  221.4103 H   0  0  0  0  0  0  0  0  0  0  0  0
  137.5285   79.8488  220.4916 H   0  0  0  0  0  0  0  0  0  0  0  0
  140.4593   81.4795  220.1395 H   0  0  0  0  0  0  0  0  0  0  0  0
  139.2111   81.7701  221.3593 H   0  0  0  0  0  0  0  0  0  0  0  0
  141.3307   82.9671  222.8536 H   0  0  0  0  0  0  0  0  0  0  0  0
  143.0595   82.2559  224.5196 H   0  0  0  0  0  0  0  0  0  0  0  0
  143.6914   79.8525  224.6663 H   0  0  0  0  0  0  0  0  0  0  0  0
  142.6217   78.1838  223.1740 H   0  0  0  0  0  0  0  0  0  0  0  0
  141.0688   78.6144  220.2128 H   0  0  0  0  0  0  0  0  0  0  0  0
  138.8490   75.0520  223.0950 H   0  0  0  0  0  0  0  0  0  0  0  0
  140.6511   73.1568  221.9975 H   0  0  0  0  0  0  0  0  0  0  0  0
  142.6000   72.9243  220.5112 H   0  0  0  0  0  0  0  0  0  0  0  0
  143.5757   74.9778  219.4122 H   0  0  0  0  0  0  0  0  0  0  0  0
  142.5226   77.1614  219.8846 H   0  0  0  0  0  0  0  0  0  0  0  0
  136.3580   81.3739  221.5959 H   0  0  0  0  0  0  0  0  0  0  0  0
  135.6684   82.5663  223.6336 H   0  0  0  0  0  0  0  0  0  0  0  0
  1  2  2  0
  2  3  1  0
  3  4  2  0
  4  5  1  0
  5  6  1  0
  6  7  1  0
  7  8  1  0
  8  9  2  0
  9 10  1  0
 10 11  2  0
 11 12  1  0
 12 13  2  0
 13 14  1  0
 14 15  1  0
 15 16  2  0
 16 17  1  0
 17 18  1  0
 18 19  2  0
 19 20  1  0
 20 21  2  0
 21 22  1  0
 22 23  2  0
  4 24  1  0
 24 25  2  0
 25  1  1  0
 14  6  1  0
 23 15  1  0
 13  8  1  0
 23 18  1  0
  1 26  1  0
  2 27  1  0
  3 28  1  0
  5 29  1  0
  5 30  1  0
  7 31  1  0
  7 32  1  0
  9 33  1  0
 10 34  1  0
 11 35  1  0
 12 36  1  0
 14 37  1  6
 17 38  1  0
 19 39  1  0
 20 40  1  0
 21 41  1  0
 22 42  1  0
 24 43  1  0
 25 44  1  0
M  END
>  <smiles>  (40) 
c1ccc(CN2Cc3ccccc3C2c2n[nH]c3ccccc23)cc1

>  <score_type>  (40) 
oracle

>  <origin>  (40) 
autodockgpu

>  <m_score__min__energy>  (40) 
-7.9100000000000001

>  <m_primary>  (40) 
energy

>  <meeko>  (40) 
{"free_energy": -7.02, "intermolecular_energy": -7.91, "internal_energy": -1.65, "cluster_size": 4, "cluster_id": 3, "rank_in_cluster": 4}

>  <energy>  (40) 
-7.02

>  <cluster_rmsd>  (40) 
0.05

>  <rmsd>  (40) 
272.13

>  <cluster>  (40) 
3

$$$$
