BHXRCLCEYZJJKL-VOTSOKGWNA-N
     RDKit          3D

 43 46  0  0  0  0  0  0  0  0999 V2000
  140.5123   70.8470  220.7910 H   0  0  0  0  0  0  0  0  0  0  0  0
  140.0570   71.5930  221.4590 C   0  0  0  0  0  0  0  0  0  0  0  0
  139.0830   71.1930  222.2830 C   0  0  0  0  0  0  0  0  0  0  0  0
  138.0299   71.3590  222.0119 H   0  0  0  0  0  0  0  0  0  0  0  0
  139.4210   70.5300  223.5540 C   0  0  0  0  0  0  0  0  0  0  0  0
  139.9580   71.2940  224.5370 N   0  0  0  0  0  0  0  0  0  0  0  0
  140.2640   70.7840  225.7520 C   0  0  0  0  0  0  0  0  0  0  0  0
  140.8330   71.6110  226.7290 C   0  0  0  0  0  0  0  0  0  0  0  0
  141.0295   72.6702  226.5064 H   0  0  0  0  0  0  0  0  0  0  0  0
  141.1510   71.0910  227.9860 C   0  0  0  0  0  0  0  0  0  0  0  0
  141.7170   71.8880  228.9260 F   0  0  0  0  0  0  0  0  0  0  0  0
  140.8890   69.7500  228.2740 C   0  0  0  0  0  0  0  0  0  0  0  0
  141.1349   69.3461  229.2672 H   0  0  0  0  0  0  0  0  0  0  0  0
  140.3150   68.9160  227.3060 C   0  0  0  0  0  0  0  0  0  0  0  0
  140.0710   67.6200  227.6300 F   0  0  0  0  0  0  0  0  0  0  0  0
  140.0050   69.4270  226.0250 C   0  0  0  0  0  0  0  0  0  0  0  0
  139.4390   68.6410  224.9980 C   0  0  0  0  0  0  0  0  0  0  0  0
  139.1870   67.4230  225.2140 O   0  0  0  0  0  0  0  0  0  0  0  0
  139.1570   69.1970  223.7700 N   0  0  0  0  0  0  0  0  0  0  0  0
  138.5360   68.3810  222.7010 C   0  0  0  0  0  0  0  0  0  0  0  0
  138.7696   68.8330  221.7258 H   0  0  0  0  0  0  0  0  0  0  0  0
  138.9409   67.3605  222.7685 H   0  0  0  0  0  0  0  0  0  0  0  0
  137.0360   68.3050  222.8590 C   0  0  0  0  0  0  0  0  0  0  0  0
  136.2720   67.5330  221.9710 C   0  0  0  0  0  0  0  0  0  0  0  0
  136.7668   66.9912  221.1515 H   0  0  0  0  0  0  0  0  0  0  0  0
  134.8830   67.4490  222.1230 C   0  0  0  0  0  0  0  0  0  0  0  0
  134.2908   66.8351  221.4284 H   0  0  0  0  0  0  0  0  0  0  0  0
  134.2470   68.1440  223.1560 C   0  0  0  0  0  0  0  0  0  0  0  0
  133.1554   68.0772  223.2741 H   0  0  0  0  0  0  0  0  0  0  0  0
  135.0020   68.9260  224.0410 C   0  0  0  0  0  0  0  0  0  0  0  0
  134.2060   69.7680  225.3600 Cl  0  0  0  0  0  0  0  0  0  0  0  0
  136.3900   68.9990  223.9000 C   0  0  0  0  0  0  0  0  0  0  0  0
  136.9810   69.6015  224.6055 H   0  0  0  0  0  0  0  0  0  0  0  0
  140.5550   72.9830  221.3970 C   0  0  0  0  0  0  0  0  0  0  0  0
  139.7860   74.0100  221.9720 C   0  0  0  0  0  0  0  0  0  0  0  0
  138.8125   73.7749  222.4269 H   0  0  0  0  0  0  0  0  0  0  0  0
  140.2390   75.2930  221.9690 N   0  0  0  0  0  0  0  0  0  0  0  0
  141.4300   75.6250  221.4110 C   0  0  0  0  0  0  0  0  0  0  0  0
  141.7661   76.6724  221.4176 H   0  0  0  0  0  0  0  0  0  0  0  0
  142.2320   74.6380  220.8270 C   0  0  0  0  0  0  0  0  0  0  0  0
  143.1999   74.9049  220.3775 H   0  0  0  0  0  0  0  0  0  0  0  0
  141.7950   73.3130  220.8190 C   0  0  0  0  0  0  0  0  0  0  0  0
  142.4174   72.5292  220.3626 H   0  0  0  0  0  0  0  0  0  0  0  0
  1  2  1  0
  2  3  2  0
  3  4  1  0
  3  5  1  0
  5  6  2  0
  6  7  1  0
  7  8  2  0
  8  9  1  0
  8 10  1  0
 10 11  1  0
 10 12  2  0
 12 13  1  0
 12 14  1  0
 14 15  1  0
 14 16  2  0
 16 17  1  0
 17 18  2  0
 17 19  1  0
 19 20  1  0
 20 21  1  0
 20 22  1  0
 20 23  1  0
 23 24  2  0
 24 25  1  0
 24 26  1  0
 26 27  1  0
 26 28  2  0
 28 29  1  0
 28 30  1  0
 30 31  1  0
 30 32  2  0
 32 33  1  0
  2 34  1  0
 34 35  2  0
 35 36  1  0
 35 37  1  0
 37 38  2  0
 38 39  1  0
 38 40  1  0
 40 41  1  0
 40 42  2  0
 42 43  1  0
 19  5  1  0
 32 23  1  0
 42 34  1  0
 16  7  1  0
M  END
>  <UniqueID>  (1) 
410

>  <SMILES>  (1) 
O=c1c2c(F)cc(F)cc2nc(/C=C/c2cccnc2)n1Cc1cccc(Cl)c1

>  <Energy>  (1) 
64.98252318730125

>  <Genealogy>  (1) 
O=c1c2c(F)cc(F)cc2nc(/C=C/c2cccnc2)n1Cc1cccc(Cl)c1 (cis-trans isomerization)
O=c1c2c(F)cc(F)cc2nc(/C=C/c2cccnc2)n1Cc1cccc(Cl)c1 (3D coordinates assigned)
O=c1c2c(F)cc(F)cc2nc(/C=C/c2cccnc2)n1Cc1cccc(Cl)c1 (optimized conformer: 64.98252318730125 kcal/mol)

>  <smiles>  (1) 
O=c1c2c(F)cc(F)cc2nc(/C=C/c2cccnc2)n1Cc1cccc(Cl)c1

>  <score_type>  (1) 
oracle

>  <origin>  (1) 
autodockgpu

>  <m_score__min__energy>  (1) 
-7.5999999999999996

>  <m_primary>  (1) 
energy

>  <meeko>  (1) 
{"free_energy": -7.41, "intermolecular_energy": -8.91, "internal_energy": -1.18, "cluster_size": 2, "cluster_id": 2, "rank_in_cluster": 1}

>  <energy>  (1) 
-7.6

>  <cluster_rmsd>  (1) 
0.0

>  <rmsd>  (1) 
271.45

>  <cluster>  (1) 
1

$$$$
BHXRCLCEYZJJKL-VOTSOKGWNA-N
     RDKit          3D

 43 46  0  0  0  0  0  0  0  0999 V2000
  138.7475   73.5121  222.2122 H   0  0  0  0  0  0  0  0  0  0  0  0
  138.3550   72.4930  222.3440 C   0  0  0  0  0  0  0  0  0  0  0  0
  139.2260   71.4790  222.3780 C   0  0  0  0  0  0  0  0  0  0  0  0
  139.7397   71.1635  221.4579 H   0  0  0  0  0  0  0  0  0  0  0  0
  139.4970   70.7850  223.6480 C   0  0  0  0  0  0  0  0  0  0  0  0
  140.1250   71.4850  224.6250 N   0  0  0  0  0  0  0  0  0  0  0  0
  140.3810   70.9450  225.8390 C   0  0  0  0  0  0  0  0  0  0  0  0
  141.0480   71.7050  226.8100 C   0  0  0  0  0  0  0  0  0  0  0  0
  141.3612   72.7347  226.5828 H   0  0  0  0  0  0  0  0  0  0  0  0
  141.3150   71.1550  228.0660 C   0  0  0  0  0  0  0  0  0  0  0  0
  141.9750   71.8840  228.9990 F   0  0  0  0  0  0  0  0  0  0  0  0
  140.9060   69.8530  228.3590 C   0  0  0  0  0  0  0  0  0  0  0  0
  141.1134   69.4254  229.3510 H   0  0  0  0  0  0  0  0  0  0  0  0
  140.2330   69.0870  227.3980 C   0  0  0  0  0  0  0  0  0  0  0  0
  139.8470   67.8280  227.7270 F   0  0  0  0  0  0  0  0  0  0  0  0
  139.9720   69.6270  226.1180 C   0  0  0  0  0  0  0  0  0  0  0  0
  139.3130   68.9080  225.0970 C   0  0  0  0  0  0  0  0  0  0  0  0
  138.9270   67.7270  225.3190 O   0  0  0  0  0  0  0  0  0  0  0  0
  139.0860   69.4900  223.8700 N   0  0  0  0  0  0  0  0  0  0  0  0
  138.3680   68.7470  222.8080 C   0  0  0  0  0  0  0  0  0  0  0  0
  138.4943   69.2781  221.8530 H   0  0  0  0  0  0  0  0  0  0  0  0
  138.7900   67.7327  222.7522 H   0  0  0  0  0  0  0  0  0  0  0  0
  136.8930   68.6290  223.1120 C   0  0  0  0  0  0  0  0  0  0  0  0
  136.0540   67.9020  222.2540 C   0  0  0  0  0  0  0  0  0  0  0  0
  136.4703   67.4276  221.3531 H   0  0  0  0  0  0  0  0  0  0  0  0
  134.6890   67.7780  222.5400 C   0  0  0  0  0  0  0  0  0  0  0  0
  134.0374   67.1998  221.8683 H   0  0  0  0  0  0  0  0  0  0  0  0
  134.1530   68.3880  223.6780 C   0  0  0  0  0  0  0  0  0  0  0  0
  133.0804   68.2894  223.9014 H   0  0  0  0  0  0  0  0  0  0  0  0
  134.9820   69.1250  224.5340 C   0  0  0  0  0  0  0  0  0  0  0  0
  134.3130   69.8600  225.9810 Cl  0  0  0  0  0  0  0  0  0  0  0  0
  136.3470   69.2370  224.2580 C   0  0  0  0  0  0  0  0  0  0  0  0
  136.9984   69.8033  224.9399 H   0  0  0  0  0  0  0  0  0  0  0  0
  136.8930   72.3180  222.4740 C   0  0  0  0  0  0  0  0  0  0  0  0
  136.1880   71.6720  221.4420 C   0  0  0  0  0  0  0  0  0  0  0  0
  136.7224   71.3389  220.5401 H   0  0  0  0  0  0  0  0  0  0  0  0
  134.8500   71.4570  221.5530 N   0  0  0  0  0  0  0  0  0  0  0  0
  134.1530   71.8600  222.6450 C   0  0  0  0  0  0  0  0  0  0  0  0
  133.0694   71.6794  222.7020 H   0  0  0  0  0  0  0  0  0  0  0  0
  134.8100   72.5050  223.6990 C   0  0  0  0  0  0  0  0  0  0  0  0
  134.2479   72.8274  224.5879 H   0  0  0  0  0  0  0  0  0  0  0  0
  136.1830   72.7360  223.6140 C   0  0  0  0  0  0  0  0  0  0  0  0
  136.7089   73.2436  224.4361 H   0  0  0  0  0  0  0  0  0  0  0  0
  1  2  1  0
  2  3  2  0
  3  4  1  0
  3  5  1  0
  5  6  2  0
  6  7  1  0
  7  8  2  0
  8  9  1  0
  8 10  1  0
 10 11  1  0
 10 12  2  0
 12 13  1  0
 12 14  1  0
 14 15  1  0
 14 16  2  0
 16 17  1  0
 17 18  2  0
 17 19  1  0
 19 20  1  0
 20 21  1  0
 20 22  1  0
 20 23  1  0
 23 24  2  0
 24 25  1  0
 24 26  1  0
 26 27  1  0
 26 28  2  0
 28 29  1  0
 28 30  1  0
 30 31  1  0
 30 32  2  0
 32 33  1  0
  2 34  1  0
 34 35  2  0
 35 36  1  0
 35 37  1  0
 37 38  2  0
 38 39  1  0
 38 40  1  0
 40 41  1  0
 40 42  2  0
 42 43  1  0
 19  5  1  0
 32 23  1  0
 42 34  1  0
 16  7  1  0
M  END
>  <UniqueID>  (2) 
410

>  <SMILES>  (2) 
O=c1c2c(F)cc(F)cc2nc(/C=C/c2cccnc2)n1Cc1cccc(Cl)c1

>  <Energy>  (2) 
64.98252318730125

>  <Genealogy>  (2) 
O=c1c2c(F)cc(F)cc2nc(/C=C/c2cccnc2)n1Cc1cccc(Cl)c1 (cis-trans isomerization)
O=c1c2c(F)cc(F)cc2nc(/C=C/c2cccnc2)n1Cc1cccc(Cl)c1 (3D coordinates assigned)
O=c1c2c(F)cc(F)cc2nc(/C=C/c2cccnc2)n1Cc1cccc(Cl)c1 (optimized conformer: 64.98252318730125 kcal/mol)

>  <smiles>  (2) 
O=c1c2c(F)cc(F)cc2nc(/C=C/c2cccnc2)n1Cc1cccc(Cl)c1

>  <score_type>  (2) 
oracle

>  <origin>  (2) 
autodockgpu

>  <m_score__min__energy>  (2) 
-7.5999999999999996

>  <m_primary>  (2) 
energy

>  <meeko>  (2) 
{"free_energy": -6.14, "intermolecular_energy": -7.63, "internal_energy": -2.25, "cluster_size": 2, "cluster_id": 2, "rank_in_cluster": 2}

>  <energy>  (2) 
-7.57

>  <cluster_rmsd>  (2) 
0.34

>  <rmsd>  (2) 
271.55

>  <cluster>  (2) 
1

$$$$
BHXRCLCEYZJJKL-VOTSOKGWNA-N
     RDKit          3D

 43 46  0  0  0  0  0  0  0  0999 V2000
  141.6718   80.4653  219.0752 H   0  0  0  0  0  0  0  0  0  0  0  0
  141.2970   79.9250  219.9570 C   0  0  0  0  0  0  0  0  0  0  0  0
  140.4330   78.9220  219.7650 C   0  0  0  0  0  0  0  0  0  0  0  0
  139.4432   79.1243  219.3299 H   0  0  0  0  0  0  0  0  0  0  0  0
  140.8070   77.5480  220.1360 C   0  0  0  0  0  0  0  0  0  0  0  0
  142.0460   77.1180  219.7870 N   0  0  0  0  0  0  0  0  0  0  0  0
  142.4940   75.8860  220.1200 C   0  0  0  0  0  0  0  0  0  0  0  0
  143.7760   75.4830  219.7210 C   0  0  0  0  0  0  0  0  0  0  0  0
  144.4115   76.1675  219.1400 H   0  0  0  0  0  0  0  0  0  0  0  0
  144.2470   74.2120  220.0610 C   0  0  0  0  0  0  0  0  0  0  0  0
  145.4800   73.8170  219.6620 F   0  0  0  0  0  0  0  0  0  0  0  0
  143.4450   73.3480  220.8090 C   0  0  0  0  0  0  0  0  0  0  0  0
  143.8213   72.3505  221.0799 H   0  0  0  0  0  0  0  0  0  0  0  0
  142.1640   73.7430  221.2170 C   0  0  0  0  0  0  0  0  0  0  0  0
  141.4210   72.8740  221.9500 F   0  0  0  0  0  0  0  0  0  0  0  0
  141.6710   75.0200  220.8650 C   0  0  0  0  0  0  0  0  0  0  0  0
  140.3870   75.4780  221.2290 C   0  0  0  0  0  0  0  0  0  0  0  0
  139.6280   74.7290  221.9050 O   0  0  0  0  0  0  0  0  0  0  0  0
  139.9630   76.7350  220.8580 N   0  0  0  0  0  0  0  0  0  0  0  0
  138.6270   77.2270  221.2640 C   0  0  0  0  0  0  0  0  0  0  0  0
  138.1031   77.6115  220.3765 H   0  0  0  0  0  0  0  0  0  0  0  0
  138.0738   76.3896  221.7142 H   0  0  0  0  0  0  0  0  0  0  0  0
  138.7300   78.3320  222.2900 C   0  0  0  0  0  0  0  0  0  0  0  0
  139.8040   78.3560  223.1920 C   0  0  0  0  0  0  0  0  0  0  0  0
  140.5656   77.5630  223.1586 H   0  0  0  0  0  0  0  0  0  0  0  0
  139.9100   79.3860  224.1350 C   0  0  0  0  0  0  0  0  0  0  0  0
  140.7585   79.4042  224.8348 H   0  0  0  0  0  0  0  0  0  0  0  0
  138.9400   80.3910  224.1890 C   0  0  0  0  0  0  0  0  0  0  0  0
  139.0260   81.1999  224.9294 H   0  0  0  0  0  0  0  0  0  0  0  0
  137.8580   80.3670  223.2990 C   0  0  0  0  0  0  0  0  0  0  0  0
  136.6600   81.6500  223.3440 Cl  0  0  0  0  0  0  0  0  0  0  0  0
  137.7590   79.3480  222.3480 C   0  0  0  0  0  0  0  0  0  0  0  0
  136.9167   79.3403  221.6405 H   0  0  0  0  0  0  0  0  0  0  0  0
  141.7750   80.3460  221.2910 C   0  0  0  0  0  0  0  0  0  0  0  0
  141.3770   81.5970  221.7950 C   0  0  0  0  0  0  0  0  0  0  0  0
  140.7484   82.2590  221.1814 H   0  0  0  0  0  0  0  0  0  0  0  0
  141.7650   81.9930  223.0370 N   0  0  0  0  0  0  0  0  0  0  0  0
  142.5470   81.2100  223.8210 C   0  0  0  0  0  0  0  0  0  0  0  0
  142.8512   81.5614  224.8180 H   0  0  0  0  0  0  0  0  0  0  0  0
  142.9680   79.9550  223.3640 C   0  0  0  0  0  0  0  0  0  0  0  0
  143.5981   79.3162  224.0003 H   0  0  0  0  0  0  0  0  0  0  0  0
  142.5820   79.5210  222.0950 C   0  0  0  0  0  0  0  0  0  0  0  0
  142.9076   78.5376  221.7250 H   0  0  0  0  0  0  0  0  0  0  0  0
  1  2  1  0
  2  3  2  0
  3  4  1  0
  3  5  1  0
  5  6  2  0
  6  7  1  0
  7  8  2  0
  8  9  1  0
  8 10  1  0
 10 11  1  0
 10 12  2  0
 12 13  1  0
 12 14  1  0
 14 15  1  0
 14 16  2  0
 16 17  1  0
 17 18  2  0
 17 19  1  0
 19 20  1  0
 20 21  1  0
 20 22  1  0
 20 23  1  0
 23 24  2  0
 24 25  1  0
 24 26  1  0
 26 27  1  0
 26 28  2  0
 28 29  1  0
 28 30  1  0
 30 31  1  0
 30 32  2  0
 32 33  1  0
  2 34  1  0
 34 35  2  0
 35 36  1  0
 35 37  1  0
 37 38  2  0
 38 39  1  0
 38 40  1  0
 40 41  1  0
 40 42  2  0
 42 43  1  0
 19  5  1  0
 32 23  1  0
 42 34  1  0
 16  7  1  0
M  END
>  <UniqueID>  (3) 
410

>  <SMILES>  (3) 
O=c1c2c(F)cc(F)cc2nc(/C=C/c2cccnc2)n1Cc1cccc(Cl)c1

>  <Energy>  (3) 
64.98252318730125

>  <Genealogy>  (3) 
O=c1c2c(F)cc(F)cc2nc(/C=C/c2cccnc2)n1Cc1cccc(Cl)c1 (cis-trans isomerization)
O=c1c2c(F)cc(F)cc2nc(/C=C/c2cccnc2)n1Cc1cccc(Cl)c1 (3D coordinates assigned)
O=c1c2c(F)cc(F)cc2nc(/C=C/c2cccnc2)n1Cc1cccc(Cl)c1 (optimized conformer: 64.98252318730125 kcal/mol)

>  <smiles>  (3) 
O=c1c2c(F)cc(F)cc2nc(/C=C/c2cccnc2)n1Cc1cccc(Cl)c1

>  <score_type>  (3) 
oracle

>  <origin>  (3) 
autodockgpu

>  <m_score__min__energy>  (3) 
-7.5999999999999996

>  <m_primary>  (3) 
energy

>  <meeko>  (3) 
{"free_energy": -6.5, "intermolecular_energy": -7.99, "internal_energy": -1.96, "cluster_size": 12, "cluster_id": 5, "rank_in_cluster": 11}

>  <energy>  (3) 
-7.41

>  <cluster_rmsd>  (3) 
0.0

>  <rmsd>  (3) 
271.37

>  <cluster>  (3) 
2

$$$$
BHXRCLCEYZJJKL-VOTSOKGWNA-N
     RDKit          3D

 43 46  0  0  0  0  0  0  0  0999 V2000
  141.9741   80.4981  218.9982 H   0  0  0  0  0  0  0  0  0  0  0  0
  141.5160   79.9490  219.8340 C   0  0  0  0  0  0  0  0  0  0  0  0
  140.6700   78.9540  219.5490 C   0  0  0  0  0  0  0  0  0  0  0  0
  139.7350   79.1644  219.0090 H   0  0  0  0  0  0  0  0  0  0  0  0
  140.9900   77.5770  219.9580 C   0  0  0  0  0  0  0  0  0  0  0  0
  142.2340   77.1120  219.6790 N   0  0  0  0  0  0  0  0  0  0  0  0
  142.6340   75.8750  220.0510 C   0  0  0  0  0  0  0  0  0  0  0  0
  143.9240   75.4350  219.7250 C   0  0  0  0  0  0  0  0  0  0  0  0
  144.6055   76.0952  219.1686 H   0  0  0  0  0  0  0  0  0  0  0  0
  144.3450   74.1590  220.1060 C   0  0  0  0  0  0  0  0  0  0  0  0
  145.5880   73.7280  219.7760 F   0  0  0  0  0  0  0  0  0  0  0  0
  143.4860   73.3250  220.8230 C   0  0  0  0  0  0  0  0  0  0  0  0
  143.8236   72.3230  221.1263 H   0  0  0  0  0  0  0  0  0  0  0  0
  142.1950   73.7570  221.1590 C   0  0  0  0  0  0  0  0  0  0  0  0
  141.3940   72.9170  221.8640 F   0  0  0  0  0  0  0  0  0  0  0  0
  141.7520   75.0400  220.7650 C   0  0  0  0  0  0  0  0  0  0  0  0
  140.4630   75.5340  221.0560 C   0  0  0  0  0  0  0  0  0  0  0  0
  139.6520   74.8130  221.7010 O   0  0  0  0  0  0  0  0  0  0  0  0
  140.0900   76.7950  220.6450 N   0  0  0  0  0  0  0  0  0  0  0  0
  138.7470   77.3250  220.9760 C   0  0  0  0  0  0  0  0  0  0  0  0
  138.2749   77.7008  220.0562 H   0  0  0  0  0  0  0  0  0  0  0  0
  138.1546   76.5097  221.4170 H   0  0  0  0  0  0  0  0  0  0  0  0
  138.8250   78.4500  221.9820 C   0  0  0  0  0  0  0  0  0  0  0  0
  139.6600   78.3340  223.1030 C   0  0  0  0  0  0  0  0  0  0  0  0
  140.2500   77.4179  223.2538 H   0  0  0  0  0  0  0  0  0  0  0  0
  139.7460   79.3790  224.0310 C   0  0  0  0  0  0  0  0  0  0  0  0
  140.4074   79.2848  224.9049 H   0  0  0  0  0  0  0  0  0  0  0  0
  138.9920   80.5420  223.8480 C   0  0  0  0  0  0  0  0  0  0  0  0
  139.0617   81.3633  224.5765 H   0  0  0  0  0  0  0  0  0  0  0  0
  138.1480   80.6610  222.7370 C   0  0  0  0  0  0  0  0  0  0  0  0
  137.2290   82.1370  222.4900 Cl  0  0  0  0  0  0  0  0  0  0  0  0
  138.0720   79.6240  221.8030 C   0  0  0  0  0  0  0  0  0  0  0  0
  137.4197   79.7268  220.9232 H   0  0  0  0  0  0  0  0  0  0  0  0
  141.8690   80.3510  221.2120 C   0  0  0  0  0  0  0  0  0  0  0  0
  141.4580   81.6120  221.6820 C   0  0  0  0  0  0  0  0  0  0  0  0
  140.9140   82.2948  221.0127 H   0  0  0  0  0  0  0  0  0  0  0  0
  141.7300   81.9910  222.9600 N   0  0  0  0  0  0  0  0  0  0  0  0
  142.4050   81.1830  223.8140 C   0  0  0  0  0  0  0  0  0  0  0  0
  142.6161   81.5214  224.8391 H   0  0  0  0  0  0  0  0  0  0  0  0
  142.8340   79.9180  223.3930 C   0  0  0  0  0  0  0  0  0  0  0  0
  143.3788   79.2589  224.0850 H   0  0  0  0  0  0  0  0  0  0  0  0
  142.5650   79.5000  222.0890 C   0  0  0  0  0  0  0  0  0  0  0  0
  142.8963   78.5080  221.7482 H   0  0  0  0  0  0  0  0  0  0  0  0
  1  2  1  0
  2  3  2  0
  3  4  1  0
  3  5  1  0
  5  6  2  0
  6  7  1  0
  7  8  2  0
  8  9  1  0
  8 10  1  0
 10 11  1  0
 10 12  2  0
 12 13  1  0
 12 14  1  0
 14 15  1  0
 14 16  2  0
 16 17  1  0
 17 18  2  0
 17 19  1  0
 19 20  1  0
 20 21  1  0
 20 22  1  0
 20 23  1  0
 23 24  2  0
 24 25  1  0
 24 26  1  0
 26 27  1  0
 26 28  2  0
 28 29  1  0
 28 30  1  0
 30 31  1  0
 30 32  2  0
 32 33  1  0
  2 34  1  0
 34 35  2  0
 35 36  1  0
 35 37  1  0
 37 38  2  0
 38 39  1  0
 38 40  1  0
 40 41  1  0
 40 42  2  0
 42 43  1  0
 19  5  1  0
 32 23  1  0
 42 34  1  0
 16  7  1  0
M  END
>  <UniqueID>  (4) 
410

>  <SMILES>  (4) 
O=c1c2c(F)cc(F)cc2nc(/C=C/c2cccnc2)n1Cc1cccc(Cl)c1

>  <Energy>  (4) 
64.98252318730125

>  <Genealogy>  (4) 
O=c1c2c(F)cc(F)cc2nc(/C=C/c2cccnc2)n1Cc1cccc(Cl)c1 (cis-trans isomerization)
O=c1c2c(F)cc(F)cc2nc(/C=C/c2cccnc2)n1Cc1cccc(Cl)c1 (3D coordinates assigned)
O=c1c2c(F)cc(F)cc2nc(/C=C/c2cccnc2)n1Cc1cccc(Cl)c1 (optimized conformer: 64.98252318730125 kcal/mol)

>  <smiles>  (4) 
O=c1c2c(F)cc(F)cc2nc(/C=C/c2cccnc2)n1Cc1cccc(Cl)c1

>  <score_type>  (4) 
oracle

>  <origin>  (4) 
autodockgpu

>  <m_score__min__energy>  (4) 
-7.5999999999999996

>  <m_primary>  (4) 
energy

>  <meeko>  (4) 
{"free_energy": -6.37, "intermolecular_energy": -7.86, "internal_energy": -2.09, "cluster_size": 12, "cluster_id": 5, "rank_in_cluster": 12}

>  <energy>  (4) 
-6.14

>  <cluster_rmsd>  (4) 
1.88

>  <rmsd>  (4) 
271.02

>  <cluster>  (4) 
2

$$$$
BHXRCLCEYZJJKL-VOTSOKGWNA-N
     RDKit          3D

 43 46  0  0  0  0  0  0  0  0999 V2000
  142.8493   79.0157  219.0880 H   0  0  0  0  0  0  0  0  0  0  0  0
  141.8250   79.0190  219.4890 C   0  0  0  0  0  0  0  0  0  0  0  0
  141.0270   77.9880  219.1940 C   0  0  0  0  0  0  0  0  0  0  0  0
  140.1178   78.1497  218.5964 H   0  0  0  0  0  0  0  0  0  0  0  0
  141.3650   76.6360  219.6690 C   0  0  0  0  0  0  0  0  0  0  0  0
  142.4800   76.0530  219.1620 N   0  0  0  0  0  0  0  0  0  0  0  0
  142.8940   74.8310  219.5680 C   0  0  0  0  0  0  0  0  0  0  0  0
  144.0430   74.2640  219.0010 C   0  0  0  0  0  0  0  0  0  0  0  0
  144.6031   74.8126  218.2294 H   0  0  0  0  0  0  0  0  0  0  0  0
  144.4780   73.0020  219.4150 C   0  0  0  0  0  0  0  0  0  0  0  0
  145.5800   72.4480  218.8550 F   0  0  0  0  0  0  0  0  0  0  0  0
  143.7740   72.3110  220.4020 C   0  0  0  0  0  0  0  0  0  0  0  0
  144.1223   71.3203  220.7293 H   0  0  0  0  0  0  0  0  0  0  0  0
  142.6260   72.8710  220.9790 C   0  0  0  0  0  0  0  0  0  0  0  0
  141.9760   72.1680  221.9420 F   0  0  0  0  0  0  0  0  0  0  0  0
  142.1680   74.1400  220.5570 C   0  0  0  0  0  0  0  0  0  0  0  0
  141.0130   74.7570  221.0830 C   0  0  0  0  0  0  0  0  0  0  0  0
  140.3460   74.1670  221.9770 O   0  0  0  0  0  0  0  0  0  0  0  0
  140.6180   75.9960  220.6320 N   0  0  0  0  0  0  0  0  0  0  0  0
  139.4230   76.6580  221.2050 C   0  0  0  0  0  0  0  0  0  0  0  0
  138.8776   77.1700  220.3986 H   0  0  0  0  0  0  0  0  0  0  0  0
  138.7956   75.8870  221.6761 H   0  0  0  0  0  0  0  0  0  0  0  0
  139.8000   77.6700  222.2610 C   0  0  0  0  0  0  0  0  0  0  0  0
  141.0820   77.6490  222.8300 C   0  0  0  0  0  0  0  0  0  0  0  0
  141.8092   76.8868  222.5135 H   0  0  0  0  0  0  0  0  0  0  0  0
  141.4400   78.5940  223.7990 C   0  0  0  0  0  0  0  0  0  0  0  0
  142.4493   78.5770  224.2360 H   0  0  0  0  0  0  0  0  0  0  0  0
  140.5170   79.5590  224.2120 C   0  0  0  0  0  0  0  0  0  0  0  0
  140.8003   80.3016  224.9725 H   0  0  0  0  0  0  0  0  0  0  0  0
  139.2310   79.5800  223.6570 C   0  0  0  0  0  0  0  0  0  0  0  0
  138.0850   80.8150  224.1510 Cl  0  0  0  0  0  0  0  0  0  0  0  0
  138.8770   78.6470  222.6790 C   0  0  0  0  0  0  0  0  0  0  0  0
  137.8717   78.6762  222.2334 H   0  0  0  0  0  0  0  0  0  0  0  0
  141.4050   80.1630  220.3250 C   0  0  0  0  0  0  0  0  0  0  0  0
  142.1980   80.5300  221.4280 C   0  0  0  0  0  0  0  0  0  0  0  0
  143.0951   79.9437  221.6761 H   0  0  0  0  0  0  0  0  0  0  0  0
  141.8610   81.6060  222.1890 N   0  0  0  0  0  0  0  0  0  0  0  0
  140.7580   82.3480  221.9230 C   0  0  0  0  0  0  0  0  0  0  0  0
  140.5069   83.2067  222.5630 H   0  0  0  0  0  0  0  0  0  0  0  0
  139.9380   82.0240  220.8360 C   0  0  0  0  0  0  0  0  0  0  0  0
  139.0455   82.6280  220.6153 H   0  0  0  0  0  0  0  0  0  0  0  0
  140.2620   80.9280  220.0340 C   0  0  0  0  0  0  0  0  0  0  0  0
  139.6249   80.6639  219.1771 H   0  0  0  0  0  0  0  0  0  0  0  0
  1  2  1  0
  2  3  2  0
  3  4  1  0
  3  5  1  0
  5  6  2  0
  6  7  1  0
  7  8  2  0
  8  9  1  0
  8 10  1  0
 10 11  1  0
 10 12  2  0
 12 13  1  0
 12 14  1  0
 14 15  1  0
 14 16  2  0
 16 17  1  0
 17 18  2  0
 17 19  1  0
 19 20  1  0
 20 21  1  0
 20 22  1  0
 20 23  1  0
 23 24  2  0
 24 25  1  0
 24 26  1  0
 26 27  1  0
 26 28  2  0
 28 29  1  0
 28 30  1  0
 30 31  1  0
 30 32  2  0
 32 33  1  0
  2 34  1  0
 34 35  2  0
 35 36  1  0
 35 37  1  0
 37 38  2  0
 38 39  1  0
 38 40  1  0
 40 41  1  0
 40 42  2  0
 42 43  1  0
 19  5  1  0
 32 23  1  0
 42 34  1  0
 16  7  1  0
M  END
>  <UniqueID>  (5) 
410

>  <SMILES>  (5) 
O=c1c2c(F)cc(F)cc2nc(/C=C/c2cccnc2)n1Cc1cccc(Cl)c1

>  <Energy>  (5) 
64.98252318730125

>  <Genealogy>  (5) 
O=c1c2c(F)cc(F)cc2nc(/C=C/c2cccnc2)n1Cc1cccc(Cl)c1 (cis-trans isomerization)
O=c1c2c(F)cc(F)cc2nc(/C=C/c2cccnc2)n1Cc1cccc(Cl)c1 (3D coordinates assigned)
O=c1c2c(F)cc(F)cc2nc(/C=C/c2cccnc2)n1Cc1cccc(Cl)c1 (optimized conformer: 64.98252318730125 kcal/mol)

>  <smiles>  (5) 
O=c1c2c(F)cc(F)cc2nc(/C=C/c2cccnc2)n1Cc1cccc(Cl)c1

>  <score_type>  (5) 
oracle

>  <origin>  (5) 
autodockgpu

>  <m_score__min__energy>  (5) 
-7.5999999999999996

>  <m_primary>  (5) 
energy

>  <meeko>  (5) 
{"free_energy": -6.52, "intermolecular_energy": -8.01, "internal_energy": -2.04, "cluster_size": 12, "cluster_id": 5, "rank_in_cluster": 10}

>  <energy>  (5) 
-7.14

>  <cluster_rmsd>  (5) 
0.0

>  <rmsd>  (5) 
271.28

>  <cluster>  (5) 
3

$$$$
BHXRCLCEYZJJKL-VOTSOKGWNA-N
     RDKit          3D

 43 46  0  0  0  0  0  0  0  0999 V2000
  136.9490   68.8006  221.2355 H   0  0  0  0  0  0  0  0  0  0  0  0
  137.1780   68.5550  222.2830 C   0  0  0  0  0  0  0  0  0  0  0  0
  138.4460   68.2760  222.6050 C   0  0  0  0  0  0  0  0  0  0  0  0
  139.0178   67.5489  222.0097 H   0  0  0  0  0  0  0  0  0  0  0  0
  139.0760   68.9430  223.7570 C   0  0  0  0  0  0  0  0  0  0  0  0
  139.1830   68.2360  224.9100 N   0  0  0  0  0  0  0  0  0  0  0  0
  139.7820   68.7490  226.0090 C   0  0  0  0  0  0  0  0  0  0  0  0
  139.8530   67.9860  227.1810 C   0  0  0  0  0  0  0  0  0  0  0  0
  139.4217   66.9744  227.2049 H   0  0  0  0  0  0  0  0  0  0  0  0
  140.4710   68.5080  228.3200 C   0  0  0  0  0  0  0  0  0  0  0  0
  140.5250   67.7750  229.4590 F   0  0  0  0  0  0  0  0  0  0  0  0
  141.0300   69.7870  228.2870 C   0  0  0  0  0  0  0  0  0  0  0  0
  141.5211   70.1925  229.1839 H   0  0  0  0  0  0  0  0  0  0  0  0
  140.9690   70.5570  227.1180 C   0  0  0  0  0  0  0  0  0  0  0  0
  141.5310   71.7930  227.1260 F   0  0  0  0  0  0  0  0  0  0  0  0
  140.3320   70.0450  225.9640 C   0  0  0  0  0  0  0  0  0  0  0  0
  140.2210   70.7700  224.7580 C   0  0  0  0  0  0  0  0  0  0  0  0
  140.7110   71.9310  224.6840 O   0  0  0  0  0  0  0  0  0  0  0  0
  139.5900   70.2160  223.6670 N   0  0  0  0  0  0  0  0  0  0  0  0
  139.4990   70.9650  222.3920 C   0  0  0  0  0  0  0  0  0  0  0  0
  140.4803   71.4088  222.1680 H   0  0  0  0  0  0  0  0  0  0  0  0
  139.1955   70.2627  221.6016 H   0  0  0  0  0  0  0  0  0  0  0  0
  138.4680   72.0670  222.4660 C   0  0  0  0  0  0  0  0  0  0  0  0
  138.7390   73.3230  221.9030 C   0  0  0  0  0  0  0  0  0  0  0  0
  139.7084   73.5078  221.4171 H   0  0  0  0  0  0  0  0  0  0  0  0
  137.7810   74.3420  221.9570 C   0  0  0  0  0  0  0  0  0  0  0  0
  137.9959   75.3222  221.5064 H   0  0  0  0  0  0  0  0  0  0  0  0
  136.5510   74.1160  222.5830 C   0  0  0  0  0  0  0  0  0  0  0  0
  135.7993   74.9180  222.6252 H   0  0  0  0  0  0  0  0  0  0  0  0
  136.2770   72.8680  223.1560 C   0  0  0  0  0  0  0  0  0  0  0  0
  134.7180   72.5740  223.9090 Cl  0  0  0  0  0  0  0  0  0  0  0  0
  137.2260   71.8450  223.0900 C   0  0  0  0  0  0  0  0  0  0  0  0
  137.0016   70.8612  223.5278 H   0  0  0  0  0  0  0  0  0  0  0  0
  136.0680   68.5510  223.2590 C   0  0  0  0  0  0  0  0  0  0  0  0
  134.9390   67.7520  223.0050 C   0  0  0  0  0  0  0  0  0  0  0  0
  134.8785   67.1714  222.0727 H   0  0  0  0  0  0  0  0  0  0  0  0
  133.9210   67.6930  223.9060 N   0  0  0  0  0  0  0  0  0  0  0  0
  133.9540   68.4010  225.0620 C   0  0  0  0  0  0  0  0  0  0  0  0
  133.1116   68.3401  225.7667 H   0  0  0  0  0  0  0  0  0  0  0  0
  135.0570   69.2090  225.3610 C   0  0  0  0  0  0  0  0  0  0  0  0
  135.0876   69.7796  226.3009 H   0  0  0  0  0  0  0  0  0  0  0  0
  136.1170   69.2850  224.4580 C   0  0  0  0  0  0  0  0  0  0  0  0
  136.9888   69.9170  224.6826 H   0  0  0  0  0  0  0  0  0  0  0  0
  1  2  1  0
  2  3  2  0
  3  4  1  0
  3  5  1  0
  5  6  2  0
  6  7  1  0
  7  8  2  0
  8  9  1  0
  8 10  1  0
 10 11  1  0
 10 12  2  0
 12 13  1  0
 12 14  1  0
 14 15  1  0
 14 16  2  0
 16 17  1  0
 17 18  2  0
 17 19  1  0
 19 20  1  0
 20 21  1  0
 20 22  1  0
 20 23  1  0
 23 24  2  0
 24 25  1  0
 24 26  1  0
 26 27  1  0
 26 28  2  0
 28 29  1  0
 28 30  1  0
 30 31  1  0
 30 32  2  0
 32 33  1  0
  2 34  1  0
 34 35  2  0
 35 36  1  0
 35 37  1  0
 37 38  2  0
 38 39  1  0
 38 40  1  0
 40 41  1  0
 40 42  2  0
 42 43  1  0
 19  5  1  0
 32 23  1  0
 42 34  1  0
 16  7  1  0
M  END
>  <UniqueID>  (6) 
410

>  <SMILES>  (6) 
O=c1c2c(F)cc(F)cc2nc(/C=C/c2cccnc2)n1Cc1cccc(Cl)c1

>  <Energy>  (6) 
64.98252318730125

>  <Genealogy>  (6) 
O=c1c2c(F)cc(F)cc2nc(/C=C/c2cccnc2)n1Cc1cccc(Cl)c1 (cis-trans isomerization)
O=c1c2c(F)cc(F)cc2nc(/C=C/c2cccnc2)n1Cc1cccc(Cl)c1 (3D coordinates assigned)
O=c1c2c(F)cc(F)cc2nc(/C=C/c2cccnc2)n1Cc1cccc(Cl)c1 (optimized conformer: 64.98252318730125 kcal/mol)

>  <smiles>  (6) 
O=c1c2c(F)cc(F)cc2nc(/C=C/c2cccnc2)n1Cc1cccc(Cl)c1

>  <score_type>  (6) 
oracle

>  <origin>  (6) 
autodockgpu

>  <m_score__min__energy>  (6) 
-7.5999999999999996

>  <m_primary>  (6) 
energy

>  <meeko>  (6) 
{"free_energy": -6.54, "intermolecular_energy": -8.03, "internal_energy": -1.77, "cluster_size": 1, "cluster_id": 6, "rank_in_cluster": 1}

>  <energy>  (6) 
-7.13

>  <cluster_rmsd>  (6) 
1.35

>  <rmsd>  (6) 
271.36

>  <cluster>  (6) 
3

$$$$
BHXRCLCEYZJJKL-VOTSOKGWNA-N
     RDKit          3D

 43 46  0  0  0  0  0  0  0  0999 V2000
  141.9591   71.3578  219.5116 H   0  0  0  0  0  0  0  0  0  0  0  0
  142.4290   71.8390  220.3820 C   0  0  0  0  0  0  0  0  0  0  0  0
  141.7440   71.8780  221.5300 C   0  0  0  0  0  0  0  0  0  0  0  0
  141.9478   71.1381  222.3181 H   0  0  0  0  0  0  0  0  0  0  0  0
  140.7170   72.9120  221.7380 C   0  0  0  0  0  0  0  0  0  0  0  0
  141.0970   74.2080  221.6140 N   0  0  0  0  0  0  0  0  0  0  0  0
  140.2170   75.2260  221.7480 C   0  0  0  0  0  0  0  0  0  0  0  0
  140.6620   76.5490  221.6260 C   0  0  0  0  0  0  0  0  0  0  0  0
  141.7231   76.7554  221.4222 H   0  0  0  0  0  0  0  0  0  0  0  0
  139.7590   77.6060  221.7630 C   0  0  0  0  0  0  0  0  0  0  0  0
  140.1930   78.8860  221.6610 F   0  0  0  0  0  0  0  0  0  0  0  0
  138.4090   77.3440  222.0070 C   0  0  0  0  0  0  0  0  0  0  0  0
  137.6999   78.1789  222.1072 H   0  0  0  0  0  0  0  0  0  0  0  0
  137.9520   76.0250  222.1250 C   0  0  0  0  0  0  0  0  0  0  0  0
  136.6310   75.8150  222.3550 F   0  0  0  0  0  0  0  0  0  0  0  0
  138.8600   74.9480  222.0050 C   0  0  0  0  0  0  0  0  0  0  0  0
  138.4730   73.5960  222.1260 C   0  0  0  0  0  0  0  0  0  0  0  0
  137.2640   73.3130  222.3490 O   0  0  0  0  0  0  0  0  0  0  0  0
  139.4050   72.5900  221.9980 N   0  0  0  0  0  0  0  0  0  0  0  0
  138.9940   71.1700  222.0960 C   0  0  0  0  0  0  0  0  0  0  0  0
  137.9131   71.0973  221.9050 H   0  0  0  0  0  0  0  0  0  0  0  0
  139.5642   70.5948  221.3517 H   0  0  0  0  0  0  0  0  0  0  0  0
  139.2900   70.5980  223.4630 C   0  0  0  0  0  0  0  0  0  0  0  0
  138.9020   69.2870  223.7760 C   0  0  0  0  0  0  0  0  0  0  0  0
  138.3718   68.6792  223.0281 H   0  0  0  0  0  0  0  0  0  0  0  0
  139.1870   68.7490  225.0370 C   0  0  0  0  0  0  0  0  0  0  0  0
  138.8874   67.7176  225.2745 H   0  0  0  0  0  0  0  0  0  0  0  0
  139.8520   69.5210  225.9950 C   0  0  0  0  0  0  0  0  0  0  0  0
  140.0756   69.0969  226.9850 H   0  0  0  0  0  0  0  0  0  0  0  0
  140.2330   70.8340  225.6930 C   0  0  0  0  0  0  0  0  0  0  0  0
  141.1010   71.7890  226.8840 Cl  0  0  0  0  0  0  0  0  0  0  0  0
  139.9630   71.3680  224.4300 C   0  0  0  0  0  0  0  0  0  0  0  0
  140.2778   72.3945  224.1907 H   0  0  0  0  0  0  0  0  0  0  0  0
  143.7840   72.4080  220.2200 C   0  0  0  0  0  0  0  0  0  0  0  0
  144.7230   71.7210  219.4300 C   0  0  0  0  0  0  0  0  0  0  0  0
  144.4532   70.7571  218.9738 H   0  0  0  0  0  0  0  0  0  0  0  0
  145.9630   72.2420  219.2270 N   0  0  0  0  0  0  0  0  0  0  0  0
  146.3380   73.4220  219.7790 C   0  0  0  0  0  0  0  0  0  0  0  0
  147.3511   73.8129  219.6036 H   0  0  0  0  0  0  0  0  0  0  0  0
  145.4380   74.1440  220.5720 C   0  0  0  0  0  0  0  0  0  0  0  0
  145.7380   75.1044  221.0165 H   0  0  0  0  0  0  0  0  0  0  0  0
  144.1580   73.6360  220.7940 C   0  0  0  0  0  0  0  0  0  0  0  0
  143.4432   74.1944  221.4163 H   0  0  0  0  0  0  0  0  0  0  0  0
  1  2  1  0
  2  3  2  0
  3  4  1  0
  3  5  1  0
  5  6  2  0
  6  7  1  0
  7  8  2  0
  8  9  1  0
  8 10  1  0
 10 11  1  0
 10 12  2  0
 12 13  1  0
 12 14  1  0
 14 15  1  0
 14 16  2  0
 16 17  1  0
 17 18  2  0
 17 19  1  0
 19 20  1  0
 20 21  1  0
 20 22  1  0
 20 23  1  0
 23 24  2  0
 24 25  1  0
 24 26  1  0
 26 27  1  0
 26 28  2  0
 28 29  1  0
 28 30  1  0
 30 31  1  0
 30 32  2  0
 32 33  1  0
  2 34  1  0
 34 35  2  0
 35 36  1  0
 35 37  1  0
 37 38  2  0
 38 39  1  0
 38 40  1  0
 40 41  1  0
 40 42  2  0
 42 43  1  0
 19  5  1  0
 32 23  1  0
 42 34  1  0
 16  7  1  0
M  END
>  <UniqueID>  (7) 
410

>  <SMILES>  (7) 
O=c1c2c(F)cc(F)cc2nc(/C=C/c2cccnc2)n1Cc1cccc(Cl)c1

>  <Energy>  (7) 
64.98252318730125

>  <Genealogy>  (7) 
O=c1c2c(F)cc(F)cc2nc(/C=C/c2cccnc2)n1Cc1cccc(Cl)c1 (cis-trans isomerization)
O=c1c2c(F)cc(F)cc2nc(/C=C/c2cccnc2)n1Cc1cccc(Cl)c1 (3D coordinates assigned)
O=c1c2c(F)cc(F)cc2nc(/C=C/c2cccnc2)n1Cc1cccc(Cl)c1 (optimized conformer: 64.98252318730125 kcal/mol)

>  <smiles>  (7) 
O=c1c2c(F)cc(F)cc2nc(/C=C/c2cccnc2)n1Cc1cccc(Cl)c1

>  <score_type>  (7) 
oracle

>  <origin>  (7) 
autodockgpu

>  <m_score__min__energy>  (7) 
-7.5999999999999996

>  <m_primary>  (7) 
energy

>  <meeko>  (7) 
{"free_energy": -7.6, "intermolecular_energy": -9.09, "internal_energy": -1.19, "cluster_size": 2, "cluster_id": 1, "rank_in_cluster": 1}

>  <energy>  (7) 
-6.91

>  <cluster_rmsd>  (7) 
0.0

>  <rmsd>  (7) 
271.4

>  <cluster>  (7) 
4

$$$$
BHXRCLCEYZJJKL-VOTSOKGWNA-N
     RDKit          3D

 43 46  0  0  0  0  0  0  0  0999 V2000
  138.8549   73.6880  222.3617 H   0  0  0  0  0  0  0  0  0  0  0  0
  139.4330   72.7790  222.1390 C   0  0  0  0  0  0  0  0  0  0  0  0
  138.8740   71.5930  222.4030 C   0  0  0  0  0  0  0  0  0  0  0  0
  138.1497   71.1569  221.6993 H   0  0  0  0  0  0  0  0  0  0  0  0
  139.2290   70.8720  223.6360 C   0  0  0  0  0  0  0  0  0  0  0  0
  139.8880   71.5620  224.5990 N   0  0  0  0  0  0  0  0  0  0  0  0
  140.2210   70.9960  225.7820 C   0  0  0  0  0  0  0  0  0  0  0  0
  140.9170   71.7460  226.7390 C   0  0  0  0  0  0  0  0  0  0  0  0
  141.1908   72.7898  226.5258 H   0  0  0  0  0  0  0  0  0  0  0  0
  141.2640   71.1700  227.9640 C   0  0  0  0  0  0  0  0  0  0  0  0
  141.9510   71.8910  228.8820 F   0  0  0  0  0  0  0  0  0  0  0  0
  140.9050   69.8500  228.2400 C   0  0  0  0  0  0  0  0  0  0  0  0
  141.1745   69.4013  229.2075 H   0  0  0  0  0  0  0  0  0  0  0  0
  140.2030   69.0920  227.2920 C   0  0  0  0  0  0  0  0  0  0  0  0
  139.8680   67.8140  227.6040 F   0  0  0  0  0  0  0  0  0  0  0  0
  139.8620   69.6600  226.0430 C   0  0  0  0  0  0  0  0  0  0  0  0
  139.1700   68.9510  225.0370 C   0  0  0  0  0  0  0  0  0  0  0  0
  138.8270   67.7550  225.2440 O   0  0  0  0  0  0  0  0  0  0  0  0
  138.8640   69.5600  223.8410 N   0  0  0  0  0  0  0  0  0  0  0  0
  138.1120   68.8280  222.7960 C   0  0  0  0  0  0  0  0  0  0  0  0
  137.4384   68.1060  223.2807 H   0  0  0  0  0  0  0  0  0  0  0  0
  137.5431   69.5607  222.2048 H   0  0  0  0  0  0  0  0  0  0  0  0
  139.0380   68.0840  221.8620 C   0  0  0  0  0  0  0  0  0  0  0  0
  139.0730   66.6820  221.8750 C   0  0  0  0  0  0  0  0  0  0  0  0
  138.4329   66.1249  222.5750 H   0  0  0  0  0  0  0  0  0  0  0  0
  139.9190   65.9880  221.0010 C   0  0  0  0  0  0  0  0  0  0  0  0
  139.9352   64.8881  221.0093 H   0  0  0  0  0  0  0  0  0  0  0  0
  140.7430   66.6920  220.1180 C   0  0  0  0  0  0  0  0  0  0  0  0
  141.4079   66.1461  219.4325 H   0  0  0  0  0  0  0  0  0  0  0  0
  140.7220   68.0930  220.1060 C   0  0  0  0  0  0  0  0  0  0  0  0
  141.7310   68.9740  218.9710 Cl  0  0  0  0  0  0  0  0  0  0  0  0
  139.8670   68.7860  220.9670 C   0  0  0  0  0  0  0  0  0  0  0  0
  139.8417   69.8855  220.9452 H   0  0  0  0  0  0  0  0  0  0  0  0
  140.7860   72.9340  221.5640 C   0  0  0  0  0  0  0  0  0  0  0  0
  141.2580   74.2250  221.2660 C   0  0  0  0  0  0  0  0  0  0  0  0
  140.6064   75.0962  221.4287 H   0  0  0  0  0  0  0  0  0  0  0  0
  142.5150   74.4030  220.7780 N   0  0  0  0  0  0  0  0  0  0  0  0
  143.3450   73.3540  220.5550 C   0  0  0  0  0  0  0  0  0  0  0  0
  144.3533   73.5284  220.1514 H   0  0  0  0  0  0  0  0  0  0  0  0
  142.9220   72.0500  220.8370 C   0  0  0  0  0  0  0  0  0  0  0  0
  143.5962   71.1987  220.6618 H   0  0  0  0  0  0  0  0  0  0  0  0
  141.6390   71.8380  221.3420 C   0  0  0  0  0  0  0  0  0  0  0  0
  141.2957   70.8172  221.5658 H   0  0  0  0  0  0  0  0  0  0  0  0
  1  2  1  0
  2  3  2  0
  3  4  1  0
  3  5  1  0
  5  6  2  0
  6  7  1  0
  7  8  2  0
  8  9  1  0
  8 10  1  0
 10 11  1  0
 10 12  2  0
 12 13  1  0
 12 14  1  0
 14 15  1  0
 14 16  2  0
 16 17  1  0
 17 18  2  0
 17 19  1  0
 19 20  1  0
 20 21  1  0
 20 22  1  0
 20 23  1  0
 23 24  2  0
 24 25  1  0
 24 26  1  0
 26 27  1  0
 26 28  2  0
 28 29  1  0
 28 30  1  0
 30 31  1  0
 30 32  2  0
 32 33  1  0
  2 34  1  0
 34 35  2  0
 35 36  1  0
 35 37  1  0
 37 38  2  0
 38 39  1  0
 38 40  1  0
 40 41  1  0
 40 42  2  0
 42 43  1  0
 19  5  1  0
 32 23  1  0
 42 34  1  0
 16  7  1  0
M  END
>  <UniqueID>  (8) 
410

>  <SMILES>  (8) 
O=c1c2c(F)cc(F)cc2nc(/C=C/c2cccnc2)n1Cc1cccc(Cl)c1

>  <Energy>  (8) 
64.98252318730125

>  <Genealogy>  (8) 
O=c1c2c(F)cc(F)cc2nc(/C=C/c2cccnc2)n1Cc1cccc(Cl)c1 (cis-trans isomerization)
O=c1c2c(F)cc(F)cc2nc(/C=C/c2cccnc2)n1Cc1cccc(Cl)c1 (3D coordinates assigned)
O=c1c2c(F)cc(F)cc2nc(/C=C/c2cccnc2)n1Cc1cccc(Cl)c1 (optimized conformer: 64.98252318730125 kcal/mol)

>  <smiles>  (8) 
O=c1c2c(F)cc(F)cc2nc(/C=C/c2cccnc2)n1Cc1cccc(Cl)c1

>  <score_type>  (8) 
oracle

>  <origin>  (8) 
autodockgpu

>  <m_score__min__energy>  (8) 
-7.5999999999999996

>  <m_primary>  (8) 
energy

>  <meeko>  (8) 
{"free_energy": -6.91, "intermolecular_energy": -8.4, "internal_energy": -1.58, "cluster_size": 1, "cluster_id": 4, "rank_in_cluster": 1}

>  <energy>  (8) 
-6.65

>  <cluster_rmsd>  (8) 
0.0

>  <rmsd>  (8) 
272.04

>  <cluster>  (8) 
5

$$$$
BHXRCLCEYZJJKL-VOTSOKGWNA-N
     RDKit          3D

 43 46  0  0  0  0  0  0  0  0999 V2000
  142.9542   78.8879  219.5187 H   0  0  0  0  0  0  0  0  0  0  0  0
  141.8870   78.9610  219.7750 C   0  0  0  0  0  0  0  0  0  0  0  0
  141.0810   77.9530  219.4240 C   0  0  0  0  0  0  0  0  0  0  0  0
  140.1805   78.1519  218.8244 H   0  0  0  0  0  0  0  0  0  0  0  0
  141.3990   76.5780  219.8400 C   0  0  0  0  0  0  0  0  0  0  0  0
  142.5160   76.0070  219.3240 N   0  0  0  0  0  0  0  0  0  0  0  0
  142.9120   74.7630  219.6770 C   0  0  0  0  0  0  0  0  0  0  0  0
  144.0650   74.2120  219.1020 C   0  0  0  0  0  0  0  0  0  0  0  0
  144.6428   74.7906  218.3662 H   0  0  0  0  0  0  0  0  0  0  0  0
  144.4810   72.9280  219.4630 C   0  0  0  0  0  0  0  0  0  0  0  0
  145.5870   72.3890  218.8950 F   0  0  0  0  0  0  0  0  0  0  0  0
  143.7550   72.1980  220.4060 C   0  0  0  0  0  0  0  0  0  0  0  0
  144.0888   71.1895  220.6915 H   0  0  0  0  0  0  0  0  0  0  0  0
  142.6040   72.7420  220.9910 C   0  0  0  0  0  0  0  0  0  0  0  0
  141.9320   72.0010  221.9090 F   0  0  0  0  0  0  0  0  0  0  0  0
  142.1640   74.0340  220.6220 C   0  0  0  0  0  0  0  0  0  0  0  0
  141.0070   74.6380  221.1590 C   0  0  0  0  0  0  0  0  0  0  0  0
  140.3200   74.0130  222.0130 O   0  0  0  0  0  0  0  0  0  0  0  0
  140.6300   75.9010  220.7600 N   0  0  0  0  0  0  0  0  0  0  0  0
  139.4330   76.5470  221.3450 C   0  0  0  0  0  0  0  0  0  0  0  0
  138.8477   77.0115  220.5377 H   0  0  0  0  0  0  0  0  0  0  0  0
  138.8448   75.7754  221.8634 H   0  0  0  0  0  0  0  0  0  0  0  0
  139.8090   77.6090  222.3510 C   0  0  0  0  0  0  0  0  0  0  0  0
  141.1050   77.6430  222.8870 C   0  0  0  0  0  0  0  0  0  0  0  0
  141.8439   76.8876  222.5814 H   0  0  0  0  0  0  0  0  0  0  0  0
  141.4620   78.6340  223.8090 C   0  0  0  0  0  0  0  0  0  0  0  0
  142.4823   78.6604  224.2193 H   0  0  0  0  0  0  0  0  0  0  0  0
  140.5240   79.5900  224.2090 C   0  0  0  0  0  0  0  0  0  0  0  0
  140.8063   80.3681  224.9335 H   0  0  0  0  0  0  0  0  0  0  0  0
  139.2240   79.5570  223.6870 C   0  0  0  0  0  0  0  0  0  0  0  0
  138.0580   80.7800  224.1630 Cl  0  0  0  0  0  0  0  0  0  0  0  0
  138.8710   78.5770  222.7550 C   0  0  0  0  0  0  0  0  0  0  0  0
  137.8544   78.5624  222.3351 H   0  0  0  0  0  0  0  0  0  0  0  0
  141.4200   80.1680  220.4890 C   0  0  0  0  0  0  0  0  0  0  0  0
  140.1360   80.6720  220.2110 C   0  0  0  0  0  0  0  0  0  0  0  0
  139.5122   80.1876  219.4453 H   0  0  0  0  0  0  0  0  0  0  0  0
  139.6620   81.7550  220.8840 N   0  0  0  0  0  0  0  0  0  0  0  0
  140.4030   82.3860  221.8280 C   0  0  0  0  0  0  0  0  0  0  0  0
  139.9950   83.2646  222.3491 H   0  0  0  0  0  0  0  0  0  0  0  0
  141.6860   81.9220  222.1410 C   0  0  0  0  0  0  0  0  0  0  0  0
  142.2868   82.4298  222.9098 H   0  0  0  0  0  0  0  0  0  0  0  0
  142.1970   80.8100  221.4700 C   0  0  0  0  0  0  0  0  0  0  0  0
  143.2041   80.4369  221.7076 H   0  0  0  0  0  0  0  0  0  0  0  0
  1  2  1  0
  2  3  2  0
  3  4  1  0
  3  5  1  0
  5  6  2  0
  6  7  1  0
  7  8  2  0
  8  9  1  0
  8 10  1  0
 10 11  1  0
 10 12  2  0
 12 13  1  0
 12 14  1  0
 14 15  1  0
 14 16  2  0
 16 17  1  0
 17 18  2  0
 17 19  1  0
 19 20  1  0
 20 21  1  0
 20 22  1  0
 20 23  1  0
 23 24  2  0
 24 25  1  0
 24 26  1  0
 26 27  1  0
 26 28  2  0
 28 29  1  0
 28 30  1  0
 30 31  1  0
 30 32  2  0
 32 33  1  0
  2 34  1  0
 34 35  2  0
 35 36  1  0
 35 37  1  0
 37 38  2  0
 38 39  1  0
 38 40  1  0
 40 41  1  0
 40 42  2  0
 42 43  1  0
 19  5  1  0
 32 23  1  0
 42 34  1  0
 16  7  1  0
M  END
>  <UniqueID>  (9) 
410

>  <SMILES>  (9) 
O=c1c2c(F)cc(F)cc2nc(/C=C/c2cccnc2)n1Cc1cccc(Cl)c1

>  <Energy>  (9) 
64.98252318730125

>  <Genealogy>  (9) 
O=c1c2c(F)cc(F)cc2nc(/C=C/c2cccnc2)n1Cc1cccc(Cl)c1 (cis-trans isomerization)
O=c1c2c(F)cc(F)cc2nc(/C=C/c2cccnc2)n1Cc1cccc(Cl)c1 (3D coordinates assigned)
O=c1c2c(F)cc(F)cc2nc(/C=C/c2cccnc2)n1Cc1cccc(Cl)c1 (optimized conformer: 64.98252318730125 kcal/mol)

>  <smiles>  (9) 
O=c1c2c(F)cc(F)cc2nc(/C=C/c2cccnc2)n1Cc1cccc(Cl)c1

>  <score_type>  (9) 
oracle

>  <origin>  (9) 
autodockgpu

>  <m_score__min__energy>  (9) 
-7.5999999999999996

>  <m_primary>  (9) 
energy

>  <meeko>  (9) 
{"free_energy": -6.62, "intermolecular_energy": -8.11, "internal_energy": -2.03, "cluster_size": 12, "cluster_id": 5, "rank_in_cluster": 5}

>  <energy>  (9) 
-6.64

>  <cluster_rmsd>  (9) 
0.09

>  <rmsd>  (9) 
272.07

>  <cluster>  (9) 
5

$$$$
BHXRCLCEYZJJKL-VOTSOKGWNA-N
     RDKit          3D

 43 46  0  0  0  0  0  0  0  0999 V2000
  134.7939   72.0407  222.3656 H   0  0  0  0  0  0  0  0  0  0  0  0
  135.4940   72.2920  223.1760 C   0  0  0  0  0  0  0  0  0  0  0  0
  136.6540   71.6300  223.2370 C   0  0  0  0  0  0  0  0  0  0  0  0
  136.6917   70.6262  223.6853 H   0  0  0  0  0  0  0  0  0  0  0  0
  137.8810   72.2450  222.7040 C   0  0  0  0  0  0  0  0  0  0  0  0
  137.8240   73.5520  222.3470 N   0  0  0  0  0  0  0  0  0  0  0  0
  138.9090   74.2140  221.8840 C   0  0  0  0  0  0  0  0  0  0  0  0
  138.7950   75.5600  221.5120 C   0  0  0  0  0  0  0  0  0  0  0  0
  137.8255   76.0730  221.5957 H   0  0  0  0  0  0  0  0  0  0  0  0
  139.9110   76.2510  221.0350 C   0  0  0  0  0  0  0  0  0  0  0  0
  139.7960   77.5490  220.6600 F   0  0  0  0  0  0  0  0  0  0  0  0
  141.1440   75.6050  220.9400 C   0  0  0  0  0  0  0  0  0  0  0  0
  142.0219   76.1545  220.5693 H   0  0  0  0  0  0  0  0  0  0  0  0
  141.2710   74.2600  221.3140 C   0  0  0  0  0  0  0  0  0  0  0  0
  142.4900   73.6720  221.2130 F   0  0  0  0  0  0  0  0  0  0  0  0
  140.1450   73.5460  221.7840 C   0  0  0  0  0  0  0  0  0  0  0  0
  140.1960   72.1880  222.1640 C   0  0  0  0  0  0  0  0  0  0  0  0
  141.2900   71.5630  222.0930 O   0  0  0  0  0  0  0  0  0  0  0  0
  139.0640   71.5470  222.6150 N   0  0  0  0  0  0  0  0  0  0  0  0
  139.1230   70.1300  223.0420 C   0  0  0  0  0  0  0  0  0  0  0  0
  138.1390   69.6665  222.8780 H   0  0  0  0  0  0  0  0  0  0  0  0
  139.8993   69.6241  222.4492 H   0  0  0  0  0  0  0  0  0  0  0  0
  139.4870   70.0040  224.5030 C   0  0  0  0  0  0  0  0  0  0  0  0
  139.1970   68.8220  225.2010 C   0  0  0  0  0  0  0  0  0  0  0  0
  138.6934   67.9909  224.6855 H   0  0  0  0  0  0  0  0  0  0  0  0
  139.5460   68.6960  226.5510 C   0  0  0  0  0  0  0  0  0  0  0  0
  139.3247   67.7634  227.0906 H   0  0  0  0  0  0  0  0  0  0  0  0
  140.1750   69.7530  227.2140 C   0  0  0  0  0  0  0  0  0  0  0  0
  140.4486   69.6524  228.2747 H   0  0  0  0  0  0  0  0  0  0  0  0
  140.4570   70.9410  226.5270 C   0  0  0  0  0  0  0  0  0  0  0  0
  141.2800   72.2540  227.3530 Cl  0  0  0  0  0  0  0  0  0  0  0  0
  140.1240   71.0630  225.1760 C   0  0  0  0  0  0  0  0  0  0  0  0
  140.3608   71.9913  224.6355 H   0  0  0  0  0  0  0  0  0  0  0  0
  135.1010   73.3430  224.1380 C   0  0  0  0  0  0  0  0  0  0  0  0
  134.3600   72.9830  225.2780 C   0  0  0  0  0  0  0  0  0  0  0  0
  134.0521   71.9368  225.4219 H   0  0  0  0  0  0  0  0  0  0  0  0
  134.0220   73.9200  226.2030 N   0  0  0  0  0  0  0  0  0  0  0  0
  134.3760   75.2210  226.0590 C   0  0  0  0  0  0  0  0  0  0  0  0
  134.0810   75.9575  226.8209 H   0  0  0  0  0  0  0  0  0  0  0  0
  135.1160   75.6290  224.9430 C   0  0  0  0  0  0  0  0  0  0  0  0
  135.4083   76.6831  224.8268 H   0  0  0  0  0  0  0  0  0  0  0  0
  135.4800   74.6880  223.9790 C   0  0  0  0  0  0  0  0  0  0  0  0
  136.0613   74.9971  223.0978 H   0  0  0  0  0  0  0  0  0  0  0  0
  1  2  1  0
  2  3  2  0
  3  4  1  0
  3  5  1  0
  5  6  2  0
  6  7  1  0
  7  8  2  0
  8  9  1  0
  8 10  1  0
 10 11  1  0
 10 12  2  0
 12 13  1  0
 12 14  1  0
 14 15  1  0
 14 16  2  0
 16 17  1  0
 17 18  2  0
 17 19  1  0
 19 20  1  0
 20 21  1  0
 20 22  1  0
 20 23  1  0
 23 24  2  0
 24 25  1  0
 24 26  1  0
 26 27  1  0
 26 28  2  0
 28 29  1  0
 28 30  1  0
 30 31  1  0
 30 32  2  0
 32 33  1  0
  2 34  1  0
 34 35  2  0
 35 36  1  0
 35 37  1  0
 37 38  2  0
 38 39  1  0
 38 40  1  0
 40 41  1  0
 40 42  2  0
 42 43  1  0
 19  5  1  0
 32 23  1  0
 42 34  1  0
 16  7  1  0
M  END
>  <UniqueID>  (10) 
410

>  <SMILES>  (10) 
O=c1c2c(F)cc(F)cc2nc(/C=C/c2cccnc2)n1Cc1cccc(Cl)c1

>  <Energy>  (10) 
64.98252318730125

>  <Genealogy>  (10) 
O=c1c2c(F)cc(F)cc2nc(/C=C/c2cccnc2)n1Cc1cccc(Cl)c1 (cis-trans isomerization)
O=c1c2c(F)cc(F)cc2nc(/C=C/c2cccnc2)n1Cc1cccc(Cl)c1 (3D coordinates assigned)
O=c1c2c(F)cc(F)cc2nc(/C=C/c2cccnc2)n1Cc1cccc(Cl)c1 (optimized conformer: 64.98252318730125 kcal/mol)

>  <smiles>  (10) 
O=c1c2c(F)cc(F)cc2nc(/C=C/c2cccnc2)n1Cc1cccc(Cl)c1

>  <score_type>  (10) 
oracle

>  <origin>  (10) 
autodockgpu

>  <m_score__min__energy>  (10) 
-7.5999999999999996

>  <m_primary>  (10) 
energy

>  <meeko>  (10) 
{"free_energy": -7.13, "intermolecular_energy": -8.62, "internal_energy": -1.33, "cluster_size": 2, "cluster_id": 3, "rank_in_cluster": 2}

>  <energy>  (10) 
-6.63

>  <cluster_rmsd>  (10) 
0.13

>  <rmsd>  (10) 
272.08

>  <cluster>  (10) 
5

$$$$
BHXRCLCEYZJJKL-VOTSOKGWNA-N
     RDKit          3D

 43 46  0  0  0  0  0  0  0  0999 V2000
  142.0894   71.3884  219.4255 H   0  0  0  0  0  0  0  0  0  0  0  0
  142.5480   71.8490  220.3130 C   0  0  0  0  0  0  0  0  0  0  0  0
  141.8370   71.8860  221.4460 C   0  0  0  0  0  0  0  0  0  0  0  0
  141.9685   71.1000  222.2042 H   0  0  0  0  0  0  0  0  0  0  0  0
  140.8790   72.9790  221.6770 C   0  0  0  0  0  0  0  0  0  0  0  0
  141.3360   74.2510  221.5590 N   0  0  0  0  0  0  0  0  0  0  0  0
  140.5220   75.3200  221.7140 C   0  0  0  0  0  0  0  0  0  0  0  0
  141.0470   76.6140  221.5980 C   0  0  0  0  0  0  0  0  0  0  0  0
  142.1163   76.7564  221.3826 H   0  0  0  0  0  0  0  0  0  0  0  0
  140.2120   77.7240  221.7560 C   0  0  0  0  0  0  0  0  0  0  0  0
  140.7230   78.9750  221.6600 F   0  0  0  0  0  0  0  0  0  0  0  0
  138.8530   77.5430  222.0160 C   0  0  0  0  0  0  0  0  0  0  0  0
  138.1980   78.4188  222.1339 H   0  0  0  0  0  0  0  0  0  0  0  0
  138.3170   76.2530  222.1280 C   0  0  0  0  0  0  0  0  0  0  0  0
  136.9880   76.1230  222.3740 F   0  0  0  0  0  0  0  0  0  0  0  0
  139.1550   75.1230  221.9860 C   0  0  0  0  0  0  0  0  0  0  0  0
  138.6860   73.7970  222.1010 C   0  0  0  0  0  0  0  0  0  0  0  0
  137.4640   73.5870  222.3370 O   0  0  0  0  0  0  0  0  0  0  0  0
  139.5520   72.7360  221.9520 N   0  0  0  0  0  0  0  0  0  0  0  0
  139.0560   71.3440  222.0420 C   0  0  0  0  0  0  0  0  0  0  0  0
  137.9716   71.3387  221.8576 H   0  0  0  0  0  0  0  0  0  0  0  0
  139.5852   70.7407  221.2897 H   0  0  0  0  0  0  0  0  0  0  0  0
  139.3250   70.7450  223.4030 C   0  0  0  0  0  0  0  0  0  0  0  0
  138.9320   69.4280  223.6820 C   0  0  0  0  0  0  0  0  0  0  0  0
  138.4174   68.8352  222.9114 H   0  0  0  0  0  0  0  0  0  0  0  0
  139.1920   68.8640  224.9380 C   0  0  0  0  0  0  0  0  0  0  0  0
  138.8884   67.8279  225.1486 H   0  0  0  0  0  0  0  0  0  0  0  0
  139.8370   69.6170  225.9240 C   0  0  0  0  0  0  0  0  0  0  0  0
  140.0406   69.1734  226.9098 H   0  0  0  0  0  0  0  0  0  0  0  0
  140.2240   70.9370  225.6560 C   0  0  0  0  0  0  0  0  0  0  0  0
  141.0670   71.8670  226.8830 Cl  0  0  0  0  0  0  0  0  0  0  0  0
  139.9780   71.4950  224.3990 C   0  0  0  0  0  0  0  0  0  0  0  0
  140.2964   72.5262  224.1866 H   0  0  0  0  0  0  0  0  0  0  0  0
  143.9170   72.3940  220.1900 C   0  0  0  0  0  0  0  0  0  0  0  0
  144.6830   72.0660  219.0570 C   0  0  0  0  0  0  0  0  0  0  0  0
  144.2728   71.3836  218.2980 H   0  0  0  0  0  0  0  0  0  0  0  0
  145.9280   72.5880  218.8950 N   0  0  0  0  0  0  0  0  0  0  0  0
  146.4740   73.4240  219.8130 C   0  0  0  0  0  0  0  0  0  0  0  0
  147.4877   73.8222  219.6583 H   0  0  0  0  0  0  0  0  0  0  0  0
  145.7510   73.7810  220.9560 C   0  0  0  0  0  0  0  0  0  0  0  0
  146.1901   74.4632  221.6988 H   0  0  0  0  0  0  0  0  0  0  0  0
  144.4680   73.2650  221.1470 C   0  0  0  0  0  0  0  0  0  0  0  0
  143.8904   73.5385  222.0423 H   0  0  0  0  0  0  0  0  0  0  0  0
  1  2  1  0
  2  3  2  0
  3  4  1  0
  3  5  1  0
  5  6  2  0
  6  7  1  0
  7  8  2  0
  8  9  1  0
  8 10  1  0
 10 11  1  0
 10 12  2  0
 12 13  1  0
 12 14  1  0
 14 15  1  0
 14 16  2  0
 16 17  1  0
 17 18  2  0
 17 19  1  0
 19 20  1  0
 20 21  1  0
 20 22  1  0
 20 23  1  0
 23 24  2  0
 24 25  1  0
 24 26  1  0
 26 27  1  0
 26 28  2  0
 28 29  1  0
 28 30  1  0
 30 31  1  0
 30 32  2  0
 32 33  1  0
  2 34  1  0
 34 35  2  0
 35 36  1  0
 35 37  1  0
 37 38  2  0
 38 39  1  0
 38 40  1  0
 40 41  1  0
 40 42  2  0
 42 43  1  0
 19  5  1  0
 32 23  1  0
 42 34  1  0
 16  7  1  0
M  END
>  <UniqueID>  (11) 
410

>  <SMILES>  (11) 
O=c1c2c(F)cc(F)cc2nc(/C=C/c2cccnc2)n1Cc1cccc(Cl)c1

>  <Energy>  (11) 
64.98252318730125

>  <Genealogy>  (11) 
O=c1c2c(F)cc(F)cc2nc(/C=C/c2cccnc2)n1Cc1cccc(Cl)c1 (cis-trans isomerization)
O=c1c2c(F)cc(F)cc2nc(/C=C/c2cccnc2)n1Cc1cccc(Cl)c1 (3D coordinates assigned)
O=c1c2c(F)cc(F)cc2nc(/C=C/c2cccnc2)n1Cc1cccc(Cl)c1 (optimized conformer: 64.98252318730125 kcal/mol)

>  <smiles>  (11) 
O=c1c2c(F)cc(F)cc2nc(/C=C/c2cccnc2)n1Cc1cccc(Cl)c1

>  <score_type>  (11) 
oracle

>  <origin>  (11) 
autodockgpu

>  <m_score__min__energy>  (11) 
-7.5999999999999996

>  <m_primary>  (11) 
energy

>  <meeko>  (11) 
{"free_energy": -7.57, "intermolecular_energy": -9.06, "internal_energy": -1.22, "cluster_size": 2, "cluster_id": 1, "rank_in_cluster": 2}

>  <energy>  (11) 
-6.62

>  <cluster_rmsd>  (11) 
0.06

>  <rmsd>  (11) 
272.04

>  <cluster>  (11) 
5

$$$$
BHXRCLCEYZJJKL-VOTSOKGWNA-N
     RDKit          3D

 43 46  0  0  0  0  0  0  0  0999 V2000
  142.9353   78.8788  219.4010 H   0  0  0  0  0  0  0  0  0  0  0  0
  141.8820   78.9500  219.7100 C   0  0  0  0  0  0  0  0  0  0  0  0
  141.0620   77.9390  219.4010 C   0  0  0  0  0  0  0  0  0  0  0  0
  140.1443   78.1311  218.8257 H   0  0  0  0  0  0  0  0  0  0  0  0
  141.3880   76.5700  219.8310 C   0  0  0  0  0  0  0  0  0  0  0  0
  142.5050   75.9990  219.3160 N   0  0  0  0  0  0  0  0  0  0  0  0
  142.9080   74.7600  219.6810 C   0  0  0  0  0  0  0  0  0  0  0  0
  144.0620   74.2080  219.1080 C   0  0  0  0  0  0  0  0  0  0  0  0
  144.6348   74.7814  218.3643 H   0  0  0  0  0  0  0  0  0  0  0  0
  144.4850   72.9300  219.4810 C   0  0  0  0  0  0  0  0  0  0  0  0
  145.5910   72.3900  218.9140 F   0  0  0  0  0  0  0  0  0  0  0  0
  143.7660   72.2070  220.4340 C   0  0  0  0  0  0  0  0  0  0  0  0
  144.1055   71.2031  220.7288 H   0  0  0  0  0  0  0  0  0  0  0  0
  142.6140   72.7520  221.0180 C   0  0  0  0  0  0  0  0  0  0  0  0
  141.9490   72.0180  221.9460 F   0  0  0  0  0  0  0  0  0  0  0  0
  142.1670   74.0380  220.6370 C   0  0  0  0  0  0  0  0  0  0  0  0
  141.0090   74.6420  221.1710 C   0  0  0  0  0  0  0  0  0  0  0  0
  140.3280   74.0240  222.0350 O   0  0  0  0  0  0  0  0  0  0  0  0
  140.6260   75.9000  220.7600 N   0  0  0  0  0  0  0  0  0  0  0  0
  139.4280   76.5470  221.3430 C   0  0  0  0  0  0  0  0  0  0  0  0
  138.8467   77.0155  220.5352 H   0  0  0  0  0  0  0  0  0  0  0  0
  138.8361   75.7751  221.8567 H   0  0  0  0  0  0  0  0  0  0  0  0
  139.8030   77.6050  222.3540 C   0  0  0  0  0  0  0  0  0  0  0  0
  141.0970   77.6360  222.8930 C   0  0  0  0  0  0  0  0  0  0  0  0
  141.8358   76.8807  222.5870 H   0  0  0  0  0  0  0  0  0  0  0  0
  141.4530   78.6240  223.8190 C   0  0  0  0  0  0  0  0  0  0  0  0
  142.4725   78.6485  224.2314 H   0  0  0  0  0  0  0  0  0  0  0  0
  140.5150   79.5790  224.2200 C   0  0  0  0  0  0  0  0  0  0  0  0
  140.7961   80.3543  224.9480 H   0  0  0  0  0  0  0  0  0  0  0  0
  139.2170   79.5490  223.6950 C   0  0  0  0  0  0  0  0  0  0  0  0
  138.0510   80.7720  224.1720 Cl  0  0  0  0  0  0  0  0  0  0  0  0
  138.8650   78.5730  222.7590 C   0  0  0  0  0  0  0  0  0  0  0  0
  137.8495   78.5612  222.3365 H   0  0  0  0  0  0  0  0  0  0  0  0
  141.4490   80.1570  220.4440 C   0  0  0  0  0  0  0  0  0  0  0  0
  140.2160   80.7500  220.1160 C   0  0  0  0  0  0  0  0  0  0  0  0
  139.6092   80.3332  219.2987 H   0  0  0  0  0  0  0  0  0  0  0  0
  139.7700   81.8350  220.8030 N   0  0  0  0  0  0  0  0  0  0  0  0
  140.4920   82.3850  221.8100 C   0  0  0  0  0  0  0  0  0  0  0  0
  140.1083   83.2684  222.3415 H   0  0  0  0  0  0  0  0  0  0  0  0
  141.7250   81.8310  222.1750 C   0  0  0  0  0  0  0  0  0  0  0  0
  142.3101   82.2726  222.9952 H   0  0  0  0  0  0  0  0  0  0  0  0
  142.2060   80.7140  221.4900 C   0  0  0  0  0  0  0  0  0  0  0  0
  143.1738   80.2710  221.7674 H   0  0  0  0  0  0  0  0  0  0  0  0
  1  2  1  0
  2  3  2  0
  3  4  1  0
  3  5  1  0
  5  6  2  0
  6  7  1  0
  7  8  2  0
  8  9  1  0
  8 10  1  0
 10 11  1  0
 10 12  2  0
 12 13  1  0
 12 14  1  0
 14 15  1  0
 14 16  2  0
 16 17  1  0
 17 18  2  0
 17 19  1  0
 19 20  1  0
 20 21  1  0
 20 22  1  0
 20 23  1  0
 23 24  2  0
 24 25  1  0
 24 26  1  0
 26 27  1  0
 26 28  2  0
 28 29  1  0
 28 30  1  0
 30 31  1  0
 30 32  2  0
 32 33  1  0
  2 34  1  0
 34 35  2  0
 35 36  1  0
 35 37  1  0
 37 38  2  0
 38 39  1  0
 38 40  1  0
 40 41  1  0
 40 42  2  0
 42 43  1  0
 19  5  1  0
 32 23  1  0
 42 34  1  0
 16  7  1  0
M  END
>  <UniqueID>  (12) 
410

>  <SMILES>  (12) 
O=c1c2c(F)cc(F)cc2nc(/C=C/c2cccnc2)n1Cc1cccc(Cl)c1

>  <Energy>  (12) 
64.98252318730125

>  <Genealogy>  (12) 
O=c1c2c(F)cc(F)cc2nc(/C=C/c2cccnc2)n1Cc1cccc(Cl)c1 (cis-trans isomerization)
O=c1c2c(F)cc(F)cc2nc(/C=C/c2cccnc2)n1Cc1cccc(Cl)c1 (3D coordinates assigned)
O=c1c2c(F)cc(F)cc2nc(/C=C/c2cccnc2)n1Cc1cccc(Cl)c1 (optimized conformer: 64.98252318730125 kcal/mol)

>  <smiles>  (12) 
O=c1c2c(F)cc(F)cc2nc(/C=C/c2cccnc2)n1Cc1cccc(Cl)c1

>  <score_type>  (12) 
oracle

>  <origin>  (12) 
autodockgpu

>  <m_score__min__energy>  (12) 
-7.5999999999999996

>  <m_primary>  (12) 
energy

>  <meeko>  (12) 
{"free_energy": -6.63, "intermolecular_energy": -8.12, "internal_energy": -2.02, "cluster_size": 12, "cluster_id": 5, "rank_in_cluster": 3}

>  <energy>  (12) 
-6.62

>  <cluster_rmsd>  (12) 
0.13

>  <rmsd>  (12) 
272.08

>  <cluster>  (12) 
5

$$$$
BHXRCLCEYZJJKL-VOTSOKGWNA-N
     RDKit          3D

 43 46  0  0  0  0  0  0  0  0999 V2000
  142.8713   78.8661  219.3514 H   0  0  0  0  0  0  0  0  0  0  0  0
  141.8300   78.9300  219.7000 C   0  0  0  0  0  0  0  0  0  0  0  0
  141.0070   77.9130  219.4240 C   0  0  0  0  0  0  0  0  0  0  0  0
  140.0531   78.1012  218.9095 H   0  0  0  0  0  0  0  0  0  0  0  0
  141.3780   76.5410  219.8090 C   0  0  0  0  0  0  0  0  0  0  0  0
  142.4960   76.0130  219.2530 N   0  0  0  0  0  0  0  0  0  0  0  0
  142.9400   74.7770  219.5750 C   0  0  0  0  0  0  0  0  0  0  0  0
  144.0920   74.2700  218.9590 C   0  0  0  0  0  0  0  0  0  0  0  0
  144.6311   74.8771  218.2168 H   0  0  0  0  0  0  0  0  0  0  0  0
  144.5560   72.9940  219.2870 C   0  0  0  0  0  0  0  0  0  0  0  0
  145.6620   72.4970  218.6800 F   0  0  0  0  0  0  0  0  0  0  0  0
  143.8800   72.2280  220.2380 C   0  0  0  0  0  0  0  0  0  0  0  0
  144.2527   71.2263  220.4980 H   0  0  0  0  0  0  0  0  0  0  0  0
  142.7290   72.7270  220.8640 C   0  0  0  0  0  0  0  0  0  0  0  0
  142.1060   71.9520  221.7880 F   0  0  0  0  0  0  0  0  0  0  0  0
  142.2410   74.0110  220.5280 C   0  0  0  0  0  0  0  0  0  0  0  0
  141.0820   74.5700  221.1070 C   0  0  0  0  0  0  0  0  0  0  0  0
  140.4380   73.9120  221.9700 O   0  0  0  0  0  0  0  0  0  0  0  0
  140.6570   75.8270  220.7390 N   0  0  0  0  0  0  0  0  0  0  0  0
  139.4570   76.4280  221.3670 C   0  0  0  0  0  0  0  0  0  0  0  0
  138.8258   76.8689  220.5814 H   0  0  0  0  0  0  0  0  0  0  0  0
  138.9172   75.6354  221.9059 H   0  0  0  0  0  0  0  0  0  0  0  0
  139.8290   77.5050  222.3590 C   0  0  0  0  0  0  0  0  0  0  0  0
  141.1250   77.5530  222.8940 C   0  0  0  0  0  0  0  0  0  0  0  0
  141.8677   76.7974  222.5985 H   0  0  0  0  0  0  0  0  0  0  0  0
  141.4770   78.5580  223.8020 C   0  0  0  0  0  0  0  0  0  0  0  0
  142.4970   78.5943  224.2122 H   0  0  0  0  0  0  0  0  0  0  0  0
  140.5350   79.5160  224.1890 C   0  0  0  0  0  0  0  0  0  0  0  0
  140.8138   80.3056  224.9023 H   0  0  0  0  0  0  0  0  0  0  0  0
  139.2350   79.4690  223.6670 C   0  0  0  0  0  0  0  0  0  0  0  0
  138.0640   80.6940  224.1260 Cl  0  0  0  0  0  0  0  0  0  0  0  0
  138.8860   78.4750  222.7490 C   0  0  0  0  0  0  0  0  0  0  0  0
  137.8696   78.4503  222.3290 H   0  0  0  0  0  0  0  0  0  0  0  0
  141.4160   80.1350  220.4480 C   0  0  0  0  0  0  0  0  0  0  0  0
  140.1890   80.7460  220.1340 C   0  0  0  0  0  0  0  0  0  0  0  0
  139.5722   80.3448  219.3163 H   0  0  0  0  0  0  0  0  0  0  0  0
  139.7600   81.8300  220.8350 N   0  0  0  0  0  0  0  0  0  0  0  0
  140.4960   82.3610  221.8430 C   0  0  0  0  0  0  0  0  0  0  0  0
  140.1274   83.2443  222.3851 H   0  0  0  0  0  0  0  0  0  0  0  0
  141.7230   81.7880  222.1950 C   0  0  0  0  0  0  0  0  0  0  0  0
  142.3182   82.2137  223.0163 H   0  0  0  0  0  0  0  0  0  0  0  0
  142.1860   80.6720  221.4960 C   0  0  0  0  0  0  0  0  0  0  0  0
  143.1496   80.2139  221.7636 H   0  0  0  0  0  0  0  0  0  0  0  0
  1  2  1  0
  2  3  2  0
  3  4  1  0
  3  5  1  0
  5  6  2  0
  6  7  1  0
  7  8  2  0
  8  9  1  0
  8 10  1  0
 10 11  1  0
 10 12  2  0
 12 13  1  0
 12 14  1  0
 14 15  1  0
 14 16  2  0
 16 17  1  0
 17 18  2  0
 17 19  1  0
 19 20  1  0
 20 21  1  0
 20 22  1  0
 20 23  1  0
 23 24  2  0
 24 25  1  0
 24 26  1  0
 26 27  1  0
 26 28  2  0
 28 29  1  0
 28 30  1  0
 30 31  1  0
 30 32  2  0
 32 33  1  0
  2 34  1  0
 34 35  2  0
 35 36  1  0
 35 37  1  0
 37 38  2  0
 38 39  1  0
 38 40  1  0
 40 41  1  0
 40 42  2  0
 42 43  1  0
 19  5  1  0
 32 23  1  0
 42 34  1  0
 16  7  1  0
M  END
>  <UniqueID>  (13) 
410

>  <SMILES>  (13) 
O=c1c2c(F)cc(F)cc2nc(/C=C/c2cccnc2)n1Cc1cccc(Cl)c1

>  <Energy>  (13) 
64.98252318730125

>  <Genealogy>  (13) 
O=c1c2c(F)cc(F)cc2nc(/C=C/c2cccnc2)n1Cc1cccc(Cl)c1 (cis-trans isomerization)
O=c1c2c(F)cc(F)cc2nc(/C=C/c2cccnc2)n1Cc1cccc(Cl)c1 (3D coordinates assigned)
O=c1c2c(F)cc(F)cc2nc(/C=C/c2cccnc2)n1Cc1cccc(Cl)c1 (optimized conformer: 64.98252318730125 kcal/mol)

>  <smiles>  (13) 
O=c1c2c(F)cc(F)cc2nc(/C=C/c2cccnc2)n1Cc1cccc(Cl)c1

>  <score_type>  (13) 
oracle

>  <origin>  (13) 
autodockgpu

>  <m_score__min__energy>  (13) 
-7.5999999999999996

>  <m_primary>  (13) 
energy

>  <meeko>  (13) 
{"free_energy": -6.65, "intermolecular_energy": -8.14, "internal_energy": -1.99, "cluster_size": 12, "cluster_id": 5, "rank_in_cluster": 1}

>  <energy>  (13) 
-6.61

>  <cluster_rmsd>  (13) 
0.08

>  <rmsd>  (13) 
272.06

>  <cluster>  (13) 
5

$$$$
BHXRCLCEYZJJKL-VOTSOKGWNA-N
     RDKit          3D

 43 46  0  0  0  0  0  0  0  0999 V2000
  142.9262   78.8833  219.4801 H   0  0  0  0  0  0  0  0  0  0  0  0
  141.8650   78.9540  219.7610 C   0  0  0  0  0  0  0  0  0  0  0  0
  141.0550   77.9420  219.4330 C   0  0  0  0  0  0  0  0  0  0  0  0
  140.1316   78.1374  218.8680 H   0  0  0  0  0  0  0  0  0  0  0  0
  141.3990   76.5670  219.8280 C   0  0  0  0  0  0  0  0  0  0  0  0
  142.5180   76.0200  219.2900 N   0  0  0  0  0  0  0  0  0  0  0  0
  142.9370   74.7780  219.6240 C   0  0  0  0  0  0  0  0  0  0  0  0
  144.0910   74.2510  219.0270 C   0  0  0  0  0  0  0  0  0  0  0  0
  144.6500   74.8468  218.2905 H   0  0  0  0  0  0  0  0  0  0  0  0
  144.5310   72.9700  219.3670 C   0  0  0  0  0  0  0  0  0  0  0  0
  145.6380   72.4540  218.7770 F   0  0  0  0  0  0  0  0  0  0  0  0
  143.8290   72.2180  220.3100 C   0  0  0  0  0  0  0  0  0  0  0  0
  144.1820   71.2114  220.5787 H   0  0  0  0  0  0  0  0  0  0  0  0
  142.6770   72.7370  220.9170 C   0  0  0  0  0  0  0  0  0  0  0  0
  142.0280   71.9750  221.8340 F   0  0  0  0  0  0  0  0  0  0  0  0
  142.2130   74.0260  220.5690 C   0  0  0  0  0  0  0  0  0  0  0  0
  141.0540   74.6050  221.1280 C   0  0  0  0  0  0  0  0  0  0  0  0
  140.3880   73.9600  221.9840 O   0  0  0  0  0  0  0  0  0  0  0  0
  140.6530   75.8680  220.7500 N   0  0  0  0  0  0  0  0  0  0  0  0
  139.4540   76.4880  221.3580 C   0  0  0  0  0  0  0  0  0  0  0  0
  138.8387   76.9317  220.5614 H   0  0  0  0  0  0  0  0  0  0  0  0
  138.8972   75.7060  221.8950 H   0  0  0  0  0  0  0  0  0  0  0  0
  139.8270   77.5670  222.3480 C   0  0  0  0  0  0  0  0  0  0  0  0
  141.1250   77.6170  222.8780 C   0  0  0  0  0  0  0  0  0  0  0  0
  141.8676   76.8620  222.5805 H   0  0  0  0  0  0  0  0  0  0  0  0
  141.4790   78.6240  223.7840 C   0  0  0  0  0  0  0  0  0  0  0  0
  142.5010   78.6638  224.1889 H   0  0  0  0  0  0  0  0  0  0  0  0
  140.5360   79.5790  224.1750 C   0  0  0  0  0  0  0  0  0  0  0  0
  140.8157   80.3692  224.8872 H   0  0  0  0  0  0  0  0  0  0  0  0
  139.2340   79.5290  223.6590 C   0  0  0  0  0  0  0  0  0  0  0  0
  138.0610   80.7510  224.1230 Cl  0  0  0  0  0  0  0  0  0  0  0  0
  138.8840   78.5340  222.7430 C   0  0  0  0  0  0  0  0  0  0  0  0
  137.8656   78.5062  222.3282 H   0  0  0  0  0  0  0  0  0  0  0  0
  141.4110   80.1630  220.4810 C   0  0  0  0  0  0  0  0  0  0  0  0
  140.1210   80.6640  220.2280 C   0  0  0  0  0  0  0  0  0  0  0  0
  139.4824   80.1758  219.4771 H   0  0  0  0  0  0  0  0  0  0  0  0
  139.6590   81.7480  220.9060 N   0  0  0  0  0  0  0  0  0  0  0  0
  140.4180   82.3840  221.8330 C   0  0  0  0  0  0  0  0  0  0  0  0
  140.0191   83.2637  222.3594 H   0  0  0  0  0  0  0  0  0  0  0  0
  141.7080   81.9230  222.1210 C   0  0  0  0  0  0  0  0  0  0  0  0
  142.3236   82.4341  222.8759 H   0  0  0  0  0  0  0  0  0  0  0  0
  142.2070   80.8100  221.4430 C   0  0  0  0  0  0  0  0  0  0  0  0
  143.2198   80.4399  221.6604 H   0  0  0  0  0  0  0  0  0  0  0  0
  1  2  1  0
  2  3  2  0
  3  4  1  0
  3  5  1  0
  5  6  2  0
  6  7  1  0
  7  8  2  0
  8  9  1  0
  8 10  1  0
 10 11  1  0
 10 12  2  0
 12 13  1  0
 12 14  1  0
 14 15  1  0
 14 16  2  0
 16 17  1  0
 17 18  2  0
 17 19  1  0
 19 20  1  0
 20 21  1  0
 20 22  1  0
 20 23  1  0
 23 24  2  0
 24 25  1  0
 24 26  1  0
 26 27  1  0
 26 28  2  0
 28 29  1  0
 28 30  1  0
 30 31  1  0
 30 32  2  0
 32 33  1  0
  2 34  1  0
 34 35  2  0
 35 36  1  0
 35 37  1  0
 37 38  2  0
 38 39  1  0
 38 40  1  0
 40 41  1  0
 40 42  2  0
 42 43  1  0
 19  5  1  0
 32 23  1  0
 42 34  1  0
 16  7  1  0
M  END
>  <UniqueID>  (14) 
410

>  <SMILES>  (14) 
O=c1c2c(F)cc(F)cc2nc(/C=C/c2cccnc2)n1Cc1cccc(Cl)c1

>  <Energy>  (14) 
64.98252318730125

>  <Genealogy>  (14) 
O=c1c2c(F)cc(F)cc2nc(/C=C/c2cccnc2)n1Cc1cccc(Cl)c1 (cis-trans isomerization)
O=c1c2c(F)cc(F)cc2nc(/C=C/c2cccnc2)n1Cc1cccc(Cl)c1 (3D coordinates assigned)
O=c1c2c(F)cc(F)cc2nc(/C=C/c2cccnc2)n1Cc1cccc(Cl)c1 (optimized conformer: 64.98252318730125 kcal/mol)

>  <smiles>  (14) 
O=c1c2c(F)cc(F)cc2nc(/C=C/c2cccnc2)n1Cc1cccc(Cl)c1

>  <score_type>  (14) 
oracle

>  <origin>  (14) 
autodockgpu

>  <m_score__min__energy>  (14) 
-7.5999999999999996

>  <m_primary>  (14) 
energy

>  <meeko>  (14) 
{"free_energy": -6.61, "intermolecular_energy": -8.11, "internal_energy": -2.02, "cluster_size": 12, "cluster_id": 5, "rank_in_cluster": 6}

>  <energy>  (14) 
-6.6

>  <cluster_rmsd>  (14) 
0.15

>  <rmsd>  (14) 
272.05

>  <cluster>  (14) 
5

$$$$
BHXRCLCEYZJJKL-VOTSOKGWNA-N
     RDKit          3D

 43 46  0  0  0  0  0  0  0  0999 V2000
  142.9485   78.9296  219.3633 H   0  0  0  0  0  0  0  0  0  0  0  0
  141.8890   78.9890  219.6530 C   0  0  0  0  0  0  0  0  0  0  0  0
  141.0840   77.9760  219.3180 C   0  0  0  0  0  0  0  0  0  0  0  0
  140.1869   78.1643  218.7099 H   0  0  0  0  0  0  0  0  0  0  0  0
  141.3980   76.6080  219.7630 C   0  0  0  0  0  0  0  0  0  0  0  0
  142.5120   76.0240  219.2580 N   0  0  0  0  0  0  0  0  0  0  0  0
  142.9050   74.7860  219.6380 C   0  0  0  0  0  0  0  0  0  0  0  0
  144.0550   74.2190  219.0740 C   0  0  0  0  0  0  0  0  0  0  0  0
  144.6340   74.7797  218.3255 H   0  0  0  0  0  0  0  0  0  0  0  0
  144.4670   72.9410  219.4620 C   0  0  0  0  0  0  0  0  0  0  0  0
  145.5710   72.3870  218.9040 F   0  0  0  0  0  0  0  0  0  0  0  0
  143.7400   72.2350  220.4210 C   0  0  0  0  0  0  0  0  0  0  0  0
  144.0715   71.2322  220.7285 H   0  0  0  0  0  0  0  0  0  0  0  0
  142.5910   72.7940  220.9950 C   0  0  0  0  0  0  0  0  0  0  0  0
  141.9180   72.0760  221.9300 F   0  0  0  0  0  0  0  0  0  0  0  0
  142.1550   74.0800  220.5990 C   0  0  0  0  0  0  0  0  0  0  0  0
  141.0010   74.6980  221.1240 C   0  0  0  0  0  0  0  0  0  0  0  0
  140.3130   74.0950  221.9920 O   0  0  0  0  0  0  0  0  0  0  0  0
  140.6280   75.9540  220.6980 N   0  0  0  0  0  0  0  0  0  0  0  0
  139.4330   76.6170  221.2700 C   0  0  0  0  0  0  0  0  0  0  0  0
  138.8750   77.1083  220.4593 H   0  0  0  0  0  0  0  0  0  0  0  0
  138.8170   75.8502  221.7625 H   0  0  0  0  0  0  0  0  0  0  0  0
  139.8120   77.6530  222.3020 C   0  0  0  0  0  0  0  0  0  0  0  0
  141.1090   77.6720  222.8370 C   0  0  0  0  0  0  0  0  0  0  0  0
  141.8467   76.9235  222.5120 H   0  0  0  0  0  0  0  0  0  0  0  0
  141.4680   78.6400  223.7830 C   0  0  0  0  0  0  0  0  0  0  0  0
  142.4886   78.6550  224.1931 H   0  0  0  0  0  0  0  0  0  0  0  0
  140.5320   79.5870  224.2070 C   0  0  0  0  0  0  0  0  0  0  0  0
  140.8160   80.3471  224.9497 H   0  0  0  0  0  0  0  0  0  0  0  0
  139.2320   79.5680  223.6860 C   0  0  0  0  0  0  0  0  0  0  0  0
  138.0680   80.7810  224.1930 Cl  0  0  0  0  0  0  0  0  0  0  0  0
  138.8760   78.6120  222.7310 C   0  0  0  0  0  0  0  0  0  0  0  0
  137.8588   78.6092  222.3124 H   0  0  0  0  0  0  0  0  0  0  0  0
  141.4320   80.1850  220.3920 C   0  0  0  0  0  0  0  0  0  0  0  0
  140.1730   80.7350  220.0880 C   0  0  0  0  0  0  0  0  0  0  0  0
  139.5631   80.2947  219.2854 H   0  0  0  0  0  0  0  0  0  0  0  0
  139.7060   81.8080  220.7810 N   0  0  0  0  0  0  0  0  0  0  0  0
  140.4310   82.3860  221.7700 C   0  0  0  0  0  0  0  0  0  0  0  0
  140.0296   83.2583  222.3067 H   0  0  0  0  0  0  0  0  0  0  0  0
  141.6900   81.8750  222.1100 C   0  0  0  0  0  0  0  0  0  0  0  0
  142.2781   82.3396  222.9152 H   0  0  0  0  0  0  0  0  0  0  0  0
  142.1920   80.7720  221.4190 C   0  0  0  0  0  0  0  0  0  0  0  0
  143.1798   80.3626  221.6769 H   0  0  0  0  0  0  0  0  0  0  0  0
  1  2  1  0
  2  3  2  0
  3  4  1  0
  3  5  1  0
  5  6  2  0
  6  7  1  0
  7  8  2  0
  8  9  1  0
  8 10  1  0
 10 11  1  0
 10 12  2  0
 12 13  1  0
 12 14  1  0
 14 15  1  0
 14 16  2  0
 16 17  1  0
 17 18  2  0
 17 19  1  0
 19 20  1  0
 20 21  1  0
 20 22  1  0
 20 23  1  0
 23 24  2  0
 24 25  1  0
 24 26  1  0
 26 27  1  0
 26 28  2  0
 28 29  1  0
 28 30  1  0
 30 31  1  0
 30 32  2  0
 32 33  1  0
  2 34  1  0
 34 35  2  0
 35 36  1  0
 35 37  1  0
 37 38  2  0
 38 39  1  0
 38 40  1  0
 40 41  1  0
 40 42  2  0
 42 43  1  0
 19  5  1  0
 32 23  1  0
 42 34  1  0
 16  7  1  0
M  END
>  <UniqueID>  (15) 
410

>  <SMILES>  (15) 
O=c1c2c(F)cc(F)cc2nc(/C=C/c2cccnc2)n1Cc1cccc(Cl)c1

>  <Energy>  (15) 
64.98252318730125

>  <Genealogy>  (15) 
O=c1c2c(F)cc(F)cc2nc(/C=C/c2cccnc2)n1Cc1cccc(Cl)c1 (cis-trans isomerization)
O=c1c2c(F)cc(F)cc2nc(/C=C/c2cccnc2)n1Cc1cccc(Cl)c1 (3D coordinates assigned)
O=c1c2c(F)cc(F)cc2nc(/C=C/c2cccnc2)n1Cc1cccc(Cl)c1 (optimized conformer: 64.98252318730125 kcal/mol)

>  <smiles>  (15) 
O=c1c2c(F)cc(F)cc2nc(/C=C/c2cccnc2)n1Cc1cccc(Cl)c1

>  <score_type>  (15) 
oracle

>  <origin>  (15) 
autodockgpu

>  <m_score__min__energy>  (15) 
-7.5999999999999996

>  <m_primary>  (15) 
energy

>  <meeko>  (15) 
{"free_energy": -6.59, "intermolecular_energy": -8.09, "internal_energy": -2.05, "cluster_size": 12, "cluster_id": 5, "rank_in_cluster": 9}

>  <energy>  (15) 
-6.6

>  <cluster_rmsd>  (15) 
0.52

>  <rmsd>  (15) 
272.06

>  <cluster>  (15) 
5

$$$$
BHXRCLCEYZJJKL-VOTSOKGWNA-N
     RDKit          3D

 43 46  0  0  0  0  0  0  0  0999 V2000
  142.9478   78.9009  219.2536 H   0  0  0  0  0  0  0  0  0  0  0  0
  141.9010   78.9500  219.5880 C   0  0  0  0  0  0  0  0  0  0  0  0
  141.0900   77.9330  219.2800 C   0  0  0  0  0  0  0  0  0  0  0  0
  140.1853   78.1124  218.6806 H   0  0  0  0  0  0  0  0  0  0  0  0
  141.4090   76.5720  219.7440 C   0  0  0  0  0  0  0  0  0  0  0  0
  142.5260   75.9850  219.2470 N   0  0  0  0  0  0  0  0  0  0  0  0
  142.9220   74.7540  219.6430 C   0  0  0  0  0  0  0  0  0  0  0  0
  144.0760   74.1840  219.0870 C   0  0  0  0  0  0  0  0  0  0  0  0
  144.6540   74.7377  218.3325 H   0  0  0  0  0  0  0  0  0  0  0  0
  144.4920   72.9130  219.4910 C   0  0  0  0  0  0  0  0  0  0  0  0
  145.5980   72.3550  218.9410 F   0  0  0  0  0  0  0  0  0  0  0  0
  143.7670   72.2160  220.4590 C   0  0  0  0  0  0  0  0  0  0  0  0
  144.1019   71.2185  220.7797 H   0  0  0  0  0  0  0  0  0  0  0  0
  142.6150   72.7790  221.0250 C   0  0  0  0  0  0  0  0  0  0  0  0
  141.9440   72.0700  221.9680 F   0  0  0  0  0  0  0  0  0  0  0  0
  142.1750   74.0570  220.6120 C   0  0  0  0  0  0  0  0  0  0  0  0
  141.0180   74.6780  221.1280 C   0  0  0  0  0  0  0  0  0  0  0  0
  140.3310   74.0840  222.0040 O   0  0  0  0  0  0  0  0  0  0  0  0
  140.6410   75.9270  220.6860 N   0  0  0  0  0  0  0  0  0  0  0  0
  139.4430   76.5930  221.2490 C   0  0  0  0  0  0  0  0  0  0  0  0
  138.8953   77.0901  220.4348 H   0  0  0  0  0  0  0  0  0  0  0  0
  138.8188   75.8269  221.7322 H   0  0  0  0  0  0  0  0  0  0  0  0
  139.8160   77.6230  222.2890 C   0  0  0  0  0  0  0  0  0  0  0  0
  141.1090   77.6380  222.8330 C   0  0  0  0  0  0  0  0  0  0  0  0
  141.8479   76.8901  222.5095 H   0  0  0  0  0  0  0  0  0  0  0  0
  141.4630   78.6010  223.7860 C   0  0  0  0  0  0  0  0  0  0  0  0
  142.4812   78.6134  224.2022 H   0  0  0  0  0  0  0  0  0  0  0  0
  140.5250   79.5460  224.2090 C   0  0  0  0  0  0  0  0  0  0  0  0
  140.8046   80.3016  224.9579 H   0  0  0  0  0  0  0  0  0  0  0  0
  139.2280   79.5310  223.6790 C   0  0  0  0  0  0  0  0  0  0  0  0
  138.0620   80.7430  224.1850 Cl  0  0  0  0  0  0  0  0  0  0  0  0
  138.8780   78.5810  222.7170 C   0  0  0  0  0  0  0  0  0  0  0  0
  137.8636   78.5815  222.2915 H   0  0  0  0  0  0  0  0  0  0  0  0
  141.4660   80.1370  220.3540 C   0  0  0  0  0  0  0  0  0  0  0  0
  140.2420   80.7490  220.0300 C   0  0  0  0  0  0  0  0  0  0  0  0
  139.6426   80.3630  219.1923 H   0  0  0  0  0  0  0  0  0  0  0  0
  139.7950   81.8150  220.7460 N   0  0  0  0  0  0  0  0  0  0  0  0
  140.5080   82.3280  221.7790 C   0  0  0  0  0  0  0  0  0  0  0  0
  140.1241   83.1971  222.3333 H   0  0  0  0  0  0  0  0  0  0  0  0
  141.7320   81.7530  222.1410 C   0  0  0  0  0  0  0  0  0  0  0  0
  142.3097   82.1637  222.9822 H   0  0  0  0  0  0  0  0  0  0  0  0
  142.2140   80.6550  221.4270 C   0  0  0  0  0  0  0  0  0  0  0  0
  143.1752   80.1963  221.7022 H   0  0  0  0  0  0  0  0  0  0  0  0
  1  2  1  0
  2  3  2  0
  3  4  1  0
  3  5  1  0
  5  6  2  0
  6  7  1  0
  7  8  2  0
  8  9  1  0
  8 10  1  0
 10 11  1  0
 10 12  2  0
 12 13  1  0
 12 14  1  0
 14 15  1  0
 14 16  2  0
 16 17  1  0
 17 18  2  0
 17 19  1  0
 19 20  1  0
 20 21  1  0
 20 22  1  0
 20 23  1  0
 23 24  2  0
 24 25  1  0
 24 26  1  0
 26 27  1  0
 26 28  2  0
 28 29  1  0
 28 30  1  0
 30 31  1  0
 30 32  2  0
 32 33  1  0
  2 34  1  0
 34 35  2  0
 35 36  1  0
 35 37  1  0
 37 38  2  0
 38 39  1  0
 38 40  1  0
 40 41  1  0
 40 42  2  0
 42 43  1  0
 19  5  1  0
 32 23  1  0
 42 34  1  0
 16  7  1  0
M  END
>  <UniqueID>  (16) 
410

>  <SMILES>  (16) 
O=c1c2c(F)cc(F)cc2nc(/C=C/c2cccnc2)n1Cc1cccc(Cl)c1

>  <Energy>  (16) 
64.98252318730125

>  <Genealogy>  (16) 
O=c1c2c(F)cc(F)cc2nc(/C=C/c2cccnc2)n1Cc1cccc(Cl)c1 (cis-trans isomerization)
O=c1c2c(F)cc(F)cc2nc(/C=C/c2cccnc2)n1Cc1cccc(Cl)c1 (3D coordinates assigned)
O=c1c2c(F)cc(F)cc2nc(/C=C/c2cccnc2)n1Cc1cccc(Cl)c1 (optimized conformer: 64.98252318730125 kcal/mol)

>  <smiles>  (16) 
O=c1c2c(F)cc(F)cc2nc(/C=C/c2cccnc2)n1Cc1cccc(Cl)c1

>  <score_type>  (16) 
oracle

>  <origin>  (16) 
autodockgpu

>  <m_score__min__energy>  (16) 
-7.5999999999999996

>  <m_primary>  (16) 
energy

>  <meeko>  (16) 
{"free_energy": -6.6, "intermolecular_energy": -8.09, "internal_energy": -2.04, "cluster_size": 12, "cluster_id": 5, "rank_in_cluster": 7}

>  <energy>  (16) 
-6.59

>  <cluster_rmsd>  (16) 
0.15

>  <rmsd>  (16) 
272.05

>  <cluster>  (16) 
5

$$$$
BHXRCLCEYZJJKL-VOTSOKGWNA-N
     RDKit          3D

 43 46  0  0  0  0  0  0  0  0999 V2000
  142.8539   78.8925  219.3655 H   0  0  0  0  0  0  0  0  0  0  0  0
  141.8110   78.9320  219.7130 C   0  0  0  0  0  0  0  0  0  0  0  0
  141.0050   77.9080  219.4140 C   0  0  0  0  0  0  0  0  0  0  0  0
  140.0635   78.0883  218.8745 H   0  0  0  0  0  0  0  0  0  0  0  0
  141.3780   76.5390  219.8070 C   0  0  0  0  0  0  0  0  0  0  0  0
  142.4990   76.0110  219.2560 N   0  0  0  0  0  0  0  0  0  0  0  0
  142.9440   74.7770  219.5850 C   0  0  0  0  0  0  0  0  0  0  0  0
  144.0990   74.2690  218.9750 C   0  0  0  0  0  0  0  0  0  0  0  0
  144.6386   74.8738  218.2313 H   0  0  0  0  0  0  0  0  0  0  0  0
  144.5660   72.9960  219.3100 C   0  0  0  0  0  0  0  0  0  0  0  0
  145.6740   72.4990  218.7070 F   0  0  0  0  0  0  0  0  0  0  0  0
  143.8890   72.2340  220.2630 C   0  0  0  0  0  0  0  0  0  0  0  0
  144.2631   71.2343  220.5288 H   0  0  0  0  0  0  0  0  0  0  0  0
  142.7360   72.7330  220.8840 C   0  0  0  0  0  0  0  0  0  0  0  0
  142.1130   71.9620  221.8110 F   0  0  0  0  0  0  0  0  0  0  0  0
  142.2460   74.0140  220.5410 C   0  0  0  0  0  0  0  0  0  0  0  0
  141.0840   74.5740  221.1140 C   0  0  0  0  0  0  0  0  0  0  0  0
  140.4400   73.9190  221.9790 O   0  0  0  0  0  0  0  0  0  0  0  0
  140.6560   75.8280  220.7390 N   0  0  0  0  0  0  0  0  0  0  0  0
  139.4540   76.4290  221.3620 C   0  0  0  0  0  0  0  0  0  0  0  0
  138.8229   76.8641  220.5731 H   0  0  0  0  0  0  0  0  0  0  0  0
  138.9158   75.6377  221.9043 H   0  0  0  0  0  0  0  0  0  0  0  0
  139.8210   77.5120  222.3490 C   0  0  0  0  0  0  0  0  0  0  0  0
  141.1070   77.5470  222.9090 C   0  0  0  0  0  0  0  0  0  0  0  0
  141.8441   76.7772  222.6368 H   0  0  0  0  0  0  0  0  0  0  0  0
  141.4560   78.5580  223.8130 C   0  0  0  0  0  0  0  0  0  0  0  0
  142.4684   78.5855  224.2422 H   0  0  0  0  0  0  0  0  0  0  0  0
  140.5190   79.5330  224.1710 C   0  0  0  0  0  0  0  0  0  0  0  0
  140.7942   80.3264  224.8814 H   0  0  0  0  0  0  0  0  0  0  0  0
  139.2300   79.4980  223.6240 C   0  0  0  0  0  0  0  0  0  0  0  0
  138.0670   80.7440  224.0460 Cl  0  0  0  0  0  0  0  0  0  0  0  0
  138.8850   78.4990  222.7100 C   0  0  0  0  0  0  0  0  0  0  0  0
  137.8767   78.4839  222.2704 H   0  0  0  0  0  0  0  0  0  0  0  0
  141.3750   80.1150  220.4860 C   0  0  0  0  0  0  0  0  0  0  0  0
  142.1890   80.5850  221.5320 C   0  0  0  0  0  0  0  0  0  0  0  0
  143.1159   80.0500  221.7862 H   0  0  0  0  0  0  0  0  0  0  0  0
  141.8370   81.6970  222.2310 N   0  0  0  0  0  0  0  0  0  0  0  0
  140.6980   82.3790  221.9550 C   0  0  0  0  0  0  0  0  0  0  0  0
  140.4356   83.2703  222.5438 H   0  0  0  0  0  0  0  0  0  0  0  0
  139.8550   81.9510  220.9220 C   0  0  0  0  0  0  0  0  0  0  0  0
  138.9328   82.5053  220.6935 H   0  0  0  0  0  0  0  0  0  0  0  0
  140.1940   80.8160  220.1850 C   0  0  0  0  0  0  0  0  0  0  0  0
  139.5395   80.4707  219.3711 H   0  0  0  0  0  0  0  0  0  0  0  0
  1  2  1  0
  2  3  2  0
  3  4  1  0
  3  5  1  0
  5  6  2  0
  6  7  1  0
  7  8  2  0
  8  9  1  0
  8 10  1  0
 10 11  1  0
 10 12  2  0
 12 13  1  0
 12 14  1  0
 14 15  1  0
 14 16  2  0
 16 17  1  0
 17 18  2  0
 17 19  1  0
 19 20  1  0
 20 21  1  0
 20 22  1  0
 20 23  1  0
 23 24  2  0
 24 25  1  0
 24 26  1  0
 26 27  1  0
 26 28  2  0
 28 29  1  0
 28 30  1  0
 30 31  1  0
 30 32  2  0
 32 33  1  0
  2 34  1  0
 34 35  2  0
 35 36  1  0
 35 37  1  0
 37 38  2  0
 38 39  1  0
 38 40  1  0
 40 41  1  0
 40 42  2  0
 42 43  1  0
 19  5  1  0
 32 23  1  0
 42 34  1  0
 16  7  1  0
M  END
>  <UniqueID>  (17) 
410

>  <SMILES>  (17) 
O=c1c2c(F)cc(F)cc2nc(/C=C/c2cccnc2)n1Cc1cccc(Cl)c1

>  <Energy>  (17) 
64.98252318730125

>  <Genealogy>  (17) 
O=c1c2c(F)cc(F)cc2nc(/C=C/c2cccnc2)n1Cc1cccc(Cl)c1 (cis-trans isomerization)
O=c1c2c(F)cc(F)cc2nc(/C=C/c2cccnc2)n1Cc1cccc(Cl)c1 (3D coordinates assigned)
O=c1c2c(F)cc(F)cc2nc(/C=C/c2cccnc2)n1Cc1cccc(Cl)c1 (optimized conformer: 64.98252318730125 kcal/mol)

>  <smiles>  (17) 
O=c1c2c(F)cc(F)cc2nc(/C=C/c2cccnc2)n1Cc1cccc(Cl)c1

>  <score_type>  (17) 
oracle

>  <origin>  (17) 
autodockgpu

>  <m_score__min__energy>  (17) 
-7.5999999999999996

>  <m_primary>  (17) 
energy

>  <meeko>  (17) 
{"free_energy": -6.6, "intermolecular_energy": -8.09, "internal_energy": -1.98, "cluster_size": 12, "cluster_id": 5, "rank_in_cluster": 8}

>  <energy>  (17) 
-6.52

>  <cluster_rmsd>  (17) 
0.55

>  <rmsd>  (17) 
272.05

>  <cluster>  (17) 
5

$$$$
BHXRCLCEYZJJKL-VOTSOKGWNA-N
     RDKit          3D

 43 46  0  0  0  0  0  0  0  0999 V2000
  134.3984   72.2780  222.4715 H   0  0  0  0  0  0  0  0  0  0  0  0
  135.1450   71.9310  223.2010 C   0  0  0  0  0  0  0  0  0  0  0  0
  136.3560   71.5830  222.7510 C   0  0  0  0  0  0  0  0  0  0  0  0
  136.5896   70.5251  222.5605 H   0  0  0  0  0  0  0  0  0  0  0  0
  137.3760   72.6180  222.5110 C   0  0  0  0  0  0  0  0  0  0  0  0
  136.9490   73.8960  222.3590 N   0  0  0  0  0  0  0  0  0  0  0  0
  137.8140   74.9200  222.1750 C   0  0  0  0  0  0  0  0  0  0  0  0
  137.3230   76.2220  222.0060 C   0  0  0  0  0  0  0  0  0  0  0  0
  136.2388   76.4068  222.0230 H   0  0  0  0  0  0  0  0  0  0  0  0
  138.2090   77.2850  221.8160 C   0  0  0  0  0  0  0  0  0  0  0  0
  137.7320   78.5410  221.6370 F   0  0  0  0  0  0  0  0  0  0  0  0
  139.5850   77.0530  221.8060 C   0  0  0  0  0  0  0  0  0  0  0  0
  140.2797   77.8935  221.6614 H   0  0  0  0  0  0  0  0  0  0  0  0
  140.0880   75.7560  221.9790 C   0  0  0  0  0  0  0  0  0  0  0  0
  141.4330   75.5760  221.9700 F   0  0  0  0  0  0  0  0  0  0  0  0
  139.2000   74.6700  222.1560 C   0  0  0  0  0  0  0  0  0  0  0  0
  139.6340   73.3380  222.3210 C   0  0  0  0  0  0  0  0  0  0  0  0
  140.8700   73.0820  222.3170 O   0  0  0  0  0  0  0  0  0  0  0  0
  138.7200   72.3220  222.4910 N   0  0  0  0  0  0  0  0  0  0  0  0
  139.1760   70.9270  222.6940 C   0  0  0  0  0  0  0  0  0  0  0  0
  138.4077   70.2406  222.3086 H   0  0  0  0  0  0  0  0  0  0  0  0
  140.1266   70.7940  222.1567 H   0  0  0  0  0  0  0  0  0  0  0  0
  139.4130   70.6270  224.1550 C   0  0  0  0  0  0  0  0  0  0  0  0
  138.8540   69.4790  224.7370 C   0  0  0  0  0  0  0  0  0  0  0  0
  138.2333   68.8039  224.1296 H   0  0  0  0  0  0  0  0  0  0  0  0
  139.0830   69.1890  226.0880 C   0  0  0  0  0  0  0  0  0  0  0  0
  138.6486   68.2835  226.5367 H   0  0  0  0  0  0  0  0  0  0  0  0
  139.8630   70.0490  226.8670 C   0  0  0  0  0  0  0  0  0  0  0  0
  140.0425   69.8202  227.9279 H   0  0  0  0  0  0  0  0  0  0  0  0
  140.4160   71.2030  226.2950 C   0  0  0  0  0  0  0  0  0  0  0  0
  141.4260   72.2620  227.2660 Cl  0  0  0  0  0  0  0  0  0  0  0  0
  140.2010   71.4850  224.9440 C   0  0  0  0  0  0  0  0  0  0  0  0
  140.6502   72.3828  224.4944 H   0  0  0  0  0  0  0  0  0  0  0  0
  134.7570   71.8740  224.6260 C   0  0  0  0  0  0  0  0  0  0  0  0
  134.3610   73.0580  225.2740 C   0  0  0  0  0  0  0  0  0  0  0  0
  134.3790   74.0127  224.7279 H   0  0  0  0  0  0  0  0  0  0  0  0
  133.9560   73.0290  226.5720 N   0  0  0  0  0  0  0  0  0  0  0  0
  133.9270   71.8740  227.2830 C   0  0  0  0  0  0  0  0  0  0  0  0
  133.6018   71.8841  228.3338 H   0  0  0  0  0  0  0  0  0  0  0  0
  134.3100   70.6700  226.6820 C   0  0  0  0  0  0  0  0  0  0  0  0
  134.2834   69.7316  227.2554 H   0  0  0  0  0  0  0  0  0  0  0  0
  134.7260   70.6680  225.3500 C   0  0  0  0  0  0  0  0  0  0  0  0
  135.0286   69.7268  224.8677 H   0  0  0  0  0  0  0  0  0  0  0  0
  1  2  1  0
  2  3  2  0
  3  4  1  0
  3  5  1  0
  5  6  2  0
  6  7  1  0
  7  8  2  0
  8  9  1  0
  8 10  1  0
 10 11  1  0
 10 12  2  0
 12 13  1  0
 12 14  1  0
 14 15  1  0
 14 16  2  0
 16 17  1  0
 17 18  2  0
 17 19  1  0
 19 20  1  0
 20 21  1  0
 20 22  1  0
 20 23  1  0
 23 24  2  0
 24 25  1  0
 24 26  1  0
 26 27  1  0
 26 28  2  0
 28 29  1  0
 28 30  1  0
 30 31  1  0
 30 32  2  0
 32 33  1  0
  2 34  1  0
 34 35  2  0
 35 36  1  0
 35 37  1  0
 37 38  2  0
 38 39  1  0
 38 40  1  0
 40 41  1  0
 40 42  2  0
 42 43  1  0
 19  5  1  0
 32 23  1  0
 42 34  1  0
 16  7  1  0
M  END
>  <UniqueID>  (18) 
410

>  <SMILES>  (18) 
O=c1c2c(F)cc(F)cc2nc(/C=C/c2cccnc2)n1Cc1cccc(Cl)c1

>  <Energy>  (18) 
64.98252318730125

>  <Genealogy>  (18) 
O=c1c2c(F)cc(F)cc2nc(/C=C/c2cccnc2)n1Cc1cccc(Cl)c1 (cis-trans isomerization)
O=c1c2c(F)cc(F)cc2nc(/C=C/c2cccnc2)n1Cc1cccc(Cl)c1 (3D coordinates assigned)
O=c1c2c(F)cc(F)cc2nc(/C=C/c2cccnc2)n1Cc1cccc(Cl)c1 (optimized conformer: 64.98252318730125 kcal/mol)

>  <smiles>  (18) 
O=c1c2c(F)cc(F)cc2nc(/C=C/c2cccnc2)n1Cc1cccc(Cl)c1

>  <score_type>  (18) 
oracle

>  <origin>  (18) 
autodockgpu

>  <m_score__min__energy>  (18) 
-7.5999999999999996

>  <m_primary>  (18) 
energy

>  <meeko>  (18) 
{"free_energy": -7.14, "intermolecular_energy": -8.63, "internal_energy": -1.43, "cluster_size": 2, "cluster_id": 3, "rank_in_cluster": 1}

>  <energy>  (18) 
-6.5

>  <cluster_rmsd>  (18) 
1.34

>  <rmsd>  (18) 
272.41

>  <cluster>  (18) 
5

$$$$
BHXRCLCEYZJJKL-VOTSOKGWNA-N
     RDKit          3D

 43 46  0  0  0  0  0  0  0  0999 V2000
  142.8897   78.9011  219.4645 H   0  0  0  0  0  0  0  0  0  0  0  0
  141.8360   78.9770  219.7710 C   0  0  0  0  0  0  0  0  0  0  0  0
  141.0140   77.9680  219.4650 C   0  0  0  0  0  0  0  0  0  0  0  0
  140.0768   78.1662  218.9243 H   0  0  0  0  0  0  0  0  0  0  0  0
  141.3640   76.5920  219.8520 C   0  0  0  0  0  0  0  0  0  0  0  0
  142.4790   76.0490  219.3030 N   0  0  0  0  0  0  0  0  0  0  0  0
  142.9040   74.8060  219.6280 C   0  0  0  0  0  0  0  0  0  0  0  0
  144.0530   74.2840  219.0200 C   0  0  0  0  0  0  0  0  0  0  0  0
  144.6050   74.8840  218.2816 H   0  0  0  0  0  0  0  0  0  0  0  0
  144.4980   73.0020  219.3510 C   0  0  0  0  0  0  0  0  0  0  0  0
  145.6010   72.4910  218.7500 F   0  0  0  0  0  0  0  0  0  0  0  0
  143.8050   72.2450  220.2970 C   0  0  0  0  0  0  0  0  0  0  0  0
  144.1616   71.2379  220.5589 H   0  0  0  0  0  0  0  0  0  0  0  0
  142.6580   72.7600  220.9150 C   0  0  0  0  0  0  0  0  0  0  0  0
  142.0180   71.9930  221.8350 F   0  0  0  0  0  0  0  0  0  0  0  0
  142.1890   74.0500  220.5760 C   0  0  0  0  0  0  0  0  0  0  0  0
  141.0330   74.6250  221.1470 C   0  0  0  0  0  0  0  0  0  0  0  0
  140.3750   73.9750  222.0060 O   0  0  0  0  0  0  0  0  0  0  0  0
  140.6270   75.8870  220.7770 N   0  0  0  0  0  0  0  0  0  0  0  0
  139.4320   76.5040  221.3980 C   0  0  0  0  0  0  0  0  0  0  0  0
  138.8072   76.9457  220.6077 H   0  0  0  0  0  0  0  0  0  0  0  0
  138.8837   75.7201  221.9411 H   0  0  0  0  0  0  0  0  0  0  0  0
  139.8110   77.5840  222.3840 C   0  0  0  0  0  0  0  0  0  0  0  0
  141.1090   77.6290  222.9130 C   0  0  0  0  0  0  0  0  0  0  0  0
  141.8475   76.8693  222.6174 H   0  0  0  0  0  0  0  0  0  0  0  0
  141.4690   78.6370  223.8160 C   0  0  0  0  0  0  0  0  0  0  0  0
  142.4911   78.6724  224.2211 H   0  0  0  0  0  0  0  0  0  0  0  0
  140.5310   79.5980  224.2030 C   0  0  0  0  0  0  0  0  0  0  0  0
  140.8149   80.3890  224.9128 H   0  0  0  0  0  0  0  0  0  0  0  0
  139.2290   79.5540  223.6870 C   0  0  0  0  0  0  0  0  0  0  0  0
  138.0630   80.7840  224.1470 Cl  0  0  0  0  0  0  0  0  0  0  0  0
  138.8730   78.5570  222.7750 C   0  0  0  0  0  0  0  0  0  0  0  0
  137.8543   78.5328  222.3607 H   0  0  0  0  0  0  0  0  0  0  0  0
  141.4050   80.1890  220.4990 C   0  0  0  0  0  0  0  0  0  0  0  0
  140.1430   80.7420  220.2170 C   0  0  0  0  0  0  0  0  0  0  0  0
  139.5105   80.2918  219.4377 H   0  0  0  0  0  0  0  0  0  0  0  0
  139.7000   81.8300  220.9020 N   0  0  0  0  0  0  0  0  0  0  0  0
  140.4530   82.4210  221.8630 C   0  0  0  0  0  0  0  0  0  0  0  0
  140.0708   83.3053  222.3940 H   0  0  0  0  0  0  0  0  0  0  0  0
  141.7160   81.9070  222.1800 C   0  0  0  0  0  0  0  0  0  0  0  0
  142.3271   82.3818  222.9617 H   0  0  0  0  0  0  0  0  0  0  0  0
  142.1940   80.7880  221.4970 C   0  0  0  0  0  0  0  0  0  0  0  0
  143.1848   80.3758  221.7385 H   0  0  0  0  0  0  0  0  0  0  0  0
  1  2  1  0
  2  3  2  0
  3  4  1  0
  3  5  1  0
  5  6  2  0
  6  7  1  0
  7  8  2  0
  8  9  1  0
  8 10  1  0
 10 11  1  0
 10 12  2  0
 12 13  1  0
 12 14  1  0
 14 15  1  0
 14 16  2  0
 16 17  1  0
 17 18  2  0
 17 19  1  0
 19 20  1  0
 20 21  1  0
 20 22  1  0
 20 23  1  0
 23 24  2  0
 24 25  1  0
 24 26  1  0
 26 27  1  0
 26 28  2  0
 28 29  1  0
 28 30  1  0
 30 31  1  0
 30 32  2  0
 32 33  1  0
  2 34  1  0
 34 35  2  0
 35 36  1  0
 35 37  1  0
 37 38  2  0
 38 39  1  0
 38 40  1  0
 40 41  1  0
 40 42  2  0
 42 43  1  0
 19  5  1  0
 32 23  1  0
 42 34  1  0
 16  7  1  0
M  END
>  <UniqueID>  (19) 
410

>  <SMILES>  (19) 
O=c1c2c(F)cc(F)cc2nc(/C=C/c2cccnc2)n1Cc1cccc(Cl)c1

>  <Energy>  (19) 
64.98252318730125

>  <Genealogy>  (19) 
O=c1c2c(F)cc(F)cc2nc(/C=C/c2cccnc2)n1Cc1cccc(Cl)c1 (cis-trans isomerization)
O=c1c2c(F)cc(F)cc2nc(/C=C/c2cccnc2)n1Cc1cccc(Cl)c1 (3D coordinates assigned)
O=c1c2c(F)cc(F)cc2nc(/C=C/c2cccnc2)n1Cc1cccc(Cl)c1 (optimized conformer: 64.98252318730125 kcal/mol)

>  <smiles>  (19) 
O=c1c2c(F)cc(F)cc2nc(/C=C/c2cccnc2)n1Cc1cccc(Cl)c1

>  <score_type>  (19) 
oracle

>  <origin>  (19) 
autodockgpu

>  <m_score__min__energy>  (19) 
-7.5999999999999996

>  <m_primary>  (19) 
energy

>  <meeko>  (19) 
{"free_energy": -6.64, "intermolecular_energy": -8.13, "internal_energy": -2.0, "cluster_size": 12, "cluster_id": 5, "rank_in_cluster": 2}

>  <energy>  (19) 
-6.37

>  <cluster_rmsd>  (19) 
1.37

>  <rmsd>  (19) 
272.35

>  <cluster>  (19) 
5

$$$$
BHXRCLCEYZJJKL-VOTSOKGWNA-N
     RDKit          3D

 43 46  0  0  0  0  0  0  0  0999 V2000
  142.8603   78.9224  219.3104 H   0  0  0  0  0  0  0  0  0  0  0  0
  141.8200   78.9750  219.6640 C   0  0  0  0  0  0  0  0  0  0  0  0
  141.0010   77.9590  219.3740 C   0  0  0  0  0  0  0  0  0  0  0  0
  140.0620   78.1462  218.8325 H   0  0  0  0  0  0  0  0  0  0  0  0
  141.3570   76.5890  219.7800 C   0  0  0  0  0  0  0  0  0  0  0  0
  142.4750   76.0440  219.2390 N   0  0  0  0  0  0  0  0  0  0  0  0
  142.9040   74.8080  219.5820 C   0  0  0  0  0  0  0  0  0  0  0  0
  144.0570   74.2830  218.9820 C   0  0  0  0  0  0  0  0  0  0  0  0
  144.6075   74.8758  218.2367 H   0  0  0  0  0  0  0  0  0  0  0  0
  144.5070   73.0080  219.3300 C   0  0  0  0  0  0  0  0  0  0  0  0
  145.6130   72.4940  218.7380 F   0  0  0  0  0  0  0  0  0  0  0  0
  143.8170   72.2600  220.2860 C   0  0  0  0  0  0  0  0  0  0  0  0
  144.1786   71.2585  220.5621 H   0  0  0  0  0  0  0  0  0  0  0  0
  142.6660   72.7780  220.8960 C   0  0  0  0  0  0  0  0  0  0  0  0
  142.0300   72.0210  221.8250 F   0  0  0  0  0  0  0  0  0  0  0  0
  142.1920   74.0610  220.5390 C   0  0  0  0  0  0  0  0  0  0  0  0
  141.0330   74.6380  221.1010 C   0  0  0  0  0  0  0  0  0  0  0  0
  140.3770   73.9970  221.9680 O   0  0  0  0  0  0  0  0  0  0  0  0
  140.6220   75.8940  220.7140 N   0  0  0  0  0  0  0  0  0  0  0  0
  139.4230   76.5130  221.3250 C   0  0  0  0  0  0  0  0  0  0  0  0
  138.8189   76.9790  220.5326 H   0  0  0  0  0  0  0  0  0  0  0  0
  138.8544   75.7252  221.8409 H   0  0  0  0  0  0  0  0  0  0  0  0
  139.7970   77.5670  222.3400 C   0  0  0  0  0  0  0  0  0  0  0  0
  141.0920   77.5970  222.8780 C   0  0  0  0  0  0  0  0  0  0  0  0
  141.8314   76.8440  222.5678 H   0  0  0  0  0  0  0  0  0  0  0  0
  141.4480   78.5820  223.8090 C   0  0  0  0  0  0  0  0  0  0  0  0
  142.4678   78.6062  224.2207 H   0  0  0  0  0  0  0  0  0  0  0  0
  140.5080   79.5340  224.2150 C   0  0  0  0  0  0  0  0  0  0  0  0
  140.7879   80.3063  224.9466 H   0  0  0  0  0  0  0  0  0  0  0  0
  139.2100   79.5040  223.6900 C   0  0  0  0  0  0  0  0  0  0  0  0
  138.0420   80.7230  224.1740 Cl  0  0  0  0  0  0  0  0  0  0  0  0
  138.8580   78.5320  222.7510 C   0  0  0  0  0  0  0  0  0  0  0  0
  137.8417   78.5204  222.3303 H   0  0  0  0  0  0  0  0  0  0  0  0
  141.4020   80.1660  220.4350 C   0  0  0  0  0  0  0  0  0  0  0  0
  140.1690   80.7740  220.1370 C   0  0  0  0  0  0  0  0  0  0  0  0
  139.5503   80.3829  219.3159 H   0  0  0  0  0  0  0  0  0  0  0  0
  139.7380   81.8430  220.8590 N   0  0  0  0  0  0  0  0  0  0  0  0
  140.4760   82.3610  221.8720 C   0  0  0  0  0  0  0  0  0  0  0  0
  140.1046   83.2321  222.4317 H   0  0  0  0  0  0  0  0  0  0  0  0
  141.7090   81.7900  222.2070 C   0  0  0  0  0  0  0  0  0  0  0  0
  142.3062   82.2056  223.0320 H   0  0  0  0  0  0  0  0  0  0  0  0
  142.1750   80.6900  221.4870 C   0  0  0  0  0  0  0  0  0  0  0  0
  143.1433   80.2340  221.7409 H   0  0  0  0  0  0  0  0  0  0  0  0
  1  2  1  0
  2  3  2  0
  3  4  1  0
  3  5  1  0
  5  6  2  0
  6  7  1  0
  7  8  2  0
  8  9  1  0
  8 10  1  0
 10 11  1  0
 10 12  2  0
 12 13  1  0
 12 14  1  0
 14 15  1  0
 14 16  2  0
 16 17  1  0
 17 18  2  0
 17 19  1  0
 19 20  1  0
 20 21  1  0
 20 22  1  0
 20 23  1  0
 23 24  2  0
 24 25  1  0
 24 26  1  0
 26 27  1  0
 26 28  2  0
 28 29  1  0
 28 30  1  0
 30 31  1  0
 30 32  2  0
 32 33  1  0
  2 34  1  0
 34 35  2  0
 35 36  1  0
 35 37  1  0
 37 38  2  0
 38 39  1  0
 38 40  1  0
 40 41  1  0
 40 42  2  0
 42 43  1  0
 19  5  1  0
 32 23  1  0
 42 34  1  0
 16  7  1  0
M  END
>  <UniqueID>  (20) 
410

>  <SMILES>  (20) 
O=c1c2c(F)cc(F)cc2nc(/C=C/c2cccnc2)n1Cc1cccc(Cl)c1

>  <Energy>  (20) 
64.98252318730125

>  <Genealogy>  (20) 
O=c1c2c(F)cc(F)cc2nc(/C=C/c2cccnc2)n1Cc1cccc(Cl)c1 (cis-trans isomerization)
O=c1c2c(F)cc(F)cc2nc(/C=C/c2cccnc2)n1Cc1cccc(Cl)c1 (3D coordinates assigned)
O=c1c2c(F)cc(F)cc2nc(/C=C/c2cccnc2)n1Cc1cccc(Cl)c1 (optimized conformer: 64.98252318730125 kcal/mol)

>  <smiles>  (20) 
O=c1c2c(F)cc(F)cc2nc(/C=C/c2cccnc2)n1Cc1cccc(Cl)c1

>  <score_type>  (20) 
oracle

>  <origin>  (20) 
autodockgpu

>  <m_score__min__energy>  (20) 
-7.5999999999999996

>  <m_primary>  (20) 
energy

>  <meeko>  (20) 
{"free_energy": -6.62, "intermolecular_energy": -8.12, "internal_energy": -2.02, "cluster_size": 12, "cluster_id": 5, "rank_in_cluster": 4}

>  <energy>  (20) 
-6.54

>  <cluster_rmsd>  (20) 
0.0

>  <rmsd>  (20) 
271.21

>  <cluster>  (20) 
6

$$$$
