UTPHXWZELLNSAP-IPDNQSFLNA-M
     RDKit          3D

 54 57  0  0  0  0  0  0  0  0999 V2000
  139.9840   72.9330  222.4750 O   0  0  0  0  0  0  0  0  0  0  0  0
  139.5610   71.7950  222.8240 C   0  0  0  0  0  0  0  0  0  0  0  0
  138.6930   71.0540  221.9620 N   0  0  0  0  0  0  0  0  0  0  0  0
  137.9220   71.6430  220.8750 C   0  0  0  0  0  0  0  0  0  0  0  0
  137.5800   73.0560  221.2300 C   0  0  0  0  0  0  0  0  0  0  0  0
  138.1020   73.9970  220.5730 O   0  0  0  0  0  0  0  0  0  0  0  0
  136.6980   73.3570  222.3260 N   0  0  0  0  0  0  0  0  0  0  0  0
  136.4310   72.4380  223.4190 C   0  0  0  0  0  0  0  0  0  0  0  0
  135.3020   73.0660  224.2300 C   0  0  0  0  0  0  0  0  0  0  0  0
  135.1120   74.4890  223.7040 C   0  0  0  0  0  0  0  0  0  0  0  0
  135.9360   74.5950  222.4160 C   0  0  1  0  0  0  0  0  0  0  0  0
  136.8590   75.7870  222.4500 C   0  0  0  0  0  0  0  0  0  0  0  0
  136.3860   76.9480  222.3160 O   0  0  0  0  0  0  0  0  0  0  0  0
  138.2680   75.5990  222.6180 N   0  0  0  0  0  0  0  0  0  0  0  0
  139.1800   76.7380  222.7160 C   0  0  0  0  0  0  0  0  0  0  0  0
  140.2390   76.6600  221.6490 C   0  0  0  0  0  0  0  0  0  0  0  0
  140.3860   77.6970  220.7160 C   0  0  0  0  0  0  0  0  0  0  0  0
  141.3410   77.6020  219.7010 C   0  0  0  0  0  0  0  0  0  0  0  0
  142.1500   76.4650  219.5980 C   0  0  0  0  0  0  0  0  0  0  0  0
  143.3340   76.3770  218.2990 Cl  0  0  0  0  0  0  0  0  0  0  0  0
  141.9990   75.4150  220.5190 C   0  0  0  0  0  0  0  0  0  0  0  0
  142.9830   73.9610  220.4150 Cl  0  0  0  0  0  0  0  0  0  0  0  0
  141.0430   75.5150  221.5370 C   0  0  0  0  0  0  0  0  0  0  0  0
  139.9310   71.2230  224.1290 C   0  0  0  0  0  0  0  0  0  0  0  0
  140.6960   71.9490  225.0550 C   0  0  0  0  0  0  0  0  0  0  0  0
  140.9970   71.3850  226.2980 C   0  0  0  0  0  0  0  0  0  0  0  0
  140.5390   70.0970  226.6070 C   0  0  0  0  0  0  0  0  0  0  0  0
  140.8190   69.5000  227.8440 C   0  0  0  0  0  0  0  0  0  0  0  0
  140.3510   68.2110  228.1200 C   0  0  0  0  0  0  0  0  0  0  0  0
  139.6080   67.5120  227.1630 C   0  0  0  0  0  0  0  0  0  0  0  0
  139.3170   68.1040  225.9310 C   0  0  0  0  0  0  0  0  0  0  0  0
  139.7800   69.3940  225.6460 C   0  0  0  0  0  0  0  0  0  0  0  0
  139.4960   69.9750  224.4510 N   0  0  0  0  0  0  0  0  0  0  0  0
  138.5178   71.6289  219.9504 H   0  0  0  0  0  0  0  0  0  0  0  0
  136.9990   71.0654  220.7186 H   0  0  0  0  0  0  0  0  0  0  0  0
  136.1209   71.4580  223.0273 H   0  0  0  0  0  0  0  0  0  0  0  0
  137.3271   72.2740  224.0356 H   0  0  0  0  0  0  0  0  0  0  0  0
  134.3755   72.4878  224.0986 H   0  0  0  0  0  0  0  0  0  0  0  0
  135.5460   73.0732  225.3026 H   0  0  0  0  0  0  0  0  0  0  0  0
  134.0492   74.6758  223.4907 H   0  0  0  0  0  0  0  0  0  0  0  0
  135.4391   75.2325  224.4458 H   0  0  0  0  0  0  0  0  0  0  0  0
  135.2836   74.7355  221.5415 H   0  0  0  0  0  0  0  0  0  0  0  0
  138.6450   74.6260  222.6300 H   0  0  0  0  0  0  0  0  0  0  0  0
  138.6093   77.6702  222.5919 H   0  0  0  0  0  0  0  0  0  0  0  0
  139.6671   76.7194  223.7021 H   0  0  0  0  0  0  0  0  0  0  0  0
  139.7462   78.5892  220.7839 H   0  0  0  0  0  0  0  0  0  0  0  0
  141.4575   78.4244  218.9798 H   0  0  0  0  0  0  0  0  0  0  0  0
  140.9211   74.6901  222.2544 H   0  0  0  0  0  0  0  0  0  0  0  0
  141.0570   72.9572  224.8037 H   0  0  0  0  0  0  0  0  0  0  0  0
  141.5913   71.9501  227.0311 H   0  0  0  0  0  0  0  0  0  0  0  0
  141.4066   70.0450  228.5975 H   0  0  0  0  0  0  0  0  0  0  0  0
  140.5680   67.7456  229.0928 H   0  0  0  0  0  0  0  0  0  0  0  0
  139.2520   66.4942  227.3806 H   0  0  0  0  0  0  0  0  0  0  0  0
  138.7236   67.5558  225.1845 H   0  0  0  0  0  0  0  0  0  0  0  0
  1  2  2  0
  2  3  1  0
  3  4  1  0
  4  5  1  0
  5  6  2  0
  5  7  1  0
  7  8  1  0
  8  9  1  0
  9 10  1  0
 10 11  1  0
 11 12  1  0
 12 13  2  0
 12 14  1  0
 14 15  1  0
 15 16  1  0
 16 17  2  0
 17 18  1  0
 18 19  2  0
 19 20  1  0
 19 21  1  0
 21 22  1  0
 21 23  2  0
  2 24  1  0
 24 25  2  0
 25 26  1  0
 26 27  2  0
 27 28  1  0
 28 29  2  0
 29 30  1  0
 30 31  2  0
 31 32  1  0
 32 33  2  0
 11  7  1  0
 23 16  1  0
 33 24  1  0
 32 27  1  0
  4 34  1  0
  4 35  1  0
  8 36  1  0
  8 37  1  0
  9 38  1  0
  9 39  1  0
 10 40  1  0
 10 41  1  0
 11 42  1  6
 14 43  1  0
 15 44  1  0
 15 45  1  0
 17 46  1  0
 18 47  1  0
 23 48  1  0
 25 49  1  0
 26 50  1  0
 28 51  1  0
 29 52  1  0
 30 53  1  0
 31 54  1  0
M  CHG  1   3  -1
M  END
>  <UniqueID>  (1) 
157

>  <SMILES>  (1) 
O=C([N-]CC(=O)N1CCC[C@H]1C(=O)NCc1ccc(Cl)c(Cl)c1)c1ccc2ccccc2n1

>  <Energy>  (1) 
56.92181055614532

>  <Genealogy>  (1) 
O=C([N-]CC(=O)N1CCC[C@H]1C(=O)NCc1ccc(Cl)c(Cl)c1)c1ccc2ccccc2n1 (protonated)
O=C([N-]CC(=O)N1CCC[C@H]1C(=O)NCc1ccc(Cl)c(Cl)c1)c1ccc2ccccc2n1 (3D coordinates assigned)
O=C([N-]CC(=O)N1CCC[C@H]1C(=O)NCc1ccc(Cl)c(Cl)c1)c1ccc2ccccc2n1 (nonaromatic ring conformer: 56.92181055614532 kcal/mol)

>  <smiles>  (1) 
O=C(NCC(=O)N1CCC[C@H]1C(=O)NCc1ccc(Cl)c(Cl)c1)c1ccc2ccccc2n1

>  <score_type>  (1) 
oracle

>  <origin>  (1) 
autodockgpu

>  <m_score__min__energy>  (1) 
-8.5899999999999999

>  <m_primary>  (1) 
energy

>  <meeko>  (1) 
{"free_energy": -7.2, "intermolecular_energy": -9.59, "internal_energy": -3.44, "cluster_size": 1, "cluster_id": 7, "rank_in_cluster": 1}

>  <energy>  (1) 
-8.59

>  <cluster_rmsd>  (1) 
0.0

>  <rmsd>  (1) 
271.84

>  <cluster>  (1) 
1

$$$$
UTPHXWZELLNSAP-IPDNQSFLNA-M
     RDKit          3D

 54 57  0  0  0  0  0  0  0  0999 V2000
  138.4930   75.1270  221.5410 O   0  0  0  0  0  0  0  0  0  0  0  0
  139.6250   75.5270  221.9320 C   0  0  0  0  0  0  0  0  0  0  0  0
  140.7370   74.6270  221.9590 N   0  0  0  0  0  0  0  0  0  0  0  0
  140.6360   73.1950  221.7130 C   0  0  0  0  0  0  0  0  0  0  0  0
  141.4490   72.8500  220.5040 C   0  0  0  0  0  0  0  0  0  0  0  0
  140.8890   72.2690  219.5340 O   0  0  0  0  0  0  0  0  0  0  0  0
  142.8580   73.1350  220.4450 N   0  0  0  0  0  0  0  0  0  0  0  0
  143.8790   72.1120  220.3020 C   0  0  0  0  0  0  0  0  0  0  0  0
  145.2150   72.8230  220.4950 C   0  0  0  0  0  0  0  0  0  0  0  0
  144.9260   74.3240  220.5010 C   0  0  0  0  0  0  0  0  0  0  0  0
  143.4030   74.4770  220.5870 C   0  0  1  0  0  0  0  0  0  0  0  0
  142.8790   75.3820  219.5000 C   0  0  0  0  0  0  0  0  0  0  0  0
  143.4360   75.3890  218.3690 O   0  0  0  0  0  0  0  0  0  0  0  0
  141.7630   76.2400  219.7570 N   0  0  0  0  0  0  0  0  0  0  0  0
  141.1940   77.0830  218.7060 C   0  0  0  0  0  0  0  0  0  0  0  0
  141.0690   78.5060  219.1790 C   0  0  0  0  0  0  0  0  0  0  0  0
  142.2060   79.3180  219.2990 C   0  0  0  0  0  0  0  0  0  0  0  0
  142.0920   80.6250  219.7800 C   0  0  0  0  0  0  0  0  0  0  0  0
  140.8430   81.1310  220.1590 C   0  0  0  0  0  0  0  0  0  0  0  0
  140.7410   82.7770  220.7710 Cl  0  0  0  0  0  0  0  0  0  0  0  0
  139.7010   80.3170  220.0580 C   0  0  0  0  0  0  0  0  0  0  0  0
  138.1170   80.9080  220.5420 Cl  0  0  0  0  0  0  0  0  0  0  0  0
  139.8190   79.0100  219.5730 C   0  0  0  0  0  0  0  0  0  0  0  0
  139.8160   76.9130  222.3910 C   0  0  0  0  0  0  0  0  0  0  0  0
  138.7280   77.7130  222.7710 C   0  0  0  0  0  0  0  0  0  0  0  0
  138.9540   79.0130  223.2350 C   0  0  0  0  0  0  0  0  0  0  0  0
  140.2620   79.5070  223.3100 C   0  0  0  0  0  0  0  0  0  0  0  0
  140.5270   80.8040  223.7720 C   0  0  0  0  0  0  0  0  0  0  0  0
  141.8440   81.2700  223.8310 C   0  0  0  0  0  0  0  0  0  0  0  0
  142.9010   80.4480  223.4250 C   0  0  0  0  0  0  0  0  0  0  0  0
  142.6460   79.1510  222.9710 C   0  0  0  0  0  0  0  0  0  0  0  0
  141.3310   78.6760  222.9100 C   0  0  0  0  0  0  0  0  0  0  0  0
  141.0790   77.4140  222.4740 N   0  0  0  0  0  0  0  0  0  0  0  0
  141.0183   72.6432  222.5844 H   0  0  0  0  0  0  0  0  0  0  0  0
  139.5843   72.9199  221.5447 H   0  0  0  0  0  0  0  0  0  0  0  0
  143.7476   71.3312  221.0656 H   0  0  0  0  0  0  0  0  0  0  0  0
  143.8221   71.6199  219.3199 H   0  0  0  0  0  0  0  0  0  0  0  0
  145.6685   72.5218  221.4508 H   0  0  0  0  0  0  0  0  0  0  0  0
  145.9183   72.5620  219.6905 H   0  0  0  0  0  0  0  0  0  0  0  0
  145.4048   74.7991  221.3699 H   0  0  0  0  0  0  0  0  0  0  0  0
  145.3226   74.8078  219.5962 H   0  0  0  0  0  0  0  0  0  0  0  0
  143.1067   74.9374  221.5411 H   0  0  0  0  0  0  0  0  0  0  0  0
  141.3810   76.2870  220.7280 H   0  0  0  0  0  0  0  0  0  0  0  0
  141.8492   77.0517  217.8229 H   0  0  0  0  0  0  0  0  0  0  0  0
  140.1932   76.7047  218.4505 H   0  0  0  0  0  0  0  0  0  0  0  0
  143.1925   78.9241  219.0131 H   0  0  0  0  0  0  0  0  0  0  0  0
  142.9873   81.2588  219.8612 H   0  0  0  0  0  0  0  0  0  0  0  0
  138.9257   78.3723  219.4998 H   0  0  0  0  0  0  0  0  0  0  0  0
  137.7027   77.3200  222.7044 H   0  0  0  0  0  0  0  0  0  0  0  0
  138.1070   79.6451  223.5400 H   0  0  0  0  0  0  0  0  0  0  0  0
  139.6986   81.4551  224.0881 H   0  0  0  0  0  0  0  0  0  0  0  0
  142.0498   82.2864  224.1979 H   0  0  0  0  0  0  0  0  0  0  0  0
  143.9343   80.8232  223.4632 H   0  0  0  0  0  0  0  0  0  0  0  0
  143.4794   78.5032  222.6614 H   0  0  0  0  0  0  0  0  0  0  0  0
  1  2  2  0
  2  3  1  0
  3  4  1  0
  4  5  1  0
  5  6  2  0
  5  7  1  0
  7  8  1  0
  8  9  1  0
  9 10  1  0
 10 11  1  0
 11 12  1  0
 12 13  2  0
 12 14  1  0
 14 15  1  0
 15 16  1  0
 16 17  2  0
 17 18  1  0
 18 19  2  0
 19 20  1  0
 19 21  1  0
 21 22  1  0
 21 23  2  0
  2 24  1  0
 24 25  2  0
 25 26  1  0
 26 27  2  0
 27 28  1  0
 28 29  2  0
 29 30  1  0
 30 31  2  0
 31 32  1  0
 32 33  2  0
 11  7  1  0
 23 16  1  0
 33 24  1  0
 32 27  1  0
  4 34  1  0
  4 35  1  0
  8 36  1  0
  8 37  1  0
  9 38  1  0
  9 39  1  0
 10 40  1  0
 10 41  1  0
 11 42  1  1
 14 43  1  0
 15 44  1  0
 15 45  1  0
 17 46  1  0
 18 47  1  0
 23 48  1  0
 25 49  1  0
 26 50  1  0
 28 51  1  0
 29 52  1  0
 30 53  1  0
 31 54  1  0
M  CHG  1   3  -1
M  END
>  <UniqueID>  (2) 
157

>  <SMILES>  (2) 
O=C([N-]CC(=O)N1CCC[C@H]1C(=O)NCc1ccc(Cl)c(Cl)c1)c1ccc2ccccc2n1

>  <Energy>  (2) 
56.92181055614532

>  <Genealogy>  (2) 
O=C([N-]CC(=O)N1CCC[C@H]1C(=O)NCc1ccc(Cl)c(Cl)c1)c1ccc2ccccc2n1 (protonated)
O=C([N-]CC(=O)N1CCC[C@H]1C(=O)NCc1ccc(Cl)c(Cl)c1)c1ccc2ccccc2n1 (3D coordinates assigned)
O=C([N-]CC(=O)N1CCC[C@H]1C(=O)NCc1ccc(Cl)c(Cl)c1)c1ccc2ccccc2n1 (nonaromatic ring conformer: 56.92181055614532 kcal/mol)

>  <smiles>  (2) 
O=C(NCC(=O)N1CCC[C@H]1C(=O)NCc1ccc(Cl)c(Cl)c1)c1ccc2ccccc2n1

>  <score_type>  (2) 
oracle

>  <origin>  (2) 
autodockgpu

>  <m_score__min__energy>  (2) 
-8.5899999999999999

>  <m_primary>  (2) 
energy

>  <meeko>  (2) 
{"free_energy": -6.72, "intermolecular_energy": -9.11, "internal_energy": -5.16, "cluster_size": 4, "cluster_id": 6, "rank_in_cluster": 2}

>  <energy>  (2) 
-8.48

>  <cluster_rmsd>  (2) 
1.17

>  <rmsd>  (2) 
272.07

>  <cluster>  (2) 
1

$$$$
UTPHXWZELLNSAP-IPDNQSFLNA-M
     RDKit          3D

 54 57  0  0  0  0  0  0  0  0999 V2000
  140.1540   71.8940  220.9560 O   0  0  0  0  0  0  0  0  0  0  0  0
  140.1120   72.4130  222.1070 C   0  0  0  0  0  0  0  0  0  0  0  0
  140.1460   73.8340  222.2580 N   0  0  0  0  0  0  0  0  0  0  0  0
  140.1060   74.7760  221.1470 C   0  0  0  0  0  0  0  0  0  0  0  0
  141.0480   75.9040  221.4300 C   0  0  0  0  0  0  0  0  0  0  0  0
  141.4380   76.0950  222.6140 O   0  0  0  0  0  0  0  0  0  0  0  0
  141.4850   76.7920  220.3860 N   0  0  0  0  0  0  0  0  0  0  0  0
  141.5030   78.2390  220.5150 C   0  0  0  0  0  0  0  0  0  0  0  0
  141.8280   78.7810  219.1270 C   0  0  0  0  0  0  0  0  0  0  0  0
  142.2430   77.5870  218.2670 C   0  0  0  0  0  0  0  0  0  0  0  0
  141.8970   76.3270  219.0680 C   0  0  1  0  0  0  0  0  0  0  0  0
  143.0820   75.4010  219.1770 C   0  0  0  0  0  0  0  0  0  0  0  0
  143.6480   74.9840  218.1300 O   0  0  0  0  0  0  0  0  0  0  0  0
  143.5530   74.9870  220.4630 N   0  0  0  0  0  0  0  0  0  0  0  0
  144.7370   74.1390  220.6020 C   0  0  0  0  0  0  0  0  0  0  0  0
  144.4100   72.7130  220.2510 C   0  0  0  0  0  0  0  0  0  0  0  0
  143.1810   72.1510  220.6290 C   0  0  0  0  0  0  0  0  0  0  0  0
  142.8990   70.8140  220.3400 C   0  0  0  0  0  0  0  0  0  0  0  0
  143.8440   70.0190  219.6820 C   0  0  0  0  0  0  0  0  0  0  0  0
  143.4560   68.3360  219.3450 Cl  0  0  0  0  0  0  0  0  0  0  0  0
  145.0840   70.5700  219.3140 C   0  0  0  0  0  0  0  0  0  0  0  0
  146.3070   69.6010  218.5020 Cl  0  0  0  0  0  0  0  0  0  0  0  0
  145.3620   71.9100  219.6030 C   0  0  0  0  0  0  0  0  0  0  0  0
  140.0560   71.5680  223.3120 C   0  0  0  0  0  0  0  0  0  0  0  0
  139.5110   70.2750  223.2720 C   0  0  0  0  0  0  0  0  0  0  0  0
  139.5070   69.4900  224.4290 C   0  0  0  0  0  0  0  0  0  0  0  0
  140.0390   70.0030  225.6190 C   0  0  0  0  0  0  0  0  0  0  0  0
  140.0550   69.2440  226.7980 C   0  0  0  0  0  0  0  0  0  0  0  0
  140.5900   69.7860  227.9710 C   0  0  0  0  0  0  0  0  0  0  0  0
  141.1060   71.0860  227.9740 C   0  0  0  0  0  0  0  0  0  0  0  0
  141.1020   71.8460  226.8010 C   0  0  0  0  0  0  0  0  0  0  0  0
  140.5700   71.3110  225.6220 C   0  0  0  0  0  0  0  0  0  0  0  0
  140.5690   72.0440  224.4780 N   0  0  0  0  0  0  0  0  0  0  0  0
  140.4088   74.2664  220.2204 H   0  0  0  0  0  0  0  0  0  0  0  0
  139.0845   75.1662  221.0274 H   0  0  0  0  0  0  0  0  0  0  0  0
  140.5206   78.6053  220.8479 H   0  0  0  0  0  0  0  0  0  0  0  0
  142.2432   78.5679  221.2593 H   0  0  0  0  0  0  0  0  0  0  0  0
  140.9416   79.2681  218.6946 H   0  0  0  0  0  0  0  0  0  0  0  0
  142.6336   79.5284  219.1761 H   0  0  0  0  0  0  0  0  0  0  0  0
  141.6912   77.5949  217.3155 H   0  0  0  0  0  0  0  0  0  0  0  0
  143.3166   77.6235  218.0304 H   0  0  0  0  0  0  0  0  0  0  0  0
  141.1013   75.7516  218.5722 H   0  0  0  0  0  0  0  0  0  0  0  0
  143.0110   75.2670  221.3090 H   0  0  0  0  0  0  0  0  0  0  0  0
  145.5256   74.5056  219.9284 H   0  0  0  0  0  0  0  0  0  0  0  0
  145.0809   74.1777  221.6462 H   0  0  0  0  0  0  0  0  0  0  0  0
  142.4364   72.7663  221.1553 H   0  0  0  0  0  0  0  0  0  0  0  0
  141.9293   70.3839  220.6310 H   0  0  0  0  0  0  0  0  0  0  0  0
  146.3349   72.3383  219.3201 H   0  0  0  0  0  0  0  0  0  0  0  0
  139.0893   69.8815  222.3354 H   0  0  0  0  0  0  0  0  0  0  0  0
  139.0877   68.4733  224.4049 H   0  0  0  0  0  0  0  0  0  0  0  0
  139.6468   68.2225  226.8003 H   0  0  0  0  0  0  0  0  0  0  0  0
  140.6050   69.1880  228.8941 H   0  0  0  0  0  0  0  0  0  0  0  0
  141.5160   71.5114  228.9019 H   0  0  0  0  0  0  0  0  0  0  0  0
  141.5170   72.8647  226.8044 H   0  0  0  0  0  0  0  0  0  0  0  0
  1  2  2  0
  2  3  1  0
  3  4  1  0
  4  5  1  0
  5  6  2  0
  5  7  1  0
  7  8  1  0
  8  9  1  0
  9 10  1  0
 10 11  1  0
 11 12  1  0
 12 13  2  0
 12 14  1  0
 14 15  1  0
 15 16  1  0
 16 17  2  0
 17 18  1  0
 18 19  2  0
 19 20  1  0
 19 21  1  0
 21 22  1  0
 21 23  2  0
  2 24  1  0
 24 25  2  0
 25 26  1  0
 26 27  2  0
 27 28  1  0
 28 29  2  0
 29 30  1  0
 30 31  2  0
 31 32  1  0
 32 33  2  0
 11  7  1  0
 23 16  1  0
 33 24  1  0
 32 27  1  0
  4 34  1  0
  4 35  1  0
  8 36  1  0
  8 37  1  0
  9 38  1  0
  9 39  1  0
 10 40  1  0
 10 41  1  0
 11 42  1  6
 14 43  1  0
 15 44  1  0
 15 45  1  0
 17 46  1  0
 18 47  1  0
 23 48  1  0
 25 49  1  0
 26 50  1  0
 28 51  1  0
 29 52  1  0
 30 53  1  0
 31 54  1  0
M  CHG  1   3  -1
M  END
>  <UniqueID>  (3) 
157

>  <SMILES>  (3) 
O=C([N-]CC(=O)N1CCC[C@H]1C(=O)NCc1ccc(Cl)c(Cl)c1)c1ccc2ccccc2n1

>  <Energy>  (3) 
56.92181055614532

>  <Genealogy>  (3) 
O=C([N-]CC(=O)N1CCC[C@H]1C(=O)NCc1ccc(Cl)c(Cl)c1)c1ccc2ccccc2n1 (protonated)
O=C([N-]CC(=O)N1CCC[C@H]1C(=O)NCc1ccc(Cl)c(Cl)c1)c1ccc2ccccc2n1 (3D coordinates assigned)
O=C([N-]CC(=O)N1CCC[C@H]1C(=O)NCc1ccc(Cl)c(Cl)c1)c1ccc2ccccc2n1 (nonaromatic ring conformer: 56.92181055614532 kcal/mol)

>  <smiles>  (3) 
O=C(NCC(=O)N1CCC[C@H]1C(=O)NCc1ccc(Cl)c(Cl)c1)c1ccc2ccccc2n1

>  <score_type>  (3) 
oracle

>  <origin>  (3) 
autodockgpu

>  <m_score__min__energy>  (3) 
-8.5899999999999999

>  <m_primary>  (3) 
energy

>  <meeko>  (3) 
{"free_energy": -8.42, "intermolecular_energy": -10.8, "internal_energy": -2.57, "cluster_size": 1, "cluster_id": 4, "rank_in_cluster": 1}

>  <energy>  (3) 
-8.41

>  <cluster_rmsd>  (3) 
1.05

>  <rmsd>  (3) 
271.8

>  <cluster>  (3) 
1

$$$$
UTPHXWZELLNSAP-IPDNQSFLNA-M
     RDKit          3D

 54 57  0  0  0  0  0  0  0  0999 V2000
  139.9730   73.5860  222.3670 O   0  0  0  0  0  0  0  0  0  0  0  0
  140.3930   72.3970  222.3090 C   0  0  0  0  0  0  0  0  0  0  0  0
  141.0120   71.9080  221.1160 N   0  0  0  0  0  0  0  0  0  0  0  0
  142.4460   71.6990  220.9650 C   0  0  0  0  0  0  0  0  0  0  0  0
  143.0740   72.9650  220.4700 C   0  0  0  0  0  0  0  0  0  0  0  0
  143.8760   73.5850  221.2190 O   0  0  0  0  0  0  0  0  0  0  0  0
  142.7490   73.5020  219.1750 N   0  0  0  0  0  0  0  0  0  0  0  0
  142.5130   72.6810  218.0010 C   0  0  0  0  0  0  0  0  0  0  0  0
  142.4140   73.6480  216.8250 C   0  0  0  0  0  0  0  0  0  0  0  0
  142.3510   75.0580  217.4110 C   0  0  0  0  0  0  0  0  0  0  0  0
  142.6870   74.9310  218.9000 C   0  0  1  0  0  0  0  0  0  0  0  0
  141.6400   75.5930  219.7600 C   0  0  0  0  0  0  0  0  0  0  0  0
  140.6220   76.1070  219.2210 O   0  0  0  0  0  0  0  0  0  0  0  0
  141.8080   75.6490  221.1800 N   0  0  0  0  0  0  0  0  0  0  0  0
  140.7810   76.2290  222.0450 C   0  0  0  0  0  0  0  0  0  0  0  0
  140.8370   77.7320  221.9970 C   0  0  0  0  0  0  0  0  0  0  0  0
  141.8180   78.3830  221.2340 C   0  0  0  0  0  0  0  0  0  0  0  0
  141.8950   79.7780  221.2270 C   0  0  0  0  0  0  0  0  0  0  0  0
  141.0010   80.5380  221.9900 C   0  0  0  0  0  0  0  0  0  0  0  0
  141.1360   82.2920  221.9640 Cl  0  0  0  0  0  0  0  0  0  0  0  0
  140.0250   79.8930  222.7690 C   0  0  0  0  0  0  0  0  0  0  0  0
  138.8960   80.8100  223.7570 Cl  0  0  0  0  0  0  0  0  0  0  0  0
  139.9500   78.4960  222.7720 C   0  0  0  0  0  0  0  0  0  0  0  0
  140.2310   71.4850  223.4540 C   0  0  0  0  0  0  0  0  0  0  0  0
  139.6430   70.2200  223.3030 C   0  0  0  0  0  0  0  0  0  0  0  0
  139.5380   69.3690  224.4080 C   0  0  0  0  0  0  0  0  0  0  0  0
  140.0130   69.7890  225.6570 C   0  0  0  0  0  0  0  0  0  0  0  0
  139.9270   68.9630  226.7860 C   0  0  0  0  0  0  0  0  0  0  0  0
  140.4070   69.4130  228.0200 C   0  0  0  0  0  0  0  0  0  0  0  0
  140.9690   70.6890  228.1340 C   0  0  0  0  0  0  0  0  0  0  0  0
  141.0660   71.5160  227.0110 C   0  0  0  0  0  0  0  0  0  0  0  0
  140.5900   71.0730  225.7720 C   0  0  0  0  0  0  0  0  0  0  0  0
  140.6870   71.8710  224.6770 N   0  0  0  0  0  0  0  0  0  0  0  0
  142.8832   71.4259  221.9368 H   0  0  0  0  0  0  0  0  0  0  0  0
  142.6294   70.8873  220.2456 H   0  0  0  0  0  0  0  0  0  0  0  0
  143.3475   71.9803  217.8505 H   0  0  0  0  0  0  0  0  0  0  0  0
  141.5978   72.0800  218.1068 H   0  0  0  0  0  0  0  0  0  0  0  0
  143.2974   73.5471  216.1774 H   0  0  0  0  0  0  0  0  0  0  0  0
  141.5231   73.4356  216.2157 H   0  0  0  0  0  0  0  0  0  0  0  0
  143.0832   75.7093  216.9113 H   0  0  0  0  0  0  0  0  0  0  0  0
  141.3552   75.5025  217.2665 H   0  0  0  0  0  0  0  0  0  0  0  0
  143.6381   75.4323  219.1326 H   0  0  0  0  0  0  0  0  0  0  0  0
  142.7020   75.3020  221.5930 H   0  0  0  0  0  0  0  0  0  0  0  0
  139.7901   75.8929  221.7056 H   0  0  0  0  0  0  0  0  0  0  0  0
  140.9602   75.8997  223.0791 H   0  0  0  0  0  0  0  0  0  0  0  0
  142.5298   77.7924  220.6385 H   0  0  0  0  0  0  0  0  0  0  0  0
  142.6615   80.2812  220.6193 H   0  0  0  0  0  0  0  0  0  0  0  0
  139.1897   77.9920  223.3867 H   0  0  0  0  0  0  0  0  0  0  0  0
  139.2665   69.8992  222.3205 H   0  0  0  0  0  0  0  0  0  0  0  0
  139.0839   68.3733  224.2966 H   0  0  0  0  0  0  0  0  0  0  0  0
  139.4819   67.9606  226.7014 H   0  0  0  0  0  0  0  0  0  0  0  0
  140.3424   68.7615  228.9039 H   0  0  0  0  0  0  0  0  0  0  0  0
  141.3353   71.0423  229.1092 H   0  0  0  0  0  0  0  0  0  0  0  0
  141.5167   72.5153  227.1014 H   0  0  0  0  0  0  0  0  0  0  0  0
  1  2  2  0
  2  3  1  0
  3  4  1  0
  4  5  1  0
  5  6  2  0
  5  7  1  0
  7  8  1  0
  8  9  1  0
  9 10  1  0
 10 11  1  0
 11 12  1  0
 12 13  2  0
 12 14  1  0
 14 15  1  0
 15 16  1  0
 16 17  2  0
 17 18  1  0
 18 19  2  0
 19 20  1  0
 19 21  1  0
 21 22  1  0
 21 23  2  0
  2 24  1  0
 24 25  2  0
 25 26  1  0
 26 27  2  0
 27 28  1  0
 28 29  2  0
 29 30  1  0
 30 31  2  0
 31 32  1  0
 32 33  2  0
 11  7  1  0
 23 16  1  0
 33 24  1  0
 32 27  1  0
  4 34  1  0
  4 35  1  0
  8 36  1  0
  8 37  1  0
  9 38  1  0
  9 39  1  0
 10 40  1  0
 10 41  1  0
 11 42  1  6
 14 43  1  0
 15 44  1  0
 15 45  1  0
 17 46  1  0
 18 47  1  0
 23 48  1  0
 25 49  1  0
 26 50  1  0
 28 51  1  0
 29 52  1  0
 30 53  1  0
 31 54  1  0
M  CHG  1   3  -1
M  END
>  <UniqueID>  (4) 
157

>  <SMILES>  (4) 
O=C([N-]CC(=O)N1CCC[C@H]1C(=O)NCc1ccc(Cl)c(Cl)c1)c1ccc2ccccc2n1

>  <Energy>  (4) 
56.92181055614532

>  <Genealogy>  (4) 
O=C([N-]CC(=O)N1CCC[C@H]1C(=O)NCc1ccc(Cl)c(Cl)c1)c1ccc2ccccc2n1 (protonated)
O=C([N-]CC(=O)N1CCC[C@H]1C(=O)NCc1ccc(Cl)c(Cl)c1)c1ccc2ccccc2n1 (3D coordinates assigned)
O=C([N-]CC(=O)N1CCC[C@H]1C(=O)NCc1ccc(Cl)c(Cl)c1)c1ccc2ccccc2n1 (nonaromatic ring conformer: 56.92181055614532 kcal/mol)

>  <smiles>  (4) 
O=C(NCC(=O)N1CCC[C@H]1C(=O)NCc1ccc(Cl)c(Cl)c1)c1ccc2ccccc2n1

>  <score_type>  (4) 
oracle

>  <origin>  (4) 
autodockgpu

>  <m_score__min__energy>  (4) 
-8.5899999999999999

>  <m_primary>  (4) 
energy

>  <meeko>  (4) 
{"free_energy": -8.28, "intermolecular_energy": -10.67, "internal_energy": -2.43, "cluster_size": 3, "cluster_id": 3, "rank_in_cluster": 3}

>  <energy>  (4) 
-8.04

>  <cluster_rmsd>  (4) 
1.22

>  <rmsd>  (4) 
271.75

>  <cluster>  (4) 
1

$$$$
UTPHXWZELLNSAP-IPDNQSFLNA-M
     RDKit          3D

 54 57  0  0  0  0  0  0  0  0999 V2000
  140.2410   74.1010  222.3340 O   0  0  0  0  0  0  0  0  0  0  0  0
  139.3590   74.9260  221.9630 C   0  0  0  0  0  0  0  0  0  0  0  0
  138.2660   74.4940  221.1480 N   0  0  0  0  0  0  0  0  0  0  0  0
  136.8690   74.8080  221.4190 C   0  0  0  0  0  0  0  0  0  0  0  0
  136.0600   73.5530  221.3150 C   0  0  0  0  0  0  0  0  0  0  0  0
  136.0220   72.9370  220.2160 O   0  0  0  0  0  0  0  0  0  0  0  0
  135.2980   73.0620  222.4330 N   0  0  0  0  0  0  0  0  0  0  0  0
  133.8670   72.8190  222.3850 C   0  0  0  0  0  0  0  0  0  0  0  0
  133.4450   72.5120  223.8190 C   0  0  0  0  0  0  0  0  0  0  0  0
  134.7260   72.3430  224.6350 C   0  0  0  0  0  0  0  0  0  0  0  0
  135.8800   72.8170  223.7450 C   0  0  1  0  0  0  0  0  0  0  0  0
  136.9710   71.7790  223.6590 C   0  0  0  0  0  0  0  0  0  0  0  0
  136.7700   70.6210  224.1140 O   0  0  0  0  0  0  0  0  0  0  0  0
  138.2340   72.1140  223.0760 N   0  0  0  0  0  0  0  0  0  0  0  0
  139.2890   71.1130  222.9220 C   0  0  0  0  0  0  0  0  0  0  0  0
  139.6600   70.5260  224.2580 C   0  0  0  0  0  0  0  0  0  0  0  0
  139.4550   69.1630  224.5170 C   0  0  0  0  0  0  0  0  0  0  0  0
  139.7600   68.6310  225.7730 C   0  0  0  0  0  0  0  0  0  0  0  0
  140.2600   69.4560  226.7860 C   0  0  0  0  0  0  0  0  0  0  0  0
  140.6220   68.7520  228.3580 Cl  0  0  0  0  0  0  0  0  0  0  0  0
  140.4530   70.8270  226.5390 C   0  0  0  0  0  0  0  0  0  0  0  0
  141.0610   71.9020  227.7910 Cl  0  0  0  0  0  0  0  0  0  0  0  0
  140.1490   71.3550  225.2800 C   0  0  0  0  0  0  0  0  0  0  0  0
  139.4520   76.3470  222.3390 C   0  0  0  0  0  0  0  0  0  0  0  0
  138.3110   77.0890  222.6790 C   0  0  0  0  0  0  0  0  0  0  0  0
  138.4450   78.4270  223.0630 C   0  0  0  0  0  0  0  0  0  0  0  0
  139.7150   79.0170  223.0990 C   0  0  0  0  0  0  0  0  0  0  0  0
  139.8880   80.3550  223.4810 C   0  0  0  0  0  0  0  0  0  0  0  0
  141.1690   80.9160  223.5020 C   0  0  0  0  0  0  0  0  0  0  0  0
  142.2790   80.1480  223.1370 C   0  0  0  0  0  0  0  0  0  0  0  0
  142.1160   78.8110  222.7630 C   0  0  0  0  0  0  0  0  0  0  0  0
  140.8380   78.2410  222.7400 C   0  0  0  0  0  0  0  0  0  0  0  0
  140.6760   76.9400  222.3820 N   0  0  0  0  0  0  0  0  0  0  0  0
  136.7744   75.2252  222.4324 H   0  0  0  0  0  0  0  0  0  0  0  0
  136.5053   75.5469  220.6898 H   0  0  0  0  0  0  0  0  0  0  0  0
  133.3401   73.7104  222.0139 H   0  0  0  0  0  0  0  0  0  0  0  0
  133.6215   71.9892  221.7060 H   0  0  0  0  0  0  0  0  0  0  0  0
  132.8467   73.3421  224.2227 H   0  0  0  0  0  0  0  0  0  0  0  0
  132.8298   71.6011  223.8608 H   0  0  0  0  0  0  0  0  0  0  0  0
  134.6767   72.9531  225.5490 H   0  0  0  0  0  0  0  0  0  0  0  0
  134.8658   71.2954  224.9401 H   0  0  0  0  0  0  0  0  0  0  0  0
  136.3490   73.7226  224.1571 H   0  0  0  0  0  0  0  0  0  0  0  0
  138.4100   73.1030  222.7940 H   0  0  0  0  0  0  0  0  0  0  0  0
  138.9319   70.3099  222.2606 H   0  0  0  0  0  0  0  0  0  0  0  0
  140.1765   71.5964  222.4876 H   0  0  0  0  0  0  0  0  0  0  0  0
  139.0526   68.5100  223.7285 H   0  0  0  0  0  0  0  0  0  0  0  0
  139.6062   67.5590  225.9657 H   0  0  0  0  0  0  0  0  0  0  0  0
  140.2942   72.4285  225.0891 H   0  0  0  0  0  0  0  0  0  0  0  0
  137.3162   76.6208  222.6437 H   0  0  0  0  0  0  0  0  0  0  0  0
  137.5559   79.0143  223.3359 H   0  0  0  0  0  0  0  0  0  0  0  0
  139.0164   80.9633  223.7641 H   0  0  0  0  0  0  0  0  0  0  0  0
  141.3037   81.9644  223.8065 H   0  0  0  0  0  0  0  0  0  0  0  0
  143.2831   80.5971  223.1442 H   0  0  0  0  0  0  0  0  0  0  0  0
  142.9926   78.2066  222.4867 H   0  0  0  0  0  0  0  0  0  0  0  0
  1  2  2  0
  2  3  1  0
  3  4  1  0
  4  5  1  0
  5  6  2  0
  5  7  1  0
  7  8  1  0
  8  9  1  0
  9 10  1  0
 10 11  1  0
 11 12  1  0
 12 13  2  0
 12 14  1  0
 14 15  1  0
 15 16  1  0
 16 17  2  0
 17 18  1  0
 18 19  2  0
 19 20  1  0
 19 21  1  0
 21 22  1  0
 21 23  2  0
  2 24  1  0
 24 25  2  0
 25 26  1  0
 26 27  2  0
 27 28  1  0
 28 29  2  0
 29 30  1  0
 30 31  2  0
 31 32  1  0
 32 33  2  0
 11  7  1  0
 23 16  1  0
 33 24  1  0
 32 27  1  0
  4 34  1  0
  4 35  1  0
  8 36  1  0
  8 37  1  0
  9 38  1  0
  9 39  1  0
 10 40  1  0
 10 41  1  0
 11 42  1  1
 14 43  1  0
 15 44  1  0
 15 45  1  0
 17 46  1  0
 18 47  1  0
 23 48  1  0
 25 49  1  0
 26 50  1  0
 28 51  1  0
 29 52  1  0
 30 53  1  0
 31 54  1  0
M  CHG  1   3  -1
M  END
>  <UniqueID>  (5) 
157

>  <SMILES>  (5) 
O=C([N-]CC(=O)N1CCC[C@H]1C(=O)NCc1ccc(Cl)c(Cl)c1)c1ccc2ccccc2n1

>  <Energy>  (5) 
56.92181055614532

>  <Genealogy>  (5) 
O=C([N-]CC(=O)N1CCC[C@H]1C(=O)NCc1ccc(Cl)c(Cl)c1)c1ccc2ccccc2n1 (protonated)
O=C([N-]CC(=O)N1CCC[C@H]1C(=O)NCc1ccc(Cl)c(Cl)c1)c1ccc2ccccc2n1 (3D coordinates assigned)
O=C([N-]CC(=O)N1CCC[C@H]1C(=O)NCc1ccc(Cl)c(Cl)c1)c1ccc2ccccc2n1 (nonaromatic ring conformer: 56.92181055614532 kcal/mol)

>  <smiles>  (5) 
O=C(NCC(=O)N1CCC[C@H]1C(=O)NCc1ccc(Cl)c(Cl)c1)c1ccc2ccccc2n1

>  <score_type>  (5) 
oracle

>  <origin>  (5) 
autodockgpu

>  <m_score__min__energy>  (5) 
-8.5899999999999999

>  <m_primary>  (5) 
energy

>  <meeko>  (5) 
{"free_energy": -8.57, "intermolecular_energy": -10.96, "internal_energy": -3.1, "cluster_size": 1, "cluster_id": 2, "rank_in_cluster": 1}

>  <energy>  (5) 
-7.98

>  <cluster_rmsd>  (5) 
1.04

>  <rmsd>  (5) 
271.6

>  <cluster>  (5) 
1

$$$$
UTPHXWZELLNSAP-IPDNQSFLNA-M
     RDKit          3D

 54 57  0  0  0  0  0  0  0  0999 V2000
  138.6620   72.3340  221.3680 O   0  0  0  0  0  0  0  0  0  0  0  0
  139.4350   72.5290  222.3480 C   0  0  0  0  0  0  0  0  0  0  0  0
  140.3520   73.6260  222.3340 N   0  0  0  0  0  0  0  0  0  0  0  0
  141.3240   73.8670  221.2750 C   0  0  0  0  0  0  0  0  0  0  0  0
  140.9300   75.1000  220.5230 C   0  0  0  0  0  0  0  0  0  0  0  0
  140.6090   75.0000  219.3080 O   0  0  0  0  0  0  0  0  0  0  0  0
  140.9470   76.3940  221.1510 N   0  0  0  0  0  0  0  0  0  0  0  0
  141.7770   77.4960  220.6990 C   0  0  0  0  0  0  0  0  0  0  0  0
  141.6420   78.5870  221.7560 C   0  0  0  0  0  0  0  0  0  0  0  0
  140.5100   78.1630  222.6930 C   0  0  0  0  0  0  0  0  0  0  0  0
  140.1750   76.7080  222.3460 C   0  0  1  0  0  0  0  0  0  0  0  0
  138.6990   76.5300  222.0880 C   0  0  0  0  0  0  0  0  0  0  0  0
  138.0120   77.5080  221.6870 O   0  0  0  0  0  0  0  0  0  0  0  0
  138.0810   75.2590  222.3110 N   0  0  0  0  0  0  0  0  0  0  0  0
  136.6660   75.0390  222.0110 C   0  0  0  0  0  0  0  0  0  0  0  0
  135.9750   74.3830  223.1760 C   0  0  0  0  0  0  0  0  0  0  0  0
  135.8980   72.9850  223.2610 C   0  0  0  0  0  0  0  0  0  0  0  0
  135.2180   72.3800  224.3210 C   0  0  0  0  0  0  0  0  0  0  0  0
  134.5960   73.1630  225.3000 C   0  0  0  0  0  0  0  0  0  0  0  0
  133.7390   72.3650  226.6130 Cl  0  0  0  0  0  0  0  0  0  0  0  0
  134.6540   74.5650  225.2120 C   0  0  0  0  0  0  0  0  0  0  0  0
  133.8710   75.5860  226.4110 Cl  0  0  0  0  0  0  0  0  0  0  0  0
  135.3390   75.1680  224.1510 C   0  0  0  0  0  0  0  0  0  0  0  0
  139.4260   71.6190  223.5050 C   0  0  0  0  0  0  0  0  0  0  0  0
  138.6510   70.4490  223.5100 C   0  0  0  0  0  0  0  0  0  0  0  0
  138.6960   69.5940  224.6140 C   0  0  0  0  0  0  0  0  0  0  0  0
  139.5090   69.9140  225.7100 C   0  0  0  0  0  0  0  0  0  0  0  0
  139.5810   69.0780  226.8340 C   0  0  0  0  0  0  0  0  0  0  0  0
  140.3990   69.4290  227.9130 C   0  0  0  0  0  0  0  0  0  0  0  0
  141.1410   70.6140  227.8780 C   0  0  0  0  0  0  0  0  0  0  0  0
  141.0800   71.4480  226.7590 C   0  0  0  0  0  0  0  0  0  0  0  0
  140.2670   71.1040  225.6730 C   0  0  0  0  0  0  0  0  0  0  0  0
  140.2090   71.9090  224.5800 N   0  0  0  0  0  0  0  0  0  0  0  0
  142.3222   74.0069  221.7155 H   0  0  0  0  0  0  0  0  0  0  0  0
  141.3488   73.0063  220.5905 H   0  0  0  0  0  0  0  0  0  0  0  0
  142.8255   77.1745  220.6137 H   0  0  0  0  0  0  0  0  0  0  0  0
  141.4637   77.8553  219.7077 H   0  0  0  0  0  0  0  0  0  0  0  0
  142.5817   78.6859  222.3192 H   0  0  0  0  0  0  0  0  0  0  0  0
  141.4236   79.5597  221.2910 H   0  0  0  0  0  0  0  0  0  0  0  0
  140.8367   78.2376  223.7407 H   0  0  0  0  0  0  0  0  0  0  0  0
  139.6304   78.8122  222.5711 H   0  0  0  0  0  0  0  0  0  0  0  0
  140.4256   76.0364  223.1803 H   0  0  0  0  0  0  0  0  0  0  0  0
  138.6490   74.4920  222.7330 H   0  0  0  0  0  0  0  0  0  0  0  0
  136.1855   76.0065  221.8034 H   0  0  0  0  0  0  0  0  0  0  0  0
  136.5870   74.3798  221.1339 H   0  0  0  0  0  0  0  0  0  0  0  0
  136.3750   72.3623  222.4898 H   0  0  0  0  0  0  0  0  0  0  0  0
  135.1713   71.2829  224.3863 H   0  0  0  0  0  0  0  0  0  0  0  0
  135.3794   76.2650  224.0804 H   0  0  0  0  0  0  0  0  0  0  0  0
  138.0112   70.2063  222.6488 H   0  0  0  0  0  0  0  0  0  0  0  0
  138.0953   68.6726  224.6231 H   0  0  0  0  0  0  0  0  0  0  0  0
  138.9950   68.1477  226.8669 H   0  0  0  0  0  0  0  0  0  0  0  0
  140.4589   68.7706  228.7922 H   0  0  0  0  0  0  0  0  0  0  0  0
  141.7744   70.8900  228.7340 H   0  0  0  0  0  0  0  0  0  0  0  0
  141.6711   72.3753  226.7314 H   0  0  0  0  0  0  0  0  0  0  0  0
  1  2  2  0
  2  3  1  0
  3  4  1  0
  4  5  1  0
  5  6  2  0
  5  7  1  0
  7  8  1  0
  8  9  1  0
  9 10  1  0
 10 11  1  0
 11 12  1  0
 12 13  2  0
 12 14  1  0
 14 15  1  0
 15 16  1  0
 16 17  2  0
 17 18  1  0
 18 19  2  0
 19 20  1  0
 19 21  1  0
 21 22  1  0
 21 23  2  0
  2 24  1  0
 24 25  2  0
 25 26  1  0
 26 27  2  0
 27 28  1  0
 28 29  2  0
 29 30  1  0
 30 31  2  0
 31 32  1  0
 32 33  2  0
 11  7  1  0
 23 16  1  0
 33 24  1  0
 32 27  1  0
  4 34  1  0
  4 35  1  0
  8 36  1  0
  8 37  1  0
  9 38  1  0
  9 39  1  0
 10 40  1  0
 10 41  1  0
 11 42  1  1
 14 43  1  0
 15 44  1  0
 15 45  1  0
 17 46  1  0
 18 47  1  0
 23 48  1  0
 25 49  1  0
 26 50  1  0
 28 51  1  0
 29 52  1  0
 30 53  1  0
 31 54  1  0
M  CHG  1   3  -1
M  END
>  <UniqueID>  (6) 
157

>  <SMILES>  (6) 
O=C([N-]CC(=O)N1CCC[C@H]1C(=O)NCc1ccc(Cl)c(Cl)c1)c1ccc2ccccc2n1

>  <Energy>  (6) 
56.92181055614532

>  <Genealogy>  (6) 
O=C([N-]CC(=O)N1CCC[C@H]1C(=O)NCc1ccc(Cl)c(Cl)c1)c1ccc2ccccc2n1 (protonated)
O=C([N-]CC(=O)N1CCC[C@H]1C(=O)NCc1ccc(Cl)c(Cl)c1)c1ccc2ccccc2n1 (3D coordinates assigned)
O=C([N-]CC(=O)N1CCC[C@H]1C(=O)NCc1ccc(Cl)c(Cl)c1)c1ccc2ccccc2n1 (nonaromatic ring conformer: 56.92181055614532 kcal/mol)

>  <smiles>  (6) 
O=C(NCC(=O)N1CCC[C@H]1C(=O)NCc1ccc(Cl)c(Cl)c1)c1ccc2ccccc2n1

>  <score_type>  (6) 
oracle

>  <origin>  (6) 
autodockgpu

>  <m_score__min__energy>  (6) 
-8.5899999999999999

>  <m_primary>  (6) 
energy

>  <meeko>  (6) 
{"free_energy": -8.41, "intermolecular_energy": -10.8, "internal_energy": -3.24, "cluster_size": 7, "cluster_id": 1, "rank_in_cluster": 3}

>  <energy>  (6) 
-7.7

>  <cluster_rmsd>  (6) 
0.85

>  <rmsd>  (6) 
271.91

>  <cluster>  (6) 
1

$$$$
UTPHXWZELLNSAP-IPDNQSFLNA-M
     RDKit          3D

 54 57  0  0  0  0  0  0  0  0999 V2000
  139.5590   74.6830  222.5410 O   0  0  0  0  0  0  0  0  0  0  0  0
  140.3040   75.5180  221.9550 C   0  0  0  0  0  0  0  0  0  0  0  0
  141.2280   75.0810  220.9550 N   0  0  0  0  0  0  0  0  0  0  0  0
  140.9360   75.0520  219.5280 C   0  0  0  0  0  0  0  0  0  0  0  0
  141.5900   73.8490  218.9220 C   0  0  0  0  0  0  0  0  0  0  0  0
  141.2660   73.4990  217.7540 O   0  0  0  0  0  0  0  0  0  0  0  0
  142.5480   73.0690  219.6580 N   0  0  0  0  0  0  0  0  0  0  0  0
  143.7620   73.6220  220.2340 C   0  0  0  0  0  0  0  0  0  0  0  0
  144.5710   72.4290  220.7320 C   0  0  0  0  0  0  0  0  0  0  0  0
  143.6610   71.2040  220.6460 C   0  0  0  0  0  0  0  0  0  0  0  0
  142.4250   71.6300  219.8470 C   0  0  1  0  0  0  0  0  0  0  0  0
  141.1520   71.2970  220.5830 C   0  0  0  0  0  0  0  0  0  0  0  0
  140.6080   70.1720  220.4140 O   0  0  0  0  0  0  0  0  0  0  0  0
  140.5570   72.2590  221.4590 N   0  0  0  0  0  0  0  0  0  0  0  0
  139.3560   71.9430  222.2330 C   0  0  0  0  0  0  0  0  0  0  0  0
  139.7190   71.2000  223.4900 C   0  0  0  0  0  0  0  0  0  0  0  0
  139.3960   69.8410  223.6310 C   0  0  0  0  0  0  0  0  0  0  0  0
  139.6950   69.1660  224.8170 C   0  0  0  0  0  0  0  0  0  0  0  0
  140.3070   69.8400  225.8790 C   0  0  0  0  0  0  0  0  0  0  0  0
  140.6570   68.9580  227.3600 Cl  0  0  0  0  0  0  0  0  0  0  0  0
  140.6180   71.2050  225.7520 C   0  0  0  0  0  0  0  0  0  0  0  0
  141.3700   72.0950  227.0690 Cl  0  0  0  0  0  0  0  0  0  0  0  0
  140.3200   71.8790  224.5620 C   0  0  0  0  0  0  0  0  0  0  0  0
  140.2540   76.9470  222.3070 C   0  0  0  0  0  0  0  0  0  0  0  0
  139.0400   77.6500  222.3400 C   0  0  0  0  0  0  0  0  0  0  0  0
  139.0310   78.9970  222.7120 C   0  0  0  0  0  0  0  0  0  0  0  0
  140.2330   79.6370  223.0410 C   0  0  0  0  0  0  0  0  0  0  0  0
  140.2620   80.9860  223.4220 C   0  0  0  0  0  0  0  0  0  0  0  0
  141.4800   81.5960  223.7400 C   0  0  0  0  0  0  0  0  0  0  0  0
  142.6710   80.8660  223.6760 C   0  0  0  0  0  0  0  0  0  0  0  0
  142.6500   79.5190  223.3060 C   0  0  0  0  0  0  0  0  0  0  0  0
  141.4360   78.8990  222.9870 C   0  0  0  0  0  0  0  0  0  0  0  0
  141.4100   77.5880  222.6320 N   0  0  0  0  0  0  0  0  0  0  0  0
  139.8481   74.9969  219.3750 H   0  0  0  0  0  0  0  0  0  0  0  0
  141.3214   75.9651  219.0507 H   0  0  0  0  0  0  0  0  0  0  0  0
  144.3286   74.1769  219.4717 H   0  0  0  0  0  0  0  0  0  0  0  0
  143.5375   74.3256  221.0492 H   0  0  0  0  0  0  0  0  0  0  0  0
  145.4594   72.2847  220.0996 H   0  0  0  0  0  0  0  0  0  0  0  0
  144.9141   72.5911  221.7645 H   0  0  0  0  0  0  0  0  0  0  0  0
  144.1799   70.3814  220.1320 H   0  0  0  0  0  0  0  0  0  0  0  0
  143.3811   70.8474  221.6483 H   0  0  0  0  0  0  0  0  0  0  0  0
  142.3739   71.0962  218.8866 H   0  0  0  0  0  0  0  0  0  0  0  0
  140.9720   73.2160  221.5080 H   0  0  0  0  0  0  0  0  0  0  0  0
  138.8417   72.8778  222.5008 H   0  0  0  0  0  0  0  0  0  0  0  0
  138.6965   71.3085  221.6228 H   0  0  0  0  0  0  0  0  0  0  0  0
  138.9057   69.3057  222.8045 H   0  0  0  0  0  0  0  0  0  0  0  0
  139.4478   68.0987  224.9163 H   0  0  0  0  0  0  0  0  0  0  0  0
  140.5584   72.9485  224.4659 H   0  0  0  0  0  0  0  0  0  0  0  0
  138.1004   77.1435  222.0744 H   0  0  0  0  0  0  0  0  0  0  0  0
  138.0827   79.5533  222.7464 H   0  0  0  0  0  0  0  0  0  0  0  0
  139.3276   81.5643  223.4708 H   0  0  0  0  0  0  0  0  0  0  0  0
  141.5010   82.6537  224.0415 H   0  0  0  0  0  0  0  0  0  0  0  0
  143.6269   81.3536  223.9176 H   0  0  0  0  0  0  0  0  0  0  0  0
  143.5877   78.9453  223.2653 H   0  0  0  0  0  0  0  0  0  0  0  0
  1  2  2  0
  2  3  1  0
  3  4  1  0
  4  5  1  0
  5  6  2  0
  5  7  1  0
  7  8  1  0
  8  9  1  0
  9 10  1  0
 10 11  1  0
 11 12  1  0
 12 13  2  0
 12 14  1  0
 14 15  1  0
 15 16  1  0
 16 17  2  0
 17 18  1  0
 18 19  2  0
 19 20  1  0
 19 21  1  0
 21 22  1  0
 21 23  2  0
  2 24  1  0
 24 25  2  0
 25 26  1  0
 26 27  2  0
 27 28  1  0
 28 29  2  0
 29 30  1  0
 30 31  2  0
 31 32  1  0
 32 33  2  0
 11  7  1  0
 23 16  1  0
 33 24  1  0
 32 27  1  0
  4 34  1  0
  4 35  1  0
  8 36  1  0
  8 37  1  0
  9 38  1  0
  9 39  1  0
 10 40  1  0
 10 41  1  0
 11 42  1  6
 14 43  1  0
 15 44  1  0
 15 45  1  0
 17 46  1  0
 18 47  1  0
 23 48  1  0
 25 49  1  0
 26 50  1  0
 28 51  1  0
 29 52  1  0
 30 53  1  0
 31 54  1  0
M  CHG  1   3  -1
M  END
>  <UniqueID>  (7) 
157

>  <SMILES>  (7) 
O=C([N-]CC(=O)N1CCC[C@H]1C(=O)NCc1ccc(Cl)c(Cl)c1)c1ccc2ccccc2n1

>  <Energy>  (7) 
56.92181055614532

>  <Genealogy>  (7) 
O=C([N-]CC(=O)N1CCC[C@H]1C(=O)NCc1ccc(Cl)c(Cl)c1)c1ccc2ccccc2n1 (protonated)
O=C([N-]CC(=O)N1CCC[C@H]1C(=O)NCc1ccc(Cl)c(Cl)c1)c1ccc2ccccc2n1 (3D coordinates assigned)
O=C([N-]CC(=O)N1CCC[C@H]1C(=O)NCc1ccc(Cl)c(Cl)c1)c1ccc2ccccc2n1 (nonaromatic ring conformer: 56.92181055614532 kcal/mol)

>  <smiles>  (7) 
O=C(NCC(=O)N1CCC[C@H]1C(=O)NCc1ccc(Cl)c(Cl)c1)c1ccc2ccccc2n1

>  <score_type>  (7) 
oracle

>  <origin>  (7) 
autodockgpu

>  <m_score__min__energy>  (7) 
-8.5899999999999999

>  <m_primary>  (7) 
energy

>  <meeko>  (7) 
{"free_energy": -7.97, "intermolecular_energy": -10.36, "internal_energy": -3.27, "cluster_size": 2, "cluster_id": 5, "rank_in_cluster": 1}

>  <energy>  (7) 
-7.24

>  <cluster_rmsd>  (7) 
1.5

>  <rmsd>  (7) 
271.43

>  <cluster>  (7) 
1

$$$$
UTPHXWZELLNSAP-IPDNQSFLNA-M
     RDKit          3D

 54 57  0  0  0  0  0  0  0  0999 V2000
  138.1870   72.3360  221.9300 O   0  0  0  0  0  0  0  0  0  0  0  0
  139.3200   71.9960  222.3710 C   0  0  0  0  0  0  0  0  0  0  0  0
  140.5000   72.2610  221.6080 N   0  0  0  0  0  0  0  0  0  0  0  0
  141.2010   73.5390  221.6040 C   0  0  0  0  0  0  0  0  0  0  0  0
  140.2560   74.6110  221.1580 C   0  0  0  0  0  0  0  0  0  0  0  0
  139.2750   74.3000  220.4290 O   0  0  0  0  0  0  0  0  0  0  0  0
  140.4690   75.9890  221.5140 N   0  0  0  0  0  0  0  0  0  0  0  0
  141.3430   76.8840  220.7770 C   0  0  0  0  0  0  0  0  0  0  0  0
  141.4350   78.1600  221.6080 C   0  0  0  0  0  0  0  0  0  0  0  0
  140.3830   78.0510  222.7120 C   0  0  0  0  0  0  0  0  0  0  0  0
  139.8730   76.6060  222.6910 C   0  0  1  0  0  0  0  0  0  0  0  0
  138.3670   76.5550  222.6140 C   0  0  0  0  0  0  0  0  0  0  0  0
  137.6980   77.6150  222.7490 O   0  0  0  0  0  0  0  0  0  0  0  0
  137.7020   75.3060  222.4040 N   0  0  0  0  0  0  0  0  0  0  0  0
  136.2480   75.2340  222.2630 C   0  0  0  0  0  0  0  0  0  0  0  0
  135.6390   74.5110  223.4350 C   0  0  0  0  0  0  0  0  0  0  0  0
  135.7050   73.1120  223.5190 C   0  0  0  0  0  0  0  0  0  0  0  0
  135.1010   72.4410  224.5860 C   0  0  0  0  0  0  0  0  0  0  0  0
  134.4130   73.1580  225.5710 C   0  0  0  0  0  0  0  0  0  0  0  0
  133.6560   72.2770  226.8930 Cl  0  0  0  0  0  0  0  0  0  0  0  0
  134.3290   74.5580  225.4850 C   0  0  0  0  0  0  0  0  0  0  0  0
  133.4580   75.4950  226.6920 Cl  0  0  0  0  0  0  0  0  0  0  0  0
  134.9370   75.2270  224.4170 C   0  0  0  0  0  0  0  0  0  0  0  0
  139.4470   71.2970  223.6620 C   0  0  0  0  0  0  0  0  0  0  0  0
  138.8660   70.0370  223.8710 C   0  0  0  0  0  0  0  0  0  0  0  0
  139.0370   69.3910  225.0980 C   0  0  0  0  0  0  0  0  0  0  0  0
  139.7810   70.0090  226.1120 C   0  0  0  0  0  0  0  0  0  0  0  0
  139.9770   69.3910  227.3550 C   0  0  0  0  0  0  0  0  0  0  0  0
  140.7200   70.0360  228.3480 C   0  0  0  0  0  0  0  0  0  0  0  0
  141.2670   71.3010  228.1070 C   0  0  0  0  0  0  0  0  0  0  0  0
  141.0840   71.9210  226.8680 C   0  0  0  0  0  0  0  0  0  0  0  0
  140.3420   71.2810  225.8680 C   0  0  0  0  0  0  0  0  0  0  0  0
  140.1660   71.8780  224.6600 N   0  0  0  0  0  0  0  0  0  0  0  0
  141.5627   73.7646  222.6180 H   0  0  0  0  0  0  0  0  0  0  0  0
  142.0591   73.4904  220.9175 H   0  0  0  0  0  0  0  0  0  0  0  0
  142.3391   76.4330  220.6575 H   0  0  0  0  0  0  0  0  0  0  0  0
  140.9540   77.0871  219.7683 H   0  0  0  0  0  0  0  0  0  0  0  0
  142.4382   78.2516  222.0498 H   0  0  0  0  0  0  0  0  0  0  0  0
  141.2587   79.0485  220.9840 H   0  0  0  0  0  0  0  0  0  0  0  0
  140.8333   78.2802  223.6891 H   0  0  0  0  0  0  0  0  0  0  0  0
  139.5613   78.7637  222.5482 H   0  0  0  0  0  0  0  0  0  0  0  0
  140.1525   76.0762  223.6136 H   0  0  0  0  0  0  0  0  0  0  0  0
  138.2710   74.4310  222.3910 H   0  0  0  0  0  0  0  0  0  0  0  0
  135.8382   76.2537  222.2142 H   0  0  0  0  0  0  0  0  0  0  0  0
  136.0070   74.6836  221.3416 H   0  0  0  0  0  0  0  0  0  0  0  0
  136.2343   72.5410  222.7420 H   0  0  0  0  0  0  0  0  0  0  0  0
  135.1668   71.3449  224.6516 H   0  0  0  0  0  0  0  0  0  0  0  0
  134.8642   76.3223  224.3465 H   0  0  0  0  0  0  0  0  0  0  0  0
  138.2786   69.5601  223.0726 H   0  0  0  0  0  0  0  0  0  0  0  0
  138.5891   68.4007  225.2675 H   0  0  0  0  0  0  0  0  0  0  0  0
  139.5458   68.3978  227.5490 H   0  0  0  0  0  0  0  0  0  0  0  0
  140.8750   69.5477  229.3214 H   0  0  0  0  0  0  0  0  0  0  0  0
  141.8426   71.8089  228.8948 H   0  0  0  0  0  0  0  0  0  0  0  0
  141.5229   72.9117  226.6785 H   0  0  0  0  0  0  0  0  0  0  0  0
  1  2  2  0
  2  3  1  0
  3  4  1  0
  4  5  1  0
  5  6  2  0
  5  7  1  0
  7  8  1  0
  8  9  1  0
  9 10  1  0
 10 11  1  0
 11 12  1  0
 12 13  2  0
 12 14  1  0
 14 15  1  0
 15 16  1  0
 16 17  2  0
 17 18  1  0
 18 19  2  0
 19 20  1  0
 19 21  1  0
 21 22  1  0
 21 23  2  0
  2 24  1  0
 24 25  2  0
 25 26  1  0
 26 27  2  0
 27 28  1  0
 28 29  2  0
 29 30  1  0
 30 31  2  0
 31 32  1  0
 32 33  2  0
 11  7  1  0
 23 16  1  0
 33 24  1  0
 32 27  1  0
  4 34  1  0
  4 35  1  0
  8 36  1  0
  8 37  1  0
  9 38  1  0
  9 39  1  0
 10 40  1  0
 10 41  1  0
 11 42  1  1
 14 43  1  0
 15 44  1  0
 15 45  1  0
 17 46  1  0
 18 47  1  0
 23 48  1  0
 25 49  1  0
 26 50  1  0
 28 51  1  0
 29 52  1  0
 30 53  1  0
 31 54  1  0
M  CHG  1   3  -1
M  END
>  <UniqueID>  (8) 
157

>  <SMILES>  (8) 
O=C([N-]CC(=O)N1CCC[C@H]1C(=O)NCc1ccc(Cl)c(Cl)c1)c1ccc2ccccc2n1

>  <Energy>  (8) 
56.92181055614532

>  <Genealogy>  (8) 
O=C([N-]CC(=O)N1CCC[C@H]1C(=O)NCc1ccc(Cl)c(Cl)c1)c1ccc2ccccc2n1 (protonated)
O=C([N-]CC(=O)N1CCC[C@H]1C(=O)NCc1ccc(Cl)c(Cl)c1)c1ccc2ccccc2n1 (3D coordinates assigned)
O=C([N-]CC(=O)N1CCC[C@H]1C(=O)NCc1ccc(Cl)c(Cl)c1)c1ccc2ccccc2n1 (nonaromatic ring conformer: 56.92181055614532 kcal/mol)

>  <smiles>  (8) 
O=C(NCC(=O)N1CCC[C@H]1C(=O)NCc1ccc(Cl)c(Cl)c1)c1ccc2ccccc2n1

>  <score_type>  (8) 
oracle

>  <origin>  (8) 
autodockgpu

>  <m_score__min__energy>  (8) 
-8.5899999999999999

>  <m_primary>  (8) 
energy

>  <meeko>  (8) 
{"free_energy": -7.7, "intermolecular_energy": -10.09, "internal_energy": -3.39, "cluster_size": 7, "cluster_id": 1, "rank_in_cluster": 6}

>  <energy>  (8) 
-8.57

>  <cluster_rmsd>  (8) 
0.0

>  <rmsd>  (8) 
271.88

>  <cluster>  (8) 
2

$$$$
UTPHXWZELLNSAP-IPDNQSFLNA-M
     RDKit          3D

 54 57  0  0  0  0  0  0  0  0999 V2000
  138.2210   75.2630  222.3850 O   0  0  0  0  0  0  0  0  0  0  0  0
  138.9400   76.0380  221.6930 C   0  0  0  0  0  0  0  0  0  0  0  0
  139.3460   75.6580  220.3750 N   0  0  0  0  0  0  0  0  0  0  0  0
  139.9650   74.3800  220.0460 C   0  0  0  0  0  0  0  0  0  0  0  0
  141.0290   74.0810  221.0550 C   0  0  0  0  0  0  0  0  0  0  0  0
  140.7370   74.1070  222.2810 O   0  0  0  0  0  0  0  0  0  0  0  0
  142.3820   73.8020  220.6520 N   0  0  0  0  0  0  0  0  0  0  0  0
  142.8990   72.4600  220.4470 C   0  0  0  0  0  0  0  0  0  0  0  0
  144.4020   72.6160  220.2380 C   0  0  0  0  0  0  0  0  0  0  0  0
  144.6780   74.1110  220.0790 C   0  0  0  0  0  0  0  0  0  0  0  0
  143.3870   74.8400  220.4670 C   0  0  1  0  0  0  0  0  0  0  0  0
  142.9590   75.8110  219.3960 C   0  0  0  0  0  0  0  0  0  0  0  0
  143.6390   75.9150  218.3390 O   0  0  0  0  0  0  0  0  0  0  0  0
  141.7940   76.6200  219.5850 N   0  0  0  0  0  0  0  0  0  0  0  0
  141.3200   77.5250  218.5380 C   0  0  0  0  0  0  0  0  0  0  0  0
  141.0520   78.8930  219.1050 C   0  0  0  0  0  0  0  0  0  0  0  0
  142.1140   79.7700  219.3780 C   0  0  0  0  0  0  0  0  0  0  0  0
  141.8650   81.0230  219.9440 C   0  0  0  0  0  0  0  0  0  0  0  0
  140.5570   81.4090  220.2560 C   0  0  0  0  0  0  0  0  0  0  0  0
  140.2850   82.9900  220.9790 Cl  0  0  0  0  0  0  0  0  0  0  0  0
  139.4900   80.5300  220.0010 C   0  0  0  0  0  0  0  0  0  0  0  0
  137.8330   80.9700  220.3950 Cl  0  0  0  0  0  0  0  0  0  0  0  0
  139.7420   79.2770  219.4310 C   0  0  0  0  0  0  0  0  0  0  0  0
  139.3950   77.3280  222.2370 C   0  0  0  0  0  0  0  0  0  0  0  0
  138.4880   78.2590  222.7670 C   0  0  0  0  0  0  0  0  0  0  0  0
  138.9620   79.4580  223.3050 C   0  0  0  0  0  0  0  0  0  0  0  0
  140.3370   79.7260  223.3050 C   0  0  0  0  0  0  0  0  0  0  0  0
  140.8500   80.9170  223.8380 C   0  0  0  0  0  0  0  0  0  0  0  0
  142.2280   81.1550  223.8190 C   0  0  0  0  0  0  0  0  0  0  0  0
  143.0980   80.2110  223.2640 C   0  0  0  0  0  0  0  0  0  0  0  0
  142.5960   79.0180  222.7380 C   0  0  0  0  0  0  0  0  0  0  0  0
  141.2180   78.7700  222.7540 C   0  0  0  0  0  0  0  0  0  0  0  0
  140.7260   77.6080  222.2480 N   0  0  0  0  0  0  0  0  0  0  0  0
  139.2043   73.5857  220.0656 H   0  0  0  0  0  0  0  0  0  0  0  0
  140.4089   74.4294  219.0408 H   0  0  0  0  0  0  0  0  0  0  0  0
  142.6987   71.8343  221.3293 H   0  0  0  0  0  0  0  0  0  0  0  0
  142.4209   71.9712  219.5853 H   0  0  0  0  0  0  0  0  0  0  0  0
  144.9474   72.2216  221.1080 H   0  0  0  0  0  0  0  0  0  0  0  0
  144.7349   72.0586  219.3500 H   0  0  0  0  0  0  0  0  0  0  0  0
  145.5005   74.4174  220.7420 H   0  0  0  0  0  0  0  0  0  0  0  0
  144.9738   74.3515  219.0472 H   0  0  0  0  0  0  0  0  0  0  0  0
  143.5306   75.4347  221.3811 H   0  0  0  0  0  0  0  0  0  0  0  0
  141.3040   76.5850  220.5050 H   0  0  0  0  0  0  0  0  0  0  0  0
  142.0861   77.6025  217.7525 H   0  0  0  0  0  0  0  0  0  0  0  0
  140.3854   77.1247  218.1182 H   0  0  0  0  0  0  0  0  0  0  0  0
  143.1462   79.4694  219.1454 H   0  0  0  0  0  0  0  0  0  0  0  0
  142.7011   81.7089  220.1451 H   0  0  0  0  0  0  0  0  0  0  0  0
  138.9070   78.5878  219.2370 H   0  0  0  0  0  0  0  0  0  0  0  0
  137.4090   78.0455  222.7588 H   0  0  0  0  0  0  0  0  0  0  0  0
  138.2575   80.1896  223.7274 H   0  0  0  0  0  0  0  0  0  0  0  0
  140.1687   81.6642  224.2711 H   0  0  0  0  0  0  0  0  0  0  0  0
  142.6290   82.0879  224.2420 H   0  0  0  0  0  0  0  0  0  0  0  0
  144.1799   80.4083  223.2416 H   0  0  0  0  0  0  0  0  0  0  0  0
  143.2837   78.2731  222.3111 H   0  0  0  0  0  0  0  0  0  0  0  0
  1  2  2  0
  2  3  1  0
  3  4  1  0
  4  5  1  0
  5  6  2  0
  5  7  1  0
  7  8  1  0
  8  9  1  0
  9 10  1  0
 10 11  1  0
 11 12  1  0
 12 13  2  0
 12 14  1  0
 14 15  1  0
 15 16  1  0
 16 17  2  0
 17 18  1  0
 18 19  2  0
 19 20  1  0
 19 21  1  0
 21 22  1  0
 21 23  2  0
  2 24  1  0
 24 25  2  0
 25 26  1  0
 26 27  2  0
 27 28  1  0
 28 29  2  0
 29 30  1  0
 30 31  2  0
 31 32  1  0
 32 33  2  0
 11  7  1  0
 23 16  1  0
 33 24  1  0
 32 27  1  0
  4 34  1  0
  4 35  1  0
  8 36  1  0
  8 37  1  0
  9 38  1  0
  9 39  1  0
 10 40  1  0
 10 41  1  0
 11 42  1  1
 14 43  1  0
 15 44  1  0
 15 45  1  0
 17 46  1  0
 18 47  1  0
 23 48  1  0
 25 49  1  0
 26 50  1  0
 28 51  1  0
 29 52  1  0
 30 53  1  0
 31 54  1  0
M  CHG  1   3  -1
M  END
>  <UniqueID>  (9) 
157

>  <SMILES>  (9) 
O=C([N-]CC(=O)N1CCC[C@H]1C(=O)NCc1ccc(Cl)c(Cl)c1)c1ccc2ccccc2n1

>  <Energy>  (9) 
56.92181055614532

>  <Genealogy>  (9) 
O=C([N-]CC(=O)N1CCC[C@H]1C(=O)NCc1ccc(Cl)c(Cl)c1)c1ccc2ccccc2n1 (protonated)
O=C([N-]CC(=O)N1CCC[C@H]1C(=O)NCc1ccc(Cl)c(Cl)c1)c1ccc2ccccc2n1 (3D coordinates assigned)
O=C([N-]CC(=O)N1CCC[C@H]1C(=O)NCc1ccc(Cl)c(Cl)c1)c1ccc2ccccc2n1 (nonaromatic ring conformer: 56.92181055614532 kcal/mol)

>  <smiles>  (9) 
O=C(NCC(=O)N1CCC[C@H]1C(=O)NCc1ccc(Cl)c(Cl)c1)c1ccc2ccccc2n1

>  <score_type>  (9) 
oracle

>  <origin>  (9) 
autodockgpu

>  <m_score__min__energy>  (9) 
-8.5899999999999999

>  <m_primary>  (9) 
energy

>  <meeko>  (9) 
{"free_energy": -6.51, "intermolecular_energy": -8.9, "internal_energy": -5.07, "cluster_size": 4, "cluster_id": 6, "rank_in_cluster": 3}

>  <energy>  (9) 
-8.48

>  <cluster_rmsd>  (9) 
0.0

>  <rmsd>  (9) 
272.2

>  <cluster>  (9) 
3

$$$$
UTPHXWZELLNSAP-IPDNQSFLNA-M
     RDKit          3D

 54 57  0  0  0  0  0  0  0  0999 V2000
  138.3930   72.2090  222.0860 O   0  0  0  0  0  0  0  0  0  0  0  0
  139.3940   72.1840  222.8570 C   0  0  0  0  0  0  0  0  0  0  0  0
  140.4540   73.1300  222.6910 N   0  0  0  0  0  0  0  0  0  0  0  0
  141.0970   73.4230  221.4170 C   0  0  0  0  0  0  0  0  0  0  0  0
  140.3710   74.5520  220.7540 C   0  0  0  0  0  0  0  0  0  0  0  0
  139.6230   74.3060  219.7690 O   0  0  0  0  0  0  0  0  0  0  0  0
  140.5410   75.9100  221.1960 N   0  0  0  0  0  0  0  0  0  0  0  0
  141.4180   76.8650  220.5410 C   0  0  0  0  0  0  0  0  0  0  0  0
  141.4540   78.0920  221.4460 C   0  0  0  0  0  0  0  0  0  0  0  0
  140.3700   77.8970  222.5060 C   0  0  0  0  0  0  0  0  0  0  0  0
  139.8940   76.4460  222.3850 C   0  0  1  0  0  0  0  0  0  0  0  0
  138.3930   76.3680  222.2550 C   0  0  0  0  0  0  0  0  0  0  0  0
  137.7310   77.4140  222.0130 O   0  0  0  0  0  0  0  0  0  0  0  0
  137.7230   75.1150  222.4200 N   0  0  0  0  0  0  0  0  0  0  0  0
  136.2760   74.9970  222.2390 C   0  0  0  0  0  0  0  0  0  0  0  0
  135.6640   74.2120  223.3670 C   0  0  0  0  0  0  0  0  0  0  0  0
  134.9580   74.8660  224.3880 C   0  0  0  0  0  0  0  0  0  0  0  0
  134.4290   74.1380  225.4570 C   0  0  0  0  0  0  0  0  0  0  0  0
  134.6090   72.7520  225.5250 C   0  0  0  0  0  0  0  0  0  0  0  0
  133.9380   71.8720  226.8920 Cl  0  0  0  0  0  0  0  0  0  0  0  0
  135.3290   72.0920  224.5140 C   0  0  0  0  0  0  0  0  0  0  0  0
  135.5940   70.3540  224.5720 Cl  0  0  0  0  0  0  0  0  0  0  0  0
  135.8560   72.8230  223.4440 C   0  0  0  0  0  0  0  0  0  0  0  0
  139.5010   71.1690  223.9180 C   0  0  0  0  0  0  0  0  0  0  0  0
  139.0220   69.8630  223.7310 C   0  0  0  0  0  0  0  0  0  0  0  0
  139.1740   68.9180  224.7500 C   0  0  0  0  0  0  0  0  0  0  0  0
  139.7960   69.2840  225.9510 C   0  0  0  0  0  0  0  0  0  0  0  0
  139.9680   68.3620  226.9940 C   0  0  0  0  0  0  0  0  0  0  0  0
  140.5890   68.7600  228.1830 C   0  0  0  0  0  0  0  0  0  0  0  0
  141.0360   70.0770  228.3370 C   0  0  0  0  0  0  0  0  0  0  0  0
  140.8750   70.9990  227.2990 C   0  0  0  0  0  0  0  0  0  0  0  0
  140.2560   70.6090  226.1060 C   0  0  0  0  0  0  0  0  0  0  0  0
  140.1030   71.5010  225.0920 N   0  0  0  0  0  0  0  0  0  0  0  0
  142.1450   73.7091  221.5898 H   0  0  0  0  0  0  0  0  0  0  0  0
  141.0681   72.5323  220.7721 H   0  0  0  0  0  0  0  0  0  0  0  0
  142.4275   76.4427  220.4293 H   0  0  0  0  0  0  0  0  0  0  0  0
  141.0571   77.1181  219.5332 H   0  0  0  0  0  0  0  0  0  0  0  0
  142.4401   78.1790  221.9256 H   0  0  0  0  0  0  0  0  0  0  0  0
  141.2775   79.0113  220.8683 H   0  0  0  0  0  0  0  0  0  0  0  0
  140.7834   78.0782  223.5091 H   0  0  0  0  0  0  0  0  0  0  0  0
  139.5380   78.6008  222.3561 H   0  0  0  0  0  0  0  0  0  0  0  0
  140.1559   75.8700  223.2848 H   0  0  0  0  0  0  0  0  0  0  0  0
  138.2800   74.2830  222.7140 H   0  0  0  0  0  0  0  0  0  0  0  0
  135.8313   76.0028  222.2155 H   0  0  0  0  0  0  0  0  0  0  0  0
  136.0784   74.4716  221.2930 H   0  0  0  0  0  0  0  0  0  0  0  0
  134.8203   75.9566  224.3468 H   0  0  0  0  0  0  0  0  0  0  0  0
  133.8685   74.6568  226.2487 H   0  0  0  0  0  0  0  0  0  0  0  0
  136.4249   72.3060  222.6572 H   0  0  0  0  0  0  0  0  0  0  0  0
  138.5296   69.5845  222.7876 H   0  0  0  0  0  0  0  0  0  0  0  0
  138.8066   67.8908  224.6094 H   0  0  0  0  0  0  0  0  0  0  0  0
  139.6149   67.3268  226.8773 H   0  0  0  0  0  0  0  0  0  0  0  0
  140.7262   68.0354  228.9991 H   0  0  0  0  0  0  0  0  0  0  0  0
  141.5152   70.3874  229.2772 H   0  0  0  0  0  0  0  0  0  0  0  0
  141.2349   72.0314  227.4198 H   0  0  0  0  0  0  0  0  0  0  0  0
  1  2  2  0
  2  3  1  0
  3  4  1  0
  4  5  1  0
  5  6  2  0
  5  7  1  0
  7  8  1  0
  8  9  1  0
  9 10  1  0
 10 11  1  0
 11 12  1  0
 12 13  2  0
 12 14  1  0
 14 15  1  0
 15 16  1  0
 16 17  2  0
 17 18  1  0
 18 19  2  0
 19 20  1  0
 19 21  1  0
 21 22  1  0
 21 23  2  0
  2 24  1  0
 24 25  2  0
 25 26  1  0
 26 27  2  0
 27 28  1  0
 28 29  2  0
 29 30  1  0
 30 31  2  0
 31 32  1  0
 32 33  2  0
 11  7  1  0
 23 16  1  0
 33 24  1  0
 32 27  1  0
  4 34  1  0
  4 35  1  0
  8 36  1  0
  8 37  1  0
  9 38  1  0
  9 39  1  0
 10 40  1  0
 10 41  1  0
 11 42  1  1
 14 43  1  0
 15 44  1  0
 15 45  1  0
 17 46  1  0
 18 47  1  0
 23 48  1  0
 25 49  1  0
 26 50  1  0
 28 51  1  0
 29 52  1  0
 30 53  1  0
 31 54  1  0
M  CHG  1   3  -1
M  END
>  <UniqueID>  (10) 
157

>  <SMILES>  (10) 
O=C([N-]CC(=O)N1CCC[C@H]1C(=O)NCc1ccc(Cl)c(Cl)c1)c1ccc2ccccc2n1

>  <Energy>  (10) 
56.92181055614532

>  <Genealogy>  (10) 
O=C([N-]CC(=O)N1CCC[C@H]1C(=O)NCc1ccc(Cl)c(Cl)c1)c1ccc2ccccc2n1 (protonated)
O=C([N-]CC(=O)N1CCC[C@H]1C(=O)NCc1ccc(Cl)c(Cl)c1)c1ccc2ccccc2n1 (3D coordinates assigned)
O=C([N-]CC(=O)N1CCC[C@H]1C(=O)NCc1ccc(Cl)c(Cl)c1)c1ccc2ccccc2n1 (nonaromatic ring conformer: 56.92181055614532 kcal/mol)

>  <smiles>  (10) 
O=C(NCC(=O)N1CCC[C@H]1C(=O)NCc1ccc(Cl)c(Cl)c1)c1ccc2ccccc2n1

>  <score_type>  (10) 
oracle

>  <origin>  (10) 
autodockgpu

>  <m_score__min__energy>  (10) 
-8.5899999999999999

>  <m_primary>  (10) 
energy

>  <meeko>  (10) 
{"free_energy": -8.04, "intermolecular_energy": -10.43, "internal_energy": -3.54, "cluster_size": 7, "cluster_id": 1, "rank_in_cluster": 4}

>  <energy>  (10) 
-8.33

>  <cluster_rmsd>  (10) 
1.37

>  <rmsd>  (10) 
272.19

>  <cluster>  (10) 
3

$$$$
UTPHXWZELLNSAP-IPDNQSFLNA-M
     RDKit          3D

 54 57  0  0  0  0  0  0  0  0999 V2000
  138.9560   72.1500  221.5920 O   0  0  0  0  0  0  0  0  0  0  0  0
  139.8360   72.2520  222.4920 C   0  0  0  0  0  0  0  0  0  0  0  0
  140.9280   73.1620  222.3320 N   0  0  0  0  0  0  0  0  0  0  0  0
  141.0680   74.0840  221.2120 C   0  0  0  0  0  0  0  0  0  0  0  0
  140.0730   75.1910  221.3660 C   0  0  0  0  0  0  0  0  0  0  0  0
  138.8420   74.9240  221.3000 O   0  0  0  0  0  0  0  0  0  0  0  0
  140.4960   76.5540  221.5500 N   0  0  0  0  0  0  0  0  0  0  0  0
  141.4130   77.2390  220.6560 C   0  0  0  0  0  0  0  0  0  0  0  0
  141.7440   78.5660  221.3290 C   0  0  0  0  0  0  0  0  0  0  0  0
  140.7880   78.7180  222.5120 C   0  0  0  0  0  0  0  0  0  0  0  0
  140.0910   77.3650  222.6910 C   0  0  1  0  0  0  0  0  0  0  0  0
  138.5910   77.5180  222.7300 C   0  0  0  0  0  0  0  0  0  0  0  0
  138.0720   78.6450  222.5040 O   0  0  0  0  0  0  0  0  0  0  0  0
  137.7630   76.3920  223.0350 N   0  0  0  0  0  0  0  0  0  0  0  0
  136.3040   76.4960  223.0200 C   0  0  0  0  0  0  0  0  0  0  0  0
  135.6870   75.3890  223.8320 C   0  0  0  0  0  0  0  0  0  0  0  0
  134.9390   75.6830  224.9820 C   0  0  0  0  0  0  0  0  0  0  0  0
  134.4050   74.6520  225.7580 C   0  0  0  0  0  0  0  0  0  0  0  0
  134.6220   73.3160  225.4030 C   0  0  0  0  0  0  0  0  0  0  0  0
  133.9420   72.0450  226.4110 Cl  0  0  0  0  0  0  0  0  0  0  0  0
  135.3830   73.0130  224.2610 C   0  0  0  0  0  0  0  0  0  0  0  0
  135.6950   71.3470  223.7890 Cl  0  0  0  0  0  0  0  0  0  0  0  0
  135.9150   74.0480  223.4840 C   0  0  0  0  0  0  0  0  0  0  0  0
  139.7700   71.4220  223.7070 C   0  0  0  0  0  0  0  0  0  0  0  0
  139.0950   70.1920  223.7150 C   0  0  0  0  0  0  0  0  0  0  0  0
  139.0840   69.4170  224.8780 C   0  0  0  0  0  0  0  0  0  0  0  0
  139.7410   69.8760  226.0270 C   0  0  0  0  0  0  0  0  0  0  0  0
  139.7540   69.1240  227.2100 C   0  0  0  0  0  0  0  0  0  0  0  0
  140.4150   69.6130  228.3420 C   0  0  0  0  0  0  0  0  0  0  0  0
  141.0610   70.8530  228.2990 C   0  0  0  0  0  0  0  0  0  0  0  0
  141.0600   71.6040  227.1210 C   0  0  0  0  0  0  0  0  0  0  0  0
  140.4020   71.1220  225.9830 C   0  0  0  0  0  0  0  0  0  0  0  0
  140.4030   71.8470  224.8340 N   0  0  0  0  0  0  0  0  0  0  0  0
  142.0857   74.5013  221.2027 H   0  0  0  0  0  0  0  0  0  0  0  0
  140.8881   73.5510  220.2667 H   0  0  0  0  0  0  0  0  0  0  0  0
  142.3269   76.6431  220.5161 H   0  0  0  0  0  0  0  0  0  0  0  0
  140.9676   77.3917  219.6619 H   0  0  0  0  0  0  0  0  0  0  0  0
  142.7854   78.5605  221.6832 H   0  0  0  0  0  0  0  0  0  0  0  0
  141.6317   79.4026  220.6236 H   0  0  0  0  0  0  0  0  0  0  0  0
  141.3488   78.9789  223.4216 H   0  0  0  0  0  0  0  0  0  0  0  0
  140.0565   79.5190  222.3294 H   0  0  0  0  0  0  0  0  0  0  0  0
  140.3768   76.8980  223.6450 H   0  0  0  0  0  0  0  0  0  0  0  0
  138.2190   75.4950  223.3110 H   0  0  0  0  0  0  0  0  0  0  0  0
  136.0061   77.4658  223.4451 H   0  0  0  0  0  0  0  0  0  0  0  0
  135.9526   76.4127  221.9810 H   0  0  0  0  0  0  0  0  0  0  0  0
  134.7724   76.7304  225.2737 H   0  0  0  0  0  0  0  0  0  0  0  0
  133.8111   74.8913  226.6524 H   0  0  0  0  0  0  0  0  0  0  0  0
  136.5161   73.8093  222.5942 H   0  0  0  0  0  0  0  0  0  0  0  0
  138.5772   69.8395  222.8107 H   0  0  0  0  0  0  0  0  0  0  0  0
  138.5610   68.4494  224.8911 H   0  0  0  0  0  0  0  0  0  0  0  0
  139.2447   68.1498  227.2483 H   0  0  0  0  0  0  0  0  0  0  0  0
  140.4267   69.0205  229.2687 H   0  0  0  0  0  0  0  0  0  0  0  0
  141.5709   71.2376  229.1946 H   0  0  0  0  0  0  0  0  0  0  0  0
  141.5765   72.5746  227.0875 H   0  0  0  0  0  0  0  0  0  0  0  0
  1  2  2  0
  2  3  1  0
  3  4  1  0
  4  5  1  0
  5  6  2  0
  5  7  1  0
  7  8  1  0
  8  9  1  0
  9 10  1  0
 10 11  1  0
 11 12  1  0
 12 13  2  0
 12 14  1  0
 14 15  1  0
 15 16  1  0
 16 17  2  0
 17 18  1  0
 18 19  2  0
 19 20  1  0
 19 21  1  0
 21 22  1  0
 21 23  2  0
  2 24  1  0
 24 25  2  0
 25 26  1  0
 26 27  2  0
 27 28  1  0
 28 29  2  0
 29 30  1  0
 30 31  2  0
 31 32  1  0
 32 33  2  0
 11  7  1  0
 23 16  1  0
 33 24  1  0
 32 27  1  0
  4 34  1  0
  4 35  1  0
  8 36  1  0
  8 37  1  0
  9 38  1  0
  9 39  1  0
 10 40  1  0
 10 41  1  0
 11 42  1  1
 14 43  1  0
 15 44  1  0
 15 45  1  0
 17 46  1  0
 18 47  1  0
 23 48  1  0
 25 49  1  0
 26 50  1  0
 28 51  1  0
 29 52  1  0
 30 53  1  0
 31 54  1  0
M  CHG  1   3  -1
M  END
>  <UniqueID>  (11) 
157

>  <SMILES>  (11) 
O=C([N-]CC(=O)N1CCC[C@H]1C(=O)NCc1ccc(Cl)c(Cl)c1)c1ccc2ccccc2n1

>  <Energy>  (11) 
56.92181055614532

>  <Genealogy>  (11) 
O=C([N-]CC(=O)N1CCC[C@H]1C(=O)NCc1ccc(Cl)c(Cl)c1)c1ccc2ccccc2n1 (protonated)
O=C([N-]CC(=O)N1CCC[C@H]1C(=O)NCc1ccc(Cl)c(Cl)c1)c1ccc2ccccc2n1 (3D coordinates assigned)
O=C([N-]CC(=O)N1CCC[C@H]1C(=O)NCc1ccc(Cl)c(Cl)c1)c1ccc2ccccc2n1 (nonaromatic ring conformer: 56.92181055614532 kcal/mol)

>  <smiles>  (11) 
O=C(NCC(=O)N1CCC[C@H]1C(=O)NCc1ccc(Cl)c(Cl)c1)c1ccc2ccccc2n1

>  <score_type>  (11) 
oracle

>  <origin>  (11) 
autodockgpu

>  <m_score__min__energy>  (11) 
-8.5899999999999999

>  <m_primary>  (11) 
energy

>  <meeko>  (11) 
{"free_energy": -8.48, "intermolecular_energy": -10.87, "internal_energy": -2.6, "cluster_size": 7, "cluster_id": 1, "rank_in_cluster": 2}

>  <energy>  (11) 
-8.28

>  <cluster_rmsd>  (11) 
1.76

>  <rmsd>  (11) 
272.21

>  <cluster>  (11) 
3

$$$$
UTPHXWZELLNSAP-IPDNQSFLNA-M
     RDKit          3D

 54 57  0  0  0  0  0  0  0  0999 V2000
  140.6680   73.5890  222.3350 O   0  0  0  0  0  0  0  0  0  0  0  0
  140.0680   72.4800  222.2620 C   0  0  0  0  0  0  0  0  0  0  0  0
  139.3970   72.1020  221.0570 N   0  0  0  0  0  0  0  0  0  0  0  0
  140.0760   71.6300  219.8570 C   0  0  0  0  0  0  0  0  0  0  0  0
  141.1300   72.6200  219.4730 C   0  0  0  0  0  0  0  0  0  0  0  0
  140.7870   73.6930  218.9050 O   0  0  0  0  0  0  0  0  0  0  0  0
  142.5250   72.3530  219.7050 N   0  0  0  0  0  0  0  0  0  0  0  0
  143.2720   71.3190  219.0110 C   0  0  0  0  0  0  0  0  0  0  0  0
  144.6290   71.2450  219.7030 C   0  0  0  0  0  0  0  0  0  0  0  0
  144.7150   72.4440  220.6470 C   0  0  0  0  0  0  0  0  0  0  0  0
  143.3120   73.0570  220.7090 C   0  0  1  0  0  0  0  0  0  0  0  0
  143.3440   74.5370  220.4190 C   0  0  0  0  0  0  0  0  0  0  0  0
  144.4460   75.1050  220.1890 O   0  0  0  0  0  0  0  0  0  0  0  0
  142.1300   75.2940  220.4190 N   0  0  0  0  0  0  0  0  0  0  0  0
  142.1210   76.7170  220.0810 C   0  0  0  0  0  0  0  0  0  0  0  0
  141.3570   77.5010  221.1130 C   0  0  0  0  0  0  0  0  0  0  0  0
  140.0470   77.1340  221.4580 C   0  0  0  0  0  0  0  0  0  0  0  0
  139.3240   77.8900  222.3840 C   0  0  0  0  0  0  0  0  0  0  0  0
  139.8950   79.0270  222.9660 C   0  0  0  0  0  0  0  0  0  0  0  0
  138.9490   79.9600  224.1200 Cl  0  0  0  0  0  0  0  0  0  0  0  0
  141.2010   79.4110  222.6140 C   0  0  0  0  0  0  0  0  0  0  0  0
  141.9480   80.8430  223.3080 Cl  0  0  0  0  0  0  0  0  0  0  0  0
  141.9230   78.6500  221.6880 C   0  0  0  0  0  0  0  0  0  0  0  0
  140.0250   71.5700  223.4190 C   0  0  0  0  0  0  0  0  0  0  0  0
  139.5120   70.2690  223.3070 C   0  0  0  0  0  0  0  0  0  0  0  0
  139.5200   69.4240  224.4200 C   0  0  0  0  0  0  0  0  0  0  0  0
  140.0330   69.8840  225.6400 C   0  0  0  0  0  0  0  0  0  0  0  0
  140.0600   69.0630  226.7770 C   0  0  0  0  0  0  0  0  0  0  0  0
  140.5750   69.5550  227.9810 C   0  0  0  0  0  0  0  0  0  0  0  0
  141.0590   70.8650  228.0570 C   0  0  0  0  0  0  0  0  0  0  0  0
  141.0440   71.6860  226.9270 C   0  0  0  0  0  0  0  0  0  0  0  0
  140.5320   71.2020  225.7170 C   0  0  0  0  0  0  0  0  0  0  0  0
  140.5190   71.9950  224.6140 N   0  0  0  0  0  0  0  0  0  0  0  0
  140.5420   70.6538  220.0567 H   0  0  0  0  0  0  0  0  0  0  0  0
  139.3505   71.5225  219.0372 H   0  0  0  0  0  0  0  0  0  0  0  0
  142.7504   70.3536  219.0881 H   0  0  0  0  0  0  0  0  0  0  0  0
  143.3776   71.5479  217.9403 H   0  0  0  0  0  0  0  0  0  0  0  0
  144.7115   70.3082  220.2736 H   0  0  0  0  0  0  0  0  0  0  0  0
  145.4465   71.2651  218.9673 H   0  0  0  0  0  0  0  0  0  0  0  0
  145.0301   72.1161  221.6486 H   0  0  0  0  0  0  0  0  0  0  0  0
  145.4519   73.1778  220.2886 H   0  0  0  0  0  0  0  0  0  0  0  0
  142.8792   72.9502  221.7146 H   0  0  0  0  0  0  0  0  0  0  0  0
  141.2440   74.8210  220.7060 H   0  0  0  0  0  0  0  0  0  0  0  0
  143.1566   77.0856  220.0405 H   0  0  0  0  0  0  0  0  0  0  0  0
  141.6328   76.8466  219.1038 H   0  0  0  0  0  0  0  0  0  0  0  0
  139.5875   76.2471  220.9972 H   0  0  0  0  0  0  0  0  0  0  0  0
  138.3014   77.5900  222.6567 H   0  0  0  0  0  0  0  0  0  0  0  0
  142.9423   78.9544  221.4083 H   0  0  0  0  0  0  0  0  0  0  0  0
  139.1055   69.9158  222.3478 H   0  0  0  0  0  0  0  0  0  0  0  0
  139.1247   68.4007  224.3385 H   0  0  0  0  0  0  0  0  0  0  0  0
  139.6766   68.0334  226.7219 H   0  0  0  0  0  0  0  0  0  0  0  0
  140.5994   68.9093  228.8712 H   0  0  0  0  0  0  0  0  0  0  0  0
  141.4526   71.2499  229.0094 H   0  0  0  0  0  0  0  0  0  0  0  0
  141.4344   72.7126  226.9877 H   0  0  0  0  0  0  0  0  0  0  0  0
  1  2  2  0
  2  3  1  0
  3  4  1  0
  4  5  1  0
  5  6  2  0
  5  7  1  0
  7  8  1  0
  8  9  1  0
  9 10  1  0
 10 11  1  0
 11 12  1  0
 12 13  2  0
 12 14  1  0
 14 15  1  0
 15 16  1  0
 16 17  2  0
 17 18  1  0
 18 19  2  0
 19 20  1  0
 19 21  1  0
 21 22  1  0
 21 23  2  0
  2 24  1  0
 24 25  2  0
 25 26  1  0
 26 27  2  0
 27 28  1  0
 28 29  2  0
 29 30  1  0
 30 31  2  0
 31 32  1  0
 32 33  2  0
 11  7  1  0
 23 16  1  0
 33 24  1  0
 32 27  1  0
  4 34  1  0
  4 35  1  0
  8 36  1  0
  8 37  1  0
  9 38  1  0
  9 39  1  0
 10 40  1  0
 10 41  1  0
 11 42  1  1
 14 43  1  0
 15 44  1  0
 15 45  1  0
 17 46  1  0
 18 47  1  0
 23 48  1  0
 25 49  1  0
 26 50  1  0
 28 51  1  0
 29 52  1  0
 30 53  1  0
 31 54  1  0
M  CHG  1   3  -1
M  END
>  <UniqueID>  (12) 
157

>  <SMILES>  (12) 
O=C([N-]CC(=O)N1CCC[C@H]1C(=O)NCc1ccc(Cl)c(Cl)c1)c1ccc2ccccc2n1

>  <Energy>  (12) 
56.92181055614532

>  <Genealogy>  (12) 
O=C([N-]CC(=O)N1CCC[C@H]1C(=O)NCc1ccc(Cl)c(Cl)c1)c1ccc2ccccc2n1 (protonated)
O=C([N-]CC(=O)N1CCC[C@H]1C(=O)NCc1ccc(Cl)c(Cl)c1)c1ccc2ccccc2n1 (3D coordinates assigned)
O=C([N-]CC(=O)N1CCC[C@H]1C(=O)NCc1ccc(Cl)c(Cl)c1)c1ccc2ccccc2n1 (nonaromatic ring conformer: 56.92181055614532 kcal/mol)

>  <smiles>  (12) 
O=C(NCC(=O)N1CCC[C@H]1C(=O)NCc1ccc(Cl)c(Cl)c1)c1ccc2ccccc2n1

>  <score_type>  (12) 
oracle

>  <origin>  (12) 
autodockgpu

>  <m_score__min__energy>  (12) 
-8.5899999999999999

>  <m_primary>  (12) 
energy

>  <meeko>  (12) 
{"free_energy": -8.33, "intermolecular_energy": -10.72, "internal_energy": -3.21, "cluster_size": 3, "cluster_id": 3, "rank_in_cluster": 2}

>  <energy>  (12) 
-8.42

>  <cluster_rmsd>  (12) 
0.0

>  <rmsd>  (12) 
271.84

>  <cluster>  (12) 
4

$$$$
UTPHXWZELLNSAP-IPDNQSFLNA-M
     RDKit          3D

 54 57  0  0  0  0  0  0  0  0999 V2000
  139.3560   70.7410  221.0070 O   0  0  0  0  0  0  0  0  0  0  0  0
  140.1740   71.1390  221.8840 C   0  0  0  0  0  0  0  0  0  0  0  0
  141.3160   71.9120  221.5060 N   0  0  0  0  0  0  0  0  0  0  0  0
  141.2480   73.1630  220.7620 C   0  0  0  0  0  0  0  0  0  0  0  0
  140.5690   74.1950  221.6080 C   0  0  0  0  0  0  0  0  0  0  0  0
  139.7620   73.8210  222.5020 O   0  0  0  0  0  0  0  0  0  0  0  0
  140.7930   75.6000  221.3940 N   0  0  0  0  0  0  0  0  0  0  0  0
  141.7830   76.1250  220.4700 C   0  0  0  0  0  0  0  0  0  0  0  0
  141.8270   77.6300  220.7110 C   0  0  0  0  0  0  0  0  0  0  0  0
  140.6480   77.9710  221.6230 C   0  0  0  0  0  0  0  0  0  0  0  0
  140.0860   76.6390  222.1310 C   0  0  1  0  0  0  0  0  0  0  0  0
  138.6000   76.5420  221.8940 C   0  0  0  0  0  0  0  0  0  0  0  0
  138.0350   77.3610  221.1190 O   0  0  0  0  0  0  0  0  0  0  0  0
  137.8320   75.5340  222.5580 N   0  0  0  0  0  0  0  0  0  0  0  0
  136.4010   75.3760  222.3020 C   0  0  0  0  0  0  0  0  0  0  0  0
  135.7340   74.6620  223.4470 C   0  0  0  0  0  0  0  0  0  0  0  0
  135.7100   73.2600  223.4930 C   0  0  0  0  0  0  0  0  0  0  0  0
  135.0520   72.6000  224.5340 C   0  0  0  0  0  0  0  0  0  0  0  0
  134.4010   73.3320  225.5330 C   0  0  0  0  0  0  0  0  0  0  0  0
  133.5750   72.4660  226.8220 Cl  0  0  0  0  0  0  0  0  0  0  0  0
  134.4070   74.7370  225.4860 C   0  0  0  0  0  0  0  0  0  0  0  0
  133.5860   75.6940  226.7110 Cl  0  0  0  0  0  0  0  0  0  0  0  0
  135.0690   75.3950  224.4430 C   0  0  0  0  0  0  0  0  0  0  0  0
  139.9820   70.7940  223.3020 C   0  0  0  0  0  0  0  0  0  0  0  0
  139.1650   69.7210  223.6900 C   0  0  0  0  0  0  0  0  0  0  0  0
  139.0360   69.4040  225.0450 C   0  0  0  0  0  0  0  0  0  0  0  0
  139.7170   70.1630  226.0060 C   0  0  0  0  0  0  0  0  0  0  0  0
  139.6140   69.8720  227.3730 C   0  0  0  0  0  0  0  0  0  0  0  0
  140.3030   70.6520  228.3070 C   0  0  0  0  0  0  0  0  0  0  0  0
  141.0930   71.7260  227.8820 C   0  0  0  0  0  0  0  0  0  0  0  0
  141.2080   72.0170  226.5200 C   0  0  0  0  0  0  0  0  0  0  0  0
  140.5220   71.2410  225.5780 C   0  0  0  0  0  0  0  0  0  0  0  0
  140.6350   71.5160  224.2520 N   0  0  0  0  0  0  0  0  0  0  0  0
  142.2651   73.5004  220.5135 H   0  0  0  0  0  0  0  0  0  0  0  0
  140.6810   73.0125  219.8315 H   0  0  0  0  0  0  0  0  0  0  0  0
  142.7676   75.6771  220.6698 H   0  0  0  0  0  0  0  0  0  0  0  0
  141.5239   75.8916  219.4267 H   0  0  0  0  0  0  0  0  0  0  0  0
  142.7737   77.9072  221.1977 H   0  0  0  0  0  0  0  0  0  0  0  0
  141.7615   78.1818  219.7617 H   0  0  0  0  0  0  0  0  0  0  0  0
  140.9884   78.5863  222.4689 H   0  0  0  0  0  0  0  0  0  0  0  0
  139.8809   78.5437  221.0812 H   0  0  0  0  0  0  0  0  0  0  0  0
  140.2317   76.5388  223.2167 H   0  0  0  0  0  0  0  0  0  0  0  0
  138.3040   74.9300  223.2670 H   0  0  0  0  0  0  0  0  0  0  0  0
  135.9438   76.3690  222.1795 H   0  0  0  0  0  0  0  0  0  0  0  0
  136.2679   74.7805  221.3868 H   0  0  0  0  0  0  0  0  0  0  0  0
  136.2115   72.6777  222.7059 H   0  0  0  0  0  0  0  0  0  0  0  0
  135.0458   71.5006  224.5683 H   0  0  0  0  0  0  0  0  0  0  0  0
  135.0683   76.4943  224.4033 H   0  0  0  0  0  0  0  0  0  0  0  0
  138.6287   69.1322  222.9312 H   0  0  0  0  0  0  0  0  0  0  0  0
  138.4016   68.5610  225.3562 H   0  0  0  0  0  0  0  0  0  0  0  0
  138.9915   69.0305  227.7111 H   0  0  0  0  0  0  0  0  0  0  0  0
  140.2237   70.4205  229.3795 H   0  0  0  0  0  0  0  0  0  0  0  0
  141.6247   72.3426  228.6217 H   0  0  0  0  0  0  0  0  0  0  0  0
  141.8375   72.8558  226.1880 H   0  0  0  0  0  0  0  0  0  0  0  0
  1  2  2  0
  2  3  1  0
  3  4  1  0
  4  5  1  0
  5  6  2  0
  5  7  1  0
  7  8  1  0
  8  9  1  0
  9 10  1  0
 10 11  1  0
 11 12  1  0
 12 13  2  0
 12 14  1  0
 14 15  1  0
 15 16  1  0
 16 17  2  0
 17 18  1  0
 18 19  2  0
 19 20  1  0
 19 21  1  0
 21 22  1  0
 21 23  2  0
  2 24  1  0
 24 25  2  0
 25 26  1  0
 26 27  2  0
 27 28  1  0
 28 29  2  0
 29 30  1  0
 30 31  2  0
 31 32  1  0
 32 33  2  0
 11  7  1  0
 23 16  1  0
 33 24  1  0
 32 27  1  0
  4 34  1  0
  4 35  1  0
  8 36  1  0
  8 37  1  0
  9 38  1  0
  9 39  1  0
 10 40  1  0
 10 41  1  0
 11 42  1  1
 14 43  1  0
 15 44  1  0
 15 45  1  0
 17 46  1  0
 18 47  1  0
 23 48  1  0
 25 49  1  0
 26 50  1  0
 28 51  1  0
 29 52  1  0
 30 53  1  0
 31 54  1  0
M  CHG  1   3  -1
M  END
>  <UniqueID>  (13) 
157

>  <SMILES>  (13) 
O=C([N-]CC(=O)N1CCC[C@H]1C(=O)NCc1ccc(Cl)c(Cl)c1)c1ccc2ccccc2n1

>  <Energy>  (13) 
56.92181055614532

>  <Genealogy>  (13) 
O=C([N-]CC(=O)N1CCC[C@H]1C(=O)NCc1ccc(Cl)c(Cl)c1)c1ccc2ccccc2n1 (protonated)
O=C([N-]CC(=O)N1CCC[C@H]1C(=O)NCc1ccc(Cl)c(Cl)c1)c1ccc2ccccc2n1 (3D coordinates assigned)
O=C([N-]CC(=O)N1CCC[C@H]1C(=O)NCc1ccc(Cl)c(Cl)c1)c1ccc2ccccc2n1 (nonaromatic ring conformer: 56.92181055614532 kcal/mol)

>  <smiles>  (13) 
O=C(NCC(=O)N1CCC[C@H]1C(=O)NCc1ccc(Cl)c(Cl)c1)c1ccc2ccccc2n1

>  <score_type>  (13) 
oracle

>  <origin>  (13) 
autodockgpu

>  <m_score__min__energy>  (13) 
-8.5899999999999999

>  <m_primary>  (13) 
energy

>  <meeko>  (13) 
{"free_energy": -8.59, "intermolecular_energy": -10.98, "internal_energy": -2.35, "cluster_size": 7, "cluster_id": 1, "rank_in_cluster": 1}

>  <energy>  (13) 
-7.97

>  <cluster_rmsd>  (13) 
0.0

>  <rmsd>  (13) 
272.26

>  <cluster>  (13) 
5

$$$$
UTPHXWZELLNSAP-IPDNQSFLNA-M
     RDKit          3D

 54 57  0  0  0  0  0  0  0  0999 V2000
  140.5280   74.1950  222.3300 O   0  0  0  0  0  0  0  0  0  0  0  0
  140.3400   74.9780  221.3560 C   0  0  0  0  0  0  0  0  0  0  0  0
  139.6180   74.5340  220.2050 N   0  0  0  0  0  0  0  0  0  0  0  0
  140.1530   74.5440  218.8490 C   0  0  0  0  0  0  0  0  0  0  0  0
  140.9080   73.2730  218.6140 C   0  0  0  0  0  0  0  0  0  0  0  0
  140.5330   72.5000  217.6910 O   0  0  0  0  0  0  0  0  0  0  0  0
  142.0240   72.9030  219.4430 N   0  0  0  0  0  0  0  0  0  0  0  0
  142.9690   73.8600  219.9930 C   0  0  0  0  0  0  0  0  0  0  0  0
  144.0880   73.0340  220.6190 C   0  0  0  0  0  0  0  0  0  0  0  0
  143.6190   71.5790  220.6250 C   0  0  0  0  0  0  0  0  0  0  0  0
  142.3540   71.5210  219.7620 C   0  0  1  0  0  0  0  0  0  0  0  0
  141.2160   70.8580  220.4960 C   0  0  0  0  0  0  0  0  0  0  0  0
  141.1010   69.6030  220.4690 O   0  0  0  0  0  0  0  0  0  0  0  0
  140.2620   71.6530  221.2080 N   0  0  0  0  0  0  0  0  0  0  0  0
  139.1840   71.0350  221.9790 C   0  0  0  0  0  0  0  0  0  0  0  0
  139.6120   70.8160  223.4050 C   0  0  0  0  0  0  0  0  0  0  0  0
  140.3260   71.8080  224.0940 C   0  0  0  0  0  0  0  0  0  0  0  0
  140.7600   71.5830  225.4030 C   0  0  0  0  0  0  0  0  0  0  0  0
  140.4980   70.3620  226.0330 C   0  0  0  0  0  0  0  0  0  0  0  0
  141.0710   70.1120  227.6780 Cl  0  0  0  0  0  0  0  0  0  0  0  0
  139.7970   69.3570  225.3440 C   0  0  0  0  0  0  0  0  0  0  0  0
  139.4630   67.8010  226.0940 Cl  0  0  0  0  0  0  0  0  0  0  0  0
  139.3620   69.5860  224.0340 C   0  0  0  0  0  0  0  0  0  0  0  0
  140.8800   76.3470  221.3770 C   0  0  0  0  0  0  0  0  0  0  0  0
  141.2670   76.9980  220.1950 C   0  0  0  0  0  0  0  0  0  0  0  0
  141.7430   78.3110  220.2520 C   0  0  0  0  0  0  0  0  0  0  0  0
  141.8370   78.9640  221.4880 C   0  0  0  0  0  0  0  0  0  0  0  0
  142.3080   80.2810  221.5840 C   0  0  0  0  0  0  0  0  0  0  0  0
  142.3940   80.9040  222.8330 C   0  0  0  0  0  0  0  0  0  0  0  0
  142.0170   80.2140  223.9910 C   0  0  0  0  0  0  0  0  0  0  0  0
  141.5390   78.9040  223.9030 C   0  0  0  0  0  0  0  0  0  0  0  0
  141.4480   78.2740  222.6560 C   0  0  0  0  0  0  0  0  0  0  0  0
  140.9790   77.0010  222.5660 N   0  0  0  0  0  0  0  0  0  0  0  0
  139.3267   74.6211  218.1270 H   0  0  0  0  0  0  0  0  0  0  0  0
  140.8255   75.4050  218.7210 H   0  0  0  0  0  0  0  0  0  0  0  0
  143.3692   74.5034  219.1956 H   0  0  0  0  0  0  0  0  0  0  0  0
  142.4910   74.5177  220.7339 H   0  0  0  0  0  0  0  0  0  0  0  0
  145.0081   73.1320  220.0242 H   0  0  0  0  0  0  0  0  0  0  0  0
  144.3078   73.3801  221.6398 H   0  0  0  0  0  0  0  0  0  0  0  0
  144.3976   70.9279  220.2008 H   0  0  0  0  0  0  0  0  0  0  0  0
  143.4157   71.2328  221.6491 H   0  0  0  0  0  0  0  0  0  0  0  0
  142.5243   70.9233  218.8544 H   0  0  0  0  0  0  0  0  0  0  0  0
  140.3230   72.6920  221.1360 H   0  0  0  0  0  0  0  0  0  0  0  0
  138.3038   71.6945  221.9628 H   0  0  0  0  0  0  0  0  0  0  0  0
  138.9383   70.0619  221.5287 H   0  0  0  0  0  0  0  0  0  0  0  0
  140.5451   72.7669  223.6016 H   0  0  0  0  0  0  0  0  0  0  0  0
  141.3101   72.3695  225.9404 H   0  0  0  0  0  0  0  0  0  0  0  0
  138.8201   68.7964  223.4929 H   0  0  0  0  0  0  0  0  0  0  0  0
  141.1960   76.4773  219.2286 H   0  0  0  0  0  0  0  0  0  0  0  0
  142.0428   78.8298  219.3295 H   0  0  0  0  0  0  0  0  0  0  0  0
  142.6100   80.8244  220.6765 H   0  0  0  0  0  0  0  0  0  0  0  0
  142.7589   81.9392  222.9056 H   0  0  0  0  0  0  0  0  0  0  0  0
  142.0972   80.7041  224.9725 H   0  0  0  0  0  0  0  0  0  0  0  0
  141.2341   78.3676  224.8137 H   0  0  0  0  0  0  0  0  0  0  0  0
  1  2  2  0
  2  3  1  0
  3  4  1  0
  4  5  1  0
  5  6  2  0
  5  7  1  0
  7  8  1  0
  8  9  1  0
  9 10  1  0
 10 11  1  0
 11 12  1  0
 12 13  2  0
 12 14  1  0
 14 15  1  0
 15 16  1  0
 16 17  2  0
 17 18  1  0
 18 19  2  0
 19 20  1  0
 19 21  1  0
 21 22  1  0
 21 23  2  0
  2 24  1  0
 24 25  2  0
 25 26  1  0
 26 27  2  0
 27 28  1  0
 28 29  2  0
 29 30  1  0
 30 31  2  0
 31 32  1  0
 32 33  2  0
 11  7  1  0
 23 16  1  0
 33 24  1  0
 32 27  1  0
  4 34  1  0
  4 35  1  0
  8 36  1  0
  8 37  1  0
  9 38  1  0
  9 39  1  0
 10 40  1  0
 10 41  1  0
 11 42  1  6
 14 43  1  0
 15 44  1  0
 15 45  1  0
 17 46  1  0
 18 47  1  0
 23 48  1  0
 25 49  1  0
 26 50  1  0
 28 51  1  0
 29 52  1  0
 30 53  1  0
 31 54  1  0
M  CHG  1   3  -1
M  END
>  <UniqueID>  (14) 
157

>  <SMILES>  (14) 
O=C([N-]CC(=O)N1CCC[C@H]1C(=O)NCc1ccc(Cl)c(Cl)c1)c1ccc2ccccc2n1

>  <Energy>  (14) 
56.92181055614532

>  <Genealogy>  (14) 
O=C([N-]CC(=O)N1CCC[C@H]1C(=O)NCc1ccc(Cl)c(Cl)c1)c1ccc2ccccc2n1 (protonated)
O=C([N-]CC(=O)N1CCC[C@H]1C(=O)NCc1ccc(Cl)c(Cl)c1)c1ccc2ccccc2n1 (3D coordinates assigned)
O=C([N-]CC(=O)N1CCC[C@H]1C(=O)NCc1ccc(Cl)c(Cl)c1)c1ccc2ccccc2n1 (nonaromatic ring conformer: 56.92181055614532 kcal/mol)

>  <smiles>  (14) 
O=C(NCC(=O)N1CCC[C@H]1C(=O)NCc1ccc(Cl)c(Cl)c1)c1ccc2ccccc2n1

>  <score_type>  (14) 
oracle

>  <origin>  (14) 
autodockgpu

>  <m_score__min__energy>  (14) 
-8.5899999999999999

>  <m_primary>  (14) 
energy

>  <meeko>  (14) 
{"free_energy": -7.76, "intermolecular_energy": -10.15, "internal_energy": -3.65, "cluster_size": 2, "cluster_id": 5, "rank_in_cluster": 2}

>  <energy>  (14) 
-7.76

>  <cluster_rmsd>  (14) 
1.17

>  <rmsd>  (14) 
271.82

>  <cluster>  (14) 
5

$$$$
UTPHXWZELLNSAP-IPDNQSFLNA-M
     RDKit          3D

 54 57  0  0  0  0  0  0  0  0999 V2000
  138.8400   70.1350  221.3320 O   0  0  0  0  0  0  0  0  0  0  0  0
  139.0470   70.9110  222.3070 C   0  0  0  0  0  0  0  0  0  0  0  0
  138.9880   72.3280  222.1230 N   0  0  0  0  0  0  0  0  0  0  0  0
  139.4550   73.0190  220.9280 C   0  0  0  0  0  0  0  0  0  0  0  0
  140.7590   73.6880  221.2310 C   0  0  0  0  0  0  0  0  0  0  0  0
  140.7620   74.7330  221.9370 O   0  0  0  0  0  0  0  0  0  0  0  0
  141.9980   73.1830  220.7010 N   0  0  0  0  0  0  0  0  0  0  0  0
  142.1300   71.8850  220.0640 C   0  0  0  0  0  0  0  0  0  0  0  0
  143.6250   71.6730  219.8480 C   0  0  0  0  0  0  0  0  0  0  0  0
  144.3130   73.0030  220.1550 C   0  0  0  0  0  0  0  0  0  0  0  0
  143.2600   73.9030  220.8080 C   0  0  1  0  0  0  0  0  0  0  0  0
  143.1710   75.2390  220.1150 C   0  0  0  0  0  0  0  0  0  0  0  0
  144.2000   75.9610  220.0140 O   0  0  0  0  0  0  0  0  0  0  0  0
  141.9200   75.6910  219.5860 N   0  0  0  0  0  0  0  0  0  0  0  0
  141.8160   76.9540  218.8550 C   0  0  0  0  0  0  0  0  0  0  0  0
  141.7710   78.1160  219.8100 C   0  0  0  0  0  0  0  0  0  0  0  0
  141.8110   79.4330  219.3300 C   0  0  0  0  0  0  0  0  0  0  0  0
  141.8140   80.5090  220.2220 C   0  0  0  0  0  0  0  0  0  0  0  0
  141.7900   80.2810  221.6020 C   0  0  0  0  0  0  0  0  0  0  0  0
  141.8050   81.6610  222.6940 Cl  0  0  0  0  0  0  0  0  0  0  0  0
  141.7660   78.9640  222.0920 C   0  0  0  0  0  0  0  0  0  0  0  0
  141.7530   78.6340  223.8190 Cl  0  0  0  0  0  0  0  0  0  0  0  0
  141.7600   77.8890  221.1960 C   0  0  0  0  0  0  0  0  0  0  0  0
  139.3780   70.3770  223.6380 C   0  0  0  0  0  0  0  0  0  0  0  0
  139.1700   69.0250  223.9550 C   0  0  0  0  0  0  0  0  0  0  0  0
  139.5290   68.5480  225.2190 C   0  0  0  0  0  0  0  0  0  0  0  0
  140.0870   69.4230  226.1610 C   0  0  0  0  0  0  0  0  0  0  0  0
  140.4610   68.9800  227.4370 C   0  0  0  0  0  0  0  0  0  0  0  0
  141.0100   69.8790  228.3560 C   0  0  0  0  0  0  0  0  0  0  0  0
  141.1830   71.2230  228.0080 C   0  0  0  0  0  0  0  0  0  0  0  0
  140.8200   71.6710  226.7360 C   0  0  0  0  0  0  0  0  0  0  0  0
  140.2710   70.7770  225.8090 C   0  0  0  0  0  0  0  0  0  0  0  0
  139.9210   71.2080  224.5680 N   0  0  0  0  0  0  0  0  0  0  0  0
  139.5932   72.2936  220.1127 H   0  0  0  0  0  0  0  0  0  0  0  0
  138.7139   73.7712  220.6198 H   0  0  0  0  0  0  0  0  0  0  0  0
  141.7222   71.0969  220.7141 H   0  0  0  0  0  0  0  0  0  0  0  0
  141.5758   71.8438  219.1147 H   0  0  0  0  0  0  0  0  0  0  0  0
  143.9973   70.8898  220.5248 H   0  0  0  0  0  0  0  0  0  0  0  0
  143.8314   71.3528  218.8161 H   0  0  0  0  0  0  0  0  0  0  0  0
  145.1555   72.8438  220.8441 H   0  0  0  0  0  0  0  0  0  0  0  0
  144.7128   73.4623  219.2389 H   0  0  0  0  0  0  0  0  0  0  0  0
  143.5194   74.1167  221.8554 H   0  0  0  0  0  0  0  0  0  0  0  0
  141.0650   75.1210  219.7660 H   0  0  0  0  0  0  0  0  0  0  0  0
  142.6889   77.0624  218.1945 H   0  0  0  0  0  0  0  0  0  0  0  0
  140.8893   76.9457  218.2624 H   0  0  0  0  0  0  0  0  0  0  0  0
  141.8402   79.6201  218.2464 H   0  0  0  0  0  0  0  0  0  0  0  0
  141.8353   81.5393  219.8373 H   0  0  0  0  0  0  0  0  0  0  0  0
  141.7465   76.8584  221.5802 H   0  0  0  0  0  0  0  0  0  0  0  0
  138.7269   68.3448  223.2127 H   0  0  0  0  0  0  0  0  0  0  0  0
  139.3740   67.4891  225.4735 H   0  0  0  0  0  0  0  0  0  0  0  0
  140.3225   67.9248  227.7153 H   0  0  0  0  0  0  0  0  0  0  0  0
  141.3068   69.5287  229.3556 H   0  0  0  0  0  0  0  0  0  0  0  0
  141.6060   71.9287  228.7381 H   0  0  0  0  0  0  0  0  0  0  0  0
  140.9655   72.7265  226.4624 H   0  0  0  0  0  0  0  0  0  0  0  0
  1  2  2  0
  2  3  1  0
  3  4  1  0
  4  5  1  0
  5  6  2  0
  5  7  1  0
  7  8  1  0
  8  9  1  0
  9 10  1  0
 10 11  1  0
 11 12  1  0
 12 13  2  0
 12 14  1  0
 14 15  1  0
 15 16  1  0
 16 17  2  0
 17 18  1  0
 18 19  2  0
 19 20  1  0
 19 21  1  0
 21 22  1  0
 21 23  2  0
  2 24  1  0
 24 25  2  0
 25 26  1  0
 26 27  2  0
 27 28  1  0
 28 29  2  0
 29 30  1  0
 30 31  2  0
 31 32  1  0
 32 33  2  0
 11  7  1  0
 23 16  1  0
 33 24  1  0
 32 27  1  0
  4 34  1  0
  4 35  1  0
  8 36  1  0
  8 37  1  0
  9 38  1  0
  9 39  1  0
 10 40  1  0
 10 41  1  0
 11 42  1  1
 14 43  1  0
 15 44  1  0
 15 45  1  0
 17 46  1  0
 18 47  1  0
 23 48  1  0
 25 49  1  0
 26 50  1  0
 28 51  1  0
 29 52  1  0
 30 53  1  0
 31 54  1  0
M  CHG  1   3  -1
M  END
>  <UniqueID>  (15) 
157

>  <SMILES>  (15) 
O=C([N-]CC(=O)N1CCC[C@H]1C(=O)NCc1ccc(Cl)c(Cl)c1)c1ccc2ccccc2n1

>  <Energy>  (15) 
56.92181055614532

>  <Genealogy>  (15) 
O=C([N-]CC(=O)N1CCC[C@H]1C(=O)NCc1ccc(Cl)c(Cl)c1)c1ccc2ccccc2n1 (protonated)
O=C([N-]CC(=O)N1CCC[C@H]1C(=O)NCc1ccc(Cl)c(Cl)c1)c1ccc2ccccc2n1 (3D coordinates assigned)
O=C([N-]CC(=O)N1CCC[C@H]1C(=O)NCc1ccc(Cl)c(Cl)c1)c1ccc2ccccc2n1 (nonaromatic ring conformer: 56.92181055614532 kcal/mol)

>  <smiles>  (15) 
O=C(NCC(=O)N1CCC[C@H]1C(=O)NCc1ccc(Cl)c(Cl)c1)c1ccc2ccccc2n1

>  <score_type>  (15) 
oracle

>  <origin>  (15) 
autodockgpu

>  <m_score__min__energy>  (15) 
-8.5899999999999999

>  <m_primary>  (15) 
energy

>  <meeko>  (15) 
{"free_energy": -8.48, "intermolecular_energy": -10.87, "internal_energy": -2.21, "cluster_size": 3, "cluster_id": 3, "rank_in_cluster": 1}

>  <energy>  (15) 
-7.36

>  <cluster_rmsd>  (15) 
0.0

>  <rmsd>  (15) 
272.27

>  <cluster>  (15) 
6

$$$$
UTPHXWZELLNSAP-IPDNQSFLNA-M
     RDKit          3D

 54 57  0  0  0  0  0  0  0  0999 V2000
  137.3800   69.2980  221.9650 O   0  0  0  0  0  0  0  0  0  0  0  0
  138.2190   70.0630  222.5170 C   0  0  0  0  0  0  0  0  0  0  0  0
  138.6430   71.2600  221.8600 N   0  0  0  0  0  0  0  0  0  0  0  0
  140.0190   71.5340  221.4660 C   0  0  0  0  0  0  0  0  0  0  0  0
  140.5190   72.7200  222.2300 C   0  0  0  0  0  0  0  0  0  0  0  0
  140.6410   72.6350  223.4820 O   0  0  0  0  0  0  0  0  0  0  0  0
  140.8240   73.9600  221.5680 N   0  0  0  0  0  0  0  0  0  0  0  0
  141.8420   74.0930  220.5400 C   0  0  0  0  0  0  0  0  0  0  0  0
  141.9740   75.5880  220.2710 C   0  0  0  0  0  0  0  0  0  0  0  0
  140.8200   76.2770  220.9980 C   0  0  0  0  0  0  0  0  0  0  0  0
  140.1820   75.2220  221.9080 C   0  0  1  0  0  0  0  0  0  0  0  0
  138.6920   75.1360  221.6910 C   0  0  0  0  0  0  0  0  0  0  0  0
  138.0910   76.0750  221.1010 O   0  0  0  0  0  0  0  0  0  0  0  0
  137.9620   74.0010  222.1660 N   0  0  0  0  0  0  0  0  0  0  0  0
  136.5280   73.8610  221.9170 C   0  0  0  0  0  0  0  0  0  0  0  0
  135.8270   73.3360  223.1410 C   0  0  0  0  0  0  0  0  0  0  0  0
  135.1950   74.2160  224.0320 C   0  0  0  0  0  0  0  0  0  0  0  0
  134.5830   73.7290  225.1890 C   0  0  0  0  0  0  0  0  0  0  0  0
  134.6080   72.3600  225.4780 C   0  0  0  0  0  0  0  0  0  0  0  0
  133.8360   71.7860  226.9520 Cl  0  0  0  0  0  0  0  0  0  0  0  0
  135.2540   71.4730  224.5990 C   0  0  0  0  0  0  0  0  0  0  0  0
  135.3230   69.7480  224.9340 Cl  0  0  0  0  0  0  0  0  0  0  0  0
  135.8630   71.9640  223.4390 C   0  0  0  0  0  0  0  0  0  0  0  0
  138.7960   69.7260  223.8300 C   0  0  0  0  0  0  0  0  0  0  0  0
  138.8400   68.4010  224.2900 C   0  0  0  0  0  0  0  0  0  0  0  0
  139.4270   68.1180  225.5270 C   0  0  0  0  0  0  0  0  0  0  0  0
  139.9590   69.1580  226.3000 C   0  0  0  0  0  0  0  0  0  0  0  0
  140.5570   68.9110  227.5430 C   0  0  0  0  0  0  0  0  0  0  0  0
  141.0750   69.9730  228.2930 C   0  0  0  0  0  0  0  0  0  0  0  0
  140.9940   71.2820  227.8080 C   0  0  0  0  0  0  0  0  0  0  0  0
  140.4060   71.5350  226.5650 C   0  0  0  0  0  0  0  0  0  0  0  0
  139.8870   70.4790  225.8080 C   0  0  0  0  0  0  0  0  0  0  0  0
  139.3200   70.7200  224.5970 N   0  0  0  0  0  0  0  0  0  0  0  0
  140.6476   70.6595  221.6900 H   0  0  0  0  0  0  0  0  0  0  0  0
  140.0614   71.7429  220.3869 H   0  0  0  0  0  0  0  0  0  0  0  0
  142.7990   73.6823  220.8942 H   0  0  0  0  0  0  0  0  0  0  0  0
  141.5685   73.5419  219.6281 H   0  0  0  0  0  0  0  0  0  0  0  0
  142.9364   75.9573  220.6549 H   0  0  0  0  0  0  0  0  0  0  0  0
  141.9383   75.7970  219.1916 H   0  0  0  0  0  0  0  0  0  0  0  0
  141.1979   77.1175  221.5986 H   0  0  0  0  0  0  0  0  0  0  0  0
  140.0866   76.6803  220.2843 H   0  0  0  0  0  0  0  0  0  0  0  0
  140.3247   75.4787  222.9681 H   0  0  0  0  0  0  0  0  0  0  0  0
  138.4650   73.2840  222.7350 H   0  0  0  0  0  0  0  0  0  0  0  0
  136.1091   74.8435  221.6539 H   0  0  0  0  0  0  0  0  0  0  0  0
  136.3791   73.1504  221.0907 H   0  0  0  0  0  0  0  0  0  0  0  0
  135.1814   75.2950  223.8183 H   0  0  0  0  0  0  0  0  0  0  0  0
  134.0791   74.4246  225.8762 H   0  0  0  0  0  0  0  0  0  0  0  0
  136.3739   71.2702  222.7552 H   0  0  0  0  0  0  0  0  0  0  0  0
  138.4151   67.5896  223.6808 H   0  0  0  0  0  0  0  0  0  0  0  0
  139.4709   67.0813  225.8922 H   0  0  0  0  0  0  0  0  0  0  0  0
  140.6193   67.8829  227.9291 H   0  0  0  0  0  0  0  0  0  0  0  0
  141.5473   69.7774  229.2670 H   0  0  0  0  0  0  0  0  0  0  0  0
  141.3938   72.1145  228.4057 H   0  0  0  0  0  0  0  0  0  0  0  0
  140.3514   72.5647  226.1821 H   0  0  0  0  0  0  0  0  0  0  0  0
  1  2  2  0
  2  3  1  0
  3  4  1  0
  4  5  1  0
  5  6  2  0
  5  7  1  0
  7  8  1  0
  8  9  1  0
  9 10  1  0
 10 11  1  0
 11 12  1  0
 12 13  2  0
 12 14  1  0
 14 15  1  0
 15 16  1  0
 16 17  2  0
 17 18  1  0
 18 19  2  0
 19 20  1  0
 19 21  1  0
 21 22  1  0
 21 23  2  0
  2 24  1  0
 24 25  2  0
 25 26  1  0
 26 27  2  0
 27 28  1  0
 28 29  2  0
 29 30  1  0
 30 31  2  0
 31 32  1  0
 32 33  2  0
 11  7  1  0
 23 16  1  0
 33 24  1  0
 32 27  1  0
  4 34  1  0
  4 35  1  0
  8 36  1  0
  8 37  1  0
  9 38  1  0
  9 39  1  0
 10 40  1  0
 10 41  1  0
 11 42  1  1
 14 43  1  0
 15 44  1  0
 15 45  1  0
 17 46  1  0
 18 47  1  0
 23 48  1  0
 25 49  1  0
 26 50  1  0
 28 51  1  0
 29 52  1  0
 30 53  1  0
 31 54  1  0
M  CHG  1   3  -1
M  END
>  <UniqueID>  (16) 
157

>  <SMILES>  (16) 
O=C([N-]CC(=O)N1CCC[C@H]1C(=O)NCc1ccc(Cl)c(Cl)c1)c1ccc2ccccc2n1

>  <Energy>  (16) 
56.92181055614532

>  <Genealogy>  (16) 
O=C([N-]CC(=O)N1CCC[C@H]1C(=O)NCc1ccc(Cl)c(Cl)c1)c1ccc2ccccc2n1 (protonated)
O=C([N-]CC(=O)N1CCC[C@H]1C(=O)NCc1ccc(Cl)c(Cl)c1)c1ccc2ccccc2n1 (3D coordinates assigned)
O=C([N-]CC(=O)N1CCC[C@H]1C(=O)NCc1ccc(Cl)c(Cl)c1)c1ccc2ccccc2n1 (nonaromatic ring conformer: 56.92181055614532 kcal/mol)

>  <smiles>  (16) 
O=C(NCC(=O)N1CCC[C@H]1C(=O)NCc1ccc(Cl)c(Cl)c1)c1ccc2ccccc2n1

>  <score_type>  (16) 
oracle

>  <origin>  (16) 
autodockgpu

>  <m_score__min__energy>  (16) 
-8.5899999999999999

>  <m_primary>  (16) 
energy

>  <meeko>  (16) 
{"free_energy": -7.24, "intermolecular_energy": -9.62, "internal_energy": -3.63, "cluster_size": 7, "cluster_id": 1, "rank_in_cluster": 7}

>  <energy>  (16) 
-6.72

>  <cluster_rmsd>  (16) 
0.89

>  <rmsd>  (16) 
272.16

>  <cluster>  (16) 
6

$$$$
UTPHXWZELLNSAP-IPDNQSFLNA-M
     RDKit          3D

 54 57  0  0  0  0  0  0  0  0999 V2000
  140.4040   70.1250  220.8540 O   0  0  0  0  0  0  0  0  0  0  0  0
  139.6840   70.8190  221.6260 C   0  0  0  0  0  0  0  0  0  0  0  0
  138.9360   71.9250  221.1130 N   0  0  0  0  0  0  0  0  0  0  0  0
  139.5310   73.0730  220.4420 C   0  0  0  0  0  0  0  0  0  0  0  0
  140.0590   74.0210  221.4730 C   0  0  0  0  0  0  0  0  0  0  0  0
  139.9590   73.7170  222.6930 O   0  0  0  0  0  0  0  0  0  0  0  0
  140.6420   75.2820  221.0990 N   0  0  0  0  0  0  0  0  0  0  0  0
  141.4800   75.4640  219.9270 C   0  0  0  0  0  0  0  0  0  0  0  0
  142.0420   76.8780  220.0290 C   0  0  0  0  0  0  0  0  0  0  0  0
  141.2940   77.5760  221.1650 C   0  0  0  0  0  0  0  0  0  0  0  0
  140.4980   76.4920  221.8970 C   0  0  1  0  0  0  0  0  0  0  0  0
  139.0440   76.8720  222.0310 C   0  0  0  0  0  0  0  0  0  0  0  0
  138.6390   77.9690  221.5600 O   0  0  0  0  0  0  0  0  0  0  0  0
  138.1330   75.9960  222.7010 N   0  0  0  0  0  0  0  0  0  0  0  0
  136.7060   76.3090  222.7930 C   0  0  0  0  0  0  0  0  0  0  0  0
  135.9880   75.2650  223.6050 C   0  0  0  0  0  0  0  0  0  0  0  0
  135.1890   75.6400  224.6960 C   0  0  0  0  0  0  0  0  0  0  0  0
  134.5580   74.6660  225.4740 C   0  0  0  0  0  0  0  0  0  0  0  0
  134.7280   73.3080  225.1800 C   0  0  0  0  0  0  0  0  0  0  0  0
  133.9260   72.1110  226.1900 Cl  0  0  0  0  0  0  0  0  0  0  0  0
  135.5390   72.9250  224.0980 C   0  0  0  0  0  0  0  0  0  0  0  0
  135.7940   71.2290  223.7060 Cl  0  0  0  0  0  0  0  0  0  0  0  0
  136.1680   73.9030  223.3190 C   0  0  0  0  0  0  0  0  0  0  0  0
  139.6220   70.5220  223.0670 C   0  0  0  0  0  0  0  0  0  0  0  0
  138.8700   69.4430  223.5580 C   0  0  0  0  0  0  0  0  0  0  0  0
  138.8640   69.1730  224.9300 C   0  0  0  0  0  0  0  0  0  0  0  0
  139.6010   69.9830  225.8030 C   0  0  0  0  0  0  0  0  0  0  0  0
  139.6210   69.7400  227.1840 C   0  0  0  0  0  0  0  0  0  0  0  0
  140.3630   70.5710  228.0290 C   0  0  0  0  0  0  0  0  0  0  0  0
  141.0840   71.6480  227.5020 C   0  0  0  0  0  0  0  0  0  0  0  0
  141.0770   71.8910  226.1260 C   0  0  0  0  0  0  0  0  0  0  0  0
  140.3370   71.0640  225.2720 C   0  0  0  0  0  0  0  0  0  0  0  0
  140.3310   71.2940  223.9330 N   0  0  0  0  0  0  0  0  0  0  0  0
  140.3543   72.7360  219.7950 H   0  0  0  0  0  0  0  0  0  0  0  0
  138.7718   73.5783  219.8270 H   0  0  0  0  0  0  0  0  0  0  0  0
  142.2968   74.7272  219.9228 H   0  0  0  0  0  0  0  0  0  0  0  0
  140.9093   75.3228  218.9973 H   0  0  0  0  0  0  0  0  0  0  0  0
  143.1185   76.8414  220.2521 H   0  0  0  0  0  0  0  0  0  0  0  0
  141.9117   77.4213  219.0814 H   0  0  0  0  0  0  0  0  0  0  0  0
  142.0080   78.0522  221.8531 H   0  0  0  0  0  0  0  0  0  0  0  0
  140.6293   78.3622  220.7776 H   0  0  0  0  0  0  0  0  0  0  0  0
  140.8749   76.3510  222.9208 H   0  0  0  0  0  0  0  0  0  0  0  0
  138.5090   75.1410  223.1660 H   0  0  0  0  0  0  0  0  0  0  0  0
  136.5811   77.2905  223.2737 H   0  0  0  0  0  0  0  0  0  0  0  0
  136.2797   76.3260  221.7791 H   0  0  0  0  0  0  0  0  0  0  0  0
  135.0590   76.7048  224.9396 H   0  0  0  0  0  0  0  0  0  0  0  0
  133.9248   74.9677  226.3214 H   0  0  0  0  0  0  0  0  0  0  0  0
  136.8080   73.6018  222.4766 H   0  0  0  0  0  0  0  0  0  0  0  0
  138.2890   68.8138  222.8677 H   0  0  0  0  0  0  0  0  0  0  0  0
  138.2818   68.3264  225.3227 H   0  0  0  0  0  0  0  0  0  0  0  0
  139.0531   68.8959  227.6024 H   0  0  0  0  0  0  0  0  0  0  0  0
  140.3799   70.3773  229.1117 H   0  0  0  0  0  0  0  0  0  0  0  0
  141.6576   72.3049  228.1724 H   0  0  0  0  0  0  0  0  0  0  0  0
  141.6531   72.7324  225.7134 H   0  0  0  0  0  0  0  0  0  0  0  0
  1  2  2  0
  2  3  1  0
  3  4  1  0
  4  5  1  0
  5  6  2  0
  5  7  1  0
  7  8  1  0
  8  9  1  0
  9 10  1  0
 10 11  1  0
 11 12  1  0
 12 13  2  0
 12 14  1  0
 14 15  1  0
 15 16  1  0
 16 17  2  0
 17 18  1  0
 18 19  2  0
 19 20  1  0
 19 21  1  0
 21 22  1  0
 21 23  2  0
  2 24  1  0
 24 25  2  0
 25 26  1  0
 26 27  2  0
 27 28  1  0
 28 29  2  0
 29 30  1  0
 30 31  2  0
 31 32  1  0
 32 33  2  0
 11  7  1  0
 23 16  1  0
 33 24  1  0
 32 27  1  0
  4 34  1  0
  4 35  1  0
  8 36  1  0
  8 37  1  0
  9 38  1  0
  9 39  1  0
 10 40  1  0
 10 41  1  0
 11 42  1  1
 14 43  1  0
 15 44  1  0
 15 45  1  0
 17 46  1  0
 18 47  1  0
 23 48  1  0
 25 49  1  0
 26 50  1  0
 28 51  1  0
 29 52  1  0
 30 53  1  0
 31 54  1  0
M  CHG  1   3  -1
M  END
>  <UniqueID>  (17) 
157

>  <SMILES>  (17) 
O=C([N-]CC(=O)N1CCC[C@H]1C(=O)NCc1ccc(Cl)c(Cl)c1)c1ccc2ccccc2n1

>  <Energy>  (17) 
56.92181055614532

>  <Genealogy>  (17) 
O=C([N-]CC(=O)N1CCC[C@H]1C(=O)NCc1ccc(Cl)c(Cl)c1)c1ccc2ccccc2n1 (protonated)
O=C([N-]CC(=O)N1CCC[C@H]1C(=O)NCc1ccc(Cl)c(Cl)c1)c1ccc2ccccc2n1 (3D coordinates assigned)
O=C([N-]CC(=O)N1CCC[C@H]1C(=O)NCc1ccc(Cl)c(Cl)c1)c1ccc2ccccc2n1 (nonaromatic ring conformer: 56.92181055614532 kcal/mol)

>  <smiles>  (17) 
O=C(NCC(=O)N1CCC[C@H]1C(=O)NCc1ccc(Cl)c(Cl)c1)c1ccc2ccccc2n1

>  <score_type>  (17) 
oracle

>  <origin>  (17) 
autodockgpu

>  <m_score__min__energy>  (17) 
-8.5899999999999999

>  <m_primary>  (17) 
energy

>  <meeko>  (17) 
{"free_energy": -7.98, "intermolecular_energy": -10.36, "internal_energy": -2.98, "cluster_size": 7, "cluster_id": 1, "rank_in_cluster": 5}

>  <energy>  (17) 
-6.51

>  <cluster_rmsd>  (17) 
0.95

>  <rmsd>  (17) 
272.12

>  <cluster>  (17) 
6

$$$$
UTPHXWZELLNSAP-IPDNQSFLNA-M
     RDKit          3D

 54 57  0  0  0  0  0  0  0  0999 V2000
  137.4640   77.8540  219.4470 O   0  0  0  0  0  0  0  0  0  0  0  0
  138.5460   78.2780  218.9530 C   0  0  0  0  0  0  0  0  0  0  0  0
  138.8940   77.9630  217.6020 N   0  0  0  0  0  0  0  0  0  0  0  0
  139.1210   76.6100  217.1100 C   0  0  0  0  0  0  0  0  0  0  0  0
  139.4810   75.7260  218.2630 C   0  0  0  0  0  0  0  0  0  0  0  0
  138.6590   74.8490  218.6440 O   0  0  0  0  0  0  0  0  0  0  0  0
  140.7280   75.8850  218.9640 N   0  0  0  0  0  0  0  0  0  0  0  0
  141.6870   76.9350  218.6700 C   0  0  0  0  0  0  0  0  0  0  0  0
  142.9320   76.6090  219.4890 C   0  0  0  0  0  0  0  0  0  0  0  0
  142.5530   75.4790  220.4470 C   0  0  0  0  0  0  0  0  0  0  0  0
  141.1800   74.9660  220.0000 C   0  0  1  0  0  0  0  0  0  0  0  0
  140.2020   74.9370  221.1490 C   0  0  0  0  0  0  0  0  0  0  0  0
  140.3180   74.0590  222.0460 O   0  0  0  0  0  0  0  0  0  0  0  0
  139.1400   75.8940  221.2110 N   0  0  0  0  0  0  0  0  0  0  0  0
  138.2140   75.9290  222.3430 C   0  0  0  0  0  0  0  0  0  0  0  0
  137.6330   77.3070  222.5080 C   0  0  0  0  0  0  0  0  0  0  0  0
  136.3490   77.6000  222.0240 C   0  0  0  0  0  0  0  0  0  0  0  0
  135.8300   78.8920  222.1410 C   0  0  0  0  0  0  0  0  0  0  0  0
  136.5920   79.9090  222.7280 C   0  0  0  0  0  0  0  0  0  0  0  0
  135.9080   81.5250  222.8460 Cl  0  0  0  0  0  0  0  0  0  0  0  0
  137.8860   79.6270  223.2000 C   0  0  0  0  0  0  0  0  0  0  0  0
  138.8830   80.8790  223.9280 Cl  0  0  0  0  0  0  0  0  0  0  0  0
  138.4010   78.3310  223.0850 C   0  0  0  0  0  0  0  0  0  0  0  0
  139.4800   79.0780  219.7630 C   0  0  0  0  0  0  0  0  0  0  0  0
  139.6770   80.4450  219.5150 C   0  0  0  0  0  0  0  0  0  0  0  0
  140.5460   81.1780  220.3280 C   0  0  0  0  0  0  0  0  0  0  0  0
  141.2190   80.5410  221.3780 C   0  0  0  0  0  0  0  0  0  0  0  0
  142.0970   81.2440  222.2160 C   0  0  0  0  0  0  0  0  0  0  0  0
  142.7580   80.5780  223.2530 C   0  0  0  0  0  0  0  0  0  0  0  0
  142.5500   79.2100  223.4560 C   0  0  0  0  0  0  0  0  0  0  0  0
  141.6710   78.5040  222.6310 C   0  0  0  0  0  0  0  0  0  0  0  0
  141.0040   79.1620  221.5910 C   0  0  0  0  0  0  0  0  0  0  0  0
  140.1440   78.4810  220.7900 N   0  0  0  0  0  0  0  0  0  0  0  0
  138.2060   76.2342  216.6288 H   0  0  0  0  0  0  0  0  0  0  0  0
  139.9397   76.6143  216.3753 H   0  0  0  0  0  0  0  0  0  0  0  0
  141.9271   76.9436  217.5966 H   0  0  0  0  0  0  0  0  0  0  0  0
  141.2871   77.9281  218.9228 H   0  0  0  0  0  0  0  0  0  0  0  0
  143.7467   76.2842  218.8251 H   0  0  0  0  0  0  0  0  0  0  0  0
  143.2805   77.4932  220.0428 H   0  0  0  0  0  0  0  0  0  0  0  0
  143.2964   74.6700  220.3923 H   0  0  0  0  0  0  0  0  0  0  0  0
  142.5233   75.8350  221.4874 H   0  0  0  0  0  0  0  0  0  0  0  0
  141.2480   73.9334  219.6270 H   0  0  0  0  0  0  0  0  0  0  0  0
  139.0080   76.5480  220.4090 H   0  0  0  0  0  0  0  0  0  0  0  0
  137.3991   75.2117  222.1660 H   0  0  0  0  0  0  0  0  0  0  0  0
  138.7623   75.6628  223.2587 H   0  0  0  0  0  0  0  0  0  0  0  0
  135.7485   76.8093  221.5505 H   0  0  0  0  0  0  0  0  0  0  0  0
  134.8178   79.1110  221.7701 H   0  0  0  0  0  0  0  0  0  0  0  0
  139.4156   78.1127  223.4496 H   0  0  0  0  0  0  0  0  0  0  0  0
  139.1499   80.9375  218.6845 H   0  0  0  0  0  0  0  0  0  0  0  0
  140.7008   82.2514  220.1438 H   0  0  0  0  0  0  0  0  0  0  0  0
  142.2657   82.3194  222.0575 H   0  0  0  0  0  0  0  0  0  0  0  0
  143.4437   81.1319  223.9111 H   0  0  0  0  0  0  0  0  0  0  0  0
  143.0797   78.6888  224.2670 H   0  0  0  0  0  0  0  0  0  0  0  0
  141.5029   77.4300  222.7988 H   0  0  0  0  0  0  0  0  0  0  0  0
  1  2  2  0
  2  3  1  0
  3  4  1  0
  4  5  1  0
  5  6  2  0
  5  7  1  0
  7  8  1  0
  8  9  1  0
  9 10  1  0
 10 11  1  0
 11 12  1  0
 12 13  2  0
 12 14  1  0
 14 15  1  0
 15 16  1  0
 16 17  2  0
 17 18  1  0
 18 19  2  0
 19 20  1  0
 19 21  1  0
 21 22  1  0
 21 23  2  0
  2 24  1  0
 24 25  2  0
 25 26  1  0
 26 27  2  0
 27 28  1  0
 28 29  2  0
 29 30  1  0
 30 31  2  0
 31 32  1  0
 32 33  2  0
 11  7  1  0
 23 16  1  0
 33 24  1  0
 32 27  1  0
  4 34  1  0
  4 35  1  0
  8 36  1  0
  8 37  1  0
  9 38  1  0
  9 39  1  0
 10 40  1  0
 10 41  1  0
 11 42  1  6
 14 43  1  0
 15 44  1  0
 15 45  1  0
 17 46  1  0
 18 47  1  0
 23 48  1  0
 25 49  1  0
 26 50  1  0
 28 51  1  0
 29 52  1  0
 30 53  1  0
 31 54  1  0
M  CHG  1   3  -1
M  END
>  <UniqueID>  (18) 
157

>  <SMILES>  (18) 
O=C([N-]CC(=O)N1CCC[C@H]1C(=O)NCc1ccc(Cl)c(Cl)c1)c1ccc2ccccc2n1

>  <Energy>  (18) 
56.92181055614532

>  <Genealogy>  (18) 
O=C([N-]CC(=O)N1CCC[C@H]1C(=O)NCc1ccc(Cl)c(Cl)c1)c1ccc2ccccc2n1 (protonated)
O=C([N-]CC(=O)N1CCC[C@H]1C(=O)NCc1ccc(Cl)c(Cl)c1)c1ccc2ccccc2n1 (3D coordinates assigned)
O=C([N-]CC(=O)N1CCC[C@H]1C(=O)NCc1ccc(Cl)c(Cl)c1)c1ccc2ccccc2n1 (nonaromatic ring conformer: 56.92181055614532 kcal/mol)

>  <smiles>  (18) 
O=C(NCC(=O)N1CCC[C@H]1C(=O)NCc1ccc(Cl)c(Cl)c1)c1ccc2ccccc2n1

>  <score_type>  (18) 
oracle

>  <origin>  (18) 
autodockgpu

>  <m_score__min__energy>  (18) 
-8.5899999999999999

>  <m_primary>  (18) 
energy

>  <meeko>  (18) 
{"free_energy": -4.43, "intermolecular_energy": -6.81, "internal_energy": -5.72, "cluster_size": 1, "cluster_id": 8, "rank_in_cluster": 1}

>  <energy>  (18) 
-5.95

>  <cluster_rmsd>  (18) 
1.17

>  <rmsd>  (18) 
271.91

>  <cluster>  (18) 
6

$$$$
UTPHXWZELLNSAP-IPDNQSFLNA-M
     RDKit          3D

 54 57  0  0  0  0  0  0  0  0999 V2000
  138.8100   75.4370  220.2340 O   0  0  0  0  0  0  0  0  0  0  0  0
  139.2800   75.5180  221.4030 C   0  0  0  0  0  0  0  0  0  0  0  0
  139.4830   74.3360  222.1820 N   0  0  0  0  0  0  0  0  0  0  0  0
  140.6030   73.4210  222.0020 C   0  0  0  0  0  0  0  0  0  0  0  0
  141.1930   73.6340  220.6440 C   0  0  0  0  0  0  0  0  0  0  0  0
  140.4230   73.7570  219.6530 O   0  0  0  0  0  0  0  0  0  0  0  0
  142.6180   73.6640  220.4450 N   0  0  0  0  0  0  0  0  0  0  0  0
  143.4280   72.4740  220.2550 C   0  0  0  0  0  0  0  0  0  0  0  0
  144.8790   72.9430  220.2940 C   0  0  0  0  0  0  0  0  0  0  0  0
  144.8560   74.4710  220.2610 C   0  0  0  0  0  0  0  0  0  0  0  0
  143.3990   74.8930  220.4780 C   0  0  1  0  0  0  0  0  0  0  0  0
  142.9360   75.8470  219.4050 C   0  0  0  0  0  0  0  0  0  0  0  0
  143.7660   76.2990  218.5700 O   0  0  0  0  0  0  0  0  0  0  0  0
  141.5640   76.2470  219.3450 N   0  0  0  0  0  0  0  0  0  0  0  0
  141.0740   77.1220  218.2800 C   0  0  0  0  0  0  0  0  0  0  0  0
  141.0280   78.5510  218.7490 C   0  0  0  0  0  0  0  0  0  0  0  0
  142.1650   79.3680  218.6510 C   0  0  0  0  0  0  0  0  0  0  0  0
  142.1330   80.6810  219.1270 C   0  0  0  0  0  0  0  0  0  0  0  0
  140.9700   81.1890  219.7170 C   0  0  0  0  0  0  0  0  0  0  0  0
  140.9720   82.8440  220.3140 Cl  0  0  0  0  0  0  0  0  0  0  0  0
  139.8320   80.3720  219.8330 C   0  0  0  0  0  0  0  0  0  0  0  0
  138.3570   80.9660  220.5850 Cl  0  0  0  0  0  0  0  0  0  0  0  0
  139.8670   79.0580  219.3530 C   0  0  0  0  0  0  0  0  0  0  0  0
  139.6010   76.8280  221.9950 C   0  0  0  0  0  0  0  0  0  0  0  0
  138.6530   77.5460  222.7390 C   0  0  0  0  0  0  0  0  0  0  0  0
  139.0070   78.7700  223.3140 C   0  0  0  0  0  0  0  0  0  0  0  0
  140.3030   79.2730  223.1380 C   0  0  0  0  0  0  0  0  0  0  0  0
  140.6940   80.4950  223.7020 C   0  0  0  0  0  0  0  0  0  0  0  0
  141.9940   80.9720  223.5030 C   0  0  0  0  0  0  0  0  0  0  0  0
  142.9050   80.2350  222.7390 C   0  0  0  0  0  0  0  0  0  0  0  0
  142.5250   79.0120  222.1800 C   0  0  0  0  0  0  0  0  0  0  0  0
  141.2270   78.5260  222.3750 C   0  0  0  0  0  0  0  0  0  0  0  0
  140.8540   77.3350  221.8380 N   0  0  0  0  0  0  0  0  0  0  0  0
  141.3658   73.6162  222.7702 H   0  0  0  0  0  0  0  0  0  0  0  0
  140.2530   72.3824  222.0962 H   0  0  0  0  0  0  0  0  0  0  0  0
  143.2385   71.7499  221.0610 H   0  0  0  0  0  0  0  0  0  0  0  0
  143.1917   71.9730  219.3046 H   0  0  0  0  0  0  0  0  0  0  0  0
  145.3646   72.5924  221.2166 H   0  0  0  0  0  0  0  0  0  0  0  0
  145.4446   72.5405  219.4408 H   0  0  0  0  0  0  0  0  0  0  0  0
  145.4918   74.8773  221.0614 H   0  0  0  0  0  0  0  0  0  0  0  0
  145.2405   74.8524  219.3036 H   0  0  0  0  0  0  0  0  0  0  0  0
  143.2814   75.4245  221.4339 H   0  0  0  0  0  0  0  0  0  0  0  0
  140.9180   75.9360  220.1030 H   0  0  0  0  0  0  0  0  0  0  0  0
  141.7464   77.0475  217.4126 H   0  0  0  0  0  0  0  0  0  0  0  0
  140.0576   76.8070  218.0012 H   0  0  0  0  0  0  0  0  0  0  0  0
  143.0857   78.9726  218.1972 H   0  0  0  0  0  0  0  0  0  0  0  0
  143.0253   81.3180  219.0377 H   0  0  0  0  0  0  0  0  0  0  0  0
  138.9779   78.4176  219.4498 H   0  0  0  0  0  0  0  0  0  0  0  0
  137.6359   77.1478  222.8693 H   0  0  0  0  0  0  0  0  0  0  0  0
  138.2705   79.3365  223.9028 H   0  0  0  0  0  0  0  0  0  0  0  0
  139.9792   81.0786  224.3007 H   0  0  0  0  0  0  0  0  0  0  0  0
  142.3008   81.9297  223.9488 H   0  0  0  0  0  0  0  0  0  0  0  0
  143.9231   80.6192  222.5779 H   0  0  0  0  0  0  0  0  0  0  0  0
  143.2462   78.4310  221.5865 H   0  0  0  0  0  0  0  0  0  0  0  0
  1  2  2  0
  2  3  1  0
  3  4  1  0
  4  5  1  0
  5  6  2  0
  5  7  1  0
  7  8  1  0
  8  9  1  0
  9 10  1  0
 10 11  1  0
 11 12  1  0
 12 13  2  0
 12 14  1  0
 14 15  1  0
 15 16  1  0
 16 17  2  0
 17 18  1  0
 18 19  2  0
 19 20  1  0
 19 21  1  0
 21 22  1  0
 21 23  2  0
  2 24  1  0
 24 25  2  0
 25 26  1  0
 26 27  2  0
 27 28  1  0
 28 29  2  0
 29 30  1  0
 30 31  2  0
 31 32  1  0
 32 33  2  0
 11  7  1  0
 23 16  1  0
 33 24  1  0
 32 27  1  0
  4 34  1  0
  4 35  1  0
  8 36  1  0
  8 37  1  0
  9 38  1  0
  9 39  1  0
 10 40  1  0
 10 41  1  0
 11 42  1  1
 14 43  1  0
 15 44  1  0
 15 45  1  0
 17 46  1  0
 18 47  1  0
 23 48  1  0
 25 49  1  0
 26 50  1  0
 28 51  1  0
 29 52  1  0
 30 53  1  0
 31 54  1  0
M  CHG  1   3  -1
M  END
>  <UniqueID>  (19) 
157

>  <SMILES>  (19) 
O=C([N-]CC(=O)N1CCC[C@H]1C(=O)NCc1ccc(Cl)c(Cl)c1)c1ccc2ccccc2n1

>  <Energy>  (19) 
56.92181055614532

>  <Genealogy>  (19) 
O=C([N-]CC(=O)N1CCC[C@H]1C(=O)NCc1ccc(Cl)c(Cl)c1)c1ccc2ccccc2n1 (protonated)
O=C([N-]CC(=O)N1CCC[C@H]1C(=O)NCc1ccc(Cl)c(Cl)c1)c1ccc2ccccc2n1 (3D coordinates assigned)
O=C([N-]CC(=O)N1CCC[C@H]1C(=O)NCc1ccc(Cl)c(Cl)c1)c1ccc2ccccc2n1 (nonaromatic ring conformer: 56.92181055614532 kcal/mol)

>  <smiles>  (19) 
O=C(NCC(=O)N1CCC[C@H]1C(=O)NCc1ccc(Cl)c(Cl)c1)c1ccc2ccccc2n1

>  <score_type>  (19) 
oracle

>  <origin>  (19) 
autodockgpu

>  <m_score__min__energy>  (19) 
-8.5899999999999999

>  <m_primary>  (19) 
energy

>  <meeko>  (19) 
{"free_energy": -5.95, "intermolecular_energy": -8.33, "internal_energy": -5.45, "cluster_size": 4, "cluster_id": 6, "rank_in_cluster": 4}

>  <energy>  (19) 
-7.2

>  <cluster_rmsd>  (19) 
0.0

>  <rmsd>  (19) 
271.52

>  <cluster>  (19) 
7

$$$$
UTPHXWZELLNSAP-IPDNQSFLNA-M
     RDKit          3D

 54 57  0  0  0  0  0  0  0  0999 V2000
  139.7580   74.4820  222.3210 O   0  0  0  0  0  0  0  0  0  0  0  0
  140.1890   75.4420  221.6230 C   0  0  0  0  0  0  0  0  0  0  0  0
  140.6480   75.2130  220.2880 N   0  0  0  0  0  0  0  0  0  0  0  0
  140.9570   73.8970  219.7430 C   0  0  0  0  0  0  0  0  0  0  0  0
  141.8610   73.1770  220.6950 C   0  0  0  0  0  0  0  0  0  0  0  0
  141.3530   72.5090  221.6360 O   0  0  0  0  0  0  0  0  0  0  0  0
  143.2920   73.2630  220.5740 N   0  0  0  0  0  0  0  0  0  0  0  0
  144.1620   72.1030  220.4760 C   0  0  0  0  0  0  0  0  0  0  0  0
  145.5870   72.6370  220.5770 C   0  0  0  0  0  0  0  0  0  0  0  0
  145.5010   74.1600  220.4830 C   0  0  0  0  0  0  0  0  0  0  0  0
  144.0180   74.5250  220.6020 C   0  0  1  0  0  0  0  0  0  0  0  0
  143.5770   75.4170  219.4680 C   0  0  0  0  0  0  0  0  0  0  0  0
  143.7270   75.0340  218.2770 O   0  0  0  0  0  0  0  0  0  0  0  0
  143.0050   76.6990  219.7460 N   0  0  0  0  0  0  0  0  0  0  0  0
  142.5120   77.5600  218.6700 C   0  0  0  0  0  0  0  0  0  0  0  0
  141.4810   78.5220  219.1940 C   0  0  0  0  0  0  0  0  0  0  0  0
  140.1220   78.1730  219.2050 C   0  0  0  0  0  0  0  0  0  0  0  0
  139.1630   79.0860  219.6510 C   0  0  0  0  0  0  0  0  0  0  0  0
  139.5480   80.3610  220.0790 C   0  0  0  0  0  0  0  0  0  0  0  0
  138.3100   81.4870  220.6230 Cl  0  0  0  0  0  0  0  0  0  0  0  0
  140.9060   80.7250  220.0560 C   0  0  0  0  0  0  0  0  0  0  0  0
  141.4290   82.3240  220.5680 Cl  0  0  0  0  0  0  0  0  0  0  0  0
  141.8640   79.8070  219.6110 C   0  0  0  0  0  0  0  0  0  0  0  0
  140.2530   76.8050  222.1760 C   0  0  0  0  0  0  0  0  0  0  0  0
  139.1050   77.4530  222.6570 C   0  0  0  0  0  0  0  0  0  0  0  0
  139.2110   78.7330  223.2070 C   0  0  0  0  0  0  0  0  0  0  0  0
  140.4620   79.3630  223.2660 C   0  0  0  0  0  0  0  0  0  0  0  0
  140.6070   80.6460  223.8130 C   0  0  0  0  0  0  0  0  0  0  0  0
  141.8690   81.2490  223.8530 C   0  0  0  0  0  0  0  0  0  0  0  0
  142.9860   80.5780  223.3450 C   0  0  0  0  0  0  0  0  0  0  0  0
  142.8500   79.2960  222.8060 C   0  0  0  0  0  0  0  0  0  0  0  0
  141.5920   78.6840  222.7630 C   0  0  0  0  0  0  0  0  0  0  0  0
  141.4560   77.4350  222.2450 N   0  0  0  0  0  0  0  0  0  0  0  0
  140.0272   73.3241  219.6121 H   0  0  0  0  0  0  0  0  0  0  0  0
  141.4537   74.0052  218.7675 H   0  0  0  0  0  0  0  0  0  0  0  0
  143.9576   71.4013  221.2981 H   0  0  0  0  0  0  0  0  0  0  0  0
  144.0018   71.5575  219.5343 H   0  0  0  0  0  0  0  0  0  0  0  0
  146.0336   72.3424  221.5381 H   0  0  0  0  0  0  0  0  0  0  0  0
  146.2171   72.2290  219.7729 H   0  0  0  0  0  0  0  0  0  0  0  0
  146.0723   74.6232  221.3009 H   0  0  0  0  0  0  0  0  0  0  0  0
  145.9229   74.5224  219.5340 H   0  0  0  0  0  0  0  0  0  0  0  0
  143.8245   75.0858  221.5284 H   0  0  0  0  0  0  0  0  0  0  0  0
  142.9790   77.0340  220.7340 H   0  0  0  0  0  0  0  0  0  0  0  0
  143.3537   78.1273  218.2461 H   0  0  0  0  0  0  0  0  0  0  0  0
  142.0495   76.9309  217.8952 H   0  0  0  0  0  0  0  0  0  0  0  0
  139.8101   77.1758  218.8609 H   0  0  0  0  0  0  0  0  0  0  0  0
  138.1007   78.8010  219.6657 H   0  0  0  0  0  0  0  0  0  0  0  0
  142.9255   80.0944  219.5877 H   0  0  0  0  0  0  0  0  0  0  0  0
  138.1256   76.9553  222.6013 H   0  0  0  0  0  0  0  0  0  0  0  0
  138.3165   79.2444  223.5922 H   0  0  0  0  0  0  0  0  0  0  0  0
  139.7298   81.1777  224.2101 H   0  0  0  0  0  0  0  0  0  0  0  0
  141.9829   82.2540  224.2854 H   0  0  0  0  0  0  0  0  0  0  0  0
  143.9741   81.0607  223.3698 H   0  0  0  0  0  0  0  0  0  0  0  0
  143.7321   78.7675  222.4153 H   0  0  0  0  0  0  0  0  0  0  0  0
  1  2  2  0
  2  3  1  0
  3  4  1  0
  4  5  1  0
  5  6  2  0
  5  7  1  0
  7  8  1  0
  8  9  1  0
  9 10  1  0
 10 11  1  0
 11 12  1  0
 12 13  2  0
 12 14  1  0
 14 15  1  0
 15 16  1  0
 16 17  2  0
 17 18  1  0
 18 19  2  0
 19 20  1  0
 19 21  1  0
 21 22  1  0
 21 23  2  0
  2 24  1  0
 24 25  2  0
 25 26  1  0
 26 27  2  0
 27 28  1  0
 28 29  2  0
 29 30  1  0
 30 31  2  0
 31 32  1  0
 32 33  2  0
 11  7  1  0
 23 16  1  0
 33 24  1  0
 32 27  1  0
  4 34  1  0
  4 35  1  0
  8 36  1  0
  8 37  1  0
  9 38  1  0
  9 39  1  0
 10 40  1  0
 10 41  1  0
 11 42  1  1
 14 43  1  0
 15 44  1  0
 15 45  1  0
 17 46  1  0
 18 47  1  0
 23 48  1  0
 25 49  1  0
 26 50  1  0
 28 51  1  0
 29 52  1  0
 30 53  1  0
 31 54  1  0
M  CHG  1   3  -1
M  END
>  <UniqueID>  (20) 
157

>  <SMILES>  (20) 
O=C([N-]CC(=O)N1CCC[C@H]1C(=O)NCc1ccc(Cl)c(Cl)c1)c1ccc2ccccc2n1

>  <Energy>  (20) 
56.92181055614532

>  <Genealogy>  (20) 
O=C([N-]CC(=O)N1CCC[C@H]1C(=O)NCc1ccc(Cl)c(Cl)c1)c1ccc2ccccc2n1 (protonated)
O=C([N-]CC(=O)N1CCC[C@H]1C(=O)NCc1ccc(Cl)c(Cl)c1)c1ccc2ccccc2n1 (3D coordinates assigned)
O=C([N-]CC(=O)N1CCC[C@H]1C(=O)NCc1ccc(Cl)c(Cl)c1)c1ccc2ccccc2n1 (nonaromatic ring conformer: 56.92181055614532 kcal/mol)

>  <smiles>  (20) 
O=C(NCC(=O)N1CCC[C@H]1C(=O)NCc1ccc(Cl)c(Cl)c1)c1ccc2ccccc2n1

>  <score_type>  (20) 
oracle

>  <origin>  (20) 
autodockgpu

>  <m_score__min__energy>  (20) 
-8.5899999999999999

>  <m_primary>  (20) 
energy

>  <meeko>  (20) 
{"free_energy": -7.36, "intermolecular_energy": -9.75, "internal_energy": -4.29, "cluster_size": 4, "cluster_id": 6, "rank_in_cluster": 1}

>  <energy>  (20) 
-4.43

>  <cluster_rmsd>  (20) 
0.0

>  <rmsd>  (20) 
271.38

>  <cluster>  (20) 
8

$$$$
NTBKPXNOUBMHTF-CKGUNICPNA-M
     RDKit          3D

 54 57  0  0  0  0  0  0  0  0999 V2000
  139.6170   73.2000  223.1030 H   0  0  0  0  0  0  0  0  0  0  0  0
  139.5700   74.1040  222.6460 O   0  0  0  0  0  0  0  0  0  0  0  0
  140.5020   74.4630  221.6750 C   0  0  0  0  0  0  0  0  0  0  0  0
  141.2360   73.5260  221.0790 C   0  0  0  0  0  0  0  0  0  0  0  0
  141.8945   73.7947  220.2398 H   0  0  0  0  0  0  0  0  0  0  0  0
  141.1690   72.1700  221.5290 N   0  0  0  0  0  0  0  0  0  0  0  0
  139.9960   71.5400  222.0580 C   0  0  0  0  0  0  0  0  0  0  0  0
  138.9540   71.5260  221.3490 O   0  0  0  0  0  0  0  0  0  0  0  0
  139.9410   70.9580  223.4200 C   0  0  0  0  0  0  0  0  0  0  0  0
  140.4560   71.6750  224.4570 N   0  0  0  0  0  0  0  0  0  0  0  0
  140.5010   71.1890  225.7250 C   0  0  0  0  0  0  0  0  0  0  0  0
  141.0230   71.9730  226.7610 C   0  0  0  0  0  0  0  0  0  0  0  0
  141.4068   72.9816  226.5482 H   0  0  0  0  0  0  0  0  0  0  0  0
  141.0560   71.4730  228.0660 C   0  0  0  0  0  0  0  0  0  0  0  0
  141.4635   72.0912  228.8795 H   0  0  0  0  0  0  0  0  0  0  0  0
  140.5730   70.1900  228.3410 C   0  0  0  0  0  0  0  0  0  0  0  0
  140.6058   69.8010  229.3694 H   0  0  0  0  0  0  0  0  0  0  0  0
  140.0480   69.3990  227.3130 C   0  0  0  0  0  0  0  0  0  0  0  0
  139.6666   68.3910  227.5333 H   0  0  0  0  0  0  0  0  0  0  0  0
  140.0090   69.8940  226.0010 C   0  0  0  0  0  0  0  0  0  0  0  0
  139.4860   69.1330  224.9520 C   0  0  0  0  0  0  0  0  0  0  0  0
  139.0916   68.1247  225.1461 H   0  0  0  0  0  0  0  0  0  0  0  0
  139.4650   69.6550  223.6570 C   0  0  0  0  0  0  0  0  0  0  0  0
  139.0775   69.0494  222.8245 H   0  0  0  0  0  0  0  0  0  0  0  0
  140.6790   75.8440  221.3380 N   0  0  0  0  0  0  0  0  0  0  0  0
  141.4890   76.2550  220.2060 C   0  0  0  0  0  0  0  0  0  0  0  0
  142.4601   75.7386  220.2217 H   0  0  0  0  0  0  0  0  0  0  0  0
  141.0061   76.0057  219.2496 H   0  0  0  0  0  0  0  0  0  0  0  0
  141.6840   77.7570  220.3620 C   0  0  0  0  0  0  0  0  0  0  0  0
  142.7332   78.0273  220.1720 H   0  0  0  0  0  0  0  0  0  0  0  0
  141.0660   78.3184  219.6459 H   0  0  0  0  0  0  0  0  0  0  0  0
  141.3050   78.0870  221.8030 C   0  0  0  0  0  0  0  0  0  0  0  0
  142.2091   78.1950  222.4202 H   0  0  0  0  0  0  0  0  0  0  0  0
  140.7506   79.0350  221.8654 H   0  0  0  0  0  0  0  0  0  0  0  0
  140.4600   76.9120  222.3000 C   0  0  1  0  0  0  0  0  0  0  0  0
  140.7507   76.6207  223.3201 H   0  0  0  0  0  0  0  0  0  0  0  0
  138.9990   77.2660  222.3690 C   0  0  0  0  0  0  0  0  0  0  0  0
  138.6310   78.4290  222.0530 O   0  0  0  0  0  0  0  0  0  0  0  0
  138.0280   76.2900  222.7710 N   0  0  0  0  0  0  0  0  0  0  0  0
  138.3490   75.3440  223.0770 H   0  0  0  0  0  0  0  0  0  0  0  0
  136.5910   76.5470  222.7290 C   0  0  0  0  0  0  0  0  0  0  0  0
  136.3943   77.5678  223.0887 H   0  0  0  0  0  0  0  0  0  0  0  0
  136.2382   76.4379  221.6928 H   0  0  0  0  0  0  0  0  0  0  0  0
  135.8590   75.5640  223.6010 C   0  0  0  0  0  0  0  0  0  0  0  0
  135.9950   74.1860  223.3730 C   0  0  0  0  0  0  0  0  0  0  0  0
  136.6412   73.8261  222.5588 H   0  0  0  0  0  0  0  0  0  0  0  0
  135.3130   73.2710  224.1760 C   0  0  0  0  0  0  0  0  0  0  0  0
  135.4063   72.1931  223.9777 H   0  0  0  0  0  0  0  0  0  0  0  0
  134.5120   73.7170  225.2310 C   0  0  0  0  0  0  0  0  0  0  0  0
  133.6820   72.5290  226.2270 Cl  0  0  0  0  0  0  0  0  0  0  0  0
  134.3780   75.0950  225.4740 C   0  0  0  0  0  0  0  0  0  0  0  0
  133.3750   75.6980  226.7830 Cl  0  0  0  0  0  0  0  0  0  0  0  0
  135.0500   76.0130  224.6580 C   0  0  0  0  0  0  0  0  0  0  0  0
  134.9439   77.0917  224.8456 H   0  0  0  0  0  0  0  0  0  0  0  0
  1  2  1  0
  2  3  1  0
  3  4  2  0
  4  5  1  0
  4  6  1  0
  6  7  1  0
  7  8  2  0
  7  9  1  0
  9 10  2  0
 10 11  1  0
 11 12  2  0
 12 13  1  0
 12 14  1  0
 14 15  1  0
 14 16  2  0
 16 17  1  0
 16 18  1  0
 18 19  1  0
 18 20  2  0
 20 21  1  0
 21 22  1  0
 21 23  2  0
 23 24  1  0
  3 25  1  0
 25 26  1  0
 26 27  1  0
 26 28  1  0
 26 29  1  0
 29 30  1  0
 29 31  1  0
 29 32  1  0
 32 33  1  0
 32 34  1  0
 32 35  1  0
 35 36  1  1
 35 37  1  0
 37 38  2  0
 37 39  1  0
 39 40  1  0
 39 41  1  0
 41 42  1  0
 41 43  1  0
 41 44  1  0
 44 45  2  0
 45 46  1  0
 45 47  1  0
 47 48  1  0
 47 49  2  0
 49 50  1  0
 49 51  1  0
 51 52  1  0
 51 53  2  0
 53 54  1  0
 23  9  1  0
 35 25  1  0
 53 44  1  0
 20 11  1  0
M  CHG  1   6  -1
M  END
>  <UniqueID>  (21) 
158

>  <SMILES>  (21) 
O=C([N-]/C=C(\O)N1CCC[C@H]1C(=O)NCc1ccc(Cl)c(Cl)c1)c1ccc2ccccc2n1

>  <Energy>  (21) 
57.40724963464263

>  <Genealogy>  (21) 
O=C([N-]CC(=O)N1CCC[C@H]1C(=O)NCc1ccc(Cl)c(Cl)c1)c1ccc2ccccc2n1 (protonated)
O=C([N-]C=C(O)N1CCC[C@H]1C(=O)NCc1ccc(Cl)c(Cl)c1)c1ccc2ccccc2n1 (tautomer)
O=C([N-]/C=C(\O)N1CCC[C@H]1C(=O)NCc1ccc(Cl)c(Cl)c1)c1ccc2ccccc2n1 (cis-trans isomerization)
O=C([N-]/C=C(\O)N1CCC[C@H]1C(=O)NCc1ccc(Cl)c(Cl)c1)c1ccc2ccccc2n1 (3D coordinates assigned)
O=C([N-]/C=C(\O)N1CCC[C@H]1C(=O)NCc1ccc(Cl)c(Cl)c1)c1ccc2ccccc2n1 (nonaromatic ring conformer: 57.40724963464263 kcal/mol)

>  <smiles>  (21) 
O=C(NCC(=O)N1CCC[C@H]1C(=O)NCc1ccc(Cl)c(Cl)c1)c1ccc2ccccc2n1

>  <score_type>  (21) 
oracle

>  <origin>  (21) 
autodockgpu

>  <m_score__min__energy>  (21) 
-8.7400000000000002

>  <m_primary>  (21) 
energy

>  <meeko>  (21) 
{"free_energy": -8.73, "intermolecular_energy": -11.42, "internal_energy": -3.35, "cluster_size": 5, "cluster_id": 1, "rank_in_cluster": 2}

>  <energy>  (21) 
-8.74

>  <cluster_rmsd>  (21) 
0.0

>  <rmsd>  (21) 
271.1

>  <cluster>  (21) 
1

$$$$
NTBKPXNOUBMHTF-CKGUNICPNA-M
     RDKit          3D

 54 57  0  0  0  0  0  0  0  0999 V2000
  139.1990   74.1040  222.8450 H   0  0  0  0  0  0  0  0  0  0  0  0
  139.9990   73.7680  222.3210 O   0  0  0  0  0  0  0  0  0  0  0  0
  140.2350   74.2050  221.0190 C   0  0  0  0  0  0  0  0  0  0  0  0
  139.2380   74.7120  220.2970 C   0  0  0  0  0  0  0  0  0  0  0  0
  138.8625   74.1669  219.4184 H   0  0  0  0  0  0  0  0  0  0  0  0
  138.6550   75.9660  220.6640 N   0  0  0  0  0  0  0  0  0  0  0  0
  138.5470   76.4580  222.0040 C   0  0  0  0  0  0  0  0  0  0  0  0
  137.8370   75.8130  222.8230 O   0  0  0  0  0  0  0  0  0  0  0  0
  139.1860   77.7170  222.4520 C   0  0  0  0  0  0  0  0  0  0  0  0
  140.5360   77.8460  222.3210 N   0  0  0  0  0  0  0  0  0  0  0  0
  141.2080   78.9420  222.7630 C   0  0  0  0  0  0  0  0  0  0  0  0
  142.5940   79.0350  222.5880 C   0  0  0  0  0  0  0  0  0  0  0  0
  143.1434   78.2157  222.1012 H   0  0  0  0  0  0  0  0  0  0  0  0
  143.2790   80.1690  223.0320 C   0  0  0  0  0  0  0  0  0  0  0  0
  144.3675   80.2422  222.8915 H   0  0  0  0  0  0  0  0  0  0  0  0
  142.5840   81.2120  223.6550 C   0  0  0  0  0  0  0  0  0  0  0  0
  143.1288   82.1009  224.0059 H   0  0  0  0  0  0  0  0  0  0  0  0
  141.1990   81.1280  223.8330 C   0  0  0  0  0  0  0  0  0  0  0  0
  140.6559   81.9499  224.3223 H   0  0  0  0  0  0  0  0  0  0  0  0
  140.5040   79.9950  223.3870 C   0  0  0  0  0  0  0  0  0  0  0  0
  139.1200   79.8820  223.5440 C   0  0  0  0  0  0  0  0  0  0  0  0
  138.5519   80.6929  224.0232 H   0  0  0  0  0  0  0  0  0  0  0  0
  138.4600   78.7390  223.0920 C   0  0  0  0  0  0  0  0  0  0  0  0
  137.3742   78.6367  223.2355 H   0  0  0  0  0  0  0  0  0  0  0  0
  141.5470   74.0850  220.4570 N   0  0  0  0  0  0  0  0  0  0  0  0
  142.0850   72.8010  220.0420 C   0  0  0  0  0  0  0  0  0  0  0  0
  141.9389   72.0504  220.8327 H   0  0  0  0  0  0  0  0  0  0  0  0
  141.5815   72.4223  219.1403 H   0  0  0  0  0  0  0  0  0  0  0  0
  143.5700   73.0350  219.8000 C   0  0  0  0  0  0  0  0  0  0  0  0
  144.1619   72.2221  220.2461 H   0  0  0  0  0  0  0  0  0  0  0  0
  143.8024   73.0584  218.7251 H   0  0  0  0  0  0  0  0  0  0  0  0
  143.9060   74.3640  220.4710 C   0  0  0  0  0  0  0  0  0  0  0  0
  144.3854   74.1891  221.4455 H   0  0  0  0  0  0  0  0  0  0  0  0
  144.6065   74.9552  219.8629 H   0  0  0  0  0  0  0  0  0  0  0  0
  142.5730   75.0950  220.6580 C   0  0  1  0  0  0  0  0  0  0  0  0
  142.5129   75.5580  221.6540 H   0  0  0  0  0  0  0  0  0  0  0  0
  142.4090   76.2160  219.6680 C   0  0  0  0  0  0  0  0  0  0  0  0
  143.3240   76.4370  218.8300 O   0  0  0  0  0  0  0  0  0  0  0  0
  141.2180   77.0150  219.6590 N   0  0  0  0  0  0  0  0  0  0  0  0
  140.4880   76.8540  220.3880 H   0  0  0  0  0  0  0  0  0  0  0  0
  140.9570   78.0270  218.6380 C   0  0  0  0  0  0  0  0  0  0  0  0
  141.7909   78.0422  217.9208 H   0  0  0  0  0  0  0  0  0  0  0  0
  140.0187   77.7788  218.1203 H   0  0  0  0  0  0  0  0  0  0  0  0
  140.8220   79.3840  219.2700 C   0  0  0  0  0  0  0  0  0  0  0  0
  141.9460   80.2140  219.3980 C   0  0  0  0  0  0  0  0  0  0  0  0
  142.9248   79.8713  219.0312 H   0  0  0  0  0  0  0  0  0  0  0  0
  141.8270   81.4730  219.9890 C   0  0  0  0  0  0  0  0  0  0  0  0
  142.7164   82.1098  220.1051 H   0  0  0  0  0  0  0  0  0  0  0  0
  140.5820   81.9280  220.4340 C   0  0  0  0  0  0  0  0  0  0  0  0
  140.4730   83.5270  221.1590 Cl  0  0  0  0  0  0  0  0  0  0  0  0
  139.4480   81.1080  220.3010 C   0  0  0  0  0  0  0  0  0  0  0  0
  137.8680   81.6390  220.8530 Cl  0  0  0  0  0  0  0  0  0  0  0  0
  139.5720   79.8400  219.7210 C   0  0  0  0  0  0  0  0  0  0  0  0
  138.6856   79.1969  219.6177 H   0  0  0  0  0  0  0  0  0  0  0  0
  1  2  1  0
  2  3  1  0
  3  4  2  0
  4  5  1  0
  4  6  1  0
  6  7  1  0
  7  8  2  0
  7  9  1  0
  9 10  2  0
 10 11  1  0
 11 12  2  0
 12 13  1  0
 12 14  1  0
 14 15  1  0
 14 16  2  0
 16 17  1  0
 16 18  1  0
 18 19  1  0
 18 20  2  0
 20 21  1  0
 21 22  1  0
 21 23  2  0
 23 24  1  0
  3 25  1  0
 25 26  1  0
 26 27  1  0
 26 28  1  0
 26 29  1  0
 29 30  1  0
 29 31  1  0
 29 32  1  0
 32 33  1  0
 32 34  1  0
 32 35  1  0
 35 36  1  1
 35 37  1  0
 37 38  2  0
 37 39  1  0
 39 40  1  0
 39 41  1  0
 41 42  1  0
 41 43  1  0
 41 44  1  0
 44 45  2  0
 45 46  1  0
 45 47  1  0
 47 48  1  0
 47 49  2  0
 49 50  1  0
 49 51  1  0
 51 52  1  0
 51 53  2  0
 53 54  1  0
 23  9  1  0
 35 25  1  0
 53 44  1  0
 20 11  1  0
M  CHG  1   6  -1
M  END
>  <UniqueID>  (22) 
158

>  <SMILES>  (22) 
O=C([N-]/C=C(\O)N1CCC[C@H]1C(=O)NCc1ccc(Cl)c(Cl)c1)c1ccc2ccccc2n1

>  <Energy>  (22) 
57.40724963464263

>  <Genealogy>  (22) 
O=C([N-]CC(=O)N1CCC[C@H]1C(=O)NCc1ccc(Cl)c(Cl)c1)c1ccc2ccccc2n1 (protonated)
O=C([N-]C=C(O)N1CCC[C@H]1C(=O)NCc1ccc(Cl)c(Cl)c1)c1ccc2ccccc2n1 (tautomer)
O=C([N-]/C=C(\O)N1CCC[C@H]1C(=O)NCc1ccc(Cl)c(Cl)c1)c1ccc2ccccc2n1 (cis-trans isomerization)
O=C([N-]/C=C(\O)N1CCC[C@H]1C(=O)NCc1ccc(Cl)c(Cl)c1)c1ccc2ccccc2n1 (3D coordinates assigned)
O=C([N-]/C=C(\O)N1CCC[C@H]1C(=O)NCc1ccc(Cl)c(Cl)c1)c1ccc2ccccc2n1 (nonaromatic ring conformer: 57.40724963464263 kcal/mol)

>  <smiles>  (22) 
O=C(NCC(=O)N1CCC[C@H]1C(=O)NCc1ccc(Cl)c(Cl)c1)c1ccc2ccccc2n1

>  <score_type>  (22) 
oracle

>  <origin>  (22) 
autodockgpu

>  <m_score__min__energy>  (22) 
-8.7400000000000002

>  <m_primary>  (22) 
energy

>  <meeko>  (22) 
{"free_energy": -6.37, "intermolecular_energy": -9.05, "internal_energy": -6.15, "cluster_size": 12, "cluster_id": 5, "rank_in_cluster": 6}

>  <energy>  (22) 
-8.73

>  <cluster_rmsd>  (22) 
0.22

>  <rmsd>  (22) 
271.14

>  <cluster>  (22) 
1

$$$$
NTBKPXNOUBMHTF-CKGUNICPNA-M
     RDKit          3D

 54 57  0  0  0  0  0  0  0  0999 V2000
  139.6080   73.0770  223.1010 H   0  0  0  0  0  0  0  0  0  0  0  0
  139.5700   74.0020  222.6890 O   0  0  0  0  0  0  0  0  0  0  0  0
  140.4680   74.3790  221.6940 C   0  0  0  0  0  0  0  0  0  0  0  0
  141.1760   73.4530  221.0510 C   0  0  0  0  0  0  0  0  0  0  0  0
  141.6955   73.7086  220.1157 H   0  0  0  0  0  0  0  0  0  0  0  0
  141.2610   72.1250  221.5770 N   0  0  0  0  0  0  0  0  0  0  0  0
  140.1380   71.3250  221.9660 C   0  0  0  0  0  0  0  0  0  0  0  0
  139.2670   71.0530  221.0960 O   0  0  0  0  0  0  0  0  0  0  0  0
  139.9300   70.8550  223.3560 C   0  0  0  0  0  0  0  0  0  0  0  0
  140.5140   71.5480  224.3730 N   0  0  0  0  0  0  0  0  0  0  0  0
  140.4250   71.1490  225.6690 C   0  0  0  0  0  0  0  0  0  0  0  0
  141.0260   71.9060  226.6820 C   0  0  0  0  0  0  0  0  0  0  0  0
  141.5806   72.8217  226.4291 H   0  0  0  0  0  0  0  0  0  0  0  0
  140.9210   71.4980  228.0140 C   0  0  0  0  0  0  0  0  0  0  0  0
  141.3921   72.0951  228.8087 H   0  0  0  0  0  0  0  0  0  0  0  0
  140.2190   70.3330  228.3410 C   0  0  0  0  0  0  0  0  0  0  0  0
  140.1434   70.0152  229.3914 H   0  0  0  0  0  0  0  0  0  0  0  0
  139.6130   69.5710  227.3370 C   0  0  0  0  0  0  0  0  0  0  0  0
  139.0601   68.6565  227.5979 H   0  0  0  0  0  0  0  0  0  0  0  0
  139.7110   69.9740  225.9970 C   0  0  0  0  0  0  0  0  0  0  0  0
  139.1140   69.2390  224.9700 C   0  0  0  0  0  0  0  0  0  0  0  0
  138.5509   68.3234  225.2035 H   0  0  0  0  0  0  0  0  0  0  0  0
  139.2330   69.6680  223.6470 C   0  0  0  0  0  0  0  0  0  0  0  0
  138.7829   69.0794  222.8340 H   0  0  0  0  0  0  0  0  0  0  0  0
  140.6400   75.7660  221.3820 N   0  0  0  0  0  0  0  0  0  0  0  0
  141.4750   76.2020  220.2760 C   0  0  0  0  0  0  0  0  0  0  0  0
  142.4505   75.6948  220.3089 H   0  0  0  0  0  0  0  0  0  0  0  0
  141.0190   75.9623  219.3041 H   0  0  0  0  0  0  0  0  0  0  0  0
  141.6510   77.7040  220.4590 C   0  0  0  0  0  0  0  0  0  0  0  0
  142.7020   77.9872  220.2999 H   0  0  0  0  0  0  0  0  0  0  0  0
  141.0458   78.2700  219.7356 H   0  0  0  0  0  0  0  0  0  0  0  0
  141.2320   78.0090  221.8950 C   0  0  0  0  0  0  0  0  0  0  0  0
  142.1188   78.1156  222.5370 H   0  0  0  0  0  0  0  0  0  0  0  0
  140.6677   78.9511  221.9576 H   0  0  0  0  0  0  0  0  0  0  0  0
  140.3850   76.8180  222.3520 C   0  0  1  0  0  0  0  0  0  0  0  0
  140.6518   76.5145  223.3751 H   0  0  0  0  0  0  0  0  0  0  0  0
  138.9190   77.1570  222.3890 C   0  0  0  0  0  0  0  0  0  0  0  0
  138.5470   78.3160  222.0630 O   0  0  0  0  0  0  0  0  0  0  0  0
  137.9500   76.1720  222.7700 N   0  0  0  0  0  0  0  0  0  0  0  0
  138.2740   75.2300  223.0850 H   0  0  0  0  0  0  0  0  0  0  0  0
  136.5120   76.4140  222.6970 C   0  0  0  0  0  0  0  0  0  0  0  0
  136.3046   77.4558  222.9828 H   0  0  0  0  0  0  0  0  0  0  0  0
  136.1705   76.2299  221.6677 H   0  0  0  0  0  0  0  0  0  0  0  0
  135.7780   75.4890  223.6280 C   0  0  0  0  0  0  0  0  0  0  0  0
  135.8600   74.1000  223.4460 C   0  0  0  0  0  0  0  0  0  0  0  0
  136.4654   73.6895  222.6244 H   0  0  0  0  0  0  0  0  0  0  0  0
  135.1760   73.2380  224.3040 C   0  0  0  0  0  0  0  0  0  0  0  0
  135.2261   72.1511  224.1420 H   0  0  0  0  0  0  0  0  0  0  0  0
  134.4270   73.7490  225.3690 C   0  0  0  0  0  0  0  0  0  0  0  0
  133.5930   72.6260  226.4350 Cl  0  0  0  0  0  0  0  0  0  0  0  0
  134.3480   75.1390  225.5650 C   0  0  0  0  0  0  0  0  0  0  0  0
  133.4110   75.8210  226.8840 Cl  0  0  0  0  0  0  0  0  0  0  0  0
  135.0210   76.0030  224.6940 C   0  0  0  0  0  0  0  0  0  0  0  0
  134.9569   77.0907  224.8448 H   0  0  0  0  0  0  0  0  0  0  0  0
  1  2  1  0
  2  3  1  0
  3  4  2  0
  4  5  1  0
  4  6  1  0
  6  7  1  0
  7  8  2  0
  7  9  1  0
  9 10  2  0
 10 11  1  0
 11 12  2  0
 12 13  1  0
 12 14  1  0
 14 15  1  0
 14 16  2  0
 16 17  1  0
 16 18  1  0
 18 19  1  0
 18 20  2  0
 20 21  1  0
 21 22  1  0
 21 23  2  0
 23 24  1  0
  3 25  1  0
 25 26  1  0
 26 27  1  0
 26 28  1  0
 26 29  1  0
 29 30  1  0
 29 31  1  0
 29 32  1  0
 32 33  1  0
 32 34  1  0
 32 35  1  0
 35 36  1  1
 35 37  1  0
 37 38  2  0
 37 39  1  0
 39 40  1  0
 39 41  1  0
 41 42  1  0
 41 43  1  0
 41 44  1  0
 44 45  2  0
 45 46  1  0
 45 47  1  0
 47 48  1  0
 47 49  2  0
 49 50  1  0
 49 51  1  0
 51 52  1  0
 51 53  2  0
 53 54  1  0
 23  9  1  0
 35 25  1  0
 53 44  1  0
 20 11  1  0
M  CHG  1   6  -1
M  END
>  <UniqueID>  (23) 
158

>  <SMILES>  (23) 
O=C([N-]/C=C(\O)N1CCC[C@H]1C(=O)NCc1ccc(Cl)c(Cl)c1)c1ccc2ccccc2n1

>  <Energy>  (23) 
57.40724963464263

>  <Genealogy>  (23) 
O=C([N-]CC(=O)N1CCC[C@H]1C(=O)NCc1ccc(Cl)c(Cl)c1)c1ccc2ccccc2n1 (protonated)
O=C([N-]C=C(O)N1CCC[C@H]1C(=O)NCc1ccc(Cl)c(Cl)c1)c1ccc2ccccc2n1 (tautomer)
O=C([N-]/C=C(\O)N1CCC[C@H]1C(=O)NCc1ccc(Cl)c(Cl)c1)c1ccc2ccccc2n1 (cis-trans isomerization)
O=C([N-]/C=C(\O)N1CCC[C@H]1C(=O)NCc1ccc(Cl)c(Cl)c1)c1ccc2ccccc2n1 (3D coordinates assigned)
O=C([N-]/C=C(\O)N1CCC[C@H]1C(=O)NCc1ccc(Cl)c(Cl)c1)c1ccc2ccccc2n1 (nonaromatic ring conformer: 57.40724963464263 kcal/mol)

>  <smiles>  (23) 
O=C(NCC(=O)N1CCC[C@H]1C(=O)NCc1ccc(Cl)c(Cl)c1)c1ccc2ccccc2n1

>  <score_type>  (23) 
oracle

>  <origin>  (23) 
autodockgpu

>  <m_score__min__energy>  (23) 
-8.7400000000000002

>  <m_primary>  (23) 
energy

>  <meeko>  (23) 
{"free_energy": -8.74, "intermolecular_energy": -11.43, "internal_energy": -3.4, "cluster_size": 5, "cluster_id": 1, "rank_in_cluster": 1}

>  <energy>  (23) 
-8.41

>  <cluster_rmsd>  (23) 
0.64

>  <rmsd>  (23) 
271.07

>  <cluster>  (23) 
1

$$$$
NTBKPXNOUBMHTF-CKGUNICPNA-M
     RDKit          3D

 54 57  0  0  0  0  0  0  0  0999 V2000
  139.6190   73.1450  223.1030 H   0  0  0  0  0  0  0  0  0  0  0  0
  139.5620   74.0680  222.6870 O   0  0  0  0  0  0  0  0  0  0  0  0
  140.4230   74.4430  221.6590 C   0  0  0  0  0  0  0  0  0  0  0  0
  141.1300   73.5180  221.0130 C   0  0  0  0  0  0  0  0  0  0  0  0
  141.6357   73.7716  220.0696 H   0  0  0  0  0  0  0  0  0  0  0  0
  141.2320   72.1940  221.5460 N   0  0  0  0  0  0  0  0  0  0  0  0
  140.1210   71.3880  221.9540 C   0  0  0  0  0  0  0  0  0  0  0  0
  139.2410   71.1040  221.0960 O   0  0  0  0  0  0  0  0  0  0  0  0
  139.9340   70.9230  223.3480 C   0  0  0  0  0  0  0  0  0  0  0  0
  140.5230   71.6280  224.3540 N   0  0  0  0  0  0  0  0  0  0  0  0
  140.4530   71.2360  225.6540 C   0  0  0  0  0  0  0  0  0  0  0  0
  141.0590   72.0050  226.6550 C   0  0  0  0  0  0  0  0  0  0  0  0
  141.6020   72.9241  226.3895 H   0  0  0  0  0  0  0  0  0  0  0  0
  140.9740   71.6050  227.9910 C   0  0  0  0  0  0  0  0  0  0  0  0
  141.4484   72.2115  228.7766 H   0  0  0  0  0  0  0  0  0  0  0  0
  140.2870   70.4350  228.3320 C   0  0  0  0  0  0  0  0  0  0  0  0
  140.2262   70.1230  229.3851 H   0  0  0  0  0  0  0  0  0  0  0  0
  139.6770   69.6600  227.3400 C   0  0  0  0  0  0  0  0  0  0  0  0
  139.1364   68.7417  227.6128 H   0  0  0  0  0  0  0  0  0  0  0  0
  139.7560   70.0560  225.9970 C   0  0  0  0  0  0  0  0  0  0  0  0
  139.1530   69.3090  224.9820 C   0  0  0  0  0  0  0  0  0  0  0  0
  138.6005   68.3901  225.2279 H   0  0  0  0  0  0  0  0  0  0  0  0
  139.2530   69.7310  223.6550 C   0  0  0  0  0  0  0  0  0  0  0  0
  138.8001   69.1325  222.8509 H   0  0  0  0  0  0  0  0  0  0  0  0
  140.5610   75.8270  221.3170 N   0  0  0  0  0  0  0  0  0  0  0  0
  141.2890   76.2520  220.1350 C   0  0  0  0  0  0  0  0  0  0  0  0
  142.2654   75.7480  220.0841 H   0  0  0  0  0  0  0  0  0  0  0  0
  140.7469   75.9995  219.2118 H   0  0  0  0  0  0  0  0  0  0  0  0
  141.4750   77.7560  220.2840 C   0  0  0  0  0  0  0  0  0  0  0  0
  142.5059   78.0403  220.0261 H   0  0  0  0  0  0  0  0  0  0  0  0
  140.8037   78.3116  219.6127 H   0  0  0  0  0  0  0  0  0  0  0  0
  141.1880   78.0770  221.7490 C   0  0  0  0  0  0  0  0  0  0  0  0
  142.1295   78.1947  222.3056 H   0  0  0  0  0  0  0  0  0  0  0  0
  140.6273   79.0177  221.8520 H   0  0  0  0  0  0  0  0  0  0  0  0
  140.3920   76.8880  222.2960 C   0  0  1  0  0  0  0  0  0  0  0  0
  140.7527   76.5955  223.2932 H   0  0  0  0  0  0  0  0  0  0  0  0
  138.9350   77.2240  222.4640 C   0  0  0  0  0  0  0  0  0  0  0  0
  138.5420   78.3970  222.2270 O   0  0  0  0  0  0  0  0  0  0  0  0
  137.9950   76.2190  222.8680 N   0  0  0  0  0  0  0  0  0  0  0  0
  138.3400   75.2620  223.1080 H   0  0  0  0  0  0  0  0  0  0  0  0
  136.5560   76.4630  222.9190 C   0  0  0  0  0  0  0  0  0  0  0  0
  136.3713   77.4534  223.3605 H   0  0  0  0  0  0  0  0  0  0  0  0
  136.1500   76.4242  221.8974 H   0  0  0  0  0  0  0  0  0  0  0  0
  135.8780   75.4130  223.7550 C   0  0  0  0  0  0  0  0  0  0  0  0
  135.0700   75.7930  224.8380 C   0  0  0  0  0  0  0  0  0  0  0  0
  134.9312   76.8591  225.0705 H   0  0  0  0  0  0  0  0  0  0  0  0
  134.4420   74.8230  225.6210 C   0  0  0  0  0  0  0  0  0  0  0  0
  133.8281   75.1271  226.4816 H   0  0  0  0  0  0  0  0  0  0  0  0
  134.5900   73.4660  225.3160 C   0  0  0  0  0  0  0  0  0  0  0  0
  133.7700   72.2770  226.3190 Cl  0  0  0  0  0  0  0  0  0  0  0  0
  135.3900   73.0770  224.2270 C   0  0  0  0  0  0  0  0  0  0  0  0
  135.6080   71.3840  223.8160 Cl  0  0  0  0  0  0  0  0  0  0  0  0
  136.0310   74.0500  223.4520 C   0  0  0  0  0  0  0  0  0  0  0  0
  136.6580   73.7458  222.6009 H   0  0  0  0  0  0  0  0  0  0  0  0
  1  2  1  0
  2  3  1  0
  3  4  2  0
  4  5  1  0
  4  6  1  0
  6  7  1  0
  7  8  2  0
  7  9  1  0
  9 10  2  0
 10 11  1  0
 11 12  2  0
 12 13  1  0
 12 14  1  0
 14 15  1  0
 14 16  2  0
 16 17  1  0
 16 18  1  0
 18 19  1  0
 18 20  2  0
 20 21  1  0
 21 22  1  0
 21 23  2  0
 23 24  1  0
  3 25  1  0
 25 26  1  0
 26 27  1  0
 26 28  1  0
 26 29  1  0
 29 30  1  0
 29 31  1  0
 29 32  1  0
 32 33  1  0
 32 34  1  0
 32 35  1  0
 35 36  1  1
 35 37  1  0
 37 38  2  0
 37 39  1  0
 39 40  1  0
 39 41  1  0
 41 42  1  0
 41 43  1  0
 41 44  1  0
 44 45  2  0
 45 46  1  0
 45 47  1  0
 47 48  1  0
 47 49  2  0
 49 50  1  0
 49 51  1  0
 51 52  1  0
 51 53  2  0
 53 54  1  0
 23  9  1  0
 35 25  1  0
 53 44  1  0
 20 11  1  0
M  CHG  1   6  -1
M  END
>  <UniqueID>  (24) 
158

>  <SMILES>  (24) 
O=C([N-]/C=C(\O)N1CCC[C@H]1C(=O)NCc1ccc(Cl)c(Cl)c1)c1ccc2ccccc2n1

>  <Energy>  (24) 
57.40724963464263

>  <Genealogy>  (24) 
O=C([N-]CC(=O)N1CCC[C@H]1C(=O)NCc1ccc(Cl)c(Cl)c1)c1ccc2ccccc2n1 (protonated)
O=C([N-]C=C(O)N1CCC[C@H]1C(=O)NCc1ccc(Cl)c(Cl)c1)c1ccc2ccccc2n1 (tautomer)
O=C([N-]/C=C(\O)N1CCC[C@H]1C(=O)NCc1ccc(Cl)c(Cl)c1)c1ccc2ccccc2n1 (cis-trans isomerization)
O=C([N-]/C=C(\O)N1CCC[C@H]1C(=O)NCc1ccc(Cl)c(Cl)c1)c1ccc2ccccc2n1 (3D coordinates assigned)
O=C([N-]/C=C(\O)N1CCC[C@H]1C(=O)NCc1ccc(Cl)c(Cl)c1)c1ccc2ccccc2n1 (nonaromatic ring conformer: 57.40724963464263 kcal/mol)

>  <smiles>  (24) 
O=C(NCC(=O)N1CCC[C@H]1C(=O)NCc1ccc(Cl)c(Cl)c1)c1ccc2ccccc2n1

>  <score_type>  (24) 
oracle

>  <origin>  (24) 
autodockgpu

>  <m_score__min__energy>  (24) 
-8.7400000000000002

>  <m_primary>  (24) 
energy

>  <meeko>  (24) 
{"free_energy": -8.36, "intermolecular_energy": -11.04, "internal_energy": -3.74, "cluster_size": 5, "cluster_id": 1, "rank_in_cluster": 4}

>  <energy>  (24) 
-8.36

>  <cluster_rmsd>  (24) 
0.62

>  <rmsd>  (24) 
271.04

>  <cluster>  (24) 
1

$$$$
NTBKPXNOUBMHTF-CKGUNICPNA-M
     RDKit          3D

 54 57  0  0  0  0  0  0  0  0999 V2000
  139.4910   73.3430  219.5330 H   0  0  0  0  0  0  0  0  0  0  0  0
  140.3410   72.7960  219.6070 O   0  0  0  0  0  0  0  0  0  0  0  0
  141.2440   73.0160  220.6450 C   0  0  0  0  0  0  0  0  0  0  0  0
  140.8100   73.0760  221.9020 C   0  0  0  0  0  0  0  0  0  0  0  0
  141.0631   72.2733  222.6102 H   0  0  0  0  0  0  0  0  0  0  0  0
  140.0140   74.1850  222.3320 N   0  0  0  0  0  0  0  0  0  0  0  0
  139.7700   75.3650  221.5590 C   0  0  0  0  0  0  0  0  0  0  0  0
  139.4960   75.2330  220.3350 O   0  0  0  0  0  0  0  0  0  0  0  0
  139.8800   76.7320  222.1210 C   0  0  0  0  0  0  0  0  0  0  0  0
  141.1020   77.3330  222.1380 N   0  0  0  0  0  0  0  0  0  0  0  0
  141.3010   78.5580  222.6920 C   0  0  0  0  0  0  0  0  0  0  0  0
  142.5740   79.1430  222.6670 C   0  0  0  0  0  0  0  0  0  0  0  0
  143.4173   78.6070  222.2071 H   0  0  0  0  0  0  0  0  0  0  0  0
  142.7710   80.4080  223.2270 C   0  0  0  0  0  0  0  0  0  0  0  0
  143.7704   80.8671  223.2055 H   0  0  0  0  0  0  0  0  0  0  0  0
  141.7020   81.0930  223.8150 C   0  0  0  0  0  0  0  0  0  0  0  0
  141.8647   82.0872  224.2568 H   0  0  0  0  0  0  0  0  0  0  0  0
  140.4270   80.5180  223.8430 C   0  0  0  0  0  0  0  0  0  0  0  0
  139.5883   81.0596  224.3047 H   0  0  0  0  0  0  0  0  0  0  0  0
  140.2200   79.2490  223.2810 C   0  0  0  0  0  0  0  0  0  0  0  0
  138.9580   78.6490  223.2870 C   0  0  0  0  0  0  0  0  0  0  0  0
  138.1010   79.1724  223.7360 H   0  0  0  0  0  0  0  0  0  0  0  0
  138.7870   77.3840  222.7220 C   0  0  0  0  0  0  0  0  0  0  0  0
  137.8005   76.8980  222.7464 H   0  0  0  0  0  0  0  0  0  0  0  0
  142.6340   73.1970  220.3500 N   0  0  0  0  0  0  0  0  0  0  0  0
  143.4950   72.0770  220.0170 C   0  0  0  0  0  0  0  0  0  0  0  0
  143.3625   71.2621  220.7439 H   0  0  0  0  0  0  0  0  0  0  0  0
  143.2601   71.6655  219.0243 H   0  0  0  0  0  0  0  0  0  0  0  0
  144.9180   72.6180  220.0790 C   0  0  0  0  0  0  0  0  0  0  0  0
  145.5718   71.9117  220.6116 H   0  0  0  0  0  0  0  0  0  0  0  0
  145.3382   72.7584  219.0722 H   0  0  0  0  0  0  0  0  0  0  0  0
  144.8370   73.9400  220.8380 C   0  0  0  0  0  0  0  0  0  0  0  0
  145.1492   73.7999  221.8834 H   0  0  0  0  0  0  0  0  0  0  0  0
  145.5011   74.6981  220.3973 H   0  0  0  0  0  0  0  0  0  0  0  0
  143.3700   74.3760  220.7750 C   0  0  1  0  0  0  0  0  0  0  0  0
  143.0278   74.7515  221.7506 H   0  0  0  0  0  0  0  0  0  0  0  0
  143.1650   75.5050  219.8010 C   0  0  0  0  0  0  0  0  0  0  0  0
  144.0480   76.3970  219.6980 O   0  0  0  0  0  0  0  0  0  0  0  0
  141.9890   75.5590  218.9820 N   0  0  0  0  0  0  0  0  0  0  0  0
  141.2420   74.8410  219.1110 H   0  0  0  0  0  0  0  0  0  0  0  0
  141.8070   76.5600  217.9340 C   0  0  0  0  0  0  0  0  0  0  0  0
  142.7292   76.6342  217.3390 H   0  0  0  0  0  0  0  0  0  0  0  0
  140.9673   76.2567  217.2914 H   0  0  0  0  0  0  0  0  0  0  0  0
  141.4990   77.9010  218.5410 C   0  0  0  0  0  0  0  0  0  0  0  0
  142.4990   78.8830  218.6160 C   0  0  0  0  0  0  0  0  0  0  0  0
  143.5058   78.6711  218.2268 H   0  0  0  0  0  0  0  0  0  0  0  0
  142.2200   80.1280  219.1830 C   0  0  0  0  0  0  0  0  0  0  0  0
  143.0140   80.8856  219.2587 H   0  0  0  0  0  0  0  0  0  0  0  0
  140.9360   80.4160  219.6550 C   0  0  0  0  0  0  0  0  0  0  0  0
  140.6230   82.0020  220.3490 Cl  0  0  0  0  0  0  0  0  0  0  0  0
  139.9250   79.4420  219.5750 C   0  0  0  0  0  0  0  0  0  0  0  0
  138.3020   79.7610  220.1640 Cl  0  0  0  0  0  0  0  0  0  0  0  0
  140.2100   78.1890  219.0200 C   0  0  0  0  0  0  0  0  0  0  0  0
  139.4204   77.4256  218.9586 H   0  0  0  0  0  0  0  0  0  0  0  0
  1  2  1  0
  2  3  1  0
  3  4  2  0
  4  5  1  0
  4  6  1  0
  6  7  1  0
  7  8  2  0
  7  9  1  0
  9 10  2  0
 10 11  1  0
 11 12  2  0
 12 13  1  0
 12 14  1  0
 14 15  1  0
 14 16  2  0
 16 17  1  0
 16 18  1  0
 18 19  1  0
 18 20  2  0
 20 21  1  0
 21 22  1  0
 21 23  2  0
 23 24  1  0
  3 25  1  0
 25 26  1  0
 26 27  1  0
 26 28  1  0
 26 29  1  0
 29 30  1  0
 29 31  1  0
 29 32  1  0
 32 33  1  0
 32 34  1  0
 32 35  1  0
 35 36  1  1
 35 37  1  0
 37 38  2  0
 37 39  1  0
 39 40  1  0
 39 41  1  0
 41 42  1  0
 41 43  1  0
 41 44  1  0
 44 45  2  0
 45 46  1  0
 45 47  1  0
 47 48  1  0
 47 49  2  0
 49 50  1  0
 49 51  1  0
 51 52  1  0
 51 53  2  0
 53 54  1  0
 23  9  1  0
 35 25  1  0
 53 44  1  0
 20 11  1  0
M  CHG  1   6  -1
M  END
>  <UniqueID>  (25) 
158

>  <SMILES>  (25) 
O=C([N-]/C=C(\O)N1CCC[C@H]1C(=O)NCc1ccc(Cl)c(Cl)c1)c1ccc2ccccc2n1

>  <Energy>  (25) 
57.40724963464263

>  <Genealogy>  (25) 
O=C([N-]CC(=O)N1CCC[C@H]1C(=O)NCc1ccc(Cl)c(Cl)c1)c1ccc2ccccc2n1 (protonated)
O=C([N-]C=C(O)N1CCC[C@H]1C(=O)NCc1ccc(Cl)c(Cl)c1)c1ccc2ccccc2n1 (tautomer)
O=C([N-]/C=C(\O)N1CCC[C@H]1C(=O)NCc1ccc(Cl)c(Cl)c1)c1ccc2ccccc2n1 (cis-trans isomerization)
O=C([N-]/C=C(\O)N1CCC[C@H]1C(=O)NCc1ccc(Cl)c(Cl)c1)c1ccc2ccccc2n1 (3D coordinates assigned)
O=C([N-]/C=C(\O)N1CCC[C@H]1C(=O)NCc1ccc(Cl)c(Cl)c1)c1ccc2ccccc2n1 (nonaromatic ring conformer: 57.40724963464263 kcal/mol)

>  <smiles>  (25) 
O=C(NCC(=O)N1CCC[C@H]1C(=O)NCc1ccc(Cl)c(Cl)c1)c1ccc2ccccc2n1

>  <score_type>  (25) 
oracle

>  <origin>  (25) 
autodockgpu

>  <m_score__min__energy>  (25) 
-8.7400000000000002

>  <m_primary>  (25) 
energy

>  <meeko>  (25) 
{"free_energy": -6.14, "intermolecular_energy": -8.83, "internal_energy": -6.0, "cluster_size": 12, "cluster_id": 5, "rank_in_cluster": 9}

>  <energy>  (25) 
-7.94

>  <cluster_rmsd>  (25) 
0.92

>  <rmsd>  (25) 
270.76

>  <cluster>  (25) 
1

$$$$
NTBKPXNOUBMHTF-CKGUNICPNA-M
     RDKit          3D

 54 57  0  0  0  0  0  0  0  0999 V2000
  139.0350   74.3120  222.7310 H   0  0  0  0  0  0  0  0  0  0  0  0
  139.8830   73.9700  222.2930 O   0  0  0  0  0  0  0  0  0  0  0  0
  140.1940   74.3090  220.9780 C   0  0  0  0  0  0  0  0  0  0  0  0
  139.2710   74.8710  220.2000 C   0  0  0  0  0  0  0  0  0  0  0  0
  139.0744   74.4633  219.1974 H   0  0  0  0  0  0  0  0  0  0  0  0
  138.5350   76.0050  220.6680 N   0  0  0  0  0  0  0  0  0  0  0  0
  138.5080   76.4600  222.0260 C   0  0  0  0  0  0  0  0  0  0  0  0
  137.8590   75.7830  222.8700 O   0  0  0  0  0  0  0  0  0  0  0  0
  139.1590   77.7150  222.4660 C   0  0  0  0  0  0  0  0  0  0  0  0
  140.5080   77.8360  222.3190 N   0  0  0  0  0  0  0  0  0  0  0  0
  141.1910   78.9280  222.7520 C   0  0  0  0  0  0  0  0  0  0  0  0
  142.5760   79.0140  222.5600 C   0  0  0  0  0  0  0  0  0  0  0  0
  143.1152   78.1925  222.0656 H   0  0  0  0  0  0  0  0  0  0  0  0
  143.2720   80.1440  222.9970 C   0  0  0  0  0  0  0  0  0  0  0  0
  144.3592   80.2114  222.8436 H   0  0  0  0  0  0  0  0  0  0  0  0
  142.5910   81.1900  223.6290 C   0  0  0  0  0  0  0  0  0  0  0  0
  143.1456   82.0751  223.9740 H   0  0  0  0  0  0  0  0  0  0  0  0
  141.2080   81.1150  223.8240 C   0  0  0  0  0  0  0  0  0  0  0  0
  140.6757   81.9402  224.3197 H   0  0  0  0  0  0  0  0  0  0  0  0
  140.5010   79.9850  223.3860 C   0  0  0  0  0  0  0  0  0  0  0  0
  139.1190   79.8800  223.5600 C   0  0  0  0  0  0  0  0  0  0  0  0
  138.5617   80.6939  224.0467 H   0  0  0  0  0  0  0  0  0  0  0  0
  138.4460   78.7400  223.1150 C   0  0  0  0  0  0  0  0  0  0  0  0
  137.3615   78.6436  223.2714 H   0  0  0  0  0  0  0  0  0  0  0  0
  141.5010   74.0290  220.4630 N   0  0  0  0  0  0  0  0  0  0  0  0
  141.8830   72.6950  220.0370 C   0  0  0  0  0  0  0  0  0  0  0  0
  141.6089   71.9546  220.8030 H   0  0  0  0  0  0  0  0  0  0  0  0
  141.3709   72.4033  219.1082 H   0  0  0  0  0  0  0  0  0  0  0  0
  143.3950   72.7370  219.8560 C   0  0  0  0  0  0  0  0  0  0  0  0
  143.8578   71.8448  220.3029 H   0  0  0  0  0  0  0  0  0  0  0  0
  143.6718   72.7512  218.7915 H   0  0  0  0  0  0  0  0  0  0  0  0
  143.8730   73.9970  220.5730 C   0  0  0  0  0  0  0  0  0  0  0  0
  144.2847   73.7412  221.5605 H   0  0  0  0  0  0  0  0  0  0  0  0
  144.6690   74.5034  220.0073 H   0  0  0  0  0  0  0  0  0  0  0  0
  142.6410   74.8920  220.7270 C   0  0  1  0  0  0  0  0  0  0  0  0
  142.6017   75.3397  221.7310 H   0  0  0  0  0  0  0  0  0  0  0  0
  142.6640   76.0440  219.7600 C   0  0  0  0  0  0  0  0  0  0  0  0
  143.6540   76.1840  218.9930 O   0  0  0  0  0  0  0  0  0  0  0  0
  141.5670   76.9650  219.6920 N   0  0  0  0  0  0  0  0  0  0  0  0
  140.7740   76.8670  220.3650 H   0  0  0  0  0  0  0  0  0  0  0  0
  141.4850   78.0190  218.6840 C   0  0  0  0  0  0  0  0  0  0  0  0
  142.4774   78.1684  218.2337 H   0  0  0  0  0  0  0  0  0  0  0  0
  140.7617   77.7196  217.9112 H   0  0  0  0  0  0  0  0  0  0  0  0
  141.0260   79.3060  219.3110 C   0  0  0  0  0  0  0  0  0  0  0  0
  141.9530   80.3240  219.5830 C   0  0  0  0  0  0  0  0  0  0  0  0
  143.0145   80.1803  219.3328 H   0  0  0  0  0  0  0  0  0  0  0  0
  141.5320   81.5180  220.1700 C   0  0  0  0  0  0  0  0  0  0  0  0
  142.2672   82.3027  220.4018 H   0  0  0  0  0  0  0  0  0  0  0  0
  140.1810   81.7220  220.4650 C   0  0  0  0  0  0  0  0  0  0  0  0
  139.6920   83.2480  221.1910 Cl  0  0  0  0  0  0  0  0  0  0  0  0
  139.2440   80.7120  220.1870 C   0  0  0  0  0  0  0  0  0  0  0  0
  137.5390   80.9240  220.5510 Cl  0  0  0  0  0  0  0  0  0  0  0  0
  139.6690   79.5080  219.6130 C   0  0  0  0  0  0  0  0  0  0  0  0
  138.9367   78.7161  219.3974 H   0  0  0  0  0  0  0  0  0  0  0  0
  1  2  1  0
  2  3  1  0
  3  4  2  0
  4  5  1  0
  4  6  1  0
  6  7  1  0
  7  8  2  0
  7  9  1  0
  9 10  2  0
 10 11  1  0
 11 12  2  0
 12 13  1  0
 12 14  1  0
 14 15  1  0
 14 16  2  0
 16 17  1  0
 16 18  1  0
 18 19  1  0
 18 20  2  0
 20 21  1  0
 21 22  1  0
 21 23  2  0
 23 24  1  0
  3 25  1  0
 25 26  1  0
 26 27  1  0
 26 28  1  0
 26 29  1  0
 29 30  1  0
 29 31  1  0
 29 32  1  0
 32 33  1  0
 32 34  1  0
 32 35  1  0
 35 36  1  1
 35 37  1  0
 37 38  2  0
 37 39  1  0
 39 40  1  0
 39 41  1  0
 41 42  1  0
 41 43  1  0
 41 44  1  0
 44 45  2  0
 45 46  1  0
 45 47  1  0
 47 48  1  0
 47 49  2  0
 49 50  1  0
 49 51  1  0
 51 52  1  0
 51 53  2  0
 53 54  1  0
 23  9  1  0
 35 25  1  0
 53 44  1  0
 20 11  1  0
M  CHG  1   6  -1
M  END
>  <UniqueID>  (26) 
158

>  <SMILES>  (26) 
O=C([N-]/C=C(\O)N1CCC[C@H]1C(=O)NCc1ccc(Cl)c(Cl)c1)c1ccc2ccccc2n1

>  <Energy>  (26) 
57.40724963464263

>  <Genealogy>  (26) 
O=C([N-]CC(=O)N1CCC[C@H]1C(=O)NCc1ccc(Cl)c(Cl)c1)c1ccc2ccccc2n1 (protonated)
O=C([N-]C=C(O)N1CCC[C@H]1C(=O)NCc1ccc(Cl)c(Cl)c1)c1ccc2ccccc2n1 (tautomer)
O=C([N-]/C=C(\O)N1CCC[C@H]1C(=O)NCc1ccc(Cl)c(Cl)c1)c1ccc2ccccc2n1 (cis-trans isomerization)
O=C([N-]/C=C(\O)N1CCC[C@H]1C(=O)NCc1ccc(Cl)c(Cl)c1)c1ccc2ccccc2n1 (3D coordinates assigned)
O=C([N-]/C=C(\O)N1CCC[C@H]1C(=O)NCc1ccc(Cl)c(Cl)c1)c1ccc2ccccc2n1 (nonaromatic ring conformer: 57.40724963464263 kcal/mol)

>  <smiles>  (26) 
O=C(NCC(=O)N1CCC[C@H]1C(=O)NCc1ccc(Cl)c(Cl)c1)c1ccc2ccccc2n1

>  <score_type>  (26) 
oracle

>  <origin>  (26) 
autodockgpu

>  <m_score__min__energy>  (26) 
-8.7400000000000002

>  <m_primary>  (26) 
energy

>  <meeko>  (26) 
{"free_energy": -6.34, "intermolecular_energy": -9.02, "internal_energy": -5.92, "cluster_size": 12, "cluster_id": 5, "rank_in_cluster": 7}

>  <energy>  (26) 
-8.63

>  <cluster_rmsd>  (26) 
0.0

>  <rmsd>  (26) 
271.31

>  <cluster>  (26) 
2

$$$$
NTBKPXNOUBMHTF-CKGUNICPNA-M
     RDKit          3D

 54 57  0  0  0  0  0  0  0  0999 V2000
  139.6240   73.1480  223.1110 H   0  0  0  0  0  0  0  0  0  0  0  0
  139.5750   74.0720  222.6970 O   0  0  0  0  0  0  0  0  0  0  0  0
  140.4740   74.4590  221.7060 C   0  0  0  0  0  0  0  0  0  0  0  0
  141.2300   73.5450  221.1010 C   0  0  0  0  0  0  0  0  0  0  0  0
  141.8565   73.8304  220.2431 H   0  0  0  0  0  0  0  0  0  0  0  0
  141.2280   72.1920  221.5660 N   0  0  0  0  0  0  0  0  0  0  0  0
  140.0680   71.4830  222.0160 C   0  0  0  0  0  0  0  0  0  0  0  0
  139.1040   71.3440  221.2140 O   0  0  0  0  0  0  0  0  0  0  0  0
  139.9310   70.9570  223.3940 C   0  0  0  0  0  0  0  0  0  0  0  0
  140.5240   71.6400  224.4140 N   0  0  0  0  0  0  0  0  0  0  0  0
  140.4990   71.1940  225.6980 C   0  0  0  0  0  0  0  0  0  0  0  0
  141.1070   71.9410  226.7140 C   0  0  0  0  0  0  0  0  0  0  0  0
  141.6151   72.8864  226.4731 H   0  0  0  0  0  0  0  0  0  0  0  0
  141.0680   71.4850  228.0340 C   0  0  0  0  0  0  0  0  0  0  0  0
  141.5428   72.0746  228.8320 H   0  0  0  0  0  0  0  0  0  0  0  0
  140.4270   70.2810  228.3440 C   0  0  0  0  0  0  0  0  0  0  0  0
  140.4034   69.9250  229.3845 H   0  0  0  0  0  0  0  0  0  0  0  0
  139.8160   69.5280  227.3360 C   0  0  0  0  0  0  0  0  0  0  0  0
  139.3111   68.5827  227.5839 H   0  0  0  0  0  0  0  0  0  0  0  0
  139.8480   69.9800  226.0090 C   0  0  0  0  0  0  0  0  0  0  0  0
  139.2430   69.2550  224.9790 C   0  0  0  0  0  0  0  0  0  0  0  0
  138.7266   68.3093  225.2005 H   0  0  0  0  0  0  0  0  0  0  0  0
  139.2950   69.7330  223.6680 C   0  0  0  0  0  0  0  0  0  0  0  0
  138.8395   69.1535  222.8515 H   0  0  0  0  0  0  0  0  0  0  0  0
  140.5940   75.8430  221.3570 N   0  0  0  0  0  0  0  0  0  0  0  0
  141.3220   76.2720  220.1770 C   0  0  0  0  0  0  0  0  0  0  0  0
  142.3057   75.7817  220.1340 H   0  0  0  0  0  0  0  0  0  0  0  0
  140.7885   76.0070  219.2523 H   0  0  0  0  0  0  0  0  0  0  0  0
  141.4860   77.7800  220.3190 C   0  0  0  0  0  0  0  0  0  0  0  0
  142.5140   78.0776  220.0648 H   0  0  0  0  0  0  0  0  0  0  0  0
  140.8105   78.3227  219.6414 H   0  0  0  0  0  0  0  0  0  0  0  0
  141.1870   78.1040  221.7810 C   0  0  0  0  0  0  0  0  0  0  0  0
  142.1238   78.2367  222.3421 H   0  0  0  0  0  0  0  0  0  0  0  0
  140.6134   79.0377  221.8769 H   0  0  0  0  0  0  0  0  0  0  0  0
  140.4040   76.9070  222.3290 C   0  0  1  0  0  0  0  0  0  0  0  0
  140.7627   76.6252  223.3300 H   0  0  0  0  0  0  0  0  0  0  0  0
  138.9410   77.2230  222.4870 C   0  0  0  0  0  0  0  0  0  0  0  0
  138.5360   78.3930  222.2550 O   0  0  0  0  0  0  0  0  0  0  0  0
  138.0110   76.2030  222.8760 N   0  0  0  0  0  0  0  0  0  0  0  0
  138.3660   75.2500  223.1120 H   0  0  0  0  0  0  0  0  0  0  0  0
  136.5690   76.4290  222.9160 C   0  0  0  0  0  0  0  0  0  0  0  0
  136.3688   77.4200  223.3494 H   0  0  0  0  0  0  0  0  0  0  0  0
  136.1702   76.3781  221.8921 H   0  0  0  0  0  0  0  0  0  0  0  0
  135.8990   75.3760  223.7550 C   0  0  0  0  0  0  0  0  0  0  0  0
  135.0770   75.7530  224.8290 C   0  0  0  0  0  0  0  0  0  0  0  0
  134.9204   76.8188  225.0516 H   0  0  0  0  0  0  0  0  0  0  0  0
  134.4580   74.7800  225.6150 C   0  0  0  0  0  0  0  0  0  0  0  0
  133.8341   75.0819  226.4692 H   0  0  0  0  0  0  0  0  0  0  0  0
  134.6270   73.4230  225.3220 C   0  0  0  0  0  0  0  0  0  0  0  0
  133.8170   72.2310  226.3290 Cl  0  0  0  0  0  0  0  0  0  0  0  0
  135.4410   73.0370  224.2430 C   0  0  0  0  0  0  0  0  0  0  0  0
  135.6870   71.3440  223.8470 Cl  0  0  0  0  0  0  0  0  0  0  0  0
  136.0740   74.0130  223.4650 C   0  0  0  0  0  0  0  0  0  0  0  0
  136.7122   73.7109  222.6216 H   0  0  0  0  0  0  0  0  0  0  0  0
  1  2  1  0
  2  3  1  0
  3  4  2  0
  4  5  1  0
  4  6  1  0
  6  7  1  0
  7  8  2  0
  7  9  1  0
  9 10  2  0
 10 11  1  0
 11 12  2  0
 12 13  1  0
 12 14  1  0
 14 15  1  0
 14 16  2  0
 16 17  1  0
 16 18  1  0
 18 19  1  0
 18 20  2  0
 20 21  1  0
 21 22  1  0
 21 23  2  0
 23 24  1  0
  3 25  1  0
 25 26  1  0
 26 27  1  0
 26 28  1  0
 26 29  1  0
 29 30  1  0
 29 31  1  0
 29 32  1  0
 32 33  1  0
 32 34  1  0
 32 35  1  0
 35 36  1  1
 35 37  1  0
 37 38  2  0
 37 39  1  0
 39 40  1  0
 39 41  1  0
 41 42  1  0
 41 43  1  0
 41 44  1  0
 44 45  2  0
 45 46  1  0
 45 47  1  0
 47 48  1  0
 47 49  2  0
 49 50  1  0
 49 51  1  0
 51 52  1  0
 51 53  2  0
 53 54  1  0
 23  9  1  0
 35 25  1  0
 53 44  1  0
 20 11  1  0
M  CHG  1   6  -1
M  END
>  <UniqueID>  (27) 
158

>  <SMILES>  (27) 
O=C([N-]/C=C(\O)N1CCC[C@H]1C(=O)NCc1ccc(Cl)c(Cl)c1)c1ccc2ccccc2n1

>  <Energy>  (27) 
57.40724963464263

>  <Genealogy>  (27) 
O=C([N-]CC(=O)N1CCC[C@H]1C(=O)NCc1ccc(Cl)c(Cl)c1)c1ccc2ccccc2n1 (protonated)
O=C([N-]C=C(O)N1CCC[C@H]1C(=O)NCc1ccc(Cl)c(Cl)c1)c1ccc2ccccc2n1 (tautomer)
O=C([N-]/C=C(\O)N1CCC[C@H]1C(=O)NCc1ccc(Cl)c(Cl)c1)c1ccc2ccccc2n1 (cis-trans isomerization)
O=C([N-]/C=C(\O)N1CCC[C@H]1C(=O)NCc1ccc(Cl)c(Cl)c1)c1ccc2ccccc2n1 (3D coordinates assigned)
O=C([N-]/C=C(\O)N1CCC[C@H]1C(=O)NCc1ccc(Cl)c(Cl)c1)c1ccc2ccccc2n1 (nonaromatic ring conformer: 57.40724963464263 kcal/mol)

>  <smiles>  (27) 
O=C(NCC(=O)N1CCC[C@H]1C(=O)NCc1ccc(Cl)c(Cl)c1)c1ccc2ccccc2n1

>  <score_type>  (27) 
oracle

>  <origin>  (27) 
autodockgpu

>  <m_score__min__energy>  (27) 
-8.7400000000000002

>  <m_primary>  (27) 
energy

>  <meeko>  (27) 
{"free_energy": -8.41, "intermolecular_energy": -11.09, "internal_energy": -3.7, "cluster_size": 5, "cluster_id": 1, "rank_in_cluster": 3}

>  <energy>  (27) 
-8.48

>  <cluster_rmsd>  (27) 
0.0

>  <rmsd>  (27) 
271.01

>  <cluster>  (27) 
3

$$$$
NTBKPXNOUBMHTF-CKGUNICPNA-M
     RDKit          3D

 54 57  0  0  0  0  0  0  0  0999 V2000
  139.5100   73.2990  219.5110 H   0  0  0  0  0  0  0  0  0  0  0  0
  140.3840   72.7870  219.5630 O   0  0  0  0  0  0  0  0  0  0  0  0
  141.2770   73.0030  220.6100 C   0  0  0  0  0  0  0  0  0  0  0  0
  140.8350   73.0280  221.8660 C   0  0  0  0  0  0  0  0  0  0  0  0
  141.0451   72.1843  222.5398 H   0  0  0  0  0  0  0  0  0  0  0  0
  140.0870   74.1520  222.3390 N   0  0  0  0  0  0  0  0  0  0  0  0
  139.7720   75.3130  221.5610 C   0  0  0  0  0  0  0  0  0  0  0  0
  139.4330   75.1510  220.3580 O   0  0  0  0  0  0  0  0  0  0  0  0
  139.8830   76.6910  222.0930 C   0  0  0  0  0  0  0  0  0  0  0  0
  141.1100   77.2810  222.1260 N   0  0  0  0  0  0  0  0  0  0  0  0
  141.3080   78.5170  222.6540 C   0  0  0  0  0  0  0  0  0  0  0  0
  142.5870   79.0890  222.6470 C   0  0  0  0  0  0  0  0  0  0  0  0
  143.4361   78.5336  222.2221 H   0  0  0  0  0  0  0  0  0  0  0  0
  142.7830   80.3650  223.1800 C   0  0  0  0  0  0  0  0  0  0  0  0
  143.7871   80.8141  223.1710 H   0  0  0  0  0  0  0  0  0  0  0  0
  141.7080   81.0740  223.7250 C   0  0  0  0  0  0  0  0  0  0  0  0
  141.8702   82.0770  224.1465 H   0  0  0  0  0  0  0  0  0  0  0  0
  140.4270   80.5120  223.7360 C   0  0  0  0  0  0  0  0  0  0  0  0
  139.5832   81.0727  224.1646 H   0  0  0  0  0  0  0  0  0  0  0  0
  140.2200   79.2330  223.2000 C   0  0  0  0  0  0  0  0  0  0  0  0
  138.9520   78.6450  223.1900 C   0  0  0  0  0  0  0  0  0  0  0  0
  138.0898   79.1870  223.6058 H   0  0  0  0  0  0  0  0  0  0  0  0
  138.7820   77.3680  222.6510 C   0  0  0  0  0  0  0  0  0  0  0  0
  137.7903   76.8923  222.6624 H   0  0  0  0  0  0  0  0  0  0  0  0
  142.6640   73.2190  220.3270 N   0  0  0  0  0  0  0  0  0  0  0  0
  143.5570   72.1210  220.0060 C   0  0  0  0  0  0  0  0  0  0  0  0
  143.4393   71.3056  220.7349 H   0  0  0  0  0  0  0  0  0  0  0  0
  143.3416   71.7003  219.0127 H   0  0  0  0  0  0  0  0  0  0  0  0
  144.9640   72.6980  220.0780 C   0  0  0  0  0  0  0  0  0  0  0  0
  145.6310   72.0109  220.6193 H   0  0  0  0  0  0  0  0  0  0  0  0
  145.3896   72.8449  219.0744 H   0  0  0  0  0  0  0  0  0  0  0  0
  144.8420   74.0210  220.8310 C   0  0  0  0  0  0  0  0  0  0  0  0
  145.1486   73.8931  221.8796 H   0  0  0  0  0  0  0  0  0  0  0  0
  145.4900   74.7941  220.3924 H   0  0  0  0  0  0  0  0  0  0  0  0
  143.3660   74.4190  220.7540 C   0  0  1  0  0  0  0  0  0  0  0  0
  143.0062   74.7896  221.7252 H   0  0  0  0  0  0  0  0  0  0  0  0
  143.1400   75.5380  219.7740 C   0  0  0  0  0  0  0  0  0  0  0  0
  144.0210   76.4290  219.6440 O   0  0  0  0  0  0  0  0  0  0  0  0
  141.9470   75.5850  218.9790 N   0  0  0  0  0  0  0  0  0  0  0  0
  141.2030   74.8680  219.1310 H   0  0  0  0  0  0  0  0  0  0  0  0
  141.7420   76.5760  217.9260 C   0  0  0  0  0  0  0  0  0  0  0  0
  142.6497   76.6417  217.3081 H   0  0  0  0  0  0  0  0  0  0  0  0
  140.8860   76.2684  217.3075 H   0  0  0  0  0  0  0  0  0  0  0  0
  141.4520   77.9240  218.5260 C   0  0  0  0  0  0  0  0  0  0  0  0
  142.4650   78.8930  218.5990 C   0  0  0  0  0  0  0  0  0  0  0  0
  143.4696   78.6660  218.2126 H   0  0  0  0  0  0  0  0  0  0  0  0
  142.2020   80.1430  219.1600 C   0  0  0  0  0  0  0  0  0  0  0  0
  143.0062   80.8899  219.2336 H   0  0  0  0  0  0  0  0  0  0  0  0
  140.9220   80.4510  219.6290 C   0  0  0  0  0  0  0  0  0  0  0  0
  140.6300   82.0440  220.3150 Cl  0  0  0  0  0  0  0  0  0  0  0  0
  139.8980   79.4900  219.5520 C   0  0  0  0  0  0  0  0  0  0  0  0
  138.2790   79.8340  220.1370 Cl  0  0  0  0  0  0  0  0  0  0  0  0
  140.1670   78.2310  219.0030 C   0  0  0  0  0  0  0  0  0  0  0  0
  139.3676   77.4776  218.9447 H   0  0  0  0  0  0  0  0  0  0  0  0
  1  2  1  0
  2  3  1  0
  3  4  2  0
  4  5  1  0
  4  6  1  0
  6  7  1  0
  7  8  2  0
  7  9  1  0
  9 10  2  0
 10 11  1  0
 11 12  2  0
 12 13  1  0
 12 14  1  0
 14 15  1  0
 14 16  2  0
 16 17  1  0
 16 18  1  0
 18 19  1  0
 18 20  2  0
 20 21  1  0
 21 22  1  0
 21 23  2  0
 23 24  1  0
  3 25  1  0
 25 26  1  0
 26 27  1  0
 26 28  1  0
 26 29  1  0
 29 30  1  0
 29 31  1  0
 29 32  1  0
 32 33  1  0
 32 34  1  0
 32 35  1  0
 35 36  1  1
 35 37  1  0
 37 38  2  0
 37 39  1  0
 39 40  1  0
 39 41  1  0
 41 42  1  0
 41 43  1  0
 41 44  1  0
 44 45  2  0
 45 46  1  0
 45 47  1  0
 47 48  1  0
 47 49  2  0
 49 50  1  0
 49 51  1  0
 51 52  1  0
 51 53  2  0
 53 54  1  0
 23  9  1  0
 35 25  1  0
 53 44  1  0
 20 11  1  0
M  CHG  1   6  -1
M  END
>  <UniqueID>  (28) 
158

>  <SMILES>  (28) 
O=C([N-]/C=C(\O)N1CCC[C@H]1C(=O)NCc1ccc(Cl)c(Cl)c1)c1ccc2ccccc2n1

>  <Energy>  (28) 
57.40724963464263

>  <Genealogy>  (28) 
O=C([N-]CC(=O)N1CCC[C@H]1C(=O)NCc1ccc(Cl)c(Cl)c1)c1ccc2ccccc2n1 (protonated)
O=C([N-]C=C(O)N1CCC[C@H]1C(=O)NCc1ccc(Cl)c(Cl)c1)c1ccc2ccccc2n1 (tautomer)
O=C([N-]/C=C(\O)N1CCC[C@H]1C(=O)NCc1ccc(Cl)c(Cl)c1)c1ccc2ccccc2n1 (cis-trans isomerization)
O=C([N-]/C=C(\O)N1CCC[C@H]1C(=O)NCc1ccc(Cl)c(Cl)c1)c1ccc2ccccc2n1 (3D coordinates assigned)
O=C([N-]/C=C(\O)N1CCC[C@H]1C(=O)NCc1ccc(Cl)c(Cl)c1)c1ccc2ccccc2n1 (nonaromatic ring conformer: 57.40724963464263 kcal/mol)

>  <smiles>  (28) 
O=C(NCC(=O)N1CCC[C@H]1C(=O)NCc1ccc(Cl)c(Cl)c1)c1ccc2ccccc2n1

>  <score_type>  (28) 
oracle

>  <origin>  (28) 
autodockgpu

>  <m_score__min__energy>  (28) 
-8.7400000000000002

>  <m_primary>  (28) 
energy

>  <meeko>  (28) 
{"free_energy": -6.12, "intermolecular_energy": -8.81, "internal_energy": -6.03, "cluster_size": 12, "cluster_id": 5, "rank_in_cluster": 10}

>  <energy>  (28) 
-8.11

>  <cluster_rmsd>  (28) 
0.0

>  <rmsd>  (28) 
271.63

>  <cluster>  (28) 
4

$$$$
NTBKPXNOUBMHTF-CKGUNICPNA-M
     RDKit          3D

 54 57  0  0  0  0  0  0  0  0999 V2000
  138.4220   75.5490  223.0560 H   0  0  0  0  0  0  0  0  0  0  0  0
  137.4180   75.5170  222.9240 O   0  0  0  0  0  0  0  0  0  0  0  0
  136.8330   74.5420  222.1190 C   0  0  0  0  0  0  0  0  0  0  0  0
  137.2570   74.3700  220.8690 C   0  0  0  0  0  0  0  0  0  0  0  0
  136.5534   74.0418  220.0898 H   0  0  0  0  0  0  0  0  0  0  0  0
  138.6280   74.6120  220.5390 N   0  0  0  0  0  0  0  0  0  0  0  0
  139.6700   74.8530  221.4910 C   0  0  0  0  0  0  0  0  0  0  0  0
  139.9370   73.9470  222.3270 O   0  0  0  0  0  0  0  0  0  0  0  0
  140.4040   76.1370  221.5720 C   0  0  0  0  0  0  0  0  0  0  0  0
  140.0860   77.0080  222.5690 N   0  0  0  0  0  0  0  0  0  0  0  0
  140.6670   78.2320  222.6780 C   0  0  0  0  0  0  0  0  0  0  0  0
  140.3190   79.0850  223.7330 C   0  0  0  0  0  0  0  0  0  0  0  0
  139.5662   78.7697  224.4704 H   0  0  0  0  0  0  0  0  0  0  0  0
  140.9290   80.3370  223.8480 C   0  0  0  0  0  0  0  0  0  0  0  0
  140.6574   81.0048  224.6788 H   0  0  0  0  0  0  0  0  0  0  0  0
  141.8840   80.7440  222.9100 C   0  0  0  0  0  0  0  0  0  0  0  0
  142.3574   81.7325  223.0036 H   0  0  0  0  0  0  0  0  0  0  0  0
  142.2390   79.8990  221.8540 C   0  0  0  0  0  0  0  0  0  0  0  0
  142.9910   80.2221  221.1191 H   0  0  0  0  0  0  0  0  0  0  0  0
  141.6350   78.6390  221.7330 C   0  0  0  0  0  0  0  0  0  0  0  0
  141.9700   77.7680  220.6930 C   0  0  0  0  0  0  0  0  0  0  0  0
  142.7234   78.0636  219.9480 H   0  0  0  0  0  0  0  0  0  0  0  0
  141.3470   76.5220  220.6010 C   0  0  0  0  0  0  0  0  0  0  0  0
  141.5927   75.8428  219.7714 H   0  0  0  0  0  0  0  0  0  0  0  0
  135.7620   73.7440  222.6360 N   0  0  0  0  0  0  0  0  0  0  0  0
  134.4110   73.8490  222.1130 C   0  0  0  0  0  0  0  0  0  0  0  0
  134.1044   74.9036  222.0514 H   0  0  0  0  0  0  0  0  0  0  0  0
  134.3347   73.4311  221.0984 H   0  0  0  0  0  0  0  0  0  0  0  0
  133.5280   73.0960  223.0990 C   0  0  0  0  0  0  0  0  0  0  0  0
  132.6182   73.6751  223.3154 H   0  0  0  0  0  0  0  0  0  0  0  0
  133.2100   72.1249  222.6917 H   0  0  0  0  0  0  0  0  0  0  0  0
  134.3590   72.9220  224.3680 C   0  0  0  0  0  0  0  0  0  0  0  0
  134.0689   73.6704  225.1202 H   0  0  0  0  0  0  0  0  0  0  0  0
  134.2042   71.9300  224.8175 H   0  0  0  0  0  0  0  0  0  0  0  0
  135.8180   73.1260  223.9500 C   0  0  1  0  0  0  0  0  0  0  0  0
  136.3541   73.7498  224.6804 H   0  0  0  0  0  0  0  0  0  0  0  0
  136.5670   71.8220  223.8880 C   0  0  0  0  0  0  0  0  0  0  0  0
  135.9990   70.7660  224.2750 O   0  0  0  0  0  0  0  0  0  0  0  0
  137.9050   71.7710  223.3750 N   0  0  0  0  0  0  0  0  0  0  0  0
  138.3830   72.6590  223.1020 H   0  0  0  0  0  0  0  0  0  0  0  0
  138.6240   70.5150  223.1750 C   0  0  0  0  0  0  0  0  0  0  0  0
  137.9291   69.7578  222.7828 H   0  0  0  0  0  0  0  0  0  0  0  0
  139.4430   70.6820  222.4599 H   0  0  0  0  0  0  0  0  0  0  0  0
  139.2020   70.0310  224.4750 C   0  0  0  0  0  0  0  0  0  0  0  0
  139.1670   68.6650  224.7940 C   0  0  0  0  0  0  0  0  0  0  0  0
  138.7192   67.9491  224.0890 H   0  0  0  0  0  0  0  0  0  0  0  0
  139.6980   68.2110  226.0020 C   0  0  0  0  0  0  0  0  0  0  0  0
  139.6475   67.1416  226.2546 H   0  0  0  0  0  0  0  0  0  0  0  0
  140.2940   69.1090  226.8930 C   0  0  0  0  0  0  0  0  0  0  0  0
  140.9630   68.4920  228.3980 Cl  0  0  0  0  0  0  0  0  0  0  0  0
  140.3430   70.4780  226.5780 C   0  0  0  0  0  0  0  0  0  0  0  0
  141.0750   71.6400  227.6720 Cl  0  0  0  0  0  0  0  0  0  0  0  0
  139.7960   70.9340  225.3720 C   0  0  0  0  0  0  0  0  0  0  0  0
  139.8318   72.0055  225.1259 H   0  0  0  0  0  0  0  0  0  0  0  0
  1  2  1  0
  2  3  1  0
  3  4  2  0
  4  5  1  0
  4  6  1  0
  6  7  1  0
  7  8  2  0
  7  9  1  0
  9 10  2  0
 10 11  1  0
 11 12  2  0
 12 13  1  0
 12 14  1  0
 14 15  1  0
 14 16  2  0
 16 17  1  0
 16 18  1  0
 18 19  1  0
 18 20  2  0
 20 21  1  0
 21 22  1  0
 21 23  2  0
 23 24  1  0
  3 25  1  0
 25 26  1  0
 26 27  1  0
 26 28  1  0
 26 29  1  0
 29 30  1  0
 29 31  1  0
 29 32  1  0
 32 33  1  0
 32 34  1  0
 32 35  1  0
 35 36  1  1
 35 37  1  0
 37 38  2  0
 37 39  1  0
 39 40  1  0
 39 41  1  0
 41 42  1  0
 41 43  1  0
 41 44  1  0
 44 45  2  0
 45 46  1  0
 45 47  1  0
 47 48  1  0
 47 49  2  0
 49 50  1  0
 49 51  1  0
 51 52  1  0
 51 53  2  0
 53 54  1  0
 23  9  1  0
 35 25  1  0
 53 44  1  0
 20 11  1  0
M  CHG  1   6  -1
M  END
>  <UniqueID>  (29) 
158

>  <SMILES>  (29) 
O=C([N-]/C=C(\O)N1CCC[C@H]1C(=O)NCc1ccc(Cl)c(Cl)c1)c1ccc2ccccc2n1

>  <Energy>  (29) 
57.40724963464263

>  <Genealogy>  (29) 
O=C([N-]CC(=O)N1CCC[C@H]1C(=O)NCc1ccc(Cl)c(Cl)c1)c1ccc2ccccc2n1 (protonated)
O=C([N-]C=C(O)N1CCC[C@H]1C(=O)NCc1ccc(Cl)c(Cl)c1)c1ccc2ccccc2n1 (tautomer)
O=C([N-]/C=C(\O)N1CCC[C@H]1C(=O)NCc1ccc(Cl)c(Cl)c1)c1ccc2ccccc2n1 (cis-trans isomerization)
O=C([N-]/C=C(\O)N1CCC[C@H]1C(=O)NCc1ccc(Cl)c(Cl)c1)c1ccc2ccccc2n1 (3D coordinates assigned)
O=C([N-]/C=C(\O)N1CCC[C@H]1C(=O)NCc1ccc(Cl)c(Cl)c1)c1ccc2ccccc2n1 (nonaromatic ring conformer: 57.40724963464263 kcal/mol)

>  <smiles>  (29) 
O=C(NCC(=O)N1CCC[C@H]1C(=O)NCc1ccc(Cl)c(Cl)c1)c1ccc2ccccc2n1

>  <score_type>  (29) 
oracle

>  <origin>  (29) 
autodockgpu

>  <m_score__min__energy>  (29) 
-8.7400000000000002

>  <m_primary>  (29) 
energy

>  <meeko>  (29) 
{"free_energy": -8.48, "intermolecular_energy": -11.17, "internal_energy": -3.63, "cluster_size": 1, "cluster_id": 3, "rank_in_cluster": 1}

>  <energy>  (29) 
-6.42

>  <cluster_rmsd>  (29) 
0.0

>  <rmsd>  (29) 
271.22

>  <cluster>  (29) 
5

$$$$
NTBKPXNOUBMHTF-CKGUNICPNA-M
     RDKit          3D

 54 57  0  0  0  0  0  0  0  0999 V2000
  139.2300   73.0290  222.8870 H   0  0  0  0  0  0  0  0  0  0  0  0
  139.9110   73.7610  222.7160 O   0  0  0  0  0  0  0  0  0  0  0  0
  140.5570   73.8620  221.4860 C   0  0  0  0  0  0  0  0  0  0  0  0
  141.0230   72.7680  220.8880 C   0  0  0  0  0  0  0  0  0  0  0  0
  141.8888   72.8369  220.2129 H   0  0  0  0  0  0  0  0  0  0  0  0
  140.3980   71.5020  221.1230 N   0  0  0  0  0  0  0  0  0  0  0  0
  139.2760   71.2910  221.9870 C   0  0  0  0  0  0  0  0  0  0  0  0
  138.1330   71.6300  221.5750 O   0  0  0  0  0  0  0  0  0  0  0  0
  139.4080   70.7470  223.3580 C   0  0  0  0  0  0  0  0  0  0  0  0
  139.9840   71.5260  224.3160 N   0  0  0  0  0  0  0  0  0  0  0  0
  140.1990   71.0810  225.5820 C   0  0  0  0  0  0  0  0  0  0  0  0
  140.7780   71.9260  226.5360 C   0  0  0  0  0  0  0  0  0  0  0  0
  141.0692   72.9501  226.2595 H   0  0  0  0  0  0  0  0  0  0  0  0
  140.9860   71.4680  227.8400 C   0  0  0  0  0  0  0  0  0  0  0  0
  141.4381   72.1342  228.5895 H   0  0  0  0  0  0  0  0  0  0  0  0
  140.6210   70.1650  228.1950 C   0  0  0  0  0  0  0  0  0  0  0  0
  140.7908   69.8087  229.2217 H   0  0  0  0  0  0  0  0  0  0  0  0
  140.0410   69.3140  227.2490 C   0  0  0  0  0  0  0  0  0  0  0  0
  139.7536   68.2907  227.5322 H   0  0  0  0  0  0  0  0  0  0  0  0
  139.8260   69.7660  225.9390 C   0  0  0  0  0  0  0  0  0  0  0  0
  139.2440   68.9430  224.9720 C   0  0  0  0  0  0  0  0  0  0  0  0
  138.9415   67.9175  225.2306 H   0  0  0  0  0  0  0  0  0  0  0  0
  139.0470   69.4250  223.6760 C   0  0  0  0  0  0  0  0  0  0  0  0
  138.6105   68.7723  222.9056 H   0  0  0  0  0  0  0  0  0  0  0  0
  140.7360   75.1480  220.8820 N   0  0  0  0  0  0  0  0  0  0  0  0
  141.4510   75.3100  219.6290 C   0  0  0  0  0  0  0  0  0  0  0  0
  142.4074   74.7675  219.6604 H   0  0  0  0  0  0  0  0  0  0  0  0
  140.8788   74.9071  218.7803 H   0  0  0  0  0  0  0  0  0  0  0  0
  141.6940   76.8060  219.4830 C   0  0  0  0  0  0  0  0  0  0  0  0
  142.7278   76.9946  219.1581 H   0  0  0  0  0  0  0  0  0  0  0  0
  141.0271   77.2491  218.7287 H   0  0  0  0  0  0  0  0  0  0  0  0
  141.4540   77.4120  220.8630 C   0  0  0  0  0  0  0  0  0  0  0  0
  142.4122   77.5958  221.3710 H   0  0  0  0  0  0  0  0  0  0  0  0
  140.9304   78.3768  220.7924 H   0  0  0  0  0  0  0  0  0  0  0  0
  140.6290   76.3840  221.6410 C   0  0  1  0  0  0  0  0  0  0  0  0
  141.0028   76.2752  222.6698 H   0  0  0  0  0  0  0  0  0  0  0  0
  139.1890   76.8030  221.7650 C   0  0  0  0  0  0  0  0  0  0  0  0
  138.7800   77.8000  221.1130 O   0  0  0  0  0  0  0  0  0  0  0  0
  138.2830   76.0680  222.5980 N   0  0  0  0  0  0  0  0  0  0  0  0
  138.6440   75.2720  223.1710 H   0  0  0  0  0  0  0  0  0  0  0  0
  136.8520   76.3560  222.6500 C   0  0  0  0  0  0  0  0  0  0  0  0
  136.6982   77.3508  223.0935 H   0  0  0  0  0  0  0  0  0  0  0  0
  136.4452   76.3312  221.6283 H   0  0  0  0  0  0  0  0  0  0  0  0
  136.1410   75.3260  223.4840 C   0  0  0  0  0  0  0  0  0  0  0  0
  135.3820   75.7260  224.5950 C   0  0  0  0  0  0  0  0  0  0  0  0
  135.3048   76.7929  224.8515 H   0  0  0  0  0  0  0  0  0  0  0  0
  134.7250   74.7730  225.3750 C   0  0  0  0  0  0  0  0  0  0  0  0
  134.1498   75.0905  226.2573 H   0  0  0  0  0  0  0  0  0  0  0  0
  134.7940   73.4170  225.0410 C   0  0  0  0  0  0  0  0  0  0  0  0
  133.9390   72.2520  226.0430 Cl  0  0  0  0  0  0  0  0  0  0  0  0
  135.5450   73.0090  223.9250 C   0  0  0  0  0  0  0  0  0  0  0  0
  135.6650   71.3150  223.4760 Cl  0  0  0  0  0  0  0  0  0  0  0  0
  136.2160   73.9640  223.1510 C   0  0  0  0  0  0  0  0  0  0  0  0
  136.8046   73.6456  222.2780 H   0  0  0  0  0  0  0  0  0  0  0  0
  1  2  1  0
  2  3  1  0
  3  4  2  0
  4  5  1  0
  4  6  1  0
  6  7  1  0
  7  8  2  0
  7  9  1  0
  9 10  2  0
 10 11  1  0
 11 12  2  0
 12 13  1  0
 12 14  1  0
 14 15  1  0
 14 16  2  0
 16 17  1  0
 16 18  1  0
 18 19  1  0
 18 20  2  0
 20 21  1  0
 21 22  1  0
 21 23  2  0
 23 24  1  0
  3 25  1  0
 25 26  1  0
 26 27  1  0
 26 28  1  0
 26 29  1  0
 29 30  1  0
 29 31  1  0
 29 32  1  0
 32 33  1  0
 32 34  1  0
 32 35  1  0
 35 36  1  1
 35 37  1  0
 37 38  2  0
 37 39  1  0
 39 40  1  0
 39 41  1  0
 41 42  1  0
 41 43  1  0
 41 44  1  0
 44 45  2  0
 45 46  1  0
 45 47  1  0
 47 48  1  0
 47 49  2  0
 49 50  1  0
 49 51  1  0
 51 52  1  0
 51 53  2  0
 53 54  1  0
 23  9  1  0
 35 25  1  0
 53 44  1  0
 20 11  1  0
M  CHG  1   6  -1
M  END
>  <UniqueID>  (30) 
158

>  <SMILES>  (30) 
O=C([N-]/C=C(\O)N1CCC[C@H]1C(=O)NCc1ccc(Cl)c(Cl)c1)c1ccc2ccccc2n1

>  <Energy>  (30) 
57.40724963464263

>  <Genealogy>  (30) 
O=C([N-]CC(=O)N1CCC[C@H]1C(=O)NCc1ccc(Cl)c(Cl)c1)c1ccc2ccccc2n1 (protonated)
O=C([N-]C=C(O)N1CCC[C@H]1C(=O)NCc1ccc(Cl)c(Cl)c1)c1ccc2ccccc2n1 (tautomer)
O=C([N-]/C=C(\O)N1CCC[C@H]1C(=O)NCc1ccc(Cl)c(Cl)c1)c1ccc2ccccc2n1 (cis-trans isomerization)
O=C([N-]/C=C(\O)N1CCC[C@H]1C(=O)NCc1ccc(Cl)c(Cl)c1)c1ccc2ccccc2n1 (3D coordinates assigned)
O=C([N-]/C=C(\O)N1CCC[C@H]1C(=O)NCc1ccc(Cl)c(Cl)c1)c1ccc2ccccc2n1 (nonaromatic ring conformer: 57.40724963464263 kcal/mol)

>  <smiles>  (30) 
O=C(NCC(=O)N1CCC[C@H]1C(=O)NCc1ccc(Cl)c(Cl)c1)c1ccc2ccccc2n1

>  <score_type>  (30) 
oracle

>  <origin>  (30) 
autodockgpu

>  <m_score__min__energy>  (30) 
-8.7400000000000002

>  <m_primary>  (30) 
energy

>  <meeko>  (30) 
{"free_energy": -7.94, "intermolecular_energy": -10.63, "internal_energy": -3.98, "cluster_size": 5, "cluster_id": 1, "rank_in_cluster": 5}

>  <energy>  (30) 
-6.42

>  <cluster_rmsd>  (30) 
0.06

>  <rmsd>  (30) 
271.2

>  <cluster>  (30) 
5

$$$$
NTBKPXNOUBMHTF-CKGUNICPNA-M
     RDKit          3D

 54 57  0  0  0  0  0  0  0  0999 V2000
  138.9330   74.2710  222.7890 H   0  0  0  0  0  0  0  0  0  0  0  0
  139.7700   73.9130  222.3430 O   0  0  0  0  0  0  0  0  0  0  0  0
  140.1230   74.3180  221.0570 C   0  0  0  0  0  0  0  0  0  0  0  0
  139.2310   74.9370  220.2870 C   0  0  0  0  0  0  0  0  0  0  0  0
  139.0804   74.6097  219.2477 H   0  0  0  0  0  0  0  0  0  0  0  0
  138.4680   76.0280  220.8110 N   0  0  0  0  0  0  0  0  0  0  0  0
  138.5080   76.4770  222.1700 C   0  0  0  0  0  0  0  0  0  0  0  0
  137.9170   75.7870  223.0450 O   0  0  0  0  0  0  0  0  0  0  0  0
  139.1620   77.7410  222.5800 C   0  0  0  0  0  0  0  0  0  0  0  0
  140.5130   77.8490  222.4470 N   0  0  0  0  0  0  0  0  0  0  0  0
  141.1980   78.9490  222.8570 C   0  0  0  0  0  0  0  0  0  0  0  0
  142.5860   79.0200  222.6810 C   0  0  0  0  0  0  0  0  0  0  0  0
  143.1261   78.1800  222.2197 H   0  0  0  0  0  0  0  0  0  0  0  0
  143.2840   80.1590  223.0920 C   0  0  0  0  0  0  0  0  0  0  0  0
  144.3735   80.2148  222.9509 H   0  0  0  0  0  0  0  0  0  0  0  0
  142.6020   81.2280  223.6820 C   0  0  0  0  0  0  0  0  0  0  0  0
  143.1576   82.1202  224.0066 H   0  0  0  0  0  0  0  0  0  0  0  0
  141.2160   81.1670  223.8610 C   0  0  0  0  0  0  0  0  0  0  0  0
  140.6828   82.0100  224.3248 H   0  0  0  0  0  0  0  0  0  0  0  0
  140.5070   80.0290  223.4480 C   0  0  0  0  0  0  0  0  0  0  0  0
  139.1220   79.9390  223.6070 C   0  0  0  0  0  0  0  0  0  0  0  0
  138.5641   80.7712  224.0612 H   0  0  0  0  0  0  0  0  0  0  0  0
  138.4470   78.7900  223.1880 C   0  0  0  0  0  0  0  0  0  0  0  0
  137.3599   78.7052  223.3328 H   0  0  0  0  0  0  0  0  0  0  0  0
  141.4390   74.0450  220.5630 N   0  0  0  0  0  0  0  0  0  0  0  0
  141.8430   72.7080  220.1660 C   0  0  0  0  0  0  0  0  0  0  0  0
  141.5677   71.9781  220.9415 H   0  0  0  0  0  0  0  0  0  0  0  0
  141.3469   72.3937  219.2359 H   0  0  0  0  0  0  0  0  0  0  0  0
  143.3560   72.7650  220.0040 C   0  0  0  0  0  0  0  0  0  0  0  0
  143.8232   71.8868  220.4736 H   0  0  0  0  0  0  0  0  0  0  0  0
  143.6460   72.7630  218.9429 H   0  0  0  0  0  0  0  0  0  0  0  0
  143.8110   74.0440  220.7030 C   0  0  0  0  0  0  0  0  0  0  0  0
  144.2138   73.8119  221.6999 H   0  0  0  0  0  0  0  0  0  0  0  0
  144.6081   74.5495  220.1382 H   0  0  0  0  0  0  0  0  0  0  0  0
  142.5650   74.9260  220.8250 C   0  0  1  0  0  0  0  0  0  0  0  0
  142.5068   75.3907  221.8203 H   0  0  0  0  0  0  0  0  0  0  0  0
  142.5870   76.0610  219.8370 C   0  0  0  0  0  0  0  0  0  0  0  0
  143.5760   76.1880  219.0670 O   0  0  0  0  0  0  0  0  0  0  0  0
  141.4890   76.9800  219.7550 N   0  0  0  0  0  0  0  0  0  0  0  0
  140.6980   76.8940  220.4310 H   0  0  0  0  0  0  0  0  0  0  0  0
  141.4060   78.0150  218.7290 C   0  0  0  0  0  0  0  0  0  0  0  0
  142.3795   78.1051  218.2249 H   0  0  0  0  0  0  0  0  0  0  0  0
  140.6293   77.7363  218.0016 H   0  0  0  0  0  0  0  0  0  0  0  0
  141.0440   79.3370  219.3490 C   0  0  0  0  0  0  0  0  0  0  0  0
  142.0410   80.2940  219.5920 C   0  0  0  0  0  0  0  0  0  0  0  0
  143.0858   80.0774  219.3246 H   0  0  0  0  0  0  0  0  0  0  0  0
  141.7110   81.5200  220.1720 C   0  0  0  0  0  0  0  0  0  0  0  0
  142.5005   82.2571  220.3801 H   0  0  0  0  0  0  0  0  0  0  0  0
  140.3810   81.8160  220.4900 C   0  0  0  0  0  0  0  0  0  0  0  0
  140.0070   83.3780  221.2060 Cl  0  0  0  0  0  0  0  0  0  0  0  0
  139.3750   80.8660  220.2400 C   0  0  0  0  0  0  0  0  0  0  0  0
  137.6940   81.1950  220.6310 Cl  0  0  0  0  0  0  0  0  0  0  0  0
  139.7090   79.6310  219.6720 C   0  0  0  0  0  0  0  0  0  0  0  0
  138.9222   78.8872  219.4777 H   0  0  0  0  0  0  0  0  0  0  0  0
  1  2  1  0
  2  3  1  0
  3  4  2  0
  4  5  1  0
  4  6  1  0
  6  7  1  0
  7  8  2  0
  7  9  1  0
  9 10  2  0
 10 11  1  0
 11 12  2  0
 12 13  1  0
 12 14  1  0
 14 15  1  0
 14 16  2  0
 16 17  1  0
 16 18  1  0
 18 19  1  0
 18 20  2  0
 20 21  1  0
 21 22  1  0
 21 23  2  0
 23 24  1  0
  3 25  1  0
 25 26  1  0
 26 27  1  0
 26 28  1  0
 26 29  1  0
 29 30  1  0
 29 31  1  0
 29 32  1  0
 32 33  1  0
 32 34  1  0
 32 35  1  0
 35 36  1  1
 35 37  1  0
 37 38  2  0
 37 39  1  0
 39 40  1  0
 39 41  1  0
 41 42  1  0
 41 43  1  0
 41 44  1  0
 44 45  2  0
 45 46  1  0
 45 47  1  0
 47 48  1  0
 47 49  2  0
 49 50  1  0
 49 51  1  0
 51 52  1  0
 51 53  2  0
 53 54  1  0
 23  9  1  0
 35 25  1  0
 53 44  1  0
 20 11  1  0
M  CHG  1   6  -1
M  END
>  <UniqueID>  (31) 
158

>  <SMILES>  (31) 
O=C([N-]/C=C(\O)N1CCC[C@H]1C(=O)NCc1ccc(Cl)c(Cl)c1)c1ccc2ccccc2n1

>  <Energy>  (31) 
57.40724963464263

>  <Genealogy>  (31) 
O=C([N-]CC(=O)N1CCC[C@H]1C(=O)NCc1ccc(Cl)c(Cl)c1)c1ccc2ccccc2n1 (protonated)
O=C([N-]C=C(O)N1CCC[C@H]1C(=O)NCc1ccc(Cl)c(Cl)c1)c1ccc2ccccc2n1 (tautomer)
O=C([N-]/C=C(\O)N1CCC[C@H]1C(=O)NCc1ccc(Cl)c(Cl)c1)c1ccc2ccccc2n1 (cis-trans isomerization)
O=C([N-]/C=C(\O)N1CCC[C@H]1C(=O)NCc1ccc(Cl)c(Cl)c1)c1ccc2ccccc2n1 (3D coordinates assigned)
O=C([N-]/C=C(\O)N1CCC[C@H]1C(=O)NCc1ccc(Cl)c(Cl)c1)c1ccc2ccccc2n1 (nonaromatic ring conformer: 57.40724963464263 kcal/mol)

>  <smiles>  (31) 
O=C(NCC(=O)N1CCC[C@H]1C(=O)NCc1ccc(Cl)c(Cl)c1)c1ccc2ccccc2n1

>  <score_type>  (31) 
oracle

>  <origin>  (31) 
autodockgpu

>  <m_score__min__energy>  (31) 
-8.7400000000000002

>  <m_primary>  (31) 
energy

>  <meeko>  (31) 
{"free_energy": -6.33, "intermolecular_energy": -9.01, "internal_energy": -5.9, "cluster_size": 12, "cluster_id": 5, "rank_in_cluster": 8}

>  <energy>  (31) 
-6.4

>  <cluster_rmsd>  (31) 
0.09

>  <rmsd>  (31) 
271.2

>  <cluster>  (31) 
5

$$$$
NTBKPXNOUBMHTF-CKGUNICPNA-M
     RDKit          3D

 54 57  0  0  0  0  0  0  0  0999 V2000
  139.0880   74.3050  222.7420 H   0  0  0  0  0  0  0  0  0  0  0  0
  139.9460   73.9870  222.3050 O   0  0  0  0  0  0  0  0  0  0  0  0
  140.2330   74.3040  220.9800 C   0  0  0  0  0  0  0  0  0  0  0  0
  139.2970   74.8550  220.2100 C   0  0  0  0  0  0  0  0  0  0  0  0
  139.0347   74.3921  219.2473 H   0  0  0  0  0  0  0  0  0  0  0  0
  138.6320   76.0490  220.6340 N   0  0  0  0  0  0  0  0  0  0  0  0
  138.5600   76.5080  221.9890 C   0  0  0  0  0  0  0  0  0  0  0  0
  137.8850   75.8340  222.8130 O   0  0  0  0  0  0  0  0  0  0  0  0
  139.1950   77.7660  222.4460 C   0  0  0  0  0  0  0  0  0  0  0  0
  140.5470   77.8920  222.3320 N   0  0  0  0  0  0  0  0  0  0  0  0
  141.2150   78.9870  222.7840 C   0  0  0  0  0  0  0  0  0  0  0  0
  142.6030   79.0780  222.6270 C   0  0  0  0  0  0  0  0  0  0  0  0
  143.1574   78.2583  222.1466 H   0  0  0  0  0  0  0  0  0  0  0  0
  143.2840   80.2110  223.0810 C   0  0  0  0  0  0  0  0  0  0  0  0
  144.3743   80.2829  222.9544 H   0  0  0  0  0  0  0  0  0  0  0  0
  142.5830   81.2540  223.6960 C   0  0  0  0  0  0  0  0  0  0  0  0
  143.1249   82.1413  224.0551 H   0  0  0  0  0  0  0  0  0  0  0  0
  141.1960   81.1730  223.8560 C   0  0  0  0  0  0  0  0  0  0  0  0
  140.6481   81.9957  224.3386 H   0  0  0  0  0  0  0  0  0  0  0  0
  140.5050   80.0410  223.4000 C   0  0  0  0  0  0  0  0  0  0  0  0
  139.1190   79.9300  223.5390 C   0  0  0  0  0  0  0  0  0  0  0  0
  138.5463   80.7414  224.0119 H   0  0  0  0  0  0  0  0  0  0  0  0
  138.4620   78.7880  223.0770 C   0  0  0  0  0  0  0  0  0  0  0  0
  137.3742   78.6875  223.2059 H   0  0  0  0  0  0  0  0  0  0  0  0
  141.5300   74.0150  220.4460 N   0  0  0  0  0  0  0  0  0  0  0  0
  141.8990   72.6770  220.0200 C   0  0  0  0  0  0  0  0  0  0  0  0
  141.6332   71.9415  220.7935 H   0  0  0  0  0  0  0  0  0  0  0  0
  141.3711   72.3841  219.1005 H   0  0  0  0  0  0  0  0  0  0  0  0
  143.4080   72.7100  219.8150 C   0  0  0  0  0  0  0  0  0  0  0  0
  143.8732   71.8177  220.2594 H   0  0  0  0  0  0  0  0  0  0  0  0
  143.6681   72.7170  218.7462 H   0  0  0  0  0  0  0  0  0  0  0  0
  143.9040   73.9720  220.5180 C   0  0  0  0  0  0  0  0  0  0  0  0
  144.3305   73.7195  221.5000 H   0  0  0  0  0  0  0  0  0  0  0  0
  144.6933   74.4718  219.9373 H   0  0  0  0  0  0  0  0  0  0  0  0
  142.6780   74.8730  220.6870 C   0  0  1  0  0  0  0  0  0  0  0  0
  142.6560   75.3251  221.6896 H   0  0  0  0  0  0  0  0  0  0  0  0
  142.6920   76.0210  219.7140 C   0  0  0  0  0  0  0  0  0  0  0  0
  143.6470   76.1260  218.8990 O   0  0  0  0  0  0  0  0  0  0  0  0
  141.6240   76.9780  219.6960 N   0  0  0  0  0  0  0  0  0  0  0  0
  140.8630   76.9090  220.4080 H   0  0  0  0  0  0  0  0  0  0  0  0
  141.5280   78.0300  218.6880 C   0  0  0  0  0  0  0  0  0  0  0  0
  142.5209   78.2014  218.2466 H   0  0  0  0  0  0  0  0  0  0  0  0
  140.8185   77.7153  217.9085 H   0  0  0  0  0  0  0  0  0  0  0  0
  141.0350   79.3070  219.3120 C   0  0  0  0  0  0  0  0  0  0  0  0
  141.9420   80.3340  219.6180 C   0  0  0  0  0  0  0  0  0  0  0  0
  143.0117   80.2047  219.3966 H   0  0  0  0  0  0  0  0  0  0  0  0
  141.4910   81.5180  220.2020 C   0  0  0  0  0  0  0  0  0  0  0  0
  142.2098   82.3097  220.4600 H   0  0  0  0  0  0  0  0  0  0  0  0
  140.1290   81.7030  220.4610 C   0  0  0  0  0  0  0  0  0  0  0  0
  139.6010   83.2170  221.1840 Cl  0  0  0  0  0  0  0  0  0  0  0  0
  139.2120   80.6840  220.1480 C   0  0  0  0  0  0  0  0  0  0  0  0
  137.4950   80.8730  220.4650 Cl  0  0  0  0  0  0  0  0  0  0  0  0
  139.6680   79.4900  219.5770 C   0  0  0  0  0  0  0  0  0  0  0  0
  138.9519   78.6910  219.3346 H   0  0  0  0  0  0  0  0  0  0  0  0
  1  2  1  0
  2  3  1  0
  3  4  2  0
  4  5  1  0
  4  6  1  0
  6  7  1  0
  7  8  2  0
  7  9  1  0
  9 10  2  0
 10 11  1  0
 11 12  2  0
 12 13  1  0
 12 14  1  0
 14 15  1  0
 14 16  2  0
 16 17  1  0
 16 18  1  0
 18 19  1  0
 18 20  2  0
 20 21  1  0
 21 22  1  0
 21 23  2  0
 23 24  1  0
  3 25  1  0
 25 26  1  0
 26 27  1  0
 26 28  1  0
 26 29  1  0
 29 30  1  0
 29 31  1  0
 29 32  1  0
 32 33  1  0
 32 34  1  0
 32 35  1  0
 35 36  1  1
 35 37  1  0
 37 38  2  0
 37 39  1  0
 39 40  1  0
 39 41  1  0
 41 42  1  0
 41 43  1  0
 41 44  1  0
 44 45  2  0
 45 46  1  0
 45 47  1  0
 47 48  1  0
 47 49  2  0
 49 50  1  0
 49 51  1  0
 51 52  1  0
 51 53  2  0
 53 54  1  0
 23  9  1  0
 35 25  1  0
 53 44  1  0
 20 11  1  0
M  CHG  1   6  -1
M  END
>  <UniqueID>  (32) 
158

>  <SMILES>  (32) 
O=C([N-]/C=C(\O)N1CCC[C@H]1C(=O)NCc1ccc(Cl)c(Cl)c1)c1ccc2ccccc2n1

>  <Energy>  (32) 
57.40724963464263

>  <Genealogy>  (32) 
O=C([N-]CC(=O)N1CCC[C@H]1C(=O)NCc1ccc(Cl)c(Cl)c1)c1ccc2ccccc2n1 (protonated)
O=C([N-]C=C(O)N1CCC[C@H]1C(=O)NCc1ccc(Cl)c(Cl)c1)c1ccc2ccccc2n1 (tautomer)
O=C([N-]/C=C(\O)N1CCC[C@H]1C(=O)NCc1ccc(Cl)c(Cl)c1)c1ccc2ccccc2n1 (cis-trans isomerization)
O=C([N-]/C=C(\O)N1CCC[C@H]1C(=O)NCc1ccc(Cl)c(Cl)c1)c1ccc2ccccc2n1 (3D coordinates assigned)
O=C([N-]/C=C(\O)N1CCC[C@H]1C(=O)NCc1ccc(Cl)c(Cl)c1)c1ccc2ccccc2n1 (nonaromatic ring conformer: 57.40724963464263 kcal/mol)

>  <smiles>  (32) 
O=C(NCC(=O)N1CCC[C@H]1C(=O)NCc1ccc(Cl)c(Cl)c1)c1ccc2ccccc2n1

>  <score_type>  (32) 
oracle

>  <origin>  (32) 
autodockgpu

>  <m_score__min__energy>  (32) 
-8.7400000000000002

>  <m_primary>  (32) 
energy

>  <meeko>  (32) 
{"free_energy": -6.4, "intermolecular_energy": -9.09, "internal_energy": -5.92, "cluster_size": 12, "cluster_id": 5, "rank_in_cluster": 4}

>  <energy>  (32) 
-6.4

>  <cluster_rmsd>  (32) 
0.27

>  <rmsd>  (32) 
271.2

>  <cluster>  (32) 
5

$$$$
NTBKPXNOUBMHTF-CKGUNICPNA-M
     RDKit          3D

 54 57  0  0  0  0  0  0  0  0999 V2000
  139.1960   74.1040  222.7900 H   0  0  0  0  0  0  0  0  0  0  0  0
  140.0350   73.7860  222.3170 O   0  0  0  0  0  0  0  0  0  0  0  0
  140.3020   74.1660  221.0040 C   0  0  0  0  0  0  0  0  0  0  0  0
  139.3350   74.6870  220.2520 C   0  0  0  0  0  0  0  0  0  0  0  0
  138.9863   74.1522  219.3562 H   0  0  0  0  0  0  0  0  0  0  0  0
  138.7490   75.9430  220.6090 N   0  0  0  0  0  0  0  0  0  0  0  0
  138.6090   76.4300  221.9480 C   0  0  0  0  0  0  0  0  0  0  0  0
  137.8810   75.7800  222.7470 O   0  0  0  0  0  0  0  0  0  0  0  0
  139.2360   77.6880  222.4160 C   0  0  0  0  0  0  0  0  0  0  0  0
  140.5800   77.8450  222.2590 N   0  0  0  0  0  0  0  0  0  0  0  0
  141.2420   78.9410  222.7160 C   0  0  0  0  0  0  0  0  0  0  0  0
  142.6220   79.0640  222.5140 C   0  0  0  0  0  0  0  0  0  0  0  0
  143.1751   78.2683  221.9935 H   0  0  0  0  0  0  0  0  0  0  0  0
  143.2960   80.1980  222.9740 C   0  0  0  0  0  0  0  0  0  0  0  0
  144.3798   80.2946  222.8128 H   0  0  0  0  0  0  0  0  0  0  0  0
  142.5970   81.2110  223.6390 C   0  0  0  0  0  0  0  0  0  0  0  0
  143.1339   82.0998  224.0021 H   0  0  0  0  0  0  0  0  0  0  0  0
  141.2180   81.0980  223.8440 C   0  0  0  0  0  0  0  0  0  0  0  0
  140.6714   81.8973  224.3660 H   0  0  0  0  0  0  0  0  0  0  0  0
  140.5330   79.9640  223.3830 C   0  0  0  0  0  0  0  0  0  0  0  0
  139.1550   79.8220  223.5670 C   0  0  0  0  0  0  0  0  0  0  0  0
  138.5836   80.6093  224.0804 H   0  0  0  0  0  0  0  0  0  0  0  0
  138.5050   78.6790  223.0980 C   0  0  0  0  0  0  0  0  0  0  0  0
  137.4245   78.5531  223.2610 H   0  0  0  0  0  0  0  0  0  0  0  0
  141.6140   73.9720  220.4620 N   0  0  0  0  0  0  0  0  0  0  0  0
  142.0940   72.6570  220.0770 C   0  0  0  0  0  0  0  0  0  0  0  0
  141.9018   71.9287  220.8786 H   0  0  0  0  0  0  0  0  0  0  0  0
  141.5842   72.2866  219.1754 H   0  0  0  0  0  0  0  0  0  0  0  0
  143.5920   72.8150  219.8510 C   0  0  0  0  0  0  0  0  0  0  0  0
  144.1382   71.9826  220.3187 H   0  0  0  0  0  0  0  0  0  0  0  0
  143.8390   72.8082  218.7791 H   0  0  0  0  0  0  0  0  0  0  0  0
  143.9830   74.1380  220.5040 C   0  0  0  0  0  0  0  0  0  0  0  0
  144.4400   73.9576  221.4882 H   0  0  0  0  0  0  0  0  0  0  0  0
  144.7196   74.6839  219.8962 H   0  0  0  0  0  0  0  0  0  0  0  0
  142.6850   74.9350  220.6590 C   0  0  1  0  0  0  0  0  0  0  0  0
  142.6344   75.4184  221.6458 H   0  0  0  0  0  0  0  0  0  0  0  0
  142.5880   76.0460  219.6480 C   0  0  0  0  0  0  0  0  0  0  0  0
  143.5130   76.1920  218.8040 O   0  0  0  0  0  0  0  0  0  0  0  0
  141.4500   76.9180  219.6260 N   0  0  0  0  0  0  0  0  0  0  0  0
  140.7140   76.8180  220.3600 H   0  0  0  0  0  0  0  0  0  0  0  0
  141.2500   77.9240  218.5860 C   0  0  0  0  0  0  0  0  0  0  0  0
  142.1481   77.9748  217.9529 H   0  0  0  0  0  0  0  0  0  0  0  0
  140.3766   77.6425  217.9795 H   0  0  0  0  0  0  0  0  0  0  0  0
  141.0020   79.2720  219.2040 C   0  0  0  0  0  0  0  0  0  0  0  0
  142.0600   80.1840  219.3460 C   0  0  0  0  0  0  0  0  0  0  0  0
  143.0685   79.9125  219.0008 H   0  0  0  0  0  0  0  0  0  0  0  0
  141.8350   81.4340  219.9240 C   0  0  0  0  0  0  0  0  0  0  0  0
  142.6721   82.1360  220.0521 H   0  0  0  0  0  0  0  0  0  0  0  0
  140.5520   81.7990  220.3410 C   0  0  0  0  0  0  0  0  0  0  0  0
  140.3110   83.3900  221.0510 Cl  0  0  0  0  0  0  0  0  0  0  0  0
  139.4850   80.8960  220.1930 C   0  0  0  0  0  0  0  0  0  0  0  0
  137.8590   81.3120  220.7110 Cl  0  0  0  0  0  0  0  0  0  0  0  0
  139.7130   79.6360  219.6270 C   0  0  0  0  0  0  0  0  0  0  0  0
  138.8790   78.9279  219.5130 H   0  0  0  0  0  0  0  0  0  0  0  0
  1  2  1  0
  2  3  1  0
  3  4  2  0
  4  5  1  0
  4  6  1  0
  6  7  1  0
  7  8  2  0
  7  9  1  0
  9 10  2  0
 10 11  1  0
 11 12  2  0
 12 13  1  0
 12 14  1  0
 14 15  1  0
 14 16  2  0
 16 17  1  0
 16 18  1  0
 18 19  1  0
 18 20  2  0
 20 21  1  0
 21 22  1  0
 21 23  2  0
 23 24  1  0
  3 25  1  0
 25 26  1  0
 26 27  1  0
 26 28  1  0
 26 29  1  0
 29 30  1  0
 29 31  1  0
 29 32  1  0
 32 33  1  0
 32 34  1  0
 32 35  1  0
 35 36  1  1
 35 37  1  0
 37 38  2  0
 37 39  1  0
 39 40  1  0
 39 41  1  0
 41 42  1  0
 41 43  1  0
 41 44  1  0
 44 45  2  0
 45 46  1  0
 45 47  1  0
 47 48  1  0
 47 49  2  0
 49 50  1  0
 49 51  1  0
 51 52  1  0
 51 53  2  0
 53 54  1  0
 23  9  1  0
 35 25  1  0
 53 44  1  0
 20 11  1  0
M  CHG  1   6  -1
M  END
>  <UniqueID>  (33) 
158

>  <SMILES>  (33) 
O=C([N-]/C=C(\O)N1CCC[C@H]1C(=O)NCc1ccc(Cl)c(Cl)c1)c1ccc2ccccc2n1

>  <Energy>  (33) 
57.40724963464263

>  <Genealogy>  (33) 
O=C([N-]CC(=O)N1CCC[C@H]1C(=O)NCc1ccc(Cl)c(Cl)c1)c1ccc2ccccc2n1 (protonated)
O=C([N-]C=C(O)N1CCC[C@H]1C(=O)NCc1ccc(Cl)c(Cl)c1)c1ccc2ccccc2n1 (tautomer)
O=C([N-]/C=C(\O)N1CCC[C@H]1C(=O)NCc1ccc(Cl)c(Cl)c1)c1ccc2ccccc2n1 (cis-trans isomerization)
O=C([N-]/C=C(\O)N1CCC[C@H]1C(=O)NCc1ccc(Cl)c(Cl)c1)c1ccc2ccccc2n1 (3D coordinates assigned)
O=C([N-]/C=C(\O)N1CCC[C@H]1C(=O)NCc1ccc(Cl)c(Cl)c1)c1ccc2ccccc2n1 (nonaromatic ring conformer: 57.40724963464263 kcal/mol)

>  <smiles>  (33) 
O=C(NCC(=O)N1CCC[C@H]1C(=O)NCc1ccc(Cl)c(Cl)c1)c1ccc2ccccc2n1

>  <score_type>  (33) 
oracle

>  <origin>  (33) 
autodockgpu

>  <m_score__min__energy>  (33) 
-8.7400000000000002

>  <m_primary>  (33) 
energy

>  <meeko>  (33) 
{"free_energy": -6.4, "intermolecular_energy": -9.09, "internal_energy": -6.14, "cluster_size": 12, "cluster_id": 5, "rank_in_cluster": 3}

>  <energy>  (33) 
-6.39

>  <cluster_rmsd>  (33) 
0.09

>  <rmsd>  (33) 
271.21

>  <cluster>  (33) 
5

$$$$
NTBKPXNOUBMHTF-CKGUNICPNA-M
     RDKit          3D

 54 57  0  0  0  0  0  0  0  0999 V2000
  139.1950   73.6780  219.5830 H   0  0  0  0  0  0  0  0  0  0  0  0
  140.0950   73.2180  219.5030 O   0  0  0  0  0  0  0  0  0  0  0  0
  141.0730   73.3850  220.4810 C   0  0  0  0  0  0  0  0  0  0  0  0
  140.7340   73.3780  221.7680 C   0  0  0  0  0  0  0  0  0  0  0  0
  141.0309   72.5355  222.4100 H   0  0  0  0  0  0  0  0  0  0  0  0
  139.9840   74.4650  222.3170 N   0  0  0  0  0  0  0  0  0  0  0  0
  139.6210   75.6520  221.6040 C   0  0  0  0  0  0  0  0  0  0  0  0
  139.1500   75.5300  220.4410 O   0  0  0  0  0  0  0  0  0  0  0  0
  139.8280   77.0140  222.1500 C   0  0  0  0  0  0  0  0  0  0  0  0
  141.0920   77.5230  222.1700 N   0  0  0  0  0  0  0  0  0  0  0  0
  141.3770   78.7370  222.7110 C   0  0  0  0  0  0  0  0  0  0  0  0
  142.6900   79.2250  222.6900 C   0  0  0  0  0  0  0  0  0  0  0  0
  143.4947   78.6218  222.2443 H   0  0  0  0  0  0  0  0  0  0  0  0
  142.9760   80.4790  223.2360 C   0  0  0  0  0  0  0  0  0  0  0  0
  144.0069   80.8622  223.2174 H   0  0  0  0  0  0  0  0  0  0  0  0
  141.9570   81.2490  223.8060 C   0  0  0  0  0  0  0  0  0  0  0  0
  142.1897   82.2340  224.2368 H   0  0  0  0  0  0  0  0  0  0  0  0
  140.6420   80.7700  223.8300 C   0  0  0  0  0  0  0  0  0  0  0  0
  139.8425   81.3782  224.2783 H   0  0  0  0  0  0  0  0  0  0  0  0
  140.3450   79.5140  223.2820 C   0  0  0  0  0  0  0  0  0  0  0  0
  139.0430   79.0090  223.2850 C   0  0  0  0  0  0  0  0  0  0  0  0
  138.2239   79.5995  223.7213 H   0  0  0  0  0  0  0  0  0  0  0  0
  138.7830   77.7530  222.7330 C   0  0  0  0  0  0  0  0  0  0  0  0
  137.7628   77.3423  222.7541 H   0  0  0  0  0  0  0  0  0  0  0  0
  142.4370   73.5880  220.0930 N   0  0  0  0  0  0  0  0  0  0  0  0
  143.2780   72.4860  219.6610 C   0  0  0  0  0  0  0  0  0  0  0  0
  143.2028   71.6462  220.3674 H   0  0  0  0  0  0  0  0  0  0  0  0
  142.9743   72.1058  218.6745 H   0  0  0  0  0  0  0  0  0  0  0  0
  144.6980   73.0360  219.6390 C   0  0  0  0  0  0  0  0  0  0  0  0
  145.3923   72.3179  220.0998 H   0  0  0  0  0  0  0  0  0  0  0  0
  145.0437   73.2126  218.6098 H   0  0  0  0  0  0  0  0  0  0  0  0
  144.6650   74.3320  220.4450 C   0  0  0  0  0  0  0  0  0  0  0  0
  145.0532   74.1606  221.4598 H   0  0  0  0  0  0  0  0  0  0  0  0
  145.2910   75.1093  219.9824 H   0  0  0  0  0  0  0  0  0  0  0  0
  143.1950   74.7580  220.5030 C   0  0  1  0  0  0  0  0  0  0  0  0
  142.9220   75.0981  221.5129 H   0  0  0  0  0  0  0  0  0  0  0  0
  142.9140   75.9170  219.5850 C   0  0  0  0  0  0  0  0  0  0  0  0
  143.8190   76.7670  219.3710 O   0  0  0  0  0  0  0  0  0  0  0  0
  141.6390   76.0460  218.9400 N   0  0  0  0  0  0  0  0  0  0  0  0
  140.8810   75.3620  219.1620 H   0  0  0  0  0  0  0  0  0  0  0  0
  141.3630   77.0770  217.9440 C   0  0  0  0  0  0  0  0  0  0  0  0
  142.2009   77.1280  217.2331 H   0  0  0  0  0  0  0  0  0  0  0  0
  140.4334   76.8221  217.4141 H   0  0  0  0  0  0  0  0  0  0  0  0
  141.1950   78.4150  218.6090 C   0  0  0  0  0  0  0  0  0  0  0  0
  142.2850   79.2950  218.7000 C   0  0  0  0  0  0  0  0  0  0  0  0
  143.2596   79.0060  218.2796 H   0  0  0  0  0  0  0  0  0  0  0  0
  142.1360   80.5350  219.3220 C   0  0  0  0  0  0  0  0  0  0  0  0
  143.0000   81.2100  219.4108 H   0  0  0  0  0  0  0  0  0  0  0  0
  140.8940   80.9240  219.8330 C   0  0  0  0  0  0  0  0  0  0  0  0
  140.7470   82.5020  220.5960 Cl  0  0  0  0  0  0  0  0  0  0  0  0
  139.7940   80.0530  219.7370 C   0  0  0  0  0  0  0  0  0  0  0  0
  138.2200   80.4990  220.3740 Cl  0  0  0  0  0  0  0  0  0  0  0  0
  139.9490   78.8030  219.1280 C   0  0  0  0  0  0  0  0  0  0  0  0
  139.0898   78.1200  219.0553 H   0  0  0  0  0  0  0  0  0  0  0  0
  1  2  1  0
  2  3  1  0
  3  4  2  0
  4  5  1  0
  4  6  1  0
  6  7  1  0
  7  8  2  0
  7  9  1  0
  9 10  2  0
 10 11  1  0
 11 12  2  0
 12 13  1  0
 12 14  1  0
 14 15  1  0
 14 16  2  0
 16 17  1  0
 16 18  1  0
 18 19  1  0
 18 20  2  0
 20 21  1  0
 21 22  1  0
 21 23  2  0
 23 24  1  0
  3 25  1  0
 25 26  1  0
 26 27  1  0
 26 28  1  0
 26 29  1  0
 29 30  1  0
 29 31  1  0
 29 32  1  0
 32 33  1  0
 32 34  1  0
 32 35  1  0
 35 36  1  1
 35 37  1  0
 37 38  2  0
 37 39  1  0
 39 40  1  0
 39 41  1  0
 41 42  1  0
 41 43  1  0
 41 44  1  0
 44 45  2  0
 45 46  1  0
 45 47  1  0
 47 48  1  0
 47 49  2  0
 49 50  1  0
 49 51  1  0
 51 52  1  0
 51 53  2  0
 53 54  1  0
 23  9  1  0
 35 25  1  0
 53 44  1  0
 20 11  1  0
M  CHG  1   6  -1
M  END
>  <UniqueID>  (34) 
158

>  <SMILES>  (34) 
O=C([N-]/C=C(\O)N1CCC[C@H]1C(=O)NCc1ccc(Cl)c(Cl)c1)c1ccc2ccccc2n1

>  <Energy>  (34) 
57.40724963464263

>  <Genealogy>  (34) 
O=C([N-]CC(=O)N1CCC[C@H]1C(=O)NCc1ccc(Cl)c(Cl)c1)c1ccc2ccccc2n1 (protonated)
O=C([N-]C=C(O)N1CCC[C@H]1C(=O)NCc1ccc(Cl)c(Cl)c1)c1ccc2ccccc2n1 (tautomer)
O=C([N-]/C=C(\O)N1CCC[C@H]1C(=O)NCc1ccc(Cl)c(Cl)c1)c1ccc2ccccc2n1 (cis-trans isomerization)
O=C([N-]/C=C(\O)N1CCC[C@H]1C(=O)NCc1ccc(Cl)c(Cl)c1)c1ccc2ccccc2n1 (3D coordinates assigned)
O=C([N-]/C=C(\O)N1CCC[C@H]1C(=O)NCc1ccc(Cl)c(Cl)c1)c1ccc2ccccc2n1 (nonaromatic ring conformer: 57.40724963464263 kcal/mol)

>  <smiles>  (34) 
O=C(NCC(=O)N1CCC[C@H]1C(=O)NCc1ccc(Cl)c(Cl)c1)c1ccc2ccccc2n1

>  <score_type>  (34) 
oracle

>  <origin>  (34) 
autodockgpu

>  <m_score__min__energy>  (34) 
-8.7400000000000002

>  <m_primary>  (34) 
energy

>  <meeko>  (34) 
{"free_energy": -6.07, "intermolecular_energy": -8.76, "internal_energy": -6.05, "cluster_size": 12, "cluster_id": 5, "rank_in_cluster": 12}

>  <energy>  (34) 
-6.37

>  <cluster_rmsd>  (34) 
0.13

>  <rmsd>  (34) 
271.22

>  <cluster>  (34) 
5

$$$$
NTBKPXNOUBMHTF-CKGUNICPNA-M
     RDKit          3D

 54 57  0  0  0  0  0  0  0  0999 V2000
  139.1640   74.1240  222.8130 H   0  0  0  0  0  0  0  0  0  0  0  0
  140.0140   73.8480  222.3340 O   0  0  0  0  0  0  0  0  0  0  0  0
  140.2500   74.2330  221.0160 C   0  0  0  0  0  0  0  0  0  0  0  0
  139.2580   74.7320  220.2820 C   0  0  0  0  0  0  0  0  0  0  0  0
  138.9141   74.1954  219.3854 H   0  0  0  0  0  0  0  0  0  0  0  0
  138.6390   75.9650  220.6580 N   0  0  0  0  0  0  0  0  0  0  0  0
  138.5400   76.4560  222.0000 C   0  0  0  0  0  0  0  0  0  0  0  0
  137.8380   75.8090  222.8230 O   0  0  0  0  0  0  0  0  0  0  0  0
  139.1790   77.7170  222.4440 C   0  0  0  0  0  0  0  0  0  0  0  0
  140.5290   77.8440  222.3130 N   0  0  0  0  0  0  0  0  0  0  0  0
  141.2010   78.9410  222.7510 C   0  0  0  0  0  0  0  0  0  0  0  0
  142.5880   79.0340  222.5760 C   0  0  0  0  0  0  0  0  0  0  0  0
  143.1379   78.2140  222.0910 H   0  0  0  0  0  0  0  0  0  0  0  0
  143.2720   80.1690  223.0180 C   0  0  0  0  0  0  0  0  0  0  0  0
  144.3607   80.2410  222.8785 H   0  0  0  0  0  0  0  0  0  0  0  0
  142.5790   81.2140  223.6370 C   0  0  0  0  0  0  0  0  0  0  0  0
  143.1244   82.1036  223.9850 H   0  0  0  0  0  0  0  0  0  0  0  0
  141.1930   81.1310  223.8150 C   0  0  0  0  0  0  0  0  0  0  0  0
  140.6500   81.9548  224.3012 H   0  0  0  0  0  0  0  0  0  0  0  0
  140.4980   79.9970  223.3730 C   0  0  0  0  0  0  0  0  0  0  0  0
  139.1140   79.8850  223.5300 C   0  0  0  0  0  0  0  0  0  0  0  0
  138.5461   80.6976  224.0066 H   0  0  0  0  0  0  0  0  0  0  0  0
  138.4530   78.7400  223.0810 C   0  0  0  0  0  0  0  0  0  0  0  0
  137.3672   78.6380  223.2250 H   0  0  0  0  0  0  0  0  0  0  0  0
  141.5550   74.0690  220.4520 N   0  0  0  0  0  0  0  0  0  0  0  0
  142.0510   72.7680  220.0410 C   0  0  0  0  0  0  0  0  0  0  0  0
  141.8835   72.0254  220.8351 H   0  0  0  0  0  0  0  0  0  0  0  0
  141.5335   72.4020  219.1420 H   0  0  0  0  0  0  0  0  0  0  0  0
  143.5430   72.9540  219.7940 C   0  0  0  0  0  0  0  0  0  0  0  0
  144.1102   72.1246  220.2417 H   0  0  0  0  0  0  0  0  0  0  0  0
  143.7733   72.9658  218.7185 H   0  0  0  0  0  0  0  0  0  0  0  0
  143.9220   74.2740  220.4590 C   0  0  0  0  0  0  0  0  0  0  0  0
  144.3978   74.0878  221.4331 H   0  0  0  0  0  0  0  0  0  0  0  0
  144.6393   74.8405  219.8470 H   0  0  0  0  0  0  0  0  0  0  0  0
  142.6140   75.0470  220.6460 C   0  0  1  0  0  0  0  0  0  0  0  0
  142.5720   75.5155  221.6404 H   0  0  0  0  0  0  0  0  0  0  0  0
  142.4820   76.1700  219.6520 C   0  0  0  0  0  0  0  0  0  0  0  0
  143.4010   76.3570  218.8100 O   0  0  0  0  0  0  0  0  0  0  0  0
  141.3180   77.0070  219.6440 N   0  0  0  0  0  0  0  0  0  0  0  0
  140.5860   76.8730  220.3760 H   0  0  0  0  0  0  0  0  0  0  0  0
  141.0870   78.0220  218.6200 C   0  0  0  0  0  0  0  0  0  0  0  0
  141.9548   78.0603  217.9451 H   0  0  0  0  0  0  0  0  0  0  0  0
  140.1806   77.7595  218.0548 H   0  0  0  0  0  0  0  0  0  0  0  0
  140.8930   79.3710  219.2550 C   0  0  0  0  0  0  0  0  0  0  0  0
  141.9860   80.2370  219.4130 C   0  0  0  0  0  0  0  0  0  0  0  0
  142.9837   79.9294  219.0667 H   0  0  0  0  0  0  0  0  0  0  0  0
  141.8110   81.4870  220.0080 C   0  0  0  0  0  0  0  0  0  0  0  0
  142.6760   82.1517  220.1489 H   0  0  0  0  0  0  0  0  0  0  0  0
  140.5420   81.8990  220.4260 C   0  0  0  0  0  0  0  0  0  0  0  0
  140.3640   83.4890  221.1570 Cl  0  0  0  0  0  0  0  0  0  0  0  0
  139.4390   81.0420  220.2630 C   0  0  0  0  0  0  0  0  0  0  0  0
  137.8310   81.5180  220.7820 Cl  0  0  0  0  0  0  0  0  0  0  0  0
  139.6180   79.7820  219.6800 C   0  0  0  0  0  0  0  0  0  0  0  0
  138.7562   79.1101  219.5538 H   0  0  0  0  0  0  0  0  0  0  0  0
  1  2  1  0
  2  3  1  0
  3  4  2  0
  4  5  1  0
  4  6  1  0
  6  7  1  0
  7  8  2  0
  7  9  1  0
  9 10  2  0
 10 11  1  0
 11 12  2  0
 12 13  1  0
 12 14  1  0
 14 15  1  0
 14 16  2  0
 16 17  1  0
 16 18  1  0
 18 19  1  0
 18 20  2  0
 20 21  1  0
 21 22  1  0
 21 23  2  0
 23 24  1  0
  3 25  1  0
 25 26  1  0
 26 27  1  0
 26 28  1  0
 26 29  1  0
 29 30  1  0
 29 31  1  0
 29 32  1  0
 32 33  1  0
 32 34  1  0
 32 35  1  0
 35 36  1  1
 35 37  1  0
 37 38  2  0
 37 39  1  0
 39 40  1  0
 39 41  1  0
 41 42  1  0
 41 43  1  0
 41 44  1  0
 44 45  2  0
 45 46  1  0
 45 47  1  0
 47 48  1  0
 47 49  2  0
 49 50  1  0
 49 51  1  0
 51 52  1  0
 51 53  2  0
 53 54  1  0
 23  9  1  0
 35 25  1  0
 53 44  1  0
 20 11  1  0
M  CHG  1   6  -1
M  END
>  <UniqueID>  (35) 
158

>  <SMILES>  (35) 
O=C([N-]/C=C(\O)N1CCC[C@H]1C(=O)NCc1ccc(Cl)c(Cl)c1)c1ccc2ccccc2n1

>  <Energy>  (35) 
57.40724963464263

>  <Genealogy>  (35) 
O=C([N-]CC(=O)N1CCC[C@H]1C(=O)NCc1ccc(Cl)c(Cl)c1)c1ccc2ccccc2n1 (protonated)
O=C([N-]C=C(O)N1CCC[C@H]1C(=O)NCc1ccc(Cl)c(Cl)c1)c1ccc2ccccc2n1 (tautomer)
O=C([N-]/C=C(\O)N1CCC[C@H]1C(=O)NCc1ccc(Cl)c(Cl)c1)c1ccc2ccccc2n1 (cis-trans isomerization)
O=C([N-]/C=C(\O)N1CCC[C@H]1C(=O)NCc1ccc(Cl)c(Cl)c1)c1ccc2ccccc2n1 (3D coordinates assigned)
O=C([N-]/C=C(\O)N1CCC[C@H]1C(=O)NCc1ccc(Cl)c(Cl)c1)c1ccc2ccccc2n1 (nonaromatic ring conformer: 57.40724963464263 kcal/mol)

>  <smiles>  (35) 
O=C(NCC(=O)N1CCC[C@H]1C(=O)NCc1ccc(Cl)c(Cl)c1)c1ccc2ccccc2n1

>  <score_type>  (35) 
oracle

>  <origin>  (35) 
autodockgpu

>  <m_score__min__energy>  (35) 
-8.7400000000000002

>  <m_primary>  (35) 
energy

>  <meeko>  (35) 
{"free_energy": -6.39, "intermolecular_energy": -9.08, "internal_energy": -6.16, "cluster_size": 12, "cluster_id": 5, "rank_in_cluster": 5}

>  <energy>  (35) 
-6.34

>  <cluster_rmsd>  (35) 
0.24

>  <rmsd>  (35) 
271.19

>  <cluster>  (35) 
5

$$$$
NTBKPXNOUBMHTF-CKGUNICPNA-M
     RDKit          3D

 54 57  0  0  0  0  0  0  0  0999 V2000
  139.2200   74.0830  222.8550 H   0  0  0  0  0  0  0  0  0  0  0  0
  140.0220   73.7240  222.3490 O   0  0  0  0  0  0  0  0  0  0  0  0
  140.2710   74.1120  221.0350 C   0  0  0  0  0  0  0  0  0  0  0  0
  139.2910   74.6330  220.2990 C   0  0  0  0  0  0  0  0  0  0  0  0
  138.9051   74.0825  219.4284 H   0  0  0  0  0  0  0  0  0  0  0  0
  138.7400   75.9080  220.6400 N   0  0  0  0  0  0  0  0  0  0  0  0
  138.5830   76.4020  221.9740 C   0  0  0  0  0  0  0  0  0  0  0  0
  137.8410   75.7600  222.7660 O   0  0  0  0  0  0  0  0  0  0  0  0
  139.2080   77.6610  222.4440 C   0  0  0  0  0  0  0  0  0  0  0  0
  140.5580   77.8000  222.3310 N   0  0  0  0  0  0  0  0  0  0  0  0
  141.2170   78.8960  222.7930 C   0  0  0  0  0  0  0  0  0  0  0  0
  142.6040   79.0010  222.6350 C   0  0  0  0  0  0  0  0  0  0  0  0
  143.1651   78.1919  222.1446 H   0  0  0  0  0  0  0  0  0  0  0  0
  143.2750   80.1350  223.1010 C   0  0  0  0  0  0  0  0  0  0  0  0
  144.3644   80.2181  222.9736 H   0  0  0  0  0  0  0  0  0  0  0  0
  142.5660   81.1650  223.7290 C   0  0  0  0  0  0  0  0  0  0  0  0
  143.1004   82.0529  224.0979 H   0  0  0  0  0  0  0  0  0  0  0  0
  141.1800   81.0690  223.8890 C   0  0  0  0  0  0  0  0  0  0  0  0
  140.6251   81.8816  224.3808 H   0  0  0  0  0  0  0  0  0  0  0  0
  140.4980   79.9360  223.4220 C   0  0  0  0  0  0  0  0  0  0  0  0
  139.1140   79.8120  223.5620 C   0  0  0  0  0  0  0  0  0  0  0  0
  138.5349   80.6130  224.0446 H   0  0  0  0  0  0  0  0  0  0  0  0
  138.4670   78.6690  223.0880 C   0  0  0  0  0  0  0  0  0  0  0  0
  137.3804   78.5568  223.2178 H   0  0  0  0  0  0  0  0  0  0  0  0
  141.5760   73.9290  220.4750 N   0  0  0  0  0  0  0  0  0  0  0  0
  142.0580   72.6190  220.0770 C   0  0  0  0  0  0  0  0  0  0  0  0
  141.8800   71.8856  220.8773 H   0  0  0  0  0  0  0  0  0  0  0  0
  141.5384   72.2511  219.1799 H   0  0  0  0  0  0  0  0  0  0  0  0
  143.5520   72.7850  219.8320 C   0  0  0  0  0  0  0  0  0  0  0  0
  144.1083   71.9526  220.2877 H   0  0  0  0  0  0  0  0  0  0  0  0
  143.7852   72.7851  218.7570 H   0  0  0  0  0  0  0  0  0  0  0  0
  143.9450   74.1070  220.4880 C   0  0  0  0  0  0  0  0  0  0  0  0
  144.4155   73.9234  221.4652 H   0  0  0  0  0  0  0  0  0  0  0  0
  144.6711   74.6602  219.8742 H   0  0  0  0  0  0  0  0  0  0  0  0
  142.6450   74.8960  220.6640 C   0  0  1  0  0  0  0  0  0  0  0  0
  142.6050   75.3732  221.6543 H   0  0  0  0  0  0  0  0  0  0  0  0
  142.5290   76.0120  219.6600 C   0  0  0  0  0  0  0  0  0  0  0  0
  143.4430   76.1690  218.8060 O   0  0  0  0  0  0  0  0  0  0  0  0
  141.3850   76.8760  219.6560 N   0  0  0  0  0  0  0  0  0  0  0  0
  140.6580   76.7670  220.3980 H   0  0  0  0  0  0  0  0  0  0  0  0
  141.1670   77.8870  218.6240 C   0  0  0  0  0  0  0  0  0  0  0  0
  142.0510   77.9355  217.9712 H   0  0  0  0  0  0  0  0  0  0  0  0
  140.2787   77.6122  218.0362 H   0  0  0  0  0  0  0  0  0  0  0  0
  140.9400   79.2340  219.2520 C   0  0  0  0  0  0  0  0  0  0  0  0
  142.0190   80.1120  219.4360 C   0  0  0  0  0  0  0  0  0  0  0  0
  143.0287   79.8144  219.1167 H   0  0  0  0  0  0  0  0  0  0  0  0
  141.8150   81.3620  220.0230 C   0  0  0  0  0  0  0  0  0  0  0  0
  142.6685   82.0372  220.1834 H   0  0  0  0  0  0  0  0  0  0  0  0
  140.5310   81.7600  220.4080 C   0  0  0  0  0  0  0  0  0  0  0  0
  140.3160   83.3490  221.1310 Cl  0  0  0  0  0  0  0  0  0  0  0  0
  139.4430   80.8910  220.2180 C   0  0  0  0  0  0  0  0  0  0  0  0
  137.8160   81.3490  220.6950 Cl  0  0  0  0  0  0  0  0  0  0  0  0
  139.6510   79.6310  219.6430 C   0  0  0  0  0  0  0  0  0  0  0  0
  138.8004   78.9489  219.4969 H   0  0  0  0  0  0  0  0  0  0  0  0
  1  2  1  0
  2  3  1  0
  3  4  2  0
  4  5  1  0
  4  6  1  0
  6  7  1  0
  7  8  2  0
  7  9  1  0
  9 10  2  0
 10 11  1  0
 11 12  2  0
 12 13  1  0
 12 14  1  0
 14 15  1  0
 14 16  2  0
 16 17  1  0
 16 18  1  0
 18 19  1  0
 18 20  2  0
 20 21  1  0
 21 22  1  0
 21 23  2  0
 23 24  1  0
  3 25  1  0
 25 26  1  0
 26 27  1  0
 26 28  1  0
 26 29  1  0
 29 30  1  0
 29 31  1  0
 29 32  1  0
 32 33  1  0
 32 34  1  0
 32 35  1  0
 35 36  1  1
 35 37  1  0
 37 38  2  0
 37 39  1  0
 39 40  1  0
 39 41  1  0
 41 42  1  0
 41 43  1  0
 41 44  1  0
 44 45  2  0
 45 46  1  0
 45 47  1  0
 47 48  1  0
 47 49  2  0
 49 50  1  0
 49 51  1  0
 51 52  1  0
 51 53  2  0
 53 54  1  0
 23  9  1  0
 35 25  1  0
 53 44  1  0
 20 11  1  0
M  CHG  1   6  -1
M  END
>  <UniqueID>  (36) 
158

>  <SMILES>  (36) 
O=C([N-]/C=C(\O)N1CCC[C@H]1C(=O)NCc1ccc(Cl)c(Cl)c1)c1ccc2ccccc2n1

>  <Energy>  (36) 
57.40724963464263

>  <Genealogy>  (36) 
O=C([N-]CC(=O)N1CCC[C@H]1C(=O)NCc1ccc(Cl)c(Cl)c1)c1ccc2ccccc2n1 (protonated)
O=C([N-]C=C(O)N1CCC[C@H]1C(=O)NCc1ccc(Cl)c(Cl)c1)c1ccc2ccccc2n1 (tautomer)
O=C([N-]/C=C(\O)N1CCC[C@H]1C(=O)NCc1ccc(Cl)c(Cl)c1)c1ccc2ccccc2n1 (cis-trans isomerization)
O=C([N-]/C=C(\O)N1CCC[C@H]1C(=O)NCc1ccc(Cl)c(Cl)c1)c1ccc2ccccc2n1 (3D coordinates assigned)
O=C([N-]/C=C(\O)N1CCC[C@H]1C(=O)NCc1ccc(Cl)c(Cl)c1)c1ccc2ccccc2n1 (nonaromatic ring conformer: 57.40724963464263 kcal/mol)

>  <smiles>  (36) 
O=C(NCC(=O)N1CCC[C@H]1C(=O)NCc1ccc(Cl)c(Cl)c1)c1ccc2ccccc2n1

>  <score_type>  (36) 
oracle

>  <origin>  (36) 
autodockgpu

>  <m_score__min__energy>  (36) 
-8.7400000000000002

>  <m_primary>  (36) 
energy

>  <meeko>  (36) 
{"free_energy": -6.42, "intermolecular_energy": -9.1, "internal_energy": -6.12, "cluster_size": 12, "cluster_id": 5, "rank_in_cluster": 2}

>  <energy>  (36) 
-6.33

>  <cluster_rmsd>  (36) 
0.19

>  <rmsd>  (36) 
271.27

>  <cluster>  (36) 
5

$$$$
NTBKPXNOUBMHTF-CKGUNICPNA-M
     RDKit          3D

 54 57  0  0  0  0  0  0  0  0999 V2000
  138.8400   74.4140  222.8590 H   0  0  0  0  0  0  0  0  0  0  0  0
  139.6680   74.0960  222.3670 O   0  0  0  0  0  0  0  0  0  0  0  0
  139.9290   74.5140  221.0640 C   0  0  0  0  0  0  0  0  0  0  0  0
  138.9590   75.0590  220.3330 C   0  0  0  0  0  0  0  0  0  0  0  0
  138.7334   74.6594  219.3333 H   0  0  0  0  0  0  0  0  0  0  0  0
  138.2100   76.1640  220.8470 N   0  0  0  0  0  0  0  0  0  0  0  0
  138.2670   76.6340  222.1990 C   0  0  0  0  0  0  0  0  0  0  0  0
  137.6290   75.9960  223.0800 O   0  0  0  0  0  0  0  0  0  0  0  0
  138.9930   77.8630  222.5930 C   0  0  0  0  0  0  0  0  0  0  0  0
  140.3310   77.9370  222.3470 N   0  0  0  0  0  0  0  0  0  0  0  0
  141.0830   79.0010  222.7330 C   0  0  0  0  0  0  0  0  0  0  0  0
  142.4520   79.0390  222.4400 C   0  0  0  0  0  0  0  0  0  0  0  0
  142.9234   78.2013  221.9052 H   0  0  0  0  0  0  0  0  0  0  0  0
  143.2190   80.1410  222.8270 C   0  0  0  0  0  0  0  0  0  0  0  0
  144.2936   80.1704  222.5939 H   0  0  0  0  0  0  0  0  0  0  0  0
  142.6240   81.2070  223.5100 C   0  0  0  0  0  0  0  0  0  0  0  0
  143.2336   82.0701  223.8156 H   0  0  0  0  0  0  0  0  0  0  0  0
  141.2570   81.1800  223.8060 C   0  0  0  0  0  0  0  0  0  0  0  0
  140.7925   82.0208  224.3421 H   0  0  0  0  0  0  0  0  0  0  0  0
  140.4800   80.0790  223.4180 C   0  0  0  0  0  0  0  0  0  0  0  0
  139.1110   80.0220  223.6930 C   0  0  0  0  0  0  0  0  0  0  0  0
  138.6202   80.8527  224.2214 H   0  0  0  0  0  0  0  0  0  0  0  0
  138.3670   78.9090  223.2960 C   0  0  0  0  0  0  0  0  0  0  0  0
  137.2943   78.8500  223.5322 H   0  0  0  0  0  0  0  0  0  0  0  0
  141.2380   74.3350  220.5110 N   0  0  0  0  0  0  0  0  0  0  0  0
  141.7140   73.0310  220.0840 C   0  0  0  0  0  0  0  0  0  0  0  0
  141.5240   72.2791  220.8641 H   0  0  0  0  0  0  0  0  0  0  0  0
  141.1994   72.6891  219.1739 H   0  0  0  0  0  0  0  0  0  0  0  0
  143.2110   73.1930  219.8560 C   0  0  0  0  0  0  0  0  0  0  0  0
  143.7577   72.3460  220.2962 H   0  0  0  0  0  0  0  0  0  0  0  0
  143.4528   73.2178  218.7832 H   0  0  0  0  0  0  0  0  0  0  0  0
  143.6080   74.4950  220.5460 C   0  0  0  0  0  0  0  0  0  0  0  0
  144.0696   74.2846  221.5221 H   0  0  0  0  0  0  0  0  0  0  0  0
  144.3428   75.0575  219.9513 H   0  0  0  0  0  0  0  0  0  0  0  0
  142.3120   75.2890  220.7310 C   0  0  1  0  0  0  0  0  0  0  0  0
  142.2675   75.7425  221.7322 H   0  0  0  0  0  0  0  0  0  0  0  0
  142.2120   76.4290  219.7540 C   0  0  0  0  0  0  0  0  0  0  0  0
  143.1860   76.6740  218.9920 O   0  0  0  0  0  0  0  0  0  0  0  0
  141.0180   77.2190  219.6710 N   0  0  0  0  0  0  0  0  0  0  0  0
  140.2370   77.0380  220.3400 H   0  0  0  0  0  0  0  0  0  0  0  0
  140.8260   78.2490  218.6530 C   0  0  0  0  0  0  0  0  0  0  0  0
  141.6790   78.2363  217.9585 H   0  0  0  0  0  0  0  0  0  0  0  0
  139.8930   78.0436  218.1077 H   0  0  0  0  0  0  0  0  0  0  0  0
  140.7290   79.6060  219.2950 C   0  0  0  0  0  0  0  0  0  0  0  0
  141.8570   80.4390  219.3480 C   0  0  0  0  0  0  0  0  0  0  0  0
  142.8099   80.0996  218.9158 H   0  0  0  0  0  0  0  0  0  0  0  0
  141.7740   81.6960  219.9470 C   0  0  0  0  0  0  0  0  0  0  0  0
  142.6677   82.3348  220.0051 H   0  0  0  0  0  0  0  0  0  0  0  0
  140.5600   82.1480  220.4740 C   0  0  0  0  0  0  0  0  0  0  0  0
  140.4950   83.7450  221.2080 Cl  0  0  0  0  0  0  0  0  0  0  0  0
  139.4220   81.3240  220.4160 C   0  0  0  0  0  0  0  0  0  0  0  0
  137.8810   81.8500  221.0740 Cl  0  0  0  0  0  0  0  0  0  0  0  0
  139.5100   80.0570  219.8290 C   0  0  0  0  0  0  0  0  0  0  0  0
  138.6208   79.4109  219.7853 H   0  0  0  0  0  0  0  0  0  0  0  0
  1  2  1  0
  2  3  1  0
  3  4  2  0
  4  5  1  0
  4  6  1  0
  6  7  1  0
  7  8  2  0
  7  9  1  0
  9 10  2  0
 10 11  1  0
 11 12  2  0
 12 13  1  0
 12 14  1  0
 14 15  1  0
 14 16  2  0
 16 17  1  0
 16 18  1  0
 18 19  1  0
 18 20  2  0
 20 21  1  0
 21 22  1  0
 21 23  2  0
 23 24  1  0
  3 25  1  0
 25 26  1  0
 26 27  1  0
 26 28  1  0
 26 29  1  0
 29 30  1  0
 29 31  1  0
 29 32  1  0
 32 33  1  0
 32 34  1  0
 32 35  1  0
 35 36  1  1
 35 37  1  0
 37 38  2  0
 37 39  1  0
 39 40  1  0
 39 41  1  0
 41 42  1  0
 41 43  1  0
 41 44  1  0
 44 45  2  0
 45 46  1  0
 45 47  1  0
 47 48  1  0
 47 49  2  0
 49 50  1  0
 49 51  1  0
 51 52  1  0
 51 53  2  0
 53 54  1  0
 23  9  1  0
 35 25  1  0
 53 44  1  0
 20 11  1  0
M  CHG  1   6  -1
M  END
>  <UniqueID>  (37) 
158

>  <SMILES>  (37) 
O=C([N-]/C=C(\O)N1CCC[C@H]1C(=O)NCc1ccc(Cl)c(Cl)c1)c1ccc2ccccc2n1

>  <Energy>  (37) 
57.40724963464263

>  <Genealogy>  (37) 
O=C([N-]CC(=O)N1CCC[C@H]1C(=O)NCc1ccc(Cl)c(Cl)c1)c1ccc2ccccc2n1 (protonated)
O=C([N-]C=C(O)N1CCC[C@H]1C(=O)NCc1ccc(Cl)c(Cl)c1)c1ccc2ccccc2n1 (tautomer)
O=C([N-]/C=C(\O)N1CCC[C@H]1C(=O)NCc1ccc(Cl)c(Cl)c1)c1ccc2ccccc2n1 (cis-trans isomerization)
O=C([N-]/C=C(\O)N1CCC[C@H]1C(=O)NCc1ccc(Cl)c(Cl)c1)c1ccc2ccccc2n1 (3D coordinates assigned)
O=C([N-]/C=C(\O)N1CCC[C@H]1C(=O)NCc1ccc(Cl)c(Cl)c1)c1ccc2ccccc2n1 (nonaromatic ring conformer: 57.40724963464263 kcal/mol)

>  <smiles>  (37) 
O=C(NCC(=O)N1CCC[C@H]1C(=O)NCc1ccc(Cl)c(Cl)c1)c1ccc2ccccc2n1

>  <score_type>  (37) 
oracle

>  <origin>  (37) 
autodockgpu

>  <m_score__min__energy>  (37) 
-8.7400000000000002

>  <m_primary>  (37) 
energy

>  <meeko>  (37) 
{"free_energy": -6.11, "intermolecular_energy": -8.8, "internal_energy": -6.17, "cluster_size": 12, "cluster_id": 5, "rank_in_cluster": 11}

>  <energy>  (37) 
-6.14

>  <cluster_rmsd>  (37) 
1.49

>  <rmsd>  (37) 
270.9

>  <cluster>  (37) 
5

$$$$
NTBKPXNOUBMHTF-CKGUNICPNA-M
     RDKit          3D

 54 57  0  0  0  0  0  0  0  0999 V2000
  138.1640   71.4180  224.2080 H   0  0  0  0  0  0  0  0  0  0  0  0
  138.2660   71.8610  223.3010 O   0  0  0  0  0  0  0  0  0  0  0  0
  138.6490   71.1210  222.1850 C   0  0  0  0  0  0  0  0  0  0  0  0
  137.9460   70.0500  221.8230 C   0  0  0  0  0  0  0  0  0  0  0  0
  137.6014   69.9434  220.7838 H   0  0  0  0  0  0  0  0  0  0  0  0
  137.6390   69.0380  222.7860 N   0  0  0  0  0  0  0  0  0  0  0  0
  138.6100   68.2970  223.5340 C   0  0  0  0  0  0  0  0  0  0  0  0
  138.9700   67.1710  223.0950 O   0  0  0  0  0  0  0  0  0  0  0  0
  139.1630   68.7700  224.8240 C   0  0  0  0  0  0  0  0  0  0  0  0
  139.6810   70.0290  224.8880 N   0  0  0  0  0  0  0  0  0  0  0  0
  140.2630   70.5180  226.0140 C   0  0  0  0  0  0  0  0  0  0  0  0
  140.7640   71.8250  226.0360 C   0  0  0  0  0  0  0  0  0  0  0  0
  140.6959   72.4558  225.1374 H   0  0  0  0  0  0  0  0  0  0  0  0
  141.3510   72.3280  227.2010 C   0  0  0  0  0  0  0  0  0  0  0  0
  141.7418   73.3561  227.2181 H   0  0  0  0  0  0  0  0  0  0  0  0
  141.4430   71.5280  228.3450 C   0  0  0  0  0  0  0  0  0  0  0  0
  141.9096   71.9280  229.2573 H   0  0  0  0  0  0  0  0  0  0  0  0
  140.9440   70.2220  228.3330 C   0  0  0  0  0  0  0  0  0  0  0  0
  141.0165   69.5967  229.2351 H   0  0  0  0  0  0  0  0  0  0  0  0
  140.3510   69.7100  227.1700 C   0  0  0  0  0  0  0  0  0  0  0  0
  139.8380   68.4110  227.1260 C   0  0  0  0  0  0  0  0  0  0  0  0
  139.8917   67.7669  228.0161 H   0  0  0  0  0  0  0  0  0  0  0  0
  139.2570   67.9320  225.9500 C   0  0  0  0  0  0  0  0  0  0  0  0
  138.8738   66.9019  225.9042 H   0  0  0  0  0  0  0  0  0  0  0  0
  139.8130   71.5060  221.4440 N   0  0  0  0  0  0  0  0  0  0  0  0
  140.4040   70.6350  220.4440 C   0  0  0  0  0  0  0  0  0  0  0  0
  140.5270   69.6183  220.8456 H   0  0  0  0  0  0  0  0  0  0  0  0
  139.7686   70.5545  219.5497 H   0  0  0  0  0  0  0  0  0  0  0  0
  141.7610   71.2440  220.1160 C   0  0  0  0  0  0  0  0  0  0  0  0
  142.5317   70.4601  220.0778 H   0  0  0  0  0  0  0  0  0  0  0  0
  141.7508   71.7420  219.1352 H   0  0  0  0  0  0  0  0  0  0  0  0
  142.0660   72.2320  221.2390 C   0  0  0  0  0  0  0  0  0  0  0  0
  142.7619   71.7837  221.9634 H   0  0  0  0  0  0  0  0  0  0  0  0
  142.5401   73.1461  220.8522 H   0  0  0  0  0  0  0  0  0  0  0  0
  140.7240   72.5390  221.9110 C   0  0  1  0  0  0  0  0  0  0  0  0
  140.8230   72.5438  223.0065 H   0  0  0  0  0  0  0  0  0  0  0  0
  140.2110   73.9030  221.5350 C   0  0  0  0  0  0  0  0  0  0  0  0
  140.7660   74.5320  220.5950 O   0  0  0  0  0  0  0  0  0  0  0  0
  139.0910   74.4770  222.2220 N   0  0  0  0  0  0  0  0  0  0  0  0
  138.6700   73.9680  223.0310 H   0  0  0  0  0  0  0  0  0  0  0  0
  138.4780   75.7370  221.8100 C   0  0  0  0  0  0  0  0  0  0  0  0
  138.4335   75.7766  220.7116 H   0  0  0  0  0  0  0  0  0  0  0  0
  137.4634   75.7955  222.2310 H   0  0  0  0  0  0  0  0  0  0  0  0
  139.2850   76.9010  222.3160 C   0  0  0  0  0  0  0  0  0  0  0  0
  140.6870   76.8480  222.2880 C   0  0  0  0  0  0  0  0  0  0  0  0
  141.1941   75.9562  221.8911 H   0  0  0  0  0  0  0  0  0  0  0  0
  141.4400   77.9230  222.7620 C   0  0  0  0  0  0  0  0  0  0  0  0
  142.5385   77.8656  222.7581 H   0  0  0  0  0  0  0  0  0  0  0  0
  140.8050   79.0730  223.2420 C   0  0  0  0  0  0  0  0  0  0  0  0
  141.7920   80.4100  223.8150 Cl  0  0  0  0  0  0  0  0  0  0  0  0
  139.4010   79.1390  223.2640 C   0  0  0  0  0  0  0  0  0  0  0  0
  138.5640   80.5600  223.8670 Cl  0  0  0  0  0  0  0  0  0  0  0  0
  138.6460   78.0530  222.8030 C   0  0  0  0  0  0  0  0  0  0  0  0
  137.5473   78.1026  222.8225 H   0  0  0  0  0  0  0  0  0  0  0  0
  1  2  1  0
  2  3  1  0
  3  4  2  0
  4  5  1  0
  4  6  1  0
  6  7  1  0
  7  8  2  0
  7  9  1  0
  9 10  2  0
 10 11  1  0
 11 12  2  0
 12 13  1  0
 12 14  1  0
 14 15  1  0
 14 16  2  0
 16 17  1  0
 16 18  1  0
 18 19  1  0
 18 20  2  0
 20 21  1  0
 21 22  1  0
 21 23  2  0
 23 24  1  0
  3 25  1  0
 25 26  1  0
 26 27  1  0
 26 28  1  0
 26 29  1  0
 29 30  1  0
 29 31  1  0
 29 32  1  0
 32 33  1  0
 32 34  1  0
 32 35  1  0
 35 36  1  1
 35 37  1  0
 37 38  2  0
 37 39  1  0
 39 40  1  0
 39 41  1  0
 41 42  1  0
 41 43  1  0
 41 44  1  0
 44 45  2  0
 45 46  1  0
 45 47  1  0
 47 48  1  0
 47 49  2  0
 49 50  1  0
 49 51  1  0
 51 52  1  0
 51 53  2  0
 53 54  1  0
 23  9  1  0
 35 25  1  0
 53 44  1  0
 20 11  1  0
M  CHG  1   6  -1
M  END
>  <UniqueID>  (38) 
158

>  <SMILES>  (38) 
O=C([N-]/C=C(\O)N1CCC[C@H]1C(=O)NCc1ccc(Cl)c(Cl)c1)c1ccc2ccccc2n1

>  <Energy>  (38) 
57.40724963464263

>  <Genealogy>  (38) 
O=C([N-]CC(=O)N1CCC[C@H]1C(=O)NCc1ccc(Cl)c(Cl)c1)c1ccc2ccccc2n1 (protonated)
O=C([N-]C=C(O)N1CCC[C@H]1C(=O)NCc1ccc(Cl)c(Cl)c1)c1ccc2ccccc2n1 (tautomer)
O=C([N-]/C=C(\O)N1CCC[C@H]1C(=O)NCc1ccc(Cl)c(Cl)c1)c1ccc2ccccc2n1 (cis-trans isomerization)
O=C([N-]/C=C(\O)N1CCC[C@H]1C(=O)NCc1ccc(Cl)c(Cl)c1)c1ccc2ccccc2n1 (3D coordinates assigned)
O=C([N-]/C=C(\O)N1CCC[C@H]1C(=O)NCc1ccc(Cl)c(Cl)c1)c1ccc2ccccc2n1 (nonaromatic ring conformer: 57.40724963464263 kcal/mol)

>  <smiles>  (38) 
O=C(NCC(=O)N1CCC[C@H]1C(=O)NCc1ccc(Cl)c(Cl)c1)c1ccc2ccccc2n1

>  <score_type>  (38) 
oracle

>  <origin>  (38) 
autodockgpu

>  <m_score__min__energy>  (38) 
-8.7400000000000002

>  <m_primary>  (38) 
energy

>  <meeko>  (38) 
{"free_energy": -8.63, "intermolecular_energy": -11.32, "internal_energy": -3.3, "cluster_size": 1, "cluster_id": 2, "rank_in_cluster": 1}

>  <energy>  (38) 
-6.12

>  <cluster_rmsd>  (38) 
1.49

>  <rmsd>  (38) 
270.88

>  <cluster>  (38) 
5

$$$$
NTBKPXNOUBMHTF-CKGUNICPNA-M
     RDKit          3D

 54 57  0  0  0  0  0  0  0  0999 V2000
  139.1410   74.1040  222.8390 H   0  0  0  0  0  0  0  0  0  0  0  0
  139.9740   73.7850  222.3560 O   0  0  0  0  0  0  0  0  0  0  0  0
  140.2280   74.1670  221.0410 C   0  0  0  0  0  0  0  0  0  0  0  0
  139.2530   74.6910  220.3010 C   0  0  0  0  0  0  0  0  0  0  0  0
  138.8963   74.1601  219.4061 H   0  0  0  0  0  0  0  0  0  0  0  0
  138.6690   75.9440  220.6690 N   0  0  0  0  0  0  0  0  0  0  0  0
  138.5540   76.4310  222.0100 C   0  0  0  0  0  0  0  0  0  0  0  0
  137.8410   75.7810  222.8230 O   0  0  0  0  0  0  0  0  0  0  0  0
  139.1870   77.6910  222.4650 C   0  0  0  0  0  0  0  0  0  0  0  0
  140.5380   77.8210  222.3480 N   0  0  0  0  0  0  0  0  0  0  0  0
  141.2040   78.9170  222.7970 C   0  0  0  0  0  0  0  0  0  0  0  0
  142.5920   79.0120  222.6360 C   0  0  0  0  0  0  0  0  0  0  0  0
  143.1473   78.1943  222.1532 H   0  0  0  0  0  0  0  0  0  0  0  0
  143.2710   80.1460  223.0890 C   0  0  0  0  0  0  0  0  0  0  0  0
  144.3609   80.2202  222.9599 H   0  0  0  0  0  0  0  0  0  0  0  0
  142.5700   81.1870  223.7060 C   0  0  0  0  0  0  0  0  0  0  0  0
  143.1108   82.0756  224.0636 H   0  0  0  0  0  0  0  0  0  0  0  0
  141.1830   81.1020  223.8700 C   0  0  0  0  0  0  0  0  0  0  0  0
  140.6345   81.9232  224.3546 H   0  0  0  0  0  0  0  0  0  0  0  0
  140.4930   79.9690  223.4160 C   0  0  0  0  0  0  0  0  0  0  0  0
  139.1080   79.8540  223.5600 C   0  0  0  0  0  0  0  0  0  0  0  0
  138.5347   80.6631  224.0360 H   0  0  0  0  0  0  0  0  0  0  0  0
  138.4530   78.7110  223.0990 C   0  0  0  0  0  0  0  0  0  0  0  0
  137.3658   78.6076  223.2308 H   0  0  0  0  0  0  0  0  0  0  0  0
  141.5330   73.9740  220.4850 N   0  0  0  0  0  0  0  0  0  0  0  0
  142.0050   72.6600  220.0860 C   0  0  0  0  0  0  0  0  0  0  0  0
  141.8186   71.9267  220.8845 H   0  0  0  0  0  0  0  0  0  0  0  0
  141.4850   72.2974  219.1871 H   0  0  0  0  0  0  0  0  0  0  0  0
  143.5010   72.8150  219.8460 C   0  0  0  0  0  0  0  0  0  0  0  0
  144.0493   71.9774  220.3018 H   0  0  0  0  0  0  0  0  0  0  0  0
  143.7370   72.8156  218.7716 H   0  0  0  0  0  0  0  0  0  0  0  0
  143.9030   74.1320  220.5050 C   0  0  0  0  0  0  0  0  0  0  0  0
  144.3693   73.9428  221.4831 H   0  0  0  0  0  0  0  0  0  0  0  0
  144.6353   74.6801  219.8940 H   0  0  0  0  0  0  0  0  0  0  0  0
  142.6090   74.9320  220.6790 C   0  0  1  0  0  0  0  0  0  0  0  0
  142.5694   75.4080  221.6699 H   0  0  0  0  0  0  0  0  0  0  0  0
  142.5060   76.0500  219.6770 C   0  0  0  0  0  0  0  0  0  0  0  0
  143.4260   76.2040  218.8300 O   0  0  0  0  0  0  0  0  0  0  0  0
  141.3670   76.9210  219.6680 N   0  0  0  0  0  0  0  0  0  0  0  0
  140.6350   76.8140  220.4050 H   0  0  0  0  0  0  0  0  0  0  0  0
  141.1610   77.9350  218.6370 C   0  0  0  0  0  0  0  0  0  0  0  0
  142.0458   77.9740  217.9846 H   0  0  0  0  0  0  0  0  0  0  0  0
  140.2699   77.6708  218.0486 H   0  0  0  0  0  0  0  0  0  0  0  0
  140.9490   79.2840  219.2660 C   0  0  0  0  0  0  0  0  0  0  0  0
  142.0380   80.1500  219.4520 C   0  0  0  0  0  0  0  0  0  0  0  0
  143.0445   79.8413  219.1331 H   0  0  0  0  0  0  0  0  0  0  0  0
  141.8480   81.4010  220.0400 C   0  0  0  0  0  0  0  0  0  0  0  0
  142.7090   82.0662  220.2022 H   0  0  0  0  0  0  0  0  0  0  0  0
  140.5680   81.8130  220.4240 C   0  0  0  0  0  0  0  0  0  0  0  0
  140.3710   83.4040  221.1490 Cl  0  0  0  0  0  0  0  0  0  0  0  0
  139.4700   80.9560  220.2330 C   0  0  0  0  0  0  0  0  0  0  0  0
  137.8480   81.4330  220.7080 Cl  0  0  0  0  0  0  0  0  0  0  0  0
  139.6640   79.6960  219.6560 C   0  0  0  0  0  0  0  0  0  0  0  0
  138.8055   79.0245  219.5070 H   0  0  0  0  0  0  0  0  0  0  0  0
  1  2  1  0
  2  3  1  0
  3  4  2  0
  4  5  1  0
  4  6  1  0
  6  7  1  0
  7  8  2  0
  7  9  1  0
  9 10  2  0
 10 11  1  0
 11 12  2  0
 12 13  1  0
 12 14  1  0
 14 15  1  0
 14 16  2  0
 16 17  1  0
 16 18  1  0
 18 19  1  0
 18 20  2  0
 20 21  1  0
 21 22  1  0
 21 23  2  0
 23 24  1  0
  3 25  1  0
 25 26  1  0
 26 27  1  0
 26 28  1  0
 26 29  1  0
 29 30  1  0
 29 31  1  0
 29 32  1  0
 32 33  1  0
 32 34  1  0
 32 35  1  0
 35 36  1  1
 35 37  1  0
 37 38  2  0
 37 39  1  0
 39 40  1  0
 39 41  1  0
 41 42  1  0
 41 43  1  0
 41 44  1  0
 44 45  2  0
 45 46  1  0
 45 47  1  0
 47 48  1  0
 47 49  2  0
 49 50  1  0
 49 51  1  0
 51 52  1  0
 51 53  2  0
 53 54  1  0
 23  9  1  0
 35 25  1  0
 53 44  1  0
 20 11  1  0
M  CHG  1   6  -1
M  END
>  <UniqueID>  (39) 
158

>  <SMILES>  (39) 
O=C([N-]/C=C(\O)N1CCC[C@H]1C(=O)NCc1ccc(Cl)c(Cl)c1)c1ccc2ccccc2n1

>  <Energy>  (39) 
57.40724963464263

>  <Genealogy>  (39) 
O=C([N-]CC(=O)N1CCC[C@H]1C(=O)NCc1ccc(Cl)c(Cl)c1)c1ccc2ccccc2n1 (protonated)
O=C([N-]C=C(O)N1CCC[C@H]1C(=O)NCc1ccc(Cl)c(Cl)c1)c1ccc2ccccc2n1 (tautomer)
O=C([N-]/C=C(\O)N1CCC[C@H]1C(=O)NCc1ccc(Cl)c(Cl)c1)c1ccc2ccccc2n1 (cis-trans isomerization)
O=C([N-]/C=C(\O)N1CCC[C@H]1C(=O)NCc1ccc(Cl)c(Cl)c1)c1ccc2ccccc2n1 (3D coordinates assigned)
O=C([N-]/C=C(\O)N1CCC[C@H]1C(=O)NCc1ccc(Cl)c(Cl)c1)c1ccc2ccccc2n1 (nonaromatic ring conformer: 57.40724963464263 kcal/mol)

>  <smiles>  (39) 
O=C(NCC(=O)N1CCC[C@H]1C(=O)NCc1ccc(Cl)c(Cl)c1)c1ccc2ccccc2n1

>  <score_type>  (39) 
oracle

>  <origin>  (39) 
autodockgpu

>  <m_score__min__energy>  (39) 
-8.7400000000000002

>  <m_primary>  (39) 
energy

>  <meeko>  (39) 
{"free_energy": -6.42, "intermolecular_energy": -9.11, "internal_energy": -6.14, "cluster_size": 12, "cluster_id": 5, "rank_in_cluster": 1}

>  <energy>  (39) 
-6.11

>  <cluster_rmsd>  (39) 
0.4

>  <rmsd>  (39) 
271.23

>  <cluster>  (39) 
5

$$$$
NTBKPXNOUBMHTF-CKGUNICPNA-M
     RDKit          3D

 54 57  0  0  0  0  0  0  0  0999 V2000
  139.5630   74.8010  223.0930 H   0  0  0  0  0  0  0  0  0  0  0  0
  139.9580   75.5200  222.4970 O   0  0  0  0  0  0  0  0  0  0  0  0
  140.6690   75.1830  221.3470 C   0  0  0  0  0  0  0  0  0  0  0  0
  141.1690   73.9570  221.2100 C   0  0  0  0  0  0  0  0  0  0  0  0
  141.6540   73.6633  220.2674 H   0  0  0  0  0  0  0  0  0  0  0  0
  141.0760   73.0210  222.2880 N   0  0  0  0  0  0  0  0  0  0  0  0
  139.8540   72.4690  222.7910 C   0  0  0  0  0  0  0  0  0  0  0  0
  138.7660   72.9270  222.3490 O   0  0  0  0  0  0  0  0  0  0  0  0
  139.8160   71.4270  223.8430 C   0  0  0  0  0  0  0  0  0  0  0  0
  140.3850   71.6990  225.0510 N   0  0  0  0  0  0  0  0  0  0  0  0
  140.4480   70.7780  226.0480 C   0  0  0  0  0  0  0  0  0  0  0  0
  141.0270   71.1120  227.2790 C   0  0  0  0  0  0  0  0  0  0  0  0
  141.4413   72.1186  227.4371 H   0  0  0  0  0  0  0  0  0  0  0  0
  141.0780   70.1660  228.3060 C   0  0  0  0  0  0  0  0  0  0  0  0
  141.5300   70.4307  229.2733 H   0  0  0  0  0  0  0  0  0  0  0  0
  140.5560   68.8830  228.1080 C   0  0  0  0  0  0  0  0  0  0  0  0
  140.6035   68.1408  228.9185 H   0  0  0  0  0  0  0  0  0  0  0  0
  139.9740   68.5410  226.8830 C   0  0  0  0  0  0  0  0  0  0  0  0
  139.5622   67.5323  226.7317 H   0  0  0  0  0  0  0  0  0  0  0  0
  139.9160   69.4850  225.8480 C   0  0  0  0  0  0  0  0  0  0  0  0
  139.3380   69.1770  224.6140 C   0  0  0  0  0  0  0  0  0  0  0  0
  138.9144   68.1772  224.4381 H   0  0  0  0  0  0  0  0  0  0  0  0
  139.2990   70.1410  223.6040 C   0  0  0  0  0  0  0  0  0  0  0  0
  138.8648   69.8949  222.6237 H   0  0  0  0  0  0  0  0  0  0  0  0
  140.8770   76.1670  220.3280 N   0  0  0  0  0  0  0  0  0  0  0  0
  140.2170   76.0810  219.0380 C   0  0  0  0  0  0  0  0  0  0  0  0
  140.3248   75.0697  218.6188 H   0  0  0  0  0  0  0  0  0  0  0  0
  139.1389   76.2837  219.1196 H   0  0  0  0  0  0  0  0  0  0  0  0
  140.9150   77.1020  218.1480 C   0  0  0  0  0  0  0  0  0  0  0  0
  141.1232   76.6673  217.1592 H   0  0  0  0  0  0  0  0  0  0  0  0
  140.2879   77.9917  217.9893 H   0  0  0  0  0  0  0  0  0  0  0  0
  142.2200   77.4590  218.8550 C   0  0  0  0  0  0  0  0  0  0  0  0
  143.0611   76.9141  218.4016 H   0  0  0  0  0  0  0  0  0  0  0  0
  142.4417   78.5331  218.7703 H   0  0  0  0  0  0  0  0  0  0  0  0
  142.0410   77.0390  220.3160 C   0  0  1  0  0  0  0  0  0  0  0  0
  142.9427   76.5357  220.6951 H   0  0  0  0  0  0  0  0  0  0  0  0
  141.8200   78.2260  221.2150 C   0  0  0  0  0  0  0  0  0  0  0  0
  141.9160   79.3870  220.7350 O   0  0  0  0  0  0  0  0  0  0  0  0
  141.4840   78.0440  222.5970 N   0  0  0  0  0  0  0  0  0  0  0  0
  141.4550   77.0780  222.9940 H   0  0  0  0  0  0  0  0  0  0  0  0
  141.1350   79.1570  223.4740 C   0  0  0  0  0  0  0  0  0  0  0  0
  141.4785   78.9356  224.4953 H   0  0  0  0  0  0  0  0  0  0  0  0
  141.6212   80.0710  223.1024 H   0  0  0  0  0  0  0  0  0  0  0  0
  139.6450   79.3660  223.4860 C   0  0  0  0  0  0  0  0  0  0  0  0
  139.1100   80.5730  223.9600 C   0  0  0  0  0  0  0  0  0  0  0  0
  139.7813   81.3672  224.3185 H   0  0  0  0  0  0  0  0  0  0  0  0
  137.7280   80.7690  223.9780 C   0  0  0  0  0  0  0  0  0  0  0  0
  137.3138   81.7091  224.3712 H   0  0  0  0  0  0  0  0  0  0  0  0
  136.8680   79.7770  223.4990 C   0  0  0  0  0  0  0  0  0  0  0  0
  135.1340   80.0710  223.5270 Cl  0  0  0  0  0  0  0  0  0  0  0  0
  137.3960   78.5680  223.0130 C   0  0  0  0  0  0  0  0  0  0  0  0
  136.3500   77.2930  222.4100 Cl  0  0  0  0  0  0  0  0  0  0  0  0
  138.7810   78.3660  223.0090 C   0  0  0  0  0  0  0  0  0  0  0  0
  139.1950   77.4198  222.6306 H   0  0  0  0  0  0  0  0  0  0  0  0
  1  2  1  0
  2  3  1  0
  3  4  2  0
  4  5  1  0
  4  6  1  0
  6  7  1  0
  7  8  2  0
  7  9  1  0
  9 10  2  0
 10 11  1  0
 11 12  2  0
 12 13  1  0
 12 14  1  0
 14 15  1  0
 14 16  2  0
 16 17  1  0
 16 18  1  0
 18 19  1  0
 18 20  2  0
 20 21  1  0
 21 22  1  0
 21 23  2  0
 23 24  1  0
  3 25  1  0
 25 26  1  0
 26 27  1  0
 26 28  1  0
 26 29  1  0
 29 30  1  0
 29 31  1  0
 29 32  1  0
 32 33  1  0
 32 34  1  0
 32 35  1  0
 35 36  1  1
 35 37  1  0
 37 38  2  0
 37 39  1  0
 39 40  1  0
 39 41  1  0
 41 42  1  0
 41 43  1  0
 41 44  1  0
 44 45  2  0
 45 46  1  0
 45 47  1  0
 47 48  1  0
 47 49  2  0
 49 50  1  0
 49 51  1  0
 51 52  1  0
 51 53  2  0
 53 54  1  0
 23  9  1  0
 35 25  1  0
 53 44  1  0
 20 11  1  0
M  CHG  1   6  -1
M  END
>  <UniqueID>  (40) 
158

>  <SMILES>  (40) 
O=C([N-]/C=C(\O)N1CCC[C@H]1C(=O)NCc1ccc(Cl)c(Cl)c1)c1ccc2ccccc2n1

>  <Energy>  (40) 
57.40724963464263

>  <Genealogy>  (40) 
O=C([N-]CC(=O)N1CCC[C@H]1C(=O)NCc1ccc(Cl)c(Cl)c1)c1ccc2ccccc2n1 (protonated)
O=C([N-]C=C(O)N1CCC[C@H]1C(=O)NCc1ccc(Cl)c(Cl)c1)c1ccc2ccccc2n1 (tautomer)
O=C([N-]/C=C(\O)N1CCC[C@H]1C(=O)NCc1ccc(Cl)c(Cl)c1)c1ccc2ccccc2n1 (cis-trans isomerization)
O=C([N-]/C=C(\O)N1CCC[C@H]1C(=O)NCc1ccc(Cl)c(Cl)c1)c1ccc2ccccc2n1 (3D coordinates assigned)
O=C([N-]/C=C(\O)N1CCC[C@H]1C(=O)NCc1ccc(Cl)c(Cl)c1)c1ccc2ccccc2n1 (nonaromatic ring conformer: 57.40724963464263 kcal/mol)

>  <smiles>  (40) 
O=C(NCC(=O)N1CCC[C@H]1C(=O)NCc1ccc(Cl)c(Cl)c1)c1ccc2ccccc2n1

>  <score_type>  (40) 
oracle

>  <origin>  (40) 
autodockgpu

>  <m_score__min__energy>  (40) 
-8.7400000000000002

>  <m_primary>  (40) 
energy

>  <meeko>  (40) 
{"free_energy": -8.11, "intermolecular_energy": -10.79, "internal_energy": -3.43, "cluster_size": 1, "cluster_id": 4, "rank_in_cluster": 1}

>  <energy>  (40) 
-6.07

>  <cluster_rmsd>  (40) 
1.31

>  <rmsd>  (40) 
270.93

>  <cluster>  (40) 
5

$$$$
NTBKPXNOUBMHTF-GGMSAQKCNA-L
     RDKit          3D

 53 56  0  0  0  0  0  0  0  0999 V2000
  145.5020   72.2380  221.9510 H   0  0  0  0  0  0  0  0  0  0  0  0
  145.0080   73.0450  221.5880 O   0  0  0  0  0  0  0  0  0  0  0  0
  144.6750   73.1880  220.2370 C   0  0  0  0  0  0  0  0  0  0  0  0
  145.5610   72.8990  219.2760 C   0  0  0  0  0  0  0  0  0  0  0  0
  145.7078   73.6035  218.4440 H   0  0  0  0  0  0  0  0  0  0  0  0
  146.3200   71.6860  219.3160 N   0  0  0  0  0  0  0  0  0  0  0  0
  145.8840   70.4010  218.8490 C   0  0  0  0  0  0  0  0  0  0  0  0
  146.7070   69.6900  218.2110 O   0  0  0  0  0  0  0  0  0  0  0  0
  144.5090   69.8960  219.0600 C   0  0  0  0  0  0  0  0  0  0  0  0
  143.4380   70.6540  218.7000 N   0  0  0  0  0  0  0  0  0  0  0  0
  142.1580   70.2300  218.8700 C   0  0  0  0  0  0  0  0  0  0  0  0
  141.0890   71.0590  218.5120 C   0  0  0  0  0  0  0  0  0  0  0  0
  141.2834   72.0540  218.0852 H   0  0  0  0  0  0  0  0  0  0  0  0
  139.7730   70.6220  218.6970 C   0  0  0  0  0  0  0  0  0  0  0  0
  138.9335   71.2753  218.4169 H   0  0  0  0  0  0  0  0  0  0  0  0
  139.5220   69.3570  219.2370 C   0  0  0  0  0  0  0  0  0  0  0  0
  138.4852   69.0174  219.3771 H   0  0  0  0  0  0  0  0  0  0  0  0
  140.5840   68.5210  219.6000 C   0  0  0  0  0  0  0  0  0  0  0  0
  140.3821   67.5260  220.0234 H   0  0  0  0  0  0  0  0  0  0  0  0
  141.9060   68.9540  219.4230 C   0  0  0  0  0  0  0  0  0  0  0  0
  142.9930   68.1490  219.7850 C   0  0  0  0  0  0  0  0  0  0  0  0
  142.8206   67.1504  220.2128 H   0  0  0  0  0  0  0  0  0  0  0  0
  144.2960   68.6160  219.6020 C   0  0  0  0  0  0  0  0  0  0  0  0
  145.1528   67.9850  219.8808 H   0  0  0  0  0  0  0  0  0  0  0  0
  143.3450   73.6250  219.8960 N   0  0  0  0  0  0  0  0  0  0  0  0
  142.8760   73.8190  218.5300 C   0  0  0  0  0  0  0  0  0  0  0  0
  143.5484   74.4986  217.9859 H   0  0  0  0  0  0  0  0  0  0  0  0
  142.8527   72.8731  217.9690 H   0  0  0  0  0  0  0  0  0  0  0  0
  141.4870   74.4340  218.6580 C   0  0  0  0  0  0  0  0  0  0  0  0
  141.3665   75.2641  217.9464 H   0  0  0  0  0  0  0  0  0  0  0  0
  140.6944   73.7046  218.4349 H   0  0  0  0  0  0  0  0  0  0  0  0
  141.4010   74.9440  220.0920 C   0  0  0  0  0  0  0  0  0  0  0  0
  141.6982   76.0018  220.1433 H   0  0  0  0  0  0  0  0  0  0  0  0
  140.3770   74.8818  220.4890 H   0  0  0  0  0  0  0  0  0  0  0  0
  142.3780   74.0720  220.8900 C   0  0  1  0  0  0  0  0  0  0  0  0
  142.8069   74.6434  221.7264 H   0  0  0  0  0  0  0  0  0  0  0  0
  141.7250   72.8600  221.5110 C   0  0  0  0  0  0  0  0  0  0  0  0
  142.1890   71.7010  221.3280 O   0  0  0  0  0  0  0  0  0  0  0  0
  140.5720   73.0380  222.3420 N   0  0  0  0  0  0  0  0  0  0  0  0
  139.5320   72.0240  222.4670 C   0  0  0  0  0  0  0  0  0  0  0  0
  138.5497   72.5125  222.5472 H   0  0  0  0  0  0  0  0  0  0  0  0
  139.5426   71.3726  221.5807 H   0  0  0  0  0  0  0  0  0  0  0  0
  139.7880   71.2020  223.7020 C   0  0  0  0  0  0  0  0  0  0  0  0
  139.4180   69.8480  223.7440 C   0  0  0  0  0  0  0  0  0  0  0  0
  138.9981   69.3671  222.8482 H   0  0  0  0  0  0  0  0  0  0  0  0
  139.5810   69.1080  224.9200 C   0  0  0  0  0  0  0  0  0  0  0  0
  139.3038   68.0437  224.9403 H   0  0  0  0  0  0  0  0  0  0  0  0
  140.0950   69.7160  226.0700 C   0  0  0  0  0  0  0  0  0  0  0  0
  140.2870   68.7570  227.5320 Cl  0  0  0  0  0  0  0  0  0  0  0  0
  140.4500   71.0760  226.0410 C   0  0  0  0  0  0  0  0  0  0  0  0
  141.0640   71.8900  227.4730 Cl  0  0  0  0  0  0  0  0  0  0  0  0
  140.3000   71.8100  224.8600 C   0  0  0  0  0  0  0  0  0  0  0  0
  140.5853   72.8721  224.8379 H   0  0  0  0  0  0  0  0  0  0  0  0
  1  2  1  0
  2  3  1  0
  3  4  2  0
  4  5  1  0
  4  6  1  0
  6  7  1  0
  7  8  2  0
  7  9  1  0
  9 10  2  0
 10 11  1  0
 11 12  2  0
 12 13  1  0
 12 14  1  0
 14 15  1  0
 14 16  2  0
 16 17  1  0
 16 18  1  0
 18 19  1  0
 18 20  2  0
 20 21  1  0
 21 22  1  0
 21 23  2  0
 23 24  1  0
  3 25  1  0
 25 26  1  0
 26 27  1  0
 26 28  1  0
 26 29  1  0
 29 30  1  0
 29 31  1  0
 29 32  1  0
 32 33  1  0
 32 34  1  0
 32 35  1  0
 35 36  1  1
 35 37  1  0
 37 38  2  0
 37 39  1  0
 39 40  1  0
 40 41  1  0
 40 42  1  0
 40 43  1  0
 43 44  2  0
 44 45  1  0
 44 46  1  0
 46 47  1  0
 46 48  2  0
 48 49  1  0
 48 50  1  0
 50 51  1  0
 50 52  2  0
 52 53  1  0
 23  9  1  0
 35 25  1  0
 52 43  1  0
 20 11  1  0
M  CHG  2   6  -1  39  -1
M  END
>  <UniqueID>  (41) 
159

>  <SMILES>  (41) 
O=C([N-]/C=C(\O)N1CCC[C@H]1C(=O)[N-]Cc1ccc(Cl)c(Cl)c1)c1ccc2ccccc2n1

>  <Energy>  (41) 
58.6885989682861

>  <Genealogy>  (41) 
O=C([N-]CC(=O)N1CCC[C@H]1C(=O)[N-]Cc1ccc(Cl)c(Cl)c1)c1ccc2ccccc2n1 (protonated)
O=C([N-]C=C(O)N1CCC[C@H]1C(=O)[N-]Cc1ccc(Cl)c(Cl)c1)c1ccc2ccccc2n1 (tautomer)
O=C([N-]/C=C(\O)N1CCC[C@H]1C(=O)[N-]Cc1ccc(Cl)c(Cl)c1)c1ccc2ccccc2n1 (cis-trans isomerization)
O=C([N-]/C=C(\O)N1CCC[C@H]1C(=O)[N-]Cc1ccc(Cl)c(Cl)c1)c1ccc2ccccc2n1 (3D coordinates assigned)
O=C([N-]/C=C(\O)N1CCC[C@H]1C(=O)[N-]Cc1ccc(Cl)c(Cl)c1)c1ccc2ccccc2n1 (nonaromatic ring conformer: 58.6885989682861 kcal/mol)

>  <smiles>  (41) 
O=C(NCC(=O)N1CCC[C@H]1C(=O)NCc1ccc(Cl)c(Cl)c1)c1ccc2ccccc2n1

>  <score_type>  (41) 
oracle

>  <origin>  (41) 
autodockgpu

>  <m_score__min__energy>  (41) 
-7.9299999999999997

>  <m_primary>  (41) 
energy

>  <meeko>  (41) 
{"free_energy": -6.7, "intermolecular_energy": -9.68, "internal_energy": -2.84, "cluster_size": 1, "cluster_id": 11, "rank_in_cluster": 1}

>  <energy>  (41) 
-7.93

>  <cluster_rmsd>  (41) 
0.0

>  <rmsd>  (41) 
271.28

>  <cluster>  (41) 
1

$$$$
NTBKPXNOUBMHTF-GGMSAQKCNA-L
     RDKit          3D

 53 56  0  0  0  0  0  0  0  0999 V2000
  138.8470   74.3270  222.8590 H   0  0  0  0  0  0  0  0  0  0  0  0
  139.1840   75.2730  222.7220 O   0  0  0  0  0  0  0  0  0  0  0  0
  140.3440   75.5700  222.0000 C   0  0  0  0  0  0  0  0  0  0  0  0
  141.0870   74.5950  221.4610 C   0  0  0  0  0  0  0  0  0  0  0  0
  141.7153   74.8132  220.5849 H   0  0  0  0  0  0  0  0  0  0  0  0
  141.0750   73.2730  222.0090 N   0  0  0  0  0  0  0  0  0  0  0  0
  139.9080   72.4970  222.3160 C   0  0  0  0  0  0  0  0  0  0  0  0
  138.9040   72.6080  221.5610 O   0  0  0  0  0  0  0  0  0  0  0  0
  139.8270   71.6010  223.4920 C   0  0  0  0  0  0  0  0  0  0  0  0
  140.4680   71.9280  224.6470 N   0  0  0  0  0  0  0  0  0  0  0  0
  140.4180   71.1400  225.7530 C   0  0  0  0  0  0  0  0  0  0  0  0
  141.1180   71.5050  226.9090 C   0  0  0  0  0  0  0  0  0  0  0  0
  141.7041   72.4357  226.9264 H   0  0  0  0  0  0  0  0  0  0  0  0
  141.0720   70.6860  228.0420 C   0  0  0  0  0  0  0  0  0  0  0  0
  141.6246   70.9727  228.9489 H   0  0  0  0  0  0  0  0  0  0  0  0
  140.3250   69.5030  228.0250 C   0  0  0  0  0  0  0  0  0  0  0  0
  140.2892   68.8646  228.9200 H   0  0  0  0  0  0  0  0  0  0  0  0
  139.6230   69.1290  226.8730 C   0  0  0  0  0  0  0  0  0  0  0  0
  139.0366   68.1984  226.8635 H   0  0  0  0  0  0  0  0  0  0  0  0
  139.6680   69.9420  225.7310 C   0  0  0  0  0  0  0  0  0  0  0  0
  138.9880   69.5920  224.5590 C   0  0  0  0  0  0  0  0  0  0  0  0
  138.3966   68.6653  224.5207 H   0  0  0  0  0  0  0  0  0  0  0  0
  139.0620   70.4220  223.4380 C   0  0  0  0  0  0  0  0  0  0  0  0
  138.5241   70.1546  222.5165 H   0  0  0  0  0  0  0  0  0  0  0  0
  140.7100   76.9520  221.8190 N   0  0  0  0  0  0  0  0  0  0  0  0
  141.5910   77.4290  220.7610 C   0  0  0  0  0  0  0  0  0  0  0  0
  142.5445   76.8808  220.7787 H   0  0  0  0  0  0  0  0  0  0  0  0
  141.1511   77.2760  219.7645 H   0  0  0  0  0  0  0  0  0  0  0  0
  141.8210   78.9070  221.0560 C   0  0  0  0  0  0  0  0  0  0  0  0
  142.8836   79.1633  220.9331 H   0  0  0  0  0  0  0  0  0  0  0  0
  141.2552   79.5543  220.3697 H   0  0  0  0  0  0  0  0  0  0  0  0
  141.3890   79.1020  222.5060 C   0  0  0  0  0  0  0  0  0  0  0  0
  142.2504   78.9986  223.1822 H   0  0  0  0  0  0  0  0  0  0  0  0
  140.9686   80.1038  222.6783 H   0  0  0  0  0  0  0  0  0  0  0  0
  140.3610   77.9960  222.7720 C   0  0  1  0  0  0  0  0  0  0  0  0
  140.3951   77.6861  223.8269 H   0  0  0  0  0  0  0  0  0  0  0  0
  138.9370   78.4320  222.5170 C   0  0  0  0  0  0  0  0  0  0  0  0
  138.3820   79.3070  223.2360 O   0  0  0  0  0  0  0  0  0  0  0  0
  138.2160   77.8530  221.4230 N   0  0  0  0  0  0  0  0  0  0  0  0
  136.7750   77.6410  221.4590 C   0  0  0  0  0  0  0  0  0  0  0  0
  136.2939   78.4738  221.9929 H   0  0  0  0  0  0  0  0  0  0  0  0
  136.3830   77.5925  220.4324 H   0  0  0  0  0  0  0  0  0  0  0  0
  136.4820   76.3480  222.1740 C   0  0  0  0  0  0  0  0  0  0  0  0
  136.6420   75.1190  221.5160 C   0  0  0  0  0  0  0  0  0  0  0  0
  137.0453   75.0943  220.4929 H   0  0  0  0  0  0  0  0  0  0  0  0
  136.2910   73.9250  222.1550 C   0  0  0  0  0  0  0  0  0  0  0  0
  136.4357   72.9644  221.6390 H   0  0  0  0  0  0  0  0  0  0  0  0
  135.7570   73.9480  223.4470 C   0  0  0  0  0  0  0  0  0  0  0  0
  135.3260   72.4290  224.2220 Cl  0  0  0  0  0  0  0  0  0  0  0  0
  135.5750   75.1770  224.1050 C   0  0  0  0  0  0  0  0  0  0  0  0
  134.8720   75.2540  225.7150 Cl  0  0  0  0  0  0  0  0  0  0  0  0
  135.9410   76.3680  223.4700 C   0  0  0  0  0  0  0  0  0  0  0  0
  135.8041   77.3279  223.9895 H   0  0  0  0  0  0  0  0  0  0  0  0
  1  2  1  0
  2  3  1  0
  3  4  2  0
  4  5  1  0
  4  6  1  0
  6  7  1  0
  7  8  2  0
  7  9  1  0
  9 10  2  0
 10 11  1  0
 11 12  2  0
 12 13  1  0
 12 14  1  0
 14 15  1  0
 14 16  2  0
 16 17  1  0
 16 18  1  0
 18 19  1  0
 18 20  2  0
 20 21  1  0
 21 22  1  0
 21 23  2  0
 23 24  1  0
  3 25  1  0
 25 26  1  0
 26 27  1  0
 26 28  1  0
 26 29  1  0
 29 30  1  0
 29 31  1  0
 29 32  1  0
 32 33  1  0
 32 34  1  0
 32 35  1  0
 35 36  1  1
 35 37  1  0
 37 38  2  0
 37 39  1  0
 39 40  1  0
 40 41  1  0
 40 42  1  0
 40 43  1  0
 43 44  2  0
 44 45  1  0
 44 46  1  0
 46 47  1  0
 46 48  2  0
 48 49  1  0
 48 50  1  0
 50 51  1  0
 50 52  2  0
 52 53  1  0
 23  9  1  0
 35 25  1  0
 52 43  1  0
 20 11  1  0
M  CHG  2   6  -1  39  -1
M  END
>  <UniqueID>  (42) 
159

>  <SMILES>  (42) 
O=C([N-]/C=C(\O)N1CCC[C@H]1C(=O)[N-]Cc1ccc(Cl)c(Cl)c1)c1ccc2ccccc2n1

>  <Energy>  (42) 
58.6885989682861

>  <Genealogy>  (42) 
O=C([N-]CC(=O)N1CCC[C@H]1C(=O)[N-]Cc1ccc(Cl)c(Cl)c1)c1ccc2ccccc2n1 (protonated)
O=C([N-]C=C(O)N1CCC[C@H]1C(=O)[N-]Cc1ccc(Cl)c(Cl)c1)c1ccc2ccccc2n1 (tautomer)
O=C([N-]/C=C(\O)N1CCC[C@H]1C(=O)[N-]Cc1ccc(Cl)c(Cl)c1)c1ccc2ccccc2n1 (cis-trans isomerization)
O=C([N-]/C=C(\O)N1CCC[C@H]1C(=O)[N-]Cc1ccc(Cl)c(Cl)c1)c1ccc2ccccc2n1 (3D coordinates assigned)
O=C([N-]/C=C(\O)N1CCC[C@H]1C(=O)[N-]Cc1ccc(Cl)c(Cl)c1)c1ccc2ccccc2n1 (nonaromatic ring conformer: 58.6885989682861 kcal/mol)

>  <smiles>  (42) 
O=C(NCC(=O)N1CCC[C@H]1C(=O)NCc1ccc(Cl)c(Cl)c1)c1ccc2ccccc2n1

>  <score_type>  (42) 
oracle

>  <origin>  (42) 
autodockgpu

>  <m_score__min__energy>  (42) 
-7.9299999999999997

>  <m_primary>  (42) 
energy

>  <meeko>  (42) 
{"free_energy": -7.5, "intermolecular_energy": -10.48, "internal_energy": -2.79, "cluster_size": 2, "cluster_id": 3, "rank_in_cluster": 1}

>  <energy>  (42) 
-7.47

>  <cluster_rmsd>  (42) 
1.47

>  <rmsd>  (42) 
270.83

>  <cluster>  (42) 
1

$$$$
NTBKPXNOUBMHTF-GGMSAQKCNA-L
     RDKit          3D

 53 56  0  0  0  0  0  0  0  0999 V2000
  139.0700   74.7890  223.0910 H   0  0  0  0  0  0  0  0  0  0  0  0
  138.2900   75.2780  222.6680 O   0  0  0  0  0  0  0  0  0  0  0  0
  137.1960   74.6180  222.0980 C   0  0  0  0  0  0  0  0  0  0  0  0
  137.3750   73.6090  221.2360 C   0  0  0  0  0  0  0  0  0  0  0  0
  136.8851   73.6425  220.2517 H   0  0  0  0  0  0  0  0  0  0  0  0
  138.1960   72.4870  221.5790 N   0  0  0  0  0  0  0  0  0  0  0  0
  139.2640   72.4840  222.5370 C   0  0  0  0  0  0  0  0  0  0  0  0
  140.1870   73.3320  222.4030 O   0  0  0  0  0  0  0  0  0  0  0  0
  139.3380   71.5120  223.6510 C   0  0  0  0  0  0  0  0  0  0  0  0
  140.0850   71.7920  224.7550 N   0  0  0  0  0  0  0  0  0  0  0  0
  140.1780   70.9330  225.8040 C   0  0  0  0  0  0  0  0  0  0  0  0
  140.9830   71.2530  226.9040 C   0  0  0  0  0  0  0  0  0  0  0  0
  141.5355   72.2040  226.9238 H   0  0  0  0  0  0  0  0  0  0  0  0
  141.0840   70.3620  227.9780 C   0  0  0  0  0  0  0  0  0  0  0  0
  141.7183   70.6131  228.8409 H   0  0  0  0  0  0  0  0  0  0  0  0
  140.3810   69.1530  227.9580 C   0  0  0  0  0  0  0  0  0  0  0  0
  140.4619   68.4581  228.8068 H   0  0  0  0  0  0  0  0  0  0  0  0
  139.5750   68.8240  226.8620 C   0  0  0  0  0  0  0  0  0  0  0  0
  139.0225   67.8729  226.8502 H   0  0  0  0  0  0  0  0  0  0  0  0
  139.4730   69.7090  225.7790 C   0  0  0  0  0  0  0  0  0  0  0  0
  138.6850   69.4070  224.6610 C   0  0  0  0  0  0  0  0  0  0  0  0
  138.1241   68.4616  224.6211 H   0  0  0  0  0  0  0  0  0  0  0  0
  138.6130   70.3090  223.5970 C   0  0  0  0  0  0  0  0  0  0  0  0
  137.9909   70.0786  222.7195 H   0  0  0  0  0  0  0  0  0  0  0  0
  135.8680   75.0260  222.4790 N   0  0  0  0  0  0  0  0  0  0  0  0
  134.7440   75.1060  221.5560 C   0  0  0  0  0  0  0  0  0  0  0  0
  135.0001   75.7381  220.6930 H   0  0  0  0  0  0  0  0  0  0  0  0
  134.4710   74.1167  221.1602 H   0  0  0  0  0  0  0  0  0  0  0  0
  133.6040   75.7290  222.3520 C   0  0  0  0  0  0  0  0  0  0  0  0
  133.0921   76.4974  221.7541 H   0  0  0  0  0  0  0  0  0  0  0  0
  132.8449   74.9835  222.6314 H   0  0  0  0  0  0  0  0  0  0  0  0
  134.2610   76.3560  223.5770 C   0  0  0  0  0  0  0  0  0  0  0  0
  134.4949   77.4145  223.3900 H   0  0  0  0  0  0  0  0  0  0  0  0
  133.6016   76.3275  224.4570 H   0  0  0  0  0  0  0  0  0  0  0  0
  135.5480   75.5520  223.7990 C   0  0  1  0  0  0  0  0  0  0  0  0
  136.3273   76.1897  224.2417 H   0  0  0  0  0  0  0  0  0  0  0  0
  135.3720   74.3960  224.7550 C   0  0  0  0  0  0  0  0  0  0  0  0
  135.8600   73.2600  224.5030 O   0  0  0  0  0  0  0  0  0  0  0  0
  134.6580   74.6040  225.9780 N   0  0  0  0  0  0  0  0  0  0  0  0
  133.3390   74.0360  226.2220 C   0  0  0  0  0  0  0  0  0  0  0  0
  132.9970   74.3192  227.2284 H   0  0  0  0  0  0  0  0  0  0  0  0
  132.6280   74.4190  225.4752 H   0  0  0  0  0  0  0  0  0  0  0  0
  133.4190   72.5350  226.1210 C   0  0  0  0  0  0  0  0  0  0  0  0
  133.9000   71.7750  227.1990 C   0  0  0  0  0  0  0  0  0  0  0  0
  134.1592   72.2708  228.1461 H   0  0  0  0  0  0  0  0  0  0  0  0
  134.0510   70.3900  227.0740 C   0  0  0  0  0  0  0  0  0  0  0  0
  134.4126   69.7989  227.9283 H   0  0  0  0  0  0  0  0  0  0  0  0
  133.7440   69.7540  225.8670 C   0  0  0  0  0  0  0  0  0  0  0  0
  133.9450   68.0110  225.7430 Cl  0  0  0  0  0  0  0  0  0  0  0  0
  133.2810   70.5110  224.7770 C   0  0  0  0  0  0  0  0  0  0  0  0
  132.9200   69.7580  223.2300 Cl  0  0  0  0  0  0  0  0  0  0  0  0
  133.1160   71.8940  224.9090 C   0  0  0  0  0  0  0  0  0  0  0  0
  132.7462   72.4835  224.0571 H   0  0  0  0  0  0  0  0  0  0  0  0
  1  2  1  0
  2  3  1  0
  3  4  2  0
  4  5  1  0
  4  6  1  0
  6  7  1  0
  7  8  2  0
  7  9  1  0
  9 10  2  0
 10 11  1  0
 11 12  2  0
 12 13  1  0
 12 14  1  0
 14 15  1  0
 14 16  2  0
 16 17  1  0
 16 18  1  0
 18 19  1  0
 18 20  2  0
 20 21  1  0
 21 22  1  0
 21 23  2  0
 23 24  1  0
  3 25  1  0
 25 26  1  0
 26 27  1  0
 26 28  1  0
 26 29  1  0
 29 30  1  0
 29 31  1  0
 29 32  1  0
 32 33  1  0
 32 34  1  0
 32 35  1  0
 35 36  1  1
 35 37  1  0
 37 38  2  0
 37 39  1  0
 39 40  1  0
 40 41  1  0
 40 42  1  0
 40 43  1  0
 43 44  2  0
 44 45  1  0
 44 46  1  0
 46 47  1  0
 46 48  2  0
 48 49  1  0
 48 50  1  0
 50 51  1  0
 50 52  2  0
 52 53  1  0
 23  9  1  0
 35 25  1  0
 52 43  1  0
 20 11  1  0
M  CHG  2   6  -1  39  -1
M  END
>  <UniqueID>  (43) 
159

>  <SMILES>  (43) 
O=C([N-]/C=C(\O)N1CCC[C@H]1C(=O)[N-]Cc1ccc(Cl)c(Cl)c1)c1ccc2ccccc2n1

>  <Energy>  (43) 
58.6885989682861

>  <Genealogy>  (43) 
O=C([N-]CC(=O)N1CCC[C@H]1C(=O)[N-]Cc1ccc(Cl)c(Cl)c1)c1ccc2ccccc2n1 (protonated)
O=C([N-]C=C(O)N1CCC[C@H]1C(=O)[N-]Cc1ccc(Cl)c(Cl)c1)c1ccc2ccccc2n1 (tautomer)
O=C([N-]/C=C(\O)N1CCC[C@H]1C(=O)[N-]Cc1ccc(Cl)c(Cl)c1)c1ccc2ccccc2n1 (cis-trans isomerization)
O=C([N-]/C=C(\O)N1CCC[C@H]1C(=O)[N-]Cc1ccc(Cl)c(Cl)c1)c1ccc2ccccc2n1 (3D coordinates assigned)
O=C([N-]/C=C(\O)N1CCC[C@H]1C(=O)[N-]Cc1ccc(Cl)c(Cl)c1)c1ccc2ccccc2n1 (nonaromatic ring conformer: 58.6885989682861 kcal/mol)

>  <smiles>  (43) 
O=C(NCC(=O)N1CCC[C@H]1C(=O)NCc1ccc(Cl)c(Cl)c1)c1ccc2ccccc2n1

>  <score_type>  (43) 
oracle

>  <origin>  (43) 
autodockgpu

>  <m_score__min__energy>  (43) 
-7.9299999999999997

>  <m_primary>  (43) 
energy

>  <meeko>  (43) 
{"free_energy": -6.62, "intermolecular_energy": -9.6, "internal_energy": -2.7, "cluster_size": 2, "cluster_id": 12, "rank_in_cluster": 1}

>  <energy>  (43) 
-7.29

>  <cluster_rmsd>  (43) 
1.69

>  <rmsd>  (43) 
270.58

>  <cluster>  (43) 
1

$$$$
NTBKPXNOUBMHTF-GGMSAQKCNA-L
     RDKit          3D

 53 56  0  0  0  0  0  0  0  0999 V2000
  141.8230   74.2650  221.3010 H   0  0  0  0  0  0  0  0  0  0  0  0
  141.8100   75.2570  221.5060 O   0  0  0  0  0  0  0  0  0  0  0  0
  140.6730   75.9240  221.9750 C   0  0  0  0  0  0  0  0  0  0  0  0
  139.5740   75.2430  222.3270 C   0  0  0  0  0  0  0  0  0  0  0  0
  138.7557   75.7643  222.8453 H   0  0  0  0  0  0  0  0  0  0  0  0
  139.4500   73.8470  222.0380 N   0  0  0  0  0  0  0  0  0  0  0  0
  140.3830   72.8220  222.4090 C   0  0  0  0  0  0  0  0  0  0  0  0
  141.4610   72.7360  221.7610 O   0  0  0  0  0  0  0  0  0  0  0  0
  140.1190   71.8520  223.4960 C   0  0  0  0  0  0  0  0  0  0  0  0
  140.6680   72.0390  224.7280 N   0  0  0  0  0  0  0  0  0  0  0  0
  140.4500   71.1780  225.7570 C   0  0  0  0  0  0  0  0  0  0  0  0
  141.0600   71.3970  226.9970 C   0  0  0  0  0  0  0  0  0  0  0  0
  141.7116   72.2712  227.1429 H   0  0  0  0  0  0  0  0  0  0  0  0
  140.8410   70.5040  228.0510 C   0  0  0  0  0  0  0  0  0  0  0  0
  141.3236   70.6758  229.0244 H   0  0  0  0  0  0  0  0  0  0  0  0
  140.0100   69.3930  227.8710 C   0  0  0  0  0  0  0  0  0  0  0  0
  139.8383   68.6962  228.7046 H   0  0  0  0  0  0  0  0  0  0  0  0
  139.3960   69.1650  226.6330 C   0  0  0  0  0  0  0  0  0  0  0  0
  138.7424   68.2911  226.4947 H   0  0  0  0  0  0  0  0  0  0  0  0
  139.6160   70.0530  225.5700 C   0  0  0  0  0  0  0  0  0  0  0  0
  139.0270   69.8490  224.3160 C   0  0  0  0  0  0  0  0  0  0  0  0
  138.3716   68.9815  224.1490 H   0  0  0  0  0  0  0  0  0  0  0  0
  139.2740   70.7500  223.2780 C   0  0  0  0  0  0  0  0  0  0  0  0
  138.8088   70.5978  222.2929 H   0  0  0  0  0  0  0  0  0  0  0  0
  140.7160   77.3580  222.1010 N   0  0  0  0  0  0  0  0  0  0  0  0
  141.1690   78.0560  223.2970 C   0  0  0  0  0  0  0  0  0  0  0  0
  140.6122   77.7074  224.1793 H   0  0  0  0  0  0  0  0  0  0  0  0
  142.2350   77.8724  223.4966 H   0  0  0  0  0  0  0  0  0  0  0  0
  140.8890   79.5320  223.0400 C   0  0  0  0  0  0  0  0  0  0  0  0
  140.4442   80.0002  223.9305 H   0  0  0  0  0  0  0  0  0  0  0  0
  141.8094   80.0897  222.8124 H   0  0  0  0  0  0  0  0  0  0  0  0
  139.9050   79.5600  221.8740 C   0  0  0  0  0  0  0  0  0  0  0  0
  138.8695   79.5924  222.2437 H   0  0  0  0  0  0  0  0  0  0  0  0
  140.0433   80.4485  221.2404 H   0  0  0  0  0  0  0  0  0  0  0  0
  140.1600   78.2600  221.1020 C   0  0  1  0  0  0  0  0  0  0  0  0
  139.2314   77.9080  220.6290 H   0  0  0  0  0  0  0  0  0  0  0  0
  141.1590   78.4170  219.9800 C   0  0  0  0  0  0  0  0  0  0  0  0
  141.7140   79.5270  219.7500 O   0  0  0  0  0  0  0  0  0  0  0  0
  141.4960   77.2780  219.1800 N   0  0  0  0  0  0  0  0  0  0  0  0
  142.8680   76.9610  218.8070 C   0  0  0  0  0  0  0  0  0  0  0  0
  143.0159   77.1701  217.7372 H   0  0  0  0  0  0  0  0  0  0  0  0
  143.5627   77.5765  219.3975 H   0  0  0  0  0  0  0  0  0  0  0  0
  143.1310   75.5030  219.0760 C   0  0  0  0  0  0  0  0  0  0  0  0
  142.2340   74.5230  218.6230 C   0  0  0  0  0  0  0  0  0  0  0  0
  141.3666   74.8149  218.0127 H   0  0  0  0  0  0  0  0  0  0  0  0
  142.4380   73.1770  218.9440 C   0  0  0  0  0  0  0  0  0  0  0  0
  141.7404   72.4128  218.5707 H   0  0  0  0  0  0  0  0  0  0  0  0
  143.5260   72.7990  219.7380 C   0  0  0  0  0  0  0  0  0  0  0  0
  143.7530   71.0980  220.1240 Cl  0  0  0  0  0  0  0  0  0  0  0  0
  144.4180   73.7770  220.2110 C   0  0  0  0  0  0  0  0  0  0  0  0
  145.7760   73.3510  221.2430 Cl  0  0  0  0  0  0  0  0  0  0  0  0
  144.2200   75.1200  219.8760 C   0  0  0  0  0  0  0  0  0  0  0  0
  144.9229   75.8829  220.2420 H   0  0  0  0  0  0  0  0  0  0  0  0
  1  2  1  0
  2  3  1  0
  3  4  2  0
  4  5  1  0
  4  6  1  0
  6  7  1  0
  7  8  2  0
  7  9  1  0
  9 10  2  0
 10 11  1  0
 11 12  2  0
 12 13  1  0
 12 14  1  0
 14 15  1  0
 14 16  2  0
 16 17  1  0
 16 18  1  0
 18 19  1  0
 18 20  2  0
 20 21  1  0
 21 22  1  0
 21 23  2  0
 23 24  1  0
  3 25  1  0
 25 26  1  0
 26 27  1  0
 26 28  1  0
 26 29  1  0
 29 30  1  0
 29 31  1  0
 29 32  1  0
 32 33  1  0
 32 34  1  0
 32 35  1  0
 35 36  1  6
 35 37  1  0
 37 38  2  0
 37 39  1  0
 39 40  1  0
 40 41  1  0
 40 42  1  0
 40 43  1  0
 43 44  2  0
 44 45  1  0
 44 46  1  0
 46 47  1  0
 46 48  2  0
 48 49  1  0
 48 50  1  0
 50 51  1  0
 50 52  2  0
 52 53  1  0
 23  9  1  0
 35 25  1  0
 52 43  1  0
 20 11  1  0
M  CHG  2   6  -1  39  -1
M  END
>  <UniqueID>  (44) 
159

>  <SMILES>  (44) 
O=C([N-]/C=C(\O)N1CCC[C@H]1C(=O)[N-]Cc1ccc(Cl)c(Cl)c1)c1ccc2ccccc2n1

>  <Energy>  (44) 
58.6885989682861

>  <Genealogy>  (44) 
O=C([N-]CC(=O)N1CCC[C@H]1C(=O)[N-]Cc1ccc(Cl)c(Cl)c1)c1ccc2ccccc2n1 (protonated)
O=C([N-]C=C(O)N1CCC[C@H]1C(=O)[N-]Cc1ccc(Cl)c(Cl)c1)c1ccc2ccccc2n1 (tautomer)
O=C([N-]/C=C(\O)N1CCC[C@H]1C(=O)[N-]Cc1ccc(Cl)c(Cl)c1)c1ccc2ccccc2n1 (cis-trans isomerization)
O=C([N-]/C=C(\O)N1CCC[C@H]1C(=O)[N-]Cc1ccc(Cl)c(Cl)c1)c1ccc2ccccc2n1 (3D coordinates assigned)
O=C([N-]/C=C(\O)N1CCC[C@H]1C(=O)[N-]Cc1ccc(Cl)c(Cl)c1)c1ccc2ccccc2n1 (nonaromatic ring conformer: 58.6885989682861 kcal/mol)

>  <smiles>  (44) 
O=C(NCC(=O)N1CCC[C@H]1C(=O)NCc1ccc(Cl)c(Cl)c1)c1ccc2ccccc2n1

>  <score_type>  (44) 
oracle

>  <origin>  (44) 
autodockgpu

>  <m_score__min__energy>  (44) 
-7.9299999999999997

>  <m_primary>  (44) 
energy

>  <meeko>  (44) 
{"free_energy": -6.74, "intermolecular_energy": -9.72, "internal_energy": -2.73, "cluster_size": 1, "cluster_id": 10, "rank_in_cluster": 1}

>  <energy>  (44) 
-7.86

>  <cluster_rmsd>  (44) 
0.0

>  <rmsd>  (44) 
271.74

>  <cluster>  (44) 
2

$$$$
NTBKPXNOUBMHTF-GGMSAQKCNA-L
     RDKit          3D

 53 56  0  0  0  0  0  0  0  0999 V2000
  136.9610   73.1550  223.2700 H   0  0  0  0  0  0  0  0  0  0  0  0
  136.7310   73.7430  222.4770 O   0  0  0  0  0  0  0  0  0  0  0  0
  137.2170   75.0460  222.3290 C   0  0  0  0  0  0  0  0  0  0  0  0
  136.4230   76.1030  222.5420 C   0  0  0  0  0  0  0  0  0  0  0  0
  136.1449   76.7509  221.6977 H   0  0  0  0  0  0  0  0  0  0  0  0
  135.9310   76.4020  223.8520 N   0  0  0  0  0  0  0  0  0  0  0  0
  134.6790   75.9690  224.4030 C   0  0  0  0  0  0  0  0  0  0  0  0
  133.7270   76.7940  224.4380 O   0  0  0  0  0  0  0  0  0  0  0  0
  134.4730   74.6100  224.9530 C   0  0  0  0  0  0  0  0  0  0  0  0
  135.1680   73.5540  224.4480 N   0  0  0  0  0  0  0  0  0  0  0  0
  135.0150   72.2900  224.9240 C   0  0  0  0  0  0  0  0  0  0  0  0
  135.7310   71.2330  224.3520 C   0  0  0  0  0  0  0  0  0  0  0  0
  136.4247   71.4245  223.5201 H   0  0  0  0  0  0  0  0  0  0  0  0
  135.5640   69.9320  224.8390 C   0  0  0  0  0  0  0  0  0  0  0  0
  136.1258   69.1011  224.3875 H   0  0  0  0  0  0  0  0  0  0  0  0
  134.6850   69.6850  225.8980 C   0  0  0  0  0  0  0  0  0  0  0  0
  134.5605   68.6607  226.2791 H   0  0  0  0  0  0  0  0  0  0  0  0
  133.9630   70.7360  226.4750 C   0  0  0  0  0  0  0  0  0  0  0  0
  133.2725   70.5377  227.3080 H   0  0  0  0  0  0  0  0  0  0  0  0
  134.1210   72.0420  225.9900 C   0  0  0  0  0  0  0  0  0  0  0  0
  133.4070   73.1150  226.5360 C   0  0  0  0  0  0  0  0  0  0  0  0
  132.7084   72.9451  227.3685 H   0  0  0  0  0  0  0  0  0  0  0  0
  133.5830   74.4020  226.0220 C   0  0  0  0  0  0  0  0  0  0  0  0
  133.0279   75.2490  226.4515 H   0  0  0  0  0  0  0  0  0  0  0  0
  138.6000   75.2310  221.9730 N   0  0  0  0  0  0  0  0  0  0  0  0
  139.3420   76.4630  222.2020 C   0  0  0  0  0  0  0  0  0  0  0  0
  138.8146   77.3178  221.7536 H   0  0  0  0  0  0  0  0  0  0  0  0
  139.4508   76.6790  223.2751 H   0  0  0  0  0  0  0  0  0  0  0  0
  140.6940   76.2590  221.5280 C   0  0  0  0  0  0  0  0  0  0  0  0
  140.9807   77.1566  220.9604 H   0  0  0  0  0  0  0  0  0  0  0  0
  141.4937   76.0764  222.2609 H   0  0  0  0  0  0  0  0  0  0  0  0
  140.5020   75.0720  220.5890 C   0  0  0  0  0  0  0  0  0  0  0  0
  140.2316   75.4179  219.5804 H   0  0  0  0  0  0  0  0  0  0  0  0
  141.4216   74.4775  220.4846 H   0  0  0  0  0  0  0  0  0  0  0  0
  139.3580   74.2550  221.2020 C   0  0  1  0  0  0  0  0  0  0  0  0
  138.7849   73.7460  220.4130 H   0  0  0  0  0  0  0  0  0  0  0  0
  139.8350   73.1640  222.1320 C   0  0  0  0  0  0  0  0  0  0  0  0
  141.0590   73.0280  222.4050 O   0  0  0  0  0  0  0  0  0  0  0  0
  138.8740   72.2870  222.7290 N   0  0  0  0  0  0  0  0  0  0  0  0
  139.0110   70.8370  222.6990 C   0  0  0  0  0  0  0  0  0  0  0  0
  138.0500   70.3827  222.4160 H   0  0  0  0  0  0  0  0  0  0  0  0
  139.7782   70.5542  221.9632 H   0  0  0  0  0  0  0  0  0  0  0  0
  139.4160   70.3480  224.0640 C   0  0  0  0  0  0  0  0  0  0  0  0
  139.0960   69.0450  224.4760 C   0  0  0  0  0  0  0  0  0  0  0  0
  138.6026   68.3549  223.7758 H   0  0  0  0  0  0  0  0  0  0  0  0
  139.4020   68.6200  225.7740 C   0  0  0  0  0  0  0  0  0  0  0  0
  139.1649   67.5916  226.0841 H   0  0  0  0  0  0  0  0  0  0  0  0
  140.0080   69.4980  226.6780 C   0  0  0  0  0  0  0  0  0  0  0  0
  140.3780   68.9330  228.3020 Cl  0  0  0  0  0  0  0  0  0  0  0  0
  140.3130   70.8110  226.2780 C   0  0  0  0  0  0  0  0  0  0  0  0
  141.0410   71.9580  227.3940 Cl  0  0  0  0  0  0  0  0  0  0  0  0
  140.0210   71.2280  224.9760 C   0  0  0  0  0  0  0  0  0  0  0  0
  140.2671   72.2535  224.6634 H   0  0  0  0  0  0  0  0  0  0  0  0
  1  2  1  0
  2  3  1  0
  3  4  2  0
  4  5  1  0
  4  6  1  0
  6  7  1  0
  7  8  2  0
  7  9  1  0
  9 10  2  0
 10 11  1  0
 11 12  2  0
 12 13  1  0
 12 14  1  0
 14 15  1  0
 14 16  2  0
 16 17  1  0
 16 18  1  0
 18 19  1  0
 18 20  2  0
 20 21  1  0
 21 22  1  0
 21 23  2  0
 23 24  1  0
  3 25  1  0
 25 26  1  0
 26 27  1  0
 26 28  1  0
 26 29  1  0
 29 30  1  0
 29 31  1  0
 29 32  1  0
 32 33  1  0
 32 34  1  0
 32 35  1  0
 35 36  1  6
 35 37  1  0
 37 38  2  0
 37 39  1  0
 39 40  1  0
 40 41  1  0
 40 42  1  0
 40 43  1  0
 43 44  2  0
 44 45  1  0
 44 46  1  0
 46 47  1  0
 46 48  2  0
 48 49  1  0
 48 50  1  0
 50 51  1  0
 50 52  2  0
 52 53  1  0
 23  9  1  0
 35 25  1  0
 52 43  1  0
 20 11  1  0
M  CHG  2   6  -1  39  -1
M  END
>  <UniqueID>  (45) 
159

>  <SMILES>  (45) 
O=C([N-]/C=C(\O)N1CCC[C@H]1C(=O)[N-]Cc1ccc(Cl)c(Cl)c1)c1ccc2ccccc2n1

>  <Energy>  (45) 
58.6885989682861

>  <Genealogy>  (45) 
O=C([N-]CC(=O)N1CCC[C@H]1C(=O)[N-]Cc1ccc(Cl)c(Cl)c1)c1ccc2ccccc2n1 (protonated)
O=C([N-]C=C(O)N1CCC[C@H]1C(=O)[N-]Cc1ccc(Cl)c(Cl)c1)c1ccc2ccccc2n1 (tautomer)
O=C([N-]/C=C(\O)N1CCC[C@H]1C(=O)[N-]Cc1ccc(Cl)c(Cl)c1)c1ccc2ccccc2n1 (cis-trans isomerization)
O=C([N-]/C=C(\O)N1CCC[C@H]1C(=O)[N-]Cc1ccc(Cl)c(Cl)c1)c1ccc2ccccc2n1 (3D coordinates assigned)
O=C([N-]/C=C(\O)N1CCC[C@H]1C(=O)[N-]Cc1ccc(Cl)c(Cl)c1)c1ccc2ccccc2n1 (nonaromatic ring conformer: 58.6885989682861 kcal/mol)

>  <smiles>  (45) 
O=C(NCC(=O)N1CCC[C@H]1C(=O)NCc1ccc(Cl)c(Cl)c1)c1ccc2ccccc2n1

>  <score_type>  (45) 
oracle

>  <origin>  (45) 
autodockgpu

>  <m_score__min__energy>  (45) 
-7.9299999999999997

>  <m_primary>  (45) 
energy

>  <meeko>  (45) 
{"free_energy": -6.93, "intermolecular_energy": -9.92, "internal_energy": -3.04, "cluster_size": 2, "cluster_id": 9, "rank_in_cluster": 1}

>  <energy>  (45) 
-6.83

>  <cluster_rmsd>  (45) 
1.66

>  <rmsd>  (45) 
271.43

>  <cluster>  (45) 
2

$$$$
NTBKPXNOUBMHTF-GGMSAQKCNA-L
     RDKit          3D

 53 56  0  0  0  0  0  0  0  0999 V2000
  138.6830   74.3090  222.7310 H   0  0  0  0  0  0  0  0  0  0  0  0
  137.7840   74.5190  222.3130 O   0  0  0  0  0  0  0  0  0  0  0  0
  136.8490   73.5320  221.9810 C   0  0  0  0  0  0  0  0  0  0  0  0
  137.2450   72.3080  221.6110 C   0  0  0  0  0  0  0  0  0  0  0  0
  136.4933   71.5624  221.3125 H   0  0  0  0  0  0  0  0  0  0  0  0
  138.6320   71.9550  221.5980 N   0  0  0  0  0  0  0  0  0  0  0  0
  139.5590   72.1350  222.6780 C   0  0  0  0  0  0  0  0  0  0  0  0
  140.3230   73.1380  222.6470 O   0  0  0  0  0  0  0  0  0  0  0  0
  139.6720   71.1820  223.8040 C   0  0  0  0  0  0  0  0  0  0  0  0
  140.2210   71.5780  224.9850 N   0  0  0  0  0  0  0  0  0  0  0  0
  140.3410   70.7400  226.0480 C   0  0  0  0  0  0  0  0  0  0  0  0
  140.9400   71.1870  227.2310 C   0  0  0  0  0  0  0  0  0  0  0  0
  141.3084   72.2208  227.3048 H   0  0  0  0  0  0  0  0  0  0  0  0
  141.0700   70.3180  228.3200 C   0  0  0  0  0  0  0  0  0  0  0  0
  141.5433   70.6695  229.2487 H   0  0  0  0  0  0  0  0  0  0  0  0
  140.6000   69.0040  228.2310 C   0  0  0  0  0  0  0  0  0  0  0  0
  140.7013   68.3266  229.0917 H   0  0  0  0  0  0  0  0  0  0  0  0
  140.0010   68.5470  227.0510 C   0  0  0  0  0  0  0  0  0  0  0  0
  139.6323   67.5128  226.9848 H   0  0  0  0  0  0  0  0  0  0  0  0
  139.8720   69.4110  225.9530 C   0  0  0  0  0  0  0  0  0  0  0  0
  139.2880   68.9840  224.7540 C   0  0  0  0  0  0  0  0  0  0  0  0
  138.9130   67.9542  224.6593 H   0  0  0  0  0  0  0  0  0  0  0  0
  139.1830   69.8690  223.6790 C   0  0  0  0  0  0  0  0  0  0  0  0
  138.7193   69.5404  222.7372 H   0  0  0  0  0  0  0  0  0  0  0  0
  135.4480   73.8500  222.0760 N   0  0  0  0  0  0  0  0  0  0  0  0
  134.3780   72.9320  221.7070 C   0  0  0  0  0  0  0  0  0  0  0  0
  134.5201   72.5704  220.6779 H   0  0  0  0  0  0  0  0  0  0  0  0
  134.3584   72.0464  222.3591 H   0  0  0  0  0  0  0  0  0  0  0  0
  133.0900   73.7400  221.8140 C   0  0  0  0  0  0  0  0  0  0  0  0
  132.4424   73.5490  220.9456 H   0  0  0  0  0  0  0  0  0  0  0  0
  132.5106   73.4703  222.7093 H   0  0  0  0  0  0  0  0  0  0  0  0
  133.5300   75.2000  221.8410 C   0  0  0  0  0  0  0  0  0  0  0  0
  133.5219   75.6240  220.8260 H   0  0  0  0  0  0  0  0  0  0  0  0
  132.8563   75.8207  222.4500 H   0  0  0  0  0  0  0  0  0  0  0  0
  134.9560   75.1810  222.4040 C   0  0  1  0  0  0  0  0  0  0  0  0
  135.5465   76.0070  221.9810 H   0  0  0  0  0  0  0  0  0  0  0  0
  135.0080   75.3640  223.9020 C   0  0  0  0  0  0  0  0  0  0  0  0
  136.0190   75.8660  224.4640 O   0  0  0  0  0  0  0  0  0  0  0  0
  133.8770   74.9780  224.6920 N   0  0  0  0  0  0  0  0  0  0  0  0
  134.0110   74.4040  226.0240 C   0  0  0  0  0  0  0  0  0  0  0  0
  134.9749   74.7064  226.4594 H   0  0  0  0  0  0  0  0  0  0  0  0
  133.1929   74.7643  226.6650 H   0  0  0  0  0  0  0  0  0  0  0  0
  133.9520   72.9030  225.9260 C   0  0  0  0  0  0  0  0  0  0  0  0
  133.1800   72.1600  226.8330 C   0  0  0  0  0  0  0  0  0  0  0  0
  132.5626   72.6798  227.5804 H   0  0  0  0  0  0  0  0  0  0  0  0
  133.1920   70.7620  226.7910 C   0  0  0  0  0  0  0  0  0  0  0  0
  132.5715   70.1873  227.4944 H   0  0  0  0  0  0  0  0  0  0  0  0
  133.9900   70.0920  225.8580 C   0  0  0  0  0  0  0  0  0  0  0  0
  133.9830   68.3330  225.8310 Cl  0  0  0  0  0  0  0  0  0  0  0  0
  134.7810   70.8290  224.9590 C   0  0  0  0  0  0  0  0  0  0  0  0
  135.8270   70.0270  223.7950 Cl  0  0  0  0  0  0  0  0  0  0  0  0
  134.7560   72.2270  224.9930 C   0  0  0  0  0  0  0  0  0  0  0  0
  135.3703   72.8014  224.2840 H   0  0  0  0  0  0  0  0  0  0  0  0
  1  2  1  0
  2  3  1  0
  3  4  2  0
  4  5  1  0
  4  6  1  0
  6  7  1  0
  7  8  2  0
  7  9  1  0
  9 10  2  0
 10 11  1  0
 11 12  2  0
 12 13  1  0
 12 14  1  0
 14 15  1  0
 14 16  2  0
 16 17  1  0
 16 18  1  0
 18 19  1  0
 18 20  2  0
 20 21  1  0
 21 22  1  0
 21 23  2  0
 23 24  1  0
  3 25  1  0
 25 26  1  0
 26 27  1  0
 26 28  1  0
 26 29  1  0
 29 30  1  0
 29 31  1  0
 29 32  1  0
 32 33  1  0
 32 34  1  0
 32 35  1  0
 35 36  1  6
 35 37  1  0
 37 38  2  0
 37 39  1  0
 39 40  1  0
 40 41  1  0
 40 42  1  0
 40 43  1  0
 43 44  2  0
 44 45  1  0
 44 46  1  0
 46 47  1  0
 46 48  2  0
 48 49  1  0
 48 50  1  0
 50 51  1  0
 50 52  2  0
 52 53  1  0
 23  9  1  0
 35 25  1  0
 52 43  1  0
 20 11  1  0
M  CHG  2   6  -1  39  -1
M  END
>  <UniqueID>  (46) 
159

>  <SMILES>  (46) 
O=C([N-]/C=C(\O)N1CCC[C@H]1C(=O)[N-]Cc1ccc(Cl)c(Cl)c1)c1ccc2ccccc2n1

>  <Energy>  (46) 
58.6885989682861

>  <Genealogy>  (46) 
O=C([N-]CC(=O)N1CCC[C@H]1C(=O)[N-]Cc1ccc(Cl)c(Cl)c1)c1ccc2ccccc2n1 (protonated)
O=C([N-]C=C(O)N1CCC[C@H]1C(=O)[N-]Cc1ccc(Cl)c(Cl)c1)c1ccc2ccccc2n1 (tautomer)
O=C([N-]/C=C(\O)N1CCC[C@H]1C(=O)[N-]Cc1ccc(Cl)c(Cl)c1)c1ccc2ccccc2n1 (cis-trans isomerization)
O=C([N-]/C=C(\O)N1CCC[C@H]1C(=O)[N-]Cc1ccc(Cl)c(Cl)c1)c1ccc2ccccc2n1 (3D coordinates assigned)
O=C([N-]/C=C(\O)N1CCC[C@H]1C(=O)[N-]Cc1ccc(Cl)c(Cl)c1)c1ccc2ccccc2n1 (nonaromatic ring conformer: 58.6885989682861 kcal/mol)

>  <smiles>  (46) 
O=C(NCC(=O)N1CCC[C@H]1C(=O)NCc1ccc(Cl)c(Cl)c1)c1ccc2ccccc2n1

>  <score_type>  (46) 
oracle

>  <origin>  (46) 
autodockgpu

>  <m_score__min__energy>  (46) 
-7.9299999999999997

>  <m_primary>  (46) 
energy

>  <meeko>  (46) 
{"free_energy": -6.38, "intermolecular_energy": -9.36, "internal_energy": -3.25, "cluster_size": 2, "cluster_id": 12, "rank_in_cluster": 2}

>  <energy>  (46) 
-7.5

>  <cluster_rmsd>  (46) 
0.0

>  <rmsd>  (46) 
270.87

>  <cluster>  (46) 
3

$$$$
NTBKPXNOUBMHTF-GGMSAQKCNA-L
     RDKit          3D

 53 56  0  0  0  0  0  0  0  0999 V2000
  139.5460   73.6110  223.0160 H   0  0  0  0  0  0  0  0  0  0  0  0
  139.9810   72.6960  223.0510 O   0  0  0  0  0  0  0  0  0  0  0  0
  140.3780   71.9980  221.9050 C   0  0  0  0  0  0  0  0  0  0  0  0
  140.0790   70.7020  221.7530 C   0  0  0  0  0  0  0  0  0  0  0  0
  140.8818   69.9824  221.5343 H   0  0  0  0  0  0  0  0  0  0  0  0
  138.7290   70.2390  221.8710 N   0  0  0  0  0  0  0  0  0  0  0  0
  138.1060   69.7530  223.0680 C   0  0  0  0  0  0  0  0  0  0  0  0
  136.8910   69.4180  223.0130 O   0  0  0  0  0  0  0  0  0  0  0  0
  138.8190   69.6580  224.3620 C   0  0  0  0  0  0  0  0  0  0  0  0
  139.4170   70.7570  224.8970 N   0  0  0  0  0  0  0  0  0  0  0  0
  140.0780   70.7190  226.0840 C   0  0  0  0  0  0  0  0  0  0  0  0
  140.7020   71.8700  226.5780 C   0  0  0  0  0  0  0  0  0  0  0  0
  140.6521   72.8105  226.0097 H   0  0  0  0  0  0  0  0  0  0  0  0
  141.3890   71.8230  227.7950 C   0  0  0  0  0  0  0  0  0  0  0  0
  141.8809   72.7276  228.1819 H   0  0  0  0  0  0  0  0  0  0  0  0
  141.4530   70.6300  228.5220 C   0  0  0  0  0  0  0  0  0  0  0  0
  141.9927   70.6003  229.4801 H   0  0  0  0  0  0  0  0  0  0  0  0
  140.8330   69.4740  228.0350 C   0  0  0  0  0  0  0  0  0  0  0  0
  140.8838   68.5379  228.6105 H   0  0  0  0  0  0  0  0  0  0  0  0
  140.1470   69.5100  226.8130 C   0  0  0  0  0  0  0  0  0  0  0  0
  139.5260   68.3700  226.2910 C   0  0  0  0  0  0  0  0  0  0  0  0
  139.5643   67.4197  226.8437 H   0  0  0  0  0  0  0  0  0  0  0  0
  138.8570   68.4410  225.0660 C   0  0  0  0  0  0  0  0  0  0  0  0
  138.3623   67.5490  224.6542 H   0  0  0  0  0  0  0  0  0  0  0  0
  141.0890   72.7100  220.8750 N   0  0  0  0  0  0  0  0  0  0  0  0
  141.2580   72.2180  219.5140 C   0  0  0  0  0  0  0  0  0  0  0  0
  141.6985   71.2101  219.5218 H   0  0  0  0  0  0  0  0  0  0  0  0
  140.2963   72.1442  218.9851 H   0  0  0  0  0  0  0  0  0  0  0  0
  142.2010   73.2060  218.8360 C   0  0  0  0  0  0  0  0  0  0  0  0
  142.9623   72.6709  218.2494 H   0  0  0  0  0  0  0  0  0  0  0  0
  141.6674   73.8680  218.1382 H   0  0  0  0  0  0  0  0  0  0  0  0
  142.8540   73.9870  219.9720 C   0  0  0  0  0  0  0  0  0  0  0  0
  143.8079   73.5220  220.2615 H   0  0  0  0  0  0  0  0  0  0  0  0
  143.0820   75.0230  219.6811 H   0  0  0  0  0  0  0  0  0  0  0  0
  141.8510   73.9240  221.1310 C   0  0  1  0  0  0  0  0  0  0  0  0
  142.3790   73.9408  222.0958 H   0  0  0  0  0  0  0  0  0  0  0  0
  140.9000   75.0980  221.1610 C   0  0  0  0  0  0  0  0  0  0  0  0
  140.9030   75.9640  220.2450 O   0  0  0  0  0  0  0  0  0  0  0  0
  139.9650   75.2100  222.2400 N   0  0  0  0  0  0  0  0  0  0  0  0
  139.0400   76.3290  222.3610 C   0  0  0  0  0  0  0  0  0  0  0  0
  138.4768   76.4435  221.4230 H   0  0  0  0  0  0  0  0  0  0  0  0
  138.3380   76.1397  223.1865 H   0  0  0  0  0  0  0  0  0  0  0  0
  139.8170   77.5880  222.6380 C   0  0  0  0  0  0  0  0  0  0  0  0
  141.1360   77.5200  223.1120 C   0  0  0  0  0  0  0  0  0  0  0  0
  141.6287   76.5426  223.2214 H   0  0  0  0  0  0  0  0  0  0  0  0
  141.8270   78.6890  223.4460 C   0  0  0  0  0  0  0  0  0  0  0  0
  142.8665   78.6284  223.8007 H   0  0  0  0  0  0  0  0  0  0  0  0
  141.2020   79.9350  223.3310 C   0  0  0  0  0  0  0  0  0  0  0  0
  142.1000   81.3860  223.7600 Cl  0  0  0  0  0  0  0  0  0  0  0  0
  139.8740   80.0100  222.8750 C   0  0  0  0  0  0  0  0  0  0  0  0
  139.0380   81.5510  222.7510 Cl  0  0  0  0  0  0  0  0  0  0  0  0
  139.1900   78.8410  222.5270 C   0  0  0  0  0  0  0  0  0  0  0  0
  138.1536   78.9025  222.1637 H   0  0  0  0  0  0  0  0  0  0  0  0
  1  2  1  0
  2  3  1  0
  3  4  2  0
  4  5  1  0
  4  6  1  0
  6  7  1  0
  7  8  2  0
  7  9  1  0
  9 10  2  0
 10 11  1  0
 11 12  2  0
 12 13  1  0
 12 14  1  0
 14 15  1  0
 14 16  2  0
 16 17  1  0
 16 18  1  0
 18 19  1  0
 18 20  2  0
 20 21  1  0
 21 22  1  0
 21 23  2  0
 23 24  1  0
  3 25  1  0
 25 26  1  0
 26 27  1  0
 26 28  1  0
 26 29  1  0
 29 30  1  0
 29 31  1  0
 29 32  1  0
 32 33  1  0
 32 34  1  0
 32 35  1  0
 35 36  1  1
 35 37  1  0
 37 38  2  0
 37 39  1  0
 39 40  1  0
 40 41  1  0
 40 42  1  0
 40 43  1  0
 43 44  2  0
 44 45  1  0
 44 46  1  0
 46 47  1  0
 46 48  2  0
 48 49  1  0
 48 50  1  0
 50 51  1  0
 50 52  2  0
 52 53  1  0
 23  9  1  0
 35 25  1  0
 52 43  1  0
 20 11  1  0
M  CHG  2   6  -1  39  -1
M  END
>  <UniqueID>  (47) 
159

>  <SMILES>  (47) 
O=C([N-]/C=C(\O)N1CCC[C@H]1C(=O)[N-]Cc1ccc(Cl)c(Cl)c1)c1ccc2ccccc2n1

>  <Energy>  (47) 
58.6885989682861

>  <Genealogy>  (47) 
O=C([N-]CC(=O)N1CCC[C@H]1C(=O)[N-]Cc1ccc(Cl)c(Cl)c1)c1ccc2ccccc2n1 (protonated)
O=C([N-]C=C(O)N1CCC[C@H]1C(=O)[N-]Cc1ccc(Cl)c(Cl)c1)c1ccc2ccccc2n1 (tautomer)
O=C([N-]/C=C(\O)N1CCC[C@H]1C(=O)[N-]Cc1ccc(Cl)c(Cl)c1)c1ccc2ccccc2n1 (cis-trans isomerization)
O=C([N-]/C=C(\O)N1CCC[C@H]1C(=O)[N-]Cc1ccc(Cl)c(Cl)c1)c1ccc2ccccc2n1 (3D coordinates assigned)
O=C([N-]/C=C(\O)N1CCC[C@H]1C(=O)[N-]Cc1ccc(Cl)c(Cl)c1)c1ccc2ccccc2n1 (nonaromatic ring conformer: 58.6885989682861 kcal/mol)

>  <smiles>  (47) 
O=C(NCC(=O)N1CCC[C@H]1C(=O)NCc1ccc(Cl)c(Cl)c1)c1ccc2ccccc2n1

>  <score_type>  (47) 
oracle

>  <origin>  (47) 
autodockgpu

>  <m_score__min__energy>  (47) 
-7.9299999999999997

>  <m_primary>  (47) 
energy

>  <meeko>  (47) 
{"free_energy": -7.93, "intermolecular_energy": -10.92, "internal_energy": -1.97, "cluster_size": 3, "cluster_id": 1, "rank_in_cluster": 1}

>  <energy>  (47) 
-6.85

>  <cluster_rmsd>  (47) 
1.14

>  <rmsd>  (47) 
270.53

>  <cluster>  (47) 
3

$$$$
NTBKPXNOUBMHTF-GGMSAQKCNA-L
     RDKit          3D

 53 56  0  0  0  0  0  0  0  0999 V2000
  142.1640   73.1420  221.2700 H   0  0  0  0  0  0  0  0  0  0  0  0
  142.8330   72.5350  220.8100 O   0  0  0  0  0  0  0  0  0  0  0  0
  142.4740   71.3200  220.2160 C   0  0  0  0  0  0  0  0  0  0  0  0
  141.2450   70.8130  220.3770 C   0  0  0  0  0  0  0  0  0  0  0  0
  141.0366   69.7827  220.0528 H   0  0  0  0  0  0  0  0  0  0  0  0
  140.1990   71.5930  220.9650 N   0  0  0  0  0  0  0  0  0  0  0  0
  140.2200   72.1840  222.2720 C   0  0  0  0  0  0  0  0  0  0  0  0
  140.3290   73.4370  222.3570 O   0  0  0  0  0  0  0  0  0  0  0  0
  140.1470   71.3830  223.5150 C   0  0  0  0  0  0  0  0  0  0  0  0
  140.6170   71.8930  224.6860 N   0  0  0  0  0  0  0  0  0  0  0  0
  140.5680   71.1980  225.8530 C   0  0  0  0  0  0  0  0  0  0  0  0
  141.0910   71.7540  227.0260 C   0  0  0  0  0  0  0  0  0  0  0  0
  141.5372   72.7592  227.0071 H   0  0  0  0  0  0  0  0  0  0  0  0
  141.0460   71.0310  228.2220 C   0  0  0  0  0  0  0  0  0  0  0  0
  141.4597   71.4684  229.1426 H   0  0  0  0  0  0  0  0  0  0  0  0
  140.4770   69.7540  228.2520 C   0  0  0  0  0  0  0  0  0  0  0  0
  140.4419   69.1916  229.1967 H   0  0  0  0  0  0  0  0  0  0  0  0
  139.9520   69.1890  227.0840 C   0  0  0  0  0  0  0  0  0  0  0  0
  139.5039   68.1848  227.1112 H   0  0  0  0  0  0  0  0  0  0  0  0
  139.9980   69.9050  225.8790 C   0  0  0  0  0  0  0  0  0  0  0  0
  139.4930   69.3650  224.6900 C   0  0  0  0  0  0  0  0  0  0  0  0
  139.0423   68.3616  224.6879 H   0  0  0  0  0  0  0  0  0  0  0  0
  139.5630   70.1040  223.5060 C   0  0  0  0  0  0  0  0  0  0  0  0
  139.1627   69.6866  222.5703 H   0  0  0  0  0  0  0  0  0  0  0  0
  143.4450   70.6380  219.4000 N   0  0  0  0  0  0  0  0  0  0  0  0
  143.1150   69.5770  218.4580 C   0  0  0  0  0  0  0  0  0  0  0  0
  142.5516   68.7777  218.9617 H   0  0  0  0  0  0  0  0  0  0  0  0
  142.4848   69.9447  217.6348 H   0  0  0  0  0  0  0  0  0  0  0  0
  144.4530   69.0480  217.9520 C   0  0  0  0  0  0  0  0  0  0  0  0
  144.4488   67.9482  217.9300 H   0  0  0  0  0  0  0  0  0  0  0  0
  144.6662   69.3867  216.9274 H   0  0  0  0  0  0  0  0  0  0  0  0
  145.4910   69.5580  218.9460 C   0  0  0  0  0  0  0  0  0  0  0  0
  145.6743   68.8088  219.7303 H   0  0  0  0  0  0  0  0  0  0  0  0
  146.4593   69.7560  218.4630 H   0  0  0  0  0  0  0  0  0  0  0  0
  144.8820   70.8290  219.5490 C   0  0  1  0  0  0  0  0  0  0  0  0
  145.2246   70.9628  220.5857 H   0  0  0  0  0  0  0  0  0  0  0  0
  145.2820   72.0880  218.8170 C   0  0  0  0  0  0  0  0  0  0  0  0
  146.2420   72.8010  219.2190 O   0  0  0  0  0  0  0  0  0  0  0  0
  144.5710   72.4620  217.6310 N   0  0  0  0  0  0  0  0  0  0  0  0
  144.8900   73.6640  216.8720 C   0  0  0  0  0  0  0  0  0  0  0  0
  145.9534   73.9117  217.0054 H   0  0  0  0  0  0  0  0  0  0  0  0
  144.6877   73.4911  215.8047 H   0  0  0  0  0  0  0  0  0  0  0  0
  144.0410   74.8050  217.3690 C   0  0  0  0  0  0  0  0  0  0  0  0
  144.0290   76.0320  216.6880 C   0  0  0  0  0  0  0  0  0  0  0  0
  144.5924   76.1431  215.7498 H   0  0  0  0  0  0  0  0  0  0  0  0
  143.3040   77.1140  217.1970 C   0  0  0  0  0  0  0  0  0  0  0  0
  143.2858   78.0675  216.6488 H   0  0  0  0  0  0  0  0  0  0  0  0
  142.6020   76.9890  218.4000 C   0  0  0  0  0  0  0  0  0  0  0  0
  141.7010   78.3700  219.0130 Cl  0  0  0  0  0  0  0  0  0  0  0  0
  142.6250   75.7690  219.0980 C   0  0  0  0  0  0  0  0  0  0  0  0
  141.7880   75.5790  220.6330 Cl  0  0  0  0  0  0  0  0  0  0  0  0
  143.3380   74.6830  218.5790 C   0  0  0  0  0  0  0  0  0  0  0  0
  143.3482   73.7266  219.1224 H   0  0  0  0  0  0  0  0  0  0  0  0
  1  2  1  0
  2  3  1  0
  3  4  2  0
  4  5  1  0
  4  6  1  0
  6  7  1  0
  7  8  2  0
  7  9  1  0
  9 10  2  0
 10 11  1  0
 11 12  2  0
 12 13  1  0
 12 14  1  0
 14 15  1  0
 14 16  2  0
 16 17  1  0
 16 18  1  0
 18 19  1  0
 18 20  2  0
 20 21  1  0
 21 22  1  0
 21 23  2  0
 23 24  1  0
  3 25  1  0
 25 26  1  0
 26 27  1  0
 26 28  1  0
 26 29  1  0
 29 30  1  0
 29 31  1  0
 29 32  1  0
 32 33  1  0
 32 34  1  0
 32 35  1  0
 35 36  1  1
 35 37  1  0
 37 38  2  0
 37 39  1  0
 39 40  1  0
 40 41  1  0
 40 42  1  0
 40 43  1  0
 43 44  2  0
 44 45  1  0
 44 46  1  0
 46 47  1  0
 46 48  2  0
 48 49  1  0
 48 50  1  0
 50 51  1  0
 50 52  2  0
 52 53  1  0
 23  9  1  0
 35 25  1  0
 52 43  1  0
 20 11  1  0
M  CHG  2   6  -1  39  -1
M  END
>  <UniqueID>  (48) 
159

>  <SMILES>  (48) 
O=C([N-]/C=C(\O)N1CCC[C@H]1C(=O)[N-]Cc1ccc(Cl)c(Cl)c1)c1ccc2ccccc2n1

>  <Energy>  (48) 
58.6885989682861

>  <Genealogy>  (48) 
O=C([N-]CC(=O)N1CCC[C@H]1C(=O)[N-]Cc1ccc(Cl)c(Cl)c1)c1ccc2ccccc2n1 (protonated)
O=C([N-]C=C(O)N1CCC[C@H]1C(=O)[N-]Cc1ccc(Cl)c(Cl)c1)c1ccc2ccccc2n1 (tautomer)
O=C([N-]/C=C(\O)N1CCC[C@H]1C(=O)[N-]Cc1ccc(Cl)c(Cl)c1)c1ccc2ccccc2n1 (cis-trans isomerization)
O=C([N-]/C=C(\O)N1CCC[C@H]1C(=O)[N-]Cc1ccc(Cl)c(Cl)c1)c1ccc2ccccc2n1 (3D coordinates assigned)
O=C([N-]/C=C(\O)N1CCC[C@H]1C(=O)[N-]Cc1ccc(Cl)c(Cl)c1)c1ccc2ccccc2n1 (nonaromatic ring conformer: 58.6885989682861 kcal/mol)

>  <smiles>  (48) 
O=C(NCC(=O)N1CCC[C@H]1C(=O)NCc1ccc(Cl)c(Cl)c1)c1ccc2ccccc2n1

>  <score_type>  (48) 
oracle

>  <origin>  (48) 
autodockgpu

>  <m_score__min__energy>  (48) 
-7.9299999999999997

>  <m_primary>  (48) 
energy

>  <meeko>  (48) 
{"free_energy": -7.1, "intermolecular_energy": -10.08, "internal_energy": -2.61, "cluster_size": 3, "cluster_id": 4, "rank_in_cluster": 2}

>  <energy>  (48) 
-7.31

>  <cluster_rmsd>  (48) 
0.0

>  <rmsd>  (48) 
270.15

>  <cluster>  (48) 
4

$$$$
NTBKPXNOUBMHTF-GGMSAQKCNA-L
     RDKit          3D

 53 56  0  0  0  0  0  0  0  0999 V2000
  141.7290   73.2500  220.7310 H   0  0  0  0  0  0  0  0  0  0  0  0
  141.3320   72.3710  220.4200 O   0  0  0  0  0  0  0  0  0  0  0  0
  139.9600   72.1800  220.2290 C   0  0  0  0  0  0  0  0  0  0  0  0
  139.1570   73.2100  219.9320 C   0  0  0  0  0  0  0  0  0  0  0  0
  138.2255   73.0291  219.3757 H   0  0  0  0  0  0  0  0  0  0  0  0
  139.4950   74.5430  220.3290 N   0  0  0  0  0  0  0  0  0  0  0  0
  140.0070   74.9380  221.6100 C   0  0  0  0  0  0  0  0  0  0  0  0
  140.5270   74.0530  222.3420 O   0  0  0  0  0  0  0  0  0  0  0  0
  139.9240   76.3280  222.1130 C   0  0  0  0  0  0  0  0  0  0  0  0
  141.0590   77.0460  222.3330 N   0  0  0  0  0  0  0  0  0  0  0  0
  141.0320   78.3260  222.7890 C   0  0  0  0  0  0  0  0  0  0  0  0
  142.2280   79.0120  223.0280 C   0  0  0  0  0  0  0  0  0  0  0  0
  143.1927   78.5181  222.8400 H   0  0  0  0  0  0  0  0  0  0  0  0
  142.1960   80.3260  223.5060 C   0  0  0  0  0  0  0  0  0  0  0  0
  143.1367   80.8639  223.6953 H   0  0  0  0  0  0  0  0  0  0  0  0
  140.9710   80.9580  223.7440 C   0  0  0  0  0  0  0  0  0  0  0  0
  140.9516   81.9926  224.1173 H   0  0  0  0  0  0  0  0  0  0  0  0
  139.7700   80.2790  223.5090 C   0  0  0  0  0  0  0  0  0  0  0  0
  138.8086   80.7796  223.6960 H   0  0  0  0  0  0  0  0  0  0  0  0
  139.7940   78.9600  223.0350 C   0  0  0  0  0  0  0  0  0  0  0  0
  138.6110   78.2470  222.8010 C   0  0  0  0  0  0  0  0  0  0  0  0
  137.6357   78.7218  222.9838 H   0  0  0  0  0  0  0  0  0  0  0  0
  138.6730   76.9320  222.3350 C   0  0  0  0  0  0  0  0  0  0  0  0
  137.7470   76.3705  222.1422 H   0  0  0  0  0  0  0  0  0  0  0  0
  139.4290   70.8450  220.3280 N   0  0  0  0  0  0  0  0  0  0  0  0
  140.2500   69.6500  220.4710 C   0  0  0  0  0  0  0  0  0  0  0  0
  140.9995   69.6007  219.6673 H   0  0  0  0  0  0  0  0  0  0  0  0
  140.7993   69.6454  221.4240 H   0  0  0  0  0  0  0  0  0  0  0  0
  139.2850   68.4750  220.3710 C   0  0  0  0  0  0  0  0  0  0  0  0
  139.7016   67.6887  219.7243 H   0  0  0  0  0  0  0  0  0  0  0  0
  139.0973   68.0150  221.3524 H   0  0  0  0  0  0  0  0  0  0  0  0
  138.0100   69.0490  219.7600 C   0  0  0  0  0  0  0  0  0  0  0  0
  138.0178   68.9281  218.6667 H   0  0  0  0  0  0  0  0  0  0  0  0
  137.1098   68.5359  220.1292 H   0  0  0  0  0  0  0  0  0  0  0  0
  138.0180   70.5360  220.1370 C   0  0  1  0  0  0  0  0  0  0  0  0
  137.5173   71.1313  219.3592 H   0  0  0  0  0  0  0  0  0  0  0  0
  137.2780   70.8300  221.4200 C   0  0  0  0  0  0  0  0  0  0  0  0
  136.1280   71.3480  221.4070 O   0  0  0  0  0  0  0  0  0  0  0  0
  137.8880   70.4920  222.6710 N   0  0  0  0  0  0  0  0  0  0  0  0
  138.9450   71.2950  223.2700 C   0  0  0  0  0  0  0  0  0  0  0  0
  139.7656   71.4202  222.5482 H   0  0  0  0  0  0  0  0  0  0  0  0
  138.5475   72.2834  223.5440 H   0  0  0  0  0  0  0  0  0  0  0  0
  139.4600   70.5980  224.5020 C   0  0  0  0  0  0  0  0  0  0  0  0
  139.2910   69.2140  224.6590 C   0  0  0  0  0  0  0  0  0  0  0  0
  138.8380   68.6225  223.8498 H   0  0  0  0  0  0  0  0  0  0  0  0
  139.6960   68.5830  225.8400 C   0  0  0  0  0  0  0  0  0  0  0  0
  139.5744   67.4952  225.9496 H   0  0  0  0  0  0  0  0  0  0  0  0
  140.2550   69.3300  226.8820 C   0  0  0  0  0  0  0  0  0  0  0  0
  140.7540   68.5060  228.3540 Cl  0  0  0  0  0  0  0  0  0  0  0  0
  140.4090   70.7200  226.7400 C   0  0  0  0  0  0  0  0  0  0  0  0
  141.0710   71.7030  228.0380 Cl  0  0  0  0  0  0  0  0  0  0  0  0
  140.0170   71.3460  225.5520 C   0  0  0  0  0  0  0  0  0  0  0  0
  140.1460   72.4326  225.4394 H   0  0  0  0  0  0  0  0  0  0  0  0
  1  2  1  0
  2  3  1  0
  3  4  2  0
  4  5  1  0
  4  6  1  0
  6  7  1  0
  7  8  2  0
  7  9  1  0
  9 10  2  0
 10 11  1  0
 11 12  2  0
 12 13  1  0
 12 14  1  0
 14 15  1  0
 14 16  2  0
 16 17  1  0
 16 18  1  0
 18 19  1  0
 18 20  2  0
 20 21  1  0
 21 22  1  0
 21 23  2  0
 23 24  1  0
  3 25  1  0
 25 26  1  0
 26 27  1  0
 26 28  1  0
 26 29  1  0
 29 30  1  0
 29 31  1  0
 29 32  1  0
 32 33  1  0
 32 34  1  0
 32 35  1  0
 35 36  1  6
 35 37  1  0
 37 38  2  0
 37 39  1  0
 39 40  1  0
 40 41  1  0
 40 42  1  0
 40 43  1  0
 43 44  2  0
 44 45  1  0
 44 46  1  0
 46 47  1  0
 46 48  2  0
 48 49  1  0
 48 50  1  0
 50 51  1  0
 50 52  2  0
 52 53  1  0
 23  9  1  0
 35 25  1  0
 52 43  1  0
 20 11  1  0
M  CHG  2   6  -1  39  -1
M  END
>  <UniqueID>  (49) 
159

>  <SMILES>  (49) 
O=C([N-]/C=C(\O)N1CCC[C@H]1C(=O)[N-]Cc1ccc(Cl)c(Cl)c1)c1ccc2ccccc2n1

>  <Energy>  (49) 
58.6885989682861

>  <Genealogy>  (49) 
O=C([N-]CC(=O)N1CCC[C@H]1C(=O)[N-]Cc1ccc(Cl)c(Cl)c1)c1ccc2ccccc2n1 (protonated)
O=C([N-]C=C(O)N1CCC[C@H]1C(=O)[N-]Cc1ccc(Cl)c(Cl)c1)c1ccc2ccccc2n1 (tautomer)
O=C([N-]/C=C(\O)N1CCC[C@H]1C(=O)[N-]Cc1ccc(Cl)c(Cl)c1)c1ccc2ccccc2n1 (cis-trans isomerization)
O=C([N-]/C=C(\O)N1CCC[C@H]1C(=O)[N-]Cc1ccc(Cl)c(Cl)c1)c1ccc2ccccc2n1 (3D coordinates assigned)
O=C([N-]/C=C(\O)N1CCC[C@H]1C(=O)[N-]Cc1ccc(Cl)c(Cl)c1)c1ccc2ccccc2n1 (nonaromatic ring conformer: 58.6885989682861 kcal/mol)

>  <smiles>  (49) 
O=C(NCC(=O)N1CCC[C@H]1C(=O)NCc1ccc(Cl)c(Cl)c1)c1ccc2ccccc2n1

>  <score_type>  (49) 
oracle

>  <origin>  (49) 
autodockgpu

>  <m_score__min__energy>  (49) 
-7.9299999999999997

>  <m_primary>  (49) 
energy

>  <meeko>  (49) 
{"free_energy": -6.94, "intermolecular_energy": -9.92, "internal_energy": -2.18, "cluster_size": 1, "cluster_id": 8, "rank_in_cluster": 1}

>  <energy>  (49) 
-7.1

>  <cluster_rmsd>  (49) 
1.33

>  <rmsd>  (49) 
270.27

>  <cluster>  (49) 
4

$$$$
NTBKPXNOUBMHTF-GGMSAQKCNA-L
     RDKit          3D

 53 56  0  0  0  0  0  0  0  0999 V2000
  140.8020   71.6240  219.5540 H   0  0  0  0  0  0  0  0  0  0  0  0
  141.6380   72.1520  219.3340 O   0  0  0  0  0  0  0  0  0  0  0  0
  142.2170   73.0650  220.2220 C   0  0  0  0  0  0  0  0  0  0  0  0
  141.4560   73.8690  220.9750 C   0  0  0  0  0  0  0  0  0  0  0  0
  141.4392   74.9493  220.7684 H   0  0  0  0  0  0  0  0  0  0  0  0
  140.6640   73.3430  222.0450 N   0  0  0  0  0  0  0  0  0  0  0  0
  140.2290   71.9830  222.1830 C   0  0  0  0  0  0  0  0  0  0  0  0
  139.8660   71.3660  221.1450 O   0  0  0  0  0  0  0  0  0  0  0  0
  140.1620   71.2920  223.4900 C   0  0  0  0  0  0  0  0  0  0  0  0
  140.6570   71.8900  224.6080 N   0  0  0  0  0  0  0  0  0  0  0  0
  140.6140   71.2970  225.8300 C   0  0  0  0  0  0  0  0  0  0  0  0
  141.1630   71.9410  226.9440 C   0  0  0  0  0  0  0  0  0  0  0  0
  141.6249   72.9332  226.8340 H   0  0  0  0  0  0  0  0  0  0  0  0
  141.1240   71.3220  228.1980 C   0  0  0  0  0  0  0  0  0  0  0  0
  141.5581   71.8281  229.0729 H   0  0  0  0  0  0  0  0  0  0  0  0
  140.5350   70.0620  228.3430 C   0  0  0  0  0  0  0  0  0  0  0  0
  140.5045   69.5821  229.3323 H   0  0  0  0  0  0  0  0  0  0  0  0
  139.9840   69.4090  227.2340 C   0  0  0  0  0  0  0  0  0  0  0  0
  139.5205   68.4184  227.3521 H   0  0  0  0  0  0  0  0  0  0  0  0
  140.0240   70.0200  225.9720 C   0  0  0  0  0  0  0  0  0  0  0  0
  139.4930   69.3910  224.8400 C   0  0  0  0  0  0  0  0  0  0  0  0
  139.0263   68.3989  224.9287 H   0  0  0  0  0  0  0  0  0  0  0  0
  139.5570   70.0260  223.5970 C   0  0  0  0  0  0  0  0  0  0  0  0
  139.1361   69.5381  222.7055 H   0  0  0  0  0  0  0  0  0  0  0  0
  143.6530   73.1010  220.3360 N   0  0  0  0  0  0  0  0  0  0  0  0
  144.4250   72.2010  221.1820 C   0  0  0  0  0  0  0  0  0  0  0  0
  144.0550   72.2351  222.2174 H   0  0  0  0  0  0  0  0  0  0  0  0
  144.3442   71.1566  220.8463 H   0  0  0  0  0  0  0  0  0  0  0  0
  145.8620   72.7070  221.1130 C   0  0  0  0  0  0  0  0  0  0  0  0
  146.3153   72.7168  222.1152 H   0  0  0  0  0  0  0  0  0  0  0  0
  146.4934   72.0625  220.4837 H   0  0  0  0  0  0  0  0  0  0  0  0
  145.7650   74.1240  220.5570 C   0  0  0  0  0  0  0  0  0  0  0  0
  145.7161   74.8570  221.3757 H   0  0  0  0  0  0  0  0  0  0  0  0
  146.6420   74.3871  219.9474 H   0  0  0  0  0  0  0  0  0  0  0  0
  144.4700   74.1470  219.7370 C   0  0  1  0  0  0  0  0  0  0  0  0
  144.0211   75.1510  219.7584 H   0  0  0  0  0  0  0  0  0  0  0  0
  144.6820   73.8220  218.2770 C   0  0  0  0  0  0  0  0  0  0  0  0
  143.9060   74.2670  217.3890 O   0  0  0  0  0  0  0  0  0  0  0  0
  145.8010   73.0110  217.8990 N   0  0  0  0  0  0  0  0  0  0  0  0
  145.7130   71.9870  216.8660 C   0  0  0  0  0  0  0  0  0  0  0  0
  145.1678   72.3860  215.9980 H   0  0  0  0  0  0  0  0  0  0  0  0
  146.7249   71.6890  216.5540 H   0  0  0  0  0  0  0  0  0  0  0  0
  144.9800   70.7910  217.4150 C   0  0  0  0  0  0  0  0  0  0  0  0
  143.5880   70.6840  217.2740 C   0  0  0  0  0  0  0  0  0  0  0  0
  143.0352   71.4450  216.7037 H   0  0  0  0  0  0  0  0  0  0  0  0
  142.9000   69.6130  217.8560 C   0  0  0  0  0  0  0  0  0  0  0  0
  141.8111   69.5262  217.7269 H   0  0  0  0  0  0  0  0  0  0  0  0
  143.5920   68.6530  218.6010 C   0  0  0  0  0  0  0  0  0  0  0  0
  142.6970   67.3200  219.3190 Cl  0  0  0  0  0  0  0  0  0  0  0  0
  144.9840   68.7640  218.7630 C   0  0  0  0  0  0  0  0  0  0  0  0
  145.8870   67.6010  219.7220 Cl  0  0  0  0  0  0  0  0  0  0  0  0
  145.6710   69.8270  218.1670 C   0  0  0  0  0  0  0  0  0  0  0  0
  146.7613   69.9084  218.2884 H   0  0  0  0  0  0  0  0  0  0  0  0
  1  2  1  0
  2  3  1  0
  3  4  2  0
  4  5  1  0
  4  6  1  0
  6  7  1  0
  7  8  2  0
  7  9  1  0
  9 10  2  0
 10 11  1  0
 11 12  2  0
 12 13  1  0
 12 14  1  0
 14 15  1  0
 14 16  2  0
 16 17  1  0
 16 18  1  0
 18 19  1  0
 18 20  2  0
 20 21  1  0
 21 22  1  0
 21 23  2  0
 23 24  1  0
  3 25  1  0
 25 26  1  0
 26 27  1  0
 26 28  1  0
 26 29  1  0
 29 30  1  0
 29 31  1  0
 29 32  1  0
 32 33  1  0
 32 34  1  0
 32 35  1  0
 35 36  1  6
 35 37  1  0
 37 38  2  0
 37 39  1  0
 39 40  1  0
 40 41  1  0
 40 42  1  0
 40 43  1  0
 43 44  2  0
 44 45  1  0
 44 46  1  0
 46 47  1  0
 46 48  2  0
 48 49  1  0
 48 50  1  0
 50 51  1  0
 50 52  2  0
 52 53  1  0
 23  9  1  0
 35 25  1  0
 52 43  1  0
 20 11  1  0
M  CHG  2   6  -1  39  -1
M  END
>  <UniqueID>  (50) 
159

>  <SMILES>  (50) 
O=C([N-]/C=C(\O)N1CCC[C@H]1C(=O)[N-]Cc1ccc(Cl)c(Cl)c1)c1ccc2ccccc2n1

>  <Energy>  (50) 
58.6885989682861

>  <Genealogy>  (50) 
O=C([N-]CC(=O)N1CCC[C@H]1C(=O)[N-]Cc1ccc(Cl)c(Cl)c1)c1ccc2ccccc2n1 (protonated)
O=C([N-]C=C(O)N1CCC[C@H]1C(=O)[N-]Cc1ccc(Cl)c(Cl)c1)c1ccc2ccccc2n1 (tautomer)
O=C([N-]/C=C(\O)N1CCC[C@H]1C(=O)[N-]Cc1ccc(Cl)c(Cl)c1)c1ccc2ccccc2n1 (cis-trans isomerization)
O=C([N-]/C=C(\O)N1CCC[C@H]1C(=O)[N-]Cc1ccc(Cl)c(Cl)c1)c1ccc2ccccc2n1 (3D coordinates assigned)
O=C([N-]/C=C(\O)N1CCC[C@H]1C(=O)[N-]Cc1ccc(Cl)c(Cl)c1)c1ccc2ccccc2n1 (nonaromatic ring conformer: 58.6885989682861 kcal/mol)

>  <smiles>  (50) 
O=C(NCC(=O)N1CCC[C@H]1C(=O)NCc1ccc(Cl)c(Cl)c1)c1ccc2ccccc2n1

>  <score_type>  (50) 
oracle

>  <origin>  (50) 
autodockgpu

>  <m_score__min__energy>  (50) 
-7.9299999999999997

>  <m_primary>  (50) 
energy

>  <meeko>  (50) 
{"free_energy": -7.14, "intermolecular_energy": -10.12, "internal_energy": -2.83, "cluster_size": 1, "cluster_id": 6, "rank_in_cluster": 1}

>  <energy>  (50) 
-6.26

>  <cluster_rmsd>  (50) 
1.6

>  <rmsd>  (50) 
270.28

>  <cluster>  (50) 
4

$$$$
NTBKPXNOUBMHTF-GGMSAQKCNA-L
     RDKit          3D

 53 56  0  0  0  0  0  0  0  0999 V2000
  136.6840   72.0240  222.5170 H   0  0  0  0  0  0  0  0  0  0  0  0
  136.7510   72.3440  221.5570 O   0  0  0  0  0  0  0  0  0  0  0  0
  137.3320   73.5650  221.2000 C   0  0  0  0  0  0  0  0  0  0  0  0
  136.5790   74.5800  220.7570 C   0  0  0  0  0  0  0  0  0  0  0  0
  136.6159   74.8582  219.6934 H   0  0  0  0  0  0  0  0  0  0  0  0
  135.7270   75.3080  221.6470 N   0  0  0  0  0  0  0  0  0  0  0  0
  135.9190   75.4620  223.0610 C   0  0  0  0  0  0  0  0  0  0  0  0
  136.6350   76.4200  223.4630 O   0  0  0  0  0  0  0  0  0  0  0  0
  135.3380   74.5330  224.0550 C   0  0  0  0  0  0  0  0  0  0  0  0
  135.5820   73.1970  223.9680 N   0  0  0  0  0  0  0  0  0  0  0  0
  135.0740   72.3060  224.8610 C   0  0  0  0  0  0  0  0  0  0  0  0
  135.3300   70.9380  224.7120 C   0  0  0  0  0  0  0  0  0  0  0  0
  135.9493   70.5817  223.8756 H   0  0  0  0  0  0  0  0  0  0  0  0
  134.7980   70.0250  225.6270 C   0  0  0  0  0  0  0  0  0  0  0  0
  134.9974   68.9498  225.5075 H   0  0  0  0  0  0  0  0  0  0  0  0
  134.0130   70.4740  226.6940 C   0  0  0  0  0  0  0  0  0  0  0  0
  133.6005   69.7507  227.4128 H   0  0  0  0  0  0  0  0  0  0  0  0
  133.7500   71.8400  226.8510 C   0  0  0  0  0  0  0  0  0  0  0  0
  133.1323   72.1895  227.6914 H   0  0  0  0  0  0  0  0  0  0  0  0
  134.2760   72.7620  225.9340 C   0  0  0  0  0  0  0  0  0  0  0  0
  134.0240   74.1340  226.0530 C   0  0  0  0  0  0  0  0  0  0  0  0
  133.4073   74.5111  226.8822 H   0  0  0  0  0  0  0  0  0  0  0  0
  134.5570   75.0230  225.1170 C   0  0  0  0  0  0  0  0  0  0  0  0
  134.3667   76.1024  225.2101 H   0  0  0  0  0  0  0  0  0  0  0  0
  138.7560   73.7210  221.3480 N   0  0  0  0  0  0  0  0  0  0  0  0
  139.4490   74.9990  221.2470 C   0  0  0  0  0  0  0  0  0  0  0  0
  139.2040   75.4950  220.2962 H   0  0  0  0  0  0  0  0  0  0  0  0
  139.1548   75.6873  222.0530 H   0  0  0  0  0  0  0  0  0  0  0  0
  140.9350   74.6630  221.3050 C   0  0  0  0  0  0  0  0  0  0  0  0
  141.4886   75.2343  220.5453 H   0  0  0  0  0  0  0  0  0  0  0  0
  141.3744   74.9190  222.2804 H   0  0  0  0  0  0  0  0  0  0  0  0
  141.0240   73.1680  221.0180 C   0  0  0  0  0  0  0  0  0  0  0  0
  141.1895   72.9904  219.9451 H   0  0  0  0  0  0  0  0  0  0  0  0
  141.8629   72.6964  221.5507 H   0  0  0  0  0  0  0  0  0  0  0  0
  139.6710   72.5930  221.4560 C   0  0  1  0  0  0  0  0  0  0  0  0
  139.4056   71.7232  220.8371 H   0  0  0  0  0  0  0  0  0  0  0  0
  139.6670   72.1000  222.8840 C   0  0  0  0  0  0  0  0  0  0  0  0
  140.6670   72.2620  223.6350 O   0  0  0  0  0  0  0  0  0  0  0  0
  138.4940   71.4560  223.3960 N   0  0  0  0  0  0  0  0  0  0  0  0
  138.3920   70.0100  223.5380 C   0  0  0  0  0  0  0  0  0  0  0  0
  137.3330   69.7213  223.6096 H   0  0  0  0  0  0  0  0  0  0  0  0
  138.8442   69.5203  222.6630 H   0  0  0  0  0  0  0  0  0  0  0  0
  139.1160   69.5820  224.7870 C   0  0  0  0  0  0  0  0  0  0  0  0
  139.2000   68.2240  225.1300 C   0  0  0  0  0  0  0  0  0  0  0  0
  138.7913   67.4616  224.4505 H   0  0  0  0  0  0  0  0  0  0  0  0
  139.8010   67.8350  226.3320 C   0  0  0  0  0  0  0  0  0  0  0  0
  139.8782   66.7675  226.5859 H   0  0  0  0  0  0  0  0  0  0  0  0
  140.3040   68.7990  227.2120 C   0  0  0  0  0  0  0  0  0  0  0  0
  141.0530   68.2770  228.7160 Cl  0  0  0  0  0  0  0  0  0  0  0  0
  140.2050   70.1620  226.8850 C   0  0  0  0  0  0  0  0  0  0  0  0
  140.7890   71.4080  227.9790 Cl  0  0  0  0  0  0  0  0  0  0  0  0
  139.6170   70.5480  225.6760 C   0  0  0  0  0  0  0  0  0  0  0  0
  139.5463   71.6153  225.4193 H   0  0  0  0  0  0  0  0  0  0  0  0
  1  2  1  0
  2  3  1  0
  3  4  2  0
  4  5  1  0
  4  6  1  0
  6  7  1  0
  7  8  2  0
  7  9  1  0
  9 10  2  0
 10 11  1  0
 11 12  2  0
 12 13  1  0
 12 14  1  0
 14 15  1  0
 14 16  2  0
 16 17  1  0
 16 18  1  0
 18 19  1  0
 18 20  2  0
 20 21  1  0
 21 22  1  0
 21 23  2  0
 23 24  1  0
  3 25  1  0
 25 26  1  0
 26 27  1  0
 26 28  1  0
 26 29  1  0
 29 30  1  0
 29 31  1  0
 29 32  1  0
 32 33  1  0
 32 34  1  0
 32 35  1  0
 35 36  1  6
 35 37  1  0
 37 38  2  0
 37 39  1  0
 39 40  1  0
 40 41  1  0
 40 42  1  0
 40 43  1  0
 43 44  2  0
 44 45  1  0
 44 46  1  0
 46 47  1  0
 46 48  2  0
 48 49  1  0
 48 50  1  0
 50 51  1  0
 50 52  2  0
 52 53  1  0
 23  9  1  0
 35 25  1  0
 52 43  1  0
 20 11  1  0
M  CHG  2   6  -1  39  -1
M  END
>  <UniqueID>  (51) 
159

>  <SMILES>  (51) 
O=C([N-]/C=C(\O)N1CCC[C@H]1C(=O)[N-]Cc1ccc(Cl)c(Cl)c1)c1ccc2ccccc2n1

>  <Energy>  (51) 
58.6885989682861

>  <Genealogy>  (51) 
O=C([N-]CC(=O)N1CCC[C@H]1C(=O)[N-]Cc1ccc(Cl)c(Cl)c1)c1ccc2ccccc2n1 (protonated)
O=C([N-]C=C(O)N1CCC[C@H]1C(=O)[N-]Cc1ccc(Cl)c(Cl)c1)c1ccc2ccccc2n1 (tautomer)
O=C([N-]/C=C(\O)N1CCC[C@H]1C(=O)[N-]Cc1ccc(Cl)c(Cl)c1)c1ccc2ccccc2n1 (cis-trans isomerization)
O=C([N-]/C=C(\O)N1CCC[C@H]1C(=O)[N-]Cc1ccc(Cl)c(Cl)c1)c1ccc2ccccc2n1 (3D coordinates assigned)
O=C([N-]/C=C(\O)N1CCC[C@H]1C(=O)[N-]Cc1ccc(Cl)c(Cl)c1)c1ccc2ccccc2n1 (nonaromatic ring conformer: 58.6885989682861 kcal/mol)

>  <smiles>  (51) 
O=C(NCC(=O)N1CCC[C@H]1C(=O)NCc1ccc(Cl)c(Cl)c1)c1ccc2ccccc2n1

>  <score_type>  (51) 
oracle

>  <origin>  (51) 
autodockgpu

>  <m_score__min__energy>  (51) 
-7.9299999999999997

>  <m_primary>  (51) 
energy

>  <meeko>  (51) 
{"free_energy": -6.26, "intermolecular_energy": -9.24, "internal_energy": -3.31, "cluster_size": 2, "cluster_id": 9, "rank_in_cluster": 2}

>  <energy>  (51) 
-7.2

>  <cluster_rmsd>  (51) 
0.0

>  <rmsd>  (51) 
270.91

>  <cluster>  (51) 
5

$$$$
NTBKPXNOUBMHTF-GGMSAQKCNA-L
     RDKit          3D

 53 56  0  0  0  0  0  0  0  0999 V2000
  139.0410   74.0820  223.0380 H   0  0  0  0  0  0  0  0  0  0  0  0
  139.2880   75.0020  222.6950 O   0  0  0  0  0  0  0  0  0  0  0  0
  140.2770   75.2140  221.7290 C   0  0  0  0  0  0  0  0  0  0  0  0
  141.0500   74.2060  221.3040 C   0  0  0  0  0  0  0  0  0  0  0  0
  141.6748   74.3415  220.4088 H   0  0  0  0  0  0  0  0  0  0  0  0
  141.0740   72.9550  221.9990 N   0  0  0  0  0  0  0  0  0  0  0  0
  139.9290   72.2200  222.4540 C   0  0  0  0  0  0  0  0  0  0  0  0
  138.8560   72.3270  221.8010 O   0  0  0  0  0  0  0  0  0  0  0  0
  139.9520   71.3710  223.6660 C   0  0  0  0  0  0  0  0  0  0  0  0
  140.4470   71.8600  224.8360 N   0  0  0  0  0  0  0  0  0  0  0  0
  140.4840   71.1190  225.9750 C   0  0  0  0  0  0  0  0  0  0  0  0
  141.0310   71.6570  227.1460 C   0  0  0  0  0  0  0  0  0  0  0  0
  141.4265   72.6834  227.1480 H   0  0  0  0  0  0  0  0  0  0  0  0
  141.0740   70.8880  228.3130 C   0  0  0  0  0  0  0  0  0  0  0  0
  141.5060   71.3106  229.2321 H   0  0  0  0  0  0  0  0  0  0  0  0
  140.5700   69.5840  228.3160 C   0  0  0  0  0  0  0  0  0  0  0  0
  140.6043   68.9855  229.2383 H   0  0  0  0  0  0  0  0  0  0  0  0
  140.0220   69.0370  227.1500 C   0  0  0  0  0  0  0  0  0  0  0  0
  139.6250   68.0111  227.1564 H   0  0  0  0  0  0  0  0  0  0  0  0
  139.9800   69.7990  225.9740 C   0  0  0  0  0  0  0  0  0  0  0  0
  139.4500   69.2800  224.7860 C   0  0  0  0  0  0  0  0  0  0  0  0
  139.0494   68.2558  224.7627 H   0  0  0  0  0  0  0  0  0  0  0  0
  139.4310   70.0650  223.6310 C   0  0  0  0  0  0  0  0  0  0  0  0
  139.0101   69.6634  222.6974 H   0  0  0  0  0  0  0  0  0  0  0  0
  140.4290   76.5350  221.1740 N   0  0  0  0  0  0  0  0  0  0  0  0
  139.7800   76.9820  219.9480 C   0  0  0  0  0  0  0  0  0  0  0  0
  140.0090   76.2954  219.1197 H   0  0  0  0  0  0  0  0  0  0  0  0
  138.6852   77.0059  220.0518 H   0  0  0  0  0  0  0  0  0  0  0  0
  140.3510   78.3670  219.6650 C   0  0  0  0  0  0  0  0  0  0  0  0
  140.6031   78.4689  218.5991 H   0  0  0  0  0  0  0  0  0  0  0  0
  139.6290   79.1630  219.8999 H   0  0  0  0  0  0  0  0  0  0  0  0
  141.6080   78.4700  220.5230 C   0  0  0  0  0  0  0  0  0  0  0  0
  142.4940   78.1642  219.9473 H   0  0  0  0  0  0  0  0  0  0  0  0
  141.7904   79.5002  220.8628 H   0  0  0  0  0  0  0  0  0  0  0  0
  141.3730   77.5120  221.6980 C   0  0  1  0  0  0  0  0  0  0  0  0
  142.3275   77.0898  222.0455 H   0  0  0  0  0  0  0  0  0  0  0  0
  140.7580   78.1850  222.9020 C   0  0  0  0  0  0  0  0  0  0  0  0
  139.5110   78.1740  223.0920 O   0  0  0  0  0  0  0  0  0  0  0  0
  141.6130   78.8260  223.8560 N   0  0  0  0  0  0  0  0  0  0  0  0
  142.2320   80.1210  223.6060 C   0  0  0  0  0  0  0  0  0  0  0  0
  142.3927   80.6422  224.5612 H   0  0  0  0  0  0  0  0  0  0  0  0
  143.1995   79.9766  223.1029 H   0  0  0  0  0  0  0  0  0  0  0  0
  141.3250   80.9440  222.7300 C   0  0  0  0  0  0  0  0  0  0  0  0
  141.8420   81.6400  221.6270 C   0  0  0  0  0  0  0  0  0  0  0  0
  142.9040   81.5333  221.3610 H   0  0  0  0  0  0  0  0  0  0  0  0
  141.0130   82.4690  220.8640 C   0  0  0  0  0  0  0  0  0  0  0  0
  141.4214   82.9978  219.9902 H   0  0  0  0  0  0  0  0  0  0  0  0
  139.6670   82.6280  221.2080 C   0  0  0  0  0  0  0  0  0  0  0  0
  138.6510   83.6780  220.2270 Cl  0  0  0  0  0  0  0  0  0  0  0  0
  139.1460   81.9500  222.3240 C   0  0  0  0  0  0  0  0  0  0  0  0
  137.4700   82.1510  222.8140 Cl  0  0  0  0  0  0  0  0  0  0  0  0
  139.9740   81.1100  223.0760 C   0  0  0  0  0  0  0  0  0  0  0  0
  139.5637   80.5752  223.9453 H   0  0  0  0  0  0  0  0  0  0  0  0
  1  2  1  0
  2  3  1  0
  3  4  2  0
  4  5  1  0
  4  6  1  0
  6  7  1  0
  7  8  2  0
  7  9  1  0
  9 10  2  0
 10 11  1  0
 11 12  2  0
 12 13  1  0
 12 14  1  0
 14 15  1  0
 14 16  2  0
 16 17  1  0
 16 18  1  0
 18 19  1  0
 18 20  2  0
 20 21  1  0
 21 22  1  0
 21 23  2  0
 23 24  1  0
  3 25  1  0
 25 26  1  0
 26 27  1  0
 26 28  1  0
 26 29  1  0
 29 30  1  0
 29 31  1  0
 29 32  1  0
 32 33  1  0
 32 34  1  0
 32 35  1  0
 35 36  1  1
 35 37  1  0
 37 38  2  0
 37 39  1  0
 39 40  1  0
 40 41  1  0
 40 42  1  0
 40 43  1  0
 43 44  2  0
 44 45  1  0
 44 46  1  0
 46 47  1  0
 46 48  2  0
 48 49  1  0
 48 50  1  0
 50 51  1  0
 50 52  2  0
 52 53  1  0
 23  9  1  0
 35 25  1  0
 52 43  1  0
 20 11  1  0
M  CHG  2   6  -1  39  -1
M  END
>  <UniqueID>  (52) 
159

>  <SMILES>  (52) 
O=C([N-]/C=C(\O)N1CCC[C@H]1C(=O)[N-]Cc1ccc(Cl)c(Cl)c1)c1ccc2ccccc2n1

>  <Energy>  (52) 
58.6885989682861

>  <Genealogy>  (52) 
O=C([N-]CC(=O)N1CCC[C@H]1C(=O)[N-]Cc1ccc(Cl)c(Cl)c1)c1ccc2ccccc2n1 (protonated)
O=C([N-]C=C(O)N1CCC[C@H]1C(=O)[N-]Cc1ccc(Cl)c(Cl)c1)c1ccc2ccccc2n1 (tautomer)
O=C([N-]/C=C(\O)N1CCC[C@H]1C(=O)[N-]Cc1ccc(Cl)c(Cl)c1)c1ccc2ccccc2n1 (cis-trans isomerization)
O=C([N-]/C=C(\O)N1CCC[C@H]1C(=O)[N-]Cc1ccc(Cl)c(Cl)c1)c1ccc2ccccc2n1 (3D coordinates assigned)
O=C([N-]/C=C(\O)N1CCC[C@H]1C(=O)[N-]Cc1ccc(Cl)c(Cl)c1)c1ccc2ccccc2n1 (nonaromatic ring conformer: 58.6885989682861 kcal/mol)

>  <smiles>  (52) 
O=C(NCC(=O)N1CCC[C@H]1C(=O)NCc1ccc(Cl)c(Cl)c1)c1ccc2ccccc2n1

>  <score_type>  (52) 
oracle

>  <origin>  (52) 
autodockgpu

>  <m_score__min__energy>  (52) 
-7.9299999999999997

>  <m_primary>  (52) 
energy

>  <meeko>  (52) 
{"free_energy": -7.86, "intermolecular_energy": -10.84, "internal_energy": -2.3, "cluster_size": 2, "cluster_id": 2, "rank_in_cluster": 1}

>  <energy>  (52) 
-7.14

>  <cluster_rmsd>  (52) 
0.0

>  <rmsd>  (52) 
270.28

>  <cluster>  (52) 
6

$$$$
NTBKPXNOUBMHTF-GGMSAQKCNA-L
     RDKit          3D

 53 56  0  0  0  0  0  0  0  0999 V2000
  142.2730   76.2700  221.3290 H   0  0  0  0  0  0  0  0  0  0  0  0
  141.4070   75.7580  221.4470 O   0  0  0  0  0  0  0  0  0  0  0  0
  140.7250   75.1600  220.3810 C   0  0  0  0  0  0  0  0  0  0  0  0
  141.2600   75.1310  219.1530 C   0  0  0  0  0  0  0  0  0  0  0  0
  140.7700   74.5449  218.3615 H   0  0  0  0  0  0  0  0  0  0  0  0
  142.4600   75.8520  218.8570 N   0  0  0  0  0  0  0  0  0  0  0  0
  142.5440   77.2360  218.4880 C   0  0  0  0  0  0  0  0  0  0  0  0
  142.9650   77.5200  217.3330 O   0  0  0  0  0  0  0  0  0  0  0  0
  142.1860   78.3360  219.4110 C   0  0  0  0  0  0  0  0  0  0  0  0
  142.1560   78.1190  220.7550 N   0  0  0  0  0  0  0  0  0  0  0  0
  141.8380   79.0990  221.6410 C   0  0  0  0  0  0  0  0  0  0  0  0
  141.7920   78.8180  223.0120 C   0  0  0  0  0  0  0  0  0  0  0  0
  142.0207   77.8049  223.3744 H   0  0  0  0  0  0  0  0  0  0  0  0
  141.4550   79.8270  223.9200 C   0  0  0  0  0  0  0  0  0  0  0  0
  141.4171   79.6051  224.9967 H   0  0  0  0  0  0  0  0  0  0  0  0
  141.1660   81.1170  223.4640 C   0  0  0  0  0  0  0  0  0  0  0  0
  140.9047   81.9068  224.1837 H   0  0  0  0  0  0  0  0  0  0  0  0
  141.2080   81.4070  222.0950 C   0  0  0  0  0  0  0  0  0  0  0  0
  140.9812   82.4230  221.7397 H   0  0  0  0  0  0  0  0  0  0  0  0
  141.5400   80.3990  221.1770 C   0  0  0  0  0  0  0  0  0  0  0  0
  141.5800   80.6510  219.8000 C   0  0  0  0  0  0  0  0  0  0  0  0
  141.3546   81.6570  219.4165 H   0  0  0  0  0  0  0  0  0  0  0  0
  141.9070   79.6210  218.9150 C   0  0  0  0  0  0  0  0  0  0  0  0
  141.9460   79.8151  217.8330 H   0  0  0  0  0  0  0  0  0  0  0  0
  139.4470   74.5480  220.6350 N   0  0  0  0  0  0  0  0  0  0  0  0
  138.4300   74.3300  219.6140 C   0  0  0  0  0  0  0  0  0  0  0  0
  138.1974   75.2723  219.0963 H   0  0  0  0  0  0  0  0  0  0  0  0
  138.7687   73.6172  218.8477 H   0  0  0  0  0  0  0  0  0  0  0  0
  137.2040   73.8160  220.3600 C   0  0  0  0  0  0  0  0  0  0  0  0
  136.2941   74.3148  219.9949 H   0  0  0  0  0  0  0  0  0  0  0  0
  137.0575   72.7360  220.2114 H   0  0  0  0  0  0  0  0  0  0  0  0
  137.4490   74.1590  221.8260 C   0  0  0  0  0  0  0  0  0  0  0  0
  136.9954   75.1294  222.0760 H   0  0  0  0  0  0  0  0  0  0  0  0
  137.0014   73.4157  222.5022 H   0  0  0  0  0  0  0  0  0  0  0  0
  138.9740   74.2240  221.9750 C   0  0  1  0  0  0  0  0  0  0  0  0
  139.2521   74.9525  222.7509 H   0  0  0  0  0  0  0  0  0  0  0  0
  139.5890   72.9120  222.4030 C   0  0  0  0  0  0  0  0  0  0  0  0
  140.8380   72.7850  222.5250 O   0  0  0  0  0  0  0  0  0  0  0  0
  138.7320   71.8030  222.6970 N   0  0  0  0  0  0  0  0  0  0  0  0
  139.2040   70.4250  222.6900 C   0  0  0  0  0  0  0  0  0  0  0  0
  138.3992   69.7623  222.3392 H   0  0  0  0  0  0  0  0  0  0  0  0
  140.0691   70.3343  222.0167 H   0  0  0  0  0  0  0  0  0  0  0  0
  139.6070   70.0320  224.0870 C   0  0  0  0  0  0  0  0  0  0  0  0
  139.3410   68.7400  224.5670 C   0  0  0  0  0  0  0  0  0  0  0  0
  138.8938   67.9891  223.8990 H   0  0  0  0  0  0  0  0  0  0  0  0
  139.6420   68.4030  225.8910 C   0  0  0  0  0  0  0  0  0  0  0  0
  139.4471   67.3834  226.2548 H   0  0  0  0  0  0  0  0  0  0  0  0
  140.1900   69.3580  226.7540 C   0  0  0  0  0  0  0  0  0  0  0  0
  140.5560   68.9010  228.4130 Cl  0  0  0  0  0  0  0  0  0  0  0  0
  140.4400   70.6590  226.2860 C   0  0  0  0  0  0  0  0  0  0  0  0
  141.0930   71.9000  227.3470 Cl  0  0  0  0  0  0  0  0  0  0  0  0
  140.1530   70.9890  224.9580 C   0  0  0  0  0  0  0  0  0  0  0  0
  140.3565   72.0063  224.5924 H   0  0  0  0  0  0  0  0  0  0  0  0
  1  2  1  0
  2  3  1  0
  3  4  2  0
  4  5  1  0
  4  6  1  0
  6  7  1  0
  7  8  2  0
  7  9  1  0
  9 10  2  0
 10 11  1  0
 11 12  2  0
 12 13  1  0
 12 14  1  0
 14 15  1  0
 14 16  2  0
 16 17  1  0
 16 18  1  0
 18 19  1  0
 18 20  2  0
 20 21  1  0
 21 22  1  0
 21 23  2  0
 23 24  1  0
  3 25  1  0
 25 26  1  0
 26 27  1  0
 26 28  1  0
 26 29  1  0
 29 30  1  0
 29 31  1  0
 29 32  1  0
 32 33  1  0
 32 34  1  0
 32 35  1  0
 35 36  1  1
 35 37  1  0
 37 38  2  0
 37 39  1  0
 39 40  1  0
 40 41  1  0
 40 42  1  0
 40 43  1  0
 43 44  2  0
 44 45  1  0
 44 46  1  0
 46 47  1  0
 46 48  2  0
 48 49  1  0
 48 50  1  0
 50 51  1  0
 50 52  2  0
 52 53  1  0
 23  9  1  0
 35 25  1  0
 52 43  1  0
 20 11  1  0
M  CHG  2   6  -1  39  -1
M  END
>  <UniqueID>  (53) 
159

>  <SMILES>  (53) 
O=C([N-]/C=C(\O)N1CCC[C@H]1C(=O)[N-]Cc1ccc(Cl)c(Cl)c1)c1ccc2ccccc2n1

>  <Energy>  (53) 
58.6885989682861

>  <Genealogy>  (53) 
O=C([N-]CC(=O)N1CCC[C@H]1C(=O)[N-]Cc1ccc(Cl)c(Cl)c1)c1ccc2ccccc2n1 (protonated)
O=C([N-]C=C(O)N1CCC[C@H]1C(=O)[N-]Cc1ccc(Cl)c(Cl)c1)c1ccc2ccccc2n1 (tautomer)
O=C([N-]/C=C(\O)N1CCC[C@H]1C(=O)[N-]Cc1ccc(Cl)c(Cl)c1)c1ccc2ccccc2n1 (cis-trans isomerization)
O=C([N-]/C=C(\O)N1CCC[C@H]1C(=O)[N-]Cc1ccc(Cl)c(Cl)c1)c1ccc2ccccc2n1 (3D coordinates assigned)
O=C([N-]/C=C(\O)N1CCC[C@H]1C(=O)[N-]Cc1ccc(Cl)c(Cl)c1)c1ccc2ccccc2n1 (nonaromatic ring conformer: 58.6885989682861 kcal/mol)

>  <smiles>  (53) 
O=C(NCC(=O)N1CCC[C@H]1C(=O)NCc1ccc(Cl)c(Cl)c1)c1ccc2ccccc2n1

>  <score_type>  (53) 
oracle

>  <origin>  (53) 
autodockgpu

>  <m_score__min__energy>  (53) 
-7.9299999999999997

>  <m_primary>  (53) 
energy

>  <meeko>  (53) 
{"free_energy": -7.2, "intermolecular_energy": -10.18, "internal_energy": -2.33, "cluster_size": 1, "cluster_id": 5, "rank_in_cluster": 1}

>  <energy>  (53) 
-7.06

>  <cluster_rmsd>  (53) 
0.0

>  <rmsd>  (53) 
269.87

>  <cluster>  (53) 
7

$$$$
NTBKPXNOUBMHTF-GGMSAQKCNA-L
     RDKit          3D

 53 56  0  0  0  0  0  0  0  0999 V2000
  138.6210   77.7380  221.3450 H   0  0  0  0  0  0  0  0  0  0  0  0
  138.5050   76.8070  221.7270 O   0  0  0  0  0  0  0  0  0  0  0  0
  139.3930   75.7590  221.4600 C   0  0  0  0  0  0  0  0  0  0  0  0
  139.2220   74.5550  222.0200 C   0  0  0  0  0  0  0  0  0  0  0  0
  138.2058   74.2062  222.2560 H   0  0  0  0  0  0  0  0  0  0  0  0
  140.3430   73.7150  222.3160 N   0  0  0  0  0  0  0  0  0  0  0  0
  140.3490   72.2810  222.3040 C   0  0  0  0  0  0  0  0  0  0  0  0
  140.4690   71.6950  221.1930 O   0  0  0  0  0  0  0  0  0  0  0  0
  140.1930   71.4680  223.5310 C   0  0  0  0  0  0  0  0  0  0  0  0
  140.6980   71.9110  224.7150 N   0  0  0  0  0  0  0  0  0  0  0  0
  140.5740   71.2020  225.8680 C   0  0  0  0  0  0  0  0  0  0  0  0
  141.1370   71.6870  227.0540 C   0  0  0  0  0  0  0  0  0  0  0  0
  141.6748   72.6466  227.0561 H   0  0  0  0  0  0  0  0  0  0  0  0
  141.0150   70.9500  228.2370 C   0  0  0  0  0  0  0  0  0  0  0  0
  141.4588   71.3307  229.1687 H   0  0  0  0  0  0  0  0  0  0  0  0
  140.3300   69.7300  228.2380 C   0  0  0  0  0  0  0  0  0  0  0  0
  140.2344   69.1561  229.1716 H   0  0  0  0  0  0  0  0  0  0  0  0
  139.7660   69.2370  227.0560 C   0  0  0  0  0  0  0  0  0  0  0  0
  139.2275   68.2778  227.0612 H   0  0  0  0  0  0  0  0  0  0  0  0
  139.8880   69.9670  225.8650 C   0  0  0  0  0  0  0  0  0  0  0  0
  139.3460   69.4980  224.6630 C   0  0  0  0  0  0  0  0  0  0  0  0
  138.8055   68.5403  224.6386 H   0  0  0  0  0  0  0  0  0  0  0  0
  139.4930   70.2490  223.4940 C   0  0  0  0  0  0  0  0  0  0  0  0
  139.0627   69.8880  222.5482 H   0  0  0  0  0  0  0  0  0  0  0  0
  140.4790   75.9910  220.5440 N   0  0  0  0  0  0  0  0  0  0  0  0
  140.7630   75.1510  219.3880 C   0  0  0  0  0  0  0  0  0  0  0  0
  140.8659   74.0993  219.6936 H   0  0  0  0  0  0  0  0  0  0  0  0
  139.9522   75.1925  218.6458 H   0  0  0  0  0  0  0  0  0  0  0  0
  142.0770   75.6700  218.8170 C   0  0  0  0  0  0  0  0  0  0  0  0
  142.7424   74.8327  218.5599 H   0  0  0  0  0  0  0  0  0  0  0  0
  141.9221   76.2493  217.8949 H   0  0  0  0  0  0  0  0  0  0  0  0
  142.6920   76.5200  219.9250 C   0  0  0  0  0  0  0  0  0  0  0  0
  143.3808   75.9180  220.5359 H   0  0  0  0  0  0  0  0  0  0  0  0
  143.2772   77.3600  219.5225 H   0  0  0  0  0  0  0  0  0  0  0  0
  141.5050   77.0000  220.7680 C   0  0  1  0  0  0  0  0  0  0  0  0
  141.8069   77.1233  221.8186 H   0  0  0  0  0  0  0  0  0  0  0  0
  140.9690   78.3440  220.3330 C   0  0  0  0  0  0  0  0  0  0  0  0
  139.7770   78.4750  219.9400 O   0  0  0  0  0  0  0  0  0  0  0  0
  141.8260   79.4900  220.3920 N   0  0  0  0  0  0  0  0  0  0  0  0
  142.1830   80.1370  221.6470 C   0  0  0  0  0  0  0  0  0  0  0  0
  142.8656   79.4873  222.2144 H   0  0  0  0  0  0  0  0  0  0  0  0
  142.6812   81.0955  221.4393 H   0  0  0  0  0  0  0  0  0  0  0  0
  140.9340   80.3810  222.4530 C   0  0  0  0  0  0  0  0  0  0  0  0
  140.5960   79.5270  223.5140 C   0  0  0  0  0  0  0  0  0  0  0  0
  141.2784   78.7134  223.8010 H   0  0  0  0  0  0  0  0  0  0  0  0
  139.3950   79.7060  224.2080 C   0  0  0  0  0  0  0  0  0  0  0  0
  139.1447   79.0435  225.0497 H   0  0  0  0  0  0  0  0  0  0  0  0
  138.5110   80.7240  223.8360 C   0  0  0  0  0  0  0  0  0  0  0  0
  137.0080   80.9220  224.7290 Cl  0  0  0  0  0  0  0  0  0  0  0  0
  138.8340   81.5700  222.7610 C   0  0  0  0  0  0  0  0  0  0  0  0
  137.7350   82.8380  222.2350 Cl  0  0  0  0  0  0  0  0  0  0  0  0
  140.0430   81.3990  222.0780 C   0  0  0  0  0  0  0  0  0  0  0  0
  140.2971   82.0667  221.2416 H   0  0  0  0  0  0  0  0  0  0  0  0
  1  2  1  0
  2  3  1  0
  3  4  2  0
  4  5  1  0
  4  6  1  0
  6  7  1  0
  7  8  2  0
  7  9  1  0
  9 10  2  0
 10 11  1  0
 11 12  2  0
 12 13  1  0
 12 14  1  0
 14 15  1  0
 14 16  2  0
 16 17  1  0
 16 18  1  0
 18 19  1  0
 18 20  2  0
 20 21  1  0
 21 22  1  0
 21 23  2  0
 23 24  1  0
  3 25  1  0
 25 26  1  0
 26 27  1  0
 26 28  1  0
 26 29  1  0
 29 30  1  0
 29 31  1  0
 29 32  1  0
 32 33  1  0
 32 34  1  0
 32 35  1  0
 35 36  1  1
 35 37  1  0
 37 38  2  0
 37 39  1  0
 39 40  1  0
 40 41  1  0
 40 42  1  0
 40 43  1  0
 43 44  2  0
 44 45  1  0
 44 46  1  0
 46 47  1  0
 46 48  2  0
 48 49  1  0
 48 50  1  0
 50 51  1  0
 50 52  2  0
 52 53  1  0
 23  9  1  0
 35 25  1  0
 52 43  1  0
 20 11  1  0
M  CHG  2   6  -1  39  -1
M  END
>  <UniqueID>  (54) 
159

>  <SMILES>  (54) 
O=C([N-]/C=C(\O)N1CCC[C@H]1C(=O)[N-]Cc1ccc(Cl)c(Cl)c1)c1ccc2ccccc2n1

>  <Energy>  (54) 
58.6885989682861

>  <Genealogy>  (54) 
O=C([N-]CC(=O)N1CCC[C@H]1C(=O)[N-]Cc1ccc(Cl)c(Cl)c1)c1ccc2ccccc2n1 (protonated)
O=C([N-]C=C(O)N1CCC[C@H]1C(=O)[N-]Cc1ccc(Cl)c(Cl)c1)c1ccc2ccccc2n1 (tautomer)
O=C([N-]/C=C(\O)N1CCC[C@H]1C(=O)[N-]Cc1ccc(Cl)c(Cl)c1)c1ccc2ccccc2n1 (cis-trans isomerization)
O=C([N-]/C=C(\O)N1CCC[C@H]1C(=O)[N-]Cc1ccc(Cl)c(Cl)c1)c1ccc2ccccc2n1 (3D coordinates assigned)
O=C([N-]/C=C(\O)N1CCC[C@H]1C(=O)[N-]Cc1ccc(Cl)c(Cl)c1)c1ccc2ccccc2n1 (nonaromatic ring conformer: 58.6885989682861 kcal/mol)

>  <smiles>  (54) 
O=C(NCC(=O)N1CCC[C@H]1C(=O)NCc1ccc(Cl)c(Cl)c1)c1ccc2ccccc2n1

>  <score_type>  (54) 
oracle

>  <origin>  (54) 
autodockgpu

>  <m_score__min__energy>  (54) 
-7.9299999999999997

>  <m_primary>  (54) 
energy

>  <meeko>  (54) 
{"free_energy": -6.83, "intermolecular_energy": -9.81, "internal_energy": -2.24, "cluster_size": 2, "cluster_id": 2, "rank_in_cluster": 2}

>  <energy>  (54) 
-6.94

>  <cluster_rmsd>  (54) 
0.0

>  <rmsd>  (54) 
270.53

>  <cluster>  (54) 
8

$$$$
NTBKPXNOUBMHTF-GGMSAQKCNA-L
     RDKit          3D

 53 56  0  0  0  0  0  0  0  0999 V2000
  138.8720   73.6970  222.7430 H   0  0  0  0  0  0  0  0  0  0  0  0
  139.5780   74.4160  222.6360 O   0  0  0  0  0  0  0  0  0  0  0  0
  140.5400   74.3930  221.6210 C   0  0  0  0  0  0  0  0  0  0  0  0
  141.1960   73.2650  221.3210 C   0  0  0  0  0  0  0  0  0  0  0  0
  142.2534   73.3155  221.0220 H   0  0  0  0  0  0  0  0  0  0  0  0
  140.5400   71.9940  221.3840 N   0  0  0  0  0  0  0  0  0  0  0  0
  139.5670   71.5930  222.3590 C   0  0  0  0  0  0  0  0  0  0  0  0
  138.3460   71.7190  222.0690 O   0  0  0  0  0  0  0  0  0  0  0  0
  139.9380   71.0690  223.6930 C   0  0  0  0  0  0  0  0  0  0  0  0
  139.5820   69.8070  224.0560 N   0  0  0  0  0  0  0  0  0  0  0  0
  139.9050   69.2820  225.2680 C   0  0  0  0  0  0  0  0  0  0  0  0
  139.4900   67.9880  225.6060 C   0  0  0  0  0  0  0  0  0  0  0  0
  138.9081   67.3914  224.8881 H   0  0  0  0  0  0  0  0  0  0  0  0
  139.8160   67.4550  226.8570 C   0  0  0  0  0  0  0  0  0  0  0  0
  139.4880   66.4393  227.1229 H   0  0  0  0  0  0  0  0  0  0  0  0
  140.5580   68.2100  227.7710 C   0  0  0  0  0  0  0  0  0  0  0  0
  140.8141   67.7843  228.7524 H   0  0  0  0  0  0  0  0  0  0  0  0
  140.9760   69.5040  227.4430 C   0  0  0  0  0  0  0  0  0  0  0  0
  141.5601   70.0939  228.1647 H   0  0  0  0  0  0  0  0  0  0  0  0
  140.6490   70.0480  226.1920 C   0  0  0  0  0  0  0  0  0  0  0  0
  141.0400   71.3440  225.8350 C   0  0  0  0  0  0  0  0  0  0  0  0
  141.6223   71.9576  226.5382 H   0  0  0  0  0  0  0  0  0  0  0  0
  140.6890   71.8560  224.5840 C   0  0  0  0  0  0  0  0  0  0  0  0
  140.9990   72.8715  224.2966 H   0  0  0  0  0  0  0  0  0  0  0  0
  140.7910   75.6020  220.8800 N   0  0  0  0  0  0  0  0  0  0  0  0
  140.9280   75.6560  219.4310 C   0  0  0  0  0  0  0  0  0  0  0  0
  141.6983   74.9479  219.0916 H   0  0  0  0  0  0  0  0  0  0  0  0
  139.9917   75.3808  218.9234 H   0  0  0  0  0  0  0  0  0  0  0  0
  141.3430   77.0870  219.1110 C   0  0  0  0  0  0  0  0  0  0  0  0
  142.1536   77.0958  218.3674 H   0  0  0  0  0  0  0  0  0  0  0  0
  140.5127   77.6687  218.6842 H   0  0  0  0  0  0  0  0  0  0  0  0
  141.8260   77.6730  220.4350 C   0  0  0  0  0  0  0  0  0  0  0  0
  142.9144   77.5502  220.5370 H   0  0  0  0  0  0  0  0  0  0  0  0
  141.6205   78.7512  220.5068 H   0  0  0  0  0  0  0  0  0  0  0  0
  141.0910   76.8760  221.5190 C   0  0  1  0  0  0  0  0  0  0  0  0
  141.7096   76.8016  222.4255 H   0  0  0  0  0  0  0  0  0  0  0  0
  139.7960   77.5180  221.9570 C   0  0  0  0  0  0  0  0  0  0  0  0
  139.7350   78.2200  223.0030 O   0  0  0  0  0  0  0  0  0  0  0  0
  138.6230   77.3420  221.1530 N   0  0  0  0  0  0  0  0  0  0  0  0
  137.2780   77.5480  221.6730 C   0  0  0  0  0  0  0  0  0  0  0  0
  137.2900   78.3640  222.4105 H   0  0  0  0  0  0  0  0  0  0  0  0
  136.6001   77.8127  220.8482 H   0  0  0  0  0  0  0  0  0  0  0  0
  136.8010   76.2810  222.3320 C   0  0  0  0  0  0  0  0  0  0  0  0
  136.9110   75.0490  221.6680 C   0  0  0  0  0  0  0  0  0  0  0  0
  137.4070   74.9981  220.6875 H   0  0  0  0  0  0  0  0  0  0  0  0
  136.3930   73.8860  222.2470 C   0  0  0  0  0  0  0  0  0  0  0  0
  136.4978   72.9218  221.7281 H   0  0  0  0  0  0  0  0  0  0  0  0
  135.7420   73.9450  223.4840 C   0  0  0  0  0  0  0  0  0  0  0  0
  135.1020   72.4640  224.1840 Cl  0  0  0  0  0  0  0  0  0  0  0  0
  135.6110   75.1780  224.1460 C   0  0  0  0  0  0  0  0  0  0  0  0
  134.7680   75.3030  225.6840 Cl  0  0  0  0  0  0  0  0  0  0  0  0
  136.1440   76.3370  223.5720 C   0  0  0  0  0  0  0  0  0  0  0  0
  136.0478   77.2995  224.0958 H   0  0  0  0  0  0  0  0  0  0  0  0
  1  2  1  0
  2  3  1  0
  3  4  2  0
  4  5  1  0
  4  6  1  0
  6  7  1  0
  7  8  2  0
  7  9  1  0
  9 10  2  0
 10 11  1  0
 11 12  2  0
 12 13  1  0
 12 14  1  0
 14 15  1  0
 14 16  2  0
 16 17  1  0
 16 18  1  0
 18 19  1  0
 18 20  2  0
 20 21  1  0
 21 22  1  0
 21 23  2  0
 23 24  1  0
  3 25  1  0
 25 26  1  0
 26 27  1  0
 26 28  1  0
 26 29  1  0
 29 30  1  0
 29 31  1  0
 29 32  1  0
 32 33  1  0
 32 34  1  0
 32 35  1  0
 35 36  1  1
 35 37  1  0
 37 38  2  0
 37 39  1  0
 39 40  1  0
 40 41  1  0
 40 42  1  0
 40 43  1  0
 43 44  2  0
 44 45  1  0
 44 46  1  0
 46 47  1  0
 46 48  2  0
 48 49  1  0
 48 50  1  0
 50 51  1  0
 50 52  2  0
 52 53  1  0
 23  9  1  0
 35 25  1  0
 52 43  1  0
 20 11  1  0
M  CHG  2   6  -1  39  -1
M  END
>  <UniqueID>  (55) 
159

>  <SMILES>  (55) 
O=C([N-]/C=C(\O)N1CCC[C@H]1C(=O)[N-]Cc1ccc(Cl)c(Cl)c1)c1ccc2ccccc2n1

>  <Energy>  (55) 
58.6885989682861

>  <Genealogy>  (55) 
O=C([N-]CC(=O)N1CCC[C@H]1C(=O)[N-]Cc1ccc(Cl)c(Cl)c1)c1ccc2ccccc2n1 (protonated)
O=C([N-]C=C(O)N1CCC[C@H]1C(=O)[N-]Cc1ccc(Cl)c(Cl)c1)c1ccc2ccccc2n1 (tautomer)
O=C([N-]/C=C(\O)N1CCC[C@H]1C(=O)[N-]Cc1ccc(Cl)c(Cl)c1)c1ccc2ccccc2n1 (cis-trans isomerization)
O=C([N-]/C=C(\O)N1CCC[C@H]1C(=O)[N-]Cc1ccc(Cl)c(Cl)c1)c1ccc2ccccc2n1 (3D coordinates assigned)
O=C([N-]/C=C(\O)N1CCC[C@H]1C(=O)[N-]Cc1ccc(Cl)c(Cl)c1)c1ccc2ccccc2n1 (nonaromatic ring conformer: 58.6885989682861 kcal/mol)

>  <smiles>  (55) 
O=C(NCC(=O)N1CCC[C@H]1C(=O)NCc1ccc(Cl)c(Cl)c1)c1ccc2ccccc2n1

>  <score_type>  (55) 
oracle

>  <origin>  (55) 
autodockgpu

>  <m_score__min__energy>  (55) 
-7.9299999999999997

>  <m_primary>  (55) 
energy

>  <meeko>  (55) 
{"free_energy": -6.85, "intermolecular_energy": -9.83, "internal_energy": -2.74, "cluster_size": 2, "cluster_id": 3, "rank_in_cluster": 2}

>  <energy>  (55) 
-6.93

>  <cluster_rmsd>  (55) 
0.0

>  <rmsd>  (55) 
270.35

>  <cluster>  (55) 
9

$$$$
NTBKPXNOUBMHTF-GGMSAQKCNA-L
     RDKit          3D

 53 56  0  0  0  0  0  0  0  0999 V2000
  141.3720   72.6660  218.8440 H   0  0  0  0  0  0  0  0  0  0  0  0
  142.0390   71.9130  218.7210 O   0  0  0  0  0  0  0  0  0  0  0  0
  142.1400   70.8340  219.6060 C   0  0  0  0  0  0  0  0  0  0  0  0
  141.3660   70.7650  220.6970 C   0  0  0  0  0  0  0  0  0  0  0  0
  141.4524   69.8987  221.3694 H   0  0  0  0  0  0  0  0  0  0  0  0
  140.4280   71.8030  221.0000 N   0  0  0  0  0  0  0  0  0  0  0  0
  140.1180   72.3040  222.3080 C   0  0  0  0  0  0  0  0  0  0  0  0
  139.8970   73.5390  222.4360 O   0  0  0  0  0  0  0  0  0  0  0  0
  140.0750   71.4390  223.5090 C   0  0  0  0  0  0  0  0  0  0  0  0
  140.5600   71.8930  224.6970 N   0  0  0  0  0  0  0  0  0  0  0  0
  140.5380   71.1370  225.8260 C   0  0  0  0  0  0  0  0  0  0  0  0
  141.0750   71.6380  227.0180 C   0  0  0  0  0  0  0  0  0  0  0  0
  141.5091   72.6484  227.0443 H   0  0  0  0  0  0  0  0  0  0  0  0
  141.0590   70.8530  228.1750 C   0  0  0  0  0  0  0  0  0  0  0  0
  141.4848   71.2459  229.1101 H   0  0  0  0  0  0  0  0  0  0  0  0
  140.5030   69.5690  228.1470 C   0  0  0  0  0  0  0  0  0  0  0  0
  140.4896   68.9576  229.0613 H   0  0  0  0  0  0  0  0  0  0  0  0
  139.9640   69.0600  226.9600 C   0  0  0  0  0  0  0  0  0  0  0  0
  139.5268   68.0508  226.9420 H   0  0  0  0  0  0  0  0  0  0  0  0
  139.9820   69.8380  225.7940 C   0  0  0  0  0  0  0  0  0  0  0  0
  139.4630   69.3560  224.5870 C   0  0  0  0  0  0  0  0  0  0  0  0
  139.0234   68.3488  224.5397 H   0  0  0  0  0  0  0  0  0  0  0  0
  139.5040   70.1560  223.4420 C   0  0  0  0  0  0  0  0  0  0  0  0
  139.0915   69.7837  222.4927 H   0  0  0  0  0  0  0  0  0  0  0  0
  143.0720   69.7790  219.3040 N   0  0  0  0  0  0  0  0  0  0  0  0
  142.6800   68.4150  218.9750 C   0  0  0  0  0  0  0  0  0  0  0  0
  142.0267   68.0036  219.7585 H   0  0  0  0  0  0  0  0  0  0  0  0
  142.1175   68.3695  218.0308 H   0  0  0  0  0  0  0  0  0  0  0  0
  143.9800   67.6230  218.8960 C   0  0  0  0  0  0  0  0  0  0  0  0
  143.8742   66.6570  219.4113 H   0  0  0  0  0  0  0  0  0  0  0  0
  144.2614   67.4007  217.8561 H   0  0  0  0  0  0  0  0  0  0  0  0
  145.0240   68.4890  219.5940 C   0  0  0  0  0  0  0  0  0  0  0  0
  145.1068   68.2129  220.6555 H   0  0  0  0  0  0  0  0  0  0  0  0
  146.0241   68.3618  219.1540 H   0  0  0  0  0  0  0  0  0  0  0  0
  144.5140   69.9280  219.4510 C   0  0  1  0  0  0  0  0  0  0  0  0
  144.8294   70.5337  220.3134 H   0  0  0  0  0  0  0  0  0  0  0  0
  145.0560   70.6350  218.2320 C   0  0  0  0  0  0  0  0  0  0  0  0
  144.7680   70.2450  217.0670 O   0  0  0  0  0  0  0  0  0  0  0  0
  145.8940   71.7840  218.4070 N   0  0  0  0  0  0  0  0  0  0  0  0
  145.5910   73.0740  217.8020 C   0  0  0  0  0  0  0  0  0  0  0  0
  146.5113   73.6724  217.7318 H   0  0  0  0  0  0  0  0  0  0  0  0
  145.1785   72.9209  216.7938 H   0  0  0  0  0  0  0  0  0  0  0  0
  144.5840   73.7980  218.6550 C   0  0  0  0  0  0  0  0  0  0  0  0
  144.4270   73.4620  220.0090 C   0  0  0  0  0  0  0  0  0  0  0  0
  145.0869   72.7104  220.4670 H   0  0  0  0  0  0  0  0  0  0  0  0
  143.4350   74.0790  220.7780 C   0  0  0  0  0  0  0  0  0  0  0  0
  143.3295   73.8233  221.8427 H   0  0  0  0  0  0  0  0  0  0  0  0
  142.5770   75.0190  220.2000 C   0  0  0  0  0  0  0  0  0  0  0  0
  141.3390   75.7760  221.1950 Cl  0  0  0  0  0  0  0  0  0  0  0  0
  142.7150   75.3460  218.8390 C   0  0  0  0  0  0  0  0  0  0  0  0
  141.6340   76.4950  218.0620 Cl  0  0  0  0  0  0  0  0  0  0  0  0
  143.7180   74.7400  218.0760 C   0  0  0  0  0  0  0  0  0  0  0  0
  143.8296   75.0032  217.0138 H   0  0  0  0  0  0  0  0  0  0  0  0
  1  2  1  0
  2  3  1  0
  3  4  2  0
  4  5  1  0
  4  6  1  0
  6  7  1  0
  7  8  2  0
  7  9  1  0
  9 10  2  0
 10 11  1  0
 11 12  2  0
 12 13  1  0
 12 14  1  0
 14 15  1  0
 14 16  2  0
 16 17  1  0
 16 18  1  0
 18 19  1  0
 18 20  2  0
 20 21  1  0
 21 22  1  0
 21 23  2  0
 23 24  1  0
  3 25  1  0
 25 26  1  0
 26 27  1  0
 26 28  1  0
 26 29  1  0
 29 30  1  0
 29 31  1  0
 29 32  1  0
 32 33  1  0
 32 34  1  0
 32 35  1  0
 35 36  1  1
 35 37  1  0
 37 38  2  0
 37 39  1  0
 39 40  1  0
 40 41  1  0
 40 42  1  0
 40 43  1  0
 43 44  2  0
 44 45  1  0
 44 46  1  0
 46 47  1  0
 46 48  2  0
 48 49  1  0
 48 50  1  0
 50 51  1  0
 50 52  2  0
 52 53  1  0
 23  9  1  0
 35 25  1  0
 52 43  1  0
 20 11  1  0
M  CHG  2   6  -1  39  -1
M  END
>  <UniqueID>  (56) 
159

>  <SMILES>  (56) 
O=C([N-]/C=C(\O)N1CCC[C@H]1C(=O)[N-]Cc1ccc(Cl)c(Cl)c1)c1ccc2ccccc2n1

>  <Energy>  (56) 
58.6885989682861

>  <Genealogy>  (56) 
O=C([N-]CC(=O)N1CCC[C@H]1C(=O)[N-]Cc1ccc(Cl)c(Cl)c1)c1ccc2ccccc2n1 (protonated)
O=C([N-]C=C(O)N1CCC[C@H]1C(=O)[N-]Cc1ccc(Cl)c(Cl)c1)c1ccc2ccccc2n1 (tautomer)
O=C([N-]/C=C(\O)N1CCC[C@H]1C(=O)[N-]Cc1ccc(Cl)c(Cl)c1)c1ccc2ccccc2n1 (cis-trans isomerization)
O=C([N-]/C=C(\O)N1CCC[C@H]1C(=O)[N-]Cc1ccc(Cl)c(Cl)c1)c1ccc2ccccc2n1 (3D coordinates assigned)
O=C([N-]/C=C(\O)N1CCC[C@H]1C(=O)[N-]Cc1ccc(Cl)c(Cl)c1)c1ccc2ccccc2n1 (nonaromatic ring conformer: 58.6885989682861 kcal/mol)

>  <smiles>  (56) 
O=C(NCC(=O)N1CCC[C@H]1C(=O)NCc1ccc(Cl)c(Cl)c1)c1ccc2ccccc2n1

>  <score_type>  (56) 
oracle

>  <origin>  (56) 
autodockgpu

>  <m_score__min__energy>  (56) 
-7.9299999999999997

>  <m_primary>  (56) 
energy

>  <meeko>  (56) 
{"free_energy": -7.31, "intermolecular_energy": -10.29, "internal_energy": -2.38, "cluster_size": 3, "cluster_id": 4, "rank_in_cluster": 1}

>  <energy>  (56) 
-6.26

>  <cluster_rmsd>  (56) 
1.24

>  <rmsd>  (56) 
270.19

>  <cluster>  (56) 
9

$$$$
NTBKPXNOUBMHTF-GGMSAQKCNA-L
     RDKit          3D

 53 56  0  0  0  0  0  0  0  0999 V2000
  144.7200   71.2080  221.0050 H   0  0  0  0  0  0  0  0  0  0  0  0
  143.7490   71.2250  221.2960 O   0  0  0  0  0  0  0  0  0  0  0  0
  142.7950   72.0670  220.7150 C   0  0  0  0  0  0  0  0  0  0  0  0
  143.1100   73.3180  220.3570 C   0  0  0  0  0  0  0  0  0  0  0  0
  142.6419   74.1656  220.8789 H   0  0  0  0  0  0  0  0  0  0  0  0
  144.0480   73.5680  219.3040 N   0  0  0  0  0  0  0  0  0  0  0  0
  145.1120   72.6960  218.8980 C   0  0  0  0  0  0  0  0  0  0  0  0
  146.2760   73.1760  218.8160 O   0  0  0  0  0  0  0  0  0  0  0  0
  144.8940   71.2750  218.5460 C   0  0  0  0  0  0  0  0  0  0  0  0
  145.5590   70.2940  219.2170 N   0  0  0  0  0  0  0  0  0  0  0  0
  145.3870   68.9760  218.9330 C   0  0  0  0  0  0  0  0  0  0  0  0
  146.1160   68.0060  219.6310 C   0  0  0  0  0  0  0  0  0  0  0  0
  146.8242   68.3088  220.4163 H   0  0  0  0  0  0  0  0  0  0  0  0
  145.9430   66.6520  219.3290 C   0  0  0  0  0  0  0  0  0  0  0  0
  146.5176   65.8906  219.8768 H   0  0  0  0  0  0  0  0  0  0  0  0
  145.0420   66.2620  218.3330 C   0  0  0  0  0  0  0  0  0  0  0  0
  144.9080   65.1948  218.1026 H   0  0  0  0  0  0  0  0  0  0  0  0
  144.3100   67.2250  217.6280 C   0  0  0  0  0  0  0  0  0  0  0  0
  143.6019   66.9147  216.8455 H   0  0  0  0  0  0  0  0  0  0  0  0
  144.4810   68.5860  217.9210 C   0  0  0  0  0  0  0  0  0  0  0  0
  143.7740   69.5760  217.2280 C   0  0  0  0  0  0  0  0  0  0  0  0
  143.0615   69.2947  216.4385 H   0  0  0  0  0  0  0  0  0  0  0  0
  143.9760   70.9220  217.5420 C   0  0  0  0  0  0  0  0  0  0  0  0
  143.4182   71.7034  217.0051 H   0  0  0  0  0  0  0  0  0  0  0  0
  141.4710   71.5510  220.4800 N   0  0  0  0  0  0  0  0  0  0  0  0
  141.1990   70.2550  219.8700 C   0  0  0  0  0  0  0  0  0  0  0  0
  141.7150   70.1699  218.9023 H   0  0  0  0  0  0  0  0  0  0  0  0
  141.5563   69.4257  220.4982 H   0  0  0  0  0  0  0  0  0  0  0  0
  139.6880   70.2050  219.6740 C   0  0  0  0  0  0  0  0  0  0  0  0
  139.4420   69.8069  218.6785 H   0  0  0  0  0  0  0  0  0  0  0  0
  139.2014   69.5479  220.4098 H   0  0  0  0  0  0  0  0  0  0  0  0
  139.2150   71.6500  219.8030 C   0  0  0  0  0  0  0  0  0  0  0  0
  139.1663   72.1297  218.8143 H   0  0  0  0  0  0  0  0  0  0  0  0
  138.2064   71.7154  220.2371 H   0  0  0  0  0  0  0  0  0  0  0  0
  140.2640   72.3390  220.6840 C   0  0  1  0  0  0  0  0  0  0  0  0
  140.3560   73.4005  220.4106 H   0  0  0  0  0  0  0  0  0  0  0  0
  139.9140   72.3220  222.1530 C   0  0  0  0  0  0  0  0  0  0  0  0
  140.6170   72.9390  222.9990 O   0  0  0  0  0  0  0  0  0  0  0  0
  138.7490   71.6080  222.5840 N   0  0  0  0  0  0  0  0  0  0  0  0
  138.7380   70.1630  222.7660 C   0  0  0  0  0  0  0  0  0  0  0  0
  137.7044   69.7923  222.7015 H   0  0  0  0  0  0  0  0  0  0  0  0
  139.3451   69.6879  221.9813 H   0  0  0  0  0  0  0  0  0  0  0  0
  139.3090   69.8280  224.1180 C   0  0  0  0  0  0  0  0  0  0  0  0
  139.1770   68.5340  224.6450 C   0  0  0  0  0  0  0  0  0  0  0  0
  138.7116   67.7413  224.0408 H   0  0  0  0  0  0  0  0  0  0  0  0
  139.6350   68.2480  225.9360 C   0  0  0  0  0  0  0  0  0  0  0  0
  139.5427   67.2275  226.3362 H   0  0  0  0  0  0  0  0  0  0  0  0
  140.2090   69.2530  226.7190 C   0  0  0  0  0  0  0  0  0  0  0  0
  140.7750   68.8590  228.3370 Cl  0  0  0  0  0  0  0  0  0  0  0  0
  140.3270   70.5570  226.2050 C   0  0  0  0  0  0  0  0  0  0  0  0
  141.0080   71.8600  227.1700 Cl  0  0  0  0  0  0  0  0  0  0  0  0
  139.8820   70.8370  224.9090 C   0  0  0  0  0  0  0  0  0  0  0  0
  139.9816   71.8557  224.5061 H   0  0  0  0  0  0  0  0  0  0  0  0
  1  2  1  0
  2  3  1  0
  3  4  2  0
  4  5  1  0
  4  6  1  0
  6  7  1  0
  7  8  2  0
  7  9  1  0
  9 10  2  0
 10 11  1  0
 11 12  2  0
 12 13  1  0
 12 14  1  0
 14 15  1  0
 14 16  2  0
 16 17  1  0
 16 18  1  0
 18 19  1  0
 18 20  2  0
 20 21  1  0
 21 22  1  0
 21 23  2  0
 23 24  1  0
  3 25  1  0
 25 26  1  0
 26 27  1  0
 26 28  1  0
 26 29  1  0
 29 30  1  0
 29 31  1  0
 29 32  1  0
 32 33  1  0
 32 34  1  0
 32 35  1  0
 35 36  1  6
 35 37  1  0
 37 38  2  0
 37 39  1  0
 39 40  1  0
 40 41  1  0
 40 42  1  0
 40 43  1  0
 43 44  2  0
 44 45  1  0
 44 46  1  0
 46 47  1  0
 46 48  2  0
 48 49  1  0
 48 50  1  0
 50 51  1  0
 50 52  2  0
 52 53  1  0
 23  9  1  0
 35 25  1  0
 52 43  1  0
 20 11  1  0
M  CHG  2   6  -1  39  -1
M  END
>  <UniqueID>  (57) 
159

>  <SMILES>  (57) 
O=C([N-]/C=C(\O)N1CCC[C@H]1C(=O)[N-]Cc1ccc(Cl)c(Cl)c1)c1ccc2ccccc2n1

>  <Energy>  (57) 
58.6885989682861

>  <Genealogy>  (57) 
O=C([N-]CC(=O)N1CCC[C@H]1C(=O)[N-]Cc1ccc(Cl)c(Cl)c1)c1ccc2ccccc2n1 (protonated)
O=C([N-]C=C(O)N1CCC[C@H]1C(=O)[N-]Cc1ccc(Cl)c(Cl)c1)c1ccc2ccccc2n1 (tautomer)
O=C([N-]/C=C(\O)N1CCC[C@H]1C(=O)[N-]Cc1ccc(Cl)c(Cl)c1)c1ccc2ccccc2n1 (cis-trans isomerization)
O=C([N-]/C=C(\O)N1CCC[C@H]1C(=O)[N-]Cc1ccc(Cl)c(Cl)c1)c1ccc2ccccc2n1 (3D coordinates assigned)
O=C([N-]/C=C(\O)N1CCC[C@H]1C(=O)[N-]Cc1ccc(Cl)c(Cl)c1)c1ccc2ccccc2n1 (nonaromatic ring conformer: 58.6885989682861 kcal/mol)

>  <smiles>  (57) 
O=C(NCC(=O)N1CCC[C@H]1C(=O)NCc1ccc(Cl)c(Cl)c1)c1ccc2ccccc2n1

>  <score_type>  (57) 
oracle

>  <origin>  (57) 
autodockgpu

>  <m_score__min__energy>  (57) 
-7.9299999999999997

>  <m_primary>  (57) 
energy

>  <meeko>  (57) 
{"free_energy": -7.06, "intermolecular_energy": -10.05, "internal_energy": -2.57, "cluster_size": 1, "cluster_id": 7, "rank_in_cluster": 1}

>  <energy>  (57) 
-6.74

>  <cluster_rmsd>  (57) 
0.0

>  <rmsd>  (57) 
271.12

>  <cluster>  (57) 
10

$$$$
NTBKPXNOUBMHTF-GGMSAQKCNA-L
     RDKit          3D

 53 56  0  0  0  0  0  0  0  0999 V2000
  137.8540   73.1930  223.1650 H   0  0  0  0  0  0  0  0  0  0  0  0
  137.4750   72.2550  223.1100 O   0  0  0  0  0  0  0  0  0  0  0  0
  137.9920   71.2740  222.2580 C   0  0  0  0  0  0  0  0  0  0  0  0
  137.2990   70.1590  221.9930 C   0  0  0  0  0  0  0  0  0  0  0  0
  136.6336   70.1294  221.1176 H   0  0  0  0  0  0  0  0  0  0  0  0
  137.4120   69.0050  222.8330 N   0  0  0  0  0  0  0  0  0  0  0  0
  138.6320   68.4530  223.3480 C   0  0  0  0  0  0  0  0  0  0  0  0
  139.2040   67.5480  222.6810 O   0  0  0  0  0  0  0  0  0  0  0  0
  139.2250   68.8790  224.6350 C   0  0  0  0  0  0  0  0  0  0  0  0
  139.7190   70.1400  224.7770 N   0  0  0  0  0  0  0  0  0  0  0  0
  140.2680   70.5780  225.9410 C   0  0  0  0  0  0  0  0  0  0  0  0
  140.7890   71.8740  226.0280 C   0  0  0  0  0  0  0  0  0  0  0  0
  140.7488   72.5431  225.1558 H   0  0  0  0  0  0  0  0  0  0  0  0
  141.3610   72.3180  227.2250 C   0  0  0  0  0  0  0  0  0  0  0  0
  141.7718   73.3362  227.2919 H   0  0  0  0  0  0  0  0  0  0  0  0
  141.4120   71.4710  228.3370 C   0  0  0  0  0  0  0  0  0  0  0  0
  141.8598   71.8265  229.2767 H   0  0  0  0  0  0  0  0  0  0  0  0
  140.8950   70.1720  228.2580 C   0  0  0  0  0  0  0  0  0  0  0  0
  140.9369   69.5085  229.1344 H   0  0  0  0  0  0  0  0  0  0  0  0
  140.3240   69.7180  227.0610 C   0  0  0  0  0  0  0  0  0  0  0  0
  139.8090   68.4220  226.9440 C   0  0  0  0  0  0  0  0  0  0  0  0
  139.8411   67.7364  227.8036 H   0  0  0  0  0  0  0  0  0  0  0  0
  139.2540   68.0010  225.7330 C   0  0  0  0  0  0  0  0  0  0  0  0
  138.8410   66.9859  225.6387 H   0  0  0  0  0  0  0  0  0  0  0  0
  139.2750   71.5000  221.6440 N   0  0  0  0  0  0  0  0  0  0  0  0
  139.7560   70.7770  220.4740 C   0  0  0  0  0  0  0  0  0  0  0  0
  139.7089   69.6917  220.6471 H   0  0  0  0  0  0  0  0  0  0  0  0
  139.1434   70.9878  219.5850 H   0  0  0  0  0  0  0  0  0  0  0  0
  141.2010   71.2230  220.2820 C   0  0  0  0  0  0  0  0  0  0  0  0
  141.8453   70.3583  220.0649 H   0  0  0  0  0  0  0  0  0  0  0  0
  141.3060   71.9190  219.4367 H   0  0  0  0  0  0  0  0  0  0  0  0
  141.6030   71.8700  221.6040 C   0  0  0  0  0  0  0  0  0  0  0  0
  142.0862   71.1334  222.2627 H   0  0  0  0  0  0  0  0  0  0  0  0
  142.3247   72.6874  221.4589 H   0  0  0  0  0  0  0  0  0  0  0  0
  140.2910   72.3670  222.2240 C   0  0  1  0  0  0  0  0  0  0  0  0
  140.3499   72.3363  223.3220 H   0  0  0  0  0  0  0  0  0  0  0  0
  139.9690   73.7990  221.8700 C   0  0  0  0  0  0  0  0  0  0  0  0
  139.4480   74.5790  222.7140 O   0  0  0  0  0  0  0  0  0  0  0  0
  140.2830   74.2820  220.5590 N   0  0  0  0  0  0  0  0  0  0  0  0
  141.0200   75.5180  220.3340 C   0  0  0  0  0  0  0  0  0  0  0  0
  142.0769   75.3700  220.6008 H   0  0  0  0  0  0  0  0  0  0  0  0
  140.9494   75.8027  219.2738 H   0  0  0  0  0  0  0  0  0  0  0  0
  140.4320   76.6080  221.1910 C   0  0  0  0  0  0  0  0  0  0  0  0
  139.0840   76.9710  221.0540 C   0  0  0  0  0  0  0  0  0  0  0  0
  138.4343   76.4135  220.3632 H   0  0  0  0  0  0  0  0  0  0  0  0
  138.5620   78.0390  221.7920 C   0  0  0  0  0  0  0  0  0  0  0  0
  137.5002   78.3078  221.6907 H   0  0  0  0  0  0  0  0  0  0  0  0
  139.3850   78.7660  222.6580 C   0  0  0  0  0  0  0  0  0  0  0  0
  138.6970   80.1030  223.5710 Cl  0  0  0  0  0  0  0  0  0  0  0  0
  140.7420   78.4210  222.7850 C   0  0  0  0  0  0  0  0  0  0  0  0
  141.8210   79.3320  223.8320 Cl  0  0  0  0  0  0  0  0  0  0  0  0
  141.2580   77.3440  222.0580 C   0  0  0  0  0  0  0  0  0  0  0  0
  142.3181   77.0707  222.1653 H   0  0  0  0  0  0  0  0  0  0  0  0
  1  2  1  0
  2  3  1  0
  3  4  2  0
  4  5  1  0
  4  6  1  0
  6  7  1  0
  7  8  2  0
  7  9  1  0
  9 10  2  0
 10 11  1  0
 11 12  2  0
 12 13  1  0
 12 14  1  0
 14 15  1  0
 14 16  2  0
 16 17  1  0
 16 18  1  0
 18 19  1  0
 18 20  2  0
 20 21  1  0
 21 22  1  0
 21 23  2  0
 23 24  1  0
  3 25  1  0
 25 26  1  0
 26 27  1  0
 26 28  1  0
 26 29  1  0
 29 30  1  0
 29 31  1  0
 29 32  1  0
 32 33  1  0
 32 34  1  0
 32 35  1  0
 35 36  1  1
 35 37  1  0
 37 38  2  0
 37 39  1  0
 39 40  1  0
 40 41  1  0
 40 42  1  0
 40 43  1  0
 43 44  2  0
 44 45  1  0
 44 46  1  0
 46 47  1  0
 46 48  2  0
 48 49  1  0
 48 50  1  0
 50 51  1  0
 50 52  2  0
 52 53  1  0
 23  9  1  0
 35 25  1  0
 52 43  1  0
 20 11  1  0
M  CHG  2   6  -1  39  -1
M  END
>  <UniqueID>  (58) 
159

>  <SMILES>  (58) 
O=C([N-]/C=C(\O)N1CCC[C@H]1C(=O)[N-]Cc1ccc(Cl)c(Cl)c1)c1ccc2ccccc2n1

>  <Energy>  (58) 
58.6885989682861

>  <Genealogy>  (58) 
O=C([N-]CC(=O)N1CCC[C@H]1C(=O)[N-]Cc1ccc(Cl)c(Cl)c1)c1ccc2ccccc2n1 (protonated)
O=C([N-]C=C(O)N1CCC[C@H]1C(=O)[N-]Cc1ccc(Cl)c(Cl)c1)c1ccc2ccccc2n1 (tautomer)
O=C([N-]/C=C(\O)N1CCC[C@H]1C(=O)[N-]Cc1ccc(Cl)c(Cl)c1)c1ccc2ccccc2n1 (cis-trans isomerization)
O=C([N-]/C=C(\O)N1CCC[C@H]1C(=O)[N-]Cc1ccc(Cl)c(Cl)c1)c1ccc2ccccc2n1 (3D coordinates assigned)
O=C([N-]/C=C(\O)N1CCC[C@H]1C(=O)[N-]Cc1ccc(Cl)c(Cl)c1)c1ccc2ccccc2n1 (nonaromatic ring conformer: 58.6885989682861 kcal/mol)

>  <smiles>  (58) 
O=C(NCC(=O)N1CCC[C@H]1C(=O)NCc1ccc(Cl)c(Cl)c1)c1ccc2ccccc2n1

>  <score_type>  (58) 
oracle

>  <origin>  (58) 
autodockgpu

>  <m_score__min__energy>  (58) 
-7.9299999999999997

>  <m_primary>  (58) 
energy

>  <meeko>  (58) 
{"free_energy": -7.47, "intermolecular_energy": -10.45, "internal_energy": -2.51, "cluster_size": 3, "cluster_id": 1, "rank_in_cluster": 2}

>  <energy>  (58) 
-6.7

>  <cluster_rmsd>  (58) 
0.0

>  <rmsd>  (58) 
269.95

>  <cluster>  (58) 
11

$$$$
NTBKPXNOUBMHTF-GGMSAQKCNA-L
     RDKit          3D

 53 56  0  0  0  0  0  0  0  0999 V2000
  144.2890   70.9430  221.0840 H   0  0  0  0  0  0  0  0  0  0  0  0
  143.5070   71.4620  221.4680 O   0  0  0  0  0  0  0  0  0  0  0  0
  142.3900   71.8270  220.7090 C   0  0  0  0  0  0  0  0  0  0  0  0
  141.6640   72.9050  221.0300 C   0  0  0  0  0  0  0  0  0  0  0  0
  141.5565   73.7223  220.3016 H   0  0  0  0  0  0  0  0  0  0  0  0
  141.0260   73.0100  222.3060 N   0  0  0  0  0  0  0  0  0  0  0  0
  139.8600   72.2880  222.7280 C   0  0  0  0  0  0  0  0  0  0  0  0
  138.7610   72.5530  222.1690 O   0  0  0  0  0  0  0  0  0  0  0  0
  139.8910   71.2730  223.8050 C   0  0  0  0  0  0  0  0  0  0  0  0
  140.4080   71.5840  225.0250 N   0  0  0  0  0  0  0  0  0  0  0  0
  140.4530   70.6870  226.0450 C   0  0  0  0  0  0  0  0  0  0  0  0
  141.0230   71.0460  227.2720 C   0  0  0  0  0  0  0  0  0  0  0  0
  141.4297   72.0580  227.4149 H   0  0  0  0  0  0  0  0  0  0  0  0
  141.0750   70.1170  228.3160 C   0  0  0  0  0  0  0  0  0  0  0  0
  141.5241   70.3997  229.2795 H   0  0  0  0  0  0  0  0  0  0  0  0
  140.5580   68.8300  228.1390 C   0  0  0  0  0  0  0  0  0  0  0  0
  140.5994   68.1046  228.9649 H   0  0  0  0  0  0  0  0  0  0  0  0
  139.9880   68.4610  226.9150 C   0  0  0  0  0  0  0  0  0  0  0  0
  139.5814   67.4479  226.7799 H   0  0  0  0  0  0  0  0  0  0  0  0
  139.9360   69.3850  225.8610 C   0  0  0  0  0  0  0  0  0  0  0  0
  139.3840   69.0460  224.6200 C   0  0  0  0  0  0  0  0  0  0  0  0
  138.9734   68.0388  224.4557 H   0  0  0  0  0  0  0  0  0  0  0  0
  139.3560   69.9900  223.5910 C   0  0  0  0  0  0  0  0  0  0  0  0
  138.9169   69.7308  222.6163 H   0  0  0  0  0  0  0  0  0  0  0  0
  142.0510   71.0350  219.5540 N   0  0  0  0  0  0  0  0  0  0  0  0
  141.1310   71.4690  218.5110 C   0  0  0  0  0  0  0  0  0  0  0  0
  140.1658   71.7641  218.9485 H   0  0  0  0  0  0  0  0  0  0  0  0
  141.5166   72.3427  217.9651 H   0  0  0  0  0  0  0  0  0  0  0  0
  140.9540   70.2640  217.5950 C   0  0  0  0  0  0  0  0  0  0  0  0
  139.8935   70.1309  217.3348 H   0  0  0  0  0  0  0  0  0  0  0  0
  141.5023   70.3853  216.6491 H   0  0  0  0  0  0  0  0  0  0  0  0
  141.4610   69.0690  218.3950 C   0  0  0  0  0  0  0  0  0  0  0  0
  140.6316   68.5825  218.9292 H   0  0  0  0  0  0  0  0  0  0  0  0
  141.9139   68.3033  217.7480 H   0  0  0  0  0  0  0  0  0  0  0  0
  142.4730   69.6510  219.3890 C   0  0  1  0  0  0  0  0  0  0  0  0
  142.4832   69.0586  220.3158 H   0  0  0  0  0  0  0  0  0  0  0  0
  143.8930   69.6340  218.8750 C   0  0  0  0  0  0  0  0  0  0  0  0
  144.1610   69.2320  217.7090 O   0  0  0  0  0  0  0  0  0  0  0  0
  144.9480   70.1030  219.7220 N   0  0  0  0  0  0  0  0  0  0  0  0
  145.9300   71.0850  219.2800 C   0  0  0  0  0  0  0  0  0  0  0  0
  146.8082   71.0504  219.9415 H   0  0  0  0  0  0  0  0  0  0  0  0
  146.2415   70.8578  218.2498 H   0  0  0  0  0  0  0  0  0  0  0  0
  145.3150   72.4590  219.3310 C   0  0  0  0  0  0  0  0  0  0  0  0
  145.5040   73.2810  220.4530 C   0  0  0  0  0  0  0  0  0  0  0  0
  146.1575   72.9471  221.2724 H   0  0  0  0  0  0  0  0  0  0  0  0
  144.8650   74.5230  220.5340 C   0  0  0  0  0  0  0  0  0  0  0  0
  145.0317   75.1691  221.4085 H   0  0  0  0  0  0  0  0  0  0  0  0
  144.0150   74.9460  219.5070 C   0  0  0  0  0  0  0  0  0  0  0  0
  143.2270   76.5130  219.6400 Cl  0  0  0  0  0  0  0  0  0  0  0  0
  143.8050   74.1190  218.3900 C   0  0  0  0  0  0  0  0  0  0  0  0
  142.7150   74.5950  217.0950 Cl  0  0  0  0  0  0  0  0  0  0  0  0
  144.4570   72.8850  218.3040 C   0  0  0  0  0  0  0  0  0  0  0  0
  144.2967   72.2430  217.4253 H   0  0  0  0  0  0  0  0  0  0  0  0
  1  2  1  0
  2  3  1  0
  3  4  2  0
  4  5  1  0
  4  6  1  0
  6  7  1  0
  7  8  2  0
  7  9  1  0
  9 10  2  0
 10 11  1  0
 11 12  2  0
 12 13  1  0
 12 14  1  0
 14 15  1  0
 14 16  2  0
 16 17  1  0
 16 18  1  0
 18 19  1  0
 18 20  2  0
 20 21  1  0
 21 22  1  0
 21 23  2  0
 23 24  1  0
  3 25  1  0
 25 26  1  0
 26 27  1  0
 26 28  1  0
 26 29  1  0
 29 30  1  0
 29 31  1  0
 29 32  1  0
 32 33  1  0
 32 34  1  0
 32 35  1  0
 35 36  1  1
 35 37  1  0
 37 38  2  0
 37 39  1  0
 39 40  1  0
 40 41  1  0
 40 42  1  0
 40 43  1  0
 43 44  2  0
 44 45  1  0
 44 46  1  0
 46 47  1  0
 46 48  2  0
 48 49  1  0
 48 50  1  0
 50 51  1  0
 50 52  2  0
 52 53  1  0
 23  9  1  0
 35 25  1  0
 52 43  1  0
 20 11  1  0
M  CHG  2   6  -1  39  -1
M  END
>  <UniqueID>  (59) 
159

>  <SMILES>  (59) 
O=C([N-]/C=C(\O)N1CCC[C@H]1C(=O)[N-]Cc1ccc(Cl)c(Cl)c1)c1ccc2ccccc2n1

>  <Energy>  (59) 
58.6885989682861

>  <Genealogy>  (59) 
O=C([N-]CC(=O)N1CCC[C@H]1C(=O)[N-]Cc1ccc(Cl)c(Cl)c1)c1ccc2ccccc2n1 (protonated)
O=C([N-]C=C(O)N1CCC[C@H]1C(=O)[N-]Cc1ccc(Cl)c(Cl)c1)c1ccc2ccccc2n1 (tautomer)
O=C([N-]/C=C(\O)N1CCC[C@H]1C(=O)[N-]Cc1ccc(Cl)c(Cl)c1)c1ccc2ccccc2n1 (cis-trans isomerization)
O=C([N-]/C=C(\O)N1CCC[C@H]1C(=O)[N-]Cc1ccc(Cl)c(Cl)c1)c1ccc2ccccc2n1 (3D coordinates assigned)
O=C([N-]/C=C(\O)N1CCC[C@H]1C(=O)[N-]Cc1ccc(Cl)c(Cl)c1)c1ccc2ccccc2n1 (nonaromatic ring conformer: 58.6885989682861 kcal/mol)

>  <smiles>  (59) 
O=C(NCC(=O)N1CCC[C@H]1C(=O)NCc1ccc(Cl)c(Cl)c1)c1ccc2ccccc2n1

>  <score_type>  (59) 
oracle

>  <origin>  (59) 
autodockgpu

>  <m_score__min__energy>  (59) 
-7.9299999999999997

>  <m_primary>  (59) 
energy

>  <meeko>  (59) 
{"free_energy": -6.26, "intermolecular_energy": -9.24, "internal_energy": -3.06, "cluster_size": 3, "cluster_id": 4, "rank_in_cluster": 3}

>  <energy>  (59) 
-6.62

>  <cluster_rmsd>  (59) 
0.0

>  <rmsd>  (59) 
270.1

>  <cluster>  (59) 
12

$$$$
NTBKPXNOUBMHTF-GGMSAQKCNA-L
     RDKit          3D

 53 56  0  0  0  0  0  0  0  0999 V2000
  137.6350   74.0890  223.0060 H   0  0  0  0  0  0  0  0  0  0  0  0
  136.9000   73.4600  222.7030 O   0  0  0  0  0  0  0  0  0  0  0  0
  137.1340   72.3600  221.8710 C   0  0  0  0  0  0  0  0  0  0  0  0
  136.3510   71.2760  221.9300 C   0  0  0  0  0  0  0  0  0  0  0  0
  135.4056   71.2591  221.3679 H   0  0  0  0  0  0  0  0  0  0  0  0
  136.7260   70.1380  222.7140 N   0  0  0  0  0  0  0  0  0  0  0  0
  138.0600   69.6400  222.8930 C   0  0  0  0  0  0  0  0  0  0  0  0
  138.5690   68.9540  221.9640 O   0  0  0  0  0  0  0  0  0  0  0  0
  138.8440   69.8730  224.1260 C   0  0  0  0  0  0  0  0  0  0  0  0
  139.0250   68.8660  225.0230 N   0  0  0  0  0  0  0  0  0  0  0  0
  139.7410   69.0320  226.1660 C   0  0  0  0  0  0  0  0  0  0  0  0
  139.8740   67.9730  227.0720 C   0  0  0  0  0  0  0  0  0  0  0  0
  139.4043   67.0019  226.8566 H   0  0  0  0  0  0  0  0  0  0  0  0
  140.6050   68.1510  228.2520 C   0  0  0  0  0  0  0  0  0  0  0  0
  140.7071   67.3192  228.9645 H   0  0  0  0  0  0  0  0  0  0  0  0
  141.2060   69.3830  228.5280 C   0  0  0  0  0  0  0  0  0  0  0  0
  141.7819   69.5157  229.4558 H   0  0  0  0  0  0  0  0  0  0  0  0
  141.0780   70.4480  227.6290 C   0  0  0  0  0  0  0  0  0  0  0  0
  141.5532   71.4153  227.8491 H   0  0  0  0  0  0  0  0  0  0  0  0
  140.3420   70.2790  226.4460 C   0  0  0  0  0  0  0  0  0  0  0  0
  140.1840   71.3260  225.5310 C   0  0  0  0  0  0  0  0  0  0  0  0
  140.6460   72.3047  225.7278 H   0  0  0  0  0  0  0  0  0  0  0  0
  139.4380   71.1250  224.3670 C   0  0  0  0  0  0  0  0  0  0  0  0
  139.3156   71.9429  223.6417 H   0  0  0  0  0  0  0  0  0  0  0  0
  138.2180   72.4280  220.9260 N   0  0  0  0  0  0  0  0  0  0  0  0
  138.0350   72.5220  219.4830 C   0  0  0  0  0  0  0  0  0  0  0  0
  137.3918   71.7054  219.1233 H   0  0  0  0  0  0  0  0  0  0  0  0
  137.5479   73.4651  219.1945 H   0  0  0  0  0  0  0  0  0  0  0  0
  139.4330   72.4020  218.8850 C   0  0  0  0  0  0  0  0  0  0  0  0
  139.4239   71.7254  218.0177 H   0  0  0  0  0  0  0  0  0  0  0  0
  139.8106   73.3719  218.5291 H   0  0  0  0  0  0  0  0  0  0  0  0
  140.3020   71.8290  220.0000 C   0  0  0  0  0  0  0  0  0  0  0  0
  140.3505   70.7326  219.9262 H   0  0  0  0  0  0  0  0  0  0  0  0
  141.3371   72.1972  219.9443 H   0  0  0  0  0  0  0  0  0  0  0  0
  139.6140   72.2500  221.3040 C   0  0  1  0  0  0  0  0  0  0  0  0
  139.7872   71.4982  222.0881 H   0  0  0  0  0  0  0  0  0  0  0  0
  140.1360   73.5530  221.8610 C   0  0  0  0  0  0  0  0  0  0  0  0
  141.3730   73.7930  221.9100 O   0  0  0  0  0  0  0  0  0  0  0  0
  139.2040   74.5390  222.3200 N   0  0  0  0  0  0  0  0  0  0  0  0
  138.7540   75.6420  221.4820 C   0  0  0  0  0  0  0  0  0  0  0  0
  138.9950   75.4271  220.4305 H   0  0  0  0  0  0  0  0  0  0  0  0
  137.6662   75.7662  221.5877 H   0  0  0  0  0  0  0  0  0  0  0  0
  139.4510   76.9060  221.9100 C   0  0  0  0  0  0  0  0  0  0  0  0
  140.8320   77.0610  221.7080 C   0  0  0  0  0  0  0  0  0  0  0  0
  141.3982   76.2819  221.1766 H   0  0  0  0  0  0  0  0  0  0  0  0
  141.4910   78.2010  222.1790 C   0  0  0  0  0  0  0  0  0  0  0  0
  142.5696   78.3231  222.0012 H   0  0  0  0  0  0  0  0  0  0  0  0
  140.7840   79.1860  222.8750 C   0  0  0  0  0  0  0  0  0  0  0  0
  141.6440   80.6070  223.4550 Cl  0  0  0  0  0  0  0  0  0  0  0  0
  139.4050   79.0300  223.0990 C   0  0  0  0  0  0  0  0  0  0  0  0
  138.4850   80.2250  224.0010 Cl  0  0  0  0  0  0  0  0  0  0  0  0
  138.7450   77.8960  222.6130 C   0  0  0  0  0  0  0  0  0  0  0  0
  137.6645   77.7789  222.7829 H   0  0  0  0  0  0  0  0  0  0  0  0
  1  2  1  0
  2  3  1  0
  3  4  2  0
  4  5  1  0
  4  6  1  0
  6  7  1  0
  7  8  2  0
  7  9  1  0
  9 10  2  0
 10 11  1  0
 11 12  2  0
 12 13  1  0
 12 14  1  0
 14 15  1  0
 14 16  2  0
 16 17  1  0
 16 18  1  0
 18 19  1  0
 18 20  2  0
 20 21  1  0
 21 22  1  0
 21 23  2  0
 23 24  1  0
  3 25  1  0
 25 26  1  0
 26 27  1  0
 26 28  1  0
 26 29  1  0
 29 30  1  0
 29 31  1  0
 29 32  1  0
 32 33  1  0
 32 34  1  0
 32 35  1  0
 35 36  1  1
 35 37  1  0
 37 38  2  0
 37 39  1  0
 39 40  1  0
 40 41  1  0
 40 42  1  0
 40 43  1  0
 43 44  2  0
 44 45  1  0
 44 46  1  0
 46 47  1  0
 46 48  2  0
 48 49  1  0
 48 50  1  0
 50 51  1  0
 50 52  2  0
 52 53  1  0
 23  9  1  0
 35 25  1  0
 52 43  1  0
 20 11  1  0
M  CHG  2   6  -1  39  -1
M  END
>  <UniqueID>  (60) 
159

>  <SMILES>  (60) 
O=C([N-]/C=C(\O)N1CCC[C@H]1C(=O)[N-]Cc1ccc(Cl)c(Cl)c1)c1ccc2ccccc2n1

>  <Energy>  (60) 
58.6885989682861

>  <Genealogy>  (60) 
O=C([N-]CC(=O)N1CCC[C@H]1C(=O)[N-]Cc1ccc(Cl)c(Cl)c1)c1ccc2ccccc2n1 (protonated)
O=C([N-]C=C(O)N1CCC[C@H]1C(=O)[N-]Cc1ccc(Cl)c(Cl)c1)c1ccc2ccccc2n1 (tautomer)
O=C([N-]/C=C(\O)N1CCC[C@H]1C(=O)[N-]Cc1ccc(Cl)c(Cl)c1)c1ccc2ccccc2n1 (cis-trans isomerization)
O=C([N-]/C=C(\O)N1CCC[C@H]1C(=O)[N-]Cc1ccc(Cl)c(Cl)c1)c1ccc2ccccc2n1 (3D coordinates assigned)
O=C([N-]/C=C(\O)N1CCC[C@H]1C(=O)[N-]Cc1ccc(Cl)c(Cl)c1)c1ccc2ccccc2n1 (nonaromatic ring conformer: 58.6885989682861 kcal/mol)

>  <smiles>  (60) 
O=C(NCC(=O)N1CCC[C@H]1C(=O)NCc1ccc(Cl)c(Cl)c1)c1ccc2ccccc2n1

>  <score_type>  (60) 
oracle

>  <origin>  (60) 
autodockgpu

>  <m_score__min__energy>  (60) 
-7.9299999999999997

>  <m_primary>  (60) 
energy

>  <meeko>  (60) 
{"free_energy": -7.29, "intermolecular_energy": -10.27, "internal_energy": -2.55, "cluster_size": 3, "cluster_id": 1, "rank_in_cluster": 3}

>  <energy>  (60) 
-6.38

>  <cluster_rmsd>  (60) 
1.17

>  <rmsd>  (60) 
270.02

>  <cluster>  (60) 
12

$$$$
NTBKPXNOUBMHTF-CKGUNICPNA-M
     RDKit          3D

 54 57  0  0  0  0  0  0  0  0999 V2000
  139.6170   73.2000  223.1030 H   0  0  0  0  0  0  0  0  0  0  0  0
  139.5700   74.1040  222.6460 O   0  0  0  0  0  0  0  0  0  0  0  0
  140.5020   74.4630  221.6750 C   0  0  0  0  0  0  0  0  0  0  0  0
  141.2360   73.5260  221.0790 C   0  0  0  0  0  0  0  0  0  0  0  0
  141.8945   73.7947  220.2398 H   0  0  0  0  0  0  0  0  0  0  0  0
  141.1690   72.1700  221.5290 N   0  0  0  0  0  0  0  0  0  0  0  0
  139.9960   71.5400  222.0580 C   0  0  0  0  0  0  0  0  0  0  0  0
  138.9540   71.5260  221.3490 O   0  0  0  0  0  0  0  0  0  0  0  0
  139.9410   70.9580  223.4200 C   0  0  0  0  0  0  0  0  0  0  0  0
  140.4560   71.6750  224.4570 N   0  0  0  0  0  0  0  0  0  0  0  0
  140.5010   71.1890  225.7250 C   0  0  0  0  0  0  0  0  0  0  0  0
  141.0230   71.9730  226.7610 C   0  0  0  0  0  0  0  0  0  0  0  0
  141.4068   72.9816  226.5482 H   0  0  0  0  0  0  0  0  0  0  0  0
  141.0560   71.4730  228.0660 C   0  0  0  0  0  0  0  0  0  0  0  0
  141.4635   72.0912  228.8795 H   0  0  0  0  0  0  0  0  0  0  0  0
  140.5730   70.1900  228.3410 C   0  0  0  0  0  0  0  0  0  0  0  0
  140.6058   69.8010  229.3694 H   0  0  0  0  0  0  0  0  0  0  0  0
  140.0480   69.3990  227.3130 C   0  0  0  0  0  0  0  0  0  0  0  0
  139.6666   68.3910  227.5333 H   0  0  0  0  0  0  0  0  0  0  0  0
  140.0090   69.8940  226.0010 C   0  0  0  0  0  0  0  0  0  0  0  0
  139.4860   69.1330  224.9520 C   0  0  0  0  0  0  0  0  0  0  0  0
  139.0916   68.1247  225.1461 H   0  0  0  0  0  0  0  0  0  0  0  0
  139.4650   69.6550  223.6570 C   0  0  0  0  0  0  0  0  0  0  0  0
  139.0775   69.0494  222.8245 H   0  0  0  0  0  0  0  0  0  0  0  0
  140.6790   75.8440  221.3380 N   0  0  0  0  0  0  0  0  0  0  0  0
  141.4890   76.2550  220.2060 C   0  0  0  0  0  0  0  0  0  0  0  0
  142.4601   75.7386  220.2217 H   0  0  0  0  0  0  0  0  0  0  0  0
  141.0061   76.0057  219.2496 H   0  0  0  0  0  0  0  0  0  0  0  0
  141.6840   77.7570  220.3620 C   0  0  0  0  0  0  0  0  0  0  0  0
  142.7332   78.0273  220.1720 H   0  0  0  0  0  0  0  0  0  0  0  0
  141.0660   78.3184  219.6459 H   0  0  0  0  0  0  0  0  0  0  0  0
  141.3050   78.0870  221.8030 C   0  0  0  0  0  0  0  0  0  0  0  0
  142.2091   78.1950  222.4202 H   0  0  0  0  0  0  0  0  0  0  0  0
  140.7506   79.0350  221.8654 H   0  0  0  0  0  0  0  0  0  0  0  0
  140.4600   76.9120  222.3000 C   0  0  1  0  0  0  0  0  0  0  0  0
  140.7507   76.6207  223.3201 H   0  0  0  0  0  0  0  0  0  0  0  0
  138.9990   77.2660  222.3690 C   0  0  0  0  0  0  0  0  0  0  0  0
  138.6310   78.4290  222.0530 O   0  0  0  0  0  0  0  0  0  0  0  0
  138.0280   76.2900  222.7710 N   0  0  0  0  0  0  0  0  0  0  0  0
  138.3490   75.3440  223.0770 H   0  0  0  0  0  0  0  0  0  0  0  0
  136.5910   76.5470  222.7290 C   0  0  0  0  0  0  0  0  0  0  0  0
  136.3943   77.5678  223.0887 H   0  0  0  0  0  0  0  0  0  0  0  0
  136.2382   76.4379  221.6928 H   0  0  0  0  0  0  0  0  0  0  0  0
  135.8590   75.5640  223.6010 C   0  0  0  0  0  0  0  0  0  0  0  0
  135.9950   74.1860  223.3730 C   0  0  0  0  0  0  0  0  0  0  0  0
  136.6412   73.8261  222.5588 H   0  0  0  0  0  0  0  0  0  0  0  0
  135.3130   73.2710  224.1760 C   0  0  0  0  0  0  0  0  0  0  0  0
  135.4063   72.1931  223.9777 H   0  0  0  0  0  0  0  0  0  0  0  0
  134.5120   73.7170  225.2310 C   0  0  0  0  0  0  0  0  0  0  0  0
  133.6820   72.5290  226.2270 Cl  0  0  0  0  0  0  0  0  0  0  0  0
  134.3780   75.0950  225.4740 C   0  0  0  0  0  0  0  0  0  0  0  0
  133.3750   75.6980  226.7830 Cl  0  0  0  0  0  0  0  0  0  0  0  0
  135.0500   76.0130  224.6580 C   0  0  0  0  0  0  0  0  0  0  0  0
  134.9439   77.0917  224.8456 H   0  0  0  0  0  0  0  0  0  0  0  0
  1  2  1  0
  2  3  1  0
  3  4  2  0
  4  5  1  0
  4  6  1  0
  6  7  1  0
  7  8  2  0
  7  9  1  0
  9 10  2  0
 10 11  1  0
 11 12  2  0
 12 13  1  0
 12 14  1  0
 14 15  1  0
 14 16  2  0
 16 17  1  0
 16 18  1  0
 18 19  1  0
 18 20  2  0
 20 21  1  0
 21 22  1  0
 21 23  2  0
 23 24  1  0
  3 25  1  0
 25 26  1  0
 26 27  1  0
 26 28  1  0
 26 29  1  0
 29 30  1  0
 29 31  1  0
 29 32  1  0
 32 33  1  0
 32 34  1  0
 32 35  1  0
 35 36  1  1
 35 37  1  0
 37 38  2  0
 37 39  1  0
 39 40  1  0
 39 41  1  0
 41 42  1  0
 41 43  1  0
 41 44  1  0
 44 45  2  0
 45 46  1  0
 45 47  1  0
 47 48  1  0
 47 49  2  0
 49 50  1  0
 49 51  1  0
 51 52  1  0
 51 53  2  0
 53 54  1  0
 23  9  1  0
 35 25  1  0
 53 44  1  0
 20 11  1  0
M  CHG  1   6  -1
M  END
>  <UniqueID>  (61) 
160

>  <SMILES>  (61) 
O=C([N-]/C=C(\O)N1CCC[C@H]1C(=O)NCc1ccc(Cl)c(Cl)c1)c1ccc2ccccc2n1

>  <Energy>  (61) 
60.46657357215822

>  <Genealogy>  (61) 
O=C([N-]CC(=O)N1CCC[C@H]1C(=O)NCc1ccc(Cl)c(Cl)c1)c1ccc2ccccc2n1 (protonated)
O=C([N-]C=C(O)N1CCC[C@H]1C(=O)NCc1ccc(Cl)c(Cl)c1)c1ccc2ccccc2n1 (tautomer)
O=C([N-]/C=C(\O)N1CCC[C@H]1C(=O)NCc1ccc(Cl)c(Cl)c1)c1ccc2ccccc2n1 (cis-trans isomerization)
O=C([N-]/C=C(\O)N1CCC[C@H]1C(=O)NCc1ccc(Cl)c(Cl)c1)c1ccc2ccccc2n1 (3D coordinates assigned)
O=C([N-]/C=C(\O)N1CCC[C@H]1C(=O)NCc1ccc(Cl)c(Cl)c1)c1ccc2ccccc2n1 (nonaromatic ring conformer: 60.46657357215822 kcal/mol)

>  <smiles>  (61) 
O=C(NCC(=O)N1CCC[C@H]1C(=O)NCc1ccc(Cl)c(Cl)c1)c1ccc2ccccc2n1

>  <score_type>  (61) 
oracle

>  <origin>  (61) 
autodockgpu

>  <m_score__min__energy>  (61) 
-8.7400000000000002

>  <m_primary>  (61) 
energy

>  <meeko>  (61) 
{"free_energy": -8.73, "intermolecular_energy": -11.42, "internal_energy": -3.35, "cluster_size": 5, "cluster_id": 1, "rank_in_cluster": 2}

>  <energy>  (61) 
-8.74

>  <cluster_rmsd>  (61) 
0.0

>  <rmsd>  (61) 
271.1

>  <cluster>  (61) 
1

$$$$
NTBKPXNOUBMHTF-CKGUNICPNA-M
     RDKit          3D

 54 57  0  0  0  0  0  0  0  0999 V2000
  139.1990   74.1040  222.8450 H   0  0  0  0  0  0  0  0  0  0  0  0
  139.9990   73.7680  222.3210 O   0  0  0  0  0  0  0  0  0  0  0  0
  140.2350   74.2050  221.0190 C   0  0  0  0  0  0  0  0  0  0  0  0
  139.2380   74.7120  220.2970 C   0  0  0  0  0  0  0  0  0  0  0  0
  138.8625   74.1669  219.4184 H   0  0  0  0  0  0  0  0  0  0  0  0
  138.6550   75.9660  220.6640 N   0  0  0  0  0  0  0  0  0  0  0  0
  138.5470   76.4580  222.0040 C   0  0  0  0  0  0  0  0  0  0  0  0
  137.8370   75.8130  222.8230 O   0  0  0  0  0  0  0  0  0  0  0  0
  139.1860   77.7170  222.4520 C   0  0  0  0  0  0  0  0  0  0  0  0
  140.5360   77.8460  222.3210 N   0  0  0  0  0  0  0  0  0  0  0  0
  141.2080   78.9420  222.7630 C   0  0  0  0  0  0  0  0  0  0  0  0
  142.5940   79.0350  222.5880 C   0  0  0  0  0  0  0  0  0  0  0  0
  143.1434   78.2157  222.1012 H   0  0  0  0  0  0  0  0  0  0  0  0
  143.2790   80.1690  223.0320 C   0  0  0  0  0  0  0  0  0  0  0  0
  144.3675   80.2422  222.8915 H   0  0  0  0  0  0  0  0  0  0  0  0
  142.5840   81.2120  223.6550 C   0  0  0  0  0  0  0  0  0  0  0  0
  143.1288   82.1009  224.0059 H   0  0  0  0  0  0  0  0  0  0  0  0
  141.1990   81.1280  223.8330 C   0  0  0  0  0  0  0  0  0  0  0  0
  140.6559   81.9499  224.3223 H   0  0  0  0  0  0  0  0  0  0  0  0
  140.5040   79.9950  223.3870 C   0  0  0  0  0  0  0  0  0  0  0  0
  139.1200   79.8820  223.5440 C   0  0  0  0  0  0  0  0  0  0  0  0
  138.5519   80.6929  224.0232 H   0  0  0  0  0  0  0  0  0  0  0  0
  138.4600   78.7390  223.0920 C   0  0  0  0  0  0  0  0  0  0  0  0
  137.3742   78.6367  223.2355 H   0  0  0  0  0  0  0  0  0  0  0  0
  141.5470   74.0850  220.4570 N   0  0  0  0  0  0  0  0  0  0  0  0
  142.0850   72.8010  220.0420 C   0  0  0  0  0  0  0  0  0  0  0  0
  141.9389   72.0504  220.8327 H   0  0  0  0  0  0  0  0  0  0  0  0
  141.5815   72.4223  219.1403 H   0  0  0  0  0  0  0  0  0  0  0  0
  143.5700   73.0350  219.8000 C   0  0  0  0  0  0  0  0  0  0  0  0
  144.1619   72.2221  220.2461 H   0  0  0  0  0  0  0  0  0  0  0  0
  143.8024   73.0584  218.7251 H   0  0  0  0  0  0  0  0  0  0  0  0
  143.9060   74.3640  220.4710 C   0  0  0  0  0  0  0  0  0  0  0  0
  144.3854   74.1891  221.4455 H   0  0  0  0  0  0  0  0  0  0  0  0
  144.6065   74.9552  219.8629 H   0  0  0  0  0  0  0  0  0  0  0  0
  142.5730   75.0950  220.6580 C   0  0  1  0  0  0  0  0  0  0  0  0
  142.5129   75.5580  221.6540 H   0  0  0  0  0  0  0  0  0  0  0  0
  142.4090   76.2160  219.6680 C   0  0  0  0  0  0  0  0  0  0  0  0
  143.3240   76.4370  218.8300 O   0  0  0  0  0  0  0  0  0  0  0  0
  141.2180   77.0150  219.6590 N   0  0  0  0  0  0  0  0  0  0  0  0
  140.4880   76.8540  220.3880 H   0  0  0  0  0  0  0  0  0  0  0  0
  140.9570   78.0270  218.6380 C   0  0  0  0  0  0  0  0  0  0  0  0
  141.7909   78.0422  217.9208 H   0  0  0  0  0  0  0  0  0  0  0  0
  140.0187   77.7788  218.1203 H   0  0  0  0  0  0  0  0  0  0  0  0
  140.8220   79.3840  219.2700 C   0  0  0  0  0  0  0  0  0  0  0  0
  141.9460   80.2140  219.3980 C   0  0  0  0  0  0  0  0  0  0  0  0
  142.9248   79.8713  219.0312 H   0  0  0  0  0  0  0  0  0  0  0  0
  141.8270   81.4730  219.9890 C   0  0  0  0  0  0  0  0  0  0  0  0
  142.7164   82.1098  220.1051 H   0  0  0  0  0  0  0  0  0  0  0  0
  140.5820   81.9280  220.4340 C   0  0  0  0  0  0  0  0  0  0  0  0
  140.4730   83.5270  221.1590 Cl  0  0  0  0  0  0  0  0  0  0  0  0
  139.4480   81.1080  220.3010 C   0  0  0  0  0  0  0  0  0  0  0  0
  137.8680   81.6390  220.8530 Cl  0  0  0  0  0  0  0  0  0  0  0  0
  139.5720   79.8400  219.7210 C   0  0  0  0  0  0  0  0  0  0  0  0
  138.6856   79.1969  219.6177 H   0  0  0  0  0  0  0  0  0  0  0  0
  1  2  1  0
  2  3  1  0
  3  4  2  0
  4  5  1  0
  4  6  1  0
  6  7  1  0
  7  8  2  0
  7  9  1  0
  9 10  2  0
 10 11  1  0
 11 12  2  0
 12 13  1  0
 12 14  1  0
 14 15  1  0
 14 16  2  0
 16 17  1  0
 16 18  1  0
 18 19  1  0
 18 20  2  0
 20 21  1  0
 21 22  1  0
 21 23  2  0
 23 24  1  0
  3 25  1  0
 25 26  1  0
 26 27  1  0
 26 28  1  0
 26 29  1  0
 29 30  1  0
 29 31  1  0
 29 32  1  0
 32 33  1  0
 32 34  1  0
 32 35  1  0
 35 36  1  1
 35 37  1  0
 37 38  2  0
 37 39  1  0
 39 40  1  0
 39 41  1  0
 41 42  1  0
 41 43  1  0
 41 44  1  0
 44 45  2  0
 45 46  1  0
 45 47  1  0
 47 48  1  0
 47 49  2  0
 49 50  1  0
 49 51  1  0
 51 52  1  0
 51 53  2  0
 53 54  1  0
 23  9  1  0
 35 25  1  0
 53 44  1  0
 20 11  1  0
M  CHG  1   6  -1
M  END
>  <UniqueID>  (62) 
160

>  <SMILES>  (62) 
O=C([N-]/C=C(\O)N1CCC[C@H]1C(=O)NCc1ccc(Cl)c(Cl)c1)c1ccc2ccccc2n1

>  <Energy>  (62) 
60.46657357215822

>  <Genealogy>  (62) 
O=C([N-]CC(=O)N1CCC[C@H]1C(=O)NCc1ccc(Cl)c(Cl)c1)c1ccc2ccccc2n1 (protonated)
O=C([N-]C=C(O)N1CCC[C@H]1C(=O)NCc1ccc(Cl)c(Cl)c1)c1ccc2ccccc2n1 (tautomer)
O=C([N-]/C=C(\O)N1CCC[C@H]1C(=O)NCc1ccc(Cl)c(Cl)c1)c1ccc2ccccc2n1 (cis-trans isomerization)
O=C([N-]/C=C(\O)N1CCC[C@H]1C(=O)NCc1ccc(Cl)c(Cl)c1)c1ccc2ccccc2n1 (3D coordinates assigned)
O=C([N-]/C=C(\O)N1CCC[C@H]1C(=O)NCc1ccc(Cl)c(Cl)c1)c1ccc2ccccc2n1 (nonaromatic ring conformer: 60.46657357215822 kcal/mol)

>  <smiles>  (62) 
O=C(NCC(=O)N1CCC[C@H]1C(=O)NCc1ccc(Cl)c(Cl)c1)c1ccc2ccccc2n1

>  <score_type>  (62) 
oracle

>  <origin>  (62) 
autodockgpu

>  <m_score__min__energy>  (62) 
-8.7400000000000002

>  <m_primary>  (62) 
energy

>  <meeko>  (62) 
{"free_energy": -6.37, "intermolecular_energy": -9.05, "internal_energy": -6.15, "cluster_size": 12, "cluster_id": 5, "rank_in_cluster": 6}

>  <energy>  (62) 
-8.73

>  <cluster_rmsd>  (62) 
0.22

>  <rmsd>  (62) 
271.14

>  <cluster>  (62) 
1

$$$$
NTBKPXNOUBMHTF-CKGUNICPNA-M
     RDKit          3D

 54 57  0  0  0  0  0  0  0  0999 V2000
  139.6080   73.0770  223.1010 H   0  0  0  0  0  0  0  0  0  0  0  0
  139.5700   74.0020  222.6890 O   0  0  0  0  0  0  0  0  0  0  0  0
  140.4680   74.3790  221.6940 C   0  0  0  0  0  0  0  0  0  0  0  0
  141.1760   73.4530  221.0510 C   0  0  0  0  0  0  0  0  0  0  0  0
  141.6955   73.7086  220.1157 H   0  0  0  0  0  0  0  0  0  0  0  0
  141.2610   72.1250  221.5770 N   0  0  0  0  0  0  0  0  0  0  0  0
  140.1380   71.3250  221.9660 C   0  0  0  0  0  0  0  0  0  0  0  0
  139.2670   71.0530  221.0960 O   0  0  0  0  0  0  0  0  0  0  0  0
  139.9300   70.8550  223.3560 C   0  0  0  0  0  0  0  0  0  0  0  0
  140.5140   71.5480  224.3730 N   0  0  0  0  0  0  0  0  0  0  0  0
  140.4250   71.1490  225.6690 C   0  0  0  0  0  0  0  0  0  0  0  0
  141.0260   71.9060  226.6820 C   0  0  0  0  0  0  0  0  0  0  0  0
  141.5806   72.8217  226.4291 H   0  0  0  0  0  0  0  0  0  0  0  0
  140.9210   71.4980  228.0140 C   0  0  0  0  0  0  0  0  0  0  0  0
  141.3921   72.0951  228.8087 H   0  0  0  0  0  0  0  0  0  0  0  0
  140.2190   70.3330  228.3410 C   0  0  0  0  0  0  0  0  0  0  0  0
  140.1434   70.0152  229.3914 H   0  0  0  0  0  0  0  0  0  0  0  0
  139.6130   69.5710  227.3370 C   0  0  0  0  0  0  0  0  0  0  0  0
  139.0601   68.6565  227.5979 H   0  0  0  0  0  0  0  0  0  0  0  0
  139.7110   69.9740  225.9970 C   0  0  0  0  0  0  0  0  0  0  0  0
  139.1140   69.2390  224.9700 C   0  0  0  0  0  0  0  0  0  0  0  0
  138.5509   68.3234  225.2035 H   0  0  0  0  0  0  0  0  0  0  0  0
  139.2330   69.6680  223.6470 C   0  0  0  0  0  0  0  0  0  0  0  0
  138.7829   69.0794  222.8340 H   0  0  0  0  0  0  0  0  0  0  0  0
  140.6400   75.7660  221.3820 N   0  0  0  0  0  0  0  0  0  0  0  0
  141.4750   76.2020  220.2760 C   0  0  0  0  0  0  0  0  0  0  0  0
  142.4505   75.6948  220.3089 H   0  0  0  0  0  0  0  0  0  0  0  0
  141.0190   75.9623  219.3041 H   0  0  0  0  0  0  0  0  0  0  0  0
  141.6510   77.7040  220.4590 C   0  0  0  0  0  0  0  0  0  0  0  0
  142.7020   77.9872  220.2999 H   0  0  0  0  0  0  0  0  0  0  0  0
  141.0458   78.2700  219.7356 H   0  0  0  0  0  0  0  0  0  0  0  0
  141.2320   78.0090  221.8950 C   0  0  0  0  0  0  0  0  0  0  0  0
  142.1188   78.1156  222.5370 H   0  0  0  0  0  0  0  0  0  0  0  0
  140.6677   78.9511  221.9576 H   0  0  0  0  0  0  0  0  0  0  0  0
  140.3850   76.8180  222.3520 C   0  0  1  0  0  0  0  0  0  0  0  0
  140.6518   76.5145  223.3751 H   0  0  0  0  0  0  0  0  0  0  0  0
  138.9190   77.1570  222.3890 C   0  0  0  0  0  0  0  0  0  0  0  0
  138.5470   78.3160  222.0630 O   0  0  0  0  0  0  0  0  0  0  0  0
  137.9500   76.1720  222.7700 N   0  0  0  0  0  0  0  0  0  0  0  0
  138.2740   75.2300  223.0850 H   0  0  0  0  0  0  0  0  0  0  0  0
  136.5120   76.4140  222.6970 C   0  0  0  0  0  0  0  0  0  0  0  0
  136.3046   77.4558  222.9828 H   0  0  0  0  0  0  0  0  0  0  0  0
  136.1705   76.2299  221.6677 H   0  0  0  0  0  0  0  0  0  0  0  0
  135.7780   75.4890  223.6280 C   0  0  0  0  0  0  0  0  0  0  0  0
  135.8600   74.1000  223.4460 C   0  0  0  0  0  0  0  0  0  0  0  0
  136.4654   73.6895  222.6244 H   0  0  0  0  0  0  0  0  0  0  0  0
  135.1760   73.2380  224.3040 C   0  0  0  0  0  0  0  0  0  0  0  0
  135.2261   72.1511  224.1420 H   0  0  0  0  0  0  0  0  0  0  0  0
  134.4270   73.7490  225.3690 C   0  0  0  0  0  0  0  0  0  0  0  0
  133.5930   72.6260  226.4350 Cl  0  0  0  0  0  0  0  0  0  0  0  0
  134.3480   75.1390  225.5650 C   0  0  0  0  0  0  0  0  0  0  0  0
  133.4110   75.8210  226.8840 Cl  0  0  0  0  0  0  0  0  0  0  0  0
  135.0210   76.0030  224.6940 C   0  0  0  0  0  0  0  0  0  0  0  0
  134.9569   77.0907  224.8448 H   0  0  0  0  0  0  0  0  0  0  0  0
  1  2  1  0
  2  3  1  0
  3  4  2  0
  4  5  1  0
  4  6  1  0
  6  7  1  0
  7  8  2  0
  7  9  1  0
  9 10  2  0
 10 11  1  0
 11 12  2  0
 12 13  1  0
 12 14  1  0
 14 15  1  0
 14 16  2  0
 16 17  1  0
 16 18  1  0
 18 19  1  0
 18 20  2  0
 20 21  1  0
 21 22  1  0
 21 23  2  0
 23 24  1  0
  3 25  1  0
 25 26  1  0
 26 27  1  0
 26 28  1  0
 26 29  1  0
 29 30  1  0
 29 31  1  0
 29 32  1  0
 32 33  1  0
 32 34  1  0
 32 35  1  0
 35 36  1  1
 35 37  1  0
 37 38  2  0
 37 39  1  0
 39 40  1  0
 39 41  1  0
 41 42  1  0
 41 43  1  0
 41 44  1  0
 44 45  2  0
 45 46  1  0
 45 47  1  0
 47 48  1  0
 47 49  2  0
 49 50  1  0
 49 51  1  0
 51 52  1  0
 51 53  2  0
 53 54  1  0
 23  9  1  0
 35 25  1  0
 53 44  1  0
 20 11  1  0
M  CHG  1   6  -1
M  END
>  <UniqueID>  (63) 
160

>  <SMILES>  (63) 
O=C([N-]/C=C(\O)N1CCC[C@H]1C(=O)NCc1ccc(Cl)c(Cl)c1)c1ccc2ccccc2n1

>  <Energy>  (63) 
60.46657357215822

>  <Genealogy>  (63) 
O=C([N-]CC(=O)N1CCC[C@H]1C(=O)NCc1ccc(Cl)c(Cl)c1)c1ccc2ccccc2n1 (protonated)
O=C([N-]C=C(O)N1CCC[C@H]1C(=O)NCc1ccc(Cl)c(Cl)c1)c1ccc2ccccc2n1 (tautomer)
O=C([N-]/C=C(\O)N1CCC[C@H]1C(=O)NCc1ccc(Cl)c(Cl)c1)c1ccc2ccccc2n1 (cis-trans isomerization)
O=C([N-]/C=C(\O)N1CCC[C@H]1C(=O)NCc1ccc(Cl)c(Cl)c1)c1ccc2ccccc2n1 (3D coordinates assigned)
O=C([N-]/C=C(\O)N1CCC[C@H]1C(=O)NCc1ccc(Cl)c(Cl)c1)c1ccc2ccccc2n1 (nonaromatic ring conformer: 60.46657357215822 kcal/mol)

>  <smiles>  (63) 
O=C(NCC(=O)N1CCC[C@H]1C(=O)NCc1ccc(Cl)c(Cl)c1)c1ccc2ccccc2n1

>  <score_type>  (63) 
oracle

>  <origin>  (63) 
autodockgpu

>  <m_score__min__energy>  (63) 
-8.7400000000000002

>  <m_primary>  (63) 
energy

>  <meeko>  (63) 
{"free_energy": -8.74, "intermolecular_energy": -11.43, "internal_energy": -3.4, "cluster_size": 5, "cluster_id": 1, "rank_in_cluster": 1}

>  <energy>  (63) 
-8.41

>  <cluster_rmsd>  (63) 
0.64

>  <rmsd>  (63) 
271.07

>  <cluster>  (63) 
1

$$$$
NTBKPXNOUBMHTF-CKGUNICPNA-M
     RDKit          3D

 54 57  0  0  0  0  0  0  0  0999 V2000
  139.6190   73.1450  223.1030 H   0  0  0  0  0  0  0  0  0  0  0  0
  139.5620   74.0680  222.6870 O   0  0  0  0  0  0  0  0  0  0  0  0
  140.4230   74.4430  221.6590 C   0  0  0  0  0  0  0  0  0  0  0  0
  141.1300   73.5180  221.0130 C   0  0  0  0  0  0  0  0  0  0  0  0
  141.6357   73.7716  220.0696 H   0  0  0  0  0  0  0  0  0  0  0  0
  141.2320   72.1940  221.5460 N   0  0  0  0  0  0  0  0  0  0  0  0
  140.1210   71.3880  221.9540 C   0  0  0  0  0  0  0  0  0  0  0  0
  139.2410   71.1040  221.0960 O   0  0  0  0  0  0  0  0  0  0  0  0
  139.9340   70.9230  223.3480 C   0  0  0  0  0  0  0  0  0  0  0  0
  140.5230   71.6280  224.3540 N   0  0  0  0  0  0  0  0  0  0  0  0
  140.4530   71.2360  225.6540 C   0  0  0  0  0  0  0  0  0  0  0  0
  141.0590   72.0050  226.6550 C   0  0  0  0  0  0  0  0  0  0  0  0
  141.6020   72.9241  226.3895 H   0  0  0  0  0  0  0  0  0  0  0  0
  140.9740   71.6050  227.9910 C   0  0  0  0  0  0  0  0  0  0  0  0
  141.4484   72.2115  228.7766 H   0  0  0  0  0  0  0  0  0  0  0  0
  140.2870   70.4350  228.3320 C   0  0  0  0  0  0  0  0  0  0  0  0
  140.2262   70.1230  229.3851 H   0  0  0  0  0  0  0  0  0  0  0  0
  139.6770   69.6600  227.3400 C   0  0  0  0  0  0  0  0  0  0  0  0
  139.1364   68.7417  227.6128 H   0  0  0  0  0  0  0  0  0  0  0  0
  139.7560   70.0560  225.9970 C   0  0  0  0  0  0  0  0  0  0  0  0
  139.1530   69.3090  224.9820 C   0  0  0  0  0  0  0  0  0  0  0  0
  138.6005   68.3901  225.2279 H   0  0  0  0  0  0  0  0  0  0  0  0
  139.2530   69.7310  223.6550 C   0  0  0  0  0  0  0  0  0  0  0  0
  138.8001   69.1325  222.8509 H   0  0  0  0  0  0  0  0  0  0  0  0
  140.5610   75.8270  221.3170 N   0  0  0  0  0  0  0  0  0  0  0  0
  141.2890   76.2520  220.1350 C   0  0  0  0  0  0  0  0  0  0  0  0
  142.2654   75.7480  220.0841 H   0  0  0  0  0  0  0  0  0  0  0  0
  140.7469   75.9995  219.2118 H   0  0  0  0  0  0  0  0  0  0  0  0
  141.4750   77.7560  220.2840 C   0  0  0  0  0  0  0  0  0  0  0  0
  142.5059   78.0403  220.0261 H   0  0  0  0  0  0  0  0  0  0  0  0
  140.8037   78.3116  219.6127 H   0  0  0  0  0  0  0  0  0  0  0  0
  141.1880   78.0770  221.7490 C   0  0  0  0  0  0  0  0  0  0  0  0
  142.1295   78.1947  222.3056 H   0  0  0  0  0  0  0  0  0  0  0  0
  140.6273   79.0177  221.8520 H   0  0  0  0  0  0  0  0  0  0  0  0
  140.3920   76.8880  222.2960 C   0  0  1  0  0  0  0  0  0  0  0  0
  140.7527   76.5955  223.2932 H   0  0  0  0  0  0  0  0  0  0  0  0
  138.9350   77.2240  222.4640 C   0  0  0  0  0  0  0  0  0  0  0  0
  138.5420   78.3970  222.2270 O   0  0  0  0  0  0  0  0  0  0  0  0
  137.9950   76.2190  222.8680 N   0  0  0  0  0  0  0  0  0  0  0  0
  138.3400   75.2620  223.1080 H   0  0  0  0  0  0  0  0  0  0  0  0
  136.5560   76.4630  222.9190 C   0  0  0  0  0  0  0  0  0  0  0  0
  136.3713   77.4534  223.3605 H   0  0  0  0  0  0  0  0  0  0  0  0
  136.1500   76.4242  221.8974 H   0  0  0  0  0  0  0  0  0  0  0  0
  135.8780   75.4130  223.7550 C   0  0  0  0  0  0  0  0  0  0  0  0
  135.0700   75.7930  224.8380 C   0  0  0  0  0  0  0  0  0  0  0  0
  134.9312   76.8591  225.0705 H   0  0  0  0  0  0  0  0  0  0  0  0
  134.4420   74.8230  225.6210 C   0  0  0  0  0  0  0  0  0  0  0  0
  133.8281   75.1271  226.4816 H   0  0  0  0  0  0  0  0  0  0  0  0
  134.5900   73.4660  225.3160 C   0  0  0  0  0  0  0  0  0  0  0  0
  133.7700   72.2770  226.3190 Cl  0  0  0  0  0  0  0  0  0  0  0  0
  135.3900   73.0770  224.2270 C   0  0  0  0  0  0  0  0  0  0  0  0
  135.6080   71.3840  223.8160 Cl  0  0  0  0  0  0  0  0  0  0  0  0
  136.0310   74.0500  223.4520 C   0  0  0  0  0  0  0  0  0  0  0  0
  136.6580   73.7458  222.6009 H   0  0  0  0  0  0  0  0  0  0  0  0
  1  2  1  0
  2  3  1  0
  3  4  2  0
  4  5  1  0
  4  6  1  0
  6  7  1  0
  7  8  2  0
  7  9  1  0
  9 10  2  0
 10 11  1  0
 11 12  2  0
 12 13  1  0
 12 14  1  0
 14 15  1  0
 14 16  2  0
 16 17  1  0
 16 18  1  0
 18 19  1  0
 18 20  2  0
 20 21  1  0
 21 22  1  0
 21 23  2  0
 23 24  1  0
  3 25  1  0
 25 26  1  0
 26 27  1  0
 26 28  1  0
 26 29  1  0
 29 30  1  0
 29 31  1  0
 29 32  1  0
 32 33  1  0
 32 34  1  0
 32 35  1  0
 35 36  1  1
 35 37  1  0
 37 38  2  0
 37 39  1  0
 39 40  1  0
 39 41  1  0
 41 42  1  0
 41 43  1  0
 41 44  1  0
 44 45  2  0
 45 46  1  0
 45 47  1  0
 47 48  1  0
 47 49  2  0
 49 50  1  0
 49 51  1  0
 51 52  1  0
 51 53  2  0
 53 54  1  0
 23  9  1  0
 35 25  1  0
 53 44  1  0
 20 11  1  0
M  CHG  1   6  -1
M  END
>  <UniqueID>  (64) 
160

>  <SMILES>  (64) 
O=C([N-]/C=C(\O)N1CCC[C@H]1C(=O)NCc1ccc(Cl)c(Cl)c1)c1ccc2ccccc2n1

>  <Energy>  (64) 
60.46657357215822

>  <Genealogy>  (64) 
O=C([N-]CC(=O)N1CCC[C@H]1C(=O)NCc1ccc(Cl)c(Cl)c1)c1ccc2ccccc2n1 (protonated)
O=C([N-]C=C(O)N1CCC[C@H]1C(=O)NCc1ccc(Cl)c(Cl)c1)c1ccc2ccccc2n1 (tautomer)
O=C([N-]/C=C(\O)N1CCC[C@H]1C(=O)NCc1ccc(Cl)c(Cl)c1)c1ccc2ccccc2n1 (cis-trans isomerization)
O=C([N-]/C=C(\O)N1CCC[C@H]1C(=O)NCc1ccc(Cl)c(Cl)c1)c1ccc2ccccc2n1 (3D coordinates assigned)
O=C([N-]/C=C(\O)N1CCC[C@H]1C(=O)NCc1ccc(Cl)c(Cl)c1)c1ccc2ccccc2n1 (nonaromatic ring conformer: 60.46657357215822 kcal/mol)

>  <smiles>  (64) 
O=C(NCC(=O)N1CCC[C@H]1C(=O)NCc1ccc(Cl)c(Cl)c1)c1ccc2ccccc2n1

>  <score_type>  (64) 
oracle

>  <origin>  (64) 
autodockgpu

>  <m_score__min__energy>  (64) 
-8.7400000000000002

>  <m_primary>  (64) 
energy

>  <meeko>  (64) 
{"free_energy": -8.36, "intermolecular_energy": -11.04, "internal_energy": -3.74, "cluster_size": 5, "cluster_id": 1, "rank_in_cluster": 4}

>  <energy>  (64) 
-8.36

>  <cluster_rmsd>  (64) 
0.62

>  <rmsd>  (64) 
271.04

>  <cluster>  (64) 
1

$$$$
NTBKPXNOUBMHTF-CKGUNICPNA-M
     RDKit          3D

 54 57  0  0  0  0  0  0  0  0999 V2000
  139.4910   73.3430  219.5330 H   0  0  0  0  0  0  0  0  0  0  0  0
  140.3410   72.7960  219.6070 O   0  0  0  0  0  0  0  0  0  0  0  0
  141.2440   73.0160  220.6450 C   0  0  0  0  0  0  0  0  0  0  0  0
  140.8100   73.0760  221.9020 C   0  0  0  0  0  0  0  0  0  0  0  0
  141.0631   72.2733  222.6102 H   0  0  0  0  0  0  0  0  0  0  0  0
  140.0140   74.1850  222.3320 N   0  0  0  0  0  0  0  0  0  0  0  0
  139.7700   75.3650  221.5590 C   0  0  0  0  0  0  0  0  0  0  0  0
  139.4960   75.2330  220.3350 O   0  0  0  0  0  0  0  0  0  0  0  0
  139.8800   76.7320  222.1210 C   0  0  0  0  0  0  0  0  0  0  0  0
  141.1020   77.3330  222.1380 N   0  0  0  0  0  0  0  0  0  0  0  0
  141.3010   78.5580  222.6920 C   0  0  0  0  0  0  0  0  0  0  0  0
  142.5740   79.1430  222.6670 C   0  0  0  0  0  0  0  0  0  0  0  0
  143.4173   78.6070  222.2071 H   0  0  0  0  0  0  0  0  0  0  0  0
  142.7710   80.4080  223.2270 C   0  0  0  0  0  0  0  0  0  0  0  0
  143.7704   80.8671  223.2055 H   0  0  0  0  0  0  0  0  0  0  0  0
  141.7020   81.0930  223.8150 C   0  0  0  0  0  0  0  0  0  0  0  0
  141.8647   82.0872  224.2568 H   0  0  0  0  0  0  0  0  0  0  0  0
  140.4270   80.5180  223.8430 C   0  0  0  0  0  0  0  0  0  0  0  0
  139.5883   81.0596  224.3047 H   0  0  0  0  0  0  0  0  0  0  0  0
  140.2200   79.2490  223.2810 C   0  0  0  0  0  0  0  0  0  0  0  0
  138.9580   78.6490  223.2870 C   0  0  0  0  0  0  0  0  0  0  0  0
  138.1010   79.1724  223.7360 H   0  0  0  0  0  0  0  0  0  0  0  0
  138.7870   77.3840  222.7220 C   0  0  0  0  0  0  0  0  0  0  0  0
  137.8005   76.8980  222.7464 H   0  0  0  0  0  0  0  0  0  0  0  0
  142.6340   73.1970  220.3500 N   0  0  0  0  0  0  0  0  0  0  0  0
  143.4950   72.0770  220.0170 C   0  0  0  0  0  0  0  0  0  0  0  0
  143.3625   71.2621  220.7439 H   0  0  0  0  0  0  0  0  0  0  0  0
  143.2601   71.6655  219.0243 H   0  0  0  0  0  0  0  0  0  0  0  0
  144.9180   72.6180  220.0790 C   0  0  0  0  0  0  0  0  0  0  0  0
  145.5718   71.9117  220.6116 H   0  0  0  0  0  0  0  0  0  0  0  0
  145.3382   72.7584  219.0722 H   0  0  0  0  0  0  0  0  0  0  0  0
  144.8370   73.9400  220.8380 C   0  0  0  0  0  0  0  0  0  0  0  0
  145.1492   73.7999  221.8834 H   0  0  0  0  0  0  0  0  0  0  0  0
  145.5011   74.6981  220.3973 H   0  0  0  0  0  0  0  0  0  0  0  0
  143.3700   74.3760  220.7750 C   0  0  1  0  0  0  0  0  0  0  0  0
  143.0278   74.7515  221.7506 H   0  0  0  0  0  0  0  0  0  0  0  0
  143.1650   75.5050  219.8010 C   0  0  0  0  0  0  0  0  0  0  0  0
  144.0480   76.3970  219.6980 O   0  0  0  0  0  0  0  0  0  0  0  0
  141.9890   75.5590  218.9820 N   0  0  0  0  0  0  0  0  0  0  0  0
  141.2420   74.8410  219.1110 H   0  0  0  0  0  0  0  0  0  0  0  0
  141.8070   76.5600  217.9340 C   0  0  0  0  0  0  0  0  0  0  0  0
  142.7292   76.6342  217.3390 H   0  0  0  0  0  0  0  0  0  0  0  0
  140.9673   76.2567  217.2914 H   0  0  0  0  0  0  0  0  0  0  0  0
  141.4990   77.9010  218.5410 C   0  0  0  0  0  0  0  0  0  0  0  0
  142.4990   78.8830  218.6160 C   0  0  0  0  0  0  0  0  0  0  0  0
  143.5058   78.6711  218.2268 H   0  0  0  0  0  0  0  0  0  0  0  0
  142.2200   80.1280  219.1830 C   0  0  0  0  0  0  0  0  0  0  0  0
  143.0140   80.8856  219.2587 H   0  0  0  0  0  0  0  0  0  0  0  0
  140.9360   80.4160  219.6550 C   0  0  0  0  0  0  0  0  0  0  0  0
  140.6230   82.0020  220.3490 Cl  0  0  0  0  0  0  0  0  0  0  0  0
  139.9250   79.4420  219.5750 C   0  0  0  0  0  0  0  0  0  0  0  0
  138.3020   79.7610  220.1640 Cl  0  0  0  0  0  0  0  0  0  0  0  0
  140.2100   78.1890  219.0200 C   0  0  0  0  0  0  0  0  0  0  0  0
  139.4204   77.4256  218.9586 H   0  0  0  0  0  0  0  0  0  0  0  0
  1  2  1  0
  2  3  1  0
  3  4  2  0
  4  5  1  0
  4  6  1  0
  6  7  1  0
  7  8  2  0
  7  9  1  0
  9 10  2  0
 10 11  1  0
 11 12  2  0
 12 13  1  0
 12 14  1  0
 14 15  1  0
 14 16  2  0
 16 17  1  0
 16 18  1  0
 18 19  1  0
 18 20  2  0
 20 21  1  0
 21 22  1  0
 21 23  2  0
 23 24  1  0
  3 25  1  0
 25 26  1  0
 26 27  1  0
 26 28  1  0
 26 29  1  0
 29 30  1  0
 29 31  1  0
 29 32  1  0
 32 33  1  0
 32 34  1  0
 32 35  1  0
 35 36  1  1
 35 37  1  0
 37 38  2  0
 37 39  1  0
 39 40  1  0
 39 41  1  0
 41 42  1  0
 41 43  1  0
 41 44  1  0
 44 45  2  0
 45 46  1  0
 45 47  1  0
 47 48  1  0
 47 49  2  0
 49 50  1  0
 49 51  1  0
 51 52  1  0
 51 53  2  0
 53 54  1  0
 23  9  1  0
 35 25  1  0
 53 44  1  0
 20 11  1  0
M  CHG  1   6  -1
M  END
>  <UniqueID>  (65) 
160

>  <SMILES>  (65) 
O=C([N-]/C=C(\O)N1CCC[C@H]1C(=O)NCc1ccc(Cl)c(Cl)c1)c1ccc2ccccc2n1

>  <Energy>  (65) 
60.46657357215822

>  <Genealogy>  (65) 
O=C([N-]CC(=O)N1CCC[C@H]1C(=O)NCc1ccc(Cl)c(Cl)c1)c1ccc2ccccc2n1 (protonated)
O=C([N-]C=C(O)N1CCC[C@H]1C(=O)NCc1ccc(Cl)c(Cl)c1)c1ccc2ccccc2n1 (tautomer)
O=C([N-]/C=C(\O)N1CCC[C@H]1C(=O)NCc1ccc(Cl)c(Cl)c1)c1ccc2ccccc2n1 (cis-trans isomerization)
O=C([N-]/C=C(\O)N1CCC[C@H]1C(=O)NCc1ccc(Cl)c(Cl)c1)c1ccc2ccccc2n1 (3D coordinates assigned)
O=C([N-]/C=C(\O)N1CCC[C@H]1C(=O)NCc1ccc(Cl)c(Cl)c1)c1ccc2ccccc2n1 (nonaromatic ring conformer: 60.46657357215822 kcal/mol)

>  <smiles>  (65) 
O=C(NCC(=O)N1CCC[C@H]1C(=O)NCc1ccc(Cl)c(Cl)c1)c1ccc2ccccc2n1

>  <score_type>  (65) 
oracle

>  <origin>  (65) 
autodockgpu

>  <m_score__min__energy>  (65) 
-8.7400000000000002

>  <m_primary>  (65) 
energy

>  <meeko>  (65) 
{"free_energy": -6.14, "intermolecular_energy": -8.83, "internal_energy": -6.0, "cluster_size": 12, "cluster_id": 5, "rank_in_cluster": 9}

>  <energy>  (65) 
-7.94

>  <cluster_rmsd>  (65) 
0.92

>  <rmsd>  (65) 
270.76

>  <cluster>  (65) 
1

$$$$
NTBKPXNOUBMHTF-CKGUNICPNA-M
     RDKit          3D

 54 57  0  0  0  0  0  0  0  0999 V2000
  139.0350   74.3120  222.7310 H   0  0  0  0  0  0  0  0  0  0  0  0
  139.8830   73.9700  222.2930 O   0  0  0  0  0  0  0  0  0  0  0  0
  140.1940   74.3090  220.9780 C   0  0  0  0  0  0  0  0  0  0  0  0
  139.2710   74.8710  220.2000 C   0  0  0  0  0  0  0  0  0  0  0  0
  139.0744   74.4633  219.1974 H   0  0  0  0  0  0  0  0  0  0  0  0
  138.5350   76.0050  220.6680 N   0  0  0  0  0  0  0  0  0  0  0  0
  138.5080   76.4600  222.0260 C   0  0  0  0  0  0  0  0  0  0  0  0
  137.8590   75.7830  222.8700 O   0  0  0  0  0  0  0  0  0  0  0  0
  139.1590   77.7150  222.4660 C   0  0  0  0  0  0  0  0  0  0  0  0
  140.5080   77.8360  222.3190 N   0  0  0  0  0  0  0  0  0  0  0  0
  141.1910   78.9280  222.7520 C   0  0  0  0  0  0  0  0  0  0  0  0
  142.5760   79.0140  222.5600 C   0  0  0  0  0  0  0  0  0  0  0  0
  143.1152   78.1925  222.0656 H   0  0  0  0  0  0  0  0  0  0  0  0
  143.2720   80.1440  222.9970 C   0  0  0  0  0  0  0  0  0  0  0  0
  144.3592   80.2114  222.8436 H   0  0  0  0  0  0  0  0  0  0  0  0
  142.5910   81.1900  223.6290 C   0  0  0  0  0  0  0  0  0  0  0  0
  143.1456   82.0751  223.9740 H   0  0  0  0  0  0  0  0  0  0  0  0
  141.2080   81.1150  223.8240 C   0  0  0  0  0  0  0  0  0  0  0  0
  140.6757   81.9402  224.3197 H   0  0  0  0  0  0  0  0  0  0  0  0
  140.5010   79.9850  223.3860 C   0  0  0  0  0  0  0  0  0  0  0  0
  139.1190   79.8800  223.5600 C   0  0  0  0  0  0  0  0  0  0  0  0
  138.5617   80.6939  224.0467 H   0  0  0  0  0  0  0  0  0  0  0  0
  138.4460   78.7400  223.1150 C   0  0  0  0  0  0  0  0  0  0  0  0
  137.3615   78.6436  223.2714 H   0  0  0  0  0  0  0  0  0  0  0  0
  141.5010   74.0290  220.4630 N   0  0  0  0  0  0  0  0  0  0  0  0
  141.8830   72.6950  220.0370 C   0  0  0  0  0  0  0  0  0  0  0  0
  141.6089   71.9546  220.8030 H   0  0  0  0  0  0  0  0  0  0  0  0
  141.3709   72.4033  219.1082 H   0  0  0  0  0  0  0  0  0  0  0  0
  143.3950   72.7370  219.8560 C   0  0  0  0  0  0  0  0  0  0  0  0
  143.8578   71.8448  220.3029 H   0  0  0  0  0  0  0  0  0  0  0  0
  143.6718   72.7512  218.7915 H   0  0  0  0  0  0  0  0  0  0  0  0
  143.8730   73.9970  220.5730 C   0  0  0  0  0  0  0  0  0  0  0  0
  144.2847   73.7412  221.5605 H   0  0  0  0  0  0  0  0  0  0  0  0
  144.6690   74.5034  220.0073 H   0  0  0  0  0  0  0  0  0  0  0  0
  142.6410   74.8920  220.7270 C   0  0  1  0  0  0  0  0  0  0  0  0
  142.6017   75.3397  221.7310 H   0  0  0  0  0  0  0  0  0  0  0  0
  142.6640   76.0440  219.7600 C   0  0  0  0  0  0  0  0  0  0  0  0
  143.6540   76.1840  218.9930 O   0  0  0  0  0  0  0  0  0  0  0  0
  141.5670   76.9650  219.6920 N   0  0  0  0  0  0  0  0  0  0  0  0
  140.7740   76.8670  220.3650 H   0  0  0  0  0  0  0  0  0  0  0  0
  141.4850   78.0190  218.6840 C   0  0  0  0  0  0  0  0  0  0  0  0
  142.4774   78.1684  218.2337 H   0  0  0  0  0  0  0  0  0  0  0  0
  140.7617   77.7196  217.9112 H   0  0  0  0  0  0  0  0  0  0  0  0
  141.0260   79.3060  219.3110 C   0  0  0  0  0  0  0  0  0  0  0  0
  141.9530   80.3240  219.5830 C   0  0  0  0  0  0  0  0  0  0  0  0
  143.0145   80.1803  219.3328 H   0  0  0  0  0  0  0  0  0  0  0  0
  141.5320   81.5180  220.1700 C   0  0  0  0  0  0  0  0  0  0  0  0
  142.2672   82.3027  220.4018 H   0  0  0  0  0  0  0  0  0  0  0  0
  140.1810   81.7220  220.4650 C   0  0  0  0  0  0  0  0  0  0  0  0
  139.6920   83.2480  221.1910 Cl  0  0  0  0  0  0  0  0  0  0  0  0
  139.2440   80.7120  220.1870 C   0  0  0  0  0  0  0  0  0  0  0  0
  137.5390   80.9240  220.5510 Cl  0  0  0  0  0  0  0  0  0  0  0  0
  139.6690   79.5080  219.6130 C   0  0  0  0  0  0  0  0  0  0  0  0
  138.9367   78.7161  219.3974 H   0  0  0  0  0  0  0  0  0  0  0  0
  1  2  1  0
  2  3  1  0
  3  4  2  0
  4  5  1  0
  4  6  1  0
  6  7  1  0
  7  8  2  0
  7  9  1  0
  9 10  2  0
 10 11  1  0
 11 12  2  0
 12 13  1  0
 12 14  1  0
 14 15  1  0
 14 16  2  0
 16 17  1  0
 16 18  1  0
 18 19  1  0
 18 20  2  0
 20 21  1  0
 21 22  1  0
 21 23  2  0
 23 24  1  0
  3 25  1  0
 25 26  1  0
 26 27  1  0
 26 28  1  0
 26 29  1  0
 29 30  1  0
 29 31  1  0
 29 32  1  0
 32 33  1  0
 32 34  1  0
 32 35  1  0
 35 36  1  1
 35 37  1  0
 37 38  2  0
 37 39  1  0
 39 40  1  0
 39 41  1  0
 41 42  1  0
 41 43  1  0
 41 44  1  0
 44 45  2  0
 45 46  1  0
 45 47  1  0
 47 48  1  0
 47 49  2  0
 49 50  1  0
 49 51  1  0
 51 52  1  0
 51 53  2  0
 53 54  1  0
 23  9  1  0
 35 25  1  0
 53 44  1  0
 20 11  1  0
M  CHG  1   6  -1
M  END
>  <UniqueID>  (66) 
160

>  <SMILES>  (66) 
O=C([N-]/C=C(\O)N1CCC[C@H]1C(=O)NCc1ccc(Cl)c(Cl)c1)c1ccc2ccccc2n1

>  <Energy>  (66) 
60.46657357215822

>  <Genealogy>  (66) 
O=C([N-]CC(=O)N1CCC[C@H]1C(=O)NCc1ccc(Cl)c(Cl)c1)c1ccc2ccccc2n1 (protonated)
O=C([N-]C=C(O)N1CCC[C@H]1C(=O)NCc1ccc(Cl)c(Cl)c1)c1ccc2ccccc2n1 (tautomer)
O=C([N-]/C=C(\O)N1CCC[C@H]1C(=O)NCc1ccc(Cl)c(Cl)c1)c1ccc2ccccc2n1 (cis-trans isomerization)
O=C([N-]/C=C(\O)N1CCC[C@H]1C(=O)NCc1ccc(Cl)c(Cl)c1)c1ccc2ccccc2n1 (3D coordinates assigned)
O=C([N-]/C=C(\O)N1CCC[C@H]1C(=O)NCc1ccc(Cl)c(Cl)c1)c1ccc2ccccc2n1 (nonaromatic ring conformer: 60.46657357215822 kcal/mol)

>  <smiles>  (66) 
O=C(NCC(=O)N1CCC[C@H]1C(=O)NCc1ccc(Cl)c(Cl)c1)c1ccc2ccccc2n1

>  <score_type>  (66) 
oracle

>  <origin>  (66) 
autodockgpu

>  <m_score__min__energy>  (66) 
-8.7400000000000002

>  <m_primary>  (66) 
energy

>  <meeko>  (66) 
{"free_energy": -6.34, "intermolecular_energy": -9.02, "internal_energy": -5.92, "cluster_size": 12, "cluster_id": 5, "rank_in_cluster": 7}

>  <energy>  (66) 
-8.63

>  <cluster_rmsd>  (66) 
0.0

>  <rmsd>  (66) 
271.31

>  <cluster>  (66) 
2

$$$$
NTBKPXNOUBMHTF-CKGUNICPNA-M
     RDKit          3D

 54 57  0  0  0  0  0  0  0  0999 V2000
  139.6240   73.1480  223.1110 H   0  0  0  0  0  0  0  0  0  0  0  0
  139.5750   74.0720  222.6970 O   0  0  0  0  0  0  0  0  0  0  0  0
  140.4740   74.4590  221.7060 C   0  0  0  0  0  0  0  0  0  0  0  0
  141.2300   73.5450  221.1010 C   0  0  0  0  0  0  0  0  0  0  0  0
  141.8565   73.8304  220.2431 H   0  0  0  0  0  0  0  0  0  0  0  0
  141.2280   72.1920  221.5660 N   0  0  0  0  0  0  0  0  0  0  0  0
  140.0680   71.4830  222.0160 C   0  0  0  0  0  0  0  0  0  0  0  0
  139.1040   71.3440  221.2140 O   0  0  0  0  0  0  0  0  0  0  0  0
  139.9310   70.9570  223.3940 C   0  0  0  0  0  0  0  0  0  0  0  0
  140.5240   71.6400  224.4140 N   0  0  0  0  0  0  0  0  0  0  0  0
  140.4990   71.1940  225.6980 C   0  0  0  0  0  0  0  0  0  0  0  0
  141.1070   71.9410  226.7140 C   0  0  0  0  0  0  0  0  0  0  0  0
  141.6151   72.8864  226.4731 H   0  0  0  0  0  0  0  0  0  0  0  0
  141.0680   71.4850  228.0340 C   0  0  0  0  0  0  0  0  0  0  0  0
  141.5428   72.0746  228.8320 H   0  0  0  0  0  0  0  0  0  0  0  0
  140.4270   70.2810  228.3440 C   0  0  0  0  0  0  0  0  0  0  0  0
  140.4034   69.9250  229.3845 H   0  0  0  0  0  0  0  0  0  0  0  0
  139.8160   69.5280  227.3360 C   0  0  0  0  0  0  0  0  0  0  0  0
  139.3111   68.5827  227.5839 H   0  0  0  0  0  0  0  0  0  0  0  0
  139.8480   69.9800  226.0090 C   0  0  0  0  0  0  0  0  0  0  0  0
  139.2430   69.2550  224.9790 C   0  0  0  0  0  0  0  0  0  0  0  0
  138.7266   68.3093  225.2005 H   0  0  0  0  0  0  0  0  0  0  0  0
  139.2950   69.7330  223.6680 C   0  0  0  0  0  0  0  0  0  0  0  0
  138.8395   69.1535  222.8515 H   0  0  0  0  0  0  0  0  0  0  0  0
  140.5940   75.8430  221.3570 N   0  0  0  0  0  0  0  0  0  0  0  0
  141.3220   76.2720  220.1770 C   0  0  0  0  0  0  0  0  0  0  0  0
  142.3057   75.7817  220.1340 H   0  0  0  0  0  0  0  0  0  0  0  0
  140.7885   76.0070  219.2523 H   0  0  0  0  0  0  0  0  0  0  0  0
  141.4860   77.7800  220.3190 C   0  0  0  0  0  0  0  0  0  0  0  0
  142.5140   78.0776  220.0648 H   0  0  0  0  0  0  0  0  0  0  0  0
  140.8105   78.3227  219.6414 H   0  0  0  0  0  0  0  0  0  0  0  0
  141.1870   78.1040  221.7810 C   0  0  0  0  0  0  0  0  0  0  0  0
  142.1238   78.2367  222.3421 H   0  0  0  0  0  0  0  0  0  0  0  0
  140.6134   79.0377  221.8769 H   0  0  0  0  0  0  0  0  0  0  0  0
  140.4040   76.9070  222.3290 C   0  0  1  0  0  0  0  0  0  0  0  0
  140.7627   76.6252  223.3300 H   0  0  0  0  0  0  0  0  0  0  0  0
  138.9410   77.2230  222.4870 C   0  0  0  0  0  0  0  0  0  0  0  0
  138.5360   78.3930  222.2550 O   0  0  0  0  0  0  0  0  0  0  0  0
  138.0110   76.2030  222.8760 N   0  0  0  0  0  0  0  0  0  0  0  0
  138.3660   75.2500  223.1120 H   0  0  0  0  0  0  0  0  0  0  0  0
  136.5690   76.4290  222.9160 C   0  0  0  0  0  0  0  0  0  0  0  0
  136.3688   77.4200  223.3494 H   0  0  0  0  0  0  0  0  0  0  0  0
  136.1702   76.3781  221.8921 H   0  0  0  0  0  0  0  0  0  0  0  0
  135.8990   75.3760  223.7550 C   0  0  0  0  0  0  0  0  0  0  0  0
  135.0770   75.7530  224.8290 C   0  0  0  0  0  0  0  0  0  0  0  0
  134.9204   76.8188  225.0516 H   0  0  0  0  0  0  0  0  0  0  0  0
  134.4580   74.7800  225.6150 C   0  0  0  0  0  0  0  0  0  0  0  0
  133.8341   75.0819  226.4692 H   0  0  0  0  0  0  0  0  0  0  0  0
  134.6270   73.4230  225.3220 C   0  0  0  0  0  0  0  0  0  0  0  0
  133.8170   72.2310  226.3290 Cl  0  0  0  0  0  0  0  0  0  0  0  0
  135.4410   73.0370  224.2430 C   0  0  0  0  0  0  0  0  0  0  0  0
  135.6870   71.3440  223.8470 Cl  0  0  0  0  0  0  0  0  0  0  0  0
  136.0740   74.0130  223.4650 C   0  0  0  0  0  0  0  0  0  0  0  0
  136.7122   73.7109  222.6216 H   0  0  0  0  0  0  0  0  0  0  0  0
  1  2  1  0
  2  3  1  0
  3  4  2  0
  4  5  1  0
  4  6  1  0
  6  7  1  0
  7  8  2  0
  7  9  1  0
  9 10  2  0
 10 11  1  0
 11 12  2  0
 12 13  1  0
 12 14  1  0
 14 15  1  0
 14 16  2  0
 16 17  1  0
 16 18  1  0
 18 19  1  0
 18 20  2  0
 20 21  1  0
 21 22  1  0
 21 23  2  0
 23 24  1  0
  3 25  1  0
 25 26  1  0
 26 27  1  0
 26 28  1  0
 26 29  1  0
 29 30  1  0
 29 31  1  0
 29 32  1  0
 32 33  1  0
 32 34  1  0
 32 35  1  0
 35 36  1  1
 35 37  1  0
 37 38  2  0
 37 39  1  0
 39 40  1  0
 39 41  1  0
 41 42  1  0
 41 43  1  0
 41 44  1  0
 44 45  2  0
 45 46  1  0
 45 47  1  0
 47 48  1  0
 47 49  2  0
 49 50  1  0
 49 51  1  0
 51 52  1  0
 51 53  2  0
 53 54  1  0
 23  9  1  0
 35 25  1  0
 53 44  1  0
 20 11  1  0
M  CHG  1   6  -1
M  END
>  <UniqueID>  (67) 
160

>  <SMILES>  (67) 
O=C([N-]/C=C(\O)N1CCC[C@H]1C(=O)NCc1ccc(Cl)c(Cl)c1)c1ccc2ccccc2n1

>  <Energy>  (67) 
60.46657357215822

>  <Genealogy>  (67) 
O=C([N-]CC(=O)N1CCC[C@H]1C(=O)NCc1ccc(Cl)c(Cl)c1)c1ccc2ccccc2n1 (protonated)
O=C([N-]C=C(O)N1CCC[C@H]1C(=O)NCc1ccc(Cl)c(Cl)c1)c1ccc2ccccc2n1 (tautomer)
O=C([N-]/C=C(\O)N1CCC[C@H]1C(=O)NCc1ccc(Cl)c(Cl)c1)c1ccc2ccccc2n1 (cis-trans isomerization)
O=C([N-]/C=C(\O)N1CCC[C@H]1C(=O)NCc1ccc(Cl)c(Cl)c1)c1ccc2ccccc2n1 (3D coordinates assigned)
O=C([N-]/C=C(\O)N1CCC[C@H]1C(=O)NCc1ccc(Cl)c(Cl)c1)c1ccc2ccccc2n1 (nonaromatic ring conformer: 60.46657357215822 kcal/mol)

>  <smiles>  (67) 
O=C(NCC(=O)N1CCC[C@H]1C(=O)NCc1ccc(Cl)c(Cl)c1)c1ccc2ccccc2n1

>  <score_type>  (67) 
oracle

>  <origin>  (67) 
autodockgpu

>  <m_score__min__energy>  (67) 
-8.7400000000000002

>  <m_primary>  (67) 
energy

>  <meeko>  (67) 
{"free_energy": -8.41, "intermolecular_energy": -11.09, "internal_energy": -3.7, "cluster_size": 5, "cluster_id": 1, "rank_in_cluster": 3}

>  <energy>  (67) 
-8.48

>  <cluster_rmsd>  (67) 
0.0

>  <rmsd>  (67) 
271.01

>  <cluster>  (67) 
3

$$$$
NTBKPXNOUBMHTF-CKGUNICPNA-M
     RDKit          3D

 54 57  0  0  0  0  0  0  0  0999 V2000
  139.5100   73.2990  219.5110 H   0  0  0  0  0  0  0  0  0  0  0  0
  140.3840   72.7870  219.5630 O   0  0  0  0  0  0  0  0  0  0  0  0
  141.2770   73.0030  220.6100 C   0  0  0  0  0  0  0  0  0  0  0  0
  140.8350   73.0280  221.8660 C   0  0  0  0  0  0  0  0  0  0  0  0
  141.0451   72.1843  222.5398 H   0  0  0  0  0  0  0  0  0  0  0  0
  140.0870   74.1520  222.3390 N   0  0  0  0  0  0  0  0  0  0  0  0
  139.7720   75.3130  221.5610 C   0  0  0  0  0  0  0  0  0  0  0  0
  139.4330   75.1510  220.3580 O   0  0  0  0  0  0  0  0  0  0  0  0
  139.8830   76.6910  222.0930 C   0  0  0  0  0  0  0  0  0  0  0  0
  141.1100   77.2810  222.1260 N   0  0  0  0  0  0  0  0  0  0  0  0
  141.3080   78.5170  222.6540 C   0  0  0  0  0  0  0  0  0  0  0  0
  142.5870   79.0890  222.6470 C   0  0  0  0  0  0  0  0  0  0  0  0
  143.4361   78.5336  222.2221 H   0  0  0  0  0  0  0  0  0  0  0  0
  142.7830   80.3650  223.1800 C   0  0  0  0  0  0  0  0  0  0  0  0
  143.7871   80.8141  223.1710 H   0  0  0  0  0  0  0  0  0  0  0  0
  141.7080   81.0740  223.7250 C   0  0  0  0  0  0  0  0  0  0  0  0
  141.8702   82.0770  224.1465 H   0  0  0  0  0  0  0  0  0  0  0  0
  140.4270   80.5120  223.7360 C   0  0  0  0  0  0  0  0  0  0  0  0
  139.5832   81.0727  224.1646 H   0  0  0  0  0  0  0  0  0  0  0  0
  140.2200   79.2330  223.2000 C   0  0  0  0  0  0  0  0  0  0  0  0
  138.9520   78.6450  223.1900 C   0  0  0  0  0  0  0  0  0  0  0  0
  138.0898   79.1870  223.6058 H   0  0  0  0  0  0  0  0  0  0  0  0
  138.7820   77.3680  222.6510 C   0  0  0  0  0  0  0  0  0  0  0  0
  137.7903   76.8923  222.6624 H   0  0  0  0  0  0  0  0  0  0  0  0
  142.6640   73.2190  220.3270 N   0  0  0  0  0  0  0  0  0  0  0  0
  143.5570   72.1210  220.0060 C   0  0  0  0  0  0  0  0  0  0  0  0
  143.4393   71.3056  220.7349 H   0  0  0  0  0  0  0  0  0  0  0  0
  143.3416   71.7003  219.0127 H   0  0  0  0  0  0  0  0  0  0  0  0
  144.9640   72.6980  220.0780 C   0  0  0  0  0  0  0  0  0  0  0  0
  145.6310   72.0109  220.6193 H   0  0  0  0  0  0  0  0  0  0  0  0
  145.3896   72.8449  219.0744 H   0  0  0  0  0  0  0  0  0  0  0  0
  144.8420   74.0210  220.8310 C   0  0  0  0  0  0  0  0  0  0  0  0
  145.1486   73.8931  221.8796 H   0  0  0  0  0  0  0  0  0  0  0  0
  145.4900   74.7941  220.3924 H   0  0  0  0  0  0  0  0  0  0  0  0
  143.3660   74.4190  220.7540 C   0  0  1  0  0  0  0  0  0  0  0  0
  143.0062   74.7896  221.7252 H   0  0  0  0  0  0  0  0  0  0  0  0
  143.1400   75.5380  219.7740 C   0  0  0  0  0  0  0  0  0  0  0  0
  144.0210   76.4290  219.6440 O   0  0  0  0  0  0  0  0  0  0  0  0
  141.9470   75.5850  218.9790 N   0  0  0  0  0  0  0  0  0  0  0  0
  141.2030   74.8680  219.1310 H   0  0  0  0  0  0  0  0  0  0  0  0
  141.7420   76.5760  217.9260 C   0  0  0  0  0  0  0  0  0  0  0  0
  142.6497   76.6417  217.3081 H   0  0  0  0  0  0  0  0  0  0  0  0
  140.8860   76.2684  217.3075 H   0  0  0  0  0  0  0  0  0  0  0  0
  141.4520   77.9240  218.5260 C   0  0  0  0  0  0  0  0  0  0  0  0
  142.4650   78.8930  218.5990 C   0  0  0  0  0  0  0  0  0  0  0  0
  143.4696   78.6660  218.2126 H   0  0  0  0  0  0  0  0  0  0  0  0
  142.2020   80.1430  219.1600 C   0  0  0  0  0  0  0  0  0  0  0  0
  143.0062   80.8899  219.2336 H   0  0  0  0  0  0  0  0  0  0  0  0
  140.9220   80.4510  219.6290 C   0  0  0  0  0  0  0  0  0  0  0  0
  140.6300   82.0440  220.3150 Cl  0  0  0  0  0  0  0  0  0  0  0  0
  139.8980   79.4900  219.5520 C   0  0  0  0  0  0  0  0  0  0  0  0
  138.2790   79.8340  220.1370 Cl  0  0  0  0  0  0  0  0  0  0  0  0
  140.1670   78.2310  219.0030 C   0  0  0  0  0  0  0  0  0  0  0  0
  139.3676   77.4776  218.9447 H   0  0  0  0  0  0  0  0  0  0  0  0
  1  2  1  0
  2  3  1  0
  3  4  2  0
  4  5  1  0
  4  6  1  0
  6  7  1  0
  7  8  2  0
  7  9  1  0
  9 10  2  0
 10 11  1  0
 11 12  2  0
 12 13  1  0
 12 14  1  0
 14 15  1  0
 14 16  2  0
 16 17  1  0
 16 18  1  0
 18 19  1  0
 18 20  2  0
 20 21  1  0
 21 22  1  0
 21 23  2  0
 23 24  1  0
  3 25  1  0
 25 26  1  0
 26 27  1  0
 26 28  1  0
 26 29  1  0
 29 30  1  0
 29 31  1  0
 29 32  1  0
 32 33  1  0
 32 34  1  0
 32 35  1  0
 35 36  1  1
 35 37  1  0
 37 38  2  0
 37 39  1  0
 39 40  1  0
 39 41  1  0
 41 42  1  0
 41 43  1  0
 41 44  1  0
 44 45  2  0
 45 46  1  0
 45 47  1  0
 47 48  1  0
 47 49  2  0
 49 50  1  0
 49 51  1  0
 51 52  1  0
 51 53  2  0
 53 54  1  0
 23  9  1  0
 35 25  1  0
 53 44  1  0
 20 11  1  0
M  CHG  1   6  -1
M  END
>  <UniqueID>  (68) 
160

>  <SMILES>  (68) 
O=C([N-]/C=C(\O)N1CCC[C@H]1C(=O)NCc1ccc(Cl)c(Cl)c1)c1ccc2ccccc2n1

>  <Energy>  (68) 
60.46657357215822

>  <Genealogy>  (68) 
O=C([N-]CC(=O)N1CCC[C@H]1C(=O)NCc1ccc(Cl)c(Cl)c1)c1ccc2ccccc2n1 (protonated)
O=C([N-]C=C(O)N1CCC[C@H]1C(=O)NCc1ccc(Cl)c(Cl)c1)c1ccc2ccccc2n1 (tautomer)
O=C([N-]/C=C(\O)N1CCC[C@H]1C(=O)NCc1ccc(Cl)c(Cl)c1)c1ccc2ccccc2n1 (cis-trans isomerization)
O=C([N-]/C=C(\O)N1CCC[C@H]1C(=O)NCc1ccc(Cl)c(Cl)c1)c1ccc2ccccc2n1 (3D coordinates assigned)
O=C([N-]/C=C(\O)N1CCC[C@H]1C(=O)NCc1ccc(Cl)c(Cl)c1)c1ccc2ccccc2n1 (nonaromatic ring conformer: 60.46657357215822 kcal/mol)

>  <smiles>  (68) 
O=C(NCC(=O)N1CCC[C@H]1C(=O)NCc1ccc(Cl)c(Cl)c1)c1ccc2ccccc2n1

>  <score_type>  (68) 
oracle

>  <origin>  (68) 
autodockgpu

>  <m_score__min__energy>  (68) 
-8.7400000000000002

>  <m_primary>  (68) 
energy

>  <meeko>  (68) 
{"free_energy": -6.12, "intermolecular_energy": -8.81, "internal_energy": -6.03, "cluster_size": 12, "cluster_id": 5, "rank_in_cluster": 10}

>  <energy>  (68) 
-8.11

>  <cluster_rmsd>  (68) 
0.0

>  <rmsd>  (68) 
271.63

>  <cluster>  (68) 
4

$$$$
NTBKPXNOUBMHTF-CKGUNICPNA-M
     RDKit          3D

 54 57  0  0  0  0  0  0  0  0999 V2000
  138.4220   75.5490  223.0560 H   0  0  0  0  0  0  0  0  0  0  0  0
  137.4180   75.5170  222.9240 O   0  0  0  0  0  0  0  0  0  0  0  0
  136.8330   74.5420  222.1190 C   0  0  0  0  0  0  0  0  0  0  0  0
  137.2570   74.3700  220.8690 C   0  0  0  0  0  0  0  0  0  0  0  0
  136.5534   74.0418  220.0898 H   0  0  0  0  0  0  0  0  0  0  0  0
  138.6280   74.6120  220.5390 N   0  0  0  0  0  0  0  0  0  0  0  0
  139.6700   74.8530  221.4910 C   0  0  0  0  0  0  0  0  0  0  0  0
  139.9370   73.9470  222.3270 O   0  0  0  0  0  0  0  0  0  0  0  0
  140.4040   76.1370  221.5720 C   0  0  0  0  0  0  0  0  0  0  0  0
  140.0860   77.0080  222.5690 N   0  0  0  0  0  0  0  0  0  0  0  0
  140.6670   78.2320  222.6780 C   0  0  0  0  0  0  0  0  0  0  0  0
  140.3190   79.0850  223.7330 C   0  0  0  0  0  0  0  0  0  0  0  0
  139.5662   78.7697  224.4704 H   0  0  0  0  0  0  0  0  0  0  0  0
  140.9290   80.3370  223.8480 C   0  0  0  0  0  0  0  0  0  0  0  0
  140.6574   81.0048  224.6788 H   0  0  0  0  0  0  0  0  0  0  0  0
  141.8840   80.7440  222.9100 C   0  0  0  0  0  0  0  0  0  0  0  0
  142.3574   81.7325  223.0036 H   0  0  0  0  0  0  0  0  0  0  0  0
  142.2390   79.8990  221.8540 C   0  0  0  0  0  0  0  0  0  0  0  0
  142.9910   80.2221  221.1191 H   0  0  0  0  0  0  0  0  0  0  0  0
  141.6350   78.6390  221.7330 C   0  0  0  0  0  0  0  0  0  0  0  0
  141.9700   77.7680  220.6930 C   0  0  0  0  0  0  0  0  0  0  0  0
  142.7234   78.0636  219.9480 H   0  0  0  0  0  0  0  0  0  0  0  0
  141.3470   76.5220  220.6010 C   0  0  0  0  0  0  0  0  0  0  0  0
  141.5927   75.8428  219.7714 H   0  0  0  0  0  0  0  0  0  0  0  0
  135.7620   73.7440  222.6360 N   0  0  0  0  0  0  0  0  0  0  0  0
  134.4110   73.8490  222.1130 C   0  0  0  0  0  0  0  0  0  0  0  0
  134.1044   74.9036  222.0514 H   0  0  0  0  0  0  0  0  0  0  0  0
  134.3347   73.4311  221.0984 H   0  0  0  0  0  0  0  0  0  0  0  0
  133.5280   73.0960  223.0990 C   0  0  0  0  0  0  0  0  0  0  0  0
  132.6182   73.6751  223.3154 H   0  0  0  0  0  0  0  0  0  0  0  0
  133.2100   72.1249  222.6917 H   0  0  0  0  0  0  0  0  0  0  0  0
  134.3590   72.9220  224.3680 C   0  0  0  0  0  0  0  0  0  0  0  0
  134.0689   73.6704  225.1202 H   0  0  0  0  0  0  0  0  0  0  0  0
  134.2042   71.9300  224.8175 H   0  0  0  0  0  0  0  0  0  0  0  0
  135.8180   73.1260  223.9500 C   0  0  1  0  0  0  0  0  0  0  0  0
  136.3541   73.7498  224.6804 H   0  0  0  0  0  0  0  0  0  0  0  0
  136.5670   71.8220  223.8880 C   0  0  0  0  0  0  0  0  0  0  0  0
  135.9990   70.7660  224.2750 O   0  0  0  0  0  0  0  0  0  0  0  0
  137.9050   71.7710  223.3750 N   0  0  0  0  0  0  0  0  0  0  0  0
  138.3830   72.6590  223.1020 H   0  0  0  0  0  0  0  0  0  0  0  0
  138.6240   70.5150  223.1750 C   0  0  0  0  0  0  0  0  0  0  0  0
  137.9291   69.7578  222.7828 H   0  0  0  0  0  0  0  0  0  0  0  0
  139.4430   70.6820  222.4599 H   0  0  0  0  0  0  0  0  0  0  0  0
  139.2020   70.0310  224.4750 C   0  0  0  0  0  0  0  0  0  0  0  0
  139.1670   68.6650  224.7940 C   0  0  0  0  0  0  0  0  0  0  0  0
  138.7192   67.9491  224.0890 H   0  0  0  0  0  0  0  0  0  0  0  0
  139.6980   68.2110  226.0020 C   0  0  0  0  0  0  0  0  0  0  0  0
  139.6475   67.1416  226.2546 H   0  0  0  0  0  0  0  0  0  0  0  0
  140.2940   69.1090  226.8930 C   0  0  0  0  0  0  0  0  0  0  0  0
  140.9630   68.4920  228.3980 Cl  0  0  0  0  0  0  0  0  0  0  0  0
  140.3430   70.4780  226.5780 C   0  0  0  0  0  0  0  0  0  0  0  0
  141.0750   71.6400  227.6720 Cl  0  0  0  0  0  0  0  0  0  0  0  0
  139.7960   70.9340  225.3720 C   0  0  0  0  0  0  0  0  0  0  0  0
  139.8318   72.0055  225.1259 H   0  0  0  0  0  0  0  0  0  0  0  0
  1  2  1  0
  2  3  1  0
  3  4  2  0
  4  5  1  0
  4  6  1  0
  6  7  1  0
  7  8  2  0
  7  9  1  0
  9 10  2  0
 10 11  1  0
 11 12  2  0
 12 13  1  0
 12 14  1  0
 14 15  1  0
 14 16  2  0
 16 17  1  0
 16 18  1  0
 18 19  1  0
 18 20  2  0
 20 21  1  0
 21 22  1  0
 21 23  2  0
 23 24  1  0
  3 25  1  0
 25 26  1  0
 26 27  1  0
 26 28  1  0
 26 29  1  0
 29 30  1  0
 29 31  1  0
 29 32  1  0
 32 33  1  0
 32 34  1  0
 32 35  1  0
 35 36  1  1
 35 37  1  0
 37 38  2  0
 37 39  1  0
 39 40  1  0
 39 41  1  0
 41 42  1  0
 41 43  1  0
 41 44  1  0
 44 45  2  0
 45 46  1  0
 45 47  1  0
 47 48  1  0
 47 49  2  0
 49 50  1  0
 49 51  1  0
 51 52  1  0
 51 53  2  0
 53 54  1  0
 23  9  1  0
 35 25  1  0
 53 44  1  0
 20 11  1  0
M  CHG  1   6  -1
M  END
>  <UniqueID>  (69) 
160

>  <SMILES>  (69) 
O=C([N-]/C=C(\O)N1CCC[C@H]1C(=O)NCc1ccc(Cl)c(Cl)c1)c1ccc2ccccc2n1

>  <Energy>  (69) 
60.46657357215822

>  <Genealogy>  (69) 
O=C([N-]CC(=O)N1CCC[C@H]1C(=O)NCc1ccc(Cl)c(Cl)c1)c1ccc2ccccc2n1 (protonated)
O=C([N-]C=C(O)N1CCC[C@H]1C(=O)NCc1ccc(Cl)c(Cl)c1)c1ccc2ccccc2n1 (tautomer)
O=C([N-]/C=C(\O)N1CCC[C@H]1C(=O)NCc1ccc(Cl)c(Cl)c1)c1ccc2ccccc2n1 (cis-trans isomerization)
O=C([N-]/C=C(\O)N1CCC[C@H]1C(=O)NCc1ccc(Cl)c(Cl)c1)c1ccc2ccccc2n1 (3D coordinates assigned)
O=C([N-]/C=C(\O)N1CCC[C@H]1C(=O)NCc1ccc(Cl)c(Cl)c1)c1ccc2ccccc2n1 (nonaromatic ring conformer: 60.46657357215822 kcal/mol)

>  <smiles>  (69) 
O=C(NCC(=O)N1CCC[C@H]1C(=O)NCc1ccc(Cl)c(Cl)c1)c1ccc2ccccc2n1

>  <score_type>  (69) 
oracle

>  <origin>  (69) 
autodockgpu

>  <m_score__min__energy>  (69) 
-8.7400000000000002

>  <m_primary>  (69) 
energy

>  <meeko>  (69) 
{"free_energy": -8.48, "intermolecular_energy": -11.17, "internal_energy": -3.63, "cluster_size": 1, "cluster_id": 3, "rank_in_cluster": 1}

>  <energy>  (69) 
-6.42

>  <cluster_rmsd>  (69) 
0.0

>  <rmsd>  (69) 
271.22

>  <cluster>  (69) 
5

$$$$
NTBKPXNOUBMHTF-CKGUNICPNA-M
     RDKit          3D

 54 57  0  0  0  0  0  0  0  0999 V2000
  139.2300   73.0290  222.8870 H   0  0  0  0  0  0  0  0  0  0  0  0
  139.9110   73.7610  222.7160 O   0  0  0  0  0  0  0  0  0  0  0  0
  140.5570   73.8620  221.4860 C   0  0  0  0  0  0  0  0  0  0  0  0
  141.0230   72.7680  220.8880 C   0  0  0  0  0  0  0  0  0  0  0  0
  141.8888   72.8369  220.2129 H   0  0  0  0  0  0  0  0  0  0  0  0
  140.3980   71.5020  221.1230 N   0  0  0  0  0  0  0  0  0  0  0  0
  139.2760   71.2910  221.9870 C   0  0  0  0  0  0  0  0  0  0  0  0
  138.1330   71.6300  221.5750 O   0  0  0  0  0  0  0  0  0  0  0  0
  139.4080   70.7470  223.3580 C   0  0  0  0  0  0  0  0  0  0  0  0
  139.9840   71.5260  224.3160 N   0  0  0  0  0  0  0  0  0  0  0  0
  140.1990   71.0810  225.5820 C   0  0  0  0  0  0  0  0  0  0  0  0
  140.7780   71.9260  226.5360 C   0  0  0  0  0  0  0  0  0  0  0  0
  141.0692   72.9501  226.2595 H   0  0  0  0  0  0  0  0  0  0  0  0
  140.9860   71.4680  227.8400 C   0  0  0  0  0  0  0  0  0  0  0  0
  141.4381   72.1342  228.5895 H   0  0  0  0  0  0  0  0  0  0  0  0
  140.6210   70.1650  228.1950 C   0  0  0  0  0  0  0  0  0  0  0  0
  140.7908   69.8087  229.2217 H   0  0  0  0  0  0  0  0  0  0  0  0
  140.0410   69.3140  227.2490 C   0  0  0  0  0  0  0  0  0  0  0  0
  139.7536   68.2907  227.5322 H   0  0  0  0  0  0  0  0  0  0  0  0
  139.8260   69.7660  225.9390 C   0  0  0  0  0  0  0  0  0  0  0  0
  139.2440   68.9430  224.9720 C   0  0  0  0  0  0  0  0  0  0  0  0
  138.9415   67.9175  225.2306 H   0  0  0  0  0  0  0  0  0  0  0  0
  139.0470   69.4250  223.6760 C   0  0  0  0  0  0  0  0  0  0  0  0
  138.6105   68.7723  222.9056 H   0  0  0  0  0  0  0  0  0  0  0  0
  140.7360   75.1480  220.8820 N   0  0  0  0  0  0  0  0  0  0  0  0
  141.4510   75.3100  219.6290 C   0  0  0  0  0  0  0  0  0  0  0  0
  142.4074   74.7675  219.6604 H   0  0  0  0  0  0  0  0  0  0  0  0
  140.8788   74.9071  218.7803 H   0  0  0  0  0  0  0  0  0  0  0  0
  141.6940   76.8060  219.4830 C   0  0  0  0  0  0  0  0  0  0  0  0
  142.7278   76.9946  219.1581 H   0  0  0  0  0  0  0  0  0  0  0  0
  141.0271   77.2491  218.7287 H   0  0  0  0  0  0  0  0  0  0  0  0
  141.4540   77.4120  220.8630 C   0  0  0  0  0  0  0  0  0  0  0  0
  142.4122   77.5958  221.3710 H   0  0  0  0  0  0  0  0  0  0  0  0
  140.9304   78.3768  220.7924 H   0  0  0  0  0  0  0  0  0  0  0  0
  140.6290   76.3840  221.6410 C   0  0  1  0  0  0  0  0  0  0  0  0
  141.0028   76.2752  222.6698 H   0  0  0  0  0  0  0  0  0  0  0  0
  139.1890   76.8030  221.7650 C   0  0  0  0  0  0  0  0  0  0  0  0
  138.7800   77.8000  221.1130 O   0  0  0  0  0  0  0  0  0  0  0  0
  138.2830   76.0680  222.5980 N   0  0  0  0  0  0  0  0  0  0  0  0
  138.6440   75.2720  223.1710 H   0  0  0  0  0  0  0  0  0  0  0  0
  136.8520   76.3560  222.6500 C   0  0  0  0  0  0  0  0  0  0  0  0
  136.6982   77.3508  223.0935 H   0  0  0  0  0  0  0  0  0  0  0  0
  136.4452   76.3312  221.6283 H   0  0  0  0  0  0  0  0  0  0  0  0
  136.1410   75.3260  223.4840 C   0  0  0  0  0  0  0  0  0  0  0  0
  135.3820   75.7260  224.5950 C   0  0  0  0  0  0  0  0  0  0  0  0
  135.3048   76.7929  224.8515 H   0  0  0  0  0  0  0  0  0  0  0  0
  134.7250   74.7730  225.3750 C   0  0  0  0  0  0  0  0  0  0  0  0
  134.1498   75.0905  226.2573 H   0  0  0  0  0  0  0  0  0  0  0  0
  134.7940   73.4170  225.0410 C   0  0  0  0  0  0  0  0  0  0  0  0
  133.9390   72.2520  226.0430 Cl  0  0  0  0  0  0  0  0  0  0  0  0
  135.5450   73.0090  223.9250 C   0  0  0  0  0  0  0  0  0  0  0  0
  135.6650   71.3150  223.4760 Cl  0  0  0  0  0  0  0  0  0  0  0  0
  136.2160   73.9640  223.1510 C   0  0  0  0  0  0  0  0  0  0  0  0
  136.8046   73.6456  222.2780 H   0  0  0  0  0  0  0  0  0  0  0  0
  1  2  1  0
  2  3  1  0
  3  4  2  0
  4  5  1  0
  4  6  1  0
  6  7  1  0
  7  8  2  0
  7  9  1  0
  9 10  2  0
 10 11  1  0
 11 12  2  0
 12 13  1  0
 12 14  1  0
 14 15  1  0
 14 16  2  0
 16 17  1  0
 16 18  1  0
 18 19  1  0
 18 20  2  0
 20 21  1  0
 21 22  1  0
 21 23  2  0
 23 24  1  0
  3 25  1  0
 25 26  1  0
 26 27  1  0
 26 28  1  0
 26 29  1  0
 29 30  1  0
 29 31  1  0
 29 32  1  0
 32 33  1  0
 32 34  1  0
 32 35  1  0
 35 36  1  1
 35 37  1  0
 37 38  2  0
 37 39  1  0
 39 40  1  0
 39 41  1  0
 41 42  1  0
 41 43  1  0
 41 44  1  0
 44 45  2  0
 45 46  1  0
 45 47  1  0
 47 48  1  0
 47 49  2  0
 49 50  1  0
 49 51  1  0
 51 52  1  0
 51 53  2  0
 53 54  1  0
 23  9  1  0
 35 25  1  0
 53 44  1  0
 20 11  1  0
M  CHG  1   6  -1
M  END
>  <UniqueID>  (70) 
160

>  <SMILES>  (70) 
O=C([N-]/C=C(\O)N1CCC[C@H]1C(=O)NCc1ccc(Cl)c(Cl)c1)c1ccc2ccccc2n1

>  <Energy>  (70) 
60.46657357215822

>  <Genealogy>  (70) 
O=C([N-]CC(=O)N1CCC[C@H]1C(=O)NCc1ccc(Cl)c(Cl)c1)c1ccc2ccccc2n1 (protonated)
O=C([N-]C=C(O)N1CCC[C@H]1C(=O)NCc1ccc(Cl)c(Cl)c1)c1ccc2ccccc2n1 (tautomer)
O=C([N-]/C=C(\O)N1CCC[C@H]1C(=O)NCc1ccc(Cl)c(Cl)c1)c1ccc2ccccc2n1 (cis-trans isomerization)
O=C([N-]/C=C(\O)N1CCC[C@H]1C(=O)NCc1ccc(Cl)c(Cl)c1)c1ccc2ccccc2n1 (3D coordinates assigned)
O=C([N-]/C=C(\O)N1CCC[C@H]1C(=O)NCc1ccc(Cl)c(Cl)c1)c1ccc2ccccc2n1 (nonaromatic ring conformer: 60.46657357215822 kcal/mol)

>  <smiles>  (70) 
O=C(NCC(=O)N1CCC[C@H]1C(=O)NCc1ccc(Cl)c(Cl)c1)c1ccc2ccccc2n1

>  <score_type>  (70) 
oracle

>  <origin>  (70) 
autodockgpu

>  <m_score__min__energy>  (70) 
-8.7400000000000002

>  <m_primary>  (70) 
energy

>  <meeko>  (70) 
{"free_energy": -7.94, "intermolecular_energy": -10.63, "internal_energy": -3.98, "cluster_size": 5, "cluster_id": 1, "rank_in_cluster": 5}

>  <energy>  (70) 
-6.42

>  <cluster_rmsd>  (70) 
0.06

>  <rmsd>  (70) 
271.2

>  <cluster>  (70) 
5

$$$$
NTBKPXNOUBMHTF-CKGUNICPNA-M
     RDKit          3D

 54 57  0  0  0  0  0  0  0  0999 V2000
  138.9330   74.2710  222.7890 H   0  0  0  0  0  0  0  0  0  0  0  0
  139.7700   73.9130  222.3430 O   0  0  0  0  0  0  0  0  0  0  0  0
  140.1230   74.3180  221.0570 C   0  0  0  0  0  0  0  0  0  0  0  0
  139.2310   74.9370  220.2870 C   0  0  0  0  0  0  0  0  0  0  0  0
  139.0804   74.6097  219.2477 H   0  0  0  0  0  0  0  0  0  0  0  0
  138.4680   76.0280  220.8110 N   0  0  0  0  0  0  0  0  0  0  0  0
  138.5080   76.4770  222.1700 C   0  0  0  0  0  0  0  0  0  0  0  0
  137.9170   75.7870  223.0450 O   0  0  0  0  0  0  0  0  0  0  0  0
  139.1620   77.7410  222.5800 C   0  0  0  0  0  0  0  0  0  0  0  0
  140.5130   77.8490  222.4470 N   0  0  0  0  0  0  0  0  0  0  0  0
  141.1980   78.9490  222.8570 C   0  0  0  0  0  0  0  0  0  0  0  0
  142.5860   79.0200  222.6810 C   0  0  0  0  0  0  0  0  0  0  0  0
  143.1261   78.1800  222.2197 H   0  0  0  0  0  0  0  0  0  0  0  0
  143.2840   80.1590  223.0920 C   0  0  0  0  0  0  0  0  0  0  0  0
  144.3735   80.2148  222.9509 H   0  0  0  0  0  0  0  0  0  0  0  0
  142.6020   81.2280  223.6820 C   0  0  0  0  0  0  0  0  0  0  0  0
  143.1576   82.1202  224.0066 H   0  0  0  0  0  0  0  0  0  0  0  0
  141.2160   81.1670  223.8610 C   0  0  0  0  0  0  0  0  0  0  0  0
  140.6828   82.0100  224.3248 H   0  0  0  0  0  0  0  0  0  0  0  0
  140.5070   80.0290  223.4480 C   0  0  0  0  0  0  0  0  0  0  0  0
  139.1220   79.9390  223.6070 C   0  0  0  0  0  0  0  0  0  0  0  0
  138.5641   80.7712  224.0612 H   0  0  0  0  0  0  0  0  0  0  0  0
  138.4470   78.7900  223.1880 C   0  0  0  0  0  0  0  0  0  0  0  0
  137.3599   78.7052  223.3328 H   0  0  0  0  0  0  0  0  0  0  0  0
  141.4390   74.0450  220.5630 N   0  0  0  0  0  0  0  0  0  0  0  0
  141.8430   72.7080  220.1660 C   0  0  0  0  0  0  0  0  0  0  0  0
  141.5677   71.9781  220.9415 H   0  0  0  0  0  0  0  0  0  0  0  0
  141.3469   72.3937  219.2359 H   0  0  0  0  0  0  0  0  0  0  0  0
  143.3560   72.7650  220.0040 C   0  0  0  0  0  0  0  0  0  0  0  0
  143.8232   71.8868  220.4736 H   0  0  0  0  0  0  0  0  0  0  0  0
  143.6460   72.7630  218.9429 H   0  0  0  0  0  0  0  0  0  0  0  0
  143.8110   74.0440  220.7030 C   0  0  0  0  0  0  0  0  0  0  0  0
  144.2138   73.8119  221.6999 H   0  0  0  0  0  0  0  0  0  0  0  0
  144.6081   74.5495  220.1382 H   0  0  0  0  0  0  0  0  0  0  0  0
  142.5650   74.9260  220.8250 C   0  0  1  0  0  0  0  0  0  0  0  0
  142.5068   75.3907  221.8203 H   0  0  0  0  0  0  0  0  0  0  0  0
  142.5870   76.0610  219.8370 C   0  0  0  0  0  0  0  0  0  0  0  0
  143.5760   76.1880  219.0670 O   0  0  0  0  0  0  0  0  0  0  0  0
  141.4890   76.9800  219.7550 N   0  0  0  0  0  0  0  0  0  0  0  0
  140.6980   76.8940  220.4310 H   0  0  0  0  0  0  0  0  0  0  0  0
  141.4060   78.0150  218.7290 C   0  0  0  0  0  0  0  0  0  0  0  0
  142.3795   78.1051  218.2249 H   0  0  0  0  0  0  0  0  0  0  0  0
  140.6293   77.7363  218.0016 H   0  0  0  0  0  0  0  0  0  0  0  0
  141.0440   79.3370  219.3490 C   0  0  0  0  0  0  0  0  0  0  0  0
  142.0410   80.2940  219.5920 C   0  0  0  0  0  0  0  0  0  0  0  0
  143.0858   80.0774  219.3246 H   0  0  0  0  0  0  0  0  0  0  0  0
  141.7110   81.5200  220.1720 C   0  0  0  0  0  0  0  0  0  0  0  0
  142.5005   82.2571  220.3801 H   0  0  0  0  0  0  0  0  0  0  0  0
  140.3810   81.8160  220.4900 C   0  0  0  0  0  0  0  0  0  0  0  0
  140.0070   83.3780  221.2060 Cl  0  0  0  0  0  0  0  0  0  0  0  0
  139.3750   80.8660  220.2400 C   0  0  0  0  0  0  0  0  0  0  0  0
  137.6940   81.1950  220.6310 Cl  0  0  0  0  0  0  0  0  0  0  0  0
  139.7090   79.6310  219.6720 C   0  0  0  0  0  0  0  0  0  0  0  0
  138.9222   78.8872  219.4777 H   0  0  0  0  0  0  0  0  0  0  0  0
  1  2  1  0
  2  3  1  0
  3  4  2  0
  4  5  1  0
  4  6  1  0
  6  7  1  0
  7  8  2  0
  7  9  1  0
  9 10  2  0
 10 11  1  0
 11 12  2  0
 12 13  1  0
 12 14  1  0
 14 15  1  0
 14 16  2  0
 16 17  1  0
 16 18  1  0
 18 19  1  0
 18 20  2  0
 20 21  1  0
 21 22  1  0
 21 23  2  0
 23 24  1  0
  3 25  1  0
 25 26  1  0
 26 27  1  0
 26 28  1  0
 26 29  1  0
 29 30  1  0
 29 31  1  0
 29 32  1  0
 32 33  1  0
 32 34  1  0
 32 35  1  0
 35 36  1  1
 35 37  1  0
 37 38  2  0
 37 39  1  0
 39 40  1  0
 39 41  1  0
 41 42  1  0
 41 43  1  0
 41 44  1  0
 44 45  2  0
 45 46  1  0
 45 47  1  0
 47 48  1  0
 47 49  2  0
 49 50  1  0
 49 51  1  0
 51 52  1  0
 51 53  2  0
 53 54  1  0
 23  9  1  0
 35 25  1  0
 53 44  1  0
 20 11  1  0
M  CHG  1   6  -1
M  END
>  <UniqueID>  (71) 
160

>  <SMILES>  (71) 
O=C([N-]/C=C(\O)N1CCC[C@H]1C(=O)NCc1ccc(Cl)c(Cl)c1)c1ccc2ccccc2n1

>  <Energy>  (71) 
60.46657357215822

>  <Genealogy>  (71) 
O=C([N-]CC(=O)N1CCC[C@H]1C(=O)NCc1ccc(Cl)c(Cl)c1)c1ccc2ccccc2n1 (protonated)
O=C([N-]C=C(O)N1CCC[C@H]1C(=O)NCc1ccc(Cl)c(Cl)c1)c1ccc2ccccc2n1 (tautomer)
O=C([N-]/C=C(\O)N1CCC[C@H]1C(=O)NCc1ccc(Cl)c(Cl)c1)c1ccc2ccccc2n1 (cis-trans isomerization)
O=C([N-]/C=C(\O)N1CCC[C@H]1C(=O)NCc1ccc(Cl)c(Cl)c1)c1ccc2ccccc2n1 (3D coordinates assigned)
O=C([N-]/C=C(\O)N1CCC[C@H]1C(=O)NCc1ccc(Cl)c(Cl)c1)c1ccc2ccccc2n1 (nonaromatic ring conformer: 60.46657357215822 kcal/mol)

>  <smiles>  (71) 
O=C(NCC(=O)N1CCC[C@H]1C(=O)NCc1ccc(Cl)c(Cl)c1)c1ccc2ccccc2n1

>  <score_type>  (71) 
oracle

>  <origin>  (71) 
autodockgpu

>  <m_score__min__energy>  (71) 
-8.7400000000000002

>  <m_primary>  (71) 
energy

>  <meeko>  (71) 
{"free_energy": -6.33, "intermolecular_energy": -9.01, "internal_energy": -5.9, "cluster_size": 12, "cluster_id": 5, "rank_in_cluster": 8}

>  <energy>  (71) 
-6.4

>  <cluster_rmsd>  (71) 
0.09

>  <rmsd>  (71) 
271.2

>  <cluster>  (71) 
5

$$$$
NTBKPXNOUBMHTF-CKGUNICPNA-M
     RDKit          3D

 54 57  0  0  0  0  0  0  0  0999 V2000
  139.0880   74.3050  222.7420 H   0  0  0  0  0  0  0  0  0  0  0  0
  139.9460   73.9870  222.3050 O   0  0  0  0  0  0  0  0  0  0  0  0
  140.2330   74.3040  220.9800 C   0  0  0  0  0  0  0  0  0  0  0  0
  139.2970   74.8550  220.2100 C   0  0  0  0  0  0  0  0  0  0  0  0
  139.0347   74.3921  219.2473 H   0  0  0  0  0  0  0  0  0  0  0  0
  138.6320   76.0490  220.6340 N   0  0  0  0  0  0  0  0  0  0  0  0
  138.5600   76.5080  221.9890 C   0  0  0  0  0  0  0  0  0  0  0  0
  137.8850   75.8340  222.8130 O   0  0  0  0  0  0  0  0  0  0  0  0
  139.1950   77.7660  222.4460 C   0  0  0  0  0  0  0  0  0  0  0  0
  140.5470   77.8920  222.3320 N   0  0  0  0  0  0  0  0  0  0  0  0
  141.2150   78.9870  222.7840 C   0  0  0  0  0  0  0  0  0  0  0  0
  142.6030   79.0780  222.6270 C   0  0  0  0  0  0  0  0  0  0  0  0
  143.1574   78.2583  222.1466 H   0  0  0  0  0  0  0  0  0  0  0  0
  143.2840   80.2110  223.0810 C   0  0  0  0  0  0  0  0  0  0  0  0
  144.3743   80.2829  222.9544 H   0  0  0  0  0  0  0  0  0  0  0  0
  142.5830   81.2540  223.6960 C   0  0  0  0  0  0  0  0  0  0  0  0
  143.1249   82.1413  224.0551 H   0  0  0  0  0  0  0  0  0  0  0  0
  141.1960   81.1730  223.8560 C   0  0  0  0  0  0  0  0  0  0  0  0
  140.6481   81.9957  224.3386 H   0  0  0  0  0  0  0  0  0  0  0  0
  140.5050   80.0410  223.4000 C   0  0  0  0  0  0  0  0  0  0  0  0
  139.1190   79.9300  223.5390 C   0  0  0  0  0  0  0  0  0  0  0  0
  138.5463   80.7414  224.0119 H   0  0  0  0  0  0  0  0  0  0  0  0
  138.4620   78.7880  223.0770 C   0  0  0  0  0  0  0  0  0  0  0  0
  137.3742   78.6875  223.2059 H   0  0  0  0  0  0  0  0  0  0  0  0
  141.5300   74.0150  220.4460 N   0  0  0  0  0  0  0  0  0  0  0  0
  141.8990   72.6770  220.0200 C   0  0  0  0  0  0  0  0  0  0  0  0
  141.6332   71.9415  220.7935 H   0  0  0  0  0  0  0  0  0  0  0  0
  141.3711   72.3841  219.1005 H   0  0  0  0  0  0  0  0  0  0  0  0
  143.4080   72.7100  219.8150 C   0  0  0  0  0  0  0  0  0  0  0  0
  143.8732   71.8177  220.2594 H   0  0  0  0  0  0  0  0  0  0  0  0
  143.6681   72.7170  218.7462 H   0  0  0  0  0  0  0  0  0  0  0  0
  143.9040   73.9720  220.5180 C   0  0  0  0  0  0  0  0  0  0  0  0
  144.3305   73.7195  221.5000 H   0  0  0  0  0  0  0  0  0  0  0  0
  144.6933   74.4718  219.9373 H   0  0  0  0  0  0  0  0  0  0  0  0
  142.6780   74.8730  220.6870 C   0  0  1  0  0  0  0  0  0  0  0  0
  142.6560   75.3251  221.6896 H   0  0  0  0  0  0  0  0  0  0  0  0
  142.6920   76.0210  219.7140 C   0  0  0  0  0  0  0  0  0  0  0  0
  143.6470   76.1260  218.8990 O   0  0  0  0  0  0  0  0  0  0  0  0
  141.6240   76.9780  219.6960 N   0  0  0  0  0  0  0  0  0  0  0  0
  140.8630   76.9090  220.4080 H   0  0  0  0  0  0  0  0  0  0  0  0
  141.5280   78.0300  218.6880 C   0  0  0  0  0  0  0  0  0  0  0  0
  142.5209   78.2014  218.2466 H   0  0  0  0  0  0  0  0  0  0  0  0
  140.8185   77.7153  217.9085 H   0  0  0  0  0  0  0  0  0  0  0  0
  141.0350   79.3070  219.3120 C   0  0  0  0  0  0  0  0  0  0  0  0
  141.9420   80.3340  219.6180 C   0  0  0  0  0  0  0  0  0  0  0  0
  143.0117   80.2047  219.3966 H   0  0  0  0  0  0  0  0  0  0  0  0
  141.4910   81.5180  220.2020 C   0  0  0  0  0  0  0  0  0  0  0  0
  142.2098   82.3097  220.4600 H   0  0  0  0  0  0  0  0  0  0  0  0
  140.1290   81.7030  220.4610 C   0  0  0  0  0  0  0  0  0  0  0  0
  139.6010   83.2170  221.1840 Cl  0  0  0  0  0  0  0  0  0  0  0  0
  139.2120   80.6840  220.1480 C   0  0  0  0  0  0  0  0  0  0  0  0
  137.4950   80.8730  220.4650 Cl  0  0  0  0  0  0  0  0  0  0  0  0
  139.6680   79.4900  219.5770 C   0  0  0  0  0  0  0  0  0  0  0  0
  138.9519   78.6910  219.3346 H   0  0  0  0  0  0  0  0  0  0  0  0
  1  2  1  0
  2  3  1  0
  3  4  2  0
  4  5  1  0
  4  6  1  0
  6  7  1  0
  7  8  2  0
  7  9  1  0
  9 10  2  0
 10 11  1  0
 11 12  2  0
 12 13  1  0
 12 14  1  0
 14 15  1  0
 14 16  2  0
 16 17  1  0
 16 18  1  0
 18 19  1  0
 18 20  2  0
 20 21  1  0
 21 22  1  0
 21 23  2  0
 23 24  1  0
  3 25  1  0
 25 26  1  0
 26 27  1  0
 26 28  1  0
 26 29  1  0
 29 30  1  0
 29 31  1  0
 29 32  1  0
 32 33  1  0
 32 34  1  0
 32 35  1  0
 35 36  1  1
 35 37  1  0
 37 38  2  0
 37 39  1  0
 39 40  1  0
 39 41  1  0
 41 42  1  0
 41 43  1  0
 41 44  1  0
 44 45  2  0
 45 46  1  0
 45 47  1  0
 47 48  1  0
 47 49  2  0
 49 50  1  0
 49 51  1  0
 51 52  1  0
 51 53  2  0
 53 54  1  0
 23  9  1  0
 35 25  1  0
 53 44  1  0
 20 11  1  0
M  CHG  1   6  -1
M  END
>  <UniqueID>  (72) 
160

>  <SMILES>  (72) 
O=C([N-]/C=C(\O)N1CCC[C@H]1C(=O)NCc1ccc(Cl)c(Cl)c1)c1ccc2ccccc2n1

>  <Energy>  (72) 
60.46657357215822

>  <Genealogy>  (72) 
O=C([N-]CC(=O)N1CCC[C@H]1C(=O)NCc1ccc(Cl)c(Cl)c1)c1ccc2ccccc2n1 (protonated)
O=C([N-]C=C(O)N1CCC[C@H]1C(=O)NCc1ccc(Cl)c(Cl)c1)c1ccc2ccccc2n1 (tautomer)
O=C([N-]/C=C(\O)N1CCC[C@H]1C(=O)NCc1ccc(Cl)c(Cl)c1)c1ccc2ccccc2n1 (cis-trans isomerization)
O=C([N-]/C=C(\O)N1CCC[C@H]1C(=O)NCc1ccc(Cl)c(Cl)c1)c1ccc2ccccc2n1 (3D coordinates assigned)
O=C([N-]/C=C(\O)N1CCC[C@H]1C(=O)NCc1ccc(Cl)c(Cl)c1)c1ccc2ccccc2n1 (nonaromatic ring conformer: 60.46657357215822 kcal/mol)

>  <smiles>  (72) 
O=C(NCC(=O)N1CCC[C@H]1C(=O)NCc1ccc(Cl)c(Cl)c1)c1ccc2ccccc2n1

>  <score_type>  (72) 
oracle

>  <origin>  (72) 
autodockgpu

>  <m_score__min__energy>  (72) 
-8.7400000000000002

>  <m_primary>  (72) 
energy

>  <meeko>  (72) 
{"free_energy": -6.4, "intermolecular_energy": -9.09, "internal_energy": -5.92, "cluster_size": 12, "cluster_id": 5, "rank_in_cluster": 4}

>  <energy>  (72) 
-6.4

>  <cluster_rmsd>  (72) 
0.27

>  <rmsd>  (72) 
271.2

>  <cluster>  (72) 
5

$$$$
NTBKPXNOUBMHTF-CKGUNICPNA-M
     RDKit          3D

 54 57  0  0  0  0  0  0  0  0999 V2000
  139.1960   74.1040  222.7900 H   0  0  0  0  0  0  0  0  0  0  0  0
  140.0350   73.7860  222.3170 O   0  0  0  0  0  0  0  0  0  0  0  0
  140.3020   74.1660  221.0040 C   0  0  0  0  0  0  0  0  0  0  0  0
  139.3350   74.6870  220.2520 C   0  0  0  0  0  0  0  0  0  0  0  0
  138.9863   74.1522  219.3562 H   0  0  0  0  0  0  0  0  0  0  0  0
  138.7490   75.9430  220.6090 N   0  0  0  0  0  0  0  0  0  0  0  0
  138.6090   76.4300  221.9480 C   0  0  0  0  0  0  0  0  0  0  0  0
  137.8810   75.7800  222.7470 O   0  0  0  0  0  0  0  0  0  0  0  0
  139.2360   77.6880  222.4160 C   0  0  0  0  0  0  0  0  0  0  0  0
  140.5800   77.8450  222.2590 N   0  0  0  0  0  0  0  0  0  0  0  0
  141.2420   78.9410  222.7160 C   0  0  0  0  0  0  0  0  0  0  0  0
  142.6220   79.0640  222.5140 C   0  0  0  0  0  0  0  0  0  0  0  0
  143.1751   78.2683  221.9935 H   0  0  0  0  0  0  0  0  0  0  0  0
  143.2960   80.1980  222.9740 C   0  0  0  0  0  0  0  0  0  0  0  0
  144.3798   80.2946  222.8128 H   0  0  0  0  0  0  0  0  0  0  0  0
  142.5970   81.2110  223.6390 C   0  0  0  0  0  0  0  0  0  0  0  0
  143.1339   82.0998  224.0021 H   0  0  0  0  0  0  0  0  0  0  0  0
  141.2180   81.0980  223.8440 C   0  0  0  0  0  0  0  0  0  0  0  0
  140.6714   81.8973  224.3660 H   0  0  0  0  0  0  0  0  0  0  0  0
  140.5330   79.9640  223.3830 C   0  0  0  0  0  0  0  0  0  0  0  0
  139.1550   79.8220  223.5670 C   0  0  0  0  0  0  0  0  0  0  0  0
  138.5836   80.6093  224.0804 H   0  0  0  0  0  0  0  0  0  0  0  0
  138.5050   78.6790  223.0980 C   0  0  0  0  0  0  0  0  0  0  0  0
  137.4245   78.5531  223.2610 H   0  0  0  0  0  0  0  0  0  0  0  0
  141.6140   73.9720  220.4620 N   0  0  0  0  0  0  0  0  0  0  0  0
  142.0940   72.6570  220.0770 C   0  0  0  0  0  0  0  0  0  0  0  0
  141.9018   71.9287  220.8786 H   0  0  0  0  0  0  0  0  0  0  0  0
  141.5842   72.2866  219.1754 H   0  0  0  0  0  0  0  0  0  0  0  0
  143.5920   72.8150  219.8510 C   0  0  0  0  0  0  0  0  0  0  0  0
  144.1382   71.9826  220.3187 H   0  0  0  0  0  0  0  0  0  0  0  0
  143.8390   72.8082  218.7791 H   0  0  0  0  0  0  0  0  0  0  0  0
  143.9830   74.1380  220.5040 C   0  0  0  0  0  0  0  0  0  0  0  0
  144.4400   73.9576  221.4882 H   0  0  0  0  0  0  0  0  0  0  0  0
  144.7196   74.6839  219.8962 H   0  0  0  0  0  0  0  0  0  0  0  0
  142.6850   74.9350  220.6590 C   0  0  1  0  0  0  0  0  0  0  0  0
  142.6344   75.4184  221.6458 H   0  0  0  0  0  0  0  0  0  0  0  0
  142.5880   76.0460  219.6480 C   0  0  0  0  0  0  0  0  0  0  0  0
  143.5130   76.1920  218.8040 O   0  0  0  0  0  0  0  0  0  0  0  0
  141.4500   76.9180  219.6260 N   0  0  0  0  0  0  0  0  0  0  0  0
  140.7140   76.8180  220.3600 H   0  0  0  0  0  0  0  0  0  0  0  0
  141.2500   77.9240  218.5860 C   0  0  0  0  0  0  0  0  0  0  0  0
  142.1481   77.9748  217.9529 H   0  0  0  0  0  0  0  0  0  0  0  0
  140.3766   77.6425  217.9795 H   0  0  0  0  0  0  0  0  0  0  0  0
  141.0020   79.2720  219.2040 C   0  0  0  0  0  0  0  0  0  0  0  0
  142.0600   80.1840  219.3460 C   0  0  0  0  0  0  0  0  0  0  0  0
  143.0685   79.9125  219.0008 H   0  0  0  0  0  0  0  0  0  0  0  0
  141.8350   81.4340  219.9240 C   0  0  0  0  0  0  0  0  0  0  0  0
  142.6721   82.1360  220.0521 H   0  0  0  0  0  0  0  0  0  0  0  0
  140.5520   81.7990  220.3410 C   0  0  0  0  0  0  0  0  0  0  0  0
  140.3110   83.3900  221.0510 Cl  0  0  0  0  0  0  0  0  0  0  0  0
  139.4850   80.8960  220.1930 C   0  0  0  0  0  0  0  0  0  0  0  0
  137.8590   81.3120  220.7110 Cl  0  0  0  0  0  0  0  0  0  0  0  0
  139.7130   79.6360  219.6270 C   0  0  0  0  0  0  0  0  0  0  0  0
  138.8790   78.9279  219.5130 H   0  0  0  0  0  0  0  0  0  0  0  0
  1  2  1  0
  2  3  1  0
  3  4  2  0
  4  5  1  0
  4  6  1  0
  6  7  1  0
  7  8  2  0
  7  9  1  0
  9 10  2  0
 10 11  1  0
 11 12  2  0
 12 13  1  0
 12 14  1  0
 14 15  1  0
 14 16  2  0
 16 17  1  0
 16 18  1  0
 18 19  1  0
 18 20  2  0
 20 21  1  0
 21 22  1  0
 21 23  2  0
 23 24  1  0
  3 25  1  0
 25 26  1  0
 26 27  1  0
 26 28  1  0
 26 29  1  0
 29 30  1  0
 29 31  1  0
 29 32  1  0
 32 33  1  0
 32 34  1  0
 32 35  1  0
 35 36  1  1
 35 37  1  0
 37 38  2  0
 37 39  1  0
 39 40  1  0
 39 41  1  0
 41 42  1  0
 41 43  1  0
 41 44  1  0
 44 45  2  0
 45 46  1  0
 45 47  1  0
 47 48  1  0
 47 49  2  0
 49 50  1  0
 49 51  1  0
 51 52  1  0
 51 53  2  0
 53 54  1  0
 23  9  1  0
 35 25  1  0
 53 44  1  0
 20 11  1  0
M  CHG  1   6  -1
M  END
>  <UniqueID>  (73) 
160

>  <SMILES>  (73) 
O=C([N-]/C=C(\O)N1CCC[C@H]1C(=O)NCc1ccc(Cl)c(Cl)c1)c1ccc2ccccc2n1

>  <Energy>  (73) 
60.46657357215822

>  <Genealogy>  (73) 
O=C([N-]CC(=O)N1CCC[C@H]1C(=O)NCc1ccc(Cl)c(Cl)c1)c1ccc2ccccc2n1 (protonated)
O=C([N-]C=C(O)N1CCC[C@H]1C(=O)NCc1ccc(Cl)c(Cl)c1)c1ccc2ccccc2n1 (tautomer)
O=C([N-]/C=C(\O)N1CCC[C@H]1C(=O)NCc1ccc(Cl)c(Cl)c1)c1ccc2ccccc2n1 (cis-trans isomerization)
O=C([N-]/C=C(\O)N1CCC[C@H]1C(=O)NCc1ccc(Cl)c(Cl)c1)c1ccc2ccccc2n1 (3D coordinates assigned)
O=C([N-]/C=C(\O)N1CCC[C@H]1C(=O)NCc1ccc(Cl)c(Cl)c1)c1ccc2ccccc2n1 (nonaromatic ring conformer: 60.46657357215822 kcal/mol)

>  <smiles>  (73) 
O=C(NCC(=O)N1CCC[C@H]1C(=O)NCc1ccc(Cl)c(Cl)c1)c1ccc2ccccc2n1

>  <score_type>  (73) 
oracle

>  <origin>  (73) 
autodockgpu

>  <m_score__min__energy>  (73) 
-8.7400000000000002

>  <m_primary>  (73) 
energy

>  <meeko>  (73) 
{"free_energy": -6.4, "intermolecular_energy": -9.09, "internal_energy": -6.14, "cluster_size": 12, "cluster_id": 5, "rank_in_cluster": 3}

>  <energy>  (73) 
-6.39

>  <cluster_rmsd>  (73) 
0.09

>  <rmsd>  (73) 
271.21

>  <cluster>  (73) 
5

$$$$
NTBKPXNOUBMHTF-CKGUNICPNA-M
     RDKit          3D

 54 57  0  0  0  0  0  0  0  0999 V2000
  139.1950   73.6780  219.5830 H   0  0  0  0  0  0  0  0  0  0  0  0
  140.0950   73.2180  219.5030 O   0  0  0  0  0  0  0  0  0  0  0  0
  141.0730   73.3850  220.4810 C   0  0  0  0  0  0  0  0  0  0  0  0
  140.7340   73.3780  221.7680 C   0  0  0  0  0  0  0  0  0  0  0  0
  141.0309   72.5355  222.4100 H   0  0  0  0  0  0  0  0  0  0  0  0
  139.9840   74.4650  222.3170 N   0  0  0  0  0  0  0  0  0  0  0  0
  139.6210   75.6520  221.6040 C   0  0  0  0  0  0  0  0  0  0  0  0
  139.1500   75.5300  220.4410 O   0  0  0  0  0  0  0  0  0  0  0  0
  139.8280   77.0140  222.1500 C   0  0  0  0  0  0  0  0  0  0  0  0
  141.0920   77.5230  222.1700 N   0  0  0  0  0  0  0  0  0  0  0  0
  141.3770   78.7370  222.7110 C   0  0  0  0  0  0  0  0  0  0  0  0
  142.6900   79.2250  222.6900 C   0  0  0  0  0  0  0  0  0  0  0  0
  143.4947   78.6218  222.2443 H   0  0  0  0  0  0  0  0  0  0  0  0
  142.9760   80.4790  223.2360 C   0  0  0  0  0  0  0  0  0  0  0  0
  144.0069   80.8622  223.2174 H   0  0  0  0  0  0  0  0  0  0  0  0
  141.9570   81.2490  223.8060 C   0  0  0  0  0  0  0  0  0  0  0  0
  142.1897   82.2340  224.2368 H   0  0  0  0  0  0  0  0  0  0  0  0
  140.6420   80.7700  223.8300 C   0  0  0  0  0  0  0  0  0  0  0  0
  139.8425   81.3782  224.2783 H   0  0  0  0  0  0  0  0  0  0  0  0
  140.3450   79.5140  223.2820 C   0  0  0  0  0  0  0  0  0  0  0  0
  139.0430   79.0090  223.2850 C   0  0  0  0  0  0  0  0  0  0  0  0
  138.2239   79.5995  223.7213 H   0  0  0  0  0  0  0  0  0  0  0  0
  138.7830   77.7530  222.7330 C   0  0  0  0  0  0  0  0  0  0  0  0
  137.7628   77.3423  222.7541 H   0  0  0  0  0  0  0  0  0  0  0  0
  142.4370   73.5880  220.0930 N   0  0  0  0  0  0  0  0  0  0  0  0
  143.2780   72.4860  219.6610 C   0  0  0  0  0  0  0  0  0  0  0  0
  143.2028   71.6462  220.3674 H   0  0  0  0  0  0  0  0  0  0  0  0
  142.9743   72.1058  218.6745 H   0  0  0  0  0  0  0  0  0  0  0  0
  144.6980   73.0360  219.6390 C   0  0  0  0  0  0  0  0  0  0  0  0
  145.3923   72.3179  220.0998 H   0  0  0  0  0  0  0  0  0  0  0  0
  145.0437   73.2126  218.6098 H   0  0  0  0  0  0  0  0  0  0  0  0
  144.6650   74.3320  220.4450 C   0  0  0  0  0  0  0  0  0  0  0  0
  145.0532   74.1606  221.4598 H   0  0  0  0  0  0  0  0  0  0  0  0
  145.2910   75.1093  219.9824 H   0  0  0  0  0  0  0  0  0  0  0  0
  143.1950   74.7580  220.5030 C   0  0  1  0  0  0  0  0  0  0  0  0
  142.9220   75.0981  221.5129 H   0  0  0  0  0  0  0  0  0  0  0  0
  142.9140   75.9170  219.5850 C   0  0  0  0  0  0  0  0  0  0  0  0
  143.8190   76.7670  219.3710 O   0  0  0  0  0  0  0  0  0  0  0  0
  141.6390   76.0460  218.9400 N   0  0  0  0  0  0  0  0  0  0  0  0
  140.8810   75.3620  219.1620 H   0  0  0  0  0  0  0  0  0  0  0  0
  141.3630   77.0770  217.9440 C   0  0  0  0  0  0  0  0  0  0  0  0
  142.2009   77.1280  217.2331 H   0  0  0  0  0  0  0  0  0  0  0  0
  140.4334   76.8221  217.4141 H   0  0  0  0  0  0  0  0  0  0  0  0
  141.1950   78.4150  218.6090 C   0  0  0  0  0  0  0  0  0  0  0  0
  142.2850   79.2950  218.7000 C   0  0  0  0  0  0  0  0  0  0  0  0
  143.2596   79.0060  218.2796 H   0  0  0  0  0  0  0  0  0  0  0  0
  142.1360   80.5350  219.3220 C   0  0  0  0  0  0  0  0  0  0  0  0
  143.0000   81.2100  219.4108 H   0  0  0  0  0  0  0  0  0  0  0  0
  140.8940   80.9240  219.8330 C   0  0  0  0  0  0  0  0  0  0  0  0
  140.7470   82.5020  220.5960 Cl  0  0  0  0  0  0  0  0  0  0  0  0
  139.7940   80.0530  219.7370 C   0  0  0  0  0  0  0  0  0  0  0  0
  138.2200   80.4990  220.3740 Cl  0  0  0  0  0  0  0  0  0  0  0  0
  139.9490   78.8030  219.1280 C   0  0  0  0  0  0  0  0  0  0  0  0
  139.0898   78.1200  219.0553 H   0  0  0  0  0  0  0  0  0  0  0  0
  1  2  1  0
  2  3  1  0
  3  4  2  0
  4  5  1  0
  4  6  1  0
  6  7  1  0
  7  8  2  0
  7  9  1  0
  9 10  2  0
 10 11  1  0
 11 12  2  0
 12 13  1  0
 12 14  1  0
 14 15  1  0
 14 16  2  0
 16 17  1  0
 16 18  1  0
 18 19  1  0
 18 20  2  0
 20 21  1  0
 21 22  1  0
 21 23  2  0
 23 24  1  0
  3 25  1  0
 25 26  1  0
 26 27  1  0
 26 28  1  0
 26 29  1  0
 29 30  1  0
 29 31  1  0
 29 32  1  0
 32 33  1  0
 32 34  1  0
 32 35  1  0
 35 36  1  1
 35 37  1  0
 37 38  2  0
 37 39  1  0
 39 40  1  0
 39 41  1  0
 41 42  1  0
 41 43  1  0
 41 44  1  0
 44 45  2  0
 45 46  1  0
 45 47  1  0
 47 48  1  0
 47 49  2  0
 49 50  1  0
 49 51  1  0
 51 52  1  0
 51 53  2  0
 53 54  1  0
 23  9  1  0
 35 25  1  0
 53 44  1  0
 20 11  1  0
M  CHG  1   6  -1
M  END
>  <UniqueID>  (74) 
160

>  <SMILES>  (74) 
O=C([N-]/C=C(\O)N1CCC[C@H]1C(=O)NCc1ccc(Cl)c(Cl)c1)c1ccc2ccccc2n1

>  <Energy>  (74) 
60.46657357215822

>  <Genealogy>  (74) 
O=C([N-]CC(=O)N1CCC[C@H]1C(=O)NCc1ccc(Cl)c(Cl)c1)c1ccc2ccccc2n1 (protonated)
O=C([N-]C=C(O)N1CCC[C@H]1C(=O)NCc1ccc(Cl)c(Cl)c1)c1ccc2ccccc2n1 (tautomer)
O=C([N-]/C=C(\O)N1CCC[C@H]1C(=O)NCc1ccc(Cl)c(Cl)c1)c1ccc2ccccc2n1 (cis-trans isomerization)
O=C([N-]/C=C(\O)N1CCC[C@H]1C(=O)NCc1ccc(Cl)c(Cl)c1)c1ccc2ccccc2n1 (3D coordinates assigned)
O=C([N-]/C=C(\O)N1CCC[C@H]1C(=O)NCc1ccc(Cl)c(Cl)c1)c1ccc2ccccc2n1 (nonaromatic ring conformer: 60.46657357215822 kcal/mol)

>  <smiles>  (74) 
O=C(NCC(=O)N1CCC[C@H]1C(=O)NCc1ccc(Cl)c(Cl)c1)c1ccc2ccccc2n1

>  <score_type>  (74) 
oracle

>  <origin>  (74) 
autodockgpu

>  <m_score__min__energy>  (74) 
-8.7400000000000002

>  <m_primary>  (74) 
energy

>  <meeko>  (74) 
{"free_energy": -6.07, "intermolecular_energy": -8.76, "internal_energy": -6.05, "cluster_size": 12, "cluster_id": 5, "rank_in_cluster": 12}

>  <energy>  (74) 
-6.37

>  <cluster_rmsd>  (74) 
0.13

>  <rmsd>  (74) 
271.22

>  <cluster>  (74) 
5

$$$$
NTBKPXNOUBMHTF-CKGUNICPNA-M
     RDKit          3D

 54 57  0  0  0  0  0  0  0  0999 V2000
  139.1640   74.1240  222.8130 H   0  0  0  0  0  0  0  0  0  0  0  0
  140.0140   73.8480  222.3340 O   0  0  0  0  0  0  0  0  0  0  0  0
  140.2500   74.2330  221.0160 C   0  0  0  0  0  0  0  0  0  0  0  0
  139.2580   74.7320  220.2820 C   0  0  0  0  0  0  0  0  0  0  0  0
  138.9141   74.1954  219.3854 H   0  0  0  0  0  0  0  0  0  0  0  0
  138.6390   75.9650  220.6580 N   0  0  0  0  0  0  0  0  0  0  0  0
  138.5400   76.4560  222.0000 C   0  0  0  0  0  0  0  0  0  0  0  0
  137.8380   75.8090  222.8230 O   0  0  0  0  0  0  0  0  0  0  0  0
  139.1790   77.7170  222.4440 C   0  0  0  0  0  0  0  0  0  0  0  0
  140.5290   77.8440  222.3130 N   0  0  0  0  0  0  0  0  0  0  0  0
  141.2010   78.9410  222.7510 C   0  0  0  0  0  0  0  0  0  0  0  0
  142.5880   79.0340  222.5760 C   0  0  0  0  0  0  0  0  0  0  0  0
  143.1379   78.2140  222.0910 H   0  0  0  0  0  0  0  0  0  0  0  0
  143.2720   80.1690  223.0180 C   0  0  0  0  0  0  0  0  0  0  0  0
  144.3607   80.2410  222.8785 H   0  0  0  0  0  0  0  0  0  0  0  0
  142.5790   81.2140  223.6370 C   0  0  0  0  0  0  0  0  0  0  0  0
  143.1244   82.1036  223.9850 H   0  0  0  0  0  0  0  0  0  0  0  0
  141.1930   81.1310  223.8150 C   0  0  0  0  0  0  0  0  0  0  0  0
  140.6500   81.9548  224.3012 H   0  0  0  0  0  0  0  0  0  0  0  0
  140.4980   79.9970  223.3730 C   0  0  0  0  0  0  0  0  0  0  0  0
  139.1140   79.8850  223.5300 C   0  0  0  0  0  0  0  0  0  0  0  0
  138.5461   80.6976  224.0066 H   0  0  0  0  0  0  0  0  0  0  0  0
  138.4530   78.7400  223.0810 C   0  0  0  0  0  0  0  0  0  0  0  0
  137.3672   78.6380  223.2250 H   0  0  0  0  0  0  0  0  0  0  0  0
  141.5550   74.0690  220.4520 N   0  0  0  0  0  0  0  0  0  0  0  0
  142.0510   72.7680  220.0410 C   0  0  0  0  0  0  0  0  0  0  0  0
  141.8835   72.0254  220.8351 H   0  0  0  0  0  0  0  0  0  0  0  0
  141.5335   72.4020  219.1420 H   0  0  0  0  0  0  0  0  0  0  0  0
  143.5430   72.9540  219.7940 C   0  0  0  0  0  0  0  0  0  0  0  0
  144.1102   72.1246  220.2417 H   0  0  0  0  0  0  0  0  0  0  0  0
  143.7733   72.9658  218.7185 H   0  0  0  0  0  0  0  0  0  0  0  0
  143.9220   74.2740  220.4590 C   0  0  0  0  0  0  0  0  0  0  0  0
  144.3978   74.0878  221.4331 H   0  0  0  0  0  0  0  0  0  0  0  0
  144.6393   74.8405  219.8470 H   0  0  0  0  0  0  0  0  0  0  0  0
  142.6140   75.0470  220.6460 C   0  0  1  0  0  0  0  0  0  0  0  0
  142.5720   75.5155  221.6404 H   0  0  0  0  0  0  0  0  0  0  0  0
  142.4820   76.1700  219.6520 C   0  0  0  0  0  0  0  0  0  0  0  0
  143.4010   76.3570  218.8100 O   0  0  0  0  0  0  0  0  0  0  0  0
  141.3180   77.0070  219.6440 N   0  0  0  0  0  0  0  0  0  0  0  0
  140.5860   76.8730  220.3760 H   0  0  0  0  0  0  0  0  0  0  0  0
  141.0870   78.0220  218.6200 C   0  0  0  0  0  0  0  0  0  0  0  0
  141.9548   78.0603  217.9451 H   0  0  0  0  0  0  0  0  0  0  0  0
  140.1806   77.7595  218.0548 H   0  0  0  0  0  0  0  0  0  0  0  0
  140.8930   79.3710  219.2550 C   0  0  0  0  0  0  0  0  0  0  0  0
  141.9860   80.2370  219.4130 C   0  0  0  0  0  0  0  0  0  0  0  0
  142.9837   79.9294  219.0667 H   0  0  0  0  0  0  0  0  0  0  0  0
  141.8110   81.4870  220.0080 C   0  0  0  0  0  0  0  0  0  0  0  0
  142.6760   82.1517  220.1489 H   0  0  0  0  0  0  0  0  0  0  0  0
  140.5420   81.8990  220.4260 C   0  0  0  0  0  0  0  0  0  0  0  0
  140.3640   83.4890  221.1570 Cl  0  0  0  0  0  0  0  0  0  0  0  0
  139.4390   81.0420  220.2630 C   0  0  0  0  0  0  0  0  0  0  0  0
  137.8310   81.5180  220.7820 Cl  0  0  0  0  0  0  0  0  0  0  0  0
  139.6180   79.7820  219.6800 C   0  0  0  0  0  0  0  0  0  0  0  0
  138.7562   79.1101  219.5538 H   0  0  0  0  0  0  0  0  0  0  0  0
  1  2  1  0
  2  3  1  0
  3  4  2  0
  4  5  1  0
  4  6  1  0
  6  7  1  0
  7  8  2  0
  7  9  1  0
  9 10  2  0
 10 11  1  0
 11 12  2  0
 12 13  1  0
 12 14  1  0
 14 15  1  0
 14 16  2  0
 16 17  1  0
 16 18  1  0
 18 19  1  0
 18 20  2  0
 20 21  1  0
 21 22  1  0
 21 23  2  0
 23 24  1  0
  3 25  1  0
 25 26  1  0
 26 27  1  0
 26 28  1  0
 26 29  1  0
 29 30  1  0
 29 31  1  0
 29 32  1  0
 32 33  1  0
 32 34  1  0
 32 35  1  0
 35 36  1  1
 35 37  1  0
 37 38  2  0
 37 39  1  0
 39 40  1  0
 39 41  1  0
 41 42  1  0
 41 43  1  0
 41 44  1  0
 44 45  2  0
 45 46  1  0
 45 47  1  0
 47 48  1  0
 47 49  2  0
 49 50  1  0
 49 51  1  0
 51 52  1  0
 51 53  2  0
 53 54  1  0
 23  9  1  0
 35 25  1  0
 53 44  1  0
 20 11  1  0
M  CHG  1   6  -1
M  END
>  <UniqueID>  (75) 
160

>  <SMILES>  (75) 
O=C([N-]/C=C(\O)N1CCC[C@H]1C(=O)NCc1ccc(Cl)c(Cl)c1)c1ccc2ccccc2n1

>  <Energy>  (75) 
60.46657357215822

>  <Genealogy>  (75) 
O=C([N-]CC(=O)N1CCC[C@H]1C(=O)NCc1ccc(Cl)c(Cl)c1)c1ccc2ccccc2n1 (protonated)
O=C([N-]C=C(O)N1CCC[C@H]1C(=O)NCc1ccc(Cl)c(Cl)c1)c1ccc2ccccc2n1 (tautomer)
O=C([N-]/C=C(\O)N1CCC[C@H]1C(=O)NCc1ccc(Cl)c(Cl)c1)c1ccc2ccccc2n1 (cis-trans isomerization)
O=C([N-]/C=C(\O)N1CCC[C@H]1C(=O)NCc1ccc(Cl)c(Cl)c1)c1ccc2ccccc2n1 (3D coordinates assigned)
O=C([N-]/C=C(\O)N1CCC[C@H]1C(=O)NCc1ccc(Cl)c(Cl)c1)c1ccc2ccccc2n1 (nonaromatic ring conformer: 60.46657357215822 kcal/mol)

>  <smiles>  (75) 
O=C(NCC(=O)N1CCC[C@H]1C(=O)NCc1ccc(Cl)c(Cl)c1)c1ccc2ccccc2n1

>  <score_type>  (75) 
oracle

>  <origin>  (75) 
autodockgpu

>  <m_score__min__energy>  (75) 
-8.7400000000000002

>  <m_primary>  (75) 
energy

>  <meeko>  (75) 
{"free_energy": -6.39, "intermolecular_energy": -9.08, "internal_energy": -6.16, "cluster_size": 12, "cluster_id": 5, "rank_in_cluster": 5}

>  <energy>  (75) 
-6.34

>  <cluster_rmsd>  (75) 
0.24

>  <rmsd>  (75) 
271.19

>  <cluster>  (75) 
5

$$$$
NTBKPXNOUBMHTF-CKGUNICPNA-M
     RDKit          3D

 54 57  0  0  0  0  0  0  0  0999 V2000
  139.2200   74.0830  222.8550 H   0  0  0  0  0  0  0  0  0  0  0  0
  140.0220   73.7240  222.3490 O   0  0  0  0  0  0  0  0  0  0  0  0
  140.2710   74.1120  221.0350 C   0  0  0  0  0  0  0  0  0  0  0  0
  139.2910   74.6330  220.2990 C   0  0  0  0  0  0  0  0  0  0  0  0
  138.9051   74.0825  219.4284 H   0  0  0  0  0  0  0  0  0  0  0  0
  138.7400   75.9080  220.6400 N   0  0  0  0  0  0  0  0  0  0  0  0
  138.5830   76.4020  221.9740 C   0  0  0  0  0  0  0  0  0  0  0  0
  137.8410   75.7600  222.7660 O   0  0  0  0  0  0  0  0  0  0  0  0
  139.2080   77.6610  222.4440 C   0  0  0  0  0  0  0  0  0  0  0  0
  140.5580   77.8000  222.3310 N   0  0  0  0  0  0  0  0  0  0  0  0
  141.2170   78.8960  222.7930 C   0  0  0  0  0  0  0  0  0  0  0  0
  142.6040   79.0010  222.6350 C   0  0  0  0  0  0  0  0  0  0  0  0
  143.1651   78.1919  222.1446 H   0  0  0  0  0  0  0  0  0  0  0  0
  143.2750   80.1350  223.1010 C   0  0  0  0  0  0  0  0  0  0  0  0
  144.3644   80.2181  222.9736 H   0  0  0  0  0  0  0  0  0  0  0  0
  142.5660   81.1650  223.7290 C   0  0  0  0  0  0  0  0  0  0  0  0
  143.1004   82.0529  224.0979 H   0  0  0  0  0  0  0  0  0  0  0  0
  141.1800   81.0690  223.8890 C   0  0  0  0  0  0  0  0  0  0  0  0
  140.6251   81.8816  224.3808 H   0  0  0  0  0  0  0  0  0  0  0  0
  140.4980   79.9360  223.4220 C   0  0  0  0  0  0  0  0  0  0  0  0
  139.1140   79.8120  223.5620 C   0  0  0  0  0  0  0  0  0  0  0  0
  138.5349   80.6130  224.0446 H   0  0  0  0  0  0  0  0  0  0  0  0
  138.4670   78.6690  223.0880 C   0  0  0  0  0  0  0  0  0  0  0  0
  137.3804   78.5568  223.2178 H   0  0  0  0  0  0  0  0  0  0  0  0
  141.5760   73.9290  220.4750 N   0  0  0  0  0  0  0  0  0  0  0  0
  142.0580   72.6190  220.0770 C   0  0  0  0  0  0  0  0  0  0  0  0
  141.8800   71.8856  220.8773 H   0  0  0  0  0  0  0  0  0  0  0  0
  141.5384   72.2511  219.1799 H   0  0  0  0  0  0  0  0  0  0  0  0
  143.5520   72.7850  219.8320 C   0  0  0  0  0  0  0  0  0  0  0  0
  144.1083   71.9526  220.2877 H   0  0  0  0  0  0  0  0  0  0  0  0
  143.7852   72.7851  218.7570 H   0  0  0  0  0  0  0  0  0  0  0  0
  143.9450   74.1070  220.4880 C   0  0  0  0  0  0  0  0  0  0  0  0
  144.4155   73.9234  221.4652 H   0  0  0  0  0  0  0  0  0  0  0  0
  144.6711   74.6602  219.8742 H   0  0  0  0  0  0  0  0  0  0  0  0
  142.6450   74.8960  220.6640 C   0  0  1  0  0  0  0  0  0  0  0  0
  142.6050   75.3732  221.6543 H   0  0  0  0  0  0  0  0  0  0  0  0
  142.5290   76.0120  219.6600 C   0  0  0  0  0  0  0  0  0  0  0  0
  143.4430   76.1690  218.8060 O   0  0  0  0  0  0  0  0  0  0  0  0
  141.3850   76.8760  219.6560 N   0  0  0  0  0  0  0  0  0  0  0  0
  140.6580   76.7670  220.3980 H   0  0  0  0  0  0  0  0  0  0  0  0
  141.1670   77.8870  218.6240 C   0  0  0  0  0  0  0  0  0  0  0  0
  142.0510   77.9355  217.9712 H   0  0  0  0  0  0  0  0  0  0  0  0
  140.2787   77.6122  218.0362 H   0  0  0  0  0  0  0  0  0  0  0  0
  140.9400   79.2340  219.2520 C   0  0  0  0  0  0  0  0  0  0  0  0
  142.0190   80.1120  219.4360 C   0  0  0  0  0  0  0  0  0  0  0  0
  143.0287   79.8144  219.1167 H   0  0  0  0  0  0  0  0  0  0  0  0
  141.8150   81.3620  220.0230 C   0  0  0  0  0  0  0  0  0  0  0  0
  142.6685   82.0372  220.1834 H   0  0  0  0  0  0  0  0  0  0  0  0
  140.5310   81.7600  220.4080 C   0  0  0  0  0  0  0  0  0  0  0  0
  140.3160   83.3490  221.1310 Cl  0  0  0  0  0  0  0  0  0  0  0  0
  139.4430   80.8910  220.2180 C   0  0  0  0  0  0  0  0  0  0  0  0
  137.8160   81.3490  220.6950 Cl  0  0  0  0  0  0  0  0  0  0  0  0
  139.6510   79.6310  219.6430 C   0  0  0  0  0  0  0  0  0  0  0  0
  138.8004   78.9489  219.4969 H   0  0  0  0  0  0  0  0  0  0  0  0
  1  2  1  0
  2  3  1  0
  3  4  2  0
  4  5  1  0
  4  6  1  0
  6  7  1  0
  7  8  2  0
  7  9  1  0
  9 10  2  0
 10 11  1  0
 11 12  2  0
 12 13  1  0
 12 14  1  0
 14 15  1  0
 14 16  2  0
 16 17  1  0
 16 18  1  0
 18 19  1  0
 18 20  2  0
 20 21  1  0
 21 22  1  0
 21 23  2  0
 23 24  1  0
  3 25  1  0
 25 26  1  0
 26 27  1  0
 26 28  1  0
 26 29  1  0
 29 30  1  0
 29 31  1  0
 29 32  1  0
 32 33  1  0
 32 34  1  0
 32 35  1  0
 35 36  1  1
 35 37  1  0
 37 38  2  0
 37 39  1  0
 39 40  1  0
 39 41  1  0
 41 42  1  0
 41 43  1  0
 41 44  1  0
 44 45  2  0
 45 46  1  0
 45 47  1  0
 47 48  1  0
 47 49  2  0
 49 50  1  0
 49 51  1  0
 51 52  1  0
 51 53  2  0
 53 54  1  0
 23  9  1  0
 35 25  1  0
 53 44  1  0
 20 11  1  0
M  CHG  1   6  -1
M  END
>  <UniqueID>  (76) 
160

>  <SMILES>  (76) 
O=C([N-]/C=C(\O)N1CCC[C@H]1C(=O)NCc1ccc(Cl)c(Cl)c1)c1ccc2ccccc2n1

>  <Energy>  (76) 
60.46657357215822

>  <Genealogy>  (76) 
O=C([N-]CC(=O)N1CCC[C@H]1C(=O)NCc1ccc(Cl)c(Cl)c1)c1ccc2ccccc2n1 (protonated)
O=C([N-]C=C(O)N1CCC[C@H]1C(=O)NCc1ccc(Cl)c(Cl)c1)c1ccc2ccccc2n1 (tautomer)
O=C([N-]/C=C(\O)N1CCC[C@H]1C(=O)NCc1ccc(Cl)c(Cl)c1)c1ccc2ccccc2n1 (cis-trans isomerization)
O=C([N-]/C=C(\O)N1CCC[C@H]1C(=O)NCc1ccc(Cl)c(Cl)c1)c1ccc2ccccc2n1 (3D coordinates assigned)
O=C([N-]/C=C(\O)N1CCC[C@H]1C(=O)NCc1ccc(Cl)c(Cl)c1)c1ccc2ccccc2n1 (nonaromatic ring conformer: 60.46657357215822 kcal/mol)

>  <smiles>  (76) 
O=C(NCC(=O)N1CCC[C@H]1C(=O)NCc1ccc(Cl)c(Cl)c1)c1ccc2ccccc2n1

>  <score_type>  (76) 
oracle

>  <origin>  (76) 
autodockgpu

>  <m_score__min__energy>  (76) 
-8.7400000000000002

>  <m_primary>  (76) 
energy

>  <meeko>  (76) 
{"free_energy": -6.42, "intermolecular_energy": -9.1, "internal_energy": -6.12, "cluster_size": 12, "cluster_id": 5, "rank_in_cluster": 2}

>  <energy>  (76) 
-6.33

>  <cluster_rmsd>  (76) 
0.19

>  <rmsd>  (76) 
271.27

>  <cluster>  (76) 
5

$$$$
NTBKPXNOUBMHTF-CKGUNICPNA-M
     RDKit          3D

 54 57  0  0  0  0  0  0  0  0999 V2000
  138.8400   74.4140  222.8590 H   0  0  0  0  0  0  0  0  0  0  0  0
  139.6680   74.0960  222.3670 O   0  0  0  0  0  0  0  0  0  0  0  0
  139.9290   74.5140  221.0640 C   0  0  0  0  0  0  0  0  0  0  0  0
  138.9590   75.0590  220.3330 C   0  0  0  0  0  0  0  0  0  0  0  0
  138.7334   74.6594  219.3333 H   0  0  0  0  0  0  0  0  0  0  0  0
  138.2100   76.1640  220.8470 N   0  0  0  0  0  0  0  0  0  0  0  0
  138.2670   76.6340  222.1990 C   0  0  0  0  0  0  0  0  0  0  0  0
  137.6290   75.9960  223.0800 O   0  0  0  0  0  0  0  0  0  0  0  0
  138.9930   77.8630  222.5930 C   0  0  0  0  0  0  0  0  0  0  0  0
  140.3310   77.9370  222.3470 N   0  0  0  0  0  0  0  0  0  0  0  0
  141.0830   79.0010  222.7330 C   0  0  0  0  0  0  0  0  0  0  0  0
  142.4520   79.0390  222.4400 C   0  0  0  0  0  0  0  0  0  0  0  0
  142.9234   78.2013  221.9052 H   0  0  0  0  0  0  0  0  0  0  0  0
  143.2190   80.1410  222.8270 C   0  0  0  0  0  0  0  0  0  0  0  0
  144.2936   80.1704  222.5939 H   0  0  0  0  0  0  0  0  0  0  0  0
  142.6240   81.2070  223.5100 C   0  0  0  0  0  0  0  0  0  0  0  0
  143.2336   82.0701  223.8156 H   0  0  0  0  0  0  0  0  0  0  0  0
  141.2570   81.1800  223.8060 C   0  0  0  0  0  0  0  0  0  0  0  0
  140.7925   82.0208  224.3421 H   0  0  0  0  0  0  0  0  0  0  0  0
  140.4800   80.0790  223.4180 C   0  0  0  0  0  0  0  0  0  0  0  0
  139.1110   80.0220  223.6930 C   0  0  0  0  0  0  0  0  0  0  0  0
  138.6202   80.8527  224.2214 H   0  0  0  0  0  0  0  0  0  0  0  0
  138.3670   78.9090  223.2960 C   0  0  0  0  0  0  0  0  0  0  0  0
  137.2943   78.8500  223.5322 H   0  0  0  0  0  0  0  0  0  0  0  0
  141.2380   74.3350  220.5110 N   0  0  0  0  0  0  0  0  0  0  0  0
  141.7140   73.0310  220.0840 C   0  0  0  0  0  0  0  0  0  0  0  0
  141.5240   72.2791  220.8641 H   0  0  0  0  0  0  0  0  0  0  0  0
  141.1994   72.6891  219.1739 H   0  0  0  0  0  0  0  0  0  0  0  0
  143.2110   73.1930  219.8560 C   0  0  0  0  0  0  0  0  0  0  0  0
  143.7577   72.3460  220.2962 H   0  0  0  0  0  0  0  0  0  0  0  0
  143.4528   73.2178  218.7832 H   0  0  0  0  0  0  0  0  0  0  0  0
  143.6080   74.4950  220.5460 C   0  0  0  0  0  0  0  0  0  0  0  0
  144.0696   74.2846  221.5221 H   0  0  0  0  0  0  0  0  0  0  0  0
  144.3428   75.0575  219.9513 H   0  0  0  0  0  0  0  0  0  0  0  0
  142.3120   75.2890  220.7310 C   0  0  1  0  0  0  0  0  0  0  0  0
  142.2675   75.7425  221.7322 H   0  0  0  0  0  0  0  0  0  0  0  0
  142.2120   76.4290  219.7540 C   0  0  0  0  0  0  0  0  0  0  0  0
  143.1860   76.6740  218.9920 O   0  0  0  0  0  0  0  0  0  0  0  0
  141.0180   77.2190  219.6710 N   0  0  0  0  0  0  0  0  0  0  0  0
  140.2370   77.0380  220.3400 H   0  0  0  0  0  0  0  0  0  0  0  0
  140.8260   78.2490  218.6530 C   0  0  0  0  0  0  0  0  0  0  0  0
  141.6790   78.2363  217.9585 H   0  0  0  0  0  0  0  0  0  0  0  0
  139.8930   78.0436  218.1077 H   0  0  0  0  0  0  0  0  0  0  0  0
  140.7290   79.6060  219.2950 C   0  0  0  0  0  0  0  0  0  0  0  0
  141.8570   80.4390  219.3480 C   0  0  0  0  0  0  0  0  0  0  0  0
  142.8099   80.0996  218.9158 H   0  0  0  0  0  0  0  0  0  0  0  0
  141.7740   81.6960  219.9470 C   0  0  0  0  0  0  0  0  0  0  0  0
  142.6677   82.3348  220.0051 H   0  0  0  0  0  0  0  0  0  0  0  0
  140.5600   82.1480  220.4740 C   0  0  0  0  0  0  0  0  0  0  0  0
  140.4950   83.7450  221.2080 Cl  0  0  0  0  0  0  0  0  0  0  0  0
  139.4220   81.3240  220.4160 C   0  0  0  0  0  0  0  0  0  0  0  0
  137.8810   81.8500  221.0740 Cl  0  0  0  0  0  0  0  0  0  0  0  0
  139.5100   80.0570  219.8290 C   0  0  0  0  0  0  0  0  0  0  0  0
  138.6208   79.4109  219.7853 H   0  0  0  0  0  0  0  0  0  0  0  0
  1  2  1  0
  2  3  1  0
  3  4  2  0
  4  5  1  0
  4  6  1  0
  6  7  1  0
  7  8  2  0
  7  9  1  0
  9 10  2  0
 10 11  1  0
 11 12  2  0
 12 13  1  0
 12 14  1  0
 14 15  1  0
 14 16  2  0
 16 17  1  0
 16 18  1  0
 18 19  1  0
 18 20  2  0
 20 21  1  0
 21 22  1  0
 21 23  2  0
 23 24  1  0
  3 25  1  0
 25 26  1  0
 26 27  1  0
 26 28  1  0
 26 29  1  0
 29 30  1  0
 29 31  1  0
 29 32  1  0
 32 33  1  0
 32 34  1  0
 32 35  1  0
 35 36  1  1
 35 37  1  0
 37 38  2  0
 37 39  1  0
 39 40  1  0
 39 41  1  0
 41 42  1  0
 41 43  1  0
 41 44  1  0
 44 45  2  0
 45 46  1  0
 45 47  1  0
 47 48  1  0
 47 49  2  0
 49 50  1  0
 49 51  1  0
 51 52  1  0
 51 53  2  0
 53 54  1  0
 23  9  1  0
 35 25  1  0
 53 44  1  0
 20 11  1  0
M  CHG  1   6  -1
M  END
>  <UniqueID>  (77) 
160

>  <SMILES>  (77) 
O=C([N-]/C=C(\O)N1CCC[C@H]1C(=O)NCc1ccc(Cl)c(Cl)c1)c1ccc2ccccc2n1

>  <Energy>  (77) 
60.46657357215822

>  <Genealogy>  (77) 
O=C([N-]CC(=O)N1CCC[C@H]1C(=O)NCc1ccc(Cl)c(Cl)c1)c1ccc2ccccc2n1 (protonated)
O=C([N-]C=C(O)N1CCC[C@H]1C(=O)NCc1ccc(Cl)c(Cl)c1)c1ccc2ccccc2n1 (tautomer)
O=C([N-]/C=C(\O)N1CCC[C@H]1C(=O)NCc1ccc(Cl)c(Cl)c1)c1ccc2ccccc2n1 (cis-trans isomerization)
O=C([N-]/C=C(\O)N1CCC[C@H]1C(=O)NCc1ccc(Cl)c(Cl)c1)c1ccc2ccccc2n1 (3D coordinates assigned)
O=C([N-]/C=C(\O)N1CCC[C@H]1C(=O)NCc1ccc(Cl)c(Cl)c1)c1ccc2ccccc2n1 (nonaromatic ring conformer: 60.46657357215822 kcal/mol)

>  <smiles>  (77) 
O=C(NCC(=O)N1CCC[C@H]1C(=O)NCc1ccc(Cl)c(Cl)c1)c1ccc2ccccc2n1

>  <score_type>  (77) 
oracle

>  <origin>  (77) 
autodockgpu

>  <m_score__min__energy>  (77) 
-8.7400000000000002

>  <m_primary>  (77) 
energy

>  <meeko>  (77) 
{"free_energy": -6.11, "intermolecular_energy": -8.8, "internal_energy": -6.17, "cluster_size": 12, "cluster_id": 5, "rank_in_cluster": 11}

>  <energy>  (77) 
-6.14

>  <cluster_rmsd>  (77) 
1.49

>  <rmsd>  (77) 
270.9

>  <cluster>  (77) 
5

$$$$
NTBKPXNOUBMHTF-CKGUNICPNA-M
     RDKit          3D

 54 57  0  0  0  0  0  0  0  0999 V2000
  138.1640   71.4180  224.2080 H   0  0  0  0  0  0  0  0  0  0  0  0
  138.2660   71.8610  223.3010 O   0  0  0  0  0  0  0  0  0  0  0  0
  138.6490   71.1210  222.1850 C   0  0  0  0  0  0  0  0  0  0  0  0
  137.9460   70.0500  221.8230 C   0  0  0  0  0  0  0  0  0  0  0  0
  137.6014   69.9434  220.7838 H   0  0  0  0  0  0  0  0  0  0  0  0
  137.6390   69.0380  222.7860 N   0  0  0  0  0  0  0  0  0  0  0  0
  138.6100   68.2970  223.5340 C   0  0  0  0  0  0  0  0  0  0  0  0
  138.9700   67.1710  223.0950 O   0  0  0  0  0  0  0  0  0  0  0  0
  139.1630   68.7700  224.8240 C   0  0  0  0  0  0  0  0  0  0  0  0
  139.6810   70.0290  224.8880 N   0  0  0  0  0  0  0  0  0  0  0  0
  140.2630   70.5180  226.0140 C   0  0  0  0  0  0  0  0  0  0  0  0
  140.7640   71.8250  226.0360 C   0  0  0  0  0  0  0  0  0  0  0  0
  140.6959   72.4558  225.1374 H   0  0  0  0  0  0  0  0  0  0  0  0
  141.3510   72.3280  227.2010 C   0  0  0  0  0  0  0  0  0  0  0  0
  141.7418   73.3561  227.2181 H   0  0  0  0  0  0  0  0  0  0  0  0
  141.4430   71.5280  228.3450 C   0  0  0  0  0  0  0  0  0  0  0  0
  141.9096   71.9280  229.2573 H   0  0  0  0  0  0  0  0  0  0  0  0
  140.9440   70.2220  228.3330 C   0  0  0  0  0  0  0  0  0  0  0  0
  141.0165   69.5967  229.2351 H   0  0  0  0  0  0  0  0  0  0  0  0
  140.3510   69.7100  227.1700 C   0  0  0  0  0  0  0  0  0  0  0  0
  139.8380   68.4110  227.1260 C   0  0  0  0  0  0  0  0  0  0  0  0
  139.8917   67.7669  228.0161 H   0  0  0  0  0  0  0  0  0  0  0  0
  139.2570   67.9320  225.9500 C   0  0  0  0  0  0  0  0  0  0  0  0
  138.8738   66.9019  225.9042 H   0  0  0  0  0  0  0  0  0  0  0  0
  139.8130   71.5060  221.4440 N   0  0  0  0  0  0  0  0  0  0  0  0
  140.4040   70.6350  220.4440 C   0  0  0  0  0  0  0  0  0  0  0  0
  140.5270   69.6183  220.8456 H   0  0  0  0  0  0  0  0  0  0  0  0
  139.7686   70.5545  219.5497 H   0  0  0  0  0  0  0  0  0  0  0  0
  141.7610   71.2440  220.1160 C   0  0  0  0  0  0  0  0  0  0  0  0
  142.5317   70.4601  220.0778 H   0  0  0  0  0  0  0  0  0  0  0  0
  141.7508   71.7420  219.1352 H   0  0  0  0  0  0  0  0  0  0  0  0
  142.0660   72.2320  221.2390 C   0  0  0  0  0  0  0  0  0  0  0  0
  142.7619   71.7837  221.9634 H   0  0  0  0  0  0  0  0  0  0  0  0
  142.5401   73.1461  220.8522 H   0  0  0  0  0  0  0  0  0  0  0  0
  140.7240   72.5390  221.9110 C   0  0  1  0  0  0  0  0  0  0  0  0
  140.8230   72.5438  223.0065 H   0  0  0  0  0  0  0  0  0  0  0  0
  140.2110   73.9030  221.5350 C   0  0  0  0  0  0  0  0  0  0  0  0
  140.7660   74.5320  220.5950 O   0  0  0  0  0  0  0  0  0  0  0  0
  139.0910   74.4770  222.2220 N   0  0  0  0  0  0  0  0  0  0  0  0
  138.6700   73.9680  223.0310 H   0  0  0  0  0  0  0  0  0  0  0  0
  138.4780   75.7370  221.8100 C   0  0  0  0  0  0  0  0  0  0  0  0
  138.4335   75.7766  220.7116 H   0  0  0  0  0  0  0  0  0  0  0  0
  137.4634   75.7955  222.2310 H   0  0  0  0  0  0  0  0  0  0  0  0
  139.2850   76.9010  222.3160 C   0  0  0  0  0  0  0  0  0  0  0  0
  140.6870   76.8480  222.2880 C   0  0  0  0  0  0  0  0  0  0  0  0
  141.1941   75.9562  221.8911 H   0  0  0  0  0  0  0  0  0  0  0  0
  141.4400   77.9230  222.7620 C   0  0  0  0  0  0  0  0  0  0  0  0
  142.5385   77.8656  222.7581 H   0  0  0  0  0  0  0  0  0  0  0  0
  140.8050   79.0730  223.2420 C   0  0  0  0  0  0  0  0  0  0  0  0
  141.7920   80.4100  223.8150 Cl  0  0  0  0  0  0  0  0  0  0  0  0
  139.4010   79.1390  223.2640 C   0  0  0  0  0  0  0  0  0  0  0  0
  138.5640   80.5600  223.8670 Cl  0  0  0  0  0  0  0  0  0  0  0  0
  138.6460   78.0530  222.8030 C   0  0  0  0  0  0  0  0  0  0  0  0
  137.5473   78.1026  222.8225 H   0  0  0  0  0  0  0  0  0  0  0  0
  1  2  1  0
  2  3  1  0
  3  4  2  0
  4  5  1  0
  4  6  1  0
  6  7  1  0
  7  8  2  0
  7  9  1  0
  9 10  2  0
 10 11  1  0
 11 12  2  0
 12 13  1  0
 12 14  1  0
 14 15  1  0
 14 16  2  0
 16 17  1  0
 16 18  1  0
 18 19  1  0
 18 20  2  0
 20 21  1  0
 21 22  1  0
 21 23  2  0
 23 24  1  0
  3 25  1  0
 25 26  1  0
 26 27  1  0
 26 28  1  0
 26 29  1  0
 29 30  1  0
 29 31  1  0
 29 32  1  0
 32 33  1  0
 32 34  1  0
 32 35  1  0
 35 36  1  1
 35 37  1  0
 37 38  2  0
 37 39  1  0
 39 40  1  0
 39 41  1  0
 41 42  1  0
 41 43  1  0
 41 44  1  0
 44 45  2  0
 45 46  1  0
 45 47  1  0
 47 48  1  0
 47 49  2  0
 49 50  1  0
 49 51  1  0
 51 52  1  0
 51 53  2  0
 53 54  1  0
 23  9  1  0
 35 25  1  0
 53 44  1  0
 20 11  1  0
M  CHG  1   6  -1
M  END
>  <UniqueID>  (78) 
160

>  <SMILES>  (78) 
O=C([N-]/C=C(\O)N1CCC[C@H]1C(=O)NCc1ccc(Cl)c(Cl)c1)c1ccc2ccccc2n1

>  <Energy>  (78) 
60.46657357215822

>  <Genealogy>  (78) 
O=C([N-]CC(=O)N1CCC[C@H]1C(=O)NCc1ccc(Cl)c(Cl)c1)c1ccc2ccccc2n1 (protonated)
O=C([N-]C=C(O)N1CCC[C@H]1C(=O)NCc1ccc(Cl)c(Cl)c1)c1ccc2ccccc2n1 (tautomer)
O=C([N-]/C=C(\O)N1CCC[C@H]1C(=O)NCc1ccc(Cl)c(Cl)c1)c1ccc2ccccc2n1 (cis-trans isomerization)
O=C([N-]/C=C(\O)N1CCC[C@H]1C(=O)NCc1ccc(Cl)c(Cl)c1)c1ccc2ccccc2n1 (3D coordinates assigned)
O=C([N-]/C=C(\O)N1CCC[C@H]1C(=O)NCc1ccc(Cl)c(Cl)c1)c1ccc2ccccc2n1 (nonaromatic ring conformer: 60.46657357215822 kcal/mol)

>  <smiles>  (78) 
O=C(NCC(=O)N1CCC[C@H]1C(=O)NCc1ccc(Cl)c(Cl)c1)c1ccc2ccccc2n1

>  <score_type>  (78) 
oracle

>  <origin>  (78) 
autodockgpu

>  <m_score__min__energy>  (78) 
-8.7400000000000002

>  <m_primary>  (78) 
energy

>  <meeko>  (78) 
{"free_energy": -8.63, "intermolecular_energy": -11.32, "internal_energy": -3.3, "cluster_size": 1, "cluster_id": 2, "rank_in_cluster": 1}

>  <energy>  (78) 
-6.12

>  <cluster_rmsd>  (78) 
1.49

>  <rmsd>  (78) 
270.88

>  <cluster>  (78) 
5

$$$$
NTBKPXNOUBMHTF-CKGUNICPNA-M
     RDKit          3D

 54 57  0  0  0  0  0  0  0  0999 V2000
  139.1410   74.1040  222.8390 H   0  0  0  0  0  0  0  0  0  0  0  0
  139.9740   73.7850  222.3560 O   0  0  0  0  0  0  0  0  0  0  0  0
  140.2280   74.1670  221.0410 C   0  0  0  0  0  0  0  0  0  0  0  0
  139.2530   74.6910  220.3010 C   0  0  0  0  0  0  0  0  0  0  0  0
  138.8963   74.1601  219.4061 H   0  0  0  0  0  0  0  0  0  0  0  0
  138.6690   75.9440  220.6690 N   0  0  0  0  0  0  0  0  0  0  0  0
  138.5540   76.4310  222.0100 C   0  0  0  0  0  0  0  0  0  0  0  0
  137.8410   75.7810  222.8230 O   0  0  0  0  0  0  0  0  0  0  0  0
  139.1870   77.6910  222.4650 C   0  0  0  0  0  0  0  0  0  0  0  0
  140.5380   77.8210  222.3480 N   0  0  0  0  0  0  0  0  0  0  0  0
  141.2040   78.9170  222.7970 C   0  0  0  0  0  0  0  0  0  0  0  0
  142.5920   79.0120  222.6360 C   0  0  0  0  0  0  0  0  0  0  0  0
  143.1473   78.1943  222.1532 H   0  0  0  0  0  0  0  0  0  0  0  0
  143.2710   80.1460  223.0890 C   0  0  0  0  0  0  0  0  0  0  0  0
  144.3609   80.2202  222.9599 H   0  0  0  0  0  0  0  0  0  0  0  0
  142.5700   81.1870  223.7060 C   0  0  0  0  0  0  0  0  0  0  0  0
  143.1108   82.0756  224.0636 H   0  0  0  0  0  0  0  0  0  0  0  0
  141.1830   81.1020  223.8700 C   0  0  0  0  0  0  0  0  0  0  0  0
  140.6345   81.9232  224.3546 H   0  0  0  0  0  0  0  0  0  0  0  0
  140.4930   79.9690  223.4160 C   0  0  0  0  0  0  0  0  0  0  0  0
  139.1080   79.8540  223.5600 C   0  0  0  0  0  0  0  0  0  0  0  0
  138.5347   80.6631  224.0360 H   0  0  0  0  0  0  0  0  0  0  0  0
  138.4530   78.7110  223.0990 C   0  0  0  0  0  0  0  0  0  0  0  0
  137.3658   78.6076  223.2308 H   0  0  0  0  0  0  0  0  0  0  0  0
  141.5330   73.9740  220.4850 N   0  0  0  0  0  0  0  0  0  0  0  0
  142.0050   72.6600  220.0860 C   0  0  0  0  0  0  0  0  0  0  0  0
  141.8186   71.9267  220.8845 H   0  0  0  0  0  0  0  0  0  0  0  0
  141.4850   72.2974  219.1871 H   0  0  0  0  0  0  0  0  0  0  0  0
  143.5010   72.8150  219.8460 C   0  0  0  0  0  0  0  0  0  0  0  0
  144.0493   71.9774  220.3018 H   0  0  0  0  0  0  0  0  0  0  0  0
  143.7370   72.8156  218.7716 H   0  0  0  0  0  0  0  0  0  0  0  0
  143.9030   74.1320  220.5050 C   0  0  0  0  0  0  0  0  0  0  0  0
  144.3693   73.9428  221.4831 H   0  0  0  0  0  0  0  0  0  0  0  0
  144.6353   74.6801  219.8940 H   0  0  0  0  0  0  0  0  0  0  0  0
  142.6090   74.9320  220.6790 C   0  0  1  0  0  0  0  0  0  0  0  0
  142.5694   75.4080  221.6699 H   0  0  0  0  0  0  0  0  0  0  0  0
  142.5060   76.0500  219.6770 C   0  0  0  0  0  0  0  0  0  0  0  0
  143.4260   76.2040  218.8300 O   0  0  0  0  0  0  0  0  0  0  0  0
  141.3670   76.9210  219.6680 N   0  0  0  0  0  0  0  0  0  0  0  0
  140.6350   76.8140  220.4050 H   0  0  0  0  0  0  0  0  0  0  0  0
  141.1610   77.9350  218.6370 C   0  0  0  0  0  0  0  0  0  0  0  0
  142.0458   77.9740  217.9846 H   0  0  0  0  0  0  0  0  0  0  0  0
  140.2699   77.6708  218.0486 H   0  0  0  0  0  0  0  0  0  0  0  0
  140.9490   79.2840  219.2660 C   0  0  0  0  0  0  0  0  0  0  0  0
  142.0380   80.1500  219.4520 C   0  0  0  0  0  0  0  0  0  0  0  0
  143.0445   79.8413  219.1331 H   0  0  0  0  0  0  0  0  0  0  0  0
  141.8480   81.4010  220.0400 C   0  0  0  0  0  0  0  0  0  0  0  0
  142.7090   82.0662  220.2022 H   0  0  0  0  0  0  0  0  0  0  0  0
  140.5680   81.8130  220.4240 C   0  0  0  0  0  0  0  0  0  0  0  0
  140.3710   83.4040  221.1490 Cl  0  0  0  0  0  0  0  0  0  0  0  0
  139.4700   80.9560  220.2330 C   0  0  0  0  0  0  0  0  0  0  0  0
  137.8480   81.4330  220.7080 Cl  0  0  0  0  0  0  0  0  0  0  0  0
  139.6640   79.6960  219.6560 C   0  0  0  0  0  0  0  0  0  0  0  0
  138.8055   79.0245  219.5070 H   0  0  0  0  0  0  0  0  0  0  0  0
  1  2  1  0
  2  3  1  0
  3  4  2  0
  4  5  1  0
  4  6  1  0
  6  7  1  0
  7  8  2  0
  7  9  1  0
  9 10  2  0
 10 11  1  0
 11 12  2  0
 12 13  1  0
 12 14  1  0
 14 15  1  0
 14 16  2  0
 16 17  1  0
 16 18  1  0
 18 19  1  0
 18 20  2  0
 20 21  1  0
 21 22  1  0
 21 23  2  0
 23 24  1  0
  3 25  1  0
 25 26  1  0
 26 27  1  0
 26 28  1  0
 26 29  1  0
 29 30  1  0
 29 31  1  0
 29 32  1  0
 32 33  1  0
 32 34  1  0
 32 35  1  0
 35 36  1  1
 35 37  1  0
 37 38  2  0
 37 39  1  0
 39 40  1  0
 39 41  1  0
 41 42  1  0
 41 43  1  0
 41 44  1  0
 44 45  2  0
 45 46  1  0
 45 47  1  0
 47 48  1  0
 47 49  2  0
 49 50  1  0
 49 51  1  0
 51 52  1  0
 51 53  2  0
 53 54  1  0
 23  9  1  0
 35 25  1  0
 53 44  1  0
 20 11  1  0
M  CHG  1   6  -1
M  END
>  <UniqueID>  (79) 
160

>  <SMILES>  (79) 
O=C([N-]/C=C(\O)N1CCC[C@H]1C(=O)NCc1ccc(Cl)c(Cl)c1)c1ccc2ccccc2n1

>  <Energy>  (79) 
60.46657357215822

>  <Genealogy>  (79) 
O=C([N-]CC(=O)N1CCC[C@H]1C(=O)NCc1ccc(Cl)c(Cl)c1)c1ccc2ccccc2n1 (protonated)
O=C([N-]C=C(O)N1CCC[C@H]1C(=O)NCc1ccc(Cl)c(Cl)c1)c1ccc2ccccc2n1 (tautomer)
O=C([N-]/C=C(\O)N1CCC[C@H]1C(=O)NCc1ccc(Cl)c(Cl)c1)c1ccc2ccccc2n1 (cis-trans isomerization)
O=C([N-]/C=C(\O)N1CCC[C@H]1C(=O)NCc1ccc(Cl)c(Cl)c1)c1ccc2ccccc2n1 (3D coordinates assigned)
O=C([N-]/C=C(\O)N1CCC[C@H]1C(=O)NCc1ccc(Cl)c(Cl)c1)c1ccc2ccccc2n1 (nonaromatic ring conformer: 60.46657357215822 kcal/mol)

>  <smiles>  (79) 
O=C(NCC(=O)N1CCC[C@H]1C(=O)NCc1ccc(Cl)c(Cl)c1)c1ccc2ccccc2n1

>  <score_type>  (79) 
oracle

>  <origin>  (79) 
autodockgpu

>  <m_score__min__energy>  (79) 
-8.7400000000000002

>  <m_primary>  (79) 
energy

>  <meeko>  (79) 
{"free_energy": -6.42, "intermolecular_energy": -9.11, "internal_energy": -6.14, "cluster_size": 12, "cluster_id": 5, "rank_in_cluster": 1}

>  <energy>  (79) 
-6.11

>  <cluster_rmsd>  (79) 
0.4

>  <rmsd>  (79) 
271.23

>  <cluster>  (79) 
5

$$$$
NTBKPXNOUBMHTF-CKGUNICPNA-M
     RDKit          3D

 54 57  0  0  0  0  0  0  0  0999 V2000
  139.5630   74.8010  223.0930 H   0  0  0  0  0  0  0  0  0  0  0  0
  139.9580   75.5200  222.4970 O   0  0  0  0  0  0  0  0  0  0  0  0
  140.6690   75.1830  221.3470 C   0  0  0  0  0  0  0  0  0  0  0  0
  141.1690   73.9570  221.2100 C   0  0  0  0  0  0  0  0  0  0  0  0
  141.6540   73.6633  220.2674 H   0  0  0  0  0  0  0  0  0  0  0  0
  141.0760   73.0210  222.2880 N   0  0  0  0  0  0  0  0  0  0  0  0
  139.8540   72.4690  222.7910 C   0  0  0  0  0  0  0  0  0  0  0  0
  138.7660   72.9270  222.3490 O   0  0  0  0  0  0  0  0  0  0  0  0
  139.8160   71.4270  223.8430 C   0  0  0  0  0  0  0  0  0  0  0  0
  140.3850   71.6990  225.0510 N   0  0  0  0  0  0  0  0  0  0  0  0
  140.4480   70.7780  226.0480 C   0  0  0  0  0  0  0  0  0  0  0  0
  141.0270   71.1120  227.2790 C   0  0  0  0  0  0  0  0  0  0  0  0
  141.4413   72.1186  227.4371 H   0  0  0  0  0  0  0  0  0  0  0  0
  141.0780   70.1660  228.3060 C   0  0  0  0  0  0  0  0  0  0  0  0
  141.5300   70.4307  229.2733 H   0  0  0  0  0  0  0  0  0  0  0  0
  140.5560   68.8830  228.1080 C   0  0  0  0  0  0  0  0  0  0  0  0
  140.6035   68.1408  228.9185 H   0  0  0  0  0  0  0  0  0  0  0  0
  139.9740   68.5410  226.8830 C   0  0  0  0  0  0  0  0  0  0  0  0
  139.5622   67.5323  226.7317 H   0  0  0  0  0  0  0  0  0  0  0  0
  139.9160   69.4850  225.8480 C   0  0  0  0  0  0  0  0  0  0  0  0
  139.3380   69.1770  224.6140 C   0  0  0  0  0  0  0  0  0  0  0  0
  138.9144   68.1772  224.4381 H   0  0  0  0  0  0  0  0  0  0  0  0
  139.2990   70.1410  223.6040 C   0  0  0  0  0  0  0  0  0  0  0  0
  138.8648   69.8949  222.6237 H   0  0  0  0  0  0  0  0  0  0  0  0
  140.8770   76.1670  220.3280 N   0  0  0  0  0  0  0  0  0  0  0  0
  140.2170   76.0810  219.0380 C   0  0  0  0  0  0  0  0  0  0  0  0
  140.3248   75.0697  218.6188 H   0  0  0  0  0  0  0  0  0  0  0  0
  139.1389   76.2837  219.1196 H   0  0  0  0  0  0  0  0  0  0  0  0
  140.9150   77.1020  218.1480 C   0  0  0  0  0  0  0  0  0  0  0  0
  141.1232   76.6673  217.1592 H   0  0  0  0  0  0  0  0  0  0  0  0
  140.2879   77.9917  217.9893 H   0  0  0  0  0  0  0  0  0  0  0  0
  142.2200   77.4590  218.8550 C   0  0  0  0  0  0  0  0  0  0  0  0
  143.0611   76.9141  218.4016 H   0  0  0  0  0  0  0  0  0  0  0  0
  142.4417   78.5331  218.7703 H   0  0  0  0  0  0  0  0  0  0  0  0
  142.0410   77.0390  220.3160 C   0  0  1  0  0  0  0  0  0  0  0  0
  142.9427   76.5357  220.6951 H   0  0  0  0  0  0  0  0  0  0  0  0
  141.8200   78.2260  221.2150 C   0  0  0  0  0  0  0  0  0  0  0  0
  141.9160   79.3870  220.7350 O   0  0  0  0  0  0  0  0  0  0  0  0
  141.4840   78.0440  222.5970 N   0  0  0  0  0  0  0  0  0  0  0  0
  141.4550   77.0780  222.9940 H   0  0  0  0  0  0  0  0  0  0  0  0
  141.1350   79.1570  223.4740 C   0  0  0  0  0  0  0  0  0  0  0  0
  141.4785   78.9356  224.4953 H   0  0  0  0  0  0  0  0  0  0  0  0
  141.6212   80.0710  223.1024 H   0  0  0  0  0  0  0  0  0  0  0  0
  139.6450   79.3660  223.4860 C   0  0  0  0  0  0  0  0  0  0  0  0
  139.1100   80.5730  223.9600 C   0  0  0  0  0  0  0  0  0  0  0  0
  139.7813   81.3672  224.3185 H   0  0  0  0  0  0  0  0  0  0  0  0
  137.7280   80.7690  223.9780 C   0  0  0  0  0  0  0  0  0  0  0  0
  137.3138   81.7091  224.3712 H   0  0  0  0  0  0  0  0  0  0  0  0
  136.8680   79.7770  223.4990 C   0  0  0  0  0  0  0  0  0  0  0  0
  135.1340   80.0710  223.5270 Cl  0  0  0  0  0  0  0  0  0  0  0  0
  137.3960   78.5680  223.0130 C   0  0  0  0  0  0  0  0  0  0  0  0
  136.3500   77.2930  222.4100 Cl  0  0  0  0  0  0  0  0  0  0  0  0
  138.7810   78.3660  223.0090 C   0  0  0  0  0  0  0  0  0  0  0  0
  139.1950   77.4198  222.6306 H   0  0  0  0  0  0  0  0  0  0  0  0
  1  2  1  0
  2  3  1  0
  3  4  2  0
  4  5  1  0
  4  6  1  0
  6  7  1  0
  7  8  2  0
  7  9  1  0
  9 10  2  0
 10 11  1  0
 11 12  2  0
 12 13  1  0
 12 14  1  0
 14 15  1  0
 14 16  2  0
 16 17  1  0
 16 18  1  0
 18 19  1  0
 18 20  2  0
 20 21  1  0
 21 22  1  0
 21 23  2  0
 23 24  1  0
  3 25  1  0
 25 26  1  0
 26 27  1  0
 26 28  1  0
 26 29  1  0
 29 30  1  0
 29 31  1  0
 29 32  1  0
 32 33  1  0
 32 34  1  0
 32 35  1  0
 35 36  1  1
 35 37  1  0
 37 38  2  0
 37 39  1  0
 39 40  1  0
 39 41  1  0
 41 42  1  0
 41 43  1  0
 41 44  1  0
 44 45  2  0
 45 46  1  0
 45 47  1  0
 47 48  1  0
 47 49  2  0
 49 50  1  0
 49 51  1  0
 51 52  1  0
 51 53  2  0
 53 54  1  0
 23  9  1  0
 35 25  1  0
 53 44  1  0
 20 11  1  0
M  CHG  1   6  -1
M  END
>  <UniqueID>  (80) 
160

>  <SMILES>  (80) 
O=C([N-]/C=C(\O)N1CCC[C@H]1C(=O)NCc1ccc(Cl)c(Cl)c1)c1ccc2ccccc2n1

>  <Energy>  (80) 
60.46657357215822

>  <Genealogy>  (80) 
O=C([N-]CC(=O)N1CCC[C@H]1C(=O)NCc1ccc(Cl)c(Cl)c1)c1ccc2ccccc2n1 (protonated)
O=C([N-]C=C(O)N1CCC[C@H]1C(=O)NCc1ccc(Cl)c(Cl)c1)c1ccc2ccccc2n1 (tautomer)
O=C([N-]/C=C(\O)N1CCC[C@H]1C(=O)NCc1ccc(Cl)c(Cl)c1)c1ccc2ccccc2n1 (cis-trans isomerization)
O=C([N-]/C=C(\O)N1CCC[C@H]1C(=O)NCc1ccc(Cl)c(Cl)c1)c1ccc2ccccc2n1 (3D coordinates assigned)
O=C([N-]/C=C(\O)N1CCC[C@H]1C(=O)NCc1ccc(Cl)c(Cl)c1)c1ccc2ccccc2n1 (nonaromatic ring conformer: 60.46657357215822 kcal/mol)

>  <smiles>  (80) 
O=C(NCC(=O)N1CCC[C@H]1C(=O)NCc1ccc(Cl)c(Cl)c1)c1ccc2ccccc2n1

>  <score_type>  (80) 
oracle

>  <origin>  (80) 
autodockgpu

>  <m_score__min__energy>  (80) 
-8.7400000000000002

>  <m_primary>  (80) 
energy

>  <meeko>  (80) 
{"free_energy": -8.11, "intermolecular_energy": -10.79, "internal_energy": -3.43, "cluster_size": 1, "cluster_id": 4, "rank_in_cluster": 1}

>  <energy>  (80) 
-6.07

>  <cluster_rmsd>  (80) 
1.31

>  <rmsd>  (80) 
270.93

>  <cluster>  (80) 
5

$$$$
