DSYBMJCSYFRFMG-UHFFFAOYNA-N
     RDKit          3D

 67 72  0  0  0  0  0  0  0  0999 V2000
  140.2690   67.3800  226.0920 C   0  0  0  0  0  0  0  0  0  0  0  0
  139.5730   67.9650  224.9420 N   0  0  0  0  0  0  0  0  0  0  0  0
  138.7190   69.1050  225.3370 C   0  0  0  0  0  0  0  0  0  0  0  0
  137.9010   69.6650  224.1300 C   0  0  0  0  0  0  0  0  0  0  0  0
  138.1710   71.1470  223.8470 C   0  0  0  0  0  0  0  0  0  0  0  0
  139.6230   71.3880  223.8310 N   0  0  0  0  0  0  0  0  0  0  0  0
  140.2800   71.9700  222.6860 C   0  0  0  0  0  0  0  0  0  0  0  0
  140.8370   71.1690  221.7400 N   0  0  0  0  0  0  0  0  0  0  0  0
  141.4220   71.6990  220.6350 C   0  0  0  0  0  0  0  0  0  0  0  0
  141.9910   70.8370  219.6240 N   0  0  0  0  0  0  0  0  0  0  0  0
  141.2840   69.6480  219.1410 C   0  0  0  0  0  0  0  0  0  0  0  0
  142.0070   68.4030  219.6530 C   0  0  0  0  0  0  0  0  0  0  0  0
  143.4970   68.4860  219.4210 C   0  0  0  0  0  0  0  0  0  0  0  0
  144.2640   67.3120  219.4830 C   0  0  0  0  0  0  0  0  0  0  0  0
  145.6510   67.3620  219.3220 C   0  0  0  0  0  0  0  0  0  0  0  0
  146.2870   68.5860  219.1070 C   0  0  0  0  0  0  0  0  0  0  0  0
  145.5400   69.7660  219.0600 C   0  0  0  0  0  0  0  0  0  0  0  0
  144.1470   69.7320  219.2310 C   0  0  0  0  0  0  0  0  0  0  0  0
  143.3650   71.0230  219.1370 C   0  0  0  0  0  0  0  0  0  0  0  0
  141.4440   73.0480  220.4810 N   0  0  0  0  0  0  0  0  0  0  0  0
  140.9000   73.8660  221.4190 C   0  0  0  0  0  0  0  0  0  0  0  0
  140.9190   75.2970  221.2340 N   0  0  0  0  0  0  0  0  0  0  0  0
  141.1840   75.8780  219.9100 C   0  0  0  0  0  0  0  0  0  0  0  0
  142.1090   77.0810  220.0470 C   0  0  0  0  0  0  0  0  0  0  0  0
  141.5380   78.0720  221.0200 C   0  0  0  0  0  0  0  0  0  0  0  0
  141.8410   79.4380  220.8890 C   0  0  0  0  0  0  0  0  0  0  0  0
  141.3390   80.3630  221.8060 C   0  0  0  0  0  0  0  0  0  0  0  0
  140.5380   79.9330  222.8670 C   0  0  0  0  0  0  0  0  0  0  0  0
  140.2490   78.5730  223.0200 C   0  0  0  0  0  0  0  0  0  0  0  0
  140.7480   77.6320  222.1060 C   0  0  0  0  0  0  0  0  0  0  0  0
  140.4700   76.1640  222.3380 C   0  0  0  0  0  0  0  0  0  0  0  0
  140.3170   73.3180  222.5170 N   0  0  0  0  0  0  0  0  0  0  0  0
  140.4320   70.9570  224.9820 C   0  0  0  0  0  0  0  0  0  0  0  0
  139.5970   70.1810  226.0110 C   0  0  0  0  0  0  0  0  0  0  0  0
  139.8203   67.7571  227.0228 H   0  0  0  0  0  0  0  0  0  0  0  0
  140.1766   66.2844  226.0580 H   0  0  0  0  0  0  0  0  0  0  0  0
  141.3324   67.6595  226.0580 H   0  0  0  0  0  0  0  0  0  0  0  0
  138.9930   67.2220  224.4870 H   0  0  0  0  0  0  0  0  0  0  0  0
  137.9683   68.7623  226.0643 H   0  0  0  0  0  0  0  0  0  0  0  0
  138.1626   69.0853  223.2325 H   0  0  0  0  0  0  0  0  0  0  0  0
  136.8359   69.5726  224.3887 H   0  0  0  0  0  0  0  0  0  0  0  0
  137.7439   71.4173  222.8700 H   0  0  0  0  0  0  0  0  0  0  0  0
  137.7066   71.7605  224.6332 H   0  0  0  0  0  0  0  0  0  0  0  0
  140.2498   69.6552  219.5157 H   0  0  0  0  0  0  0  0  0  0  0  0
  141.2670   69.6444  218.0411 H   0  0  0  0  0  0  0  0  0  0  0  0
  141.8196   68.3007  220.7321 H   0  0  0  0  0  0  0  0  0  0  0  0
  141.6225   67.5325  219.1013 H   0  0  0  0  0  0  0  0  0  0  0  0
  143.7694   66.3455  219.6596 H   0  0  0  0  0  0  0  0  0  0  0  0
  146.2426   66.4356  219.3647 H   0  0  0  0  0  0  0  0  0  0  0  0
  147.3784   68.6216  218.9743 H   0  0  0  0  0  0  0  0  0  0  0  0
  146.0464   70.7272  218.8880 H   0  0  0  0  0  0  0  0  0  0  0  0
  143.8628   71.7915  219.7466 H   0  0  0  0  0  0  0  0  0  0  0  0
  143.3264   71.3361  218.0832 H   0  0  0  0  0  0  0  0  0  0  0  0
  141.6612   75.1222  219.2690 H   0  0  0  0  0  0  0  0  0  0  0  0
  140.2339   76.2013  219.4598 H   0  0  0  0  0  0  0  0  0  0  0  0
  143.0917   76.7434  220.4081 H   0  0  0  0  0  0  0  0  0  0  0  0
  142.2132   77.5648  219.0646 H   0  0  0  0  0  0  0  0  0  0  0  0
  142.4772   79.7801  220.0594 H   0  0  0  0  0  0  0  0  0  0  0  0
  141.5743   81.4316  221.6932 H   0  0  0  0  0  0  0  0  0  0  0  0
  140.1344   80.6645  223.5825 H   0  0  0  0  0  0  0  0  0  0  0  0
  139.6261   78.2386  223.8627 H   0  0  0  0  0  0  0  0  0  0  0  0
  140.9880   75.8530  223.2572 H   0  0  0  0  0  0  0  0  0  0  0  0
  139.3785   76.0504  222.4141 H   0  0  0  0  0  0  0  0  0  0  0  0
  141.2450   70.3091  224.6225 H   0  0  0  0  0  0  0  0  0  0  0  0
  140.8299   71.8564  225.4747 H   0  0  0  0  0  0  0  0  0  0  0  0
  140.2757   69.6917  226.7251 H   0  0  0  0  0  0  0  0  0  0  0  0
  138.9341   70.8938  226.5233 H   0  0  0  0  0  0  0  0  0  0  0  0
  1  2  1  0
  2  3  1  0
  3  4  1  0
  4  5  1  0
  5  6  1  0
  6  7  1  0
  7  8  2  0
  8  9  1  0
  9 10  1  0
 10 11  1  0
 11 12  1  0
 12 13  1  0
 13 14  2  0
 14 15  1  0
 15 16  2  0
 16 17  1  0
 17 18  2  0
 18 19  1  0
  9 20  2  0
 20 21  1  0
 21 22  1  0
 22 23  1  0
 23 24  1  0
 24 25  1  0
 25 26  2  0
 26 27  1  0
 27 28  2  0
 28 29  1  0
 29 30  2  0
 30 31  1  0
 21 32  2  0
  6 33  1  0
 33 34  1  0
 34  3  1  0
 32  7  1  0
 19 10  1  0
 31 22  1  0
 18 13  1  0
 30 25  1  0
  1 35  1  0
  1 36  1  0
  1 37  1  0
  2 38  1  0
  3 39  1  0
  4 40  1  0
  4 41  1  0
  5 42  1  0
  5 43  1  0
 11 44  1  0
 11 45  1  0
 12 46  1  0
 12 47  1  0
 14 48  1  0
 15 49  1  0
 16 50  1  0
 17 51  1  0
 19 52  1  0
 19 53  1  0
 23 54  1  0
 23 55  1  0
 24 56  1  0
 24 57  1  0
 26 58  1  0
 27 59  1  0
 28 60  1  0
 29 61  1  0
 31 62  1  0
 31 63  1  0
 33 64  1  0
 33 65  1  0
 34 66  1  0
 34 67  1  0
M  END
>  <UniqueID>  (1) 
57

>  <SMILES>  (1) 
CNC1CCN(c2nc(N3CCc4ccccc4C3)nc(N3CCc4ccccc4C3)n2)CC1

>  <Energy>  (1) 
80.63595697295537

>  <Genealogy>  (1) 
CNC1CCN(c2nc(N3CCc4ccccc4C3)nc(N3CCc4ccccc4C3)n2)CC1 (3D coordinates assigned)
CNC1CCN(c2nc(N3CCc4ccccc4C3)nc(N3CCc4ccccc4C3)n2)CC1 (nonaromatic ring conformer: 80.63595697295537 kcal/mol)

>  <smiles>  (1) 
CNC1CCN(c2nc(N3CCc4ccccc4C3)nc(N3CCc4ccccc4C3)n2)CC1

>  <score_type>  (1) 
oracle

>  <origin>  (1) 
autodockgpu

>  <m_score__min__energy>  (1) 
-8.9900000000000002

>  <m_primary>  (1) 
energy

>  <meeko>  (1) 
{"free_energy": -8.7, "intermolecular_energy": -9.9, "internal_energy": -0.98, "cluster_size": 2, "cluster_id": 2, "rank_in_cluster": 1}

>  <energy>  (1) 
-8.99

>  <cluster_rmsd>  (1) 
0.0

>  <rmsd>  (1) 
271.83

>  <cluster>  (1) 
1

$$$$
DSYBMJCSYFRFMG-UHFFFAOYNA-N
     RDKit          3D

 67 72  0  0  0  0  0  0  0  0999 V2000
  145.6830   73.1260  219.3790 C   0  0  0  0  0  0  0  0  0  0  0  0
  145.9480   72.2460  218.2360 N   0  0  0  0  0  0  0  0  0  0  0  0
  144.8000   72.1880  217.3080 C   0  0  0  0  0  0  0  0  0  0  0  0
  143.9700   73.5110  217.3220 C   0  0  0  0  0  0  0  0  0  0  0  0
  142.5000   73.3030  217.7030 C   0  0  0  0  0  0  0  0  0  0  0  0
  142.4180   72.4570  218.9040 N   0  0  0  0  0  0  0  0  0  0  0  0
  141.7360   72.9010  220.0950 C   0  0  0  0  0  0  0  0  0  0  0  0
  141.3600   74.2010  220.2220 N   0  0  0  0  0  0  0  0  0  0  0  0
  140.6800   74.6260  221.3170 C   0  0  0  0  0  0  0  0  0  0  0  0
  140.2650   76.0060  221.4300 N   0  0  0  0  0  0  0  0  0  0  0  0
  139.9190   76.8040  220.2510 C   0  0  0  0  0  0  0  0  0  0  0  0
  141.0090   77.8510  220.0280 C   0  0  0  0  0  0  0  0  0  0  0  0
  141.3530   78.5830  221.3040 C   0  0  0  0  0  0  0  0  0  0  0  0
  142.0450   79.8010  221.2270 C   0  0  0  0  0  0  0  0  0  0  0  0
  142.4210   80.4770  222.3900 C   0  0  0  0  0  0  0  0  0  0  0  0
  142.1180   79.9380  223.6420 C   0  0  0  0  0  0  0  0  0  0  0  0
  141.4450   78.7180  223.7360 C   0  0  0  0  0  0  0  0  0  0  0  0
  141.0710   78.0210  222.5760 C   0  0  0  0  0  0  0  0  0  0  0  0
  140.3110   76.7220  222.7120 C   0  0  0  0  0  0  0  0  0  0  0  0
  140.3740   73.7330  222.2940 N   0  0  0  0  0  0  0  0  0  0  0  0
  140.7480   72.4320  222.1900 C   0  0  0  0  0  0  0  0  0  0  0  0
  140.4020   71.4920  223.2300 N   0  0  0  0  0  0  0  0  0  0  0  0
  139.5750   70.3150  222.9310 C   0  0  0  0  0  0  0  0  0  0  0  0
  138.5600   70.0980  224.0470 C   0  0  0  0  0  0  0  0  0  0  0  0
  139.2540   70.0070  225.3750 C   0  0  0  0  0  0  0  0  0  0  0  0
  138.6800   69.2580  226.4160 C   0  0  0  0  0  0  0  0  0  0  0  0
  139.3030   69.1920  227.6640 C   0  0  0  0  0  0  0  0  0  0  0  0
  140.4980   69.8810  227.8880 C   0  0  0  0  0  0  0  0  0  0  0  0
  141.0650   70.6490  226.8660 C   0  0  0  0  0  0  0  0  0  0  0  0
  140.4490   70.7240  225.6060 C   0  0  0  0  0  0  0  0  0  0  0  0
  141.0550   71.6150  224.5460 C   0  0  0  0  0  0  0  0  0  0  0  0
  141.4260   72.0240  221.0850 N   0  0  0  0  0  0  0  0  0  0  0  0
  143.1110   71.1590  218.9140 C   0  0  0  0  0  0  0  0  0  0  0  0
  143.9460   70.9460  217.6430 C   0  0  0  0  0  0  0  0  0  0  0  0
  145.8498   72.5721  220.3146 H   0  0  0  0  0  0  0  0  0  0  0  0
  146.3602   73.9919  219.3398 H   0  0  0  0  0  0  0  0  0  0  0  0
  144.6402   73.4740  219.3398 H   0  0  0  0  0  0  0  0  0  0  0  0
  146.1700   71.2880  218.5940 H   0  0  0  0  0  0  0  0  0  0  0  0
  145.1710   72.0891  216.2772 H   0  0  0  0  0  0  0  0  0  0  0  0
  144.4245   74.2002  218.0490 H   0  0  0  0  0  0  0  0  0  0  0  0
  143.9864   73.9156  216.2993 H   0  0  0  0  0  0  0  0  0  0  0  0
  142.0334   74.2776  217.9088 H   0  0  0  0  0  0  0  0  0  0  0  0
  141.9726   72.8113  216.8723 H   0  0  0  0  0  0  0  0  0  0  0  0
  139.8488   76.1499  219.3694 H   0  0  0  0  0  0  0  0  0  0  0  0
  138.9500   77.3007  220.4071 H   0  0  0  0  0  0  0  0  0  0  0  0
  141.9124   77.3497  219.6504 H   0  0  0  0  0  0  0  0  0  0  0  0
  140.6329   78.5871  219.3022 H   0  0  0  0  0  0  0  0  0  0  0  0
  142.2932   80.2267  220.2436 H   0  0  0  0  0  0  0  0  0  0  0  0
  142.9565   81.4352  222.3195 H   0  0  0  0  0  0  0  0  0  0  0  0
  142.4100   80.4755  224.5562 H   0  0  0  0  0  0  0  0  0  0  0  0
  141.2064   78.3004  224.7253 H   0  0  0  0  0  0  0  0  0  0  0  0
  140.8102   76.0891  223.4605 H   0  0  0  0  0  0  0  0  0  0  0  0
  139.2813   76.9480  223.0260 H   0  0  0  0  0  0  0  0  0  0  0  0
  139.0441   70.4740  221.9808 H   0  0  0  0  0  0  0  0  0  0  0  0
  140.2214   69.4285  222.8516 H   0  0  0  0  0  0  0  0  0  0  0  0
  137.8541   70.9414  224.0640 H   0  0  0  0  0  0  0  0  0  0  0  0
  138.0207   69.1575  223.8610 H   0  0  0  0  0  0  0  0  0  0  0  0
  137.7350   68.7209  226.2470 H   0  0  0  0  0  0  0  0  0  0  0  0
  138.8525   68.5968  228.4719 H   0  0  0  0  0  0  0  0  0  0  0  0
  140.9928   69.8192  228.8685 H   0  0  0  0  0  0  0  0  0  0  0  0
  142.0001   71.1983  227.0503 H   0  0  0  0  0  0  0  0  0  0  0  0
  140.9711   72.6597  224.8799 H   0  0  0  0  0  0  0  0  0  0  0  0
  142.1012   71.3002  224.4185 H   0  0  0  0  0  0  0  0  0  0  0  0
  143.7773   71.1183  219.7883 H   0  0  0  0  0  0  0  0  0  0  0  0
  142.3496   70.3663  218.9585 H   0  0  0  0  0  0  0  0  0  0  0  0
  144.6131   70.0846  217.7946 H   0  0  0  0  0  0  0  0  0  0  0  0
  143.2565   70.7668  216.8049 H   0  0  0  0  0  0  0  0  0  0  0  0
  1  2  1  0
  2  3  1  0
  3  4  1  0
  4  5  1  0
  5  6  1  0
  6  7  1  0
  7  8  2  0
  8  9  1  0
  9 10  1  0
 10 11  1  0
 11 12  1  0
 12 13  1  0
 13 14  2  0
 14 15  1  0
 15 16  2  0
 16 17  1  0
 17 18  2  0
 18 19  1  0
  9 20  2  0
 20 21  1  0
 21 22  1  0
 22 23  1  0
 23 24  1  0
 24 25  1  0
 25 26  2  0
 26 27  1  0
 27 28  2  0
 28 29  1  0
 29 30  2  0
 30 31  1  0
 21 32  2  0
  6 33  1  0
 33 34  1  0
 34  3  1  0
 32  7  1  0
 19 10  1  0
 31 22  1  0
 18 13  1  0
 30 25  1  0
  1 35  1  0
  1 36  1  0
  1 37  1  0
  2 38  1  0
  3 39  1  0
  4 40  1  0
  4 41  1  0
  5 42  1  0
  5 43  1  0
 11 44  1  0
 11 45  1  0
 12 46  1  0
 12 47  1  0
 14 48  1  0
 15 49  1  0
 16 50  1  0
 17 51  1  0
 19 52  1  0
 19 53  1  0
 23 54  1  0
 23 55  1  0
 24 56  1  0
 24 57  1  0
 26 58  1  0
 27 59  1  0
 28 60  1  0
 29 61  1  0
 31 62  1  0
 31 63  1  0
 33 64  1  0
 33 65  1  0
 34 66  1  0
 34 67  1  0
M  END
>  <UniqueID>  (2) 
57

>  <SMILES>  (2) 
CNC1CCN(c2nc(N3CCc4ccccc4C3)nc(N3CCc4ccccc4C3)n2)CC1

>  <Energy>  (2) 
80.63595697295537

>  <Genealogy>  (2) 
CNC1CCN(c2nc(N3CCc4ccccc4C3)nc(N3CCc4ccccc4C3)n2)CC1 (3D coordinates assigned)
CNC1CCN(c2nc(N3CCc4ccccc4C3)nc(N3CCc4ccccc4C3)n2)CC1 (nonaromatic ring conformer: 80.63595697295537 kcal/mol)

>  <smiles>  (2) 
CNC1CCN(c2nc(N3CCc4ccccc4C3)nc(N3CCc4ccccc4C3)n2)CC1

>  <score_type>  (2) 
oracle

>  <origin>  (2) 
autodockgpu

>  <m_score__min__energy>  (2) 
-8.9900000000000002

>  <m_primary>  (2) 
energy

>  <meeko>  (2) 
{"free_energy": -8.86, "intermolecular_energy": -10.06, "internal_energy": -1.03, "cluster_size": 18, "cluster_id": 1, "rank_in_cluster": 6}

>  <energy>  (2) 
-8.98

>  <cluster_rmsd>  (2) 
0.05

>  <rmsd>  (2) 
271.81

>  <cluster>  (2) 
1

$$$$
DSYBMJCSYFRFMG-UHFFFAOYNA-N
     RDKit          3D

 67 72  0  0  0  0  0  0  0  0999 V2000
  145.9370   73.8300  220.8810 C   0  0  0  0  0  0  0  0  0  0  0  0
  146.3940   72.6200  220.1900 N   0  0  0  0  0  0  0  0  0  0  0  0
  145.5650   72.3150  219.0050 C   0  0  0  0  0  0  0  0  0  0  0  0
  144.7220   73.5490  218.5500 C   0  0  0  0  0  0  0  0  0  0  0  0
  143.2130   73.2840  218.5390 C   0  0  0  0  0  0  0  0  0  0  0  0
  142.8160   72.6420  219.8020 N   0  0  0  0  0  0  0  0  0  0  0  0
  141.8060   73.2150  220.6570 C   0  0  0  0  0  0  0  0  0  0  0  0
  141.5760   74.5540  220.6370 N   0  0  0  0  0  0  0  0  0  0  0  0
  140.6000   75.1060  221.4030 C   0  0  0  0  0  0  0  0  0  0  0  0
  140.3490   76.5280  221.3570 N   0  0  0  0  0  0  0  0  0  0  0  0
  140.5180   77.2980  220.1230 C   0  0  0  0  0  0  0  0  0  0  0  0
  141.7440   78.2000  220.2680 C   0  0  0  0  0  0  0  0  0  0  0  0
  141.7340   78.9510  221.5780 C   0  0  0  0  0  0  0  0  0  0  0  0
  142.5610   80.0760  221.7260 C   0  0  0  0  0  0  0  0  0  0  0  0
  142.6110   80.7630  222.9420 C   0  0  0  0  0  0  0  0  0  0  0  0
  141.8440   80.3280  224.0240 C   0  0  0  0  0  0  0  0  0  0  0  0
  141.0290   79.2010  223.8980 C   0  0  0  0  0  0  0  0  0  0  0  0
  140.9770   78.4930  222.6870 C   0  0  0  0  0  0  0  0  0  0  0  0
  140.0560   77.2990  222.5730 C   0  0  0  0  0  0  0  0  0  0  0  0
  139.8470   74.2990  222.1960 N   0  0  0  0  0  0  0  0  0  0  0  0
  140.0670   72.9590  222.2360 C   0  0  0  0  0  0  0  0  0  0  0  0
  139.2490   72.1150  223.0730 N   0  0  0  0  0  0  0  0  0  0  0  0
  139.8170   71.4590  224.2590 C   0  0  0  0  0  0  0  0  0  0  0  0
  139.3010   70.0280  224.3580 C   0  0  0  0  0  0  0  0  0  0  0  0
  137.7990   70.0130  224.3410 C   0  0  0  0  0  0  0  0  0  0  0  0
  137.1020   68.9770  224.9850 C   0  0  0  0  0  0  0  0  0  0  0  0
  135.7060   68.9370  224.9480 C   0  0  0  0  0  0  0  0  0  0  0  0
  134.9960   69.9240  224.2620 C   0  0  0  0  0  0  0  0  0  0  0  0
  135.6800   70.9460  223.5980 C   0  0  0  0  0  0  0  0  0  0  0  0
  137.0840   70.9980  223.6250 C   0  0  0  0  0  0  0  0  0  0  0  0
  137.7930   72.0800  222.8430 C   0  0  0  0  0  0  0  0  0  0  0  0
  141.0460   72.4260  221.4610 N   0  0  0  0  0  0  0  0  0  0  0  0
  143.5200   71.4250  220.2380 C   0  0  0  0  0  0  0  0  0  0  0  0
  144.6930   71.0780  219.3080 C   0  0  0  0  0  0  0  0  0  0  0  0
  145.9954   73.6754  221.9685 H   0  0  0  0  0  0  0  0  0  0  0  0
  146.5766   74.6785  220.5964 H   0  0  0  0  0  0  0  0  0  0  0  0
  144.8962   74.0438  220.5964 H   0  0  0  0  0  0  0  0  0  0  0  0
  146.3690   71.8190  220.8630 H   0  0  0  0  0  0  0  0  0  0  0  0
  146.2202   72.0802  218.1532 H   0  0  0  0  0  0  0  0  0  0  0  0
  144.9246   74.3827  219.2384 H   0  0  0  0  0  0  0  0  0  0  0  0
  145.0185   73.7818  217.5166 H   0  0  0  0  0  0  0  0  0  0  0  0
  142.6747   74.2368  218.4275 H   0  0  0  0  0  0  0  0  0  0  0  0
  142.9645   72.6203  217.6977 H   0  0  0  0  0  0  0  0  0  0  0  0
  140.6625   76.6114  219.2758 H   0  0  0  0  0  0  0  0  0  0  0  0
  139.6231   77.9109  219.9398 H   0  0  0  0  0  0  0  0  0  0  0  0
  142.6508   77.5792  220.2201 H   0  0  0  0  0  0  0  0  0  0  0  0
  141.7262   78.9362  219.4509 H   0  0  0  0  0  0  0  0  0  0  0  0
  143.1736   80.4189  220.8792 H   0  0  0  0  0  0  0  0  0  0  0  0
  143.2559   81.6480  223.0466 H   0  0  0  0  0  0  0  0  0  0  0  0
  141.8816   80.8741  224.9781 H   0  0  0  0  0  0  0  0  0  0  0  0
  140.4239   78.8659  224.7533 H   0  0  0  0  0  0  0  0  0  0  0  0
  140.1937   76.6522  223.4520 H   0  0  0  0  0  0  0  0  0  0  0  0
  139.0177   77.6585  222.5208 H   0  0  0  0  0  0  0  0  0  0  0  0
  140.9140   71.4463  224.1785 H   0  0  0  0  0  0  0  0  0  0  0  0
  139.5164   72.0153  225.1591 H   0  0  0  0  0  0  0  0  0  0  0  0
  139.6794   69.4460  223.5047 H   0  0  0  0  0  0  0  0  0  0  0  0
  139.6526   69.5854  225.3016 H   0  0  0  0  0  0  0  0  0  0  0  0
  137.6581   68.1937  225.5209 H   0  0  0  0  0  0  0  0  0  0  0  0
  135.1657   68.1270  225.4599 H   0  0  0  0  0  0  0  0  0  0  0  0
  133.8965   69.8973  224.2440 H   0  0  0  0  0  0  0  0  0  0  0  0
  135.1154   71.7150  223.0505 H   0  0  0  0  0  0  0  0  0  0  0  0
  137.6140   71.9089  221.7712 H   0  0  0  0  0  0  0  0  0  0  0  0
  137.3885   73.0439  223.1853 H   0  0  0  0  0  0  0  0  0  0  0  0
  143.9074   71.5833  221.2553 H   0  0  0  0  0  0  0  0  0  0  0  0
  142.8051   70.5894  220.2118 H   0  0  0  0  0  0  0  0  0  0  0  0
  145.3167   70.3116  219.7913 H   0  0  0  0  0  0  0  0  0  0  0  0
  144.2801   70.7078  218.3580 H   0  0  0  0  0  0  0  0  0  0  0  0
  1  2  1  0
  2  3  1  0
  3  4  1  0
  4  5  1  0
  5  6  1  0
  6  7  1  0
  7  8  2  0
  8  9  1  0
  9 10  1  0
 10 11  1  0
 11 12  1  0
 12 13  1  0
 13 14  2  0
 14 15  1  0
 15 16  2  0
 16 17  1  0
 17 18  2  0
 18 19  1  0
  9 20  2  0
 20 21  1  0
 21 22  1  0
 22 23  1  0
 23 24  1  0
 24 25  1  0
 25 26  2  0
 26 27  1  0
 27 28  2  0
 28 29  1  0
 29 30  2  0
 30 31  1  0
 21 32  2  0
  6 33  1  0
 33 34  1  0
 34  3  1  0
 32  7  1  0
 19 10  1  0
 31 22  1  0
 18 13  1  0
 30 25  1  0
  1 35  1  0
  1 36  1  0
  1 37  1  0
  2 38  1  0
  3 39  1  0
  4 40  1  0
  4 41  1  0
  5 42  1  0
  5 43  1  0
 11 44  1  0
 11 45  1  0
 12 46  1  0
 12 47  1  0
 14 48  1  0
 15 49  1  0
 16 50  1  0
 17 51  1  0
 19 52  1  0
 19 53  1  0
 23 54  1  0
 23 55  1  0
 24 56  1  0
 24 57  1  0
 26 58  1  0
 27 59  1  0
 28 60  1  0
 29 61  1  0
 31 62  1  0
 31 63  1  0
 33 64  1  0
 33 65  1  0
 34 66  1  0
 34 67  1  0
M  END
>  <UniqueID>  (3) 
57

>  <SMILES>  (3) 
CNC1CCN(c2nc(N3CCc4ccccc4C3)nc(N3CCc4ccccc4C3)n2)CC1

>  <Energy>  (3) 
80.63595697295537

>  <Genealogy>  (3) 
CNC1CCN(c2nc(N3CCc4ccccc4C3)nc(N3CCc4ccccc4C3)n2)CC1 (3D coordinates assigned)
CNC1CCN(c2nc(N3CCc4ccccc4C3)nc(N3CCc4ccccc4C3)n2)CC1 (nonaromatic ring conformer: 80.63595697295537 kcal/mol)

>  <smiles>  (3) 
CNC1CCN(c2nc(N3CCc4ccccc4C3)nc(N3CCc4ccccc4C3)n2)CC1

>  <score_type>  (3) 
oracle

>  <origin>  (3) 
autodockgpu

>  <m_score__min__energy>  (3) 
-8.9900000000000002

>  <m_primary>  (3) 
energy

>  <meeko>  (3) 
{"free_energy": -8.82, "intermolecular_energy": -10.02, "internal_energy": -1.06, "cluster_size": 18, "cluster_id": 1, "rank_in_cluster": 13}

>  <energy>  (3) 
-8.9

>  <cluster_rmsd>  (3) 
0.77

>  <rmsd>  (3) 
271.79

>  <cluster>  (3) 
1

$$$$
DSYBMJCSYFRFMG-UHFFFAOYNA-N
     RDKit          3D

 67 72  0  0  0  0  0  0  0  0999 V2000
  145.7880   72.9820  219.5520 C   0  0  0  0  0  0  0  0  0  0  0  0
  145.9520   72.0310  218.4490 N   0  0  0  0  0  0  0  0  0  0  0  0
  144.8510   72.1280  217.4680 C   0  0  0  0  0  0  0  0  0  0  0  0
  144.1370   73.5160  217.5290 C   0  0  0  0  0  0  0  0  0  0  0  0
  142.6380   73.4180  217.8300 C   0  0  0  0  0  0  0  0  0  0  0  0
  142.4240   72.5140  218.9710 N   0  0  0  0  0  0  0  0  0  0  0  0
  141.7240   72.9460  220.1560 C   0  0  0  0  0  0  0  0  0  0  0  0
  141.3170   74.2370  220.2750 N   0  0  0  0  0  0  0  0  0  0  0  0
  140.6200   74.6510  221.3640 C   0  0  0  0  0  0  0  0  0  0  0  0
  140.1720   76.0210  221.4700 N   0  0  0  0  0  0  0  0  0  0  0  0
  139.7550   76.7860  220.2920 C   0  0  0  0  0  0  0  0  0  0  0  0
  140.8050   77.8570  220.0030 C   0  0  0  0  0  0  0  0  0  0  0  0
  141.1820   78.6230  221.2500 C   0  0  0  0  0  0  0  0  0  0  0  0
  141.8370   79.8580  221.1200 C   0  0  0  0  0  0  0  0  0  0  0  0
  142.2430   80.5660  222.2540 C   0  0  0  0  0  0  0  0  0  0  0  0
  142.0080   80.0440  223.5270 C   0  0  0  0  0  0  0  0  0  0  0  0
  141.3730   78.8090  223.6730 C   0  0  0  0  0  0  0  0  0  0  0  0
  140.9700   78.0790  222.5420 C   0  0  0  0  0  0  0  0  0  0  0  0
  140.2520   76.7630  222.7360 C   0  0  0  0  0  0  0  0  0  0  0  0
  140.3290   73.7540  222.3430 N   0  0  0  0  0  0  0  0  0  0  0  0
  140.7340   72.4610  222.2470 C   0  0  0  0  0  0  0  0  0  0  0  0
  140.4040   71.5180  223.2880 N   0  0  0  0  0  0  0  0  0  0  0  0
  139.5970   70.3260  222.9910 C   0  0  0  0  0  0  0  0  0  0  0  0
  138.5840   70.0950  224.1060 C   0  0  0  0  0  0  0  0  0  0  0  0
  139.2800   70.0180  225.4350 C   0  0  0  0  0  0  0  0  0  0  0  0
  138.7180   69.2600  226.4770 C   0  0  0  0  0  0  0  0  0  0  0  0
  139.3410   69.2070  227.7250 C   0  0  0  0  0  0  0  0  0  0  0  0
  140.5240   69.9160  227.9480 C   0  0  0  0  0  0  0  0  0  0  0  0
  141.0780   70.6920  226.9260 C   0  0  0  0  0  0  0  0  0  0  0  0
  140.4620   70.7550  225.6660 C   0  0  0  0  0  0  0  0  0  0  0  0
  141.0540   71.6540  224.6040 C   0  0  0  0  0  0  0  0  0  0  0  0
  141.4280   72.0650  221.1480 N   0  0  0  0  0  0  0  0  0  0  0  0
  143.0010   71.1610  218.9300 C   0  0  0  0  0  0  0  0  0  0  0  0
  143.8780   70.9490  217.6870 C   0  0  0  0  0  0  0  0  0  0  0  0
  145.8796   72.4508  220.5109 H   0  0  0  0  0  0  0  0  0  0  0  0
  146.5657   73.7571  219.4865 H   0  0  0  0  0  0  0  0  0  0  0  0
  144.7956   73.4519  219.4865 H   0  0  0  0  0  0  0  0  0  0  0  0
  145.9960   71.0620  218.8440 H   0  0  0  0  0  0  0  0  0  0  0  0
  145.2631   72.0564  216.4506 H   0  0  0  0  0  0  0  0  0  0  0  0
  144.6121   74.1178  218.3177 H   0  0  0  0  0  0  0  0  0  0  0  0
  144.2386   73.9767  216.5353 H   0  0  0  0  0  0  0  0  0  0  0  0
  142.2474   74.4166  218.0753 H   0  0  0  0  0  0  0  0  0  0  0  0
  142.1122   73.0247  216.9475 H   0  0  0  0  0  0  0  0  0  0  0  0
  139.6658   76.1128  219.4267 H   0  0  0  0  0  0  0  0  0  0  0  0
  138.7802   77.2597  220.4801 H   0  0  0  0  0  0  0  0  0  0  0  0
  141.7052   77.3728  219.5965 H   0  0  0  0  0  0  0  0  0  0  0  0
  140.3786   78.5682  219.2802 H   0  0  0  0  0  0  0  0  0  0  0  0
  142.0318   80.2707  220.1191 H   0  0  0  0  0  0  0  0  0  0  0  0
  142.7488   81.5366  222.1434 H   0  0  0  0  0  0  0  0  0  0  0  0
  142.3239   80.6070  224.4176 H   0  0  0  0  0  0  0  0  0  0  0  0
  141.1872   78.4052  224.6792 H   0  0  0  0  0  0  0  0  0  0  0  0
  140.7996   76.1587  223.4742 H   0  0  0  0  0  0  0  0  0  0  0  0
  139.2308   76.9672  223.0903 H   0  0  0  0  0  0  0  0  0  0  0  0
  139.0650   70.4734  222.0395 H   0  0  0  0  0  0  0  0  0  0  0  0
  140.2584   69.4503  222.9152 H   0  0  0  0  0  0  0  0  0  0  0  0
  137.8646   70.9270  224.1208 H   0  0  0  0  0  0  0  0  0  0  0  0
  138.0590   69.1461  223.9215 H   0  0  0  0  0  0  0  0  0  0  0  0
  137.7828   68.7060  226.3081 H   0  0  0  0  0  0  0  0  0  0  0  0
  138.8999   68.6062  228.5340 H   0  0  0  0  0  0  0  0  0  0  0  0
  141.0198   69.8635  228.9285 H   0  0  0  0  0  0  0  0  0  0  0  0
  142.0034   71.2575  227.1102 H   0  0  0  0  0  0  0  0  0  0  0  0
  140.9529   72.6979  224.9358 H   0  0  0  0  0  0  0  0  0  0  0  0
  142.1052   71.3558  224.4775 H   0  0  0  0  0  0  0  0  0  0  0  0
  143.6162   71.0095  219.8292 H   0  0  0  0  0  0  0  0  0  0  0  0
  142.1725   70.4385  218.8896 H   0  0  0  0  0  0  0  0  0  0  0  0
  144.4606   70.0248  217.8149 H   0  0  0  0  0  0  0  0  0  0  0  0
  143.2186   70.8803  216.8092 H   0  0  0  0  0  0  0  0  0  0  0  0
  1  2  1  0
  2  3  1  0
  3  4  1  0
  4  5  1  0
  5  6  1  0
  6  7  1  0
  7  8  2  0
  8  9  1  0
  9 10  1  0
 10 11  1  0
 11 12  1  0
 12 13  1  0
 13 14  2  0
 14 15  1  0
 15 16  2  0
 16 17  1  0
 17 18  2  0
 18 19  1  0
  9 20  2  0
 20 21  1  0
 21 22  1  0
 22 23  1  0
 23 24  1  0
 24 25  1  0
 25 26  2  0
 26 27  1  0
 27 28  2  0
 28 29  1  0
 29 30  2  0
 30 31  1  0
 21 32  2  0
  6 33  1  0
 33 34  1  0
 34  3  1  0
 32  7  1  0
 19 10  1  0
 31 22  1  0
 18 13  1  0
 30 25  1  0
  1 35  1  0
  1 36  1  0
  1 37  1  0
  2 38  1  0
  3 39  1  0
  4 40  1  0
  4 41  1  0
  5 42  1  0
  5 43  1  0
 11 44  1  0
 11 45  1  0
 12 46  1  0
 12 47  1  0
 14 48  1  0
 15 49  1  0
 16 50  1  0
 17 51  1  0
 19 52  1  0
 19 53  1  0
 23 54  1  0
 23 55  1  0
 24 56  1  0
 24 57  1  0
 26 58  1  0
 27 59  1  0
 28 60  1  0
 29 61  1  0
 31 62  1  0
 31 63  1  0
 33 64  1  0
 33 65  1  0
 34 66  1  0
 34 67  1  0
M  END
>  <UniqueID>  (4) 
57

>  <SMILES>  (4) 
CNC1CCN(c2nc(N3CCc4ccccc4C3)nc(N3CCc4ccccc4C3)n2)CC1

>  <Energy>  (4) 
80.63595697295537

>  <Genealogy>  (4) 
CNC1CCN(c2nc(N3CCc4ccccc4C3)nc(N3CCc4ccccc4C3)n2)CC1 (3D coordinates assigned)
CNC1CCN(c2nc(N3CCc4ccccc4C3)nc(N3CCc4ccccc4C3)n2)CC1 (nonaromatic ring conformer: 80.63595697295537 kcal/mol)

>  <smiles>  (4) 
CNC1CCN(c2nc(N3CCc4ccccc4C3)nc(N3CCc4ccccc4C3)n2)CC1

>  <score_type>  (4) 
oracle

>  <origin>  (4) 
autodockgpu

>  <m_score__min__energy>  (4) 
-8.9900000000000002

>  <m_primary>  (4) 
energy

>  <meeko>  (4) 
{"free_energy": -8.87, "intermolecular_energy": -10.06, "internal_energy": -1.04, "cluster_size": 18, "cluster_id": 1, "rank_in_cluster": 5}

>  <energy>  (4) 
-8.88

>  <cluster_rmsd>  (4) 
1.23

>  <rmsd>  (4) 
271.99

>  <cluster>  (4) 
1

$$$$
DSYBMJCSYFRFMG-UHFFFAOYNA-N
     RDKit          3D

 67 72  0  0  0  0  0  0  0  0999 V2000
  143.3050   75.9370  216.8780 C   0  0  0  0  0  0  0  0  0  0  0  0
  144.5400   75.2770  216.4420 N   0  0  0  0  0  0  0  0  0  0  0  0
  144.4130   73.8050  216.4560 C   0  0  0  0  0  0  0  0  0  0  0  0
  142.9190   73.3490  216.4720 C   0  0  0  0  0  0  0  0  0  0  0  0
  142.5620   72.4760  217.6800 C   0  0  0  0  0  0  0  0  0  0  0  0
  143.0760   73.1030  218.9080 N   0  0  0  0  0  0  0  0  0  0  0  0
  142.2060   73.4250  220.0130 C   0  0  0  0  0  0  0  0  0  0  0  0
  141.7940   74.7060  220.2040 N   0  0  0  0  0  0  0  0  0  0  0  0
  140.9410   75.0200  221.2130 C   0  0  0  0  0  0  0  0  0  0  0  0
  140.4910   76.3810  221.3930 N   0  0  0  0  0  0  0  0  0  0  0  0
  140.1590   77.2380  220.2530 C   0  0  0  0  0  0  0  0  0  0  0  0
  141.2290   78.3210  220.1210 C   0  0  0  0  0  0  0  0  0  0  0  0
  141.5210   78.9840  221.4460 C   0  0  0  0  0  0  0  0  0  0  0  0
  142.1860   80.2210  221.4580 C   0  0  0  0  0  0  0  0  0  0  0  0
  142.5140   80.8360  222.6690 C   0  0  0  0  0  0  0  0  0  0  0  0
  142.1900   80.2190  223.8790 C   0  0  0  0  0  0  0  0  0  0  0  0
  141.5430   78.9810  223.8830 C   0  0  0  0  0  0  0  0  0  0  0  0
  141.2170   78.3440  222.6750 C   0  0  0  0  0  0  0  0  0  0  0  0
  140.4850   77.0230  222.7150 C   0  0  0  0  0  0  0  0  0  0  0  0
  140.4990   74.0340  222.0370 N   0  0  0  0  0  0  0  0  0  0  0  0
  140.9060   72.7490  221.8670 C   0  0  0  0  0  0  0  0  0  0  0  0
  140.4150   71.7110  222.7410 N   0  0  0  0  0  0  0  0  0  0  0  0
  139.4240   70.7360  222.2640 C   0  0  0  0  0  0  0  0  0  0  0  0
  138.3780   70.4900  223.3440 C   0  0  0  0  0  0  0  0  0  0  0  0
  139.0390   70.0760  224.6270 C   0  0  0  0  0  0  0  0  0  0  0  0
  138.3510   69.2560  225.5380 C   0  0  0  0  0  0  0  0  0  0  0  0
  138.9460   68.8910  226.7470 C   0  0  0  0  0  0  0  0  0  0  0  0
  140.2280   69.3470  227.0620 C   0  0  0  0  0  0  0  0  0  0  0  0
  140.9120   70.1830  226.1740 C   0  0  0  0  0  0  0  0  0  0  0  0
  140.3250   70.5580  224.9550 C   0  0  0  0  0  0  0  0  0  0  0  0
  141.0670   71.5140  224.0480 C   0  0  0  0  0  0  0  0  0  0  0  0
  141.7570   72.4540  220.8500 N   0  0  0  0  0  0  0  0  0  0  0  0
  144.4980   73.4750  218.9810 C   0  0  0  0  0  0  0  0  0  0  0  0
  145.2200   73.2420  217.6450 C   0  0  0  0  0  0  0  0  0  0  0  0
  143.2682   75.9567  217.9772 H   0  0  0  0  0  0  0  0  0  0  0  0
  143.2836   76.9668  216.4919 H   0  0  0  0  0  0  0  0  0  0  0  0
  142.4369   75.3825  216.4919 H   0  0  0  0  0  0  0  0  0  0  0  0
  145.3210   75.5760  217.0720 H   0  0  0  0  0  0  0  0  0  0  0  0
  144.8324   73.3952  215.5253 H   0  0  0  0  0  0  0  0  0  0  0  0
  142.2811   74.2450  216.4886 H   0  0  0  0  0  0  0  0  0  0  0  0
  142.7559   72.7392  215.5711 H   0  0  0  0  0  0  0  0  0  0  0  0
  141.4688   72.3757  217.7495 H   0  0  0  0  0  0  0  0  0  0  0  0
  143.0148   71.4808  217.5595 H   0  0  0  0  0  0  0  0  0  0  0  0
  140.1287   76.6347  219.3337 H   0  0  0  0  0  0  0  0  0  0  0  0
  139.1747   77.7032  220.4101 H   0  0  0  0  0  0  0  0  0  0  0  0
  142.1540   77.8634  219.7402 H   0  0  0  0  0  0  0  0  0  0  0  0
  140.8546   79.0896  219.4288 H   0  0  0  0  0  0  0  0  0  0  0  0
  142.4503   80.7087  220.5081 H   0  0  0  0  0  0  0  0  0  0  0  0
  143.0285   81.8082  222.6692 H   0  0  0  0  0  0  0  0  0  0  0  0
  142.4447   80.7086  224.8305 H   0  0  0  0  0  0  0  0  0  0  0  0
  141.2871   78.5017  224.8394 H   0  0  0  0  0  0  0  0  0  0  0  0
  140.9787   76.3593  223.4401 H   0  0  0  0  0  0  0  0  0  0  0  0
  139.4420   77.2075  223.0118 H   0  0  0  0  0  0  0  0  0  0  0  0
  138.9316   71.1279  221.3618 H   0  0  0  0  0  0  0  0  0  0  0  0
  139.9316   69.7889  222.0287 H   0  0  0  0  0  0  0  0  0  0  0  0
  137.8064   71.4146  223.5125 H   0  0  0  0  0  0  0  0  0  0  0  0
  137.7052   69.6852  223.0129 H   0  0  0  0  0  0  0  0  0  0  0  0
  137.3385   68.9000  225.2971 H   0  0  0  0  0  0  0  0  0  0  0  0
  138.4045   68.2435  227.4524 H   0  0  0  0  0  0  0  0  0  0  0  0
  140.7001   69.0482  228.0096 H   0  0  0  0  0  0  0  0  0  0  0  0
  141.9166   70.5492  226.4322 H   0  0  0  0  0  0  0  0  0  0  0  0
  141.1370   72.4890  224.5525 H   0  0  0  0  0  0  0  0  0  0  0  0
  142.0556   71.0730  223.8529 H   0  0  0  0  0  0  0  0  0  0  0  0
  144.5739   74.5401  219.2453 H   0  0  0  0  0  0  0  0  0  0  0  0
  144.9774   72.8425  219.7426 H   0  0  0  0  0  0  0  0  0  0  0  0
  146.2006   73.7393  217.6780 H   0  0  0  0  0  0  0  0  0  0  0  0
  145.3335   72.1575  217.5004 H   0  0  0  0  0  0  0  0  0  0  0  0
  1  2  1  0
  2  3  1  0
  3  4  1  0
  4  5  1  0
  5  6  1  0
  6  7  1  0
  7  8  2  0
  8  9  1  0
  9 10  1  0
 10 11  1  0
 11 12  1  0
 12 13  1  0
 13 14  2  0
 14 15  1  0
 15 16  2  0
 16 17  1  0
 17 18  2  0
 18 19  1  0
  9 20  2  0
 20 21  1  0
 21 22  1  0
 22 23  1  0
 23 24  1  0
 24 25  1  0
 25 26  2  0
 26 27  1  0
 27 28  2  0
 28 29  1  0
 29 30  2  0
 30 31  1  0
 21 32  2  0
  6 33  1  0
 33 34  1  0
 34  3  1  0
 32  7  1  0
 19 10  1  0
 31 22  1  0
 18 13  1  0
 30 25  1  0
  1 35  1  0
  1 36  1  0
  1 37  1  0
  2 38  1  0
  3 39  1  0
  4 40  1  0
  4 41  1  0
  5 42  1  0
  5 43  1  0
 11 44  1  0
 11 45  1  0
 12 46  1  0
 12 47  1  0
 14 48  1  0
 15 49  1  0
 16 50  1  0
 17 51  1  0
 19 52  1  0
 19 53  1  0
 23 54  1  0
 23 55  1  0
 24 56  1  0
 24 57  1  0
 26 58  1  0
 27 59  1  0
 28 60  1  0
 29 61  1  0
 31 62  1  0
 31 63  1  0
 33 64  1  0
 33 65  1  0
 34 66  1  0
 34 67  1  0
M  END
>  <UniqueID>  (5) 
57

>  <SMILES>  (5) 
CNC1CCN(c2nc(N3CCc4ccccc4C3)nc(N3CCc4ccccc4C3)n2)CC1

>  <Energy>  (5) 
80.63595697295537

>  <Genealogy>  (5) 
CNC1CCN(c2nc(N3CCc4ccccc4C3)nc(N3CCc4ccccc4C3)n2)CC1 (3D coordinates assigned)
CNC1CCN(c2nc(N3CCc4ccccc4C3)nc(N3CCc4ccccc4C3)n2)CC1 (nonaromatic ring conformer: 80.63595697295537 kcal/mol)

>  <smiles>  (5) 
CNC1CCN(c2nc(N3CCc4ccccc4C3)nc(N3CCc4ccccc4C3)n2)CC1

>  <score_type>  (5) 
oracle

>  <origin>  (5) 
autodockgpu

>  <m_score__min__energy>  (5) 
-8.9900000000000002

>  <m_primary>  (5) 
energy

>  <meeko>  (5) 
{"free_energy": -8.69, "intermolecular_energy": -9.89, "internal_energy": -1.1, "cluster_size": 18, "cluster_id": 1, "rank_in_cluster": 15}

>  <energy>  (5) 
-8.87

>  <cluster_rmsd>  (5) 
0.82

>  <rmsd>  (5) 
271.8

>  <cluster>  (5) 
1

$$$$
DSYBMJCSYFRFMG-UHFFFAOYNA-N
     RDKit          3D

 67 72  0  0  0  0  0  0  0  0999 V2000
  145.9970   73.7420  220.8500 C   0  0  0  0  0  0  0  0  0  0  0  0
  146.3650   72.5080  220.1470 N   0  0  0  0  0  0  0  0  0  0  0  0
  145.5390   72.2940  218.9410 C   0  0  0  0  0  0  0  0  0  0  0  0
  144.7530   73.5820  218.5360 C   0  0  0  0  0  0  0  0  0  0  0  0
  143.2340   73.3810  218.4960 C   0  0  0  0  0  0  0  0  0  0  0  0
  142.7960   72.6960  219.7220 N   0  0  0  0  0  0  0  0  0  0  0  0
  141.7980   73.2700  220.5920 C   0  0  0  0  0  0  0  0  0  0  0  0
  141.5720   74.6100  220.5790 N   0  0  0  0  0  0  0  0  0  0  0  0
  140.6080   75.1620  221.3600 C   0  0  0  0  0  0  0  0  0  0  0  0
  140.3600   76.5840  221.3210 N   0  0  0  0  0  0  0  0  0  0  0  0
  140.5370   77.3620  220.0920 C   0  0  0  0  0  0  0  0  0  0  0  0
  141.7640   78.2600  220.2500 C   0  0  0  0  0  0  0  0  0  0  0  0
  141.7480   79.0040  221.5640 C   0  0  0  0  0  0  0  0  0  0  0  0
  142.5760   80.1260  221.7240 C   0  0  0  0  0  0  0  0  0  0  0  0
  142.6210   80.8060  222.9430 C   0  0  0  0  0  0  0  0  0  0  0  0
  141.8480   80.3660  224.0190 C   0  0  0  0  0  0  0  0  0  0  0  0
  141.0310   79.2410  223.8820 C   0  0  0  0  0  0  0  0  0  0  0  0
  140.9840   78.5400  222.6660 C   0  0  0  0  0  0  0  0  0  0  0  0
  140.0620   77.3490  222.5400 C   0  0  0  0  0  0  0  0  0  0  0  0
  139.8640   74.3550  222.1620 N   0  0  0  0  0  0  0  0  0  0  0  0
  140.0810   73.0140  222.1950 C   0  0  0  0  0  0  0  0  0  0  0  0
  139.2730   72.1690  223.0410 N   0  0  0  0  0  0  0  0  0  0  0  0
  139.8560   71.5070  224.2150 C   0  0  0  0  0  0  0  0  0  0  0  0
  139.3360   70.0780  224.3170 C   0  0  0  0  0  0  0  0  0  0  0  0
  137.8350   70.0680  224.3220 C   0  0  0  0  0  0  0  0  0  0  0  0
  137.1430   69.0320  224.9730 C   0  0  0  0  0  0  0  0  0  0  0  0
  135.7470   68.9970  224.9570 C   0  0  0  0  0  0  0  0  0  0  0  0
  135.0300   69.9890  224.2850 C   0  0  0  0  0  0  0  0  0  0  0  0
  135.7080   71.0110  223.6140 C   0  0  0  0  0  0  0  0  0  0  0  0
  137.1120   71.0580  223.6210 C   0  0  0  0  0  0  0  0  0  0  0  0
  137.8140   72.1410  222.8320 C   0  0  0  0  0  0  0  0  0  0  0  0
  141.0490   72.4800  221.4040 N   0  0  0  0  0  0  0  0  0  0  0  0
  143.4440   71.4320  220.1060 C   0  0  0  0  0  0  0  0  0  0  0  0
  144.6130   71.0810  219.1750 C   0  0  0  0  0  0  0  0  0  0  0  0
  146.0470   73.5742  221.9360 H   0  0  0  0  0  0  0  0  0  0  0  0
  146.6947   74.5452  220.5706 H   0  0  0  0  0  0  0  0  0  0  0  0
  144.9733   74.0318  220.5706 H   0  0  0  0  0  0  0  0  0  0  0  0
  146.2550   71.7010  220.8050 H   0  0  0  0  0  0  0  0  0  0  0  0
  146.1949   72.0725  218.0862 H   0  0  0  0  0  0  0  0  0  0  0  0
  144.9809   74.3733  219.2653 H   0  0  0  0  0  0  0  0  0  0  0  0
  145.0719   73.8503  217.5180 H   0  0  0  0  0  0  0  0  0  0  0  0
  142.7367   74.3596  218.4255 H   0  0  0  0  0  0  0  0  0  0  0  0
  142.9686   72.7700  217.6206 H   0  0  0  0  0  0  0  0  0  0  0  0
  140.6846   76.6806  219.2411 H   0  0  0  0  0  0  0  0  0  0  0  0
  139.6444   77.9778  219.9076 H   0  0  0  0  0  0  0  0  0  0  0  0
  142.6695   77.6371  220.2043 H   0  0  0  0  0  0  0  0  0  0  0  0
  141.7529   79.0009  219.4370 H   0  0  0  0  0  0  0  0  0  0  0  0
  143.1943   80.4724  220.8827 H   0  0  0  0  0  0  0  0  0  0  0  0
  143.2665   81.6896  223.0555 H   0  0  0  0  0  0  0  0  0  0  0  0
  141.8823   80.9062  224.9766 H   0  0  0  0  0  0  0  0  0  0  0  0
  140.4206   78.9021  224.7321 H   0  0  0  0  0  0  0  0  0  0  0  0
  140.1937   76.6969  223.4160 H   0  0  0  0  0  0  0  0  0  0  0  0
  139.0247   77.7109  222.4840 H   0  0  0  0  0  0  0  0  0  0  0  0
  140.9516   71.4903  224.1176 H   0  0  0  0  0  0  0  0  0  0  0  0
  139.5714   72.0613  225.1215 H   0  0  0  0  0  0  0  0  0  0  0  0
  139.6997   69.4974  223.4564 H   0  0  0  0  0  0  0  0  0  0  0  0
  139.6995   69.6314  225.2542 H   0  0  0  0  0  0  0  0  0  0  0  0
  137.7040   68.2447  225.4978 H   0  0  0  0  0  0  0  0  0  0  0  0
  135.2117   68.1871  225.4743 H   0  0  0  0  0  0  0  0  0  0  0  0
  133.9302   69.9663  224.2836 H   0  0  0  0  0  0  0  0  0  0  0  0
  135.1382   71.7836  223.0769 H   0  0  0  0  0  0  0  0  0  0  0  0
  137.6186   71.9746  221.7623 H   0  0  0  0  0  0  0  0  0  0  0  0
  137.4183   73.1053  223.1834 H   0  0  0  0  0  0  0  0  0  0  0  0
  143.8240   71.5254  221.1340 H   0  0  0  0  0  0  0  0  0  0  0  0
  142.6958   70.6292  220.0306 H   0  0  0  0  0  0  0  0  0  0  0  0
  145.1984   70.2676  219.6285 H   0  0  0  0  0  0  0  0  0  0  0  0
  144.1982   70.7732  218.2038 H   0  0  0  0  0  0  0  0  0  0  0  0
  1  2  1  0
  2  3  1  0
  3  4  1  0
  4  5  1  0
  5  6  1  0
  6  7  1  0
  7  8  2  0
  8  9  1  0
  9 10  1  0
 10 11  1  0
 11 12  1  0
 12 13  1  0
 13 14  2  0
 14 15  1  0
 15 16  2  0
 16 17  1  0
 17 18  2  0
 18 19  1  0
  9 20  2  0
 20 21  1  0
 21 22  1  0
 22 23  1  0
 23 24  1  0
 24 25  1  0
 25 26  2  0
 26 27  1  0
 27 28  2  0
 28 29  1  0
 29 30  2  0
 30 31  1  0
 21 32  2  0
  6 33  1  0
 33 34  1  0
 34  3  1  0
 32  7  1  0
 19 10  1  0
 31 22  1  0
 18 13  1  0
 30 25  1  0
  1 35  1  0
  1 36  1  0
  1 37  1  0
  2 38  1  0
  3 39  1  0
  4 40  1  0
  4 41  1  0
  5 42  1  0
  5 43  1  0
 11 44  1  0
 11 45  1  0
 12 46  1  0
 12 47  1  0
 14 48  1  0
 15 49  1  0
 16 50  1  0
 17 51  1  0
 19 52  1  0
 19 53  1  0
 23 54  1  0
 23 55  1  0
 24 56  1  0
 24 57  1  0
 26 58  1  0
 27 59  1  0
 28 60  1  0
 29 61  1  0
 31 62  1  0
 31 63  1  0
 33 64  1  0
 33 65  1  0
 34 66  1  0
 34 67  1  0
M  END
>  <UniqueID>  (6) 
57

>  <SMILES>  (6) 
CNC1CCN(c2nc(N3CCc4ccccc4C3)nc(N3CCc4ccccc4C3)n2)CC1

>  <Energy>  (6) 
80.63595697295537

>  <Genealogy>  (6) 
CNC1CCN(c2nc(N3CCc4ccccc4C3)nc(N3CCc4ccccc4C3)n2)CC1 (3D coordinates assigned)
CNC1CCN(c2nc(N3CCc4ccccc4C3)nc(N3CCc4ccccc4C3)n2)CC1 (nonaromatic ring conformer: 80.63595697295537 kcal/mol)

>  <smiles>  (6) 
CNC1CCN(c2nc(N3CCc4ccccc4C3)nc(N3CCc4ccccc4C3)n2)CC1

>  <score_type>  (6) 
oracle

>  <origin>  (6) 
autodockgpu

>  <m_score__min__energy>  (6) 
-8.9900000000000002

>  <m_primary>  (6) 
energy

>  <meeko>  (6) 
{"free_energy": -8.83, "intermolecular_energy": -10.02, "internal_energy": -1.05, "cluster_size": 18, "cluster_id": 1, "rank_in_cluster": 11}

>  <energy>  (6) 
-8.86

>  <cluster_rmsd>  (6) 
0.75

>  <rmsd>  (6) 
271.77

>  <cluster>  (6) 
1

$$$$
DSYBMJCSYFRFMG-UHFFFAOYNA-N
     RDKit          3D

 67 72  0  0  0  0  0  0  0  0999 V2000
  143.4630   75.9170  217.0700 C   0  0  0  0  0  0  0  0  0  0  0  0
  144.5930   75.1820  216.4930 N   0  0  0  0  0  0  0  0  0  0  0  0
  144.3280   73.7300  216.4200 C   0  0  0  0  0  0  0  0  0  0  0  0
  142.7980   73.4160  216.4270 C   0  0  0  0  0  0  0  0  0  0  0  0
  142.3680   72.5090  217.5850 C   0  0  0  0  0  0  0  0  0  0  0  0
  142.9460   73.0090  218.8430 N   0  0  0  0  0  0  0  0  0  0  0  0
  142.1170   73.3450  219.9750 C   0  0  0  0  0  0  0  0  0  0  0  0
  141.7190   74.6290  220.1710 N   0  0  0  0  0  0  0  0  0  0  0  0
  140.9040   74.9550  221.2070 C   0  0  0  0  0  0  0  0  0  0  0  0
  140.4670   76.3200  221.3930 N   0  0  0  0  0  0  0  0  0  0  0  0
  140.1350   77.1820  220.2560 C   0  0  0  0  0  0  0  0  0  0  0  0
  141.2150   78.2550  220.1190 C   0  0  0  0  0  0  0  0  0  0  0  0
  141.5210   78.9130  221.4430 C   0  0  0  0  0  0  0  0  0  0  0  0
  142.1980   80.1430  221.4530 C   0  0  0  0  0  0  0  0  0  0  0  0
  142.5400   80.7530  222.6630 C   0  0  0  0  0  0  0  0  0  0  0  0
  142.2190   80.1370  223.8740 C   0  0  0  0  0  0  0  0  0  0  0  0
  141.5610   78.9050  223.8810 C   0  0  0  0  0  0  0  0  0  0  0  0
  141.2210   78.2740  222.6730 C   0  0  0  0  0  0  0  0  0  0  0  0
  140.4760   76.9590  222.7160 C   0  0  0  0  0  0  0  0  0  0  0  0
  140.4860   73.9770  222.0530 N   0  0  0  0  0  0  0  0  0  0  0  0
  140.8800   72.6890  221.8780 C   0  0  0  0  0  0  0  0  0  0  0  0
  140.4150   71.6600  222.7770 N   0  0  0  0  0  0  0  0  0  0  0  0
  139.4900   70.6190  222.3090 C   0  0  0  0  0  0  0  0  0  0  0  0
  138.4240   70.3590  223.3680 C   0  0  0  0  0  0  0  0  0  0  0  0
  139.0650   70.0270  224.6840 C   0  0  0  0  0  0  0  0  0  0  0  0
  138.3910   69.2070  225.6050 C   0  0  0  0  0  0  0  0  0  0  0  0
  138.9660   68.9170  226.8440 C   0  0  0  0  0  0  0  0  0  0  0  0
  140.2130   69.4500  227.1790 C   0  0  0  0  0  0  0  0  0  0  0  0
  140.8820   70.2860  226.2800 C   0  0  0  0  0  0  0  0  0  0  0  0
  140.3150   70.5860  225.0300 C   0  0  0  0  0  0  0  0  0  0  0  0
  141.0350   71.5450  224.1090 C   0  0  0  0  0  0  0  0  0  0  0  0
  141.6940   72.3820  220.8350 N   0  0  0  0  0  0  0  0  0  0  0  0
  144.3970   73.2420  218.9200 C   0  0  0  0  0  0  0  0  0  0  0  0
  145.0860   73.0230  217.5640 C   0  0  0  0  0  0  0  0  0  0  0  0
  143.5225   75.8783  218.1677 H   0  0  0  0  0  0  0  0  0  0  0  0
  143.4991   76.9649  216.7376 H   0  0  0  0  0  0  0  0  0  0  0  0
  142.5197   75.4592  216.7376 H   0  0  0  0  0  0  0  0  0  0  0  0
  145.4440   75.3630  217.0760 H   0  0  0  0  0  0  0  0  0  0  0  0
  144.7009   73.3399  215.4615 H   0  0  0  0  0  0  0  0  0  0  0  0
  142.2476   74.3652  216.5047 H   0  0  0  0  0  0  0  0  0  0  0  0
  142.5724   72.8797  215.4935 H   0  0  0  0  0  0  0  0  0  0  0  0
  141.2706   72.5075  217.6612 H   0  0  0  0  0  0  0  0  0  0  0  0
  142.7250   71.4852  217.3998 H   0  0  0  0  0  0  0  0  0  0  0  0
  140.0928   76.5805  219.3360 H   0  0  0  0  0  0  0  0  0  0  0  0
  139.1560   77.6561  220.4199 H   0  0  0  0  0  0  0  0  0  0  0  0
  142.1332   77.7890  219.7321 H   0  0  0  0  0  0  0  0  0  0  0  0
  140.8442   79.0281  219.4300 H   0  0  0  0  0  0  0  0  0  0  0  0
  142.4609   80.6297  220.5022 H   0  0  0  0  0  0  0  0  0  0  0  0
  143.0632   81.7206  222.6612 H   0  0  0  0  0  0  0  0  0  0  0  0
  142.4848   80.6228  224.8244 H   0  0  0  0  0  0  0  0  0  0  0  0
  141.3076   78.4260  224.8382 H   0  0  0  0  0  0  0  0  0  0  0  0
  140.9682   76.2892  223.4365 H   0  0  0  0  0  0  0  0  0  0  0  0
  139.4369   77.1527  223.0207 H   0  0  0  0  0  0  0  0  0  0  0  0
  139.0066   70.9518  221.3787 H   0  0  0  0  0  0  0  0  0  0  0  0
  140.0516   69.6913  222.1245 H   0  0  0  0  0  0  0  0  0  0  0  0
  137.8016   71.2585  223.4845 H   0  0  0  0  0  0  0  0  0  0  0  0
  137.8031   69.5090  223.0486 H   0  0  0  0  0  0  0  0  0  0  0  0
  137.4053   68.7914  225.3485 H   0  0  0  0  0  0  0  0  0  0  0  0
  138.4364   68.2681  227.5570 H   0  0  0  0  0  0  0  0  0  0  0  0
  140.6691   69.2117  228.1512 H   0  0  0  0  0  0  0  0  0  0  0  0
  141.8588   70.7117  226.5532 H   0  0  0  0  0  0  0  0  0  0  0  0
  141.0397   72.5401  224.5777 H   0  0  0  0  0  0  0  0  0  0  0  0
  142.0502   71.1486  223.9596 H   0  0  0  0  0  0  0  0  0  0  0  0
  144.5740   74.2777  219.2455 H   0  0  0  0  0  0  0  0  0  0  0  0
  144.8199   72.5229  219.6370 H   0  0  0  0  0  0  0  0  0  0  0  0
  146.1093   73.4233  217.6149 H   0  0  0  0  0  0  0  0  0  0  0  0
  145.0962   71.9433  217.3539 H   0  0  0  0  0  0  0  0  0  0  0  0
  1  2  1  0
  2  3  1  0
  3  4  1  0
  4  5  1  0
  5  6  1  0
  6  7  1  0
  7  8  2  0
  8  9  1  0
  9 10  1  0
 10 11  1  0
 11 12  1  0
 12 13  1  0
 13 14  2  0
 14 15  1  0
 15 16  2  0
 16 17  1  0
 17 18  2  0
 18 19  1  0
  9 20  2  0
 20 21  1  0
 21 22  1  0
 22 23  1  0
 23 24  1  0
 24 25  1  0
 25 26  2  0
 26 27  1  0
 27 28  2  0
 28 29  1  0
 29 30  2  0
 30 31  1  0
 21 32  2  0
  6 33  1  0
 33 34  1  0
 34  3  1  0
 32  7  1  0
 19 10  1  0
 31 22  1  0
 18 13  1  0
 30 25  1  0
  1 35  1  0
  1 36  1  0
  1 37  1  0
  2 38  1  0
  3 39  1  0
  4 40  1  0
  4 41  1  0
  5 42  1  0
  5 43  1  0
 11 44  1  0
 11 45  1  0
 12 46  1  0
 12 47  1  0
 14 48  1  0
 15 49  1  0
 16 50  1  0
 17 51  1  0
 19 52  1  0
 19 53  1  0
 23 54  1  0
 23 55  1  0
 24 56  1  0
 24 57  1  0
 26 58  1  0
 27 59  1  0
 28 60  1  0
 29 61  1  0
 31 62  1  0
 31 63  1  0
 33 64  1  0
 33 65  1  0
 34 66  1  0
 34 67  1  0
M  END
>  <UniqueID>  (7) 
57

>  <SMILES>  (7) 
CNC1CCN(c2nc(N3CCc4ccccc4C3)nc(N3CCc4ccccc4C3)n2)CC1

>  <Energy>  (7) 
80.63595697295537

>  <Genealogy>  (7) 
CNC1CCN(c2nc(N3CCc4ccccc4C3)nc(N3CCc4ccccc4C3)n2)CC1 (3D coordinates assigned)
CNC1CCN(c2nc(N3CCc4ccccc4C3)nc(N3CCc4ccccc4C3)n2)CC1 (nonaromatic ring conformer: 80.63595697295537 kcal/mol)

>  <smiles>  (7) 
CNC1CCN(c2nc(N3CCc4ccccc4C3)nc(N3CCc4ccccc4C3)n2)CC1

>  <score_type>  (7) 
oracle

>  <origin>  (7) 
autodockgpu

>  <m_score__min__energy>  (7) 
-8.9900000000000002

>  <m_primary>  (7) 
energy

>  <meeko>  (7) 
{"free_energy": -8.63, "intermolecular_energy": -9.83, "internal_energy": -1.1, "cluster_size": 18, "cluster_id": 1, "rank_in_cluster": 18}

>  <energy>  (7) 
-8.86

>  <cluster_rmsd>  (7) 
0.77

>  <rmsd>  (7) 
271.79

>  <cluster>  (7) 
1

$$$$
DSYBMJCSYFRFMG-UHFFFAOYNA-N
     RDKit          3D

 67 72  0  0  0  0  0  0  0  0999 V2000
  145.9640   73.7790  220.8560 C   0  0  0  0  0  0  0  0  0  0  0  0
  146.4010   72.5690  220.1530 N   0  0  0  0  0  0  0  0  0  0  0  0
  145.5740   72.2960  218.9590 C   0  0  0  0  0  0  0  0  0  0  0  0
  144.7550   73.5500  218.5180 C   0  0  0  0  0  0  0  0  0  0  0  0
  143.2410   73.3110  218.4940 C   0  0  0  0  0  0  0  0  0  0  0  0
  142.8260   72.6570  219.7440 N   0  0  0  0  0  0  0  0  0  0  0  0
  141.8200   73.2340  220.6020 C   0  0  0  0  0  0  0  0  0  0  0  0
  141.5910   74.5730  220.5770 N   0  0  0  0  0  0  0  0  0  0  0  0
  140.6190   75.1290  221.3450 C   0  0  0  0  0  0  0  0  0  0  0  0
  140.3670   76.5500  221.2930 N   0  0  0  0  0  0  0  0  0  0  0  0
  140.5650   77.3210  220.0640 C   0  0  0  0  0  0  0  0  0  0  0  0
  141.7860   78.2240  220.2380 C   0  0  0  0  0  0  0  0  0  0  0  0
  141.7440   78.9750  221.5480 C   0  0  0  0  0  0  0  0  0  0  0  0
  142.5660   80.1010  221.7160 C   0  0  0  0  0  0  0  0  0  0  0  0
  142.5870   80.7880  222.9320 C   0  0  0  0  0  0  0  0  0  0  0  0
  141.7940   80.3520  223.9960 C   0  0  0  0  0  0  0  0  0  0  0  0
  140.9840   79.2240  223.8510 C   0  0  0  0  0  0  0  0  0  0  0  0
  140.9610   78.5160  222.6380 C   0  0  0  0  0  0  0  0  0  0  0  0
  140.0450   77.3210  222.5020 C   0  0  0  0  0  0  0  0  0  0  0  0
  139.8700   74.3260  222.1470 N   0  0  0  0  0  0  0  0  0  0  0  0
  140.0900   72.9860  222.1920 C   0  0  0  0  0  0  0  0  0  0  0  0
  139.2760   72.1460  223.0370 N   0  0  0  0  0  0  0  0  0  0  0  0
  139.8470   71.5100  224.2330 C   0  0  0  0  0  0  0  0  0  0  0  0
  139.3420   70.0770  224.3490 C   0  0  0  0  0  0  0  0  0  0  0  0
  137.8410   70.0480  224.3280 C   0  0  0  0  0  0  0  0  0  0  0  0
  137.1500   69.0150  224.9830 C   0  0  0  0  0  0  0  0  0  0  0  0
  135.7550   68.9620  224.9430 C   0  0  0  0  0  0  0  0  0  0  0  0
  135.0380   69.9350  224.2420 C   0  0  0  0  0  0  0  0  0  0  0  0
  135.7170   70.9540  223.5660 C   0  0  0  0  0  0  0  0  0  0  0  0
  137.1190   71.0180  223.5970 C   0  0  0  0  0  0  0  0  0  0  0  0
  137.8220   72.0960  222.8030 C   0  0  0  0  0  0  0  0  0  0  0  0
  141.0660   72.4490  221.4140 N   0  0  0  0  0  0  0  0  0  0  0  0
  143.5070   71.4220  220.1660 C   0  0  0  0  0  0  0  0  0  0  0  0
  144.6800   71.0690  219.2390 C   0  0  0  0  0  0  0  0  0  0  0  0
  146.0236   73.6139  221.9419 H   0  0  0  0  0  0  0  0  0  0  0  0
  146.6150   74.6206  220.5768 H   0  0  0  0  0  0  0  0  0  0  0  0
  144.9255   74.0104  220.5768 H   0  0  0  0  0  0  0  0  0  0  0  0
  146.3540   71.7600  220.8160 H   0  0  0  0  0  0  0  0  0  0  0  0
  146.2298   72.0633  218.1071 H   0  0  0  0  0  0  0  0  0  0  0  0
  144.9675   74.3697  219.2201 H   0  0  0  0  0  0  0  0  0  0  0  0
  145.0617   73.7929  217.4899 H   0  0  0  0  0  0  0  0  0  0  0  0
  142.7196   74.2744  218.3941 H   0  0  0  0  0  0  0  0  0  0  0  0
  142.9862   72.6648  217.6411 H   0  0  0  0  0  0  0  0  0  0  0  0
  140.7302   76.6350  219.2202 H   0  0  0  0  0  0  0  0  0  0  0  0
  139.6742   77.9334  219.8603 H   0  0  0  0  0  0  0  0  0  0  0  0
  142.6943   77.6042  220.2115 H   0  0  0  0  0  0  0  0  0  0  0  0
  141.7869   78.9603  219.4208 H   0  0  0  0  0  0  0  0  0  0  0  0
  143.1980   80.4446  220.8839 H   0  0  0  0  0  0  0  0  0  0  0  0
  143.2287   81.6733  223.0518 H   0  0  0  0  0  0  0  0  0  0  0  0
  141.8077   80.8986  224.9505 H   0  0  0  0  0  0  0  0  0  0  0  0
  140.3599   78.8876  224.6920 H   0  0  0  0  0  0  0  0  0  0  0  0
  140.1630   76.6743  223.3839 H   0  0  0  0  0  0  0  0  0  0  0  0
  139.0079   77.6794  222.4252 H   0  0  0  0  0  0  0  0  0  0  0  0
  140.9442   71.5049  224.1549 H   0  0  0  0  0  0  0  0  0  0  0  0
  139.5406   72.0755  225.1254 H   0  0  0  0  0  0  0  0  0  0  0  0
  139.7278   69.4872  223.5044 H   0  0  0  0  0  0  0  0  0  0  0  0
  139.6940   69.6504  225.2998 H   0  0  0  0  0  0  0  0  0  0  0  0
  137.7110   68.2434  225.5306 H   0  0  0  0  0  0  0  0  0  0  0  0
  135.2205   68.1538  225.4636 H   0  0  0  0  0  0  0  0  0  0  0  0
  133.9388   69.8996  224.2218 H   0  0  0  0  0  0  0  0  0  0  0  0
  135.1482   71.7108  223.0059 H   0  0  0  0  0  0  0  0  0  0  0  0
  137.6480   71.9095  221.7330 H   0  0  0  0  0  0  0  0  0  0  0  0
  137.4085   73.0609  223.1315 H   0  0  0  0  0  0  0  0  0  0  0  0
  143.8901   71.5586  221.1880 H   0  0  0  0  0  0  0  0  0  0  0  0
  142.7784   70.5990  220.1222 H   0  0  0  0  0  0  0  0  0  0  0  0
  145.2880   70.2859  219.7155 H   0  0  0  0  0  0  0  0  0  0  0  0
  144.2675   70.7188  218.2813 H   0  0  0  0  0  0  0  0  0  0  0  0
  1  2  1  0
  2  3  1  0
  3  4  1  0
  4  5  1  0
  5  6  1  0
  6  7  1  0
  7  8  2  0
  8  9  1  0
  9 10  1  0
 10 11  1  0
 11 12  1  0
 12 13  1  0
 13 14  2  0
 14 15  1  0
 15 16  2  0
 16 17  1  0
 17 18  2  0
 18 19  1  0
  9 20  2  0
 20 21  1  0
 21 22  1  0
 22 23  1  0
 23 24  1  0
 24 25  1  0
 25 26  2  0
 26 27  1  0
 27 28  2  0
 28 29  1  0
 29 30  2  0
 30 31  1  0
 21 32  2  0
  6 33  1  0
 33 34  1  0
 34  3  1  0
 32  7  1  0
 19 10  1  0
 31 22  1  0
 18 13  1  0
 30 25  1  0
  1 35  1  0
  1 36  1  0
  1 37  1  0
  2 38  1  0
  3 39  1  0
  4 40  1  0
  4 41  1  0
  5 42  1  0
  5 43  1  0
 11 44  1  0
 11 45  1  0
 12 46  1  0
 12 47  1  0
 14 48  1  0
 15 49  1  0
 16 50  1  0
 17 51  1  0
 19 52  1  0
 19 53  1  0
 23 54  1  0
 23 55  1  0
 24 56  1  0
 24 57  1  0
 26 58  1  0
 27 59  1  0
 28 60  1  0
 29 61  1  0
 31 62  1  0
 31 63  1  0
 33 64  1  0
 33 65  1  0
 34 66  1  0
 34 67  1  0
M  END
>  <UniqueID>  (8) 
57

>  <SMILES>  (8) 
CNC1CCN(c2nc(N3CCc4ccccc4C3)nc(N3CCc4ccccc4C3)n2)CC1

>  <Energy>  (8) 
80.63595697295537

>  <Genealogy>  (8) 
CNC1CCN(c2nc(N3CCc4ccccc4C3)nc(N3CCc4ccccc4C3)n2)CC1 (3D coordinates assigned)
CNC1CCN(c2nc(N3CCc4ccccc4C3)nc(N3CCc4ccccc4C3)n2)CC1 (nonaromatic ring conformer: 80.63595697295537 kcal/mol)

>  <smiles>  (8) 
CNC1CCN(c2nc(N3CCc4ccccc4C3)nc(N3CCc4ccccc4C3)n2)CC1

>  <score_type>  (8) 
oracle

>  <origin>  (8) 
autodockgpu

>  <m_score__min__energy>  (8) 
-8.9900000000000002

>  <m_primary>  (8) 
energy

>  <meeko>  (8) 
{"free_energy": -8.84, "intermolecular_energy": -10.03, "internal_energy": -1.05, "cluster_size": 18, "cluster_id": 1, "rank_in_cluster": 9}

>  <energy>  (8) 
-8.86

>  <cluster_rmsd>  (8) 
1.26

>  <rmsd>  (8) 
271.97

>  <cluster>  (8) 
1

$$$$
DSYBMJCSYFRFMG-UHFFFAOYNA-N
     RDKit          3D

 67 72  0  0  0  0  0  0  0  0999 V2000
  143.6910   75.6520  217.0400 C   0  0  0  0  0  0  0  0  0  0  0  0
  144.7450   74.6860  216.7140 N   0  0  0  0  0  0  0  0  0  0  0  0
  144.2060   73.3230  216.5270 C   0  0  0  0  0  0  0  0  0  0  0  0
  142.6440   73.3100  216.5230 C   0  0  0  0  0  0  0  0  0  0  0  0
  142.0400   72.4130  217.6090 C   0  0  0  0  0  0  0  0  0  0  0  0
  142.6950   72.6900  218.8970 N   0  0  0  0  0  0  0  0  0  0  0  0
  141.9390   73.0860  220.0600 C   0  0  0  0  0  0  0  0  0  0  0  0
  141.5500   74.3790  220.2110 N   0  0  0  0  0  0  0  0  0  0  0  0
  140.8010   74.7620  221.2770 C   0  0  0  0  0  0  0  0  0  0  0  0
  140.3720   76.1340  221.4160 N   0  0  0  0  0  0  0  0  0  0  0  0
  140.0540   76.9620  220.2500 C   0  0  0  0  0  0  0  0  0  0  0  0
  141.1420   78.0220  220.0860 C   0  0  0  0  0  0  0  0  0  0  0  0
  141.4440   78.7210  221.3910 C   0  0  0  0  0  0  0  0  0  0  0  0
  142.1290   79.9470  221.3660 C   0  0  0  0  0  0  0  0  0  0  0  0
  142.4670   80.5930  222.5570 C   0  0  0  0  0  0  0  0  0  0  0  0
  142.1330   80.0180  223.7850 C   0  0  0  0  0  0  0  0  0  0  0  0
  141.4670   78.7910  223.8270 C   0  0  0  0  0  0  0  0  0  0  0  0
  141.1310   78.1240  222.6380 C   0  0  0  0  0  0  0  0  0  0  0  0
  140.3770   76.8160  222.7180 C   0  0  0  0  0  0  0  0  0  0  0  0
  140.4410   73.8310  222.2000 N   0  0  0  0  0  0  0  0  0  0  0  0
  140.8280   72.5360  222.0710 C   0  0  0  0  0  0  0  0  0  0  0  0
  140.4250   71.5570  223.0530 N   0  0  0  0  0  0  0  0  0  0  0  0
  139.5440   70.4420  222.6800 C   0  0  0  0  0  0  0  0  0  0  0  0
  138.5060   70.2140  223.7730 C   0  0  0  0  0  0  0  0  0  0  0  0
  139.1810   70.0120  225.1000 C   0  0  0  0  0  0  0  0  0  0  0  0
  138.5590   69.2340  226.0910 C   0  0  0  0  0  0  0  0  0  0  0  0
  139.1640   69.0660  227.3380 C   0  0  0  0  0  0  0  0  0  0  0  0
  140.3890   69.6790  227.6100 C   0  0  0  0  0  0  0  0  0  0  0  0
  141.0050   70.4750  226.6400 C   0  0  0  0  0  0  0  0  0  0  0  0
  140.4070   70.6530  225.3810 C   0  0  0  0  0  0  0  0  0  0  0  0
  141.0680   71.5720  224.3790 C   0  0  0  0  0  0  0  0  0  0  0  0
  141.5740   72.1720  220.9960 N   0  0  0  0  0  0  0  0  0  0  0  0
  144.1630   72.6320  218.9790 C   0  0  0  0  0  0  0  0  0  0  0  0
  144.8060   72.3940  217.6050 C   0  0  0  0  0  0  0  0  0  0  0  0
  143.5974   75.7378  218.1326 H   0  0  0  0  0  0  0  0  0  0  0  0
  143.9493   76.6336  216.6159 H   0  0  0  0  0  0  0  0  0  0  0  0
  142.7356   75.3093  216.6159 H   0  0  0  0  0  0  0  0  0  0  0  0
  145.4540   74.6900  217.4840 H   0  0  0  0  0  0  0  0  0  0  0  0
  144.5031   72.9465  215.5370 H   0  0  0  0  0  0  0  0  0  0  0  0
  142.2863   74.3381  216.6812 H   0  0  0  0  0  0  0  0  0  0  0  0
  142.3251   72.9037  215.5518 H   0  0  0  0  0  0  0  0  0  0  0  0
  140.9624   72.6166  217.6948 H   0  0  0  0  0  0  0  0  0  0  0  0
  142.1944   71.3578  217.3395 H   0  0  0  0  0  0  0  0  0  0  0  0
  140.0133   76.3318  219.3493 H   0  0  0  0  0  0  0  0  0  0  0  0
  139.0776   77.4482  220.3925 H   0  0  0  0  0  0  0  0  0  0  0  0
  142.0595   77.5373  219.7208 H   0  0  0  0  0  0  0  0  0  0  0  0
  140.7813   78.7749  219.3697 H   0  0  0  0  0  0  0  0  0  0  0  0
  142.4010   80.4013  220.4018 H   0  0  0  0  0  0  0  0  0  0  0  0
  142.9972   81.5564  222.5278 H   0  0  0  0  0  0  0  0  0  0  0  0
  142.3950   80.5325  224.7213 H   0  0  0  0  0  0  0  0  0  0  0  0
  141.2041   78.3445  224.7973 H   0  0  0  0  0  0  0  0  0  0  0  0
  140.8600   76.1667  223.4630 H   0  0  0  0  0  0  0  0  0  0  0  0
  139.3373   77.0265  223.0089 H   0  0  0  0  0  0  0  0  0  0  0  0
  139.0330   70.6809  221.7356 H   0  0  0  0  0  0  0  0  0  0  0  0
  140.1463   69.5299  222.5561 H   0  0  0  0  0  0  0  0  0  0  0  0
  137.8435   71.0901  223.8326 H   0  0  0  0  0  0  0  0  0  0  0  0
  137.9212   69.3149  223.5288 H   0  0  0  0  0  0  0  0  0  0  0  0
  137.5908   68.7550  225.8834 H   0  0  0  0  0  0  0  0  0  0  0  0
  138.6752   68.4500  228.1072 H   0  0  0  0  0  0  0  0  0  0  0  0
  140.8698   69.5352  228.5889 H   0  0  0  0  0  0  0  0  0  0  0  0
  141.9640   70.9652  226.8637 H   0  0  0  0  0  0  0  0  0  0  0  0
  141.0317   72.5988  224.7718 H   0  0  0  0  0  0  0  0  0  0  0  0
  142.0989   71.2133  224.2424 H   0  0  0  0  0  0  0  0  0  0  0  0
  144.5341   73.5847  219.3847 H   0  0  0  0  0  0  0  0  0  0  0  0
  144.4342   71.7894  219.6320 H   0  0  0  0  0  0  0  0  0  0  0  0
  145.8868   72.5847  217.6790 H   0  0  0  0  0  0  0  0  0  0  0  0
  144.6097   71.3528  217.3094 H   0  0  0  0  0  0  0  0  0  0  0  0
  1  2  1  0
  2  3  1  0
  3  4  1  0
  4  5  1  0
  5  6  1  0
  6  7  1  0
  7  8  2  0
  8  9  1  0
  9 10  1  0
 10 11  1  0
 11 12  1  0
 12 13  1  0
 13 14  2  0
 14 15  1  0
 15 16  2  0
 16 17  1  0
 17 18  2  0
 18 19  1  0
  9 20  2  0
 20 21  1  0
 21 22  1  0
 22 23  1  0
 23 24  1  0
 24 25  1  0
 25 26  2  0
 26 27  1  0
 27 28  2  0
 28 29  1  0
 29 30  2  0
 30 31  1  0
 21 32  2  0
  6 33  1  0
 33 34  1  0
 34  3  1  0
 32  7  1  0
 19 10  1  0
 31 22  1  0
 18 13  1  0
 30 25  1  0
  1 35  1  0
  1 36  1  0
  1 37  1  0
  2 38  1  0
  3 39  1  0
  4 40  1  0
  4 41  1  0
  5 42  1  0
  5 43  1  0
 11 44  1  0
 11 45  1  0
 12 46  1  0
 12 47  1  0
 14 48  1  0
 15 49  1  0
 16 50  1  0
 17 51  1  0
 19 52  1  0
 19 53  1  0
 23 54  1  0
 23 55  1  0
 24 56  1  0
 24 57  1  0
 26 58  1  0
 27 59  1  0
 28 60  1  0
 29 61  1  0
 31 62  1  0
 31 63  1  0
 33 64  1  0
 33 65  1  0
 34 66  1  0
 34 67  1  0
M  END
>  <UniqueID>  (9) 
57

>  <SMILES>  (9) 
CNC1CCN(c2nc(N3CCc4ccccc4C3)nc(N3CCc4ccccc4C3)n2)CC1

>  <Energy>  (9) 
80.63595697295537

>  <Genealogy>  (9) 
CNC1CCN(c2nc(N3CCc4ccccc4C3)nc(N3CCc4ccccc4C3)n2)CC1 (3D coordinates assigned)
CNC1CCN(c2nc(N3CCc4ccccc4C3)nc(N3CCc4ccccc4C3)n2)CC1 (nonaromatic ring conformer: 80.63595697295537 kcal/mol)

>  <smiles>  (9) 
CNC1CCN(c2nc(N3CCc4ccccc4C3)nc(N3CCc4ccccc4C3)n2)CC1

>  <score_type>  (9) 
oracle

>  <origin>  (9) 
autodockgpu

>  <m_score__min__energy>  (9) 
-8.9900000000000002

>  <m_primary>  (9) 
energy

>  <meeko>  (9) 
{"free_energy": -8.65, "intermolecular_energy": -9.84, "internal_energy": -1.09, "cluster_size": 18, "cluster_id": 1, "rank_in_cluster": 17}

>  <energy>  (9) 
-8.84

>  <cluster_rmsd>  (9) 
1.9

>  <rmsd>  (9) 
271.61

>  <cluster>  (9) 
1

$$$$
DSYBMJCSYFRFMG-UHFFFAOYNA-N
     RDKit          3D

 67 72  0  0  0  0  0  0  0  0999 V2000
  145.6970   73.1250  219.4900 C   0  0  0  0  0  0  0  0  0  0  0  0
  145.9370   72.2240  218.3590 N   0  0  0  0  0  0  0  0  0  0  0  0
  144.8080   72.2230  217.4060 C   0  0  0  0  0  0  0  0  0  0  0  0
  144.0220   73.5720  217.4320 C   0  0  0  0  0  0  0  0  0  0  0  0
  142.5380   73.4060  217.7780 C   0  0  0  0  0  0  0  0  0  0  0  0
  142.4020   72.5380  218.9590 N   0  0  0  0  0  0  0  0  0  0  0  0
  141.7100   72.9790  220.1450 C   0  0  0  0  0  0  0  0  0  0  0  0
  141.3130   74.2730  220.2610 N   0  0  0  0  0  0  0  0  0  0  0  0
  140.6230   74.6960  221.3510 C   0  0  0  0  0  0  0  0  0  0  0  0
  140.1860   76.0690  221.4540 N   0  0  0  0  0  0  0  0  0  0  0  0
  139.7980   76.8420  220.2720 C   0  0  0  0  0  0  0  0  0  0  0  0
  140.8630   77.9060  220.0070 C   0  0  0  0  0  0  0  0  0  0  0  0
  141.2230   78.6630  221.2640 C   0  0  0  0  0  0  0  0  0  0  0  0
  141.8910   79.8920  221.1520 C   0  0  0  0  0  0  0  0  0  0  0  0
  142.2820   80.5920  222.2960 C   0  0  0  0  0  0  0  0  0  0  0  0
  142.0180   80.0670  223.5630 C   0  0  0  0  0  0  0  0  0  0  0  0
  141.3700   78.8370  223.6910 C   0  0  0  0  0  0  0  0  0  0  0  0
  140.9810   78.1160  222.5500 C   0  0  0  0  0  0  0  0  0  0  0  0
  140.2480   76.8050  222.7240 C   0  0  0  0  0  0  0  0  0  0  0  0
  140.3290   73.8040  222.3340 N   0  0  0  0  0  0  0  0  0  0  0  0
  140.7240   72.5080  222.2400 C   0  0  0  0  0  0  0  0  0  0  0  0
  140.3910   71.5710  223.2860 N   0  0  0  0  0  0  0  0  0  0  0  0
  139.6920   70.3170  222.9730 C   0  0  0  0  0  0  0  0  0  0  0  0
  138.6240   70.0420  224.0260 C   0  0  0  0  0  0  0  0  0  0  0  0
  139.2310   70.0490  225.3990 C   0  0  0  0  0  0  0  0  0  0  0  0
  138.6550   69.2800  226.4240 C   0  0  0  0  0  0  0  0  0  0  0  0
  139.1940   69.3040  227.7120 C   0  0  0  0  0  0  0  0  0  0  0  0
  140.3060   70.1020  227.9910 C   0  0  0  0  0  0  0  0  0  0  0  0
  140.8730   70.8890  226.9840 C   0  0  0  0  0  0  0  0  0  0  0  0
  140.3410   70.8750  225.6850 C   0  0  0  0  0  0  0  0  0  0  0  0
  140.9390   71.7870  224.6370 C   0  0  0  0  0  0  0  0  0  0  0  0
  141.4120   72.1040  221.1400 N   0  0  0  0  0  0  0  0  0  0  0  0
  143.0520   71.2170  218.9540 C   0  0  0  0  0  0  0  0  0  0  0  0
  143.9070   71.0030  217.6960 C   0  0  0  0  0  0  0  0  0  0  0  0
  145.8429   72.5771  220.4326 H   0  0  0  0  0  0  0  0  0  0  0  0
  146.4019   73.9682  219.4431 H   0  0  0  0  0  0  0  0  0  0  0  0
  144.6661   73.5058  219.4431 H   0  0  0  0  0  0  0  0  0  0  0  0
  146.0970   71.2570  218.7280 H   0  0  0  0  0  0  0  0  0  0  0  0
  145.1973   72.1331  216.3811 H   0  0  0  0  0  0  0  0  0  0  0  0
  144.4836   74.2299  218.1831 H   0  0  0  0  0  0  0  0  0  0  0  0
  144.0734   73.9970  216.4187 H   0  0  0  0  0  0  0  0  0  0  0  0
  142.1000   74.3914  217.9952 H   0  0  0  0  0  0  0  0  0  0  0  0
  142.0124   72.9499  216.9261 H   0  0  0  0  0  0  0  0  0  0  0  0
  139.7195   76.1730  219.4023 H   0  0  0  0  0  0  0  0  0  0  0  0
  138.8239   77.3233  220.4437 H   0  0  0  0  0  0  0  0  0  0  0  0
  141.7665   77.4159  219.6151 H   0  0  0  0  0  0  0  0  0  0  0  0
  140.4563   78.6239  219.2795 H   0  0  0  0  0  0  0  0  0  0  0  0
  142.1082   80.3070  220.1567 H   0  0  0  0  0  0  0  0  0  0  0  0
  142.7986   81.5583  222.1987 H   0  0  0  0  0  0  0  0  0  0  0  0
  142.3213   80.6238  224.4619 H   0  0  0  0  0  0  0  0  0  0  0  0
  141.1628   78.4300  224.6917 H   0  0  0  0  0  0  0  0  0  0  0  0
  140.7760   76.1929  223.4700 H   0  0  0  0  0  0  0  0  0  0  0  0
  139.2219   77.0167  223.0591 H   0  0  0  0  0  0  0  0  0  0  0  0
  139.2167   70.4012  221.9846 H   0  0  0  0  0  0  0  0  0  0  0  0
  140.4169   69.4897  222.9675 H   0  0  0  0  0  0  0  0  0  0  0  0
  137.8487   70.8202  223.9682 H   0  0  0  0  0  0  0  0  0  0  0  0
  138.1809   69.0533  223.8361 H   0  0  0  0  0  0  0  0  0  0  0  0
  137.7748   68.6557  226.2108 H   0  0  0  0  0  0  0  0  0  0  0  0
  138.7423   68.6937  228.5079 H   0  0  0  0  0  0  0  0  0  0  0  0
  140.7358   70.1113  229.0035 H   0  0  0  0  0  0  0  0  0  0  0  0
  141.7422   71.5237  227.2113 H   0  0  0  0  0  0  0  0  0  0  0  0
  140.7426   72.8290  224.9296 H   0  0  0  0  0  0  0  0  0  0  0  0
  142.0147   71.5621  224.5890 H   0  0  0  0  0  0  0  0  0  0  0  0
  143.6977   71.1352  219.8408 H   0  0  0  0  0  0  0  0  0  0  0  0
  142.2639   70.4497  218.9646 H   0  0  0  0  0  0  0  0  0  0  0  0
  144.5423   70.1171  217.8427 H   0  0  0  0  0  0  0  0  0  0  0  0
  143.2303   70.8641  216.8400 H   0  0  0  0  0  0  0  0  0  0  0  0
  1  2  1  0
  2  3  1  0
  3  4  1  0
  4  5  1  0
  5  6  1  0
  6  7  1  0
  7  8  2  0
  8  9  1  0
  9 10  1  0
 10 11  1  0
 11 12  1  0
 12 13  1  0
 13 14  2  0
 14 15  1  0
 15 16  2  0
 16 17  1  0
 17 18  2  0
 18 19  1  0
  9 20  2  0
 20 21  1  0
 21 22  1  0
 22 23  1  0
 23 24  1  0
 24 25  1  0
 25 26  2  0
 26 27  1  0
 27 28  2  0
 28 29  1  0
 29 30  2  0
 30 31  1  0
 21 32  2  0
  6 33  1  0
 33 34  1  0
 34  3  1  0
 32  7  1  0
 19 10  1  0
 31 22  1  0
 18 13  1  0
 30 25  1  0
  1 35  1  0
  1 36  1  0
  1 37  1  0
  2 38  1  0
  3 39  1  0
  4 40  1  0
  4 41  1  0
  5 42  1  0
  5 43  1  0
 11 44  1  0
 11 45  1  0
 12 46  1  0
 12 47  1  0
 14 48  1  0
 15 49  1  0
 16 50  1  0
 17 51  1  0
 19 52  1  0
 19 53  1  0
 23 54  1  0
 23 55  1  0
 24 56  1  0
 24 57  1  0
 26 58  1  0
 27 59  1  0
 28 60  1  0
 29 61  1  0
 31 62  1  0
 31 63  1  0
 33 64  1  0
 33 65  1  0
 34 66  1  0
 34 67  1  0
M  END
>  <UniqueID>  (10) 
57

>  <SMILES>  (10) 
CNC1CCN(c2nc(N3CCc4ccccc4C3)nc(N3CCc4ccccc4C3)n2)CC1

>  <Energy>  (10) 
80.63595697295537

>  <Genealogy>  (10) 
CNC1CCN(c2nc(N3CCc4ccccc4C3)nc(N3CCc4ccccc4C3)n2)CC1 (3D coordinates assigned)
CNC1CCN(c2nc(N3CCc4ccccc4C3)nc(N3CCc4ccccc4C3)n2)CC1 (nonaromatic ring conformer: 80.63595697295537 kcal/mol)

>  <smiles>  (10) 
CNC1CCN(c2nc(N3CCc4ccccc4C3)nc(N3CCc4ccccc4C3)n2)CC1

>  <score_type>  (10) 
oracle

>  <origin>  (10) 
autodockgpu

>  <m_score__min__energy>  (10) 
-8.9900000000000002

>  <m_primary>  (10) 
energy

>  <meeko>  (10) 
{"free_energy": -8.86, "intermolecular_energy": -10.06, "internal_energy": -1.03, "cluster_size": 18, "cluster_id": 1, "rank_in_cluster": 7}

>  <energy>  (10) 
-8.83

>  <cluster_rmsd>  (10) 
1.34

>  <rmsd>  (10) 
271.98

>  <cluster>  (10) 
1

$$$$
DSYBMJCSYFRFMG-UHFFFAOYNA-N
     RDKit          3D

 67 72  0  0  0  0  0  0  0  0999 V2000
  146.8970   73.7990  216.8140 C   0  0  0  0  0  0  0  0  0  0  0  0
  145.8780   73.3260  217.7570 N   0  0  0  0  0  0  0  0  0  0  0  0
  144.7600   72.6510  217.0680 C   0  0  0  0  0  0  0  0  0  0  0  0
  143.4980   73.5660  216.9680 C   0  0  0  0  0  0  0  0  0  0  0  0
  142.2540   72.9620  217.6270 C   0  0  0  0  0  0  0  0  0  0  0  0
  142.6010   72.4590  218.9650 N   0  0  0  0  0  0  0  0  0  0  0  0
  141.9100   72.9140  220.1460 C   0  0  0  0  0  0  0  0  0  0  0  0
  141.5260   74.2130  220.2530 N   0  0  0  0  0  0  0  0  0  0  0  0
  140.8360   74.6500  221.3390 C   0  0  0  0  0  0  0  0  0  0  0  0
  140.4120   76.0280  221.4310 N   0  0  0  0  0  0  0  0  0  0  0  0
  140.1540   76.8340  220.2350 C   0  0  0  0  0  0  0  0  0  0  0  0
  141.2560   77.8840  220.1010 C   0  0  0  0  0  0  0  0  0  0  0  0
  141.5030   78.6060  221.4050 C   0  0  0  0  0  0  0  0  0  0  0  0
  142.1980   79.8260  221.3880 C   0  0  0  0  0  0  0  0  0  0  0  0
  142.4860   80.4940  222.5810 C   0  0  0  0  0  0  0  0  0  0  0  0
  142.0920   79.9450  223.8030 C   0  0  0  0  0  0  0  0  0  0  0  0
  141.4150   78.7240  223.8380 C   0  0  0  0  0  0  0  0  0  0  0  0
  141.1290   78.0360  222.6480 C   0  0  0  0  0  0  0  0  0  0  0  0
  140.3620   76.7340  222.7180 C   0  0  0  0  0  0  0  0  0  0  0  0
  140.5310   73.7680  222.3260 N   0  0  0  0  0  0  0  0  0  0  0  0
  140.9130   72.4670  222.2420 C   0  0  0  0  0  0  0  0  0  0  0  0
  140.5680   71.5400  223.2930 N   0  0  0  0  0  0  0  0  0  0  0  0
  139.9220   70.2590  222.9790 C   0  0  0  0  0  0  0  0  0  0  0  0
  138.8220   69.9690  223.9940 C   0  0  0  0  0  0  0  0  0  0  0  0
  139.3730   70.0230  225.3900 C   0  0  0  0  0  0  0  0  0  0  0  0
  138.7800   69.2560  226.4070 C   0  0  0  0  0  0  0  0  0  0  0  0
  139.2660   69.3230  227.7140 C   0  0  0  0  0  0  0  0  0  0  0  0
  140.3400   70.1610  228.0200 C   0  0  0  0  0  0  0  0  0  0  0  0
  140.9220   70.9470  227.0210 C   0  0  0  0  0  0  0  0  0  0  0  0
  140.4430   70.8900  225.7020 C   0  0  0  0  0  0  0  0  0  0  0  0
  141.0540   71.8010  224.6600 C   0  0  0  0  0  0  0  0  0  0  0  0
  141.6000   72.0490  221.1470 N   0  0  0  0  0  0  0  0  0  0  0  0
  143.7290   71.5240  219.1070 C   0  0  0  0  0  0  0  0  0  0  0  0
  144.4680   71.3110  217.7780 C   0  0  0  0  0  0  0  0  0  0  0  0
  147.7565   74.1980  217.3726 H   0  0  0  0  0  0  0  0  0  0  0  0
  147.2275   72.9622  216.1811 H   0  0  0  0  0  0  0  0  0  0  0  0
  146.4712   74.5915  216.1811 H   0  0  0  0  0  0  0  0  0  0  0  0
  145.5220   74.1450  218.3040 H   0  0  0  0  0  0  0  0  0  0  0  0
  145.0493   72.4397  216.0280 H   0  0  0  0  0  0  0  0  0  0  0  0
  143.7224   74.5242  217.4595 H   0  0  0  0  0  0  0  0  0  0  0  0
  143.2710   73.6899  215.8988 H   0  0  0  0  0  0  0  0  0  0  0  0
  141.4755   73.7339  217.7164 H   0  0  0  0  0  0  0  0  0  0  0  0
  141.8795   72.1320  217.0099 H   0  0  0  0  0  0  0  0  0  0  0  0
  140.1509   76.1860  219.3462 H   0  0  0  0  0  0  0  0  0  0  0  0
  139.1753   77.3286  220.3219 H   0  0  0  0  0  0  0  0  0  0  0  0
  142.1857   77.3867  219.7874 H   0  0  0  0  0  0  0  0  0  0  0  0
  140.9338   78.6253  219.3549 H   0  0  0  0  0  0  0  0  0  0  0  0
  142.5180   80.2589  220.4287 H   0  0  0  0  0  0  0  0  0  0  0  0
  143.0236   81.4534  222.5575 H   0  0  0  0  0  0  0  0  0  0  0  0
  142.3154   80.4755  224.7403 H   0  0  0  0  0  0  0  0  0  0  0  0
  141.1040   78.2988  224.8036 H   0  0  0  0  0  0  0  0  0  0  0  0
  140.8054   76.0959  223.4966 H   0  0  0  0  0  0  0  0  0  0  0  0
  139.3116   76.9566  222.9569 H   0  0  0  0  0  0  0  0  0  0  0  0
  139.4841   70.3089  221.9711 H   0  0  0  0  0  0  0  0  0  0  0  0
  140.6725   69.4558  223.0195 H   0  0  0  0  0  0  0  0  0  0  0  0
  138.0247   70.7196  223.8894 H   0  0  0  0  0  0  0  0  0  0  0  0
  138.4192   68.9626  223.8072 H   0  0  0  0  0  0  0  0  0  0  0  0
  137.9290   68.5998  226.1723 H   0  0  0  0  0  0  0  0  0  0  0  0
  138.8020   68.7145  228.5042 H   0  0  0  0  0  0  0  0  0  0  0  0
  140.7286   70.2028  229.0482 H   0  0  0  0  0  0  0  0  0  0  0  0
  141.7604   71.6143  227.2696 H   0  0  0  0  0  0  0  0  0  0  0  0
  140.8125   72.8415  224.9226 H   0  0  0  0  0  0  0  0  0  0  0  0
  142.1375   71.6114  224.6599 H   0  0  0  0  0  0  0  0  0  0  0  0
  144.4359   71.9294  219.8458 H   0  0  0  0  0  0  0  0  0  0  0  0
  143.3276   70.5531  219.4329 H   0  0  0  0  0  0  0  0  0  0  0  0
  145.4203   70.7979  217.9775 H   0  0  0  0  0  0  0  0  0  0  0  0
  143.8258   70.7064  217.1206 H   0  0  0  0  0  0  0  0  0  0  0  0
  1  2  1  0
  2  3  1  0
  3  4  1  0
  4  5  1  0
  5  6  1  0
  6  7  1  0
  7  8  2  0
  8  9  1  0
  9 10  1  0
 10 11  1  0
 11 12  1  0
 12 13  1  0
 13 14  2  0
 14 15  1  0
 15 16  2  0
 16 17  1  0
 17 18  2  0
 18 19  1  0
  9 20  2  0
 20 21  1  0
 21 22  1  0
 22 23  1  0
 23 24  1  0
 24 25  1  0
 25 26  2  0
 26 27  1  0
 27 28  2  0
 28 29  1  0
 29 30  2  0
 30 31  1  0
 21 32  2  0
  6 33  1  0
 33 34  1  0
 34  3  1  0
 32  7  1  0
 19 10  1  0
 31 22  1  0
 18 13  1  0
 30 25  1  0
  1 35  1  0
  1 36  1  0
  1 37  1  0
  2 38  1  0
  3 39  1  0
  4 40  1  0
  4 41  1  0
  5 42  1  0
  5 43  1  0
 11 44  1  0
 11 45  1  0
 12 46  1  0
 12 47  1  0
 14 48  1  0
 15 49  1  0
 16 50  1  0
 17 51  1  0
 19 52  1  0
 19 53  1  0
 23 54  1  0
 23 55  1  0
 24 56  1  0
 24 57  1  0
 26 58  1  0
 27 59  1  0
 28 60  1  0
 29 61  1  0
 31 62  1  0
 31 63  1  0
 33 64  1  0
 33 65  1  0
 34 66  1  0
 34 67  1  0
M  END
>  <UniqueID>  (11) 
57

>  <SMILES>  (11) 
CNC1CCN(c2nc(N3CCc4ccccc4C3)nc(N3CCc4ccccc4C3)n2)CC1

>  <Energy>  (11) 
80.63595697295537

>  <Genealogy>  (11) 
CNC1CCN(c2nc(N3CCc4ccccc4C3)nc(N3CCc4ccccc4C3)n2)CC1 (3D coordinates assigned)
CNC1CCN(c2nc(N3CCc4ccccc4C3)nc(N3CCc4ccccc4C3)n2)CC1 (nonaromatic ring conformer: 80.63595697295537 kcal/mol)

>  <smiles>  (11) 
CNC1CCN(c2nc(N3CCc4ccccc4C3)nc(N3CCc4ccccc4C3)n2)CC1

>  <score_type>  (11) 
oracle

>  <origin>  (11) 
autodockgpu

>  <m_score__min__energy>  (11) 
-8.9900000000000002

>  <m_primary>  (11) 
energy

>  <meeko>  (11) 
{"free_energy": -8.99, "intermolecular_energy": -10.18, "internal_energy": -0.96, "cluster_size": 18, "cluster_id": 1, "rank_in_cluster": 1}

>  <energy>  (11) 
-8.83

>  <cluster_rmsd>  (11) 
1.91

>  <rmsd>  (11) 
271.61

>  <cluster>  (11) 
1

$$$$
DSYBMJCSYFRFMG-UHFFFAOYNA-N
     RDKit          3D

 67 72  0  0  0  0  0  0  0  0999 V2000
  143.2920   75.8590  216.8190 C   0  0  0  0  0  0  0  0  0  0  0  0
  144.5620   75.2410  216.4250 N   0  0  0  0  0  0  0  0  0  0  0  0
  144.5020   73.7660  216.4950 C   0  0  0  0  0  0  0  0  0  0  0  0
  143.0310   73.2420  216.5160 C   0  0  0  0  0  0  0  0  0  0  0  0
  142.7020   72.4010  217.7540 C   0  0  0  0  0  0  0  0  0  0  0  0
  143.1730   73.0970  218.9610 N   0  0  0  0  0  0  0  0  0  0  0  0
  142.2770   73.4210  220.0450 C   0  0  0  0  0  0  0  0  0  0  0  0
  141.8550   74.7010  220.2200 N   0  0  0  0  0  0  0  0  0  0  0  0
  140.9790   75.0160  221.2080 C   0  0  0  0  0  0  0  0  0  0  0  0
  140.5180   76.3760  221.3710 N   0  0  0  0  0  0  0  0  0  0  0  0
  140.2060   77.2250  220.2190 C   0  0  0  0  0  0  0  0  0  0  0  0
  141.2740   78.3120  220.1040 C   0  0  0  0  0  0  0  0  0  0  0  0
  141.5330   78.9840  221.4310 C   0  0  0  0  0  0  0  0  0  0  0  0
  142.1920   80.2240  221.4510 C   0  0  0  0  0  0  0  0  0  0  0  0
  142.4910   80.8480  222.6650 C   0  0  0  0  0  0  0  0  0  0  0  0
  142.1440   80.2360  223.8710 C   0  0  0  0  0  0  0  0  0  0  0  0
  141.5030   78.9950  223.8690 C   0  0  0  0  0  0  0  0  0  0  0  0
  141.2070   78.3500  222.6570 C   0  0  0  0  0  0  0  0  0  0  0  0
  140.4800   77.0250  222.6890 C   0  0  0  0  0  0  0  0  0  0  0  0
  140.5230   74.0320  222.0270 N   0  0  0  0  0  0  0  0  0  0  0  0
  140.9400   72.7490  221.8730 C   0  0  0  0  0  0  0  0  0  0  0  0
  140.4350   71.7130  222.7420 N   0  0  0  0  0  0  0  0  0  0  0  0
  139.4440   70.7440  222.2550 C   0  0  0  0  0  0  0  0  0  0  0  0
  138.3860   70.5020  223.3250 C   0  0  0  0  0  0  0  0  0  0  0  0
  139.0320   70.0840  224.6140 C   0  0  0  0  0  0  0  0  0  0  0  0
  138.3310   69.2670  225.5170 C   0  0  0  0  0  0  0  0  0  0  0  0
  138.9120   68.8990  226.7320 C   0  0  0  0  0  0  0  0  0  0  0  0
  140.1930   69.3480  227.0600 C   0  0  0  0  0  0  0  0  0  0  0  0
  140.8910   70.1800  226.1790 C   0  0  0  0  0  0  0  0  0  0  0  0
  140.3180   70.5590  224.9550 C   0  0  0  0  0  0  0  0  0  0  0  0
  141.0740   71.5120  224.0550 C   0  0  0  0  0  0  0  0  0  0  0  0
  141.8150   72.4520  220.8770 N   0  0  0  0  0  0  0  0  0  0  0  0
  144.5750   73.5380  219.0320 C   0  0  0  0  0  0  0  0  0  0  0  0
  145.3220   73.2870  217.7130 C   0  0  0  0  0  0  0  0  0  0  0  0
  143.2250   75.8916  217.9165 H   0  0  0  0  0  0  0  0  0  0  0  0
  143.2421   76.8821  216.4180 H   0  0  0  0  0  0  0  0  0  0  0  0
  142.4561   75.2669  216.4180 H   0  0  0  0  0  0  0  0  0  0  0  0
  145.3190   75.6000  217.0530 H   0  0  0  0  0  0  0  0  0  0  0  0
  144.9490   73.3408  215.5843 H   0  0  0  0  0  0  0  0  0  0  0  0
  142.3523   74.1073  216.4919 H   0  0  0  0  0  0  0  0  0  0  0  0
  142.9058   72.5907  215.6384 H   0  0  0  0  0  0  0  0  0  0  0  0
  141.6139   72.2529  217.8176 H   0  0  0  0  0  0  0  0  0  0  0  0
  143.2020   71.4243  217.6763 H   0  0  0  0  0  0  0  0  0  0  0  0
  140.1979   76.6164  219.3027 H   0  0  0  0  0  0  0  0  0  0  0  0
  139.2163   77.6863  220.3521 H   0  0  0  0  0  0  0  0  0  0  0  0
  142.2093   77.8563  219.7468 H   0  0  0  0  0  0  0  0  0  0  0  0
  140.9121   79.0746  219.3987 H   0  0  0  0  0  0  0  0  0  0  0  0
  142.4748   80.7075  220.5043 H   0  0  0  0  0  0  0  0  0  0  0  0
  143.0005   81.8229  222.6705 H   0  0  0  0  0  0  0  0  0  0  0  0
  142.3759   80.7323  224.8249 H   0  0  0  0  0  0  0  0  0  0  0  0
  141.2284   78.5200  224.8224 H   0  0  0  0  0  0  0  0  0  0  0  0
  140.9609   76.3678  223.4284 H   0  0  0  0  0  0  0  0  0  0  0  0
  139.4300   77.2059  222.9624 H   0  0  0  0  0  0  0  0  0  0  0  0
  138.9623   71.1393  221.3485 H   0  0  0  0  0  0  0  0  0  0  0  0
  139.9491   69.7946  222.0238 H   0  0  0  0  0  0  0  0  0  0  0  0
  137.8171   71.4292  223.4886 H   0  0  0  0  0  0  0  0  0  0  0  0
  137.7129   69.7005  222.9866 H   0  0  0  0  0  0  0  0  0  0  0  0
  137.3194   68.9156  225.2654 H   0  0  0  0  0  0  0  0  0  0  0  0
  138.3600   68.2545  227.4319 H   0  0  0  0  0  0  0  0  0  0  0  0
  140.6535   69.0469  228.0125 H   0  0  0  0  0  0  0  0  0  0  0  0
  141.8954   70.5397  226.4469 H   0  0  0  0  0  0  0  0  0  0  0  0
  141.1445   72.4863  224.5606 H   0  0  0  0  0  0  0  0  0  0  0  0
  142.0621   71.0659  223.8689 H   0  0  0  0  0  0  0  0  0  0  0  0
  144.5982   74.6150  219.2545 H   0  0  0  0  0  0  0  0  0  0  0  0
  145.0749   72.9590  219.8224 H   0  0  0  0  0  0  0  0  0  0  0  0
  146.2783   73.8302  217.7354 H   0  0  0  0  0  0  0  0  0  0  0  0
  145.4874   72.2042  217.6120 H   0  0  0  0  0  0  0  0  0  0  0  0
  1  2  1  0
  2  3  1  0
  3  4  1  0
  4  5  1  0
  5  6  1  0
  6  7  1  0
  7  8  2  0
  8  9  1  0
  9 10  1  0
 10 11  1  0
 11 12  1  0
 12 13  1  0
 13 14  2  0
 14 15  1  0
 15 16  2  0
 16 17  1  0
 17 18  2  0
 18 19  1  0
  9 20  2  0
 20 21  1  0
 21 22  1  0
 22 23  1  0
 23 24  1  0
 24 25  1  0
 25 26  2  0
 26 27  1  0
 27 28  2  0
 28 29  1  0
 29 30  2  0
 30 31  1  0
 21 32  2  0
  6 33  1  0
 33 34  1  0
 34  3  1  0
 32  7  1  0
 19 10  1  0
 31 22  1  0
 18 13  1  0
 30 25  1  0
  1 35  1  0
  1 36  1  0
  1 37  1  0
  2 38  1  0
  3 39  1  0
  4 40  1  0
  4 41  1  0
  5 42  1  0
  5 43  1  0
 11 44  1  0
 11 45  1  0
 12 46  1  0
 12 47  1  0
 14 48  1  0
 15 49  1  0
 16 50  1  0
 17 51  1  0
 19 52  1  0
 19 53  1  0
 23 54  1  0
 23 55  1  0
 24 56  1  0
 24 57  1  0
 26 58  1  0
 27 59  1  0
 28 60  1  0
 29 61  1  0
 31 62  1  0
 31 63  1  0
 33 64  1  0
 33 65  1  0
 34 66  1  0
 34 67  1  0
M  END
>  <UniqueID>  (12) 
57

>  <SMILES>  (12) 
CNC1CCN(c2nc(N3CCc4ccccc4C3)nc(N3CCc4ccccc4C3)n2)CC1

>  <Energy>  (12) 
80.63595697295537

>  <Genealogy>  (12) 
CNC1CCN(c2nc(N3CCc4ccccc4C3)nc(N3CCc4ccccc4C3)n2)CC1 (3D coordinates assigned)
CNC1CCN(c2nc(N3CCc4ccccc4C3)nc(N3CCc4ccccc4C3)n2)CC1 (nonaromatic ring conformer: 80.63595697295537 kcal/mol)

>  <smiles>  (12) 
CNC1CCN(c2nc(N3CCc4ccccc4C3)nc(N3CCc4ccccc4C3)n2)CC1

>  <score_type>  (12) 
oracle

>  <origin>  (12) 
autodockgpu

>  <m_score__min__energy>  (12) 
-8.9900000000000002

>  <m_primary>  (12) 
energy

>  <meeko>  (12) 
{"free_energy": -8.68, "intermolecular_energy": -9.88, "internal_energy": -1.09, "cluster_size": 18, "cluster_id": 1, "rank_in_cluster": 16}

>  <energy>  (12) 
-8.83

>  <cluster_rmsd>  (12) 
1.91

>  <rmsd>  (12) 
271.62

>  <cluster>  (12) 
1

$$$$
DSYBMJCSYFRFMG-UHFFFAOYNA-N
     RDKit          3D

 67 72  0  0  0  0  0  0  0  0999 V2000
  146.9000   73.7640  216.8180 C   0  0  0  0  0  0  0  0  0  0  0  0
  145.8640   73.3050  217.7490 N   0  0  0  0  0  0  0  0  0  0  0  0
  144.7340   72.6640  217.0440 C   0  0  0  0  0  0  0  0  0  0  0  0
  143.4920   73.6070  216.9540 C   0  0  0  0  0  0  0  0  0  0  0  0
  142.2330   73.0180  217.5990 C   0  0  0  0  0  0  0  0  0  0  0  0
  142.5640   72.4850  218.9290 N   0  0  0  0  0  0  0  0  0  0  0  0
  141.8780   72.9340  220.1160 C   0  0  0  0  0  0  0  0  0  0  0  0
  141.4980   74.2340  220.2320 N   0  0  0  0  0  0  0  0  0  0  0  0
  140.8140   74.6650  221.3230 C   0  0  0  0  0  0  0  0  0  0  0  0
  140.3940   76.0440  221.4260 N   0  0  0  0  0  0  0  0  0  0  0  0
  140.1280   76.8570  220.2370 C   0  0  0  0  0  0  0  0  0  0  0  0
  141.2310   77.9040  220.0980 C   0  0  0  0  0  0  0  0  0  0  0  0
  141.4920   78.6190  221.4030 C   0  0  0  0  0  0  0  0  0  0  0  0
  142.1900   79.8370  221.3860 C   0  0  0  0  0  0  0  0  0  0  0  0
  142.4900   80.4980  222.5800 C   0  0  0  0  0  0  0  0  0  0  0  0
  142.1050   79.9440  223.8020 C   0  0  0  0  0  0  0  0  0  0  0  0
  141.4250   78.7250  223.8370 C   0  0  0  0  0  0  0  0  0  0  0  0
  141.1260   78.0430  222.6460 C   0  0  0  0  0  0  0  0  0  0  0  0
  140.3570   76.7440  222.7170 C   0  0  0  0  0  0  0  0  0  0  0  0
  140.5080   73.7770  222.3050 N   0  0  0  0  0  0  0  0  0  0  0  0
  140.8860   72.4760  222.2110 C   0  0  0  0  0  0  0  0  0  0  0  0
  140.5410   71.5420  223.2570 N   0  0  0  0  0  0  0  0  0  0  0  0
  139.8600   70.2810  222.9390 C   0  0  0  0  0  0  0  0  0  0  0  0
  138.7740   70.0030  223.9730 C   0  0  0  0  0  0  0  0  0  0  0  0
  139.3540   70.0250  225.3580 C   0  0  0  0  0  0  0  0  0  0  0  0
  138.7650   69.2580  226.3770 C   0  0  0  0  0  0  0  0  0  0  0  0
  139.2780   69.2960  227.6750 C   0  0  0  0  0  0  0  0  0  0  0  0
  140.3770   70.1060  227.9690 C   0  0  0  0  0  0  0  0  0  0  0  0
  140.9570   70.8910  226.9680 C   0  0  0  0  0  0  0  0  0  0  0  0
  140.4500   70.8630  225.6590 C   0  0  0  0  0  0  0  0  0  0  0  0
  141.0600   71.7740  224.6170 C   0  0  0  0  0  0  0  0  0  0  0  0
  141.5690   72.0630  221.1110 N   0  0  0  0  0  0  0  0  0  0  0  0
  143.6720   71.5250  219.0600 C   0  0  0  0  0  0  0  0  0  0  0  0
  144.4120   71.3190  217.7300 C   0  0  0  0  0  0  0  0  0  0  0  0
  147.7610   74.1455  217.3865 H   0  0  0  0  0  0  0  0  0  0  0  0
  147.2219   72.9243  216.1846 H   0  0  0  0  0  0  0  0  0  0  0  0
  146.4942   74.5666  216.1846 H   0  0  0  0  0  0  0  0  0  0  0  0
  145.5230   74.1260  218.3020 H   0  0  0  0  0  0  0  0  0  0  0  0
  145.0227   72.4635  216.0017 H   0  0  0  0  0  0  0  0  0  0  0  0
  143.7343   74.5523  217.4617 H   0  0  0  0  0  0  0  0  0  0  0  0
  143.2719   73.7533  215.8862 H   0  0  0  0  0  0  0  0  0  0  0  0
  141.4706   73.8046  217.6991 H   0  0  0  0  0  0  0  0  0  0  0  0
  141.8437   72.2066  216.9665 H   0  0  0  0  0  0  0  0  0  0  0  0
  140.1149   76.2136  219.3449 H   0  0  0  0  0  0  0  0  0  0  0  0
  139.1518   77.3543  220.3358 H   0  0  0  0  0  0  0  0  0  0  0  0
  142.1564   77.4057  219.7735 H   0  0  0  0  0  0  0  0  0  0  0  0
  140.9040   78.6497  219.3585 H   0  0  0  0  0  0  0  0  0  0  0  0
  142.5029   80.2739  220.4262 H   0  0  0  0  0  0  0  0  0  0  0  0
  143.0302   81.4560  222.5569 H   0  0  0  0  0  0  0  0  0  0  0  0
  142.3379   80.4692  224.7400 H   0  0  0  0  0  0  0  0  0  0  0  0
  141.1215   78.2960  224.8034 H   0  0  0  0  0  0  0  0  0  0  0  0
  140.8056   76.1012  223.4887 H   0  0  0  0  0  0  0  0  0  0  0  0
  139.3093   76.9680  222.9665 H   0  0  0  0  0  0  0  0  0  0  0  0
  139.4033   70.3546  221.9410 H   0  0  0  0  0  0  0  0  0  0  0  0
  140.5922   69.4602  222.9529 H   0  0  0  0  0  0  0  0  0  0  0  0
  137.9928   70.7734  223.8946 H   0  0  0  0  0  0  0  0  0  0  0  0
  138.3440   69.0088  223.7813 H   0  0  0  0  0  0  0  0  0  0  0  0
  137.8949   68.6241  226.1510 H   0  0  0  0  0  0  0  0  0  0  0  0
  138.8162   68.6875  228.4666 H   0  0  0  0  0  0  0  0  0  0  0  0
  140.7869   70.1264  228.9896 H   0  0  0  0  0  0  0  0  0  0  0  0
  141.8162   71.5348  227.2075 H   0  0  0  0  0  0  0  0  0  0  0  0
  140.8470   72.8160  224.8979 H   0  0  0  0  0  0  0  0  0  0  0  0
  142.1389   71.5608  224.5924 H   0  0  0  0  0  0  0  0  0  0  0  0
  144.3840   71.9037  219.8081 H   0  0  0  0  0  0  0  0  0  0  0  0
  143.2497   70.5573  219.3684 H   0  0  0  0  0  0  0  0  0  0  0  0
  145.3529   70.7832  217.9243 H   0  0  0  0  0  0  0  0  0  0  0  0
  143.7603   70.7387  217.0602 H   0  0  0  0  0  0  0  0  0  0  0  0
  1  2  1  0
  2  3  1  0
  3  4  1  0
  4  5  1  0
  5  6  1  0
  6  7  1  0
  7  8  2  0
  8  9  1  0
  9 10  1  0
 10 11  1  0
 11 12  1  0
 12 13  1  0
 13 14  2  0
 14 15  1  0
 15 16  2  0
 16 17  1  0
 17 18  2  0
 18 19  1  0
  9 20  2  0
 20 21  1  0
 21 22  1  0
 22 23  1  0
 23 24  1  0
 24 25  1  0
 25 26  2  0
 26 27  1  0
 27 28  2  0
 28 29  1  0
 29 30  2  0
 30 31  1  0
 21 32  2  0
  6 33  1  0
 33 34  1  0
 34  3  1  0
 32  7  1  0
 19 10  1  0
 31 22  1  0
 18 13  1  0
 30 25  1  0
  1 35  1  0
  1 36  1  0
  1 37  1  0
  2 38  1  0
  3 39  1  0
  4 40  1  0
  4 41  1  0
  5 42  1  0
  5 43  1  0
 11 44  1  0
 11 45  1  0
 12 46  1  0
 12 47  1  0
 14 48  1  0
 15 49  1  0
 16 50  1  0
 17 51  1  0
 19 52  1  0
 19 53  1  0
 23 54  1  0
 23 55  1  0
 24 56  1  0
 24 57  1  0
 26 58  1  0
 27 59  1  0
 28 60  1  0
 29 61  1  0
 31 62  1  0
 31 63  1  0
 33 64  1  0
 33 65  1  0
 34 66  1  0
 34 67  1  0
M  END
>  <UniqueID>  (13) 
57

>  <SMILES>  (13) 
CNC1CCN(c2nc(N3CCc4ccccc4C3)nc(N3CCc4ccccc4C3)n2)CC1

>  <Energy>  (13) 
80.63595697295537

>  <Genealogy>  (13) 
CNC1CCN(c2nc(N3CCc4ccccc4C3)nc(N3CCc4ccccc4C3)n2)CC1 (3D coordinates assigned)
CNC1CCN(c2nc(N3CCc4ccccc4C3)nc(N3CCc4ccccc4C3)n2)CC1 (nonaromatic ring conformer: 80.63595697295537 kcal/mol)

>  <smiles>  (13) 
CNC1CCN(c2nc(N3CCc4ccccc4C3)nc(N3CCc4ccccc4C3)n2)CC1

>  <score_type>  (13) 
oracle

>  <origin>  (13) 
autodockgpu

>  <m_score__min__energy>  (13) 
-8.9900000000000002

>  <m_primary>  (13) 
energy

>  <meeko>  (13) 
{"free_energy": -8.98, "intermolecular_energy": -10.17, "internal_energy": -0.96, "cluster_size": 18, "cluster_id": 1, "rank_in_cluster": 2}

>  <energy>  (13) 
-8.82

>  <cluster_rmsd>  (13) 
1.92

>  <rmsd>  (13) 
271.63

>  <cluster>  (13) 
1

$$$$
DSYBMJCSYFRFMG-UHFFFAOYNA-N
     RDKit          3D

 67 72  0  0  0  0  0  0  0  0999 V2000
  145.6830   73.1830  219.4550 C   0  0  0  0  0  0  0  0  0  0  0  0
  145.9400   72.2610  218.3440 N   0  0  0  0  0  0  0  0  0  0  0  0
  144.8020   72.2000  217.4040 C   0  0  0  0  0  0  0  0  0  0  0  0
  143.9700   73.5220  217.4080 C   0  0  0  0  0  0  0  0  0  0  0  0
  142.4970   73.3130  217.7740 C   0  0  0  0  0  0  0  0  0  0  0  0
  142.4030   72.4690  218.9760 N   0  0  0  0  0  0  0  0  0  0  0  0
  141.7090   72.9140  220.1590 C   0  0  0  0  0  0  0  0  0  0  0  0
  141.3130   74.2090  220.2710 N   0  0  0  0  0  0  0  0  0  0  0  0
  140.6200   74.6340  221.3590 C   0  0  0  0  0  0  0  0  0  0  0  0
  140.1830   76.0080  221.4570 N   0  0  0  0  0  0  0  0  0  0  0  0
  139.7700   76.7690  220.2750 C   0  0  0  0  0  0  0  0  0  0  0  0
  140.8270   77.8310  219.9770 C   0  0  0  0  0  0  0  0  0  0  0  0
  141.2130   78.6010  221.2180 C   0  0  0  0  0  0  0  0  0  0  0  0
  141.8770   79.8300  221.0790 C   0  0  0  0  0  0  0  0  0  0  0  0
  142.2910   80.5420  222.2070 C   0  0  0  0  0  0  0  0  0  0  0  0
  142.0550   80.0300  223.4850 C   0  0  0  0  0  0  0  0  0  0  0  0
  141.4110   78.8010  223.6390 C   0  0  0  0  0  0  0  0  0  0  0  0
  140.9990   78.0670  222.5150 C   0  0  0  0  0  0  0  0  0  0  0  0
  140.2720   76.7580  222.7180 C   0  0  0  0  0  0  0  0  0  0  0  0
  140.3240   73.7460  222.3430 N   0  0  0  0  0  0  0  0  0  0  0  0
  140.7180   72.4490  222.2540 C   0  0  0  0  0  0  0  0  0  0  0  0
  140.3830   71.5150  223.3020 N   0  0  0  0  0  0  0  0  0  0  0  0
  139.5620   70.3310  223.0140 C   0  0  0  0  0  0  0  0  0  0  0  0
  138.5520   70.1150  224.1350 C   0  0  0  0  0  0  0  0  0  0  0  0
  139.2520   70.0380  225.4610 C   0  0  0  0  0  0  0  0  0  0  0  0
  138.6870   69.2920  226.5090 C   0  0  0  0  0  0  0  0  0  0  0  0
  139.3140   69.2380  227.7560 C   0  0  0  0  0  0  0  0  0  0  0  0
  140.5060   69.9360  227.9700 C   0  0  0  0  0  0  0  0  0  0  0  0
  141.0640   70.7010  226.9410 C   0  0  0  0  0  0  0  0  0  0  0  0
  140.4430   70.7640  225.6830 C   0  0  0  0  0  0  0  0  0  0  0  0
  141.0400   71.6510  224.6140 C   0  0  0  0  0  0  0  0  0  0  0  0
  141.4080   72.0410  221.1570 N   0  0  0  0  0  0  0  0  0  0  0  0
  143.0970   71.1720  218.9940 C   0  0  0  0  0  0  0  0  0  0  0  0
  143.9460   70.9580  217.7320 C   0  0  0  0  0  0  0  0  0  0  0  0
  145.8297   72.6567  220.4097 H   0  0  0  0  0  0  0  0  0  0  0  0
  146.3784   74.0331  219.3943 H   0  0  0  0  0  0  0  0  0  0  0  0
  144.6481   73.5508  219.3943 H   0  0  0  0  0  0  0  0  0  0  0  0
  146.1350   71.3100  218.7350 H   0  0  0  0  0  0  0  0  0  0  0  0
  145.1841   72.0998  216.3774 H   0  0  0  0  0  0  0  0  0  0  0  0
  144.4162   74.2126  218.1388 H   0  0  0  0  0  0  0  0  0  0  0  0
  143.9963   73.9252  216.3849 H   0  0  0  0  0  0  0  0  0  0  0  0
  142.0272   74.2875  217.9731 H   0  0  0  0  0  0  0  0  0  0  0  0
  141.9791   72.8189  216.9387 H   0  0  0  0  0  0  0  0  0  0  0  0
  139.6745   76.0911  219.4140 H   0  0  0  0  0  0  0  0  0  0  0  0
  138.7992   77.2512  220.4622 H   0  0  0  0  0  0  0  0  0  0  0  0
  141.7225   77.3381  219.5707 H   0  0  0  0  0  0  0  0  0  0  0  0
  140.4036   78.5412  219.2515 H   0  0  0  0  0  0  0  0  0  0  0  0
  142.0725   80.2349  220.0751 H   0  0  0  0  0  0  0  0  0  0  0  0
  142.8039   81.5079  222.0887 H   0  0  0  0  0  0  0  0  0  0  0  0
  142.3771   80.5961  224.3715 H   0  0  0  0  0  0  0  0  0  0  0  0
  141.2249   78.4047  224.6481 H   0  0  0  0  0  0  0  0  0  0  0  0
  140.8168   76.1543  223.4587 H   0  0  0  0  0  0  0  0  0  0  0  0
  139.2531   76.9725  223.0727 H   0  0  0  0  0  0  0  0  0  0  0  0
  139.0268   70.4804  222.0646 H   0  0  0  0  0  0  0  0  0  0  0  0
  140.2137   69.4480  222.9385 H   0  0  0  0  0  0  0  0  0  0  0  0
  137.8405   70.9538  224.1487 H   0  0  0  0  0  0  0  0  0  0  0  0
  138.0179   69.1699  223.9575 H   0  0  0  0  0  0  0  0  0  0  0  0
  137.7453   68.7472  226.3465 H   0  0  0  0  0  0  0  0  0  0  0  0
  138.8697   68.6461  228.5698 H   0  0  0  0  0  0  0  0  0  0  0  0
  141.0055   69.8835  228.9486 H   0  0  0  0  0  0  0  0  0  0  0  0
  141.9962   71.2575  227.1182 H   0  0  0  0  0  0  0  0  0  0  0  0
  140.9515   72.6976  224.9407 H   0  0  0  0  0  0  0  0  0  0  0  0
  142.0875   71.3411  224.4847 H   0  0  0  0  0  0  0  0  0  0  0  0
  143.7541   71.1327  219.8753 H   0  0  0  0  0  0  0  0  0  0  0  0
  142.3356   70.3789  219.0307 H   0  0  0  0  0  0  0  0  0  0  0  0
  144.6124   70.0976  217.8920 H   0  0  0  0  0  0  0  0  0  0  0  0
  143.2656   70.7769  216.8869 H   0  0  0  0  0  0  0  0  0  0  0  0
  1  2  1  0
  2  3  1  0
  3  4  1  0
  4  5  1  0
  5  6  1  0
  6  7  1  0
  7  8  2  0
  8  9  1  0
  9 10  1  0
 10 11  1  0
 11 12  1  0
 12 13  1  0
 13 14  2  0
 14 15  1  0
 15 16  2  0
 16 17  1  0
 17 18  2  0
 18 19  1  0
  9 20  2  0
 20 21  1  0
 21 22  1  0
 22 23  1  0
 23 24  1  0
 24 25  1  0
 25 26  2  0
 26 27  1  0
 27 28  2  0
 28 29  1  0
 29 30  2  0
 30 31  1  0
 21 32  2  0
  6 33  1  0
 33 34  1  0
 34  3  1  0
 32  7  1  0
 19 10  1  0
 31 22  1  0
 18 13  1  0
 30 25  1  0
  1 35  1  0
  1 36  1  0
  1 37  1  0
  2 38  1  0
  3 39  1  0
  4 40  1  0
  4 41  1  0
  5 42  1  0
  5 43  1  0
 11 44  1  0
 11 45  1  0
 12 46  1  0
 12 47  1  0
 14 48  1  0
 15 49  1  0
 16 50  1  0
 17 51  1  0
 19 52  1  0
 19 53  1  0
 23 54  1  0
 23 55  1  0
 24 56  1  0
 24 57  1  0
 26 58  1  0
 27 59  1  0
 28 60  1  0
 29 61  1  0
 31 62  1  0
 31 63  1  0
 33 64  1  0
 33 65  1  0
 34 66  1  0
 34 67  1  0
M  END
>  <UniqueID>  (14) 
57

>  <SMILES>  (14) 
CNC1CCN(c2nc(N3CCc4ccccc4C3)nc(N3CCc4ccccc4C3)n2)CC1

>  <Energy>  (14) 
80.63595697295537

>  <Genealogy>  (14) 
CNC1CCN(c2nc(N3CCc4ccccc4C3)nc(N3CCc4ccccc4C3)n2)CC1 (3D coordinates assigned)
CNC1CCN(c2nc(N3CCc4ccccc4C3)nc(N3CCc4ccccc4C3)n2)CC1 (nonaromatic ring conformer: 80.63595697295537 kcal/mol)

>  <smiles>  (14) 
CNC1CCN(c2nc(N3CCc4ccccc4C3)nc(N3CCc4ccccc4C3)n2)CC1

>  <score_type>  (14) 
oracle

>  <origin>  (14) 
autodockgpu

>  <m_score__min__energy>  (14) 
-8.9900000000000002

>  <m_primary>  (14) 
energy

>  <meeko>  (14) 
{"free_energy": -8.9, "intermolecular_energy": -10.09, "internal_energy": -1.03, "cluster_size": 18, "cluster_id": 1, "rank_in_cluster": 3}

>  <energy>  (14) 
-8.81

>  <cluster_rmsd>  (14) 
1.93

>  <rmsd>  (14) 
271.6

>  <cluster>  (14) 
1

$$$$
DSYBMJCSYFRFMG-UHFFFAOYNA-N
     RDKit          3D

 67 72  0  0  0  0  0  0  0  0999 V2000
  146.1650   73.1320  220.7280 C   0  0  0  0  0  0  0  0  0  0  0  0
  146.2700   72.0770  219.7150 N   0  0  0  0  0  0  0  0  0  0  0  0
  145.4080   72.3480  218.5450 C   0  0  0  0  0  0  0  0  0  0  0  0
  144.7440   73.7600  218.6250 C   0  0  0  0  0  0  0  0  0  0  0  0
  143.2130   73.7160  218.5920 C   0  0  0  0  0  0  0  0  0  0  0  0
  142.7290   72.7030  219.5430 N   0  0  0  0  0  0  0  0  0  0  0  0
  141.8060   73.0380  220.6000 C   0  0  0  0  0  0  0  0  0  0  0  0
  141.1430   74.2240  220.5740 N   0  0  0  0  0  0  0  0  0  0  0  0
  140.2380   74.5370  221.5370 C   0  0  0  0  0  0  0  0  0  0  0  0
  139.5210   75.7910  221.4870 N   0  0  0  0  0  0  0  0  0  0  0  0
  139.0640   76.3640  220.2190 C   0  0  0  0  0  0  0  0  0  0  0  0
  139.9020   77.6040  219.9080 C   0  0  0  0  0  0  0  0  0  0  0  0
  140.0110   78.5200  221.1040 C   0  0  0  0  0  0  0  0  0  0  0  0
  140.4160   79.8500  220.9090 C   0  0  0  0  0  0  0  0  0  0  0  0
  140.5750   80.7090  221.9990 C   0  0  0  0  0  0  0  0  0  0  0  0
  140.3390   80.2460  223.2950 C   0  0  0  0  0  0  0  0  0  0  0  0
  139.9510   78.9210  223.5070 C   0  0  0  0  0  0  0  0  0  0  0  0
  139.7990   78.0430  222.4220 C   0  0  0  0  0  0  0  0  0  0  0  0
  139.3430   76.6250  222.6830 C   0  0  0  0  0  0  0  0  0  0  0  0
  140.0000   73.6470  222.5360 N   0  0  0  0  0  0  0  0  0  0  0  0
  140.6600   72.4610  222.5840 C   0  0  0  0  0  0  0  0  0  0  0  0
  140.3850   71.5200  223.6430 N   0  0  0  0  0  0  0  0  0  0  0  0
  139.6670   70.2680  223.3660 C   0  0  0  0  0  0  0  0  0  0  0  0
  138.6610   69.9910  224.4760 C   0  0  0  0  0  0  0  0  0  0  0  0
  139.3440   69.9930  225.8130 C   0  0  0  0  0  0  0  0  0  0  0  0
  138.8250   69.2210  226.8670 C   0  0  0  0  0  0  0  0  0  0  0  0
  139.4350   69.2400  228.1220 C   0  0  0  0  0  0  0  0  0  0  0  0
  140.5630   70.0350  228.3410 C   0  0  0  0  0  0  0  0  0  0  0  0
  141.0730   70.8260  227.3060 C   0  0  0  0  0  0  0  0  0  0  0  0
  140.4690   70.8170  226.0390 C   0  0  0  0  0  0  0  0  0  0  0  0
  141.0080   71.7320  224.9630 C   0  0  0  0  0  0  0  0  0  0  0  0
  141.5590   72.1640  221.6100 N   0  0  0  0  0  0  0  0  0  0  0  0
  143.2580   71.3320  219.4590 C   0  0  0  0  0  0  0  0  0  0  0  0
  144.3730   71.2110  218.4090 C   0  0  0  0  0  0  0  0  0  0  0  0
  146.2097   72.6829  221.7311 H   0  0  0  0  0  0  0  0  0  0  0  0
  146.9970   73.8412  220.6064 H   0  0  0  0  0  0  0  0  0  0  0  0
  145.2095   73.6633  220.6064 H   0  0  0  0  0  0  0  0  0  0  0  0
  146.0050   71.1640  220.1520 H   0  0  0  0  0  0  0  0  0  0  0  0
  146.0259   72.3675  217.6352 H   0  0  0  0  0  0  0  0  0  0  0  0
  145.0587   74.2405  219.5631 H   0  0  0  0  0  0  0  0  0  0  0  0
  145.0715   74.3232  217.7387 H   0  0  0  0  0  0  0  0  0  0  0  0
  142.8121   74.7016  218.8711 H   0  0  0  0  0  0  0  0  0  0  0  0
  142.8762   73.4560  217.5776 H   0  0  0  0  0  0  0  0  0  0  0  0
  139.1855   75.6243  219.4140 H   0  0  0  0  0  0  0  0  0  0  0  0
  138.0020   76.6402  220.2950 H   0  0  0  0  0  0  0  0  0  0  0  0
  140.9118   77.2859  219.6096 H   0  0  0  0  0  0  0  0  0  0  0  0
  139.4067   78.1575  219.0967 H   0  0  0  0  0  0  0  0  0  0  0  0
  140.6095   80.2182  219.8907 H   0  0  0  0  0  0  0  0  0  0  0  0
  140.8865   81.7513  221.8362 H   0  0  0  0  0  0  0  0  0  0  0  0
  140.4589   80.9263  224.1510 H   0  0  0  0  0  0  0  0  0  0  0  0
  139.7634   78.5633  224.5302 H   0  0  0  0  0  0  0  0  0  0  0  0
  139.9343   76.2023  223.5086 H   0  0  0  0  0  0  0  0  0  0  0  0
  138.2750   76.6410  222.9458 H   0  0  0  0  0  0  0  0  0  0  0  0
  139.1364   70.3564  222.4065 H   0  0  0  0  0  0  0  0  0  0  0  0
  140.3891   69.4396  223.3165 H   0  0  0  0  0  0  0  0  0  0  0  0
  137.8846   70.7701  224.4643 H   0  0  0  0  0  0  0  0  0  0  0  0
  138.2073   69.0031  224.3083 H   0  0  0  0  0  0  0  0  0  0  0  0
  137.9332   68.5986  226.7016 H   0  0  0  0  0  0  0  0  0  0  0  0
  139.0272   68.6281  228.9401 H   0  0  0  0  0  0  0  0  0  0  0  0
  141.0500   70.0389  229.3273 H   0  0  0  0  0  0  0  0  0  0  0  0
  141.9538   71.4597  227.4864 H   0  0  0  0  0  0  0  0  0  0  0  0
  140.8285   72.7731  225.2694 H   0  0  0  0  0  0  0  0  0  0  0  0
  142.0794   71.5074  224.8546 H   0  0  0  0  0  0  0  0  0  0  0  0
  143.6621   71.0460  220.4413 H   0  0  0  0  0  0  0  0  0  0  0  0
  142.4346   70.6668  219.1598 H   0  0  0  0  0  0  0  0  0  0  0  0
  144.8839   70.2457  218.5405 H   0  0  0  0  0  0  0  0  0  0  0  0
  143.9149   71.2806  217.4114 H   0  0  0  0  0  0  0  0  0  0  0  0
  1  2  1  0
  2  3  1  0
  3  4  1  0
  4  5  1  0
  5  6  1  0
  6  7  1  0
  7  8  2  0
  8  9  1  0
  9 10  1  0
 10 11  1  0
 11 12  1  0
 12 13  1  0
 13 14  2  0
 14 15  1  0
 15 16  2  0
 16 17  1  0
 17 18  2  0
 18 19  1  0
  9 20  2  0
 20 21  1  0
 21 22  1  0
 22 23  1  0
 23 24  1  0
 24 25  1  0
 25 26  2  0
 26 27  1  0
 27 28  2  0
 28 29  1  0
 29 30  2  0
 30 31  1  0
 21 32  2  0
  6 33  1  0
 33 34  1  0
 34  3  1  0
 32  7  1  0
 19 10  1  0
 31 22  1  0
 18 13  1  0
 30 25  1  0
  1 35  1  0
  1 36  1  0
  1 37  1  0
  2 38  1  0
  3 39  1  0
  4 40  1  0
  4 41  1  0
  5 42  1  0
  5 43  1  0
 11 44  1  0
 11 45  1  0
 12 46  1  0
 12 47  1  0
 14 48  1  0
 15 49  1  0
 16 50  1  0
 17 51  1  0
 19 52  1  0
 19 53  1  0
 23 54  1  0
 23 55  1  0
 24 56  1  0
 24 57  1  0
 26 58  1  0
 27 59  1  0
 28 60  1  0
 29 61  1  0
 31 62  1  0
 31 63  1  0
 33 64  1  0
 33 65  1  0
 34 66  1  0
 34 67  1  0
M  END
>  <UniqueID>  (15) 
57

>  <SMILES>  (15) 
CNC1CCN(c2nc(N3CCc4ccccc4C3)nc(N3CCc4ccccc4C3)n2)CC1

>  <Energy>  (15) 
80.63595697295537

>  <Genealogy>  (15) 
CNC1CCN(c2nc(N3CCc4ccccc4C3)nc(N3CCc4ccccc4C3)n2)CC1 (3D coordinates assigned)
CNC1CCN(c2nc(N3CCc4ccccc4C3)nc(N3CCc4ccccc4C3)n2)CC1 (nonaromatic ring conformer: 80.63595697295537 kcal/mol)

>  <smiles>  (15) 
CNC1CCN(c2nc(N3CCc4ccccc4C3)nc(N3CCc4ccccc4C3)n2)CC1

>  <score_type>  (15) 
oracle

>  <origin>  (15) 
autodockgpu

>  <m_score__min__energy>  (15) 
-8.9900000000000002

>  <m_primary>  (15) 
energy

>  <meeko>  (15) 
{"free_energy": -8.83, "intermolecular_energy": -10.03, "internal_energy": -1.03, "cluster_size": 18, "cluster_id": 1, "rank_in_cluster": 10}

>  <energy>  (15) 
-8.69

>  <cluster_rmsd>  (15) 
1.0

>  <rmsd>  (15) 
271.58

>  <cluster>  (15) 
1

$$$$
DSYBMJCSYFRFMG-UHFFFAOYNA-N
     RDKit          3D

 67 72  0  0  0  0  0  0  0  0999 V2000
  141.0980   67.8170  227.0270 C   0  0  0  0  0  0  0  0  0  0  0  0
  140.7580   68.4400  225.7440 N   0  0  0  0  0  0  0  0  0  0  0  0
  139.5520   69.2870  225.8450 C   0  0  0  0  0  0  0  0  0  0  0  0
  138.7640   69.3420  224.4970 C   0  0  0  0  0  0  0  0  0  0  0  0
  138.5990   70.7620  223.9460 C   0  0  0  0  0  0  0  0  0  0  0  0
  139.8950   71.4580  223.9830 N   0  0  0  0  0  0  0  0  0  0  0  0
  140.4830   72.0250  222.7940 C   0  0  0  0  0  0  0  0  0  0  0  0
  141.0050   71.2120  221.8380 N   0  0  0  0  0  0  0  0  0  0  0  0
  141.5240   71.7260  220.6930 C   0  0  0  0  0  0  0  0  0  0  0  0
  142.0560   70.8520  219.6730 N   0  0  0  0  0  0  0  0  0  0  0  0
  141.3130   69.6800  219.2030 C   0  0  0  0  0  0  0  0  0  0  0  0
  142.0160   68.4180  219.7030 C   0  0  0  0  0  0  0  0  0  0  0  0
  143.5030   68.4660  219.4450 C   0  0  0  0  0  0  0  0  0  0  0  0
  144.2430   67.2740  219.4950 C   0  0  0  0  0  0  0  0  0  0  0  0
  145.6280   67.2920  219.3110 C   0  0  0  0  0  0  0  0  0  0  0  0
  146.2890   68.5010  219.0850 C   0  0  0  0  0  0  0  0  0  0  0  0
  145.5690   69.6980  219.0500 C   0  0  0  0  0  0  0  0  0  0  0  0
  144.1790   69.6970  219.2450 C   0  0  0  0  0  0  0  0  0  0  0  0
  143.4250   71.0050  219.1630 C   0  0  0  0  0  0  0  0  0  0  0  0
  141.5160   73.0730  220.5100 N   0  0  0  0  0  0  0  0  0  0  0  0
  141.0060   73.9020  221.4570 C   0  0  0  0  0  0  0  0  0  0  0  0
  140.9910   75.3290  221.2400 N   0  0  0  0  0  0  0  0  0  0  0  0
  141.1740   75.8840  219.8920 C   0  0  0  0  0  0  0  0  0  0  0  0
  142.0850   77.1040  219.9530 C   0  0  0  0  0  0  0  0  0  0  0  0
  141.5510   78.1070  220.9340 C   0  0  0  0  0  0  0  0  0  0  0  0
  141.8240   79.4740  220.7580 C   0  0  0  0  0  0  0  0  0  0  0  0
  141.3570   80.4120  221.6810 C   0  0  0  0  0  0  0  0  0  0  0  0
  140.6220   79.9930  222.7930 C   0  0  0  0  0  0  0  0  0  0  0  0
  140.3650   78.6330  222.9910 C   0  0  0  0  0  0  0  0  0  0  0  0
  140.8290   77.6790  222.0700 C   0  0  0  0  0  0  0  0  0  0  0  0
  140.5880   76.2130  222.3490 C   0  0  0  0  0  0  0  0  0  0  0  0
  140.4890   73.3690  222.5950 N   0  0  0  0  0  0  0  0  0  0  0  0
  140.6420   71.5120  225.2500 C   0  0  0  0  0  0  0  0  0  0  0  0
  139.9610   70.6860  226.3520 C   0  0  0  0  0  0  0  0  0  0  0  0
  140.7483   68.4578  227.8499 H   0  0  0  0  0  0  0  0  0  0  0  0
  140.6120   66.8326  227.0968 H   0  0  0  0  0  0  0  0  0  0  0  0
  142.1888   67.6932  227.0968 H   0  0  0  0  0  0  0  0  0  0  0  0
  140.6100   67.6860  225.0330 H   0  0  0  0  0  0  0  0  0  0  0  0
  138.8560   68.8428  226.5718 H   0  0  0  0  0  0  0  0  0  0  0  0
  139.3048   68.7397  223.7522 H   0  0  0  0  0  0  0  0  0  0  0  0
  137.7550   68.9511  224.6946 H   0  0  0  0  0  0  0  0  0  0  0  0
  138.2392   70.7126  222.9077 H   0  0  0  0  0  0  0  0  0  0  0  0
  137.8711   71.3110  224.5614 H   0  0  0  0  0  0  0  0  0  0  0  0
  140.2860   69.7114  219.5958 H   0  0  0  0  0  0  0  0  0  0  0  0
  141.2765   69.6768  218.1036 H   0  0  0  0  0  0  0  0  0  0  0  0
  141.8452   68.3201  220.7852 H   0  0  0  0  0  0  0  0  0  0  0  0
  141.6017   67.5568  219.1584 H   0  0  0  0  0  0  0  0  0  0  0  0
  143.7289   66.3193  219.6803 H   0  0  0  0  0  0  0  0  0  0  0  0
  146.1986   66.3521  219.3443 H   0  0  0  0  0  0  0  0  0  0  0  0
  147.3786   68.5111  218.9342 H   0  0  0  0  0  0  0  0  0  0  0  0
  146.0948   70.6470  218.8685 H   0  0  0  0  0  0  0  0  0  0  0  0
  143.9507   71.7623  219.7631 H   0  0  0  0  0  0  0  0  0  0  0  0
  143.3754   71.3174  218.1094 H   0  0  0  0  0  0  0  0  0  0  0  0
  141.6284   75.1216  219.2422 H   0  0  0  0  0  0  0  0  0  0  0  0
  140.1957   76.1823  219.4872 H   0  0  0  0  0  0  0  0  0  0  0  0
  143.0912   76.7897  220.2674 H   0  0  0  0  0  0  0  0  0  0  0  0
  142.1281   77.5675  218.9564 H   0  0  0  0  0  0  0  0  0  0  0  0
  142.4090   79.8072  219.8881 H   0  0  0  0  0  0  0  0  0  0  0  0
  141.5679   81.4814  221.5326 H   0  0  0  0  0  0  0  0  0  0  0  0
  140.2451   80.7339  223.5134 H   0  0  0  0  0  0  0  0  0  0  0  0
  139.7955   78.3077  223.8741 H   0  0  0  0  0  0  0  0  0  0  0  0
  141.1602   75.9305  223.2450 H   0  0  0  0  0  0  0  0  0  0  0  0
  139.5045   76.0841  222.4880 H   0  0  0  0  0  0  0  0  0  0  0  0
  141.6546   71.1160  225.0830 H   0  0  0  0  0  0  0  0  0  0  0  0
  140.6760   72.5603  225.5814 H   0  0  0  0  0  0  0  0  0  0  0  0
  140.6593   70.5701  227.1940 H   0  0  0  0  0  0  0  0  0  0  0  0
  139.0504   71.2171  226.6660 H   0  0  0  0  0  0  0  0  0  0  0  0
  1  2  1  0
  2  3  1  0
  3  4  1  0
  4  5  1  0
  5  6  1  0
  6  7  1  0
  7  8  2  0
  8  9  1  0
  9 10  1  0
 10 11  1  0
 11 12  1  0
 12 13  1  0
 13 14  2  0
 14 15  1  0
 15 16  2  0
 16 17  1  0
 17 18  2  0
 18 19  1  0
  9 20  2  0
 20 21  1  0
 21 22  1  0
 22 23  1  0
 23 24  1  0
 24 25  1  0
 25 26  2  0
 26 27  1  0
 27 28  2  0
 28 29  1  0
 29 30  2  0
 30 31  1  0
 21 32  2  0
  6 33  1  0
 33 34  1  0
 34  3  1  0
 32  7  1  0
 19 10  1  0
 31 22  1  0
 18 13  1  0
 30 25  1  0
  1 35  1  0
  1 36  1  0
  1 37  1  0
  2 38  1  0
  3 39  1  0
  4 40  1  0
  4 41  1  0
  5 42  1  0
  5 43  1  0
 11 44  1  0
 11 45  1  0
 12 46  1  0
 12 47  1  0
 14 48  1  0
 15 49  1  0
 16 50  1  0
 17 51  1  0
 19 52  1  0
 19 53  1  0
 23 54  1  0
 23 55  1  0
 24 56  1  0
 24 57  1  0
 26 58  1  0
 27 59  1  0
 28 60  1  0
 29 61  1  0
 31 62  1  0
 31 63  1  0
 33 64  1  0
 33 65  1  0
 34 66  1  0
 34 67  1  0
M  END
>  <UniqueID>  (16) 
57

>  <SMILES>  (16) 
CNC1CCN(c2nc(N3CCc4ccccc4C3)nc(N3CCc4ccccc4C3)n2)CC1

>  <Energy>  (16) 
80.63595697295537

>  <Genealogy>  (16) 
CNC1CCN(c2nc(N3CCc4ccccc4C3)nc(N3CCc4ccccc4C3)n2)CC1 (3D coordinates assigned)
CNC1CCN(c2nc(N3CCc4ccccc4C3)nc(N3CCc4ccccc4C3)n2)CC1 (nonaromatic ring conformer: 80.63595697295537 kcal/mol)

>  <smiles>  (16) 
CNC1CCN(c2nc(N3CCc4ccccc4C3)nc(N3CCc4ccccc4C3)n2)CC1

>  <score_type>  (16) 
oracle

>  <origin>  (16) 
autodockgpu

>  <m_score__min__energy>  (16) 
-8.9900000000000002

>  <m_primary>  (16) 
energy

>  <meeko>  (16) 
{"free_energy": -8.66, "intermolecular_energy": -9.86, "internal_energy": -0.97, "cluster_size": 2, "cluster_id": 2, "rank_in_cluster": 2}

>  <energy>  (16) 
-8.68

>  <cluster_rmsd>  (16) 
1.01

>  <rmsd>  (16) 
271.6

>  <cluster>  (16) 
1

$$$$
DSYBMJCSYFRFMG-UHFFFAOYNA-N
     RDKit          3D

 67 72  0  0  0  0  0  0  0  0999 V2000
  145.9510   73.8130  220.8620 C   0  0  0  0  0  0  0  0  0  0  0  0
  146.3830   72.6000  220.1600 N   0  0  0  0  0  0  0  0  0  0  0  0
  145.5530   72.3270  218.9690 C   0  0  0  0  0  0  0  0  0  0  0  0
  144.7270   73.5800  218.5340 C   0  0  0  0  0  0  0  0  0  0  0  0
  143.2140   73.3340  218.5150 C   0  0  0  0  0  0  0  0  0  0  0  0
  142.8060   72.6740  219.7650 N   0  0  0  0  0  0  0  0  0  0  0  0
  141.8010   73.2440  220.6270 C   0  0  0  0  0  0  0  0  0  0  0  0
  141.5700   74.5830  220.6120 N   0  0  0  0  0  0  0  0  0  0  0  0
  140.5980   75.1320  221.3860 C   0  0  0  0  0  0  0  0  0  0  0  0
  140.3450   76.5540  221.3450 N   0  0  0  0  0  0  0  0  0  0  0  0
  140.4940   77.3250  220.1080 C   0  0  0  0  0  0  0  0  0  0  0  0
  141.7210   78.2270  220.2350 C   0  0  0  0  0  0  0  0  0  0  0  0
  141.7310   78.9780  221.5460 C   0  0  0  0  0  0  0  0  0  0  0  0
  142.5590   80.1040  221.6810 C   0  0  0  0  0  0  0  0  0  0  0  0
  142.6280   80.7900  222.8960 C   0  0  0  0  0  0  0  0  0  0  0  0
  141.8790   80.3540  223.9900 C   0  0  0  0  0  0  0  0  0  0  0  0
  141.0630   79.2260  223.8770 C   0  0  0  0  0  0  0  0  0  0  0  0
  140.9920   78.5190  222.6660 C   0  0  0  0  0  0  0  0  0  0  0  0
  140.0710   77.3240  222.5660 C   0  0  0  0  0  0  0  0  0  0  0  0
  139.8510   74.3230  222.1830 N   0  0  0  0  0  0  0  0  0  0  0  0
  140.0730   72.9830  222.2180 C   0  0  0  0  0  0  0  0  0  0  0  0
  139.2610   72.1350  223.0580 N   0  0  0  0  0  0  0  0  0  0  0  0
  139.8390   71.4750  224.2370 C   0  0  0  0  0  0  0  0  0  0  0  0
  139.3230   70.0440  224.3350 C   0  0  0  0  0  0  0  0  0  0  0  0
  137.8210   70.0290  224.3300 C   0  0  0  0  0  0  0  0  0  0  0  0
  137.1290   68.9910  224.9760 C   0  0  0  0  0  0  0  0  0  0  0  0
  135.7340   68.9510  224.9500 C   0  0  0  0  0  0  0  0  0  0  0  0
  135.0170   69.9410  224.2730 C   0  0  0  0  0  0  0  0  0  0  0  0
  135.6970   70.9650  223.6070 C   0  0  0  0  0  0  0  0  0  0  0  0
  137.1000   71.0170  223.6240 C   0  0  0  0  0  0  0  0  0  0  0  0
  137.8040   72.1020  222.8400 C   0  0  0  0  0  0  0  0  0  0  0  0
  141.0480   72.4520  221.4350 N   0  0  0  0  0  0  0  0  0  0  0  0
  143.4930   71.4400  220.1790 C   0  0  0  0  0  0  0  0  0  0  0  0
  144.6640   71.0960  219.2470 C   0  0  0  0  0  0  0  0  0  0  0  0
  146.0095   73.6486  221.9481 H   0  0  0  0  0  0  0  0  0  0  0  0
  146.6058   74.6514  220.5822 H   0  0  0  0  0  0  0  0  0  0  0  0
  144.9136   74.0488  220.5822 H   0  0  0  0  0  0  0  0  0  0  0  0
  146.3340   71.7920  220.8250 H   0  0  0  0  0  0  0  0  0  0  0  0
  146.2076   72.0987  218.1149 H   0  0  0  0  0  0  0  0  0  0  0  0
  144.9385   74.3987  219.2375 H   0  0  0  0  0  0  0  0  0  0  0  0
  145.0291   73.8276  217.5057 H   0  0  0  0  0  0  0  0  0  0  0  0
  142.6879   74.2953  218.4199 H   0  0  0  0  0  0  0  0  0  0  0  0
  142.9593   72.6890  217.6611 H   0  0  0  0  0  0  0  0  0  0  0  0
  140.6258   76.6389  219.2583 H   0  0  0  0  0  0  0  0  0  0  0  0
  139.5959   77.9371  219.9385 H   0  0  0  0  0  0  0  0  0  0  0  0
  142.6272   77.6065  220.1730 H   0  0  0  0  0  0  0  0  0  0  0  0
  141.6902   78.9637  219.4187 H   0  0  0  0  0  0  0  0  0  0  0  0
  143.1572   80.4482  220.8245 H   0  0  0  0  0  0  0  0  0  0  0  0
  143.2738   81.6754  222.9906 H   0  0  0  0  0  0  0  0  0  0  0  0
  141.9314   80.9000  224.9435 H   0  0  0  0  0  0  0  0  0  0  0  0
  140.4725   78.8895  224.7419 H   0  0  0  0  0  0  0  0  0  0  0  0
  140.2237   76.6768  223.4422 H   0  0  0  0  0  0  0  0  0  0  0  0
  139.0316   77.6823  222.5307 H   0  0  0  0  0  0  0  0  0  0  0  0
  140.9353   71.4622  224.1471 H   0  0  0  0  0  0  0  0  0  0  0  0
  139.5468   72.0283  225.1417 H   0  0  0  0  0  0  0  0  0  0  0  0
  139.6944   69.4649  223.4767 H   0  0  0  0  0  0  0  0  0  0  0  0
  139.6818   69.5982  225.2745 H   0  0  0  0  0  0  0  0  0  0  0  0
  137.6893   68.2059  225.5049 H   0  0  0  0  0  0  0  0  0  0  0  0
  135.1982   68.1389  225.4632 H   0  0  0  0  0  0  0  0  0  0  0  0
  133.9174   69.9147  224.2641 H   0  0  0  0  0  0  0  0  0  0  0  0
  135.1287   71.7357  223.0656 H   0  0  0  0  0  0  0  0  0  0  0  0
  137.6161   71.9352  221.7691 H   0  0  0  0  0  0  0  0  0  0  0  0
  137.4032   73.0649  223.1894 H   0  0  0  0  0  0  0  0  0  0  0  0
  143.8788   71.5734  221.2004 H   0  0  0  0  0  0  0  0  0  0  0  0
  142.7675   70.6144  220.1337 H   0  0  0  0  0  0  0  0  0  0  0  0
  145.2764   70.3131  219.7181 H   0  0  0  0  0  0  0  0  0  0  0  0
  144.2494   70.7491  218.2890 H   0  0  0  0  0  0  0  0  0  0  0  0
  1  2  1  0
  2  3  1  0
  3  4  1  0
  4  5  1  0
  5  6  1  0
  6  7  1  0
  7  8  2  0
  8  9  1  0
  9 10  1  0
 10 11  1  0
 11 12  1  0
 12 13  1  0
 13 14  2  0
 14 15  1  0
 15 16  2  0
 16 17  1  0
 17 18  2  0
 18 19  1  0
  9 20  2  0
 20 21  1  0
 21 22  1  0
 22 23  1  0
 23 24  1  0
 24 25  1  0
 25 26  2  0
 26 27  1  0
 27 28  2  0
 28 29  1  0
 29 30  2  0
 30 31  1  0
 21 32  2  0
  6 33  1  0
 33 34  1  0
 34  3  1  0
 32  7  1  0
 19 10  1  0
 31 22  1  0
 18 13  1  0
 30 25  1  0
  1 35  1  0
  1 36  1  0
  1 37  1  0
  2 38  1  0
  3 39  1  0
  4 40  1  0
  4 41  1  0
  5 42  1  0
  5 43  1  0
 11 44  1  0
 11 45  1  0
 12 46  1  0
 12 47  1  0
 14 48  1  0
 15 49  1  0
 16 50  1  0
 17 51  1  0
 19 52  1  0
 19 53  1  0
 23 54  1  0
 23 55  1  0
 24 56  1  0
 24 57  1  0
 26 58  1  0
 27 59  1  0
 28 60  1  0
 29 61  1  0
 31 62  1  0
 31 63  1  0
 33 64  1  0
 33 65  1  0
 34 66  1  0
 34 67  1  0
M  END
>  <UniqueID>  (17) 
57

>  <SMILES>  (17) 
CNC1CCN(c2nc(N3CCc4ccccc4C3)nc(N3CCc4ccccc4C3)n2)CC1

>  <Energy>  (17) 
80.63595697295537

>  <Genealogy>  (17) 
CNC1CCN(c2nc(N3CCc4ccccc4C3)nc(N3CCc4ccccc4C3)n2)CC1 (3D coordinates assigned)
CNC1CCN(c2nc(N3CCc4ccccc4C3)nc(N3CCc4ccccc4C3)n2)CC1 (nonaromatic ring conformer: 80.63595697295537 kcal/mol)

>  <smiles>  (17) 
CNC1CCN(c2nc(N3CCc4ccccc4C3)nc(N3CCc4ccccc4C3)n2)CC1

>  <score_type>  (17) 
oracle

>  <origin>  (17) 
autodockgpu

>  <m_score__min__energy>  (17) 
-8.9900000000000002

>  <m_primary>  (17) 
energy

>  <meeko>  (17) 
{"free_energy": -8.83, "intermolecular_energy": -10.02, "internal_energy": -1.06, "cluster_size": 18, "cluster_id": 1, "rank_in_cluster": 12}

>  <energy>  (17) 
-8.65

>  <cluster_rmsd>  (17) 
0.68

>  <rmsd>  (17) 
271.62

>  <cluster>  (17) 
1

$$$$
DSYBMJCSYFRFMG-UHFFFAOYNA-N
     RDKit          3D

 67 72  0  0  0  0  0  0  0  0999 V2000
  146.1650   73.3030  220.4940 C   0  0  0  0  0  0  0  0  0  0  0  0
  146.2860   72.1800  219.5580 N   0  0  0  0  0  0  0  0  0  0  0  0
  145.3630   72.3150  218.4120 C   0  0  0  0  0  0  0  0  0  0  0  0
  144.6230   73.6900  218.4190 C   0  0  0  0  0  0  0  0  0  0  0  0
  143.0960   73.5590  218.4580 C   0  0  0  0  0  0  0  0  0  0  0  0
  142.7110   72.5960  219.5010 N   0  0  0  0  0  0  0  0  0  0  0  0
  141.8140   72.9580  220.5710 C   0  0  0  0  0  0  0  0  0  0  0  0
  141.1790   74.1590  220.5500 N   0  0  0  0  0  0  0  0  0  0  0  0
  140.2990   74.4990  221.5260 C   0  0  0  0  0  0  0  0  0  0  0  0
  139.6110   75.7690  221.4830 N   0  0  0  0  0  0  0  0  0  0  0  0
  139.1480   76.3490  220.2200 C   0  0  0  0  0  0  0  0  0  0  0  0
  140.0110   77.5660  219.8890 C   0  0  0  0  0  0  0  0  0  0  0  0
  140.1620   78.4840  221.0790 C   0  0  0  0  0  0  0  0  0  0  0  0
  140.5970   79.8030  220.8710 C   0  0  0  0  0  0  0  0  0  0  0  0
  140.7940   80.6620  221.9550 C   0  0  0  0  0  0  0  0  0  0  0  0
  140.5690   80.2100  223.2570 C   0  0  0  0  0  0  0  0  0  0  0  0
  140.1520   78.8960  223.4810 C   0  0  0  0  0  0  0  0  0  0  0  0
  139.9610   78.0180  222.4030 C   0  0  0  0  0  0  0  0  0  0  0  0
  139.4740   76.6130  222.6780 C   0  0  0  0  0  0  0  0  0  0  0  0
  140.0550   73.6190  222.5330 N   0  0  0  0  0  0  0  0  0  0  0  0
  140.6860   72.4170  222.5750 C   0  0  0  0  0  0  0  0  0  0  0  0
  140.4050   71.4870  223.6430 N   0  0  0  0  0  0  0  0  0  0  0  0
  139.6550   70.2510  223.3820 C   0  0  0  0  0  0  0  0  0  0  0  0
  138.6580   70.0020  224.5090 C   0  0  0  0  0  0  0  0  0  0  0  0
  139.3610   69.9940  225.8360 C   0  0  0  0  0  0  0  0  0  0  0  0
  138.8400   69.2390  226.9000 C   0  0  0  0  0  0  0  0  0  0  0  0
  139.4700   69.2490  228.1460 C   0  0  0  0  0  0  0  0  0  0  0  0
  140.6180   70.0190  228.3440 C   0  0  0  0  0  0  0  0  0  0  0  0
  141.1310   70.7930  227.2990 C   0  0  0  0  0  0  0  0  0  0  0  0
  140.5080   70.7920  226.0400 C   0  0  0  0  0  0  0  0  0  0  0  0
  141.0520   71.6900  224.9520 C   0  0  0  0  0  0  0  0  0  0  0  0
  141.5620   72.0940  221.5880 N   0  0  0  0  0  0  0  0  0  0  0  0
  143.3150   71.2530  219.4920 C   0  0  0  0  0  0  0  0  0  0  0  0
  144.3910   71.1160  218.4050 C   0  0  0  0  0  0  0  0  0  0  0  0
  146.2056   72.9258  221.5265 H   0  0  0  0  0  0  0  0  0  0  0  0
  146.9923   74.0089  220.3287 H   0  0  0  0  0  0  0  0  0  0  0  0
  145.2063   73.8165  220.3287 H   0  0  0  0  0  0  0  0  0  0  0  0
  146.0900   71.2900  220.0740 H   0  0  0  0  0  0  0  0  0  0  0  0
  145.9410   72.3000  217.4762 H   0  0  0  0  0  0  0  0  0  0  0  0
  144.9472   74.2560  219.3047 H   0  0  0  0  0  0  0  0  0  0  0  0
  144.8813   74.2027  217.4807 H   0  0  0  0  0  0  0  0  0  0  0  0
  142.6498   74.5392  218.6818 H   0  0  0  0  0  0  0  0  0  0  0  0
  142.7342   73.2047  217.4815 H   0  0  0  0  0  0  0  0  0  0  0  0
  139.2374   75.6032  219.4164 H   0  0  0  0  0  0  0  0  0  0  0  0
  138.0949   76.6528  220.3130 H   0  0  0  0  0  0  0  0  0  0  0  0
  141.0076   77.2217  219.5756 H   0  0  0  0  0  0  0  0  0  0  0  0
  139.5166   78.1280  219.0829 H   0  0  0  0  0  0  0  0  0  0  0  0
  140.7838   80.1620  219.8482 H   0  0  0  0  0  0  0  0  0  0  0  0
  141.1269   81.6961  221.7826 H   0  0  0  0  0  0  0  0  0  0  0  0
  140.7205   80.8903  224.1080 H   0  0  0  0  0  0  0  0  0  0  0  0
  139.9722   78.5472  224.5086 H   0  0  0  0  0  0  0  0  0  0  0  0
  140.0682   76.1791  223.4958 H   0  0  0  0  0  0  0  0  0  0  0  0
  138.4111   76.6572  222.9580 H   0  0  0  0  0  0  0  0  0  0  0  0
  139.1128   70.3474  222.4298 H   0  0  0  0  0  0  0  0  0  0  0  0
  140.3570   69.4060  223.3258 H   0  0  0  0  0  0  0  0  0  0  0  0
  137.8998   70.7989  224.5051 H   0  0  0  0  0  0  0  0  0  0  0  0
  138.1788   69.0243  224.3526 H   0  0  0  0  0  0  0  0  0  0  0  0
  137.9314   68.6371  226.7508 H   0  0  0  0  0  0  0  0  0  0  0  0
  139.0614   68.6495  228.9728 H   0  0  0  0  0  0  0  0  0  0  0  0
  141.1191   70.0165  229.3232 H   0  0  0  0  0  0  0  0  0  0  0  0
  142.0287   71.4070  227.4638 H   0  0  0  0  0  0  0  0  0  0  0  0
  140.9011   72.7362  225.2563 H   0  0  0  0  0  0  0  0  0  0  0  0
  142.1162   71.4404  224.8288 H   0  0  0  0  0  0  0  0  0  0  0  0
  143.7746   71.0633  220.4732 H   0  0  0  0  0  0  0  0  0  0  0  0
  142.5201   70.5233  219.2785 H   0  0  0  0  0  0  0  0  0  0  0  0
  144.9620   70.1927  218.5825 H   0  0  0  0  0  0  0  0  0  0  0  0
  143.8892   71.0861  217.4266 H   0  0  0  0  0  0  0  0  0  0  0  0
  1  2  1  0
  2  3  1  0
  3  4  1  0
  4  5  1  0
  5  6  1  0
  6  7  1  0
  7  8  2  0
  8  9  1  0
  9 10  1  0
 10 11  1  0
 11 12  1  0
 12 13  1  0
 13 14  2  0
 14 15  1  0
 15 16  2  0
 16 17  1  0
 17 18  2  0
 18 19  1  0
  9 20  2  0
 20 21  1  0
 21 22  1  0
 22 23  1  0
 23 24  1  0
 24 25  1  0
 25 26  2  0
 26 27  1  0
 27 28  2  0
 28 29  1  0
 29 30  2  0
 30 31  1  0
 21 32  2  0
  6 33  1  0
 33 34  1  0
 34  3  1  0
 32  7  1  0
 19 10  1  0
 31 22  1  0
 18 13  1  0
 30 25  1  0
  1 35  1  0
  1 36  1  0
  1 37  1  0
  2 38  1  0
  3 39  1  0
  4 40  1  0
  4 41  1  0
  5 42  1  0
  5 43  1  0
 11 44  1  0
 11 45  1  0
 12 46  1  0
 12 47  1  0
 14 48  1  0
 15 49  1  0
 16 50  1  0
 17 51  1  0
 19 52  1  0
 19 53  1  0
 23 54  1  0
 23 55  1  0
 24 56  1  0
 24 57  1  0
 26 58  1  0
 27 59  1  0
 28 60  1  0
 29 61  1  0
 31 62  1  0
 31 63  1  0
 33 64  1  0
 33 65  1  0
 34 66  1  0
 34 67  1  0
M  END
>  <UniqueID>  (18) 
57

>  <SMILES>  (18) 
CNC1CCN(c2nc(N3CCc4ccccc4C3)nc(N3CCc4ccccc4C3)n2)CC1

>  <Energy>  (18) 
80.63595697295537

>  <Genealogy>  (18) 
CNC1CCN(c2nc(N3CCc4ccccc4C3)nc(N3CCc4ccccc4C3)n2)CC1 (3D coordinates assigned)
CNC1CCN(c2nc(N3CCc4ccccc4C3)nc(N3CCc4ccccc4C3)n2)CC1 (nonaromatic ring conformer: 80.63595697295537 kcal/mol)

>  <smiles>  (18) 
CNC1CCN(c2nc(N3CCc4ccccc4C3)nc(N3CCc4ccccc4C3)n2)CC1

>  <score_type>  (18) 
oracle

>  <origin>  (18) 
autodockgpu

>  <m_score__min__energy>  (18) 
-8.9900000000000002

>  <m_primary>  (18) 
energy

>  <meeko>  (18) 
{"free_energy": -8.86, "intermolecular_energy": -10.06, "internal_energy": -1.03, "cluster_size": 18, "cluster_id": 1, "rank_in_cluster": 8}

>  <energy>  (18) 
-8.63

>  <cluster_rmsd>  (18) 
0.93

>  <rmsd>  (18) 
271.57

>  <cluster>  (18) 
1

$$$$
DSYBMJCSYFRFMG-UHFFFAOYNA-N
     RDKit          3D

 67 72  0  0  0  0  0  0  0  0999 V2000
  146.1070   73.4470  220.4410 C   0  0  0  0  0  0  0  0  0  0  0  0
  146.3150   72.3260  219.5170 N   0  0  0  0  0  0  0  0  0  0  0  0
  145.3670   72.3620  218.3850 C   0  0  0  0  0  0  0  0  0  0  0  0
  144.5600   73.6990  218.3410 C   0  0  0  0  0  0  0  0  0  0  0  0
  143.0430   73.4970  218.4170 C   0  0  0  0  0  0  0  0  0  0  0  0
  142.7240   72.5680  219.5120 N   0  0  0  0  0  0  0  0  0  0  0  0
  141.8290   72.9390  220.5820 C   0  0  0  0  0  0  0  0  0  0  0  0
  141.2040   74.1450  220.5590 N   0  0  0  0  0  0  0  0  0  0  0  0
  140.3260   74.4930  221.5350 C   0  0  0  0  0  0  0  0  0  0  0  0
  139.6480   75.7680  221.4890 N   0  0  0  0  0  0  0  0  0  0  0  0
  139.1810   76.3450  220.2260 C   0  0  0  0  0  0  0  0  0  0  0  0
  140.0520   77.5540  219.8850 C   0  0  0  0  0  0  0  0  0  0  0  0
  140.2170   78.4770  221.0690 C   0  0  0  0  0  0  0  0  0  0  0  0
  140.6610   79.7910  220.8530 C   0  0  0  0  0  0  0  0  0  0  0  0
  140.8710   80.6540  221.9320 C   0  0  0  0  0  0  0  0  0  0  0  0
  140.6500   80.2100  223.2370 C   0  0  0  0  0  0  0  0  0  0  0  0
  140.2240   78.9000  223.4700 C   0  0  0  0  0  0  0  0  0  0  0  0
  140.0200   78.0180  222.3970 C   0  0  0  0  0  0  0  0  0  0  0  0
  139.5240   76.6180  222.6810 C   0  0  0  0  0  0  0  0  0  0  0  0
  140.0750   73.6160  222.5430 N   0  0  0  0  0  0  0  0  0  0  0  0
  140.6970   72.4090  222.5870 C   0  0  0  0  0  0  0  0  0  0  0  0
  140.4090   71.4830  223.6560 N   0  0  0  0  0  0  0  0  0  0  0  0
  139.6320   70.2630  223.4010 C   0  0  0  0  0  0  0  0  0  0  0  0
  138.6430   70.0310  224.5370 C   0  0  0  0  0  0  0  0  0  0  0  0
  139.3600   70.0070  225.8570 C   0  0  0  0  0  0  0  0  0  0  0  0
  138.8350   69.2600  226.9260 C   0  0  0  0  0  0  0  0  0  0  0  0
  139.4770   69.2560  228.1650 C   0  0  0  0  0  0  0  0  0  0  0  0
  140.6430   70.0030  228.3520 C   0  0  0  0  0  0  0  0  0  0  0  0
  141.1600   70.7680  227.3030 C   0  0  0  0  0  0  0  0  0  0  0  0
  140.5240   70.7820  226.0510 C   0  0  0  0  0  0  0  0  0  0  0  0
  141.0740   71.6710  224.9580 C   0  0  0  0  0  0  0  0  0  0  0  0
  141.5710   72.0780  221.6000 N   0  0  0  0  0  0  0  0  0  0  0  0
  143.3920   71.2570  219.5550 C   0  0  0  0  0  0  0  0  0  0  0  0
  144.4540   71.1190  218.4550 C   0  0  0  0  0  0  0  0  0  0  0  0
  146.1742   73.0851  221.4776 H   0  0  0  0  0  0  0  0  0  0  0  0
  146.8785   74.2119  220.2690 H   0  0  0  0  0  0  0  0  0  0  0  0
  145.1124   73.8842  220.2690 H   0  0  0  0  0  0  0  0  0  0  0  0
  146.2080   71.4300  220.0480 H   0  0  0  0  0  0  0  0  0  0  0  0
  145.9291   72.3303  217.4400 H   0  0  0  0  0  0  0  0  0  0  0  0
  144.8718   74.3226  219.1918 H   0  0  0  0  0  0  0  0  0  0  0  0
  144.7759   74.1769  217.3740 H   0  0  0  0  0  0  0  0  0  0  0  0
  142.5536   74.4644  218.6032 H   0  0  0  0  0  0  0  0  0  0  0  0
  142.6816   73.0790  217.4659 H   0  0  0  0  0  0  0  0  0  0  0  0
  139.2599   75.5949  219.4253 H   0  0  0  0  0  0  0  0  0  0  0  0
  138.1305   76.6566  220.3232 H   0  0  0  0  0  0  0  0  0  0  0  0
  141.0442   77.2002  219.5681 H   0  0  0  0  0  0  0  0  0  0  0  0
  139.5572   78.1160  219.0792 H   0  0  0  0  0  0  0  0  0  0  0  0
  140.8449   80.1438  219.8275 H   0  0  0  0  0  0  0  0  0  0  0  0
  141.2110   81.6847  221.7528 H   0  0  0  0  0  0  0  0  0  0  0  0
  140.8116   80.8932  224.0838 H   0  0  0  0  0  0  0  0  0  0  0  0
  140.0474   78.5576  224.5003 H   0  0  0  0  0  0  0  0  0  0  0  0
  140.1195   76.1832  223.4973 H   0  0  0  0  0  0  0  0  0  0  0  0
  138.4631   76.6713  222.9669 H   0  0  0  0  0  0  0  0  0  0  0  0
  139.0816   70.3722  222.4549 H   0  0  0  0  0  0  0  0  0  0  0  0
  140.3167   69.4045  223.3360 H   0  0  0  0  0  0  0  0  0  0  0  0
  137.9001   70.8422  224.5425 H   0  0  0  0  0  0  0  0  0  0  0  0
  138.1435   69.0630  224.3839 H   0  0  0  0  0  0  0  0  0  0  0  0
  137.9137   68.6758  226.7851 H   0  0  0  0  0  0  0  0  0  0  0  0
  139.0647   68.6641  228.9954 H   0  0  0  0  0  0  0  0  0  0  0  0
  141.1544   69.9889  229.3258 H   0  0  0  0  0  0  0  0  0  0  0  0
  142.0716   71.3634  227.4591 H   0  0  0  0  0  0  0  0  0  0  0  0
  140.9472   72.7195  225.2654 H   0  0  0  0  0  0  0  0  0  0  0  0
  142.1316   71.4005  224.8228 H   0  0  0  0  0  0  0  0  0  0  0  0
  143.8773   71.1372  220.5348 H   0  0  0  0  0  0  0  0  0  0  0  0
  142.6299   70.4807  219.3922 H   0  0  0  0  0  0  0  0  0  0  0  0
  145.0722   70.2338  218.6651 H   0  0  0  0  0  0  0  0  0  0  0  0
  143.9370   71.0179  217.4894 H   0  0  0  0  0  0  0  0  0  0  0  0
  1  2  1  0
  2  3  1  0
  3  4  1  0
  4  5  1  0
  5  6  1  0
  6  7  1  0
  7  8  2  0
  8  9  1  0
  9 10  1  0
 10 11  1  0
 11 12  1  0
 12 13  1  0
 13 14  2  0
 14 15  1  0
 15 16  2  0
 16 17  1  0
 17 18  2  0
 18 19  1  0
  9 20  2  0
 20 21  1  0
 21 22  1  0
 22 23  1  0
 23 24  1  0
 24 25  1  0
 25 26  2  0
 26 27  1  0
 27 28  2  0
 28 29  1  0
 29 30  2  0
 30 31  1  0
 21 32  2  0
  6 33  1  0
 33 34  1  0
 34  3  1  0
 32  7  1  0
 19 10  1  0
 31 22  1  0
 18 13  1  0
 30 25  1  0
  1 35  1  0
  1 36  1  0
  1 37  1  0
  2 38  1  0
  3 39  1  0
  4 40  1  0
  4 41  1  0
  5 42  1  0
  5 43  1  0
 11 44  1  0
 11 45  1  0
 12 46  1  0
 12 47  1  0
 14 48  1  0
 15 49  1  0
 16 50  1  0
 17 51  1  0
 19 52  1  0
 19 53  1  0
 23 54  1  0
 23 55  1  0
 24 56  1  0
 24 57  1  0
 26 58  1  0
 27 59  1  0
 28 60  1  0
 29 61  1  0
 31 62  1  0
 31 63  1  0
 33 64  1  0
 33 65  1  0
 34 66  1  0
 34 67  1  0
M  END
>  <UniqueID>  (19) 
57

>  <SMILES>  (19) 
CNC1CCN(c2nc(N3CCc4ccccc4C3)nc(N3CCc4ccccc4C3)n2)CC1

>  <Energy>  (19) 
80.63595697295537

>  <Genealogy>  (19) 
CNC1CCN(c2nc(N3CCc4ccccc4C3)nc(N3CCc4ccccc4C3)n2)CC1 (3D coordinates assigned)
CNC1CCN(c2nc(N3CCc4ccccc4C3)nc(N3CCc4ccccc4C3)n2)CC1 (nonaromatic ring conformer: 80.63595697295537 kcal/mol)

>  <smiles>  (19) 
CNC1CCN(c2nc(N3CCc4ccccc4C3)nc(N3CCc4ccccc4C3)n2)CC1

>  <score_type>  (19) 
oracle

>  <origin>  (19) 
autodockgpu

>  <m_score__min__energy>  (19) 
-8.9900000000000002

>  <m_primary>  (19) 
energy

>  <meeko>  (19) 
{"free_energy": -8.88, "intermolecular_energy": -10.07, "internal_energy": -1.04, "cluster_size": 18, "cluster_id": 1, "rank_in_cluster": 4}

>  <energy>  (19) 
-8.7

>  <cluster_rmsd>  (19) 
0.0

>  <rmsd>  (19) 
271.23

>  <cluster>  (19) 
2

$$$$
DSYBMJCSYFRFMG-UHFFFAOYNA-N
     RDKit          3D

 67 72  0  0  0  0  0  0  0  0999 V2000
  145.8940   73.8280  220.8260 C   0  0  0  0  0  0  0  0  0  0  0  0
  146.3770   72.6160  220.1560 N   0  0  0  0  0  0  0  0  0  0  0  0
  145.5390   72.2580  218.9930 C   0  0  0  0  0  0  0  0  0  0  0  0
  144.6740   73.4640  218.5040 C   0  0  0  0  0  0  0  0  0  0  0  0
  143.1680   73.1790  218.5190 C   0  0  0  0  0  0  0  0  0  0  0  0
  142.7940   72.5760  219.8090 N   0  0  0  0  0  0  0  0  0  0  0  0
  141.7850   73.1660  220.6540 C   0  0  0  0  0  0  0  0  0  0  0  0
  141.5680   74.5070  220.6210 N   0  0  0  0  0  0  0  0  0  0  0  0
  140.5930   75.0740  221.3780 C   0  0  0  0  0  0  0  0  0  0  0  0
  140.3540   76.4980  221.3170 N   0  0  0  0  0  0  0  0  0  0  0  0
  140.5820   77.2640  220.0900 C   0  0  0  0  0  0  0  0  0  0  0  0
  141.8070   78.1570  220.2850 C   0  0  0  0  0  0  0  0  0  0  0  0
  141.7450   78.9120  221.5920 C   0  0  0  0  0  0  0  0  0  0  0  0
  142.5730   80.0310  221.7720 C   0  0  0  0  0  0  0  0  0  0  0  0
  142.5760   80.7210  222.9870 C   0  0  0  0  0  0  0  0  0  0  0  0
  141.7600   80.2950  224.0370 C   0  0  0  0  0  0  0  0  0  0  0  0
  140.9440   79.1730  223.8790 C   0  0  0  0  0  0  0  0  0  0  0  0
  140.9380   78.4620  222.6680 C   0  0  0  0  0  0  0  0  0  0  0  0
  140.0150   77.2740  222.5180 C   0  0  0  0  0  0  0  0  0  0  0  0
  139.8300   74.2810  222.1760 N   0  0  0  0  0  0  0  0  0  0  0  0
  140.0380   72.9400  222.2290 C   0  0  0  0  0  0  0  0  0  0  0  0
  139.2100   72.1100  223.0710 N   0  0  0  0  0  0  0  0  0  0  0  0
  139.7710   71.4520  224.2580 C   0  0  0  0  0  0  0  0  0  0  0  0
  139.2350   70.0290  224.3640 C   0  0  0  0  0  0  0  0  0  0  0  0
  137.7330   70.0340  224.3490 C   0  0  0  0  0  0  0  0  0  0  0  0
  137.0230   69.0100  224.9980 C   0  0  0  0  0  0  0  0  0  0  0  0
  135.6270   68.9890  224.9630 C   0  0  0  0  0  0  0  0  0  0  0  0
  134.9290   69.9830  224.2740 C   0  0  0  0  0  0  0  0  0  0  0  0
  135.6270   70.9930  223.6040 C   0  0  0  0  0  0  0  0  0  0  0  0
  137.0300   71.0260  223.6300 C   0  0  0  0  0  0  0  0  0  0  0  0
  137.7540   72.0950  222.8420 C   0  0  0  0  0  0  0  0  0  0  0  0
  141.0160   72.3910  221.4620 N   0  0  0  0  0  0  0  0  0  0  0  0
  143.5200   71.3850  220.2790 C   0  0  0  0  0  0  0  0  0  0  0  0
  144.6870   71.0210  219.3490 C   0  0  0  0  0  0  0  0  0  0  0  0
  145.9486   73.6909  221.9161 H   0  0  0  0  0  0  0  0  0  0  0  0
  146.5199   74.6835  220.5322 H   0  0  0  0  0  0  0  0  0  0  0  0
  144.8512   74.0186  220.5322 H   0  0  0  0  0  0  0  0  0  0  0  0
  146.3850   71.8300  220.8480 H   0  0  0  0  0  0  0  0  0  0  0  0
  146.1883   72.0014  218.1429 H   0  0  0  0  0  0  0  0  0  0  0  0
  144.8726   74.3242  219.1602 H   0  0  0  0  0  0  0  0  0  0  0  0
  144.9562   73.6636  217.4597 H   0  0  0  0  0  0  0  0  0  0  0  0
  142.6156   74.1201  218.3806 H   0  0  0  0  0  0  0  0  0  0  0  0
  142.9189   72.4835  217.7039 H   0  0  0  0  0  0  0  0  0  0  0  0
  140.7574   76.5743  219.2512 H   0  0  0  0  0  0  0  0  0  0  0  0
  139.7005   77.8834  219.8678 H   0  0  0  0  0  0  0  0  0  0  0  0
  142.7104   77.5295  220.2782 H   0  0  0  0  0  0  0  0  0  0  0  0
  141.8308   78.8906  219.4657 H   0  0  0  0  0  0  0  0  0  0  0  0
  143.2238   80.3669  220.9512 H   0  0  0  0  0  0  0  0  0  0  0  0
  143.2224   81.6015  223.1166 H   0  0  0  0  0  0  0  0  0  0  0  0
  141.7600   80.8442  224.9901 H   0  0  0  0  0  0  0  0  0  0  0  0
  140.3014   78.8437  224.7089 H   0  0  0  0  0  0  0  0  0  0  0  0
  140.1112   76.6285  223.4035 H   0  0  0  0  0  0  0  0  0  0  0  0
  138.9822   77.6400  222.4213 H   0  0  0  0  0  0  0  0  0  0  0  0
  140.8675   71.4236  224.1753 H   0  0  0  0  0  0  0  0  0  0  0  0
  139.4805   72.0164  225.1564 H   0  0  0  0  0  0  0  0  0  0  0  0
  139.6042   69.4380  223.5128 H   0  0  0  0  0  0  0  0  0  0  0  0
  139.5814   69.5862  225.3095 H   0  0  0  0  0  0  0  0  0  0  0  0
  137.5691   68.2212  225.5361 H   0  0  0  0  0  0  0  0  0  0  0  0
  135.0766   68.1884  225.4788 H   0  0  0  0  0  0  0  0  0  0  0  0
  133.8292   69.9717  224.2582 H   0  0  0  0  0  0  0  0  0  0  0  0
  135.0726   71.7669  223.0529 H   0  0  0  0  0  0  0  0  0  0  0  0
  137.5718   71.9216  221.7711 H   0  0  0  0  0  0  0  0  0  0  0  0
  137.3634   73.0662  223.1799 H   0  0  0  0  0  0  0  0  0  0  0  0
  143.9164   71.5844  221.2855 H   0  0  0  0  0  0  0  0  0  0  0  0
  142.8165   70.5394  220.2900 H   0  0  0  0  0  0  0  0  0  0  0  0
  145.3262   70.2803  219.8518 H   0  0  0  0  0  0  0  0  0  0  0  0
  144.2690   70.6122  218.4173 H   0  0  0  0  0  0  0  0  0  0  0  0
  1  2  1  0
  2  3  1  0
  3  4  1  0
  4  5  1  0
  5  6  1  0
  6  7  1  0
  7  8  2  0
  8  9  1  0
  9 10  1  0
 10 11  1  0
 11 12  1  0
 12 13  1  0
 13 14  2  0
 14 15  1  0
 15 16  2  0
 16 17  1  0
 17 18  2  0
 18 19  1  0
  9 20  2  0
 20 21  1  0
 21 22  1  0
 22 23  1  0
 23 24  1  0
 24 25  1  0
 25 26  2  0
 26 27  1  0
 27 28  2  0
 28 29  1  0
 29 30  2  0
 30 31  1  0
 21 32  2  0
  6 33  1  0
 33 34  1  0
 34  3  1  0
 32  7  1  0
 19 10  1  0
 31 22  1  0
 18 13  1  0
 30 25  1  0
  1 35  1  0
  1 36  1  0
  1 37  1  0
  2 38  1  0
  3 39  1  0
  4 40  1  0
  4 41  1  0
  5 42  1  0
  5 43  1  0
 11 44  1  0
 11 45  1  0
 12 46  1  0
 12 47  1  0
 14 48  1  0
 15 49  1  0
 16 50  1  0
 17 51  1  0
 19 52  1  0
 19 53  1  0
 23 54  1  0
 23 55  1  0
 24 56  1  0
 24 57  1  0
 26 58  1  0
 27 59  1  0
 28 60  1  0
 29 61  1  0
 31 62  1  0
 31 63  1  0
 33 64  1  0
 33 65  1  0
 34 66  1  0
 34 67  1  0
M  END
>  <UniqueID>  (20) 
57

>  <SMILES>  (20) 
CNC1CCN(c2nc(N3CCc4ccccc4C3)nc(N3CCc4ccccc4C3)n2)CC1

>  <Energy>  (20) 
80.63595697295537

>  <Genealogy>  (20) 
CNC1CCN(c2nc(N3CCc4ccccc4C3)nc(N3CCc4ccccc4C3)n2)CC1 (3D coordinates assigned)
CNC1CCN(c2nc(N3CCc4ccccc4C3)nc(N3CCc4ccccc4C3)n2)CC1 (nonaromatic ring conformer: 80.63595697295537 kcal/mol)

>  <smiles>  (20) 
CNC1CCN(c2nc(N3CCc4ccccc4C3)nc(N3CCc4ccccc4C3)n2)CC1

>  <score_type>  (20) 
oracle

>  <origin>  (20) 
autodockgpu

>  <m_score__min__energy>  (20) 
-8.9900000000000002

>  <m_primary>  (20) 
energy

>  <meeko>  (20) 
{"free_energy": -8.81, "intermolecular_energy": -10.01, "internal_energy": -1.06, "cluster_size": 18, "cluster_id": 1, "rank_in_cluster": 14}

>  <energy>  (20) 
-8.66

>  <cluster_rmsd>  (20) 
0.55

>  <rmsd>  (20) 
271.46

>  <cluster>  (20) 
2

$$$$
DSYBMJCSYFRFMG-UHFFFAOYNA-N
     RDKit          3D

 67 72  0  0  0  0  0  0  0  0999 V2000
  140.2690   67.3800  226.0920 C   0  0  0  0  0  0  0  0  0  0  0  0
  139.5730   67.9650  224.9420 N   0  0  0  0  0  0  0  0  0  0  0  0
  138.7190   69.1050  225.3370 C   0  0  0  0  0  0  0  0  0  0  0  0
  137.9010   69.6650  224.1300 C   0  0  0  0  0  0  0  0  0  0  0  0
  138.1710   71.1470  223.8470 C   0  0  0  0  0  0  0  0  0  0  0  0
  139.6230   71.3880  223.8310 N   0  0  0  0  0  0  0  0  0  0  0  0
  140.2800   71.9700  222.6860 C   0  0  0  0  0  0  0  0  0  0  0  0
  140.8370   71.1690  221.7400 N   0  0  0  0  0  0  0  0  0  0  0  0
  141.4220   71.6990  220.6350 C   0  0  0  0  0  0  0  0  0  0  0  0
  141.9910   70.8370  219.6240 N   0  0  0  0  0  0  0  0  0  0  0  0
  141.2840   69.6480  219.1410 C   0  0  0  0  0  0  0  0  0  0  0  0
  142.0070   68.4030  219.6530 C   0  0  0  0  0  0  0  0  0  0  0  0
  143.4970   68.4860  219.4210 C   0  0  0  0  0  0  0  0  0  0  0  0
  144.2640   67.3120  219.4830 C   0  0  0  0  0  0  0  0  0  0  0  0
  145.6510   67.3620  219.3220 C   0  0  0  0  0  0  0  0  0  0  0  0
  146.2870   68.5860  219.1070 C   0  0  0  0  0  0  0  0  0  0  0  0
  145.5400   69.7660  219.0600 C   0  0  0  0  0  0  0  0  0  0  0  0
  144.1470   69.7320  219.2310 C   0  0  0  0  0  0  0  0  0  0  0  0
  143.3650   71.0230  219.1370 C   0  0  0  0  0  0  0  0  0  0  0  0
  141.4440   73.0480  220.4810 N   0  0  0  0  0  0  0  0  0  0  0  0
  140.9000   73.8660  221.4190 C   0  0  0  0  0  0  0  0  0  0  0  0
  140.9190   75.2970  221.2340 N   0  0  0  0  0  0  0  0  0  0  0  0
  141.1840   75.8780  219.9100 C   0  0  0  0  0  0  0  0  0  0  0  0
  142.1090   77.0810  220.0470 C   0  0  0  0  0  0  0  0  0  0  0  0
  141.5380   78.0720  221.0200 C   0  0  0  0  0  0  0  0  0  0  0  0
  141.8410   79.4380  220.8890 C   0  0  0  0  0  0  0  0  0  0  0  0
  141.3390   80.3630  221.8060 C   0  0  0  0  0  0  0  0  0  0  0  0
  140.5380   79.9330  222.8670 C   0  0  0  0  0  0  0  0  0  0  0  0
  140.2490   78.5730  223.0200 C   0  0  0  0  0  0  0  0  0  0  0  0
  140.7480   77.6320  222.1060 C   0  0  0  0  0  0  0  0  0  0  0  0
  140.4700   76.1640  222.3380 C   0  0  0  0  0  0  0  0  0  0  0  0
  140.3170   73.3180  222.5170 N   0  0  0  0  0  0  0  0  0  0  0  0
  140.4320   70.9570  224.9820 C   0  0  0  0  0  0  0  0  0  0  0  0
  139.5970   70.1810  226.0110 C   0  0  0  0  0  0  0  0  0  0  0  0
  139.8203   67.7571  227.0228 H   0  0  0  0  0  0  0  0  0  0  0  0
  140.1766   66.2844  226.0580 H   0  0  0  0  0  0  0  0  0  0  0  0
  141.3324   67.6595  226.0580 H   0  0  0  0  0  0  0  0  0  0  0  0
  138.9930   67.2220  224.4870 H   0  0  0  0  0  0  0  0  0  0  0  0
  137.9683   68.7623  226.0643 H   0  0  0  0  0  0  0  0  0  0  0  0
  138.1626   69.0853  223.2325 H   0  0  0  0  0  0  0  0  0  0  0  0
  136.8359   69.5726  224.3887 H   0  0  0  0  0  0  0  0  0  0  0  0
  137.7439   71.4173  222.8700 H   0  0  0  0  0  0  0  0  0  0  0  0
  137.7066   71.7605  224.6332 H   0  0  0  0  0  0  0  0  0  0  0  0
  140.2498   69.6552  219.5157 H   0  0  0  0  0  0  0  0  0  0  0  0
  141.2670   69.6444  218.0411 H   0  0  0  0  0  0  0  0  0  0  0  0
  141.8196   68.3007  220.7321 H   0  0  0  0  0  0  0  0  0  0  0  0
  141.6225   67.5325  219.1013 H   0  0  0  0  0  0  0  0  0  0  0  0
  143.7694   66.3455  219.6596 H   0  0  0  0  0  0  0  0  0  0  0  0
  146.2426   66.4356  219.3647 H   0  0  0  0  0  0  0  0  0  0  0  0
  147.3784   68.6216  218.9743 H   0  0  0  0  0  0  0  0  0  0  0  0
  146.0464   70.7272  218.8880 H   0  0  0  0  0  0  0  0  0  0  0  0
  143.8628   71.7915  219.7466 H   0  0  0  0  0  0  0  0  0  0  0  0
  143.3264   71.3361  218.0832 H   0  0  0  0  0  0  0  0  0  0  0  0
  141.6612   75.1222  219.2690 H   0  0  0  0  0  0  0  0  0  0  0  0
  140.2339   76.2013  219.4598 H   0  0  0  0  0  0  0  0  0  0  0  0
  143.0917   76.7434  220.4081 H   0  0  0  0  0  0  0  0  0  0  0  0
  142.2132   77.5648  219.0646 H   0  0  0  0  0  0  0  0  0  0  0  0
  142.4772   79.7801  220.0594 H   0  0  0  0  0  0  0  0  0  0  0  0
  141.5743   81.4316  221.6932 H   0  0  0  0  0  0  0  0  0  0  0  0
  140.1344   80.6645  223.5825 H   0  0  0  0  0  0  0  0  0  0  0  0
  139.6261   78.2386  223.8627 H   0  0  0  0  0  0  0  0  0  0  0  0
  140.9880   75.8530  223.2572 H   0  0  0  0  0  0  0  0  0  0  0  0
  139.3785   76.0504  222.4141 H   0  0  0  0  0  0  0  0  0  0  0  0
  141.2450   70.3091  224.6225 H   0  0  0  0  0  0  0  0  0  0  0  0
  140.8299   71.8564  225.4747 H   0  0  0  0  0  0  0  0  0  0  0  0
  140.2757   69.6917  226.7251 H   0  0  0  0  0  0  0  0  0  0  0  0
  138.9341   70.8938  226.5233 H   0  0  0  0  0  0  0  0  0  0  0  0
  1  2  1  0
  2  3  1  0
  3  4  1  0
  4  5  1  0
  5  6  1  0
  6  7  1  0
  7  8  2  0
  8  9  1  0
  9 10  1  0
 10 11  1  0
 11 12  1  0
 12 13  1  0
 13 14  2  0
 14 15  1  0
 15 16  2  0
 16 17  1  0
 17 18  2  0
 18 19  1  0
  9 20  2  0
 20 21  1  0
 21 22  1  0
 22 23  1  0
 23 24  1  0
 24 25  1  0
 25 26  2  0
 26 27  1  0
 27 28  2  0
 28 29  1  0
 29 30  2  0
 30 31  1  0
 21 32  2  0
  6 33  1  0
 33 34  1  0
 34  3  1  0
 32  7  1  0
 19 10  1  0
 31 22  1  0
 18 13  1  0
 30 25  1  0
  1 35  1  0
  1 36  1  0
  1 37  1  0
  2 38  1  0
  3 39  1  0
  4 40  1  0
  4 41  1  0
  5 42  1  0
  5 43  1  0
 11 44  1  0
 11 45  1  0
 12 46  1  0
 12 47  1  0
 14 48  1  0
 15 49  1  0
 16 50  1  0
 17 51  1  0
 19 52  1  0
 19 53  1  0
 23 54  1  0
 23 55  1  0
 24 56  1  0
 24 57  1  0
 26 58  1  0
 27 59  1  0
 28 60  1  0
 29 61  1  0
 31 62  1  0
 31 63  1  0
 33 64  1  0
 33 65  1  0
 34 66  1  0
 34 67  1  0
M  END
>  <UniqueID>  (21) 
58

>  <SMILES>  (21) 
CNC1CCN(c2nc(N3CCc4ccccc4C3)nc(N3CCc4ccccc4C3)n2)CC1

>  <Energy>  (21) 
80.66862480415755

>  <Genealogy>  (21) 
CNC1CCN(c2nc(N3CCc4ccccc4C3)nc(N3CCc4ccccc4C3)n2)CC1 (3D coordinates assigned)
CNC1CCN(c2nc(N3CCc4ccccc4C3)nc(N3CCc4ccccc4C3)n2)CC1 (nonaromatic ring conformer: 80.66862480415755 kcal/mol)

>  <smiles>  (21) 
CNC1CCN(c2nc(N3CCc4ccccc4C3)nc(N3CCc4ccccc4C3)n2)CC1

>  <score_type>  (21) 
oracle

>  <origin>  (21) 
autodockgpu

>  <m_score__min__energy>  (21) 
-8.9900000000000002

>  <m_primary>  (21) 
energy

>  <meeko>  (21) 
{"free_energy": -8.7, "intermolecular_energy": -9.9, "internal_energy": -0.98, "cluster_size": 2, "cluster_id": 2, "rank_in_cluster": 1}

>  <energy>  (21) 
-8.99

>  <cluster_rmsd>  (21) 
0.0

>  <rmsd>  (21) 
271.83

>  <cluster>  (21) 
1

$$$$
DSYBMJCSYFRFMG-UHFFFAOYNA-N
     RDKit          3D

 67 72  0  0  0  0  0  0  0  0999 V2000
  145.6830   73.1260  219.3790 C   0  0  0  0  0  0  0  0  0  0  0  0
  145.9480   72.2460  218.2360 N   0  0  0  0  0  0  0  0  0  0  0  0
  144.8000   72.1880  217.3080 C   0  0  0  0  0  0  0  0  0  0  0  0
  143.9700   73.5110  217.3220 C   0  0  0  0  0  0  0  0  0  0  0  0
  142.5000   73.3030  217.7030 C   0  0  0  0  0  0  0  0  0  0  0  0
  142.4180   72.4570  218.9040 N   0  0  0  0  0  0  0  0  0  0  0  0
  141.7360   72.9010  220.0950 C   0  0  0  0  0  0  0  0  0  0  0  0
  141.3600   74.2010  220.2220 N   0  0  0  0  0  0  0  0  0  0  0  0
  140.6800   74.6260  221.3170 C   0  0  0  0  0  0  0  0  0  0  0  0
  140.2650   76.0060  221.4300 N   0  0  0  0  0  0  0  0  0  0  0  0
  139.9190   76.8040  220.2510 C   0  0  0  0  0  0  0  0  0  0  0  0
  141.0090   77.8510  220.0280 C   0  0  0  0  0  0  0  0  0  0  0  0
  141.3530   78.5830  221.3040 C   0  0  0  0  0  0  0  0  0  0  0  0
  142.0450   79.8010  221.2270 C   0  0  0  0  0  0  0  0  0  0  0  0
  142.4210   80.4770  222.3900 C   0  0  0  0  0  0  0  0  0  0  0  0
  142.1180   79.9380  223.6420 C   0  0  0  0  0  0  0  0  0  0  0  0
  141.4450   78.7180  223.7360 C   0  0  0  0  0  0  0  0  0  0  0  0
  141.0710   78.0210  222.5760 C   0  0  0  0  0  0  0  0  0  0  0  0
  140.3110   76.7220  222.7120 C   0  0  0  0  0  0  0  0  0  0  0  0
  140.3740   73.7330  222.2940 N   0  0  0  0  0  0  0  0  0  0  0  0
  140.7480   72.4320  222.1900 C   0  0  0  0  0  0  0  0  0  0  0  0
  140.4020   71.4920  223.2300 N   0  0  0  0  0  0  0  0  0  0  0  0
  139.5750   70.3150  222.9310 C   0  0  0  0  0  0  0  0  0  0  0  0
  138.5600   70.0980  224.0470 C   0  0  0  0  0  0  0  0  0  0  0  0
  139.2540   70.0070  225.3750 C   0  0  0  0  0  0  0  0  0  0  0  0
  138.6800   69.2580  226.4160 C   0  0  0  0  0  0  0  0  0  0  0  0
  139.3030   69.1920  227.6640 C   0  0  0  0  0  0  0  0  0  0  0  0
  140.4980   69.8810  227.8880 C   0  0  0  0  0  0  0  0  0  0  0  0
  141.0650   70.6490  226.8660 C   0  0  0  0  0  0  0  0  0  0  0  0
  140.4490   70.7240  225.6060 C   0  0  0  0  0  0  0  0  0  0  0  0
  141.0550   71.6150  224.5460 C   0  0  0  0  0  0  0  0  0  0  0  0
  141.4260   72.0240  221.0850 N   0  0  0  0  0  0  0  0  0  0  0  0
  143.1110   71.1590  218.9140 C   0  0  0  0  0  0  0  0  0  0  0  0
  143.9460   70.9460  217.6430 C   0  0  0  0  0  0  0  0  0  0  0  0
  145.8498   72.5721  220.3146 H   0  0  0  0  0  0  0  0  0  0  0  0
  146.3602   73.9919  219.3398 H   0  0  0  0  0  0  0  0  0  0  0  0
  144.6402   73.4740  219.3398 H   0  0  0  0  0  0  0  0  0  0  0  0
  146.1700   71.2880  218.5940 H   0  0  0  0  0  0  0  0  0  0  0  0
  145.1710   72.0891  216.2772 H   0  0  0  0  0  0  0  0  0  0  0  0
  144.4245   74.2002  218.0490 H   0  0  0  0  0  0  0  0  0  0  0  0
  143.9864   73.9156  216.2993 H   0  0  0  0  0  0  0  0  0  0  0  0
  142.0334   74.2776  217.9088 H   0  0  0  0  0  0  0  0  0  0  0  0
  141.9726   72.8113  216.8723 H   0  0  0  0  0  0  0  0  0  0  0  0
  139.8488   76.1499  219.3694 H   0  0  0  0  0  0  0  0  0  0  0  0
  138.9500   77.3007  220.4071 H   0  0  0  0  0  0  0  0  0  0  0  0
  141.9124   77.3497  219.6504 H   0  0  0  0  0  0  0  0  0  0  0  0
  140.6329   78.5871  219.3022 H   0  0  0  0  0  0  0  0  0  0  0  0
  142.2932   80.2267  220.2436 H   0  0  0  0  0  0  0  0  0  0  0  0
  142.9565   81.4352  222.3195 H   0  0  0  0  0  0  0  0  0  0  0  0
  142.4100   80.4755  224.5562 H   0  0  0  0  0  0  0  0  0  0  0  0
  141.2064   78.3004  224.7253 H   0  0  0  0  0  0  0  0  0  0  0  0
  140.8102   76.0891  223.4605 H   0  0  0  0  0  0  0  0  0  0  0  0
  139.2813   76.9480  223.0260 H   0  0  0  0  0  0  0  0  0  0  0  0
  139.0441   70.4740  221.9808 H   0  0  0  0  0  0  0  0  0  0  0  0
  140.2214   69.4285  222.8516 H   0  0  0  0  0  0  0  0  0  0  0  0
  137.8541   70.9414  224.0640 H   0  0  0  0  0  0  0  0  0  0  0  0
  138.0207   69.1575  223.8610 H   0  0  0  0  0  0  0  0  0  0  0  0
  137.7350   68.7209  226.2470 H   0  0  0  0  0  0  0  0  0  0  0  0
  138.8525   68.5968  228.4719 H   0  0  0  0  0  0  0  0  0  0  0  0
  140.9928   69.8192  228.8685 H   0  0  0  0  0  0  0  0  0  0  0  0
  142.0001   71.1983  227.0503 H   0  0  0  0  0  0  0  0  0  0  0  0
  140.9711   72.6597  224.8799 H   0  0  0  0  0  0  0  0  0  0  0  0
  142.1012   71.3002  224.4185 H   0  0  0  0  0  0  0  0  0  0  0  0
  143.7773   71.1183  219.7883 H   0  0  0  0  0  0  0  0  0  0  0  0
  142.3496   70.3663  218.9585 H   0  0  0  0  0  0  0  0  0  0  0  0
  144.6131   70.0846  217.7946 H   0  0  0  0  0  0  0  0  0  0  0  0
  143.2565   70.7668  216.8049 H   0  0  0  0  0  0  0  0  0  0  0  0
  1  2  1  0
  2  3  1  0
  3  4  1  0
  4  5  1  0
  5  6  1  0
  6  7  1  0
  7  8  2  0
  8  9  1  0
  9 10  1  0
 10 11  1  0
 11 12  1  0
 12 13  1  0
 13 14  2  0
 14 15  1  0
 15 16  2  0
 16 17  1  0
 17 18  2  0
 18 19  1  0
  9 20  2  0
 20 21  1  0
 21 22  1  0
 22 23  1  0
 23 24  1  0
 24 25  1  0
 25 26  2  0
 26 27  1  0
 27 28  2  0
 28 29  1  0
 29 30  2  0
 30 31  1  0
 21 32  2  0
  6 33  1  0
 33 34  1  0
 34  3  1  0
 32  7  1  0
 19 10  1  0
 31 22  1  0
 18 13  1  0
 30 25  1  0
  1 35  1  0
  1 36  1  0
  1 37  1  0
  2 38  1  0
  3 39  1  0
  4 40  1  0
  4 41  1  0
  5 42  1  0
  5 43  1  0
 11 44  1  0
 11 45  1  0
 12 46  1  0
 12 47  1  0
 14 48  1  0
 15 49  1  0
 16 50  1  0
 17 51  1  0
 19 52  1  0
 19 53  1  0
 23 54  1  0
 23 55  1  0
 24 56  1  0
 24 57  1  0
 26 58  1  0
 27 59  1  0
 28 60  1  0
 29 61  1  0
 31 62  1  0
 31 63  1  0
 33 64  1  0
 33 65  1  0
 34 66  1  0
 34 67  1  0
M  END
>  <UniqueID>  (22) 
58

>  <SMILES>  (22) 
CNC1CCN(c2nc(N3CCc4ccccc4C3)nc(N3CCc4ccccc4C3)n2)CC1

>  <Energy>  (22) 
80.66862480415755

>  <Genealogy>  (22) 
CNC1CCN(c2nc(N3CCc4ccccc4C3)nc(N3CCc4ccccc4C3)n2)CC1 (3D coordinates assigned)
CNC1CCN(c2nc(N3CCc4ccccc4C3)nc(N3CCc4ccccc4C3)n2)CC1 (nonaromatic ring conformer: 80.66862480415755 kcal/mol)

>  <smiles>  (22) 
CNC1CCN(c2nc(N3CCc4ccccc4C3)nc(N3CCc4ccccc4C3)n2)CC1

>  <score_type>  (22) 
oracle

>  <origin>  (22) 
autodockgpu

>  <m_score__min__energy>  (22) 
-8.9900000000000002

>  <m_primary>  (22) 
energy

>  <meeko>  (22) 
{"free_energy": -8.86, "intermolecular_energy": -10.06, "internal_energy": -1.03, "cluster_size": 18, "cluster_id": 1, "rank_in_cluster": 6}

>  <energy>  (22) 
-8.98

>  <cluster_rmsd>  (22) 
0.05

>  <rmsd>  (22) 
271.81

>  <cluster>  (22) 
1

$$$$
DSYBMJCSYFRFMG-UHFFFAOYNA-N
     RDKit          3D

 67 72  0  0  0  0  0  0  0  0999 V2000
  145.9370   73.8300  220.8810 C   0  0  0  0  0  0  0  0  0  0  0  0
  146.3940   72.6200  220.1900 N   0  0  0  0  0  0  0  0  0  0  0  0
  145.5650   72.3150  219.0050 C   0  0  0  0  0  0  0  0  0  0  0  0
  144.7220   73.5490  218.5500 C   0  0  0  0  0  0  0  0  0  0  0  0
  143.2130   73.2840  218.5390 C   0  0  0  0  0  0  0  0  0  0  0  0
  142.8160   72.6420  219.8020 N   0  0  0  0  0  0  0  0  0  0  0  0
  141.8060   73.2150  220.6570 C   0  0  0  0  0  0  0  0  0  0  0  0
  141.5760   74.5540  220.6370 N   0  0  0  0  0  0  0  0  0  0  0  0
  140.6000   75.1060  221.4030 C   0  0  0  0  0  0  0  0  0  0  0  0
  140.3490   76.5280  221.3570 N   0  0  0  0  0  0  0  0  0  0  0  0
  140.5180   77.2980  220.1230 C   0  0  0  0  0  0  0  0  0  0  0  0
  141.7440   78.2000  220.2680 C   0  0  0  0  0  0  0  0  0  0  0  0
  141.7340   78.9510  221.5780 C   0  0  0  0  0  0  0  0  0  0  0  0
  142.5610   80.0760  221.7260 C   0  0  0  0  0  0  0  0  0  0  0  0
  142.6110   80.7630  222.9420 C   0  0  0  0  0  0  0  0  0  0  0  0
  141.8440   80.3280  224.0240 C   0  0  0  0  0  0  0  0  0  0  0  0
  141.0290   79.2010  223.8980 C   0  0  0  0  0  0  0  0  0  0  0  0
  140.9770   78.4930  222.6870 C   0  0  0  0  0  0  0  0  0  0  0  0
  140.0560   77.2990  222.5730 C   0  0  0  0  0  0  0  0  0  0  0  0
  139.8470   74.2990  222.1960 N   0  0  0  0  0  0  0  0  0  0  0  0
  140.0670   72.9590  222.2360 C   0  0  0  0  0  0  0  0  0  0  0  0
  139.2490   72.1150  223.0730 N   0  0  0  0  0  0  0  0  0  0  0  0
  139.8170   71.4590  224.2590 C   0  0  0  0  0  0  0  0  0  0  0  0
  139.3010   70.0280  224.3580 C   0  0  0  0  0  0  0  0  0  0  0  0
  137.7990   70.0130  224.3410 C   0  0  0  0  0  0  0  0  0  0  0  0
  137.1020   68.9770  224.9850 C   0  0  0  0  0  0  0  0  0  0  0  0
  135.7060   68.9370  224.9480 C   0  0  0  0  0  0  0  0  0  0  0  0
  134.9960   69.9240  224.2620 C   0  0  0  0  0  0  0  0  0  0  0  0
  135.6800   70.9460  223.5980 C   0  0  0  0  0  0  0  0  0  0  0  0
  137.0840   70.9980  223.6250 C   0  0  0  0  0  0  0  0  0  0  0  0
  137.7930   72.0800  222.8430 C   0  0  0  0  0  0  0  0  0  0  0  0
  141.0460   72.4260  221.4610 N   0  0  0  0  0  0  0  0  0  0  0  0
  143.5200   71.4250  220.2380 C   0  0  0  0  0  0  0  0  0  0  0  0
  144.6930   71.0780  219.3080 C   0  0  0  0  0  0  0  0  0  0  0  0
  145.9954   73.6754  221.9685 H   0  0  0  0  0  0  0  0  0  0  0  0
  146.5766   74.6785  220.5964 H   0  0  0  0  0  0  0  0  0  0  0  0
  144.8962   74.0438  220.5964 H   0  0  0  0  0  0  0  0  0  0  0  0
  146.3690   71.8190  220.8630 H   0  0  0  0  0  0  0  0  0  0  0  0
  146.2202   72.0802  218.1532 H   0  0  0  0  0  0  0  0  0  0  0  0
  144.9246   74.3827  219.2384 H   0  0  0  0  0  0  0  0  0  0  0  0
  145.0185   73.7818  217.5166 H   0  0  0  0  0  0  0  0  0  0  0  0
  142.6747   74.2368  218.4275 H   0  0  0  0  0  0  0  0  0  0  0  0
  142.9645   72.6203  217.6977 H   0  0  0  0  0  0  0  0  0  0  0  0
  140.6625   76.6114  219.2758 H   0  0  0  0  0  0  0  0  0  0  0  0
  139.6231   77.9109  219.9398 H   0  0  0  0  0  0  0  0  0  0  0  0
  142.6508   77.5792  220.2201 H   0  0  0  0  0  0  0  0  0  0  0  0
  141.7262   78.9362  219.4509 H   0  0  0  0  0  0  0  0  0  0  0  0
  143.1736   80.4189  220.8792 H   0  0  0  0  0  0  0  0  0  0  0  0
  143.2559   81.6480  223.0466 H   0  0  0  0  0  0  0  0  0  0  0  0
  141.8816   80.8741  224.9781 H   0  0  0  0  0  0  0  0  0  0  0  0
  140.4239   78.8659  224.7533 H   0  0  0  0  0  0  0  0  0  0  0  0
  140.1937   76.6522  223.4520 H   0  0  0  0  0  0  0  0  0  0  0  0
  139.0177   77.6585  222.5208 H   0  0  0  0  0  0  0  0  0  0  0  0
  140.9140   71.4463  224.1785 H   0  0  0  0  0  0  0  0  0  0  0  0
  139.5164   72.0153  225.1591 H   0  0  0  0  0  0  0  0  0  0  0  0
  139.6794   69.4460  223.5047 H   0  0  0  0  0  0  0  0  0  0  0  0
  139.6526   69.5854  225.3016 H   0  0  0  0  0  0  0  0  0  0  0  0
  137.6581   68.1937  225.5209 H   0  0  0  0  0  0  0  0  0  0  0  0
  135.1657   68.1270  225.4599 H   0  0  0  0  0  0  0  0  0  0  0  0
  133.8965   69.8973  224.2440 H   0  0  0  0  0  0  0  0  0  0  0  0
  135.1154   71.7150  223.0505 H   0  0  0  0  0  0  0  0  0  0  0  0
  137.6140   71.9089  221.7712 H   0  0  0  0  0  0  0  0  0  0  0  0
  137.3885   73.0439  223.1853 H   0  0  0  0  0  0  0  0  0  0  0  0
  143.9074   71.5833  221.2553 H   0  0  0  0  0  0  0  0  0  0  0  0
  142.8051   70.5894  220.2118 H   0  0  0  0  0  0  0  0  0  0  0  0
  145.3167   70.3116  219.7913 H   0  0  0  0  0  0  0  0  0  0  0  0
  144.2801   70.7078  218.3580 H   0  0  0  0  0  0  0  0  0  0  0  0
  1  2  1  0
  2  3  1  0
  3  4  1  0
  4  5  1  0
  5  6  1  0
  6  7  1  0
  7  8  2  0
  8  9  1  0
  9 10  1  0
 10 11  1  0
 11 12  1  0
 12 13  1  0
 13 14  2  0
 14 15  1  0
 15 16  2  0
 16 17  1  0
 17 18  2  0
 18 19  1  0
  9 20  2  0
 20 21  1  0
 21 22  1  0
 22 23  1  0
 23 24  1  0
 24 25  1  0
 25 26  2  0
 26 27  1  0
 27 28  2  0
 28 29  1  0
 29 30  2  0
 30 31  1  0
 21 32  2  0
  6 33  1  0
 33 34  1  0
 34  3  1  0
 32  7  1  0
 19 10  1  0
 31 22  1  0
 18 13  1  0
 30 25  1  0
  1 35  1  0
  1 36  1  0
  1 37  1  0
  2 38  1  0
  3 39  1  0
  4 40  1  0
  4 41  1  0
  5 42  1  0
  5 43  1  0
 11 44  1  0
 11 45  1  0
 12 46  1  0
 12 47  1  0
 14 48  1  0
 15 49  1  0
 16 50  1  0
 17 51  1  0
 19 52  1  0
 19 53  1  0
 23 54  1  0
 23 55  1  0
 24 56  1  0
 24 57  1  0
 26 58  1  0
 27 59  1  0
 28 60  1  0
 29 61  1  0
 31 62  1  0
 31 63  1  0
 33 64  1  0
 33 65  1  0
 34 66  1  0
 34 67  1  0
M  END
>  <UniqueID>  (23) 
58

>  <SMILES>  (23) 
CNC1CCN(c2nc(N3CCc4ccccc4C3)nc(N3CCc4ccccc4C3)n2)CC1

>  <Energy>  (23) 
80.66862480415755

>  <Genealogy>  (23) 
CNC1CCN(c2nc(N3CCc4ccccc4C3)nc(N3CCc4ccccc4C3)n2)CC1 (3D coordinates assigned)
CNC1CCN(c2nc(N3CCc4ccccc4C3)nc(N3CCc4ccccc4C3)n2)CC1 (nonaromatic ring conformer: 80.66862480415755 kcal/mol)

>  <smiles>  (23) 
CNC1CCN(c2nc(N3CCc4ccccc4C3)nc(N3CCc4ccccc4C3)n2)CC1

>  <score_type>  (23) 
oracle

>  <origin>  (23) 
autodockgpu

>  <m_score__min__energy>  (23) 
-8.9900000000000002

>  <m_primary>  (23) 
energy

>  <meeko>  (23) 
{"free_energy": -8.82, "intermolecular_energy": -10.02, "internal_energy": -1.06, "cluster_size": 18, "cluster_id": 1, "rank_in_cluster": 13}

>  <energy>  (23) 
-8.9

>  <cluster_rmsd>  (23) 
0.77

>  <rmsd>  (23) 
271.79

>  <cluster>  (23) 
1

$$$$
DSYBMJCSYFRFMG-UHFFFAOYNA-N
     RDKit          3D

 67 72  0  0  0  0  0  0  0  0999 V2000
  145.7880   72.9820  219.5520 C   0  0  0  0  0  0  0  0  0  0  0  0
  145.9520   72.0310  218.4490 N   0  0  0  0  0  0  0  0  0  0  0  0
  144.8510   72.1280  217.4680 C   0  0  0  0  0  0  0  0  0  0  0  0
  144.1370   73.5160  217.5290 C   0  0  0  0  0  0  0  0  0  0  0  0
  142.6380   73.4180  217.8300 C   0  0  0  0  0  0  0  0  0  0  0  0
  142.4240   72.5140  218.9710 N   0  0  0  0  0  0  0  0  0  0  0  0
  141.7240   72.9460  220.1560 C   0  0  0  0  0  0  0  0  0  0  0  0
  141.3170   74.2370  220.2750 N   0  0  0  0  0  0  0  0  0  0  0  0
  140.6200   74.6510  221.3640 C   0  0  0  0  0  0  0  0  0  0  0  0
  140.1720   76.0210  221.4700 N   0  0  0  0  0  0  0  0  0  0  0  0
  139.7550   76.7860  220.2920 C   0  0  0  0  0  0  0  0  0  0  0  0
  140.8050   77.8570  220.0030 C   0  0  0  0  0  0  0  0  0  0  0  0
  141.1820   78.6230  221.2500 C   0  0  0  0  0  0  0  0  0  0  0  0
  141.8370   79.8580  221.1200 C   0  0  0  0  0  0  0  0  0  0  0  0
  142.2430   80.5660  222.2540 C   0  0  0  0  0  0  0  0  0  0  0  0
  142.0080   80.0440  223.5270 C   0  0  0  0  0  0  0  0  0  0  0  0
  141.3730   78.8090  223.6730 C   0  0  0  0  0  0  0  0  0  0  0  0
  140.9700   78.0790  222.5420 C   0  0  0  0  0  0  0  0  0  0  0  0
  140.2520   76.7630  222.7360 C   0  0  0  0  0  0  0  0  0  0  0  0
  140.3290   73.7540  222.3430 N   0  0  0  0  0  0  0  0  0  0  0  0
  140.7340   72.4610  222.2470 C   0  0  0  0  0  0  0  0  0  0  0  0
  140.4040   71.5180  223.2880 N   0  0  0  0  0  0  0  0  0  0  0  0
  139.5970   70.3260  222.9910 C   0  0  0  0  0  0  0  0  0  0  0  0
  138.5840   70.0950  224.1060 C   0  0  0  0  0  0  0  0  0  0  0  0
  139.2800   70.0180  225.4350 C   0  0  0  0  0  0  0  0  0  0  0  0
  138.7180   69.2600  226.4770 C   0  0  0  0  0  0  0  0  0  0  0  0
  139.3410   69.2070  227.7250 C   0  0  0  0  0  0  0  0  0  0  0  0
  140.5240   69.9160  227.9480 C   0  0  0  0  0  0  0  0  0  0  0  0
  141.0780   70.6920  226.9260 C   0  0  0  0  0  0  0  0  0  0  0  0
  140.4620   70.7550  225.6660 C   0  0  0  0  0  0  0  0  0  0  0  0
  141.0540   71.6540  224.6040 C   0  0  0  0  0  0  0  0  0  0  0  0
  141.4280   72.0650  221.1480 N   0  0  0  0  0  0  0  0  0  0  0  0
  143.0010   71.1610  218.9300 C   0  0  0  0  0  0  0  0  0  0  0  0
  143.8780   70.9490  217.6870 C   0  0  0  0  0  0  0  0  0  0  0  0
  145.8796   72.4508  220.5109 H   0  0  0  0  0  0  0  0  0  0  0  0
  146.5657   73.7571  219.4865 H   0  0  0  0  0  0  0  0  0  0  0  0
  144.7956   73.4519  219.4865 H   0  0  0  0  0  0  0  0  0  0  0  0
  145.9960   71.0620  218.8440 H   0  0  0  0  0  0  0  0  0  0  0  0
  145.2631   72.0564  216.4506 H   0  0  0  0  0  0  0  0  0  0  0  0
  144.6121   74.1178  218.3177 H   0  0  0  0  0  0  0  0  0  0  0  0
  144.2386   73.9767  216.5353 H   0  0  0  0  0  0  0  0  0  0  0  0
  142.2474   74.4166  218.0753 H   0  0  0  0  0  0  0  0  0  0  0  0
  142.1122   73.0247  216.9475 H   0  0  0  0  0  0  0  0  0  0  0  0
  139.6658   76.1128  219.4267 H   0  0  0  0  0  0  0  0  0  0  0  0
  138.7802   77.2597  220.4801 H   0  0  0  0  0  0  0  0  0  0  0  0
  141.7052   77.3728  219.5965 H   0  0  0  0  0  0  0  0  0  0  0  0
  140.3786   78.5682  219.2802 H   0  0  0  0  0  0  0  0  0  0  0  0
  142.0318   80.2707  220.1191 H   0  0  0  0  0  0  0  0  0  0  0  0
  142.7488   81.5366  222.1434 H   0  0  0  0  0  0  0  0  0  0  0  0
  142.3239   80.6070  224.4176 H   0  0  0  0  0  0  0  0  0  0  0  0
  141.1872   78.4052  224.6792 H   0  0  0  0  0  0  0  0  0  0  0  0
  140.7996   76.1587  223.4742 H   0  0  0  0  0  0  0  0  0  0  0  0
  139.2308   76.9672  223.0903 H   0  0  0  0  0  0  0  0  0  0  0  0
  139.0650   70.4734  222.0395 H   0  0  0  0  0  0  0  0  0  0  0  0
  140.2584   69.4503  222.9152 H   0  0  0  0  0  0  0  0  0  0  0  0
  137.8646   70.9270  224.1208 H   0  0  0  0  0  0  0  0  0  0  0  0
  138.0590   69.1461  223.9215 H   0  0  0  0  0  0  0  0  0  0  0  0
  137.7828   68.7060  226.3081 H   0  0  0  0  0  0  0  0  0  0  0  0
  138.8999   68.6062  228.5340 H   0  0  0  0  0  0  0  0  0  0  0  0
  141.0198   69.8635  228.9285 H   0  0  0  0  0  0  0  0  0  0  0  0
  142.0034   71.2575  227.1102 H   0  0  0  0  0  0  0  0  0  0  0  0
  140.9529   72.6979  224.9358 H   0  0  0  0  0  0  0  0  0  0  0  0
  142.1052   71.3558  224.4775 H   0  0  0  0  0  0  0  0  0  0  0  0
  143.6162   71.0095  219.8292 H   0  0  0  0  0  0  0  0  0  0  0  0
  142.1725   70.4385  218.8896 H   0  0  0  0  0  0  0  0  0  0  0  0
  144.4606   70.0248  217.8149 H   0  0  0  0  0  0  0  0  0  0  0  0
  143.2186   70.8803  216.8092 H   0  0  0  0  0  0  0  0  0  0  0  0
  1  2  1  0
  2  3  1  0
  3  4  1  0
  4  5  1  0
  5  6  1  0
  6  7  1  0
  7  8  2  0
  8  9  1  0
  9 10  1  0
 10 11  1  0
 11 12  1  0
 12 13  1  0
 13 14  2  0
 14 15  1  0
 15 16  2  0
 16 17  1  0
 17 18  2  0
 18 19  1  0
  9 20  2  0
 20 21  1  0
 21 22  1  0
 22 23  1  0
 23 24  1  0
 24 25  1  0
 25 26  2  0
 26 27  1  0
 27 28  2  0
 28 29  1  0
 29 30  2  0
 30 31  1  0
 21 32  2  0
  6 33  1  0
 33 34  1  0
 34  3  1  0
 32  7  1  0
 19 10  1  0
 31 22  1  0
 18 13  1  0
 30 25  1  0
  1 35  1  0
  1 36  1  0
  1 37  1  0
  2 38  1  0
  3 39  1  0
  4 40  1  0
  4 41  1  0
  5 42  1  0
  5 43  1  0
 11 44  1  0
 11 45  1  0
 12 46  1  0
 12 47  1  0
 14 48  1  0
 15 49  1  0
 16 50  1  0
 17 51  1  0
 19 52  1  0
 19 53  1  0
 23 54  1  0
 23 55  1  0
 24 56  1  0
 24 57  1  0
 26 58  1  0
 27 59  1  0
 28 60  1  0
 29 61  1  0
 31 62  1  0
 31 63  1  0
 33 64  1  0
 33 65  1  0
 34 66  1  0
 34 67  1  0
M  END
>  <UniqueID>  (24) 
58

>  <SMILES>  (24) 
CNC1CCN(c2nc(N3CCc4ccccc4C3)nc(N3CCc4ccccc4C3)n2)CC1

>  <Energy>  (24) 
80.66862480415755

>  <Genealogy>  (24) 
CNC1CCN(c2nc(N3CCc4ccccc4C3)nc(N3CCc4ccccc4C3)n2)CC1 (3D coordinates assigned)
CNC1CCN(c2nc(N3CCc4ccccc4C3)nc(N3CCc4ccccc4C3)n2)CC1 (nonaromatic ring conformer: 80.66862480415755 kcal/mol)

>  <smiles>  (24) 
CNC1CCN(c2nc(N3CCc4ccccc4C3)nc(N3CCc4ccccc4C3)n2)CC1

>  <score_type>  (24) 
oracle

>  <origin>  (24) 
autodockgpu

>  <m_score__min__energy>  (24) 
-8.9900000000000002

>  <m_primary>  (24) 
energy

>  <meeko>  (24) 
{"free_energy": -8.87, "intermolecular_energy": -10.06, "internal_energy": -1.04, "cluster_size": 18, "cluster_id": 1, "rank_in_cluster": 5}

>  <energy>  (24) 
-8.88

>  <cluster_rmsd>  (24) 
1.23

>  <rmsd>  (24) 
271.99

>  <cluster>  (24) 
1

$$$$
DSYBMJCSYFRFMG-UHFFFAOYNA-N
     RDKit          3D

 67 72  0  0  0  0  0  0  0  0999 V2000
  143.3050   75.9370  216.8780 C   0  0  0  0  0  0  0  0  0  0  0  0
  144.5400   75.2770  216.4420 N   0  0  0  0  0  0  0  0  0  0  0  0
  144.4130   73.8050  216.4560 C   0  0  0  0  0  0  0  0  0  0  0  0
  142.9190   73.3490  216.4720 C   0  0  0  0  0  0  0  0  0  0  0  0
  142.5620   72.4760  217.6800 C   0  0  0  0  0  0  0  0  0  0  0  0
  143.0760   73.1030  218.9080 N   0  0  0  0  0  0  0  0  0  0  0  0
  142.2060   73.4250  220.0130 C   0  0  0  0  0  0  0  0  0  0  0  0
  141.7940   74.7060  220.2040 N   0  0  0  0  0  0  0  0  0  0  0  0
  140.9410   75.0200  221.2130 C   0  0  0  0  0  0  0  0  0  0  0  0
  140.4910   76.3810  221.3930 N   0  0  0  0  0  0  0  0  0  0  0  0
  140.1590   77.2380  220.2530 C   0  0  0  0  0  0  0  0  0  0  0  0
  141.2290   78.3210  220.1210 C   0  0  0  0  0  0  0  0  0  0  0  0
  141.5210   78.9840  221.4460 C   0  0  0  0  0  0  0  0  0  0  0  0
  142.1860   80.2210  221.4580 C   0  0  0  0  0  0  0  0  0  0  0  0
  142.5140   80.8360  222.6690 C   0  0  0  0  0  0  0  0  0  0  0  0
  142.1900   80.2190  223.8790 C   0  0  0  0  0  0  0  0  0  0  0  0
  141.5430   78.9810  223.8830 C   0  0  0  0  0  0  0  0  0  0  0  0
  141.2170   78.3440  222.6750 C   0  0  0  0  0  0  0  0  0  0  0  0
  140.4850   77.0230  222.7150 C   0  0  0  0  0  0  0  0  0  0  0  0
  140.4990   74.0340  222.0370 N   0  0  0  0  0  0  0  0  0  0  0  0
  140.9060   72.7490  221.8670 C   0  0  0  0  0  0  0  0  0  0  0  0
  140.4150   71.7110  222.7410 N   0  0  0  0  0  0  0  0  0  0  0  0
  139.4240   70.7360  222.2640 C   0  0  0  0  0  0  0  0  0  0  0  0
  138.3780   70.4900  223.3440 C   0  0  0  0  0  0  0  0  0  0  0  0
  139.0390   70.0760  224.6270 C   0  0  0  0  0  0  0  0  0  0  0  0
  138.3510   69.2560  225.5380 C   0  0  0  0  0  0  0  0  0  0  0  0
  138.9460   68.8910  226.7470 C   0  0  0  0  0  0  0  0  0  0  0  0
  140.2280   69.3470  227.0620 C   0  0  0  0  0  0  0  0  0  0  0  0
  140.9120   70.1830  226.1740 C   0  0  0  0  0  0  0  0  0  0  0  0
  140.3250   70.5580  224.9550 C   0  0  0  0  0  0  0  0  0  0  0  0
  141.0670   71.5140  224.0480 C   0  0  0  0  0  0  0  0  0  0  0  0
  141.7570   72.4540  220.8500 N   0  0  0  0  0  0  0  0  0  0  0  0
  144.4980   73.4750  218.9810 C   0  0  0  0  0  0  0  0  0  0  0  0
  145.2200   73.2420  217.6450 C   0  0  0  0  0  0  0  0  0  0  0  0
  143.2682   75.9567  217.9772 H   0  0  0  0  0  0  0  0  0  0  0  0
  143.2836   76.9668  216.4919 H   0  0  0  0  0  0  0  0  0  0  0  0
  142.4369   75.3825  216.4919 H   0  0  0  0  0  0  0  0  0  0  0  0
  145.3210   75.5760  217.0720 H   0  0  0  0  0  0  0  0  0  0  0  0
  144.8324   73.3952  215.5253 H   0  0  0  0  0  0  0  0  0  0  0  0
  142.2811   74.2450  216.4886 H   0  0  0  0  0  0  0  0  0  0  0  0
  142.7559   72.7392  215.5711 H   0  0  0  0  0  0  0  0  0  0  0  0
  141.4688   72.3757  217.7495 H   0  0  0  0  0  0  0  0  0  0  0  0
  143.0148   71.4808  217.5595 H   0  0  0  0  0  0  0  0  0  0  0  0
  140.1287   76.6347  219.3337 H   0  0  0  0  0  0  0  0  0  0  0  0
  139.1747   77.7032  220.4101 H   0  0  0  0  0  0  0  0  0  0  0  0
  142.1540   77.8634  219.7402 H   0  0  0  0  0  0  0  0  0  0  0  0
  140.8546   79.0896  219.4288 H   0  0  0  0  0  0  0  0  0  0  0  0
  142.4503   80.7087  220.5081 H   0  0  0  0  0  0  0  0  0  0  0  0
  143.0285   81.8082  222.6692 H   0  0  0  0  0  0  0  0  0  0  0  0
  142.4447   80.7086  224.8305 H   0  0  0  0  0  0  0  0  0  0  0  0
  141.2871   78.5017  224.8394 H   0  0  0  0  0  0  0  0  0  0  0  0
  140.9787   76.3593  223.4401 H   0  0  0  0  0  0  0  0  0  0  0  0
  139.4420   77.2075  223.0118 H   0  0  0  0  0  0  0  0  0  0  0  0
  138.9316   71.1279  221.3618 H   0  0  0  0  0  0  0  0  0  0  0  0
  139.9316   69.7889  222.0287 H   0  0  0  0  0  0  0  0  0  0  0  0
  137.8064   71.4146  223.5125 H   0  0  0  0  0  0  0  0  0  0  0  0
  137.7052   69.6852  223.0129 H   0  0  0  0  0  0  0  0  0  0  0  0
  137.3385   68.9000  225.2971 H   0  0  0  0  0  0  0  0  0  0  0  0
  138.4045   68.2435  227.4524 H   0  0  0  0  0  0  0  0  0  0  0  0
  140.7001   69.0482  228.0096 H   0  0  0  0  0  0  0  0  0  0  0  0
  141.9166   70.5492  226.4322 H   0  0  0  0  0  0  0  0  0  0  0  0
  141.1370   72.4890  224.5525 H   0  0  0  0  0  0  0  0  0  0  0  0
  142.0556   71.0730  223.8529 H   0  0  0  0  0  0  0  0  0  0  0  0
  144.5739   74.5401  219.2453 H   0  0  0  0  0  0  0  0  0  0  0  0
  144.9774   72.8425  219.7426 H   0  0  0  0  0  0  0  0  0  0  0  0
  146.2006   73.7393  217.6780 H   0  0  0  0  0  0  0  0  0  0  0  0
  145.3335   72.1575  217.5004 H   0  0  0  0  0  0  0  0  0  0  0  0
  1  2  1  0
  2  3  1  0
  3  4  1  0
  4  5  1  0
  5  6  1  0
  6  7  1  0
  7  8  2  0
  8  9  1  0
  9 10  1  0
 10 11  1  0
 11 12  1  0
 12 13  1  0
 13 14  2  0
 14 15  1  0
 15 16  2  0
 16 17  1  0
 17 18  2  0
 18 19  1  0
  9 20  2  0
 20 21  1  0
 21 22  1  0
 22 23  1  0
 23 24  1  0
 24 25  1  0
 25 26  2  0
 26 27  1  0
 27 28  2  0
 28 29  1  0
 29 30  2  0
 30 31  1  0
 21 32  2  0
  6 33  1  0
 33 34  1  0
 34  3  1  0
 32  7  1  0
 19 10  1  0
 31 22  1  0
 18 13  1  0
 30 25  1  0
  1 35  1  0
  1 36  1  0
  1 37  1  0
  2 38  1  0
  3 39  1  0
  4 40  1  0
  4 41  1  0
  5 42  1  0
  5 43  1  0
 11 44  1  0
 11 45  1  0
 12 46  1  0
 12 47  1  0
 14 48  1  0
 15 49  1  0
 16 50  1  0
 17 51  1  0
 19 52  1  0
 19 53  1  0
 23 54  1  0
 23 55  1  0
 24 56  1  0
 24 57  1  0
 26 58  1  0
 27 59  1  0
 28 60  1  0
 29 61  1  0
 31 62  1  0
 31 63  1  0
 33 64  1  0
 33 65  1  0
 34 66  1  0
 34 67  1  0
M  END
>  <UniqueID>  (25) 
58

>  <SMILES>  (25) 
CNC1CCN(c2nc(N3CCc4ccccc4C3)nc(N3CCc4ccccc4C3)n2)CC1

>  <Energy>  (25) 
80.66862480415755

>  <Genealogy>  (25) 
CNC1CCN(c2nc(N3CCc4ccccc4C3)nc(N3CCc4ccccc4C3)n2)CC1 (3D coordinates assigned)
CNC1CCN(c2nc(N3CCc4ccccc4C3)nc(N3CCc4ccccc4C3)n2)CC1 (nonaromatic ring conformer: 80.66862480415755 kcal/mol)

>  <smiles>  (25) 
CNC1CCN(c2nc(N3CCc4ccccc4C3)nc(N3CCc4ccccc4C3)n2)CC1

>  <score_type>  (25) 
oracle

>  <origin>  (25) 
autodockgpu

>  <m_score__min__energy>  (25) 
-8.9900000000000002

>  <m_primary>  (25) 
energy

>  <meeko>  (25) 
{"free_energy": -8.69, "intermolecular_energy": -9.89, "internal_energy": -1.1, "cluster_size": 18, "cluster_id": 1, "rank_in_cluster": 15}

>  <energy>  (25) 
-8.87

>  <cluster_rmsd>  (25) 
0.82

>  <rmsd>  (25) 
271.8

>  <cluster>  (25) 
1

$$$$
DSYBMJCSYFRFMG-UHFFFAOYNA-N
     RDKit          3D

 67 72  0  0  0  0  0  0  0  0999 V2000
  145.9970   73.7420  220.8500 C   0  0  0  0  0  0  0  0  0  0  0  0
  146.3650   72.5080  220.1470 N   0  0  0  0  0  0  0  0  0  0  0  0
  145.5390   72.2940  218.9410 C   0  0  0  0  0  0  0  0  0  0  0  0
  144.7530   73.5820  218.5360 C   0  0  0  0  0  0  0  0  0  0  0  0
  143.2340   73.3810  218.4960 C   0  0  0  0  0  0  0  0  0  0  0  0
  142.7960   72.6960  219.7220 N   0  0  0  0  0  0  0  0  0  0  0  0
  141.7980   73.2700  220.5920 C   0  0  0  0  0  0  0  0  0  0  0  0
  141.5720   74.6100  220.5790 N   0  0  0  0  0  0  0  0  0  0  0  0
  140.6080   75.1620  221.3600 C   0  0  0  0  0  0  0  0  0  0  0  0
  140.3600   76.5840  221.3210 N   0  0  0  0  0  0  0  0  0  0  0  0
  140.5370   77.3620  220.0920 C   0  0  0  0  0  0  0  0  0  0  0  0
  141.7640   78.2600  220.2500 C   0  0  0  0  0  0  0  0  0  0  0  0
  141.7480   79.0040  221.5640 C   0  0  0  0  0  0  0  0  0  0  0  0
  142.5760   80.1260  221.7240 C   0  0  0  0  0  0  0  0  0  0  0  0
  142.6210   80.8060  222.9430 C   0  0  0  0  0  0  0  0  0  0  0  0
  141.8480   80.3660  224.0190 C   0  0  0  0  0  0  0  0  0  0  0  0
  141.0310   79.2410  223.8820 C   0  0  0  0  0  0  0  0  0  0  0  0
  140.9840   78.5400  222.6660 C   0  0  0  0  0  0  0  0  0  0  0  0
  140.0620   77.3490  222.5400 C   0  0  0  0  0  0  0  0  0  0  0  0
  139.8640   74.3550  222.1620 N   0  0  0  0  0  0  0  0  0  0  0  0
  140.0810   73.0140  222.1950 C   0  0  0  0  0  0  0  0  0  0  0  0
  139.2730   72.1690  223.0410 N   0  0  0  0  0  0  0  0  0  0  0  0
  139.8560   71.5070  224.2150 C   0  0  0  0  0  0  0  0  0  0  0  0
  139.3360   70.0780  224.3170 C   0  0  0  0  0  0  0  0  0  0  0  0
  137.8350   70.0680  224.3220 C   0  0  0  0  0  0  0  0  0  0  0  0
  137.1430   69.0320  224.9730 C   0  0  0  0  0  0  0  0  0  0  0  0
  135.7470   68.9970  224.9570 C   0  0  0  0  0  0  0  0  0  0  0  0
  135.0300   69.9890  224.2850 C   0  0  0  0  0  0  0  0  0  0  0  0
  135.7080   71.0110  223.6140 C   0  0  0  0  0  0  0  0  0  0  0  0
  137.1120   71.0580  223.6210 C   0  0  0  0  0  0  0  0  0  0  0  0
  137.8140   72.1410  222.8320 C   0  0  0  0  0  0  0  0  0  0  0  0
  141.0490   72.4800  221.4040 N   0  0  0  0  0  0  0  0  0  0  0  0
  143.4440   71.4320  220.1060 C   0  0  0  0  0  0  0  0  0  0  0  0
  144.6130   71.0810  219.1750 C   0  0  0  0  0  0  0  0  0  0  0  0
  146.0470   73.5742  221.9360 H   0  0  0  0  0  0  0  0  0  0  0  0
  146.6947   74.5452  220.5706 H   0  0  0  0  0  0  0  0  0  0  0  0
  144.9733   74.0318  220.5706 H   0  0  0  0  0  0  0  0  0  0  0  0
  146.2550   71.7010  220.8050 H   0  0  0  0  0  0  0  0  0  0  0  0
  146.1949   72.0725  218.0862 H   0  0  0  0  0  0  0  0  0  0  0  0
  144.9809   74.3733  219.2653 H   0  0  0  0  0  0  0  0  0  0  0  0
  145.0719   73.8503  217.5180 H   0  0  0  0  0  0  0  0  0  0  0  0
  142.7367   74.3596  218.4255 H   0  0  0  0  0  0  0  0  0  0  0  0
  142.9686   72.7700  217.6206 H   0  0  0  0  0  0  0  0  0  0  0  0
  140.6846   76.6806  219.2411 H   0  0  0  0  0  0  0  0  0  0  0  0
  139.6444   77.9778  219.9076 H   0  0  0  0  0  0  0  0  0  0  0  0
  142.6695   77.6371  220.2043 H   0  0  0  0  0  0  0  0  0  0  0  0
  141.7529   79.0009  219.4370 H   0  0  0  0  0  0  0  0  0  0  0  0
  143.1943   80.4724  220.8827 H   0  0  0  0  0  0  0  0  0  0  0  0
  143.2665   81.6896  223.0555 H   0  0  0  0  0  0  0  0  0  0  0  0
  141.8823   80.9062  224.9766 H   0  0  0  0  0  0  0  0  0  0  0  0
  140.4206   78.9021  224.7321 H   0  0  0  0  0  0  0  0  0  0  0  0
  140.1937   76.6969  223.4160 H   0  0  0  0  0  0  0  0  0  0  0  0
  139.0247   77.7109  222.4840 H   0  0  0  0  0  0  0  0  0  0  0  0
  140.9516   71.4903  224.1176 H   0  0  0  0  0  0  0  0  0  0  0  0
  139.5714   72.0613  225.1215 H   0  0  0  0  0  0  0  0  0  0  0  0
  139.6997   69.4974  223.4564 H   0  0  0  0  0  0  0  0  0  0  0  0
  139.6995   69.6314  225.2542 H   0  0  0  0  0  0  0  0  0  0  0  0
  137.7040   68.2447  225.4978 H   0  0  0  0  0  0  0  0  0  0  0  0
  135.2117   68.1871  225.4743 H   0  0  0  0  0  0  0  0  0  0  0  0
  133.9302   69.9663  224.2836 H   0  0  0  0  0  0  0  0  0  0  0  0
  135.1382   71.7836  223.0769 H   0  0  0  0  0  0  0  0  0  0  0  0
  137.6186   71.9746  221.7623 H   0  0  0  0  0  0  0  0  0  0  0  0
  137.4183   73.1053  223.1834 H   0  0  0  0  0  0  0  0  0  0  0  0
  143.8240   71.5254  221.1340 H   0  0  0  0  0  0  0  0  0  0  0  0
  142.6958   70.6292  220.0306 H   0  0  0  0  0  0  0  0  0  0  0  0
  145.1984   70.2676  219.6285 H   0  0  0  0  0  0  0  0  0  0  0  0
  144.1982   70.7732  218.2038 H   0  0  0  0  0  0  0  0  0  0  0  0
  1  2  1  0
  2  3  1  0
  3  4  1  0
  4  5  1  0
  5  6  1  0
  6  7  1  0
  7  8  2  0
  8  9  1  0
  9 10  1  0
 10 11  1  0
 11 12  1  0
 12 13  1  0
 13 14  2  0
 14 15  1  0
 15 16  2  0
 16 17  1  0
 17 18  2  0
 18 19  1  0
  9 20  2  0
 20 21  1  0
 21 22  1  0
 22 23  1  0
 23 24  1  0
 24 25  1  0
 25 26  2  0
 26 27  1  0
 27 28  2  0
 28 29  1  0
 29 30  2  0
 30 31  1  0
 21 32  2  0
  6 33  1  0
 33 34  1  0
 34  3  1  0
 32  7  1  0
 19 10  1  0
 31 22  1  0
 18 13  1  0
 30 25  1  0
  1 35  1  0
  1 36  1  0
  1 37  1  0
  2 38  1  0
  3 39  1  0
  4 40  1  0
  4 41  1  0
  5 42  1  0
  5 43  1  0
 11 44  1  0
 11 45  1  0
 12 46  1  0
 12 47  1  0
 14 48  1  0
 15 49  1  0
 16 50  1  0
 17 51  1  0
 19 52  1  0
 19 53  1  0
 23 54  1  0
 23 55  1  0
 24 56  1  0
 24 57  1  0
 26 58  1  0
 27 59  1  0
 28 60  1  0
 29 61  1  0
 31 62  1  0
 31 63  1  0
 33 64  1  0
 33 65  1  0
 34 66  1  0
 34 67  1  0
M  END
>  <UniqueID>  (26) 
58

>  <SMILES>  (26) 
CNC1CCN(c2nc(N3CCc4ccccc4C3)nc(N3CCc4ccccc4C3)n2)CC1

>  <Energy>  (26) 
80.66862480415755

>  <Genealogy>  (26) 
CNC1CCN(c2nc(N3CCc4ccccc4C3)nc(N3CCc4ccccc4C3)n2)CC1 (3D coordinates assigned)
CNC1CCN(c2nc(N3CCc4ccccc4C3)nc(N3CCc4ccccc4C3)n2)CC1 (nonaromatic ring conformer: 80.66862480415755 kcal/mol)

>  <smiles>  (26) 
CNC1CCN(c2nc(N3CCc4ccccc4C3)nc(N3CCc4ccccc4C3)n2)CC1

>  <score_type>  (26) 
oracle

>  <origin>  (26) 
autodockgpu

>  <m_score__min__energy>  (26) 
-8.9900000000000002

>  <m_primary>  (26) 
energy

>  <meeko>  (26) 
{"free_energy": -8.83, "intermolecular_energy": -10.02, "internal_energy": -1.05, "cluster_size": 18, "cluster_id": 1, "rank_in_cluster": 11}

>  <energy>  (26) 
-8.86

>  <cluster_rmsd>  (26) 
0.75

>  <rmsd>  (26) 
271.77

>  <cluster>  (26) 
1

$$$$
DSYBMJCSYFRFMG-UHFFFAOYNA-N
     RDKit          3D

 67 72  0  0  0  0  0  0  0  0999 V2000
  143.4630   75.9170  217.0700 C   0  0  0  0  0  0  0  0  0  0  0  0
  144.5930   75.1820  216.4930 N   0  0  0  0  0  0  0  0  0  0  0  0
  144.3280   73.7300  216.4200 C   0  0  0  0  0  0  0  0  0  0  0  0
  142.7980   73.4160  216.4270 C   0  0  0  0  0  0  0  0  0  0  0  0
  142.3680   72.5090  217.5850 C   0  0  0  0  0  0  0  0  0  0  0  0
  142.9460   73.0090  218.8430 N   0  0  0  0  0  0  0  0  0  0  0  0
  142.1170   73.3450  219.9750 C   0  0  0  0  0  0  0  0  0  0  0  0
  141.7190   74.6290  220.1710 N   0  0  0  0  0  0  0  0  0  0  0  0
  140.9040   74.9550  221.2070 C   0  0  0  0  0  0  0  0  0  0  0  0
  140.4670   76.3200  221.3930 N   0  0  0  0  0  0  0  0  0  0  0  0
  140.1350   77.1820  220.2560 C   0  0  0  0  0  0  0  0  0  0  0  0
  141.2150   78.2550  220.1190 C   0  0  0  0  0  0  0  0  0  0  0  0
  141.5210   78.9130  221.4430 C   0  0  0  0  0  0  0  0  0  0  0  0
  142.1980   80.1430  221.4530 C   0  0  0  0  0  0  0  0  0  0  0  0
  142.5400   80.7530  222.6630 C   0  0  0  0  0  0  0  0  0  0  0  0
  142.2190   80.1370  223.8740 C   0  0  0  0  0  0  0  0  0  0  0  0
  141.5610   78.9050  223.8810 C   0  0  0  0  0  0  0  0  0  0  0  0
  141.2210   78.2740  222.6730 C   0  0  0  0  0  0  0  0  0  0  0  0
  140.4760   76.9590  222.7160 C   0  0  0  0  0  0  0  0  0  0  0  0
  140.4860   73.9770  222.0530 N   0  0  0  0  0  0  0  0  0  0  0  0
  140.8800   72.6890  221.8780 C   0  0  0  0  0  0  0  0  0  0  0  0
  140.4150   71.6600  222.7770 N   0  0  0  0  0  0  0  0  0  0  0  0
  139.4900   70.6190  222.3090 C   0  0  0  0  0  0  0  0  0  0  0  0
  138.4240   70.3590  223.3680 C   0  0  0  0  0  0  0  0  0  0  0  0
  139.0650   70.0270  224.6840 C   0  0  0  0  0  0  0  0  0  0  0  0
  138.3910   69.2070  225.6050 C   0  0  0  0  0  0  0  0  0  0  0  0
  138.9660   68.9170  226.8440 C   0  0  0  0  0  0  0  0  0  0  0  0
  140.2130   69.4500  227.1790 C   0  0  0  0  0  0  0  0  0  0  0  0
  140.8820   70.2860  226.2800 C   0  0  0  0  0  0  0  0  0  0  0  0
  140.3150   70.5860  225.0300 C   0  0  0  0  0  0  0  0  0  0  0  0
  141.0350   71.5450  224.1090 C   0  0  0  0  0  0  0  0  0  0  0  0
  141.6940   72.3820  220.8350 N   0  0  0  0  0  0  0  0  0  0  0  0
  144.3970   73.2420  218.9200 C   0  0  0  0  0  0  0  0  0  0  0  0
  145.0860   73.0230  217.5640 C   0  0  0  0  0  0  0  0  0  0  0  0
  143.5225   75.8783  218.1677 H   0  0  0  0  0  0  0  0  0  0  0  0
  143.4991   76.9649  216.7376 H   0  0  0  0  0  0  0  0  0  0  0  0
  142.5197   75.4592  216.7376 H   0  0  0  0  0  0  0  0  0  0  0  0
  145.4440   75.3630  217.0760 H   0  0  0  0  0  0  0  0  0  0  0  0
  144.7009   73.3399  215.4615 H   0  0  0  0  0  0  0  0  0  0  0  0
  142.2476   74.3652  216.5047 H   0  0  0  0  0  0  0  0  0  0  0  0
  142.5724   72.8797  215.4935 H   0  0  0  0  0  0  0  0  0  0  0  0
  141.2706   72.5075  217.6612 H   0  0  0  0  0  0  0  0  0  0  0  0
  142.7250   71.4852  217.3998 H   0  0  0  0  0  0  0  0  0  0  0  0
  140.0928   76.5805  219.3360 H   0  0  0  0  0  0  0  0  0  0  0  0
  139.1560   77.6561  220.4199 H   0  0  0  0  0  0  0  0  0  0  0  0
  142.1332   77.7890  219.7321 H   0  0  0  0  0  0  0  0  0  0  0  0
  140.8442   79.0281  219.4300 H   0  0  0  0  0  0  0  0  0  0  0  0
  142.4609   80.6297  220.5022 H   0  0  0  0  0  0  0  0  0  0  0  0
  143.0632   81.7206  222.6612 H   0  0  0  0  0  0  0  0  0  0  0  0
  142.4848   80.6228  224.8244 H   0  0  0  0  0  0  0  0  0  0  0  0
  141.3076   78.4260  224.8382 H   0  0  0  0  0  0  0  0  0  0  0  0
  140.9682   76.2892  223.4365 H   0  0  0  0  0  0  0  0  0  0  0  0
  139.4369   77.1527  223.0207 H   0  0  0  0  0  0  0  0  0  0  0  0
  139.0066   70.9518  221.3787 H   0  0  0  0  0  0  0  0  0  0  0  0
  140.0516   69.6913  222.1245 H   0  0  0  0  0  0  0  0  0  0  0  0
  137.8016   71.2585  223.4845 H   0  0  0  0  0  0  0  0  0  0  0  0
  137.8031   69.5090  223.0486 H   0  0  0  0  0  0  0  0  0  0  0  0
  137.4053   68.7914  225.3485 H   0  0  0  0  0  0  0  0  0  0  0  0
  138.4364   68.2681  227.5570 H   0  0  0  0  0  0  0  0  0  0  0  0
  140.6691   69.2117  228.1512 H   0  0  0  0  0  0  0  0  0  0  0  0
  141.8588   70.7117  226.5532 H   0  0  0  0  0  0  0  0  0  0  0  0
  141.0397   72.5401  224.5777 H   0  0  0  0  0  0  0  0  0  0  0  0
  142.0502   71.1486  223.9596 H   0  0  0  0  0  0  0  0  0  0  0  0
  144.5740   74.2777  219.2455 H   0  0  0  0  0  0  0  0  0  0  0  0
  144.8199   72.5229  219.6370 H   0  0  0  0  0  0  0  0  0  0  0  0
  146.1093   73.4233  217.6149 H   0  0  0  0  0  0  0  0  0  0  0  0
  145.0962   71.9433  217.3539 H   0  0  0  0  0  0  0  0  0  0  0  0
  1  2  1  0
  2  3  1  0
  3  4  1  0
  4  5  1  0
  5  6  1  0
  6  7  1  0
  7  8  2  0
  8  9  1  0
  9 10  1  0
 10 11  1  0
 11 12  1  0
 12 13  1  0
 13 14  2  0
 14 15  1  0
 15 16  2  0
 16 17  1  0
 17 18  2  0
 18 19  1  0
  9 20  2  0
 20 21  1  0
 21 22  1  0
 22 23  1  0
 23 24  1  0
 24 25  1  0
 25 26  2  0
 26 27  1  0
 27 28  2  0
 28 29  1  0
 29 30  2  0
 30 31  1  0
 21 32  2  0
  6 33  1  0
 33 34  1  0
 34  3  1  0
 32  7  1  0
 19 10  1  0
 31 22  1  0
 18 13  1  0
 30 25  1  0
  1 35  1  0
  1 36  1  0
  1 37  1  0
  2 38  1  0
  3 39  1  0
  4 40  1  0
  4 41  1  0
  5 42  1  0
  5 43  1  0
 11 44  1  0
 11 45  1  0
 12 46  1  0
 12 47  1  0
 14 48  1  0
 15 49  1  0
 16 50  1  0
 17 51  1  0
 19 52  1  0
 19 53  1  0
 23 54  1  0
 23 55  1  0
 24 56  1  0
 24 57  1  0
 26 58  1  0
 27 59  1  0
 28 60  1  0
 29 61  1  0
 31 62  1  0
 31 63  1  0
 33 64  1  0
 33 65  1  0
 34 66  1  0
 34 67  1  0
M  END
>  <UniqueID>  (27) 
58

>  <SMILES>  (27) 
CNC1CCN(c2nc(N3CCc4ccccc4C3)nc(N3CCc4ccccc4C3)n2)CC1

>  <Energy>  (27) 
80.66862480415755

>  <Genealogy>  (27) 
CNC1CCN(c2nc(N3CCc4ccccc4C3)nc(N3CCc4ccccc4C3)n2)CC1 (3D coordinates assigned)
CNC1CCN(c2nc(N3CCc4ccccc4C3)nc(N3CCc4ccccc4C3)n2)CC1 (nonaromatic ring conformer: 80.66862480415755 kcal/mol)

>  <smiles>  (27) 
CNC1CCN(c2nc(N3CCc4ccccc4C3)nc(N3CCc4ccccc4C3)n2)CC1

>  <score_type>  (27) 
oracle

>  <origin>  (27) 
autodockgpu

>  <m_score__min__energy>  (27) 
-8.9900000000000002

>  <m_primary>  (27) 
energy

>  <meeko>  (27) 
{"free_energy": -8.63, "intermolecular_energy": -9.83, "internal_energy": -1.1, "cluster_size": 18, "cluster_id": 1, "rank_in_cluster": 18}

>  <energy>  (27) 
-8.86

>  <cluster_rmsd>  (27) 
0.77

>  <rmsd>  (27) 
271.79

>  <cluster>  (27) 
1

$$$$
DSYBMJCSYFRFMG-UHFFFAOYNA-N
     RDKit          3D

 67 72  0  0  0  0  0  0  0  0999 V2000
  145.9640   73.7790  220.8560 C   0  0  0  0  0  0  0  0  0  0  0  0
  146.4010   72.5690  220.1530 N   0  0  0  0  0  0  0  0  0  0  0  0
  145.5740   72.2960  218.9590 C   0  0  0  0  0  0  0  0  0  0  0  0
  144.7550   73.5500  218.5180 C   0  0  0  0  0  0  0  0  0  0  0  0
  143.2410   73.3110  218.4940 C   0  0  0  0  0  0  0  0  0  0  0  0
  142.8260   72.6570  219.7440 N   0  0  0  0  0  0  0  0  0  0  0  0
  141.8200   73.2340  220.6020 C   0  0  0  0  0  0  0  0  0  0  0  0
  141.5910   74.5730  220.5770 N   0  0  0  0  0  0  0  0  0  0  0  0
  140.6190   75.1290  221.3450 C   0  0  0  0  0  0  0  0  0  0  0  0
  140.3670   76.5500  221.2930 N   0  0  0  0  0  0  0  0  0  0  0  0
  140.5650   77.3210  220.0640 C   0  0  0  0  0  0  0  0  0  0  0  0
  141.7860   78.2240  220.2380 C   0  0  0  0  0  0  0  0  0  0  0  0
  141.7440   78.9750  221.5480 C   0  0  0  0  0  0  0  0  0  0  0  0
  142.5660   80.1010  221.7160 C   0  0  0  0  0  0  0  0  0  0  0  0
  142.5870   80.7880  222.9320 C   0  0  0  0  0  0  0  0  0  0  0  0
  141.7940   80.3520  223.9960 C   0  0  0  0  0  0  0  0  0  0  0  0
  140.9840   79.2240  223.8510 C   0  0  0  0  0  0  0  0  0  0  0  0
  140.9610   78.5160  222.6380 C   0  0  0  0  0  0  0  0  0  0  0  0
  140.0450   77.3210  222.5020 C   0  0  0  0  0  0  0  0  0  0  0  0
  139.8700   74.3260  222.1470 N   0  0  0  0  0  0  0  0  0  0  0  0
  140.0900   72.9860  222.1920 C   0  0  0  0  0  0  0  0  0  0  0  0
  139.2760   72.1460  223.0370 N   0  0  0  0  0  0  0  0  0  0  0  0
  139.8470   71.5100  224.2330 C   0  0  0  0  0  0  0  0  0  0  0  0
  139.3420   70.0770  224.3490 C   0  0  0  0  0  0  0  0  0  0  0  0
  137.8410   70.0480  224.3280 C   0  0  0  0  0  0  0  0  0  0  0  0
  137.1500   69.0150  224.9830 C   0  0  0  0  0  0  0  0  0  0  0  0
  135.7550   68.9620  224.9430 C   0  0  0  0  0  0  0  0  0  0  0  0
  135.0380   69.9350  224.2420 C   0  0  0  0  0  0  0  0  0  0  0  0
  135.7170   70.9540  223.5660 C   0  0  0  0  0  0  0  0  0  0  0  0
  137.1190   71.0180  223.5970 C   0  0  0  0  0  0  0  0  0  0  0  0
  137.8220   72.0960  222.8030 C   0  0  0  0  0  0  0  0  0  0  0  0
  141.0660   72.4490  221.4140 N   0  0  0  0  0  0  0  0  0  0  0  0
  143.5070   71.4220  220.1660 C   0  0  0  0  0  0  0  0  0  0  0  0
  144.6800   71.0690  219.2390 C   0  0  0  0  0  0  0  0  0  0  0  0
  146.0236   73.6139  221.9419 H   0  0  0  0  0  0  0  0  0  0  0  0
  146.6150   74.6206  220.5768 H   0  0  0  0  0  0  0  0  0  0  0  0
  144.9255   74.0104  220.5768 H   0  0  0  0  0  0  0  0  0  0  0  0
  146.3540   71.7600  220.8160 H   0  0  0  0  0  0  0  0  0  0  0  0
  146.2298   72.0633  218.1071 H   0  0  0  0  0  0  0  0  0  0  0  0
  144.9675   74.3697  219.2201 H   0  0  0  0  0  0  0  0  0  0  0  0
  145.0617   73.7929  217.4899 H   0  0  0  0  0  0  0  0  0  0  0  0
  142.7196   74.2744  218.3941 H   0  0  0  0  0  0  0  0  0  0  0  0
  142.9862   72.6648  217.6411 H   0  0  0  0  0  0  0  0  0  0  0  0
  140.7302   76.6350  219.2202 H   0  0  0  0  0  0  0  0  0  0  0  0
  139.6742   77.9334  219.8603 H   0  0  0  0  0  0  0  0  0  0  0  0
  142.6943   77.6042  220.2115 H   0  0  0  0  0  0  0  0  0  0  0  0
  141.7869   78.9603  219.4208 H   0  0  0  0  0  0  0  0  0  0  0  0
  143.1980   80.4446  220.8839 H   0  0  0  0  0  0  0  0  0  0  0  0
  143.2287   81.6733  223.0518 H   0  0  0  0  0  0  0  0  0  0  0  0
  141.8077   80.8986  224.9505 H   0  0  0  0  0  0  0  0  0  0  0  0
  140.3599   78.8876  224.6920 H   0  0  0  0  0  0  0  0  0  0  0  0
  140.1630   76.6743  223.3839 H   0  0  0  0  0  0  0  0  0  0  0  0
  139.0079   77.6794  222.4252 H   0  0  0  0  0  0  0  0  0  0  0  0
  140.9442   71.5049  224.1549 H   0  0  0  0  0  0  0  0  0  0  0  0
  139.5406   72.0755  225.1254 H   0  0  0  0  0  0  0  0  0  0  0  0
  139.7278   69.4872  223.5044 H   0  0  0  0  0  0  0  0  0  0  0  0
  139.6940   69.6504  225.2998 H   0  0  0  0  0  0  0  0  0  0  0  0
  137.7110   68.2434  225.5306 H   0  0  0  0  0  0  0  0  0  0  0  0
  135.2205   68.1538  225.4636 H   0  0  0  0  0  0  0  0  0  0  0  0
  133.9388   69.8996  224.2218 H   0  0  0  0  0  0  0  0  0  0  0  0
  135.1482   71.7108  223.0059 H   0  0  0  0  0  0  0  0  0  0  0  0
  137.6480   71.9095  221.7330 H   0  0  0  0  0  0  0  0  0  0  0  0
  137.4085   73.0609  223.1315 H   0  0  0  0  0  0  0  0  0  0  0  0
  143.8901   71.5586  221.1880 H   0  0  0  0  0  0  0  0  0  0  0  0
  142.7784   70.5990  220.1222 H   0  0  0  0  0  0  0  0  0  0  0  0
  145.2880   70.2859  219.7155 H   0  0  0  0  0  0  0  0  0  0  0  0
  144.2675   70.7188  218.2813 H   0  0  0  0  0  0  0  0  0  0  0  0
  1  2  1  0
  2  3  1  0
  3  4  1  0
  4  5  1  0
  5  6  1  0
  6  7  1  0
  7  8  2  0
  8  9  1  0
  9 10  1  0
 10 11  1  0
 11 12  1  0
 12 13  1  0
 13 14  2  0
 14 15  1  0
 15 16  2  0
 16 17  1  0
 17 18  2  0
 18 19  1  0
  9 20  2  0
 20 21  1  0
 21 22  1  0
 22 23  1  0
 23 24  1  0
 24 25  1  0
 25 26  2  0
 26 27  1  0
 27 28  2  0
 28 29  1  0
 29 30  2  0
 30 31  1  0
 21 32  2  0
  6 33  1  0
 33 34  1  0
 34  3  1  0
 32  7  1  0
 19 10  1  0
 31 22  1  0
 18 13  1  0
 30 25  1  0
  1 35  1  0
  1 36  1  0
  1 37  1  0
  2 38  1  0
  3 39  1  0
  4 40  1  0
  4 41  1  0
  5 42  1  0
  5 43  1  0
 11 44  1  0
 11 45  1  0
 12 46  1  0
 12 47  1  0
 14 48  1  0
 15 49  1  0
 16 50  1  0
 17 51  1  0
 19 52  1  0
 19 53  1  0
 23 54  1  0
 23 55  1  0
 24 56  1  0
 24 57  1  0
 26 58  1  0
 27 59  1  0
 28 60  1  0
 29 61  1  0
 31 62  1  0
 31 63  1  0
 33 64  1  0
 33 65  1  0
 34 66  1  0
 34 67  1  0
M  END
>  <UniqueID>  (28) 
58

>  <SMILES>  (28) 
CNC1CCN(c2nc(N3CCc4ccccc4C3)nc(N3CCc4ccccc4C3)n2)CC1

>  <Energy>  (28) 
80.66862480415755

>  <Genealogy>  (28) 
CNC1CCN(c2nc(N3CCc4ccccc4C3)nc(N3CCc4ccccc4C3)n2)CC1 (3D coordinates assigned)
CNC1CCN(c2nc(N3CCc4ccccc4C3)nc(N3CCc4ccccc4C3)n2)CC1 (nonaromatic ring conformer: 80.66862480415755 kcal/mol)

>  <smiles>  (28) 
CNC1CCN(c2nc(N3CCc4ccccc4C3)nc(N3CCc4ccccc4C3)n2)CC1

>  <score_type>  (28) 
oracle

>  <origin>  (28) 
autodockgpu

>  <m_score__min__energy>  (28) 
-8.9900000000000002

>  <m_primary>  (28) 
energy

>  <meeko>  (28) 
{"free_energy": -8.84, "intermolecular_energy": -10.03, "internal_energy": -1.05, "cluster_size": 18, "cluster_id": 1, "rank_in_cluster": 9}

>  <energy>  (28) 
-8.86

>  <cluster_rmsd>  (28) 
1.26

>  <rmsd>  (28) 
271.97

>  <cluster>  (28) 
1

$$$$
DSYBMJCSYFRFMG-UHFFFAOYNA-N
     RDKit          3D

 67 72  0  0  0  0  0  0  0  0999 V2000
  143.6910   75.6520  217.0400 C   0  0  0  0  0  0  0  0  0  0  0  0
  144.7450   74.6860  216.7140 N   0  0  0  0  0  0  0  0  0  0  0  0
  144.2060   73.3230  216.5270 C   0  0  0  0  0  0  0  0  0  0  0  0
  142.6440   73.3100  216.5230 C   0  0  0  0  0  0  0  0  0  0  0  0
  142.0400   72.4130  217.6090 C   0  0  0  0  0  0  0  0  0  0  0  0
  142.6950   72.6900  218.8970 N   0  0  0  0  0  0  0  0  0  0  0  0
  141.9390   73.0860  220.0600 C   0  0  0  0  0  0  0  0  0  0  0  0
  141.5500   74.3790  220.2110 N   0  0  0  0  0  0  0  0  0  0  0  0
  140.8010   74.7620  221.2770 C   0  0  0  0  0  0  0  0  0  0  0  0
  140.3720   76.1340  221.4160 N   0  0  0  0  0  0  0  0  0  0  0  0
  140.0540   76.9620  220.2500 C   0  0  0  0  0  0  0  0  0  0  0  0
  141.1420   78.0220  220.0860 C   0  0  0  0  0  0  0  0  0  0  0  0
  141.4440   78.7210  221.3910 C   0  0  0  0  0  0  0  0  0  0  0  0
  142.1290   79.9470  221.3660 C   0  0  0  0  0  0  0  0  0  0  0  0
  142.4670   80.5930  222.5570 C   0  0  0  0  0  0  0  0  0  0  0  0
  142.1330   80.0180  223.7850 C   0  0  0  0  0  0  0  0  0  0  0  0
  141.4670   78.7910  223.8270 C   0  0  0  0  0  0  0  0  0  0  0  0
  141.1310   78.1240  222.6380 C   0  0  0  0  0  0  0  0  0  0  0  0
  140.3770   76.8160  222.7180 C   0  0  0  0  0  0  0  0  0  0  0  0
  140.4410   73.8310  222.2000 N   0  0  0  0  0  0  0  0  0  0  0  0
  140.8280   72.5360  222.0710 C   0  0  0  0  0  0  0  0  0  0  0  0
  140.4250   71.5570  223.0530 N   0  0  0  0  0  0  0  0  0  0  0  0
  139.5440   70.4420  222.6800 C   0  0  0  0  0  0  0  0  0  0  0  0
  138.5060   70.2140  223.7730 C   0  0  0  0  0  0  0  0  0  0  0  0
  139.1810   70.0120  225.1000 C   0  0  0  0  0  0  0  0  0  0  0  0
  138.5590   69.2340  226.0910 C   0  0  0  0  0  0  0  0  0  0  0  0
  139.1640   69.0660  227.3380 C   0  0  0  0  0  0  0  0  0  0  0  0
  140.3890   69.6790  227.6100 C   0  0  0  0  0  0  0  0  0  0  0  0
  141.0050   70.4750  226.6400 C   0  0  0  0  0  0  0  0  0  0  0  0
  140.4070   70.6530  225.3810 C   0  0  0  0  0  0  0  0  0  0  0  0
  141.0680   71.5720  224.3790 C   0  0  0  0  0  0  0  0  0  0  0  0
  141.5740   72.1720  220.9960 N   0  0  0  0  0  0  0  0  0  0  0  0
  144.1630   72.6320  218.9790 C   0  0  0  0  0  0  0  0  0  0  0  0
  144.8060   72.3940  217.6050 C   0  0  0  0  0  0  0  0  0  0  0  0
  143.5974   75.7378  218.1326 H   0  0  0  0  0  0  0  0  0  0  0  0
  143.9493   76.6336  216.6159 H   0  0  0  0  0  0  0  0  0  0  0  0
  142.7356   75.3093  216.6159 H   0  0  0  0  0  0  0  0  0  0  0  0
  145.4540   74.6900  217.4840 H   0  0  0  0  0  0  0  0  0  0  0  0
  144.5031   72.9465  215.5370 H   0  0  0  0  0  0  0  0  0  0  0  0
  142.2863   74.3381  216.6812 H   0  0  0  0  0  0  0  0  0  0  0  0
  142.3251   72.9037  215.5518 H   0  0  0  0  0  0  0  0  0  0  0  0
  140.9624   72.6166  217.6948 H   0  0  0  0  0  0  0  0  0  0  0  0
  142.1944   71.3578  217.3395 H   0  0  0  0  0  0  0  0  0  0  0  0
  140.0133   76.3318  219.3493 H   0  0  0  0  0  0  0  0  0  0  0  0
  139.0776   77.4482  220.3925 H   0  0  0  0  0  0  0  0  0  0  0  0
  142.0595   77.5373  219.7208 H   0  0  0  0  0  0  0  0  0  0  0  0
  140.7813   78.7749  219.3697 H   0  0  0  0  0  0  0  0  0  0  0  0
  142.4010   80.4013  220.4018 H   0  0  0  0  0  0  0  0  0  0  0  0
  142.9972   81.5564  222.5278 H   0  0  0  0  0  0  0  0  0  0  0  0
  142.3950   80.5325  224.7213 H   0  0  0  0  0  0  0  0  0  0  0  0
  141.2041   78.3445  224.7973 H   0  0  0  0  0  0  0  0  0  0  0  0
  140.8600   76.1667  223.4630 H   0  0  0  0  0  0  0  0  0  0  0  0
  139.3373   77.0265  223.0089 H   0  0  0  0  0  0  0  0  0  0  0  0
  139.0330   70.6809  221.7356 H   0  0  0  0  0  0  0  0  0  0  0  0
  140.1463   69.5299  222.5561 H   0  0  0  0  0  0  0  0  0  0  0  0
  137.8435   71.0901  223.8326 H   0  0  0  0  0  0  0  0  0  0  0  0
  137.9212   69.3149  223.5288 H   0  0  0  0  0  0  0  0  0  0  0  0
  137.5908   68.7550  225.8834 H   0  0  0  0  0  0  0  0  0  0  0  0
  138.6752   68.4500  228.1072 H   0  0  0  0  0  0  0  0  0  0  0  0
  140.8698   69.5352  228.5889 H   0  0  0  0  0  0  0  0  0  0  0  0
  141.9640   70.9652  226.8637 H   0  0  0  0  0  0  0  0  0  0  0  0
  141.0317   72.5988  224.7718 H   0  0  0  0  0  0  0  0  0  0  0  0
  142.0989   71.2133  224.2424 H   0  0  0  0  0  0  0  0  0  0  0  0
  144.5341   73.5847  219.3847 H   0  0  0  0  0  0  0  0  0  0  0  0
  144.4342   71.7894  219.6320 H   0  0  0  0  0  0  0  0  0  0  0  0
  145.8868   72.5847  217.6790 H   0  0  0  0  0  0  0  0  0  0  0  0
  144.6097   71.3528  217.3094 H   0  0  0  0  0  0  0  0  0  0  0  0
  1  2  1  0
  2  3  1  0
  3  4  1  0
  4  5  1  0
  5  6  1  0
  6  7  1  0
  7  8  2  0
  8  9  1  0
  9 10  1  0
 10 11  1  0
 11 12  1  0
 12 13  1  0
 13 14  2  0
 14 15  1  0
 15 16  2  0
 16 17  1  0
 17 18  2  0
 18 19  1  0
  9 20  2  0
 20 21  1  0
 21 22  1  0
 22 23  1  0
 23 24  1  0
 24 25  1  0
 25 26  2  0
 26 27  1  0
 27 28  2  0
 28 29  1  0
 29 30  2  0
 30 31  1  0
 21 32  2  0
  6 33  1  0
 33 34  1  0
 34  3  1  0
 32  7  1  0
 19 10  1  0
 31 22  1  0
 18 13  1  0
 30 25  1  0
  1 35  1  0
  1 36  1  0
  1 37  1  0
  2 38  1  0
  3 39  1  0
  4 40  1  0
  4 41  1  0
  5 42  1  0
  5 43  1  0
 11 44  1  0
 11 45  1  0
 12 46  1  0
 12 47  1  0
 14 48  1  0
 15 49  1  0
 16 50  1  0
 17 51  1  0
 19 52  1  0
 19 53  1  0
 23 54  1  0
 23 55  1  0
 24 56  1  0
 24 57  1  0
 26 58  1  0
 27 59  1  0
 28 60  1  0
 29 61  1  0
 31 62  1  0
 31 63  1  0
 33 64  1  0
 33 65  1  0
 34 66  1  0
 34 67  1  0
M  END
>  <UniqueID>  (29) 
58

>  <SMILES>  (29) 
CNC1CCN(c2nc(N3CCc4ccccc4C3)nc(N3CCc4ccccc4C3)n2)CC1

>  <Energy>  (29) 
80.66862480415755

>  <Genealogy>  (29) 
CNC1CCN(c2nc(N3CCc4ccccc4C3)nc(N3CCc4ccccc4C3)n2)CC1 (3D coordinates assigned)
CNC1CCN(c2nc(N3CCc4ccccc4C3)nc(N3CCc4ccccc4C3)n2)CC1 (nonaromatic ring conformer: 80.66862480415755 kcal/mol)

>  <smiles>  (29) 
CNC1CCN(c2nc(N3CCc4ccccc4C3)nc(N3CCc4ccccc4C3)n2)CC1

>  <score_type>  (29) 
oracle

>  <origin>  (29) 
autodockgpu

>  <m_score__min__energy>  (29) 
-8.9900000000000002

>  <m_primary>  (29) 
energy

>  <meeko>  (29) 
{"free_energy": -8.65, "intermolecular_energy": -9.84, "internal_energy": -1.09, "cluster_size": 18, "cluster_id": 1, "rank_in_cluster": 17}

>  <energy>  (29) 
-8.84

>  <cluster_rmsd>  (29) 
1.9

>  <rmsd>  (29) 
271.61

>  <cluster>  (29) 
1

$$$$
DSYBMJCSYFRFMG-UHFFFAOYNA-N
     RDKit          3D

 67 72  0  0  0  0  0  0  0  0999 V2000
  145.6970   73.1250  219.4900 C   0  0  0  0  0  0  0  0  0  0  0  0
  145.9370   72.2240  218.3590 N   0  0  0  0  0  0  0  0  0  0  0  0
  144.8080   72.2230  217.4060 C   0  0  0  0  0  0  0  0  0  0  0  0
  144.0220   73.5720  217.4320 C   0  0  0  0  0  0  0  0  0  0  0  0
  142.5380   73.4060  217.7780 C   0  0  0  0  0  0  0  0  0  0  0  0
  142.4020   72.5380  218.9590 N   0  0  0  0  0  0  0  0  0  0  0  0
  141.7100   72.9790  220.1450 C   0  0  0  0  0  0  0  0  0  0  0  0
  141.3130   74.2730  220.2610 N   0  0  0  0  0  0  0  0  0  0  0  0
  140.6230   74.6960  221.3510 C   0  0  0  0  0  0  0  0  0  0  0  0
  140.1860   76.0690  221.4540 N   0  0  0  0  0  0  0  0  0  0  0  0
  139.7980   76.8420  220.2720 C   0  0  0  0  0  0  0  0  0  0  0  0
  140.8630   77.9060  220.0070 C   0  0  0  0  0  0  0  0  0  0  0  0
  141.2230   78.6630  221.2640 C   0  0  0  0  0  0  0  0  0  0  0  0
  141.8910   79.8920  221.1520 C   0  0  0  0  0  0  0  0  0  0  0  0
  142.2820   80.5920  222.2960 C   0  0  0  0  0  0  0  0  0  0  0  0
  142.0180   80.0670  223.5630 C   0  0  0  0  0  0  0  0  0  0  0  0
  141.3700   78.8370  223.6910 C   0  0  0  0  0  0  0  0  0  0  0  0
  140.9810   78.1160  222.5500 C   0  0  0  0  0  0  0  0  0  0  0  0
  140.2480   76.8050  222.7240 C   0  0  0  0  0  0  0  0  0  0  0  0
  140.3290   73.8040  222.3340 N   0  0  0  0  0  0  0  0  0  0  0  0
  140.7240   72.5080  222.2400 C   0  0  0  0  0  0  0  0  0  0  0  0
  140.3910   71.5710  223.2860 N   0  0  0  0  0  0  0  0  0  0  0  0
  139.6920   70.3170  222.9730 C   0  0  0  0  0  0  0  0  0  0  0  0
  138.6240   70.0420  224.0260 C   0  0  0  0  0  0  0  0  0  0  0  0
  139.2310   70.0490  225.3990 C   0  0  0  0  0  0  0  0  0  0  0  0
  138.6550   69.2800  226.4240 C   0  0  0  0  0  0  0  0  0  0  0  0
  139.1940   69.3040  227.7120 C   0  0  0  0  0  0  0  0  0  0  0  0
  140.3060   70.1020  227.9910 C   0  0  0  0  0  0  0  0  0  0  0  0
  140.8730   70.8890  226.9840 C   0  0  0  0  0  0  0  0  0  0  0  0
  140.3410   70.8750  225.6850 C   0  0  0  0  0  0  0  0  0  0  0  0
  140.9390   71.7870  224.6370 C   0  0  0  0  0  0  0  0  0  0  0  0
  141.4120   72.1040  221.1400 N   0  0  0  0  0  0  0  0  0  0  0  0
  143.0520   71.2170  218.9540 C   0  0  0  0  0  0  0  0  0  0  0  0
  143.9070   71.0030  217.6960 C   0  0  0  0  0  0  0  0  0  0  0  0
  145.8429   72.5771  220.4326 H   0  0  0  0  0  0  0  0  0  0  0  0
  146.4019   73.9682  219.4431 H   0  0  0  0  0  0  0  0  0  0  0  0
  144.6661   73.5058  219.4431 H   0  0  0  0  0  0  0  0  0  0  0  0
  146.0970   71.2570  218.7280 H   0  0  0  0  0  0  0  0  0  0  0  0
  145.1973   72.1331  216.3811 H   0  0  0  0  0  0  0  0  0  0  0  0
  144.4836   74.2299  218.1831 H   0  0  0  0  0  0  0  0  0  0  0  0
  144.0734   73.9970  216.4187 H   0  0  0  0  0  0  0  0  0  0  0  0
  142.1000   74.3914  217.9952 H   0  0  0  0  0  0  0  0  0  0  0  0
  142.0124   72.9499  216.9261 H   0  0  0  0  0  0  0  0  0  0  0  0
  139.7195   76.1730  219.4023 H   0  0  0  0  0  0  0  0  0  0  0  0
  138.8239   77.3233  220.4437 H   0  0  0  0  0  0  0  0  0  0  0  0
  141.7665   77.4159  219.6151 H   0  0  0  0  0  0  0  0  0  0  0  0
  140.4563   78.6239  219.2795 H   0  0  0  0  0  0  0  0  0  0  0  0
  142.1082   80.3070  220.1567 H   0  0  0  0  0  0  0  0  0  0  0  0
  142.7986   81.5583  222.1987 H   0  0  0  0  0  0  0  0  0  0  0  0
  142.3213   80.6238  224.4619 H   0  0  0  0  0  0  0  0  0  0  0  0
  141.1628   78.4300  224.6917 H   0  0  0  0  0  0  0  0  0  0  0  0
  140.7760   76.1929  223.4700 H   0  0  0  0  0  0  0  0  0  0  0  0
  139.2219   77.0167  223.0591 H   0  0  0  0  0  0  0  0  0  0  0  0
  139.2167   70.4012  221.9846 H   0  0  0  0  0  0  0  0  0  0  0  0
  140.4169   69.4897  222.9675 H   0  0  0  0  0  0  0  0  0  0  0  0
  137.8487   70.8202  223.9682 H   0  0  0  0  0  0  0  0  0  0  0  0
  138.1809   69.0533  223.8361 H   0  0  0  0  0  0  0  0  0  0  0  0
  137.7748   68.6557  226.2108 H   0  0  0  0  0  0  0  0  0  0  0  0
  138.7423   68.6937  228.5079 H   0  0  0  0  0  0  0  0  0  0  0  0
  140.7358   70.1113  229.0035 H   0  0  0  0  0  0  0  0  0  0  0  0
  141.7422   71.5237  227.2113 H   0  0  0  0  0  0  0  0  0  0  0  0
  140.7426   72.8290  224.9296 H   0  0  0  0  0  0  0  0  0  0  0  0
  142.0147   71.5621  224.5890 H   0  0  0  0  0  0  0  0  0  0  0  0
  143.6977   71.1352  219.8408 H   0  0  0  0  0  0  0  0  0  0  0  0
  142.2639   70.4497  218.9646 H   0  0  0  0  0  0  0  0  0  0  0  0
  144.5423   70.1171  217.8427 H   0  0  0  0  0  0  0  0  0  0  0  0
  143.2303   70.8641  216.8400 H   0  0  0  0  0  0  0  0  0  0  0  0
  1  2  1  0
  2  3  1  0
  3  4  1  0
  4  5  1  0
  5  6  1  0
  6  7  1  0
  7  8  2  0
  8  9  1  0
  9 10  1  0
 10 11  1  0
 11 12  1  0
 12 13  1  0
 13 14  2  0
 14 15  1  0
 15 16  2  0
 16 17  1  0
 17 18  2  0
 18 19  1  0
  9 20  2  0
 20 21  1  0
 21 22  1  0
 22 23  1  0
 23 24  1  0
 24 25  1  0
 25 26  2  0
 26 27  1  0
 27 28  2  0
 28 29  1  0
 29 30  2  0
 30 31  1  0
 21 32  2  0
  6 33  1  0
 33 34  1  0
 34  3  1  0
 32  7  1  0
 19 10  1  0
 31 22  1  0
 18 13  1  0
 30 25  1  0
  1 35  1  0
  1 36  1  0
  1 37  1  0
  2 38  1  0
  3 39  1  0
  4 40  1  0
  4 41  1  0
  5 42  1  0
  5 43  1  0
 11 44  1  0
 11 45  1  0
 12 46  1  0
 12 47  1  0
 14 48  1  0
 15 49  1  0
 16 50  1  0
 17 51  1  0
 19 52  1  0
 19 53  1  0
 23 54  1  0
 23 55  1  0
 24 56  1  0
 24 57  1  0
 26 58  1  0
 27 59  1  0
 28 60  1  0
 29 61  1  0
 31 62  1  0
 31 63  1  0
 33 64  1  0
 33 65  1  0
 34 66  1  0
 34 67  1  0
M  END
>  <UniqueID>  (30) 
58

>  <SMILES>  (30) 
CNC1CCN(c2nc(N3CCc4ccccc4C3)nc(N3CCc4ccccc4C3)n2)CC1

>  <Energy>  (30) 
80.66862480415755

>  <Genealogy>  (30) 
CNC1CCN(c2nc(N3CCc4ccccc4C3)nc(N3CCc4ccccc4C3)n2)CC1 (3D coordinates assigned)
CNC1CCN(c2nc(N3CCc4ccccc4C3)nc(N3CCc4ccccc4C3)n2)CC1 (nonaromatic ring conformer: 80.66862480415755 kcal/mol)

>  <smiles>  (30) 
CNC1CCN(c2nc(N3CCc4ccccc4C3)nc(N3CCc4ccccc4C3)n2)CC1

>  <score_type>  (30) 
oracle

>  <origin>  (30) 
autodockgpu

>  <m_score__min__energy>  (30) 
-8.9900000000000002

>  <m_primary>  (30) 
energy

>  <meeko>  (30) 
{"free_energy": -8.86, "intermolecular_energy": -10.06, "internal_energy": -1.03, "cluster_size": 18, "cluster_id": 1, "rank_in_cluster": 7}

>  <energy>  (30) 
-8.83

>  <cluster_rmsd>  (30) 
1.34

>  <rmsd>  (30) 
271.98

>  <cluster>  (30) 
1

$$$$
DSYBMJCSYFRFMG-UHFFFAOYNA-N
     RDKit          3D

 67 72  0  0  0  0  0  0  0  0999 V2000
  146.8970   73.7990  216.8140 C   0  0  0  0  0  0  0  0  0  0  0  0
  145.8780   73.3260  217.7570 N   0  0  0  0  0  0  0  0  0  0  0  0
  144.7600   72.6510  217.0680 C   0  0  0  0  0  0  0  0  0  0  0  0
  143.4980   73.5660  216.9680 C   0  0  0  0  0  0  0  0  0  0  0  0
  142.2540   72.9620  217.6270 C   0  0  0  0  0  0  0  0  0  0  0  0
  142.6010   72.4590  218.9650 N   0  0  0  0  0  0  0  0  0  0  0  0
  141.9100   72.9140  220.1460 C   0  0  0  0  0  0  0  0  0  0  0  0
  141.5260   74.2130  220.2530 N   0  0  0  0  0  0  0  0  0  0  0  0
  140.8360   74.6500  221.3390 C   0  0  0  0  0  0  0  0  0  0  0  0
  140.4120   76.0280  221.4310 N   0  0  0  0  0  0  0  0  0  0  0  0
  140.1540   76.8340  220.2350 C   0  0  0  0  0  0  0  0  0  0  0  0
  141.2560   77.8840  220.1010 C   0  0  0  0  0  0  0  0  0  0  0  0
  141.5030   78.6060  221.4050 C   0  0  0  0  0  0  0  0  0  0  0  0
  142.1980   79.8260  221.3880 C   0  0  0  0  0  0  0  0  0  0  0  0
  142.4860   80.4940  222.5810 C   0  0  0  0  0  0  0  0  0  0  0  0
  142.0920   79.9450  223.8030 C   0  0  0  0  0  0  0  0  0  0  0  0
  141.4150   78.7240  223.8380 C   0  0  0  0  0  0  0  0  0  0  0  0
  141.1290   78.0360  222.6480 C   0  0  0  0  0  0  0  0  0  0  0  0
  140.3620   76.7340  222.7180 C   0  0  0  0  0  0  0  0  0  0  0  0
  140.5310   73.7680  222.3260 N   0  0  0  0  0  0  0  0  0  0  0  0
  140.9130   72.4670  222.2420 C   0  0  0  0  0  0  0  0  0  0  0  0
  140.5680   71.5400  223.2930 N   0  0  0  0  0  0  0  0  0  0  0  0
  139.9220   70.2590  222.9790 C   0  0  0  0  0  0  0  0  0  0  0  0
  138.8220   69.9690  223.9940 C   0  0  0  0  0  0  0  0  0  0  0  0
  139.3730   70.0230  225.3900 C   0  0  0  0  0  0  0  0  0  0  0  0
  138.7800   69.2560  226.4070 C   0  0  0  0  0  0  0  0  0  0  0  0
  139.2660   69.3230  227.7140 C   0  0  0  0  0  0  0  0  0  0  0  0
  140.3400   70.1610  228.0200 C   0  0  0  0  0  0  0  0  0  0  0  0
  140.9220   70.9470  227.0210 C   0  0  0  0  0  0  0  0  0  0  0  0
  140.4430   70.8900  225.7020 C   0  0  0  0  0  0  0  0  0  0  0  0
  141.0540   71.8010  224.6600 C   0  0  0  0  0  0  0  0  0  0  0  0
  141.6000   72.0490  221.1470 N   0  0  0  0  0  0  0  0  0  0  0  0
  143.7290   71.5240  219.1070 C   0  0  0  0  0  0  0  0  0  0  0  0
  144.4680   71.3110  217.7780 C   0  0  0  0  0  0  0  0  0  0  0  0
  147.7565   74.1980  217.3726 H   0  0  0  0  0  0  0  0  0  0  0  0
  147.2275   72.9622  216.1811 H   0  0  0  0  0  0  0  0  0  0  0  0
  146.4712   74.5915  216.1811 H   0  0  0  0  0  0  0  0  0  0  0  0
  145.5220   74.1450  218.3040 H   0  0  0  0  0  0  0  0  0  0  0  0
  145.0493   72.4397  216.0280 H   0  0  0  0  0  0  0  0  0  0  0  0
  143.7224   74.5242  217.4595 H   0  0  0  0  0  0  0  0  0  0  0  0
  143.2710   73.6899  215.8988 H   0  0  0  0  0  0  0  0  0  0  0  0
  141.4755   73.7339  217.7164 H   0  0  0  0  0  0  0  0  0  0  0  0
  141.8795   72.1320  217.0099 H   0  0  0  0  0  0  0  0  0  0  0  0
  140.1509   76.1860  219.3462 H   0  0  0  0  0  0  0  0  0  0  0  0
  139.1753   77.3286  220.3219 H   0  0  0  0  0  0  0  0  0  0  0  0
  142.1857   77.3867  219.7874 H   0  0  0  0  0  0  0  0  0  0  0  0
  140.9338   78.6253  219.3549 H   0  0  0  0  0  0  0  0  0  0  0  0
  142.5180   80.2589  220.4287 H   0  0  0  0  0  0  0  0  0  0  0  0
  143.0236   81.4534  222.5575 H   0  0  0  0  0  0  0  0  0  0  0  0
  142.3154   80.4755  224.7403 H   0  0  0  0  0  0  0  0  0  0  0  0
  141.1040   78.2988  224.8036 H   0  0  0  0  0  0  0  0  0  0  0  0
  140.8054   76.0959  223.4966 H   0  0  0  0  0  0  0  0  0  0  0  0
  139.3116   76.9566  222.9569 H   0  0  0  0  0  0  0  0  0  0  0  0
  139.4841   70.3089  221.9711 H   0  0  0  0  0  0  0  0  0  0  0  0
  140.6725   69.4558  223.0195 H   0  0  0  0  0  0  0  0  0  0  0  0
  138.0247   70.7196  223.8894 H   0  0  0  0  0  0  0  0  0  0  0  0
  138.4192   68.9626  223.8072 H   0  0  0  0  0  0  0  0  0  0  0  0
  137.9290   68.5998  226.1723 H   0  0  0  0  0  0  0  0  0  0  0  0
  138.8020   68.7145  228.5042 H   0  0  0  0  0  0  0  0  0  0  0  0
  140.7286   70.2028  229.0482 H   0  0  0  0  0  0  0  0  0  0  0  0
  141.7604   71.6143  227.2696 H   0  0  0  0  0  0  0  0  0  0  0  0
  140.8125   72.8415  224.9226 H   0  0  0  0  0  0  0  0  0  0  0  0
  142.1375   71.6114  224.6599 H   0  0  0  0  0  0  0  0  0  0  0  0
  144.4359   71.9294  219.8458 H   0  0  0  0  0  0  0  0  0  0  0  0
  143.3276   70.5531  219.4329 H   0  0  0  0  0  0  0  0  0  0  0  0
  145.4203   70.7979  217.9775 H   0  0  0  0  0  0  0  0  0  0  0  0
  143.8258   70.7064  217.1206 H   0  0  0  0  0  0  0  0  0  0  0  0
  1  2  1  0
  2  3  1  0
  3  4  1  0
  4  5  1  0
  5  6  1  0
  6  7  1  0
  7  8  2  0
  8  9  1  0
  9 10  1  0
 10 11  1  0
 11 12  1  0
 12 13  1  0
 13 14  2  0
 14 15  1  0
 15 16  2  0
 16 17  1  0
 17 18  2  0
 18 19  1  0
  9 20  2  0
 20 21  1  0
 21 22  1  0
 22 23  1  0
 23 24  1  0
 24 25  1  0
 25 26  2  0
 26 27  1  0
 27 28  2  0
 28 29  1  0
 29 30  2  0
 30 31  1  0
 21 32  2  0
  6 33  1  0
 33 34  1  0
 34  3  1  0
 32  7  1  0
 19 10  1  0
 31 22  1  0
 18 13  1  0
 30 25  1  0
  1 35  1  0
  1 36  1  0
  1 37  1  0
  2 38  1  0
  3 39  1  0
  4 40  1  0
  4 41  1  0
  5 42  1  0
  5 43  1  0
 11 44  1  0
 11 45  1  0
 12 46  1  0
 12 47  1  0
 14 48  1  0
 15 49  1  0
 16 50  1  0
 17 51  1  0
 19 52  1  0
 19 53  1  0
 23 54  1  0
 23 55  1  0
 24 56  1  0
 24 57  1  0
 26 58  1  0
 27 59  1  0
 28 60  1  0
 29 61  1  0
 31 62  1  0
 31 63  1  0
 33 64  1  0
 33 65  1  0
 34 66  1  0
 34 67  1  0
M  END
>  <UniqueID>  (31) 
58

>  <SMILES>  (31) 
CNC1CCN(c2nc(N3CCc4ccccc4C3)nc(N3CCc4ccccc4C3)n2)CC1

>  <Energy>  (31) 
80.66862480415755

>  <Genealogy>  (31) 
CNC1CCN(c2nc(N3CCc4ccccc4C3)nc(N3CCc4ccccc4C3)n2)CC1 (3D coordinates assigned)
CNC1CCN(c2nc(N3CCc4ccccc4C3)nc(N3CCc4ccccc4C3)n2)CC1 (nonaromatic ring conformer: 80.66862480415755 kcal/mol)

>  <smiles>  (31) 
CNC1CCN(c2nc(N3CCc4ccccc4C3)nc(N3CCc4ccccc4C3)n2)CC1

>  <score_type>  (31) 
oracle

>  <origin>  (31) 
autodockgpu

>  <m_score__min__energy>  (31) 
-8.9900000000000002

>  <m_primary>  (31) 
energy

>  <meeko>  (31) 
{"free_energy": -8.99, "intermolecular_energy": -10.18, "internal_energy": -0.96, "cluster_size": 18, "cluster_id": 1, "rank_in_cluster": 1}

>  <energy>  (31) 
-8.83

>  <cluster_rmsd>  (31) 
1.91

>  <rmsd>  (31) 
271.61

>  <cluster>  (31) 
1

$$$$
DSYBMJCSYFRFMG-UHFFFAOYNA-N
     RDKit          3D

 67 72  0  0  0  0  0  0  0  0999 V2000
  143.2920   75.8590  216.8190 C   0  0  0  0  0  0  0  0  0  0  0  0
  144.5620   75.2410  216.4250 N   0  0  0  0  0  0  0  0  0  0  0  0
  144.5020   73.7660  216.4950 C   0  0  0  0  0  0  0  0  0  0  0  0
  143.0310   73.2420  216.5160 C   0  0  0  0  0  0  0  0  0  0  0  0
  142.7020   72.4010  217.7540 C   0  0  0  0  0  0  0  0  0  0  0  0
  143.1730   73.0970  218.9610 N   0  0  0  0  0  0  0  0  0  0  0  0
  142.2770   73.4210  220.0450 C   0  0  0  0  0  0  0  0  0  0  0  0
  141.8550   74.7010  220.2200 N   0  0  0  0  0  0  0  0  0  0  0  0
  140.9790   75.0160  221.2080 C   0  0  0  0  0  0  0  0  0  0  0  0
  140.5180   76.3760  221.3710 N   0  0  0  0  0  0  0  0  0  0  0  0
  140.2060   77.2250  220.2190 C   0  0  0  0  0  0  0  0  0  0  0  0
  141.2740   78.3120  220.1040 C   0  0  0  0  0  0  0  0  0  0  0  0
  141.5330   78.9840  221.4310 C   0  0  0  0  0  0  0  0  0  0  0  0
  142.1920   80.2240  221.4510 C   0  0  0  0  0  0  0  0  0  0  0  0
  142.4910   80.8480  222.6650 C   0  0  0  0  0  0  0  0  0  0  0  0
  142.1440   80.2360  223.8710 C   0  0  0  0  0  0  0  0  0  0  0  0
  141.5030   78.9950  223.8690 C   0  0  0  0  0  0  0  0  0  0  0  0
  141.2070   78.3500  222.6570 C   0  0  0  0  0  0  0  0  0  0  0  0
  140.4800   77.0250  222.6890 C   0  0  0  0  0  0  0  0  0  0  0  0
  140.5230   74.0320  222.0270 N   0  0  0  0  0  0  0  0  0  0  0  0
  140.9400   72.7490  221.8730 C   0  0  0  0  0  0  0  0  0  0  0  0
  140.4350   71.7130  222.7420 N   0  0  0  0  0  0  0  0  0  0  0  0
  139.4440   70.7440  222.2550 C   0  0  0  0  0  0  0  0  0  0  0  0
  138.3860   70.5020  223.3250 C   0  0  0  0  0  0  0  0  0  0  0  0
  139.0320   70.0840  224.6140 C   0  0  0  0  0  0  0  0  0  0  0  0
  138.3310   69.2670  225.5170 C   0  0  0  0  0  0  0  0  0  0  0  0
  138.9120   68.8990  226.7320 C   0  0  0  0  0  0  0  0  0  0  0  0
  140.1930   69.3480  227.0600 C   0  0  0  0  0  0  0  0  0  0  0  0
  140.8910   70.1800  226.1790 C   0  0  0  0  0  0  0  0  0  0  0  0
  140.3180   70.5590  224.9550 C   0  0  0  0  0  0  0  0  0  0  0  0
  141.0740   71.5120  224.0550 C   0  0  0  0  0  0  0  0  0  0  0  0
  141.8150   72.4520  220.8770 N   0  0  0  0  0  0  0  0  0  0  0  0
  144.5750   73.5380  219.0320 C   0  0  0  0  0  0  0  0  0  0  0  0
  145.3220   73.2870  217.7130 C   0  0  0  0  0  0  0  0  0  0  0  0
  143.2250   75.8916  217.9165 H   0  0  0  0  0  0  0  0  0  0  0  0
  143.2421   76.8821  216.4180 H   0  0  0  0  0  0  0  0  0  0  0  0
  142.4561   75.2669  216.4180 H   0  0  0  0  0  0  0  0  0  0  0  0
  145.3190   75.6000  217.0530 H   0  0  0  0  0  0  0  0  0  0  0  0
  144.9490   73.3408  215.5843 H   0  0  0  0  0  0  0  0  0  0  0  0
  142.3523   74.1073  216.4919 H   0  0  0  0  0  0  0  0  0  0  0  0
  142.9058   72.5907  215.6384 H   0  0  0  0  0  0  0  0  0  0  0  0
  141.6139   72.2529  217.8176 H   0  0  0  0  0  0  0  0  0  0  0  0
  143.2020   71.4243  217.6763 H   0  0  0  0  0  0  0  0  0  0  0  0
  140.1979   76.6164  219.3027 H   0  0  0  0  0  0  0  0  0  0  0  0
  139.2163   77.6863  220.3521 H   0  0  0  0  0  0  0  0  0  0  0  0
  142.2093   77.8563  219.7468 H   0  0  0  0  0  0  0  0  0  0  0  0
  140.9121   79.0746  219.3987 H   0  0  0  0  0  0  0  0  0  0  0  0
  142.4748   80.7075  220.5043 H   0  0  0  0  0  0  0  0  0  0  0  0
  143.0005   81.8229  222.6705 H   0  0  0  0  0  0  0  0  0  0  0  0
  142.3759   80.7323  224.8249 H   0  0  0  0  0  0  0  0  0  0  0  0
  141.2284   78.5200  224.8224 H   0  0  0  0  0  0  0  0  0  0  0  0
  140.9609   76.3678  223.4284 H   0  0  0  0  0  0  0  0  0  0  0  0
  139.4300   77.2059  222.9624 H   0  0  0  0  0  0  0  0  0  0  0  0
  138.9623   71.1393  221.3485 H   0  0  0  0  0  0  0  0  0  0  0  0
  139.9491   69.7946  222.0238 H   0  0  0  0  0  0  0  0  0  0  0  0
  137.8171   71.4292  223.4886 H   0  0  0  0  0  0  0  0  0  0  0  0
  137.7129   69.7005  222.9866 H   0  0  0  0  0  0  0  0  0  0  0  0
  137.3194   68.9156  225.2654 H   0  0  0  0  0  0  0  0  0  0  0  0
  138.3600   68.2545  227.4319 H   0  0  0  0  0  0  0  0  0  0  0  0
  140.6535   69.0469  228.0125 H   0  0  0  0  0  0  0  0  0  0  0  0
  141.8954   70.5397  226.4469 H   0  0  0  0  0  0  0  0  0  0  0  0
  141.1445   72.4863  224.5606 H   0  0  0  0  0  0  0  0  0  0  0  0
  142.0621   71.0659  223.8689 H   0  0  0  0  0  0  0  0  0  0  0  0
  144.5982   74.6150  219.2545 H   0  0  0  0  0  0  0  0  0  0  0  0
  145.0749   72.9590  219.8224 H   0  0  0  0  0  0  0  0  0  0  0  0
  146.2783   73.8302  217.7354 H   0  0  0  0  0  0  0  0  0  0  0  0
  145.4874   72.2042  217.6120 H   0  0  0  0  0  0  0  0  0  0  0  0
  1  2  1  0
  2  3  1  0
  3  4  1  0
  4  5  1  0
  5  6  1  0
  6  7  1  0
  7  8  2  0
  8  9  1  0
  9 10  1  0
 10 11  1  0
 11 12  1  0
 12 13  1  0
 13 14  2  0
 14 15  1  0
 15 16  2  0
 16 17  1  0
 17 18  2  0
 18 19  1  0
  9 20  2  0
 20 21  1  0
 21 22  1  0
 22 23  1  0
 23 24  1  0
 24 25  1  0
 25 26  2  0
 26 27  1  0
 27 28  2  0
 28 29  1  0
 29 30  2  0
 30 31  1  0
 21 32  2  0
  6 33  1  0
 33 34  1  0
 34  3  1  0
 32  7  1  0
 19 10  1  0
 31 22  1  0
 18 13  1  0
 30 25  1  0
  1 35  1  0
  1 36  1  0
  1 37  1  0
  2 38  1  0
  3 39  1  0
  4 40  1  0
  4 41  1  0
  5 42  1  0
  5 43  1  0
 11 44  1  0
 11 45  1  0
 12 46  1  0
 12 47  1  0
 14 48  1  0
 15 49  1  0
 16 50  1  0
 17 51  1  0
 19 52  1  0
 19 53  1  0
 23 54  1  0
 23 55  1  0
 24 56  1  0
 24 57  1  0
 26 58  1  0
 27 59  1  0
 28 60  1  0
 29 61  1  0
 31 62  1  0
 31 63  1  0
 33 64  1  0
 33 65  1  0
 34 66  1  0
 34 67  1  0
M  END
>  <UniqueID>  (32) 
58

>  <SMILES>  (32) 
CNC1CCN(c2nc(N3CCc4ccccc4C3)nc(N3CCc4ccccc4C3)n2)CC1

>  <Energy>  (32) 
80.66862480415755

>  <Genealogy>  (32) 
CNC1CCN(c2nc(N3CCc4ccccc4C3)nc(N3CCc4ccccc4C3)n2)CC1 (3D coordinates assigned)
CNC1CCN(c2nc(N3CCc4ccccc4C3)nc(N3CCc4ccccc4C3)n2)CC1 (nonaromatic ring conformer: 80.66862480415755 kcal/mol)

>  <smiles>  (32) 
CNC1CCN(c2nc(N3CCc4ccccc4C3)nc(N3CCc4ccccc4C3)n2)CC1

>  <score_type>  (32) 
oracle

>  <origin>  (32) 
autodockgpu

>  <m_score__min__energy>  (32) 
-8.9900000000000002

>  <m_primary>  (32) 
energy

>  <meeko>  (32) 
{"free_energy": -8.68, "intermolecular_energy": -9.88, "internal_energy": -1.09, "cluster_size": 18, "cluster_id": 1, "rank_in_cluster": 16}

>  <energy>  (32) 
-8.83

>  <cluster_rmsd>  (32) 
1.91

>  <rmsd>  (32) 
271.62

>  <cluster>  (32) 
1

$$$$
DSYBMJCSYFRFMG-UHFFFAOYNA-N
     RDKit          3D

 67 72  0  0  0  0  0  0  0  0999 V2000
  146.9000   73.7640  216.8180 C   0  0  0  0  0  0  0  0  0  0  0  0
  145.8640   73.3050  217.7490 N   0  0  0  0  0  0  0  0  0  0  0  0
  144.7340   72.6640  217.0440 C   0  0  0  0  0  0  0  0  0  0  0  0
  143.4920   73.6070  216.9540 C   0  0  0  0  0  0  0  0  0  0  0  0
  142.2330   73.0180  217.5990 C   0  0  0  0  0  0  0  0  0  0  0  0
  142.5640   72.4850  218.9290 N   0  0  0  0  0  0  0  0  0  0  0  0
  141.8780   72.9340  220.1160 C   0  0  0  0  0  0  0  0  0  0  0  0
  141.4980   74.2340  220.2320 N   0  0  0  0  0  0  0  0  0  0  0  0
  140.8140   74.6650  221.3230 C   0  0  0  0  0  0  0  0  0  0  0  0
  140.3940   76.0440  221.4260 N   0  0  0  0  0  0  0  0  0  0  0  0
  140.1280   76.8570  220.2370 C   0  0  0  0  0  0  0  0  0  0  0  0
  141.2310   77.9040  220.0980 C   0  0  0  0  0  0  0  0  0  0  0  0
  141.4920   78.6190  221.4030 C   0  0  0  0  0  0  0  0  0  0  0  0
  142.1900   79.8370  221.3860 C   0  0  0  0  0  0  0  0  0  0  0  0
  142.4900   80.4980  222.5800 C   0  0  0  0  0  0  0  0  0  0  0  0
  142.1050   79.9440  223.8020 C   0  0  0  0  0  0  0  0  0  0  0  0
  141.4250   78.7250  223.8370 C   0  0  0  0  0  0  0  0  0  0  0  0
  141.1260   78.0430  222.6460 C   0  0  0  0  0  0  0  0  0  0  0  0
  140.3570   76.7440  222.7170 C   0  0  0  0  0  0  0  0  0  0  0  0
  140.5080   73.7770  222.3050 N   0  0  0  0  0  0  0  0  0  0  0  0
  140.8860   72.4760  222.2110 C   0  0  0  0  0  0  0  0  0  0  0  0
  140.5410   71.5420  223.2570 N   0  0  0  0  0  0  0  0  0  0  0  0
  139.8600   70.2810  222.9390 C   0  0  0  0  0  0  0  0  0  0  0  0
  138.7740   70.0030  223.9730 C   0  0  0  0  0  0  0  0  0  0  0  0
  139.3540   70.0250  225.3580 C   0  0  0  0  0  0  0  0  0  0  0  0
  138.7650   69.2580  226.3770 C   0  0  0  0  0  0  0  0  0  0  0  0
  139.2780   69.2960  227.6750 C   0  0  0  0  0  0  0  0  0  0  0  0
  140.3770   70.1060  227.9690 C   0  0  0  0  0  0  0  0  0  0  0  0
  140.9570   70.8910  226.9680 C   0  0  0  0  0  0  0  0  0  0  0  0
  140.4500   70.8630  225.6590 C   0  0  0  0  0  0  0  0  0  0  0  0
  141.0600   71.7740  224.6170 C   0  0  0  0  0  0  0  0  0  0  0  0
  141.5690   72.0630  221.1110 N   0  0  0  0  0  0  0  0  0  0  0  0
  143.6720   71.5250  219.0600 C   0  0  0  0  0  0  0  0  0  0  0  0
  144.4120   71.3190  217.7300 C   0  0  0  0  0  0  0  0  0  0  0  0
  147.7610   74.1455  217.3865 H   0  0  0  0  0  0  0  0  0  0  0  0
  147.2219   72.9243  216.1846 H   0  0  0  0  0  0  0  0  0  0  0  0
  146.4942   74.5666  216.1846 H   0  0  0  0  0  0  0  0  0  0  0  0
  145.5230   74.1260  218.3020 H   0  0  0  0  0  0  0  0  0  0  0  0
  145.0227   72.4635  216.0017 H   0  0  0  0  0  0  0  0  0  0  0  0
  143.7343   74.5523  217.4617 H   0  0  0  0  0  0  0  0  0  0  0  0
  143.2719   73.7533  215.8862 H   0  0  0  0  0  0  0  0  0  0  0  0
  141.4706   73.8046  217.6991 H   0  0  0  0  0  0  0  0  0  0  0  0
  141.8437   72.2066  216.9665 H   0  0  0  0  0  0  0  0  0  0  0  0
  140.1149   76.2136  219.3449 H   0  0  0  0  0  0  0  0  0  0  0  0
  139.1518   77.3543  220.3358 H   0  0  0  0  0  0  0  0  0  0  0  0
  142.1564   77.4057  219.7735 H   0  0  0  0  0  0  0  0  0  0  0  0
  140.9040   78.6497  219.3585 H   0  0  0  0  0  0  0  0  0  0  0  0
  142.5029   80.2739  220.4262 H   0  0  0  0  0  0  0  0  0  0  0  0
  143.0302   81.4560  222.5569 H   0  0  0  0  0  0  0  0  0  0  0  0
  142.3379   80.4692  224.7400 H   0  0  0  0  0  0  0  0  0  0  0  0
  141.1215   78.2960  224.8034 H   0  0  0  0  0  0  0  0  0  0  0  0
  140.8056   76.1012  223.4887 H   0  0  0  0  0  0  0  0  0  0  0  0
  139.3093   76.9680  222.9665 H   0  0  0  0  0  0  0  0  0  0  0  0
  139.4033   70.3546  221.9410 H   0  0  0  0  0  0  0  0  0  0  0  0
  140.5922   69.4602  222.9529 H   0  0  0  0  0  0  0  0  0  0  0  0
  137.9928   70.7734  223.8946 H   0  0  0  0  0  0  0  0  0  0  0  0
  138.3440   69.0088  223.7813 H   0  0  0  0  0  0  0  0  0  0  0  0
  137.8949   68.6241  226.1510 H   0  0  0  0  0  0  0  0  0  0  0  0
  138.8162   68.6875  228.4666 H   0  0  0  0  0  0  0  0  0  0  0  0
  140.7869   70.1264  228.9896 H   0  0  0  0  0  0  0  0  0  0  0  0
  141.8162   71.5348  227.2075 H   0  0  0  0  0  0  0  0  0  0  0  0
  140.8470   72.8160  224.8979 H   0  0  0  0  0  0  0  0  0  0  0  0
  142.1389   71.5608  224.5924 H   0  0  0  0  0  0  0  0  0  0  0  0
  144.3840   71.9037  219.8081 H   0  0  0  0  0  0  0  0  0  0  0  0
  143.2497   70.5573  219.3684 H   0  0  0  0  0  0  0  0  0  0  0  0
  145.3529   70.7832  217.9243 H   0  0  0  0  0  0  0  0  0  0  0  0
  143.7603   70.7387  217.0602 H   0  0  0  0  0  0  0  0  0  0  0  0
  1  2  1  0
  2  3  1  0
  3  4  1  0
  4  5  1  0
  5  6  1  0
  6  7  1  0
  7  8  2  0
  8  9  1  0
  9 10  1  0
 10 11  1  0
 11 12  1  0
 12 13  1  0
 13 14  2  0
 14 15  1  0
 15 16  2  0
 16 17  1  0
 17 18  2  0
 18 19  1  0
  9 20  2  0
 20 21  1  0
 21 22  1  0
 22 23  1  0
 23 24  1  0
 24 25  1  0
 25 26  2  0
 26 27  1  0
 27 28  2  0
 28 29  1  0
 29 30  2  0
 30 31  1  0
 21 32  2  0
  6 33  1  0
 33 34  1  0
 34  3  1  0
 32  7  1  0
 19 10  1  0
 31 22  1  0
 18 13  1  0
 30 25  1  0
  1 35  1  0
  1 36  1  0
  1 37  1  0
  2 38  1  0
  3 39  1  0
  4 40  1  0
  4 41  1  0
  5 42  1  0
  5 43  1  0
 11 44  1  0
 11 45  1  0
 12 46  1  0
 12 47  1  0
 14 48  1  0
 15 49  1  0
 16 50  1  0
 17 51  1  0
 19 52  1  0
 19 53  1  0
 23 54  1  0
 23 55  1  0
 24 56  1  0
 24 57  1  0
 26 58  1  0
 27 59  1  0
 28 60  1  0
 29 61  1  0
 31 62  1  0
 31 63  1  0
 33 64  1  0
 33 65  1  0
 34 66  1  0
 34 67  1  0
M  END
>  <UniqueID>  (33) 
58

>  <SMILES>  (33) 
CNC1CCN(c2nc(N3CCc4ccccc4C3)nc(N3CCc4ccccc4C3)n2)CC1

>  <Energy>  (33) 
80.66862480415755

>  <Genealogy>  (33) 
CNC1CCN(c2nc(N3CCc4ccccc4C3)nc(N3CCc4ccccc4C3)n2)CC1 (3D coordinates assigned)
CNC1CCN(c2nc(N3CCc4ccccc4C3)nc(N3CCc4ccccc4C3)n2)CC1 (nonaromatic ring conformer: 80.66862480415755 kcal/mol)

>  <smiles>  (33) 
CNC1CCN(c2nc(N3CCc4ccccc4C3)nc(N3CCc4ccccc4C3)n2)CC1

>  <score_type>  (33) 
oracle

>  <origin>  (33) 
autodockgpu

>  <m_score__min__energy>  (33) 
-8.9900000000000002

>  <m_primary>  (33) 
energy

>  <meeko>  (33) 
{"free_energy": -8.98, "intermolecular_energy": -10.17, "internal_energy": -0.96, "cluster_size": 18, "cluster_id": 1, "rank_in_cluster": 2}

>  <energy>  (33) 
-8.82

>  <cluster_rmsd>  (33) 
1.92

>  <rmsd>  (33) 
271.63

>  <cluster>  (33) 
1

$$$$
DSYBMJCSYFRFMG-UHFFFAOYNA-N
     RDKit          3D

 67 72  0  0  0  0  0  0  0  0999 V2000
  145.6830   73.1830  219.4550 C   0  0  0  0  0  0  0  0  0  0  0  0
  145.9400   72.2610  218.3440 N   0  0  0  0  0  0  0  0  0  0  0  0
  144.8020   72.2000  217.4040 C   0  0  0  0  0  0  0  0  0  0  0  0
  143.9700   73.5220  217.4080 C   0  0  0  0  0  0  0  0  0  0  0  0
  142.4970   73.3130  217.7740 C   0  0  0  0  0  0  0  0  0  0  0  0
  142.4030   72.4690  218.9760 N   0  0  0  0  0  0  0  0  0  0  0  0
  141.7090   72.9140  220.1590 C   0  0  0  0  0  0  0  0  0  0  0  0
  141.3130   74.2090  220.2710 N   0  0  0  0  0  0  0  0  0  0  0  0
  140.6200   74.6340  221.3590 C   0  0  0  0  0  0  0  0  0  0  0  0
  140.1830   76.0080  221.4570 N   0  0  0  0  0  0  0  0  0  0  0  0
  139.7700   76.7690  220.2750 C   0  0  0  0  0  0  0  0  0  0  0  0
  140.8270   77.8310  219.9770 C   0  0  0  0  0  0  0  0  0  0  0  0
  141.2130   78.6010  221.2180 C   0  0  0  0  0  0  0  0  0  0  0  0
  141.8770   79.8300  221.0790 C   0  0  0  0  0  0  0  0  0  0  0  0
  142.2910   80.5420  222.2070 C   0  0  0  0  0  0  0  0  0  0  0  0
  142.0550   80.0300  223.4850 C   0  0  0  0  0  0  0  0  0  0  0  0
  141.4110   78.8010  223.6390 C   0  0  0  0  0  0  0  0  0  0  0  0
  140.9990   78.0670  222.5150 C   0  0  0  0  0  0  0  0  0  0  0  0
  140.2720   76.7580  222.7180 C   0  0  0  0  0  0  0  0  0  0  0  0
  140.3240   73.7460  222.3430 N   0  0  0  0  0  0  0  0  0  0  0  0
  140.7180   72.4490  222.2540 C   0  0  0  0  0  0  0  0  0  0  0  0
  140.3830   71.5150  223.3020 N   0  0  0  0  0  0  0  0  0  0  0  0
  139.5620   70.3310  223.0140 C   0  0  0  0  0  0  0  0  0  0  0  0
  138.5520   70.1150  224.1350 C   0  0  0  0  0  0  0  0  0  0  0  0
  139.2520   70.0380  225.4610 C   0  0  0  0  0  0  0  0  0  0  0  0
  138.6870   69.2920  226.5090 C   0  0  0  0  0  0  0  0  0  0  0  0
  139.3140   69.2380  227.7560 C   0  0  0  0  0  0  0  0  0  0  0  0
  140.5060   69.9360  227.9700 C   0  0  0  0  0  0  0  0  0  0  0  0
  141.0640   70.7010  226.9410 C   0  0  0  0  0  0  0  0  0  0  0  0
  140.4430   70.7640  225.6830 C   0  0  0  0  0  0  0  0  0  0  0  0
  141.0400   71.6510  224.6140 C   0  0  0  0  0  0  0  0  0  0  0  0
  141.4080   72.0410  221.1570 N   0  0  0  0  0  0  0  0  0  0  0  0
  143.0970   71.1720  218.9940 C   0  0  0  0  0  0  0  0  0  0  0  0
  143.9460   70.9580  217.7320 C   0  0  0  0  0  0  0  0  0  0  0  0
  145.8297   72.6567  220.4097 H   0  0  0  0  0  0  0  0  0  0  0  0
  146.3784   74.0331  219.3943 H   0  0  0  0  0  0  0  0  0  0  0  0
  144.6481   73.5508  219.3943 H   0  0  0  0  0  0  0  0  0  0  0  0
  146.1350   71.3100  218.7350 H   0  0  0  0  0  0  0  0  0  0  0  0
  145.1841   72.0998  216.3774 H   0  0  0  0  0  0  0  0  0  0  0  0
  144.4162   74.2126  218.1388 H   0  0  0  0  0  0  0  0  0  0  0  0
  143.9963   73.9252  216.3849 H   0  0  0  0  0  0  0  0  0  0  0  0
  142.0272   74.2875  217.9731 H   0  0  0  0  0  0  0  0  0  0  0  0
  141.9791   72.8189  216.9387 H   0  0  0  0  0  0  0  0  0  0  0  0
  139.6745   76.0911  219.4140 H   0  0  0  0  0  0  0  0  0  0  0  0
  138.7992   77.2512  220.4622 H   0  0  0  0  0  0  0  0  0  0  0  0
  141.7225   77.3381  219.5707 H   0  0  0  0  0  0  0  0  0  0  0  0
  140.4036   78.5412  219.2515 H   0  0  0  0  0  0  0  0  0  0  0  0
  142.0725   80.2349  220.0751 H   0  0  0  0  0  0  0  0  0  0  0  0
  142.8039   81.5079  222.0887 H   0  0  0  0  0  0  0  0  0  0  0  0
  142.3771   80.5961  224.3715 H   0  0  0  0  0  0  0  0  0  0  0  0
  141.2249   78.4047  224.6481 H   0  0  0  0  0  0  0  0  0  0  0  0
  140.8168   76.1543  223.4587 H   0  0  0  0  0  0  0  0  0  0  0  0
  139.2531   76.9725  223.0727 H   0  0  0  0  0  0  0  0  0  0  0  0
  139.0268   70.4804  222.0646 H   0  0  0  0  0  0  0  0  0  0  0  0
  140.2137   69.4480  222.9385 H   0  0  0  0  0  0  0  0  0  0  0  0
  137.8405   70.9538  224.1487 H   0  0  0  0  0  0  0  0  0  0  0  0
  138.0179   69.1699  223.9575 H   0  0  0  0  0  0  0  0  0  0  0  0
  137.7453   68.7472  226.3465 H   0  0  0  0  0  0  0  0  0  0  0  0
  138.8697   68.6461  228.5698 H   0  0  0  0  0  0  0  0  0  0  0  0
  141.0055   69.8835  228.9486 H   0  0  0  0  0  0  0  0  0  0  0  0
  141.9962   71.2575  227.1182 H   0  0  0  0  0  0  0  0  0  0  0  0
  140.9515   72.6976  224.9407 H   0  0  0  0  0  0  0  0  0  0  0  0
  142.0875   71.3411  224.4847 H   0  0  0  0  0  0  0  0  0  0  0  0
  143.7541   71.1327  219.8753 H   0  0  0  0  0  0  0  0  0  0  0  0
  142.3356   70.3789  219.0307 H   0  0  0  0  0  0  0  0  0  0  0  0
  144.6124   70.0976  217.8920 H   0  0  0  0  0  0  0  0  0  0  0  0
  143.2656   70.7769  216.8869 H   0  0  0  0  0  0  0  0  0  0  0  0
  1  2  1  0
  2  3  1  0
  3  4  1  0
  4  5  1  0
  5  6  1  0
  6  7  1  0
  7  8  2  0
  8  9  1  0
  9 10  1  0
 10 11  1  0
 11 12  1  0
 12 13  1  0
 13 14  2  0
 14 15  1  0
 15 16  2  0
 16 17  1  0
 17 18  2  0
 18 19  1  0
  9 20  2  0
 20 21  1  0
 21 22  1  0
 22 23  1  0
 23 24  1  0
 24 25  1  0
 25 26  2  0
 26 27  1  0
 27 28  2  0
 28 29  1  0
 29 30  2  0
 30 31  1  0
 21 32  2  0
  6 33  1  0
 33 34  1  0
 34  3  1  0
 32  7  1  0
 19 10  1  0
 31 22  1  0
 18 13  1  0
 30 25  1  0
  1 35  1  0
  1 36  1  0
  1 37  1  0
  2 38  1  0
  3 39  1  0
  4 40  1  0
  4 41  1  0
  5 42  1  0
  5 43  1  0
 11 44  1  0
 11 45  1  0
 12 46  1  0
 12 47  1  0
 14 48  1  0
 15 49  1  0
 16 50  1  0
 17 51  1  0
 19 52  1  0
 19 53  1  0
 23 54  1  0
 23 55  1  0
 24 56  1  0
 24 57  1  0
 26 58  1  0
 27 59  1  0
 28 60  1  0
 29 61  1  0
 31 62  1  0
 31 63  1  0
 33 64  1  0
 33 65  1  0
 34 66  1  0
 34 67  1  0
M  END
>  <UniqueID>  (34) 
58

>  <SMILES>  (34) 
CNC1CCN(c2nc(N3CCc4ccccc4C3)nc(N3CCc4ccccc4C3)n2)CC1

>  <Energy>  (34) 
80.66862480415755

>  <Genealogy>  (34) 
CNC1CCN(c2nc(N3CCc4ccccc4C3)nc(N3CCc4ccccc4C3)n2)CC1 (3D coordinates assigned)
CNC1CCN(c2nc(N3CCc4ccccc4C3)nc(N3CCc4ccccc4C3)n2)CC1 (nonaromatic ring conformer: 80.66862480415755 kcal/mol)

>  <smiles>  (34) 
CNC1CCN(c2nc(N3CCc4ccccc4C3)nc(N3CCc4ccccc4C3)n2)CC1

>  <score_type>  (34) 
oracle

>  <origin>  (34) 
autodockgpu

>  <m_score__min__energy>  (34) 
-8.9900000000000002

>  <m_primary>  (34) 
energy

>  <meeko>  (34) 
{"free_energy": -8.9, "intermolecular_energy": -10.09, "internal_energy": -1.03, "cluster_size": 18, "cluster_id": 1, "rank_in_cluster": 3}

>  <energy>  (34) 
-8.81

>  <cluster_rmsd>  (34) 
1.93

>  <rmsd>  (34) 
271.6

>  <cluster>  (34) 
1

$$$$
DSYBMJCSYFRFMG-UHFFFAOYNA-N
     RDKit          3D

 67 72  0  0  0  0  0  0  0  0999 V2000
  146.1650   73.1320  220.7280 C   0  0  0  0  0  0  0  0  0  0  0  0
  146.2700   72.0770  219.7150 N   0  0  0  0  0  0  0  0  0  0  0  0
  145.4080   72.3480  218.5450 C   0  0  0  0  0  0  0  0  0  0  0  0
  144.7440   73.7600  218.6250 C   0  0  0  0  0  0  0  0  0  0  0  0
  143.2130   73.7160  218.5920 C   0  0  0  0  0  0  0  0  0  0  0  0
  142.7290   72.7030  219.5430 N   0  0  0  0  0  0  0  0  0  0  0  0
  141.8060   73.0380  220.6000 C   0  0  0  0  0  0  0  0  0  0  0  0
  141.1430   74.2240  220.5740 N   0  0  0  0  0  0  0  0  0  0  0  0
  140.2380   74.5370  221.5370 C   0  0  0  0  0  0  0  0  0  0  0  0
  139.5210   75.7910  221.4870 N   0  0  0  0  0  0  0  0  0  0  0  0
  139.0640   76.3640  220.2190 C   0  0  0  0  0  0  0  0  0  0  0  0
  139.9020   77.6040  219.9080 C   0  0  0  0  0  0  0  0  0  0  0  0
  140.0110   78.5200  221.1040 C   0  0  0  0  0  0  0  0  0  0  0  0
  140.4160   79.8500  220.9090 C   0  0  0  0  0  0  0  0  0  0  0  0
  140.5750   80.7090  221.9990 C   0  0  0  0  0  0  0  0  0  0  0  0
  140.3390   80.2460  223.2950 C   0  0  0  0  0  0  0  0  0  0  0  0
  139.9510   78.9210  223.5070 C   0  0  0  0  0  0  0  0  0  0  0  0
  139.7990   78.0430  222.4220 C   0  0  0  0  0  0  0  0  0  0  0  0
  139.3430   76.6250  222.6830 C   0  0  0  0  0  0  0  0  0  0  0  0
  140.0000   73.6470  222.5360 N   0  0  0  0  0  0  0  0  0  0  0  0
  140.6600   72.4610  222.5840 C   0  0  0  0  0  0  0  0  0  0  0  0
  140.3850   71.5200  223.6430 N   0  0  0  0  0  0  0  0  0  0  0  0
  139.6670   70.2680  223.3660 C   0  0  0  0  0  0  0  0  0  0  0  0
  138.6610   69.9910  224.4760 C   0  0  0  0  0  0  0  0  0  0  0  0
  139.3440   69.9930  225.8130 C   0  0  0  0  0  0  0  0  0  0  0  0
  138.8250   69.2210  226.8670 C   0  0  0  0  0  0  0  0  0  0  0  0
  139.4350   69.2400  228.1220 C   0  0  0  0  0  0  0  0  0  0  0  0
  140.5630   70.0350  228.3410 C   0  0  0  0  0  0  0  0  0  0  0  0
  141.0730   70.8260  227.3060 C   0  0  0  0  0  0  0  0  0  0  0  0
  140.4690   70.8170  226.0390 C   0  0  0  0  0  0  0  0  0  0  0  0
  141.0080   71.7320  224.9630 C   0  0  0  0  0  0  0  0  0  0  0  0
  141.5590   72.1640  221.6100 N   0  0  0  0  0  0  0  0  0  0  0  0
  143.2580   71.3320  219.4590 C   0  0  0  0  0  0  0  0  0  0  0  0
  144.3730   71.2110  218.4090 C   0  0  0  0  0  0  0  0  0  0  0  0
  146.2097   72.6829  221.7311 H   0  0  0  0  0  0  0  0  0  0  0  0
  146.9970   73.8412  220.6064 H   0  0  0  0  0  0  0  0  0  0  0  0
  145.2095   73.6633  220.6064 H   0  0  0  0  0  0  0  0  0  0  0  0
  146.0050   71.1640  220.1520 H   0  0  0  0  0  0  0  0  0  0  0  0
  146.0259   72.3675  217.6352 H   0  0  0  0  0  0  0  0  0  0  0  0
  145.0587   74.2405  219.5631 H   0  0  0  0  0  0  0  0  0  0  0  0
  145.0715   74.3232  217.7387 H   0  0  0  0  0  0  0  0  0  0  0  0
  142.8121   74.7016  218.8711 H   0  0  0  0  0  0  0  0  0  0  0  0
  142.8762   73.4560  217.5776 H   0  0  0  0  0  0  0  0  0  0  0  0
  139.1855   75.6243  219.4140 H   0  0  0  0  0  0  0  0  0  0  0  0
  138.0020   76.6402  220.2950 H   0  0  0  0  0  0  0  0  0  0  0  0
  140.9118   77.2859  219.6096 H   0  0  0  0  0  0  0  0  0  0  0  0
  139.4067   78.1575  219.0967 H   0  0  0  0  0  0  0  0  0  0  0  0
  140.6095   80.2182  219.8907 H   0  0  0  0  0  0  0  0  0  0  0  0
  140.8865   81.7513  221.8362 H   0  0  0  0  0  0  0  0  0  0  0  0
  140.4589   80.9263  224.1510 H   0  0  0  0  0  0  0  0  0  0  0  0
  139.7634   78.5633  224.5302 H   0  0  0  0  0  0  0  0  0  0  0  0
  139.9343   76.2023  223.5086 H   0  0  0  0  0  0  0  0  0  0  0  0
  138.2750   76.6410  222.9458 H   0  0  0  0  0  0  0  0  0  0  0  0
  139.1364   70.3564  222.4065 H   0  0  0  0  0  0  0  0  0  0  0  0
  140.3891   69.4396  223.3165 H   0  0  0  0  0  0  0  0  0  0  0  0
  137.8846   70.7701  224.4643 H   0  0  0  0  0  0  0  0  0  0  0  0
  138.2073   69.0031  224.3083 H   0  0  0  0  0  0  0  0  0  0  0  0
  137.9332   68.5986  226.7016 H   0  0  0  0  0  0  0  0  0  0  0  0
  139.0272   68.6281  228.9401 H   0  0  0  0  0  0  0  0  0  0  0  0
  141.0500   70.0389  229.3273 H   0  0  0  0  0  0  0  0  0  0  0  0
  141.9538   71.4597  227.4864 H   0  0  0  0  0  0  0  0  0  0  0  0
  140.8285   72.7731  225.2694 H   0  0  0  0  0  0  0  0  0  0  0  0
  142.0794   71.5074  224.8546 H   0  0  0  0  0  0  0  0  0  0  0  0
  143.6621   71.0460  220.4413 H   0  0  0  0  0  0  0  0  0  0  0  0
  142.4346   70.6668  219.1598 H   0  0  0  0  0  0  0  0  0  0  0  0
  144.8839   70.2457  218.5405 H   0  0  0  0  0  0  0  0  0  0  0  0
  143.9149   71.2806  217.4114 H   0  0  0  0  0  0  0  0  0  0  0  0
  1  2  1  0
  2  3  1  0
  3  4  1  0
  4  5  1  0
  5  6  1  0
  6  7  1  0
  7  8  2  0
  8  9  1  0
  9 10  1  0
 10 11  1  0
 11 12  1  0
 12 13  1  0
 13 14  2  0
 14 15  1  0
 15 16  2  0
 16 17  1  0
 17 18  2  0
 18 19  1  0
  9 20  2  0
 20 21  1  0
 21 22  1  0
 22 23  1  0
 23 24  1  0
 24 25  1  0
 25 26  2  0
 26 27  1  0
 27 28  2  0
 28 29  1  0
 29 30  2  0
 30 31  1  0
 21 32  2  0
  6 33  1  0
 33 34  1  0
 34  3  1  0
 32  7  1  0
 19 10  1  0
 31 22  1  0
 18 13  1  0
 30 25  1  0
  1 35  1  0
  1 36  1  0
  1 37  1  0
  2 38  1  0
  3 39  1  0
  4 40  1  0
  4 41  1  0
  5 42  1  0
  5 43  1  0
 11 44  1  0
 11 45  1  0
 12 46  1  0
 12 47  1  0
 14 48  1  0
 15 49  1  0
 16 50  1  0
 17 51  1  0
 19 52  1  0
 19 53  1  0
 23 54  1  0
 23 55  1  0
 24 56  1  0
 24 57  1  0
 26 58  1  0
 27 59  1  0
 28 60  1  0
 29 61  1  0
 31 62  1  0
 31 63  1  0
 33 64  1  0
 33 65  1  0
 34 66  1  0
 34 67  1  0
M  END
>  <UniqueID>  (35) 
58

>  <SMILES>  (35) 
CNC1CCN(c2nc(N3CCc4ccccc4C3)nc(N3CCc4ccccc4C3)n2)CC1

>  <Energy>  (35) 
80.66862480415755

>  <Genealogy>  (35) 
CNC1CCN(c2nc(N3CCc4ccccc4C3)nc(N3CCc4ccccc4C3)n2)CC1 (3D coordinates assigned)
CNC1CCN(c2nc(N3CCc4ccccc4C3)nc(N3CCc4ccccc4C3)n2)CC1 (nonaromatic ring conformer: 80.66862480415755 kcal/mol)

>  <smiles>  (35) 
CNC1CCN(c2nc(N3CCc4ccccc4C3)nc(N3CCc4ccccc4C3)n2)CC1

>  <score_type>  (35) 
oracle

>  <origin>  (35) 
autodockgpu

>  <m_score__min__energy>  (35) 
-8.9900000000000002

>  <m_primary>  (35) 
energy

>  <meeko>  (35) 
{"free_energy": -8.83, "intermolecular_energy": -10.03, "internal_energy": -1.03, "cluster_size": 18, "cluster_id": 1, "rank_in_cluster": 10}

>  <energy>  (35) 
-8.69

>  <cluster_rmsd>  (35) 
1.0

>  <rmsd>  (35) 
271.58

>  <cluster>  (35) 
1

$$$$
DSYBMJCSYFRFMG-UHFFFAOYNA-N
     RDKit          3D

 67 72  0  0  0  0  0  0  0  0999 V2000
  141.0980   67.8170  227.0270 C   0  0  0  0  0  0  0  0  0  0  0  0
  140.7580   68.4400  225.7440 N   0  0  0  0  0  0  0  0  0  0  0  0
  139.5520   69.2870  225.8450 C   0  0  0  0  0  0  0  0  0  0  0  0
  138.7640   69.3420  224.4970 C   0  0  0  0  0  0  0  0  0  0  0  0
  138.5990   70.7620  223.9460 C   0  0  0  0  0  0  0  0  0  0  0  0
  139.8950   71.4580  223.9830 N   0  0  0  0  0  0  0  0  0  0  0  0
  140.4830   72.0250  222.7940 C   0  0  0  0  0  0  0  0  0  0  0  0
  141.0050   71.2120  221.8380 N   0  0  0  0  0  0  0  0  0  0  0  0
  141.5240   71.7260  220.6930 C   0  0  0  0  0  0  0  0  0  0  0  0
  142.0560   70.8520  219.6730 N   0  0  0  0  0  0  0  0  0  0  0  0
  141.3130   69.6800  219.2030 C   0  0  0  0  0  0  0  0  0  0  0  0
  142.0160   68.4180  219.7030 C   0  0  0  0  0  0  0  0  0  0  0  0
  143.5030   68.4660  219.4450 C   0  0  0  0  0  0  0  0  0  0  0  0
  144.2430   67.2740  219.4950 C   0  0  0  0  0  0  0  0  0  0  0  0
  145.6280   67.2920  219.3110 C   0  0  0  0  0  0  0  0  0  0  0  0
  146.2890   68.5010  219.0850 C   0  0  0  0  0  0  0  0  0  0  0  0
  145.5690   69.6980  219.0500 C   0  0  0  0  0  0  0  0  0  0  0  0
  144.1790   69.6970  219.2450 C   0  0  0  0  0  0  0  0  0  0  0  0
  143.4250   71.0050  219.1630 C   0  0  0  0  0  0  0  0  0  0  0  0
  141.5160   73.0730  220.5100 N   0  0  0  0  0  0  0  0  0  0  0  0
  141.0060   73.9020  221.4570 C   0  0  0  0  0  0  0  0  0  0  0  0
  140.9910   75.3290  221.2400 N   0  0  0  0  0  0  0  0  0  0  0  0
  141.1740   75.8840  219.8920 C   0  0  0  0  0  0  0  0  0  0  0  0
  142.0850   77.1040  219.9530 C   0  0  0  0  0  0  0  0  0  0  0  0
  141.5510   78.1070  220.9340 C   0  0  0  0  0  0  0  0  0  0  0  0
  141.8240   79.4740  220.7580 C   0  0  0  0  0  0  0  0  0  0  0  0
  141.3570   80.4120  221.6810 C   0  0  0  0  0  0  0  0  0  0  0  0
  140.6220   79.9930  222.7930 C   0  0  0  0  0  0  0  0  0  0  0  0
  140.3650   78.6330  222.9910 C   0  0  0  0  0  0  0  0  0  0  0  0
  140.8290   77.6790  222.0700 C   0  0  0  0  0  0  0  0  0  0  0  0
  140.5880   76.2130  222.3490 C   0  0  0  0  0  0  0  0  0  0  0  0
  140.4890   73.3690  222.5950 N   0  0  0  0  0  0  0  0  0  0  0  0
  140.6420   71.5120  225.2500 C   0  0  0  0  0  0  0  0  0  0  0  0
  139.9610   70.6860  226.3520 C   0  0  0  0  0  0  0  0  0  0  0  0
  140.7483   68.4578  227.8499 H   0  0  0  0  0  0  0  0  0  0  0  0
  140.6120   66.8326  227.0968 H   0  0  0  0  0  0  0  0  0  0  0  0
  142.1888   67.6932  227.0968 H   0  0  0  0  0  0  0  0  0  0  0  0
  140.6100   67.6860  225.0330 H   0  0  0  0  0  0  0  0  0  0  0  0
  138.8560   68.8428  226.5718 H   0  0  0  0  0  0  0  0  0  0  0  0
  139.3048   68.7397  223.7522 H   0  0  0  0  0  0  0  0  0  0  0  0
  137.7550   68.9511  224.6946 H   0  0  0  0  0  0  0  0  0  0  0  0
  138.2392   70.7126  222.9077 H   0  0  0  0  0  0  0  0  0  0  0  0
  137.8711   71.3110  224.5614 H   0  0  0  0  0  0  0  0  0  0  0  0
  140.2860   69.7114  219.5958 H   0  0  0  0  0  0  0  0  0  0  0  0
  141.2765   69.6768  218.1036 H   0  0  0  0  0  0  0  0  0  0  0  0
  141.8452   68.3201  220.7852 H   0  0  0  0  0  0  0  0  0  0  0  0
  141.6017   67.5568  219.1584 H   0  0  0  0  0  0  0  0  0  0  0  0
  143.7289   66.3193  219.6803 H   0  0  0  0  0  0  0  0  0  0  0  0
  146.1986   66.3521  219.3443 H   0  0  0  0  0  0  0  0  0  0  0  0
  147.3786   68.5111  218.9342 H   0  0  0  0  0  0  0  0  0  0  0  0
  146.0948   70.6470  218.8685 H   0  0  0  0  0  0  0  0  0  0  0  0
  143.9507   71.7623  219.7631 H   0  0  0  0  0  0  0  0  0  0  0  0
  143.3754   71.3174  218.1094 H   0  0  0  0  0  0  0  0  0  0  0  0
  141.6284   75.1216  219.2422 H   0  0  0  0  0  0  0  0  0  0  0  0
  140.1957   76.1823  219.4872 H   0  0  0  0  0  0  0  0  0  0  0  0
  143.0912   76.7897  220.2674 H   0  0  0  0  0  0  0  0  0  0  0  0
  142.1281   77.5675  218.9564 H   0  0  0  0  0  0  0  0  0  0  0  0
  142.4090   79.8072  219.8881 H   0  0  0  0  0  0  0  0  0  0  0  0
  141.5679   81.4814  221.5326 H   0  0  0  0  0  0  0  0  0  0  0  0
  140.2451   80.7339  223.5134 H   0  0  0  0  0  0  0  0  0  0  0  0
  139.7955   78.3077  223.8741 H   0  0  0  0  0  0  0  0  0  0  0  0
  141.1602   75.9305  223.2450 H   0  0  0  0  0  0  0  0  0  0  0  0
  139.5045   76.0841  222.4880 H   0  0  0  0  0  0  0  0  0  0  0  0
  141.6546   71.1160  225.0830 H   0  0  0  0  0  0  0  0  0  0  0  0
  140.6760   72.5603  225.5814 H   0  0  0  0  0  0  0  0  0  0  0  0
  140.6593   70.5701  227.1940 H   0  0  0  0  0  0  0  0  0  0  0  0
  139.0504   71.2171  226.6660 H   0  0  0  0  0  0  0  0  0  0  0  0
  1  2  1  0
  2  3  1  0
  3  4  1  0
  4  5  1  0
  5  6  1  0
  6  7  1  0
  7  8  2  0
  8  9  1  0
  9 10  1  0
 10 11  1  0
 11 12  1  0
 12 13  1  0
 13 14  2  0
 14 15  1  0
 15 16  2  0
 16 17  1  0
 17 18  2  0
 18 19  1  0
  9 20  2  0
 20 21  1  0
 21 22  1  0
 22 23  1  0
 23 24  1  0
 24 25  1  0
 25 26  2  0
 26 27  1  0
 27 28  2  0
 28 29  1  0
 29 30  2  0
 30 31  1  0
 21 32  2  0
  6 33  1  0
 33 34  1  0
 34  3  1  0
 32  7  1  0
 19 10  1  0
 31 22  1  0
 18 13  1  0
 30 25  1  0
  1 35  1  0
  1 36  1  0
  1 37  1  0
  2 38  1  0
  3 39  1  0
  4 40  1  0
  4 41  1  0
  5 42  1  0
  5 43  1  0
 11 44  1  0
 11 45  1  0
 12 46  1  0
 12 47  1  0
 14 48  1  0
 15 49  1  0
 16 50  1  0
 17 51  1  0
 19 52  1  0
 19 53  1  0
 23 54  1  0
 23 55  1  0
 24 56  1  0
 24 57  1  0
 26 58  1  0
 27 59  1  0
 28 60  1  0
 29 61  1  0
 31 62  1  0
 31 63  1  0
 33 64  1  0
 33 65  1  0
 34 66  1  0
 34 67  1  0
M  END
>  <UniqueID>  (36) 
58

>  <SMILES>  (36) 
CNC1CCN(c2nc(N3CCc4ccccc4C3)nc(N3CCc4ccccc4C3)n2)CC1

>  <Energy>  (36) 
80.66862480415755

>  <Genealogy>  (36) 
CNC1CCN(c2nc(N3CCc4ccccc4C3)nc(N3CCc4ccccc4C3)n2)CC1 (3D coordinates assigned)
CNC1CCN(c2nc(N3CCc4ccccc4C3)nc(N3CCc4ccccc4C3)n2)CC1 (nonaromatic ring conformer: 80.66862480415755 kcal/mol)

>  <smiles>  (36) 
CNC1CCN(c2nc(N3CCc4ccccc4C3)nc(N3CCc4ccccc4C3)n2)CC1

>  <score_type>  (36) 
oracle

>  <origin>  (36) 
autodockgpu

>  <m_score__min__energy>  (36) 
-8.9900000000000002

>  <m_primary>  (36) 
energy

>  <meeko>  (36) 
{"free_energy": -8.66, "intermolecular_energy": -9.86, "internal_energy": -0.97, "cluster_size": 2, "cluster_id": 2, "rank_in_cluster": 2}

>  <energy>  (36) 
-8.68

>  <cluster_rmsd>  (36) 
1.01

>  <rmsd>  (36) 
271.6

>  <cluster>  (36) 
1

$$$$
DSYBMJCSYFRFMG-UHFFFAOYNA-N
     RDKit          3D

 67 72  0  0  0  0  0  0  0  0999 V2000
  145.9510   73.8130  220.8620 C   0  0  0  0  0  0  0  0  0  0  0  0
  146.3830   72.6000  220.1600 N   0  0  0  0  0  0  0  0  0  0  0  0
  145.5530   72.3270  218.9690 C   0  0  0  0  0  0  0  0  0  0  0  0
  144.7270   73.5800  218.5340 C   0  0  0  0  0  0  0  0  0  0  0  0
  143.2140   73.3340  218.5150 C   0  0  0  0  0  0  0  0  0  0  0  0
  142.8060   72.6740  219.7650 N   0  0  0  0  0  0  0  0  0  0  0  0
  141.8010   73.2440  220.6270 C   0  0  0  0  0  0  0  0  0  0  0  0
  141.5700   74.5830  220.6120 N   0  0  0  0  0  0  0  0  0  0  0  0
  140.5980   75.1320  221.3860 C   0  0  0  0  0  0  0  0  0  0  0  0
  140.3450   76.5540  221.3450 N   0  0  0  0  0  0  0  0  0  0  0  0
  140.4940   77.3250  220.1080 C   0  0  0  0  0  0  0  0  0  0  0  0
  141.7210   78.2270  220.2350 C   0  0  0  0  0  0  0  0  0  0  0  0
  141.7310   78.9780  221.5460 C   0  0  0  0  0  0  0  0  0  0  0  0
  142.5590   80.1040  221.6810 C   0  0  0  0  0  0  0  0  0  0  0  0
  142.6280   80.7900  222.8960 C   0  0  0  0  0  0  0  0  0  0  0  0
  141.8790   80.3540  223.9900 C   0  0  0  0  0  0  0  0  0  0  0  0
  141.0630   79.2260  223.8770 C   0  0  0  0  0  0  0  0  0  0  0  0
  140.9920   78.5190  222.6660 C   0  0  0  0  0  0  0  0  0  0  0  0
  140.0710   77.3240  222.5660 C   0  0  0  0  0  0  0  0  0  0  0  0
  139.8510   74.3230  222.1830 N   0  0  0  0  0  0  0  0  0  0  0  0
  140.0730   72.9830  222.2180 C   0  0  0  0  0  0  0  0  0  0  0  0
  139.2610   72.1350  223.0580 N   0  0  0  0  0  0  0  0  0  0  0  0
  139.8390   71.4750  224.2370 C   0  0  0  0  0  0  0  0  0  0  0  0
  139.3230   70.0440  224.3350 C   0  0  0  0  0  0  0  0  0  0  0  0
  137.8210   70.0290  224.3300 C   0  0  0  0  0  0  0  0  0  0  0  0
  137.1290   68.9910  224.9760 C   0  0  0  0  0  0  0  0  0  0  0  0
  135.7340   68.9510  224.9500 C   0  0  0  0  0  0  0  0  0  0  0  0
  135.0170   69.9410  224.2730 C   0  0  0  0  0  0  0  0  0  0  0  0
  135.6970   70.9650  223.6070 C   0  0  0  0  0  0  0  0  0  0  0  0
  137.1000   71.0170  223.6240 C   0  0  0  0  0  0  0  0  0  0  0  0
  137.8040   72.1020  222.8400 C   0  0  0  0  0  0  0  0  0  0  0  0
  141.0480   72.4520  221.4350 N   0  0  0  0  0  0  0  0  0  0  0  0
  143.4930   71.4400  220.1790 C   0  0  0  0  0  0  0  0  0  0  0  0
  144.6640   71.0960  219.2470 C   0  0  0  0  0  0  0  0  0  0  0  0
  146.0095   73.6486  221.9481 H   0  0  0  0  0  0  0  0  0  0  0  0
  146.6058   74.6514  220.5822 H   0  0  0  0  0  0  0  0  0  0  0  0
  144.9136   74.0488  220.5822 H   0  0  0  0  0  0  0  0  0  0  0  0
  146.3340   71.7920  220.8250 H   0  0  0  0  0  0  0  0  0  0  0  0
  146.2076   72.0987  218.1149 H   0  0  0  0  0  0  0  0  0  0  0  0
  144.9385   74.3987  219.2375 H   0  0  0  0  0  0  0  0  0  0  0  0
  145.0291   73.8276  217.5057 H   0  0  0  0  0  0  0  0  0  0  0  0
  142.6879   74.2953  218.4199 H   0  0  0  0  0  0  0  0  0  0  0  0
  142.9593   72.6890  217.6611 H   0  0  0  0  0  0  0  0  0  0  0  0
  140.6258   76.6389  219.2583 H   0  0  0  0  0  0  0  0  0  0  0  0
  139.5959   77.9371  219.9385 H   0  0  0  0  0  0  0  0  0  0  0  0
  142.6272   77.6065  220.1730 H   0  0  0  0  0  0  0  0  0  0  0  0
  141.6902   78.9637  219.4187 H   0  0  0  0  0  0  0  0  0  0  0  0
  143.1572   80.4482  220.8245 H   0  0  0  0  0  0  0  0  0  0  0  0
  143.2738   81.6754  222.9906 H   0  0  0  0  0  0  0  0  0  0  0  0
  141.9314   80.9000  224.9435 H   0  0  0  0  0  0  0  0  0  0  0  0
  140.4725   78.8895  224.7419 H   0  0  0  0  0  0  0  0  0  0  0  0
  140.2237   76.6768  223.4422 H   0  0  0  0  0  0  0  0  0  0  0  0
  139.0316   77.6823  222.5307 H   0  0  0  0  0  0  0  0  0  0  0  0
  140.9353   71.4622  224.1471 H   0  0  0  0  0  0  0  0  0  0  0  0
  139.5468   72.0283  225.1417 H   0  0  0  0  0  0  0  0  0  0  0  0
  139.6944   69.4649  223.4767 H   0  0  0  0  0  0  0  0  0  0  0  0
  139.6818   69.5982  225.2745 H   0  0  0  0  0  0  0  0  0  0  0  0
  137.6893   68.2059  225.5049 H   0  0  0  0  0  0  0  0  0  0  0  0
  135.1982   68.1389  225.4632 H   0  0  0  0  0  0  0  0  0  0  0  0
  133.9174   69.9147  224.2641 H   0  0  0  0  0  0  0  0  0  0  0  0
  135.1287   71.7357  223.0656 H   0  0  0  0  0  0  0  0  0  0  0  0
  137.6161   71.9352  221.7691 H   0  0  0  0  0  0  0  0  0  0  0  0
  137.4032   73.0649  223.1894 H   0  0  0  0  0  0  0  0  0  0  0  0
  143.8788   71.5734  221.2004 H   0  0  0  0  0  0  0  0  0  0  0  0
  142.7675   70.6144  220.1337 H   0  0  0  0  0  0  0  0  0  0  0  0
  145.2764   70.3131  219.7181 H   0  0  0  0  0  0  0  0  0  0  0  0
  144.2494   70.7491  218.2890 H   0  0  0  0  0  0  0  0  0  0  0  0
  1  2  1  0
  2  3  1  0
  3  4  1  0
  4  5  1  0
  5  6  1  0
  6  7  1  0
  7  8  2  0
  8  9  1  0
  9 10  1  0
 10 11  1  0
 11 12  1  0
 12 13  1  0
 13 14  2  0
 14 15  1  0
 15 16  2  0
 16 17  1  0
 17 18  2  0
 18 19  1  0
  9 20  2  0
 20 21  1  0
 21 22  1  0
 22 23  1  0
 23 24  1  0
 24 25  1  0
 25 26  2  0
 26 27  1  0
 27 28  2  0
 28 29  1  0
 29 30  2  0
 30 31  1  0
 21 32  2  0
  6 33  1  0
 33 34  1  0
 34  3  1  0
 32  7  1  0
 19 10  1  0
 31 22  1  0
 18 13  1  0
 30 25  1  0
  1 35  1  0
  1 36  1  0
  1 37  1  0
  2 38  1  0
  3 39  1  0
  4 40  1  0
  4 41  1  0
  5 42  1  0
  5 43  1  0
 11 44  1  0
 11 45  1  0
 12 46  1  0
 12 47  1  0
 14 48  1  0
 15 49  1  0
 16 50  1  0
 17 51  1  0
 19 52  1  0
 19 53  1  0
 23 54  1  0
 23 55  1  0
 24 56  1  0
 24 57  1  0
 26 58  1  0
 27 59  1  0
 28 60  1  0
 29 61  1  0
 31 62  1  0
 31 63  1  0
 33 64  1  0
 33 65  1  0
 34 66  1  0
 34 67  1  0
M  END
>  <UniqueID>  (37) 
58

>  <SMILES>  (37) 
CNC1CCN(c2nc(N3CCc4ccccc4C3)nc(N3CCc4ccccc4C3)n2)CC1

>  <Energy>  (37) 
80.66862480415755

>  <Genealogy>  (37) 
CNC1CCN(c2nc(N3CCc4ccccc4C3)nc(N3CCc4ccccc4C3)n2)CC1 (3D coordinates assigned)
CNC1CCN(c2nc(N3CCc4ccccc4C3)nc(N3CCc4ccccc4C3)n2)CC1 (nonaromatic ring conformer: 80.66862480415755 kcal/mol)

>  <smiles>  (37) 
CNC1CCN(c2nc(N3CCc4ccccc4C3)nc(N3CCc4ccccc4C3)n2)CC1

>  <score_type>  (37) 
oracle

>  <origin>  (37) 
autodockgpu

>  <m_score__min__energy>  (37) 
-8.9900000000000002

>  <m_primary>  (37) 
energy

>  <meeko>  (37) 
{"free_energy": -8.83, "intermolecular_energy": -10.02, "internal_energy": -1.06, "cluster_size": 18, "cluster_id": 1, "rank_in_cluster": 12}

>  <energy>  (37) 
-8.65

>  <cluster_rmsd>  (37) 
0.68

>  <rmsd>  (37) 
271.62

>  <cluster>  (37) 
1

$$$$
DSYBMJCSYFRFMG-UHFFFAOYNA-N
     RDKit          3D

 67 72  0  0  0  0  0  0  0  0999 V2000
  146.1650   73.3030  220.4940 C   0  0  0  0  0  0  0  0  0  0  0  0
  146.2860   72.1800  219.5580 N   0  0  0  0  0  0  0  0  0  0  0  0
  145.3630   72.3150  218.4120 C   0  0  0  0  0  0  0  0  0  0  0  0
  144.6230   73.6900  218.4190 C   0  0  0  0  0  0  0  0  0  0  0  0
  143.0960   73.5590  218.4580 C   0  0  0  0  0  0  0  0  0  0  0  0
  142.7110   72.5960  219.5010 N   0  0  0  0  0  0  0  0  0  0  0  0
  141.8140   72.9580  220.5710 C   0  0  0  0  0  0  0  0  0  0  0  0
  141.1790   74.1590  220.5500 N   0  0  0  0  0  0  0  0  0  0  0  0
  140.2990   74.4990  221.5260 C   0  0  0  0  0  0  0  0  0  0  0  0
  139.6110   75.7690  221.4830 N   0  0  0  0  0  0  0  0  0  0  0  0
  139.1480   76.3490  220.2200 C   0  0  0  0  0  0  0  0  0  0  0  0
  140.0110   77.5660  219.8890 C   0  0  0  0  0  0  0  0  0  0  0  0
  140.1620   78.4840  221.0790 C   0  0  0  0  0  0  0  0  0  0  0  0
  140.5970   79.8030  220.8710 C   0  0  0  0  0  0  0  0  0  0  0  0
  140.7940   80.6620  221.9550 C   0  0  0  0  0  0  0  0  0  0  0  0
  140.5690   80.2100  223.2570 C   0  0  0  0  0  0  0  0  0  0  0  0
  140.1520   78.8960  223.4810 C   0  0  0  0  0  0  0  0  0  0  0  0
  139.9610   78.0180  222.4030 C   0  0  0  0  0  0  0  0  0  0  0  0
  139.4740   76.6130  222.6780 C   0  0  0  0  0  0  0  0  0  0  0  0
  140.0550   73.6190  222.5330 N   0  0  0  0  0  0  0  0  0  0  0  0
  140.6860   72.4170  222.5750 C   0  0  0  0  0  0  0  0  0  0  0  0
  140.4050   71.4870  223.6430 N   0  0  0  0  0  0  0  0  0  0  0  0
  139.6550   70.2510  223.3820 C   0  0  0  0  0  0  0  0  0  0  0  0
  138.6580   70.0020  224.5090 C   0  0  0  0  0  0  0  0  0  0  0  0
  139.3610   69.9940  225.8360 C   0  0  0  0  0  0  0  0  0  0  0  0
  138.8400   69.2390  226.9000 C   0  0  0  0  0  0  0  0  0  0  0  0
  139.4700   69.2490  228.1460 C   0  0  0  0  0  0  0  0  0  0  0  0
  140.6180   70.0190  228.3440 C   0  0  0  0  0  0  0  0  0  0  0  0
  141.1310   70.7930  227.2990 C   0  0  0  0  0  0  0  0  0  0  0  0
  140.5080   70.7920  226.0400 C   0  0  0  0  0  0  0  0  0  0  0  0
  141.0520   71.6900  224.9520 C   0  0  0  0  0  0  0  0  0  0  0  0
  141.5620   72.0940  221.5880 N   0  0  0  0  0  0  0  0  0  0  0  0
  143.3150   71.2530  219.4920 C   0  0  0  0  0  0  0  0  0  0  0  0
  144.3910   71.1160  218.4050 C   0  0  0  0  0  0  0  0  0  0  0  0
  146.2056   72.9258  221.5265 H   0  0  0  0  0  0  0  0  0  0  0  0
  146.9923   74.0089  220.3287 H   0  0  0  0  0  0  0  0  0  0  0  0
  145.2063   73.8165  220.3287 H   0  0  0  0  0  0  0  0  0  0  0  0
  146.0900   71.2900  220.0740 H   0  0  0  0  0  0  0  0  0  0  0  0
  145.9410   72.3000  217.4762 H   0  0  0  0  0  0  0  0  0  0  0  0
  144.9472   74.2560  219.3047 H   0  0  0  0  0  0  0  0  0  0  0  0
  144.8813   74.2027  217.4807 H   0  0  0  0  0  0  0  0  0  0  0  0
  142.6498   74.5392  218.6818 H   0  0  0  0  0  0  0  0  0  0  0  0
  142.7342   73.2047  217.4815 H   0  0  0  0  0  0  0  0  0  0  0  0
  139.2374   75.6032  219.4164 H   0  0  0  0  0  0  0  0  0  0  0  0
  138.0949   76.6528  220.3130 H   0  0  0  0  0  0  0  0  0  0  0  0
  141.0076   77.2217  219.5756 H   0  0  0  0  0  0  0  0  0  0  0  0
  139.5166   78.1280  219.0829 H   0  0  0  0  0  0  0  0  0  0  0  0
  140.7838   80.1620  219.8482 H   0  0  0  0  0  0  0  0  0  0  0  0
  141.1269   81.6961  221.7826 H   0  0  0  0  0  0  0  0  0  0  0  0
  140.7205   80.8903  224.1080 H   0  0  0  0  0  0  0  0  0  0  0  0
  139.9722   78.5472  224.5086 H   0  0  0  0  0  0  0  0  0  0  0  0
  140.0682   76.1791  223.4958 H   0  0  0  0  0  0  0  0  0  0  0  0
  138.4111   76.6572  222.9580 H   0  0  0  0  0  0  0  0  0  0  0  0
  139.1128   70.3474  222.4298 H   0  0  0  0  0  0  0  0  0  0  0  0
  140.3570   69.4060  223.3258 H   0  0  0  0  0  0  0  0  0  0  0  0
  137.8998   70.7989  224.5051 H   0  0  0  0  0  0  0  0  0  0  0  0
  138.1788   69.0243  224.3526 H   0  0  0  0  0  0  0  0  0  0  0  0
  137.9314   68.6371  226.7508 H   0  0  0  0  0  0  0  0  0  0  0  0
  139.0614   68.6495  228.9728 H   0  0  0  0  0  0  0  0  0  0  0  0
  141.1191   70.0165  229.3232 H   0  0  0  0  0  0  0  0  0  0  0  0
  142.0287   71.4070  227.4638 H   0  0  0  0  0  0  0  0  0  0  0  0
  140.9011   72.7362  225.2563 H   0  0  0  0  0  0  0  0  0  0  0  0
  142.1162   71.4404  224.8288 H   0  0  0  0  0  0  0  0  0  0  0  0
  143.7746   71.0633  220.4732 H   0  0  0  0  0  0  0  0  0  0  0  0
  142.5201   70.5233  219.2785 H   0  0  0  0  0  0  0  0  0  0  0  0
  144.9620   70.1927  218.5825 H   0  0  0  0  0  0  0  0  0  0  0  0
  143.8892   71.0861  217.4266 H   0  0  0  0  0  0  0  0  0  0  0  0
  1  2  1  0
  2  3  1  0
  3  4  1  0
  4  5  1  0
  5  6  1  0
  6  7  1  0
  7  8  2  0
  8  9  1  0
  9 10  1  0
 10 11  1  0
 11 12  1  0
 12 13  1  0
 13 14  2  0
 14 15  1  0
 15 16  2  0
 16 17  1  0
 17 18  2  0
 18 19  1  0
  9 20  2  0
 20 21  1  0
 21 22  1  0
 22 23  1  0
 23 24  1  0
 24 25  1  0
 25 26  2  0
 26 27  1  0
 27 28  2  0
 28 29  1  0
 29 30  2  0
 30 31  1  0
 21 32  2  0
  6 33  1  0
 33 34  1  0
 34  3  1  0
 32  7  1  0
 19 10  1  0
 31 22  1  0
 18 13  1  0
 30 25  1  0
  1 35  1  0
  1 36  1  0
  1 37  1  0
  2 38  1  0
  3 39  1  0
  4 40  1  0
  4 41  1  0
  5 42  1  0
  5 43  1  0
 11 44  1  0
 11 45  1  0
 12 46  1  0
 12 47  1  0
 14 48  1  0
 15 49  1  0
 16 50  1  0
 17 51  1  0
 19 52  1  0
 19 53  1  0
 23 54  1  0
 23 55  1  0
 24 56  1  0
 24 57  1  0
 26 58  1  0
 27 59  1  0
 28 60  1  0
 29 61  1  0
 31 62  1  0
 31 63  1  0
 33 64  1  0
 33 65  1  0
 34 66  1  0
 34 67  1  0
M  END
>  <UniqueID>  (38) 
58

>  <SMILES>  (38) 
CNC1CCN(c2nc(N3CCc4ccccc4C3)nc(N3CCc4ccccc4C3)n2)CC1

>  <Energy>  (38) 
80.66862480415755

>  <Genealogy>  (38) 
CNC1CCN(c2nc(N3CCc4ccccc4C3)nc(N3CCc4ccccc4C3)n2)CC1 (3D coordinates assigned)
CNC1CCN(c2nc(N3CCc4ccccc4C3)nc(N3CCc4ccccc4C3)n2)CC1 (nonaromatic ring conformer: 80.66862480415755 kcal/mol)

>  <smiles>  (38) 
CNC1CCN(c2nc(N3CCc4ccccc4C3)nc(N3CCc4ccccc4C3)n2)CC1

>  <score_type>  (38) 
oracle

>  <origin>  (38) 
autodockgpu

>  <m_score__min__energy>  (38) 
-8.9900000000000002

>  <m_primary>  (38) 
energy

>  <meeko>  (38) 
{"free_energy": -8.86, "intermolecular_energy": -10.06, "internal_energy": -1.03, "cluster_size": 18, "cluster_id": 1, "rank_in_cluster": 8}

>  <energy>  (38) 
-8.63

>  <cluster_rmsd>  (38) 
0.93

>  <rmsd>  (38) 
271.57

>  <cluster>  (38) 
1

$$$$
DSYBMJCSYFRFMG-UHFFFAOYNA-N
     RDKit          3D

 67 72  0  0  0  0  0  0  0  0999 V2000
  146.1070   73.4470  220.4410 C   0  0  0  0  0  0  0  0  0  0  0  0
  146.3150   72.3260  219.5170 N   0  0  0  0  0  0  0  0  0  0  0  0
  145.3670   72.3620  218.3850 C   0  0  0  0  0  0  0  0  0  0  0  0
  144.5600   73.6990  218.3410 C   0  0  0  0  0  0  0  0  0  0  0  0
  143.0430   73.4970  218.4170 C   0  0  0  0  0  0  0  0  0  0  0  0
  142.7240   72.5680  219.5120 N   0  0  0  0  0  0  0  0  0  0  0  0
  141.8290   72.9390  220.5820 C   0  0  0  0  0  0  0  0  0  0  0  0
  141.2040   74.1450  220.5590 N   0  0  0  0  0  0  0  0  0  0  0  0
  140.3260   74.4930  221.5350 C   0  0  0  0  0  0  0  0  0  0  0  0
  139.6480   75.7680  221.4890 N   0  0  0  0  0  0  0  0  0  0  0  0
  139.1810   76.3450  220.2260 C   0  0  0  0  0  0  0  0  0  0  0  0
  140.0520   77.5540  219.8850 C   0  0  0  0  0  0  0  0  0  0  0  0
  140.2170   78.4770  221.0690 C   0  0  0  0  0  0  0  0  0  0  0  0
  140.6610   79.7910  220.8530 C   0  0  0  0  0  0  0  0  0  0  0  0
  140.8710   80.6540  221.9320 C   0  0  0  0  0  0  0  0  0  0  0  0
  140.6500   80.2100  223.2370 C   0  0  0  0  0  0  0  0  0  0  0  0
  140.2240   78.9000  223.4700 C   0  0  0  0  0  0  0  0  0  0  0  0
  140.0200   78.0180  222.3970 C   0  0  0  0  0  0  0  0  0  0  0  0
  139.5240   76.6180  222.6810 C   0  0  0  0  0  0  0  0  0  0  0  0
  140.0750   73.6160  222.5430 N   0  0  0  0  0  0  0  0  0  0  0  0
  140.6970   72.4090  222.5870 C   0  0  0  0  0  0  0  0  0  0  0  0
  140.4090   71.4830  223.6560 N   0  0  0  0  0  0  0  0  0  0  0  0
  139.6320   70.2630  223.4010 C   0  0  0  0  0  0  0  0  0  0  0  0
  138.6430   70.0310  224.5370 C   0  0  0  0  0  0  0  0  0  0  0  0
  139.3600   70.0070  225.8570 C   0  0  0  0  0  0  0  0  0  0  0  0
  138.8350   69.2600  226.9260 C   0  0  0  0  0  0  0  0  0  0  0  0
  139.4770   69.2560  228.1650 C   0  0  0  0  0  0  0  0  0  0  0  0
  140.6430   70.0030  228.3520 C   0  0  0  0  0  0  0  0  0  0  0  0
  141.1600   70.7680  227.3030 C   0  0  0  0  0  0  0  0  0  0  0  0
  140.5240   70.7820  226.0510 C   0  0  0  0  0  0  0  0  0  0  0  0
  141.0740   71.6710  224.9580 C   0  0  0  0  0  0  0  0  0  0  0  0
  141.5710   72.0780  221.6000 N   0  0  0  0  0  0  0  0  0  0  0  0
  143.3920   71.2570  219.5550 C   0  0  0  0  0  0  0  0  0  0  0  0
  144.4540   71.1190  218.4550 C   0  0  0  0  0  0  0  0  0  0  0  0
  146.1742   73.0851  221.4776 H   0  0  0  0  0  0  0  0  0  0  0  0
  146.8785   74.2119  220.2690 H   0  0  0  0  0  0  0  0  0  0  0  0
  145.1124   73.8842  220.2690 H   0  0  0  0  0  0  0  0  0  0  0  0
  146.2080   71.4300  220.0480 H   0  0  0  0  0  0  0  0  0  0  0  0
  145.9291   72.3303  217.4400 H   0  0  0  0  0  0  0  0  0  0  0  0
  144.8718   74.3226  219.1918 H   0  0  0  0  0  0  0  0  0  0  0  0
  144.7759   74.1769  217.3740 H   0  0  0  0  0  0  0  0  0  0  0  0
  142.5536   74.4644  218.6032 H   0  0  0  0  0  0  0  0  0  0  0  0
  142.6816   73.0790  217.4659 H   0  0  0  0  0  0  0  0  0  0  0  0
  139.2599   75.5949  219.4253 H   0  0  0  0  0  0  0  0  0  0  0  0
  138.1305   76.6566  220.3232 H   0  0  0  0  0  0  0  0  0  0  0  0
  141.0442   77.2002  219.5681 H   0  0  0  0  0  0  0  0  0  0  0  0
  139.5572   78.1160  219.0792 H   0  0  0  0  0  0  0  0  0  0  0  0
  140.8449   80.1438  219.8275 H   0  0  0  0  0  0  0  0  0  0  0  0
  141.2110   81.6847  221.7528 H   0  0  0  0  0  0  0  0  0  0  0  0
  140.8116   80.8932  224.0838 H   0  0  0  0  0  0  0  0  0  0  0  0
  140.0474   78.5576  224.5003 H   0  0  0  0  0  0  0  0  0  0  0  0
  140.1195   76.1832  223.4973 H   0  0  0  0  0  0  0  0  0  0  0  0
  138.4631   76.6713  222.9669 H   0  0  0  0  0  0  0  0  0  0  0  0
  139.0816   70.3722  222.4549 H   0  0  0  0  0  0  0  0  0  0  0  0
  140.3167   69.4045  223.3360 H   0  0  0  0  0  0  0  0  0  0  0  0
  137.9001   70.8422  224.5425 H   0  0  0  0  0  0  0  0  0  0  0  0
  138.1435   69.0630  224.3839 H   0  0  0  0  0  0  0  0  0  0  0  0
  137.9137   68.6758  226.7851 H   0  0  0  0  0  0  0  0  0  0  0  0
  139.0647   68.6641  228.9954 H   0  0  0  0  0  0  0  0  0  0  0  0
  141.1544   69.9889  229.3258 H   0  0  0  0  0  0  0  0  0  0  0  0
  142.0716   71.3634  227.4591 H   0  0  0  0  0  0  0  0  0  0  0  0
  140.9472   72.7195  225.2654 H   0  0  0  0  0  0  0  0  0  0  0  0
  142.1316   71.4005  224.8228 H   0  0  0  0  0  0  0  0  0  0  0  0
  143.8773   71.1372  220.5348 H   0  0  0  0  0  0  0  0  0  0  0  0
  142.6299   70.4807  219.3922 H   0  0  0  0  0  0  0  0  0  0  0  0
  145.0722   70.2338  218.6651 H   0  0  0  0  0  0  0  0  0  0  0  0
  143.9370   71.0179  217.4894 H   0  0  0  0  0  0  0  0  0  0  0  0
  1  2  1  0
  2  3  1  0
  3  4  1  0
  4  5  1  0
  5  6  1  0
  6  7  1  0
  7  8  2  0
  8  9  1  0
  9 10  1  0
 10 11  1  0
 11 12  1  0
 12 13  1  0
 13 14  2  0
 14 15  1  0
 15 16  2  0
 16 17  1  0
 17 18  2  0
 18 19  1  0
  9 20  2  0
 20 21  1  0
 21 22  1  0
 22 23  1  0
 23 24  1  0
 24 25  1  0
 25 26  2  0
 26 27  1  0
 27 28  2  0
 28 29  1  0
 29 30  2  0
 30 31  1  0
 21 32  2  0
  6 33  1  0
 33 34  1  0
 34  3  1  0
 32  7  1  0
 19 10  1  0
 31 22  1  0
 18 13  1  0
 30 25  1  0
  1 35  1  0
  1 36  1  0
  1 37  1  0
  2 38  1  0
  3 39  1  0
  4 40  1  0
  4 41  1  0
  5 42  1  0
  5 43  1  0
 11 44  1  0
 11 45  1  0
 12 46  1  0
 12 47  1  0
 14 48  1  0
 15 49  1  0
 16 50  1  0
 17 51  1  0
 19 52  1  0
 19 53  1  0
 23 54  1  0
 23 55  1  0
 24 56  1  0
 24 57  1  0
 26 58  1  0
 27 59  1  0
 28 60  1  0
 29 61  1  0
 31 62  1  0
 31 63  1  0
 33 64  1  0
 33 65  1  0
 34 66  1  0
 34 67  1  0
M  END
>  <UniqueID>  (39) 
58

>  <SMILES>  (39) 
CNC1CCN(c2nc(N3CCc4ccccc4C3)nc(N3CCc4ccccc4C3)n2)CC1

>  <Energy>  (39) 
80.66862480415755

>  <Genealogy>  (39) 
CNC1CCN(c2nc(N3CCc4ccccc4C3)nc(N3CCc4ccccc4C3)n2)CC1 (3D coordinates assigned)
CNC1CCN(c2nc(N3CCc4ccccc4C3)nc(N3CCc4ccccc4C3)n2)CC1 (nonaromatic ring conformer: 80.66862480415755 kcal/mol)

>  <smiles>  (39) 
CNC1CCN(c2nc(N3CCc4ccccc4C3)nc(N3CCc4ccccc4C3)n2)CC1

>  <score_type>  (39) 
oracle

>  <origin>  (39) 
autodockgpu

>  <m_score__min__energy>  (39) 
-8.9900000000000002

>  <m_primary>  (39) 
energy

>  <meeko>  (39) 
{"free_energy": -8.88, "intermolecular_energy": -10.07, "internal_energy": -1.04, "cluster_size": 18, "cluster_id": 1, "rank_in_cluster": 4}

>  <energy>  (39) 
-8.7

>  <cluster_rmsd>  (39) 
0.0

>  <rmsd>  (39) 
271.23

>  <cluster>  (39) 
2

$$$$
DSYBMJCSYFRFMG-UHFFFAOYNA-N
     RDKit          3D

 67 72  0  0  0  0  0  0  0  0999 V2000
  145.8940   73.8280  220.8260 C   0  0  0  0  0  0  0  0  0  0  0  0
  146.3770   72.6160  220.1560 N   0  0  0  0  0  0  0  0  0  0  0  0
  145.5390   72.2580  218.9930 C   0  0  0  0  0  0  0  0  0  0  0  0
  144.6740   73.4640  218.5040 C   0  0  0  0  0  0  0  0  0  0  0  0
  143.1680   73.1790  218.5190 C   0  0  0  0  0  0  0  0  0  0  0  0
  142.7940   72.5760  219.8090 N   0  0  0  0  0  0  0  0  0  0  0  0
  141.7850   73.1660  220.6540 C   0  0  0  0  0  0  0  0  0  0  0  0
  141.5680   74.5070  220.6210 N   0  0  0  0  0  0  0  0  0  0  0  0
  140.5930   75.0740  221.3780 C   0  0  0  0  0  0  0  0  0  0  0  0
  140.3540   76.4980  221.3170 N   0  0  0  0  0  0  0  0  0  0  0  0
  140.5820   77.2640  220.0900 C   0  0  0  0  0  0  0  0  0  0  0  0
  141.8070   78.1570  220.2850 C   0  0  0  0  0  0  0  0  0  0  0  0
  141.7450   78.9120  221.5920 C   0  0  0  0  0  0  0  0  0  0  0  0
  142.5730   80.0310  221.7720 C   0  0  0  0  0  0  0  0  0  0  0  0
  142.5760   80.7210  222.9870 C   0  0  0  0  0  0  0  0  0  0  0  0
  141.7600   80.2950  224.0370 C   0  0  0  0  0  0  0  0  0  0  0  0
  140.9440   79.1730  223.8790 C   0  0  0  0  0  0  0  0  0  0  0  0
  140.9380   78.4620  222.6680 C   0  0  0  0  0  0  0  0  0  0  0  0
  140.0150   77.2740  222.5180 C   0  0  0  0  0  0  0  0  0  0  0  0
  139.8300   74.2810  222.1760 N   0  0  0  0  0  0  0  0  0  0  0  0
  140.0380   72.9400  222.2290 C   0  0  0  0  0  0  0  0  0  0  0  0
  139.2100   72.1100  223.0710 N   0  0  0  0  0  0  0  0  0  0  0  0
  139.7710   71.4520  224.2580 C   0  0  0  0  0  0  0  0  0  0  0  0
  139.2350   70.0290  224.3640 C   0  0  0  0  0  0  0  0  0  0  0  0
  137.7330   70.0340  224.3490 C   0  0  0  0  0  0  0  0  0  0  0  0
  137.0230   69.0100  224.9980 C   0  0  0  0  0  0  0  0  0  0  0  0
  135.6270   68.9890  224.9630 C   0  0  0  0  0  0  0  0  0  0  0  0
  134.9290   69.9830  224.2740 C   0  0  0  0  0  0  0  0  0  0  0  0
  135.6270   70.9930  223.6040 C   0  0  0  0  0  0  0  0  0  0  0  0
  137.0300   71.0260  223.6300 C   0  0  0  0  0  0  0  0  0  0  0  0
  137.7540   72.0950  222.8420 C   0  0  0  0  0  0  0  0  0  0  0  0
  141.0160   72.3910  221.4620 N   0  0  0  0  0  0  0  0  0  0  0  0
  143.5200   71.3850  220.2790 C   0  0  0  0  0  0  0  0  0  0  0  0
  144.6870   71.0210  219.3490 C   0  0  0  0  0  0  0  0  0  0  0  0
  145.9486   73.6909  221.9161 H   0  0  0  0  0  0  0  0  0  0  0  0
  146.5199   74.6835  220.5322 H   0  0  0  0  0  0  0  0  0  0  0  0
  144.8512   74.0186  220.5322 H   0  0  0  0  0  0  0  0  0  0  0  0
  146.3850   71.8300  220.8480 H   0  0  0  0  0  0  0  0  0  0  0  0
  146.1883   72.0014  218.1429 H   0  0  0  0  0  0  0  0  0  0  0  0
  144.8726   74.3242  219.1602 H   0  0  0  0  0  0  0  0  0  0  0  0
  144.9562   73.6636  217.4597 H   0  0  0  0  0  0  0  0  0  0  0  0
  142.6156   74.1201  218.3806 H   0  0  0  0  0  0  0  0  0  0  0  0
  142.9189   72.4835  217.7039 H   0  0  0  0  0  0  0  0  0  0  0  0
  140.7574   76.5743  219.2512 H   0  0  0  0  0  0  0  0  0  0  0  0
  139.7005   77.8834  219.8678 H   0  0  0  0  0  0  0  0  0  0  0  0
  142.7104   77.5295  220.2782 H   0  0  0  0  0  0  0  0  0  0  0  0
  141.8308   78.8906  219.4657 H   0  0  0  0  0  0  0  0  0  0  0  0
  143.2238   80.3669  220.9512 H   0  0  0  0  0  0  0  0  0  0  0  0
  143.2224   81.6015  223.1166 H   0  0  0  0  0  0  0  0  0  0  0  0
  141.7600   80.8442  224.9901 H   0  0  0  0  0  0  0  0  0  0  0  0
  140.3014   78.8437  224.7089 H   0  0  0  0  0  0  0  0  0  0  0  0
  140.1112   76.6285  223.4035 H   0  0  0  0  0  0  0  0  0  0  0  0
  138.9822   77.6400  222.4213 H   0  0  0  0  0  0  0  0  0  0  0  0
  140.8675   71.4236  224.1753 H   0  0  0  0  0  0  0  0  0  0  0  0
  139.4805   72.0164  225.1564 H   0  0  0  0  0  0  0  0  0  0  0  0
  139.6042   69.4380  223.5128 H   0  0  0  0  0  0  0  0  0  0  0  0
  139.5814   69.5862  225.3095 H   0  0  0  0  0  0  0  0  0  0  0  0
  137.5691   68.2212  225.5361 H   0  0  0  0  0  0  0  0  0  0  0  0
  135.0766   68.1884  225.4788 H   0  0  0  0  0  0  0  0  0  0  0  0
  133.8292   69.9717  224.2582 H   0  0  0  0  0  0  0  0  0  0  0  0
  135.0726   71.7669  223.0529 H   0  0  0  0  0  0  0  0  0  0  0  0
  137.5718   71.9216  221.7711 H   0  0  0  0  0  0  0  0  0  0  0  0
  137.3634   73.0662  223.1799 H   0  0  0  0  0  0  0  0  0  0  0  0
  143.9164   71.5844  221.2855 H   0  0  0  0  0  0  0  0  0  0  0  0
  142.8165   70.5394  220.2900 H   0  0  0  0  0  0  0  0  0  0  0  0
  145.3262   70.2803  219.8518 H   0  0  0  0  0  0  0  0  0  0  0  0
  144.2690   70.6122  218.4173 H   0  0  0  0  0  0  0  0  0  0  0  0
  1  2  1  0
  2  3  1  0
  3  4  1  0
  4  5  1  0
  5  6  1  0
  6  7  1  0
  7  8  2  0
  8  9  1  0
  9 10  1  0
 10 11  1  0
 11 12  1  0
 12 13  1  0
 13 14  2  0
 14 15  1  0
 15 16  2  0
 16 17  1  0
 17 18  2  0
 18 19  1  0
  9 20  2  0
 20 21  1  0
 21 22  1  0
 22 23  1  0
 23 24  1  0
 24 25  1  0
 25 26  2  0
 26 27  1  0
 27 28  2  0
 28 29  1  0
 29 30  2  0
 30 31  1  0
 21 32  2  0
  6 33  1  0
 33 34  1  0
 34  3  1  0
 32  7  1  0
 19 10  1  0
 31 22  1  0
 18 13  1  0
 30 25  1  0
  1 35  1  0
  1 36  1  0
  1 37  1  0
  2 38  1  0
  3 39  1  0
  4 40  1  0
  4 41  1  0
  5 42  1  0
  5 43  1  0
 11 44  1  0
 11 45  1  0
 12 46  1  0
 12 47  1  0
 14 48  1  0
 15 49  1  0
 16 50  1  0
 17 51  1  0
 19 52  1  0
 19 53  1  0
 23 54  1  0
 23 55  1  0
 24 56  1  0
 24 57  1  0
 26 58  1  0
 27 59  1  0
 28 60  1  0
 29 61  1  0
 31 62  1  0
 31 63  1  0
 33 64  1  0
 33 65  1  0
 34 66  1  0
 34 67  1  0
M  END
>  <UniqueID>  (40) 
58

>  <SMILES>  (40) 
CNC1CCN(c2nc(N3CCc4ccccc4C3)nc(N3CCc4ccccc4C3)n2)CC1

>  <Energy>  (40) 
80.66862480415755

>  <Genealogy>  (40) 
CNC1CCN(c2nc(N3CCc4ccccc4C3)nc(N3CCc4ccccc4C3)n2)CC1 (3D coordinates assigned)
CNC1CCN(c2nc(N3CCc4ccccc4C3)nc(N3CCc4ccccc4C3)n2)CC1 (nonaromatic ring conformer: 80.66862480415755 kcal/mol)

>  <smiles>  (40) 
CNC1CCN(c2nc(N3CCc4ccccc4C3)nc(N3CCc4ccccc4C3)n2)CC1

>  <score_type>  (40) 
oracle

>  <origin>  (40) 
autodockgpu

>  <m_score__min__energy>  (40) 
-8.9900000000000002

>  <m_primary>  (40) 
energy

>  <meeko>  (40) 
{"free_energy": -8.81, "intermolecular_energy": -10.01, "internal_energy": -1.06, "cluster_size": 18, "cluster_id": 1, "rank_in_cluster": 14}

>  <energy>  (40) 
-8.66

>  <cluster_rmsd>  (40) 
0.55

>  <rmsd>  (40) 
271.46

>  <cluster>  (40) 
2

$$$$
DSYBMJCSYFRFMG-UHFFFAOYNA-N
     RDKit          3D

 67 72  0  0  0  0  0  0  0  0999 V2000
  140.2690   67.3800  226.0920 C   0  0  0  0  0  0  0  0  0  0  0  0
  139.5730   67.9650  224.9420 N   0  0  0  0  0  0  0  0  0  0  0  0
  138.7190   69.1050  225.3370 C   0  0  0  0  0  0  0  0  0  0  0  0
  137.9010   69.6650  224.1300 C   0  0  0  0  0  0  0  0  0  0  0  0
  138.1710   71.1470  223.8470 C   0  0  0  0  0  0  0  0  0  0  0  0
  139.6230   71.3880  223.8310 N   0  0  0  0  0  0  0  0  0  0  0  0
  140.2800   71.9700  222.6860 C   0  0  0  0  0  0  0  0  0  0  0  0
  140.8370   71.1690  221.7400 N   0  0  0  0  0  0  0  0  0  0  0  0
  141.4220   71.6990  220.6350 C   0  0  0  0  0  0  0  0  0  0  0  0
  141.9910   70.8370  219.6240 N   0  0  0  0  0  0  0  0  0  0  0  0
  141.2840   69.6480  219.1410 C   0  0  0  0  0  0  0  0  0  0  0  0
  142.0070   68.4030  219.6530 C   0  0  0  0  0  0  0  0  0  0  0  0
  143.4970   68.4860  219.4210 C   0  0  0  0  0  0  0  0  0  0  0  0
  144.2640   67.3120  219.4830 C   0  0  0  0  0  0  0  0  0  0  0  0
  145.6510   67.3620  219.3220 C   0  0  0  0  0  0  0  0  0  0  0  0
  146.2870   68.5860  219.1070 C   0  0  0  0  0  0  0  0  0  0  0  0
  145.5400   69.7660  219.0600 C   0  0  0  0  0  0  0  0  0  0  0  0
  144.1470   69.7320  219.2310 C   0  0  0  0  0  0  0  0  0  0  0  0
  143.3650   71.0230  219.1370 C   0  0  0  0  0  0  0  0  0  0  0  0
  141.4440   73.0480  220.4810 N   0  0  0  0  0  0  0  0  0  0  0  0
  140.9000   73.8660  221.4190 C   0  0  0  0  0  0  0  0  0  0  0  0
  140.9190   75.2970  221.2340 N   0  0  0  0  0  0  0  0  0  0  0  0
  141.1840   75.8780  219.9100 C   0  0  0  0  0  0  0  0  0  0  0  0
  142.1090   77.0810  220.0470 C   0  0  0  0  0  0  0  0  0  0  0  0
  141.5380   78.0720  221.0200 C   0  0  0  0  0  0  0  0  0  0  0  0
  141.8410   79.4380  220.8890 C   0  0  0  0  0  0  0  0  0  0  0  0
  141.3390   80.3630  221.8060 C   0  0  0  0  0  0  0  0  0  0  0  0
  140.5380   79.9330  222.8670 C   0  0  0  0  0  0  0  0  0  0  0  0
  140.2490   78.5730  223.0200 C   0  0  0  0  0  0  0  0  0  0  0  0
  140.7480   77.6320  222.1060 C   0  0  0  0  0  0  0  0  0  0  0  0
  140.4700   76.1640  222.3380 C   0  0  0  0  0  0  0  0  0  0  0  0
  140.3170   73.3180  222.5170 N   0  0  0  0  0  0  0  0  0  0  0  0
  140.4320   70.9570  224.9820 C   0  0  0  0  0  0  0  0  0  0  0  0
  139.5970   70.1810  226.0110 C   0  0  0  0  0  0  0  0  0  0  0  0
  139.8203   67.7571  227.0228 H   0  0  0  0  0  0  0  0  0  0  0  0
  140.1766   66.2844  226.0580 H   0  0  0  0  0  0  0  0  0  0  0  0
  141.3324   67.6595  226.0580 H   0  0  0  0  0  0  0  0  0  0  0  0
  138.9930   67.2220  224.4870 H   0  0  0  0  0  0  0  0  0  0  0  0
  137.9683   68.7623  226.0643 H   0  0  0  0  0  0  0  0  0  0  0  0
  138.1626   69.0853  223.2325 H   0  0  0  0  0  0  0  0  0  0  0  0
  136.8359   69.5726  224.3887 H   0  0  0  0  0  0  0  0  0  0  0  0
  137.7439   71.4173  222.8700 H   0  0  0  0  0  0  0  0  0  0  0  0
  137.7066   71.7605  224.6332 H   0  0  0  0  0  0  0  0  0  0  0  0
  140.2498   69.6552  219.5157 H   0  0  0  0  0  0  0  0  0  0  0  0
  141.2670   69.6444  218.0411 H   0  0  0  0  0  0  0  0  0  0  0  0
  141.8196   68.3007  220.7321 H   0  0  0  0  0  0  0  0  0  0  0  0
  141.6225   67.5325  219.1013 H   0  0  0  0  0  0  0  0  0  0  0  0
  143.7694   66.3455  219.6596 H   0  0  0  0  0  0  0  0  0  0  0  0
  146.2426   66.4356  219.3647 H   0  0  0  0  0  0  0  0  0  0  0  0
  147.3784   68.6216  218.9743 H   0  0  0  0  0  0  0  0  0  0  0  0
  146.0464   70.7272  218.8880 H   0  0  0  0  0  0  0  0  0  0  0  0
  143.8628   71.7915  219.7466 H   0  0  0  0  0  0  0  0  0  0  0  0
  143.3264   71.3361  218.0832 H   0  0  0  0  0  0  0  0  0  0  0  0
  141.6612   75.1222  219.2690 H   0  0  0  0  0  0  0  0  0  0  0  0
  140.2339   76.2013  219.4598 H   0  0  0  0  0  0  0  0  0  0  0  0
  143.0917   76.7434  220.4081 H   0  0  0  0  0  0  0  0  0  0  0  0
  142.2132   77.5648  219.0646 H   0  0  0  0  0  0  0  0  0  0  0  0
  142.4772   79.7801  220.0594 H   0  0  0  0  0  0  0  0  0  0  0  0
  141.5743   81.4316  221.6932 H   0  0  0  0  0  0  0  0  0  0  0  0
  140.1344   80.6645  223.5825 H   0  0  0  0  0  0  0  0  0  0  0  0
  139.6261   78.2386  223.8627 H   0  0  0  0  0  0  0  0  0  0  0  0
  140.9880   75.8530  223.2572 H   0  0  0  0  0  0  0  0  0  0  0  0
  139.3785   76.0504  222.4141 H   0  0  0  0  0  0  0  0  0  0  0  0
  141.2450   70.3091  224.6225 H   0  0  0  0  0  0  0  0  0  0  0  0
  140.8299   71.8564  225.4747 H   0  0  0  0  0  0  0  0  0  0  0  0
  140.2757   69.6917  226.7251 H   0  0  0  0  0  0  0  0  0  0  0  0
  138.9341   70.8938  226.5233 H   0  0  0  0  0  0  0  0  0  0  0  0
  1  2  1  0
  2  3  1  0
  3  4  1  0
  4  5  1  0
  5  6  1  0
  6  7  1  0
  7  8  2  0
  8  9  1  0
  9 10  1  0
 10 11  1  0
 11 12  1  0
 12 13  1  0
 13 14  2  0
 14 15  1  0
 15 16  2  0
 16 17  1  0
 17 18  2  0
 18 19  1  0
  9 20  2  0
 20 21  1  0
 21 22  1  0
 22 23  1  0
 23 24  1  0
 24 25  1  0
 25 26  2  0
 26 27  1  0
 27 28  2  0
 28 29  1  0
 29 30  2  0
 30 31  1  0
 21 32  2  0
  6 33  1  0
 33 34  1  0
 34  3  1  0
 32  7  1  0
 19 10  1  0
 31 22  1  0
 18 13  1  0
 30 25  1  0
  1 35  1  0
  1 36  1  0
  1 37  1  0
  2 38  1  0
  3 39  1  0
  4 40  1  0
  4 41  1  0
  5 42  1  0
  5 43  1  0
 11 44  1  0
 11 45  1  0
 12 46  1  0
 12 47  1  0
 14 48  1  0
 15 49  1  0
 16 50  1  0
 17 51  1  0
 19 52  1  0
 19 53  1  0
 23 54  1  0
 23 55  1  0
 24 56  1  0
 24 57  1  0
 26 58  1  0
 27 59  1  0
 28 60  1  0
 29 61  1  0
 31 62  1  0
 31 63  1  0
 33 64  1  0
 33 65  1  0
 34 66  1  0
 34 67  1  0
M  END
>  <UniqueID>  (41) 
59

>  <SMILES>  (41) 
CNC1CCN(c2nc(N3CCc4ccccc4C3)nc(N3CCc4ccccc4C3)n2)CC1

>  <Energy>  (41) 
81.65917992965035

>  <Genealogy>  (41) 
CNC1CCN(c2nc(N3CCc4ccccc4C3)nc(N3CCc4ccccc4C3)n2)CC1 (3D coordinates assigned)
CNC1CCN(c2nc(N3CCc4ccccc4C3)nc(N3CCc4ccccc4C3)n2)CC1 (nonaromatic ring conformer: 81.65917992965035 kcal/mol)

>  <smiles>  (41) 
CNC1CCN(c2nc(N3CCc4ccccc4C3)nc(N3CCc4ccccc4C3)n2)CC1

>  <score_type>  (41) 
oracle

>  <origin>  (41) 
autodockgpu

>  <m_score__min__energy>  (41) 
-8.9900000000000002

>  <m_primary>  (41) 
energy

>  <meeko>  (41) 
{"free_energy": -8.7, "intermolecular_energy": -9.9, "internal_energy": -0.98, "cluster_size": 2, "cluster_id": 2, "rank_in_cluster": 1}

>  <energy>  (41) 
-8.99

>  <cluster_rmsd>  (41) 
0.0

>  <rmsd>  (41) 
271.83

>  <cluster>  (41) 
1

$$$$
DSYBMJCSYFRFMG-UHFFFAOYNA-N
     RDKit          3D

 67 72  0  0  0  0  0  0  0  0999 V2000
  145.6830   73.1260  219.3790 C   0  0  0  0  0  0  0  0  0  0  0  0
  145.9480   72.2460  218.2360 N   0  0  0  0  0  0  0  0  0  0  0  0
  144.8000   72.1880  217.3080 C   0  0  0  0  0  0  0  0  0  0  0  0
  143.9700   73.5110  217.3220 C   0  0  0  0  0  0  0  0  0  0  0  0
  142.5000   73.3030  217.7030 C   0  0  0  0  0  0  0  0  0  0  0  0
  142.4180   72.4570  218.9040 N   0  0  0  0  0  0  0  0  0  0  0  0
  141.7360   72.9010  220.0950 C   0  0  0  0  0  0  0  0  0  0  0  0
  141.3600   74.2010  220.2220 N   0  0  0  0  0  0  0  0  0  0  0  0
  140.6800   74.6260  221.3170 C   0  0  0  0  0  0  0  0  0  0  0  0
  140.2650   76.0060  221.4300 N   0  0  0  0  0  0  0  0  0  0  0  0
  139.9190   76.8040  220.2510 C   0  0  0  0  0  0  0  0  0  0  0  0
  141.0090   77.8510  220.0280 C   0  0  0  0  0  0  0  0  0  0  0  0
  141.3530   78.5830  221.3040 C   0  0  0  0  0  0  0  0  0  0  0  0
  142.0450   79.8010  221.2270 C   0  0  0  0  0  0  0  0  0  0  0  0
  142.4210   80.4770  222.3900 C   0  0  0  0  0  0  0  0  0  0  0  0
  142.1180   79.9380  223.6420 C   0  0  0  0  0  0  0  0  0  0  0  0
  141.4450   78.7180  223.7360 C   0  0  0  0  0  0  0  0  0  0  0  0
  141.0710   78.0210  222.5760 C   0  0  0  0  0  0  0  0  0  0  0  0
  140.3110   76.7220  222.7120 C   0  0  0  0  0  0  0  0  0  0  0  0
  140.3740   73.7330  222.2940 N   0  0  0  0  0  0  0  0  0  0  0  0
  140.7480   72.4320  222.1900 C   0  0  0  0  0  0  0  0  0  0  0  0
  140.4020   71.4920  223.2300 N   0  0  0  0  0  0  0  0  0  0  0  0
  139.5750   70.3150  222.9310 C   0  0  0  0  0  0  0  0  0  0  0  0
  138.5600   70.0980  224.0470 C   0  0  0  0  0  0  0  0  0  0  0  0
  139.2540   70.0070  225.3750 C   0  0  0  0  0  0  0  0  0  0  0  0
  138.6800   69.2580  226.4160 C   0  0  0  0  0  0  0  0  0  0  0  0
  139.3030   69.1920  227.6640 C   0  0  0  0  0  0  0  0  0  0  0  0
  140.4980   69.8810  227.8880 C   0  0  0  0  0  0  0  0  0  0  0  0
  141.0650   70.6490  226.8660 C   0  0  0  0  0  0  0  0  0  0  0  0
  140.4490   70.7240  225.6060 C   0  0  0  0  0  0  0  0  0  0  0  0
  141.0550   71.6150  224.5460 C   0  0  0  0  0  0  0  0  0  0  0  0
  141.4260   72.0240  221.0850 N   0  0  0  0  0  0  0  0  0  0  0  0
  143.1110   71.1590  218.9140 C   0  0  0  0  0  0  0  0  0  0  0  0
  143.9460   70.9460  217.6430 C   0  0  0  0  0  0  0  0  0  0  0  0
  145.8498   72.5721  220.3146 H   0  0  0  0  0  0  0  0  0  0  0  0
  146.3602   73.9919  219.3398 H   0  0  0  0  0  0  0  0  0  0  0  0
  144.6402   73.4740  219.3398 H   0  0  0  0  0  0  0  0  0  0  0  0
  146.1700   71.2880  218.5940 H   0  0  0  0  0  0  0  0  0  0  0  0
  145.1710   72.0891  216.2772 H   0  0  0  0  0  0  0  0  0  0  0  0
  144.4245   74.2002  218.0490 H   0  0  0  0  0  0  0  0  0  0  0  0
  143.9864   73.9156  216.2993 H   0  0  0  0  0  0  0  0  0  0  0  0
  142.0334   74.2776  217.9088 H   0  0  0  0  0  0  0  0  0  0  0  0
  141.9726   72.8113  216.8723 H   0  0  0  0  0  0  0  0  0  0  0  0
  139.8488   76.1499  219.3694 H   0  0  0  0  0  0  0  0  0  0  0  0
  138.9500   77.3007  220.4071 H   0  0  0  0  0  0  0  0  0  0  0  0
  141.9124   77.3497  219.6504 H   0  0  0  0  0  0  0  0  0  0  0  0
  140.6329   78.5871  219.3022 H   0  0  0  0  0  0  0  0  0  0  0  0
  142.2932   80.2267  220.2436 H   0  0  0  0  0  0  0  0  0  0  0  0
  142.9565   81.4352  222.3195 H   0  0  0  0  0  0  0  0  0  0  0  0
  142.4100   80.4755  224.5562 H   0  0  0  0  0  0  0  0  0  0  0  0
  141.2064   78.3004  224.7253 H   0  0  0  0  0  0  0  0  0  0  0  0
  140.8102   76.0891  223.4605 H   0  0  0  0  0  0  0  0  0  0  0  0
  139.2813   76.9480  223.0260 H   0  0  0  0  0  0  0  0  0  0  0  0
  139.0441   70.4740  221.9808 H   0  0  0  0  0  0  0  0  0  0  0  0
  140.2214   69.4285  222.8516 H   0  0  0  0  0  0  0  0  0  0  0  0
  137.8541   70.9414  224.0640 H   0  0  0  0  0  0  0  0  0  0  0  0
  138.0207   69.1575  223.8610 H   0  0  0  0  0  0  0  0  0  0  0  0
  137.7350   68.7209  226.2470 H   0  0  0  0  0  0  0  0  0  0  0  0
  138.8525   68.5968  228.4719 H   0  0  0  0  0  0  0  0  0  0  0  0
  140.9928   69.8192  228.8685 H   0  0  0  0  0  0  0  0  0  0  0  0
  142.0001   71.1983  227.0503 H   0  0  0  0  0  0  0  0  0  0  0  0
  140.9711   72.6597  224.8799 H   0  0  0  0  0  0  0  0  0  0  0  0
  142.1012   71.3002  224.4185 H   0  0  0  0  0  0  0  0  0  0  0  0
  143.7773   71.1183  219.7883 H   0  0  0  0  0  0  0  0  0  0  0  0
  142.3496   70.3663  218.9585 H   0  0  0  0  0  0  0  0  0  0  0  0
  144.6131   70.0846  217.7946 H   0  0  0  0  0  0  0  0  0  0  0  0
  143.2565   70.7668  216.8049 H   0  0  0  0  0  0  0  0  0  0  0  0
  1  2  1  0
  2  3  1  0
  3  4  1  0
  4  5  1  0
  5  6  1  0
  6  7  1  0
  7  8  2  0
  8  9  1  0
  9 10  1  0
 10 11  1  0
 11 12  1  0
 12 13  1  0
 13 14  2  0
 14 15  1  0
 15 16  2  0
 16 17  1  0
 17 18  2  0
 18 19  1  0
  9 20  2  0
 20 21  1  0
 21 22  1  0
 22 23  1  0
 23 24  1  0
 24 25  1  0
 25 26  2  0
 26 27  1  0
 27 28  2  0
 28 29  1  0
 29 30  2  0
 30 31  1  0
 21 32  2  0
  6 33  1  0
 33 34  1  0
 34  3  1  0
 32  7  1  0
 19 10  1  0
 31 22  1  0
 18 13  1  0
 30 25  1  0
  1 35  1  0
  1 36  1  0
  1 37  1  0
  2 38  1  0
  3 39  1  0
  4 40  1  0
  4 41  1  0
  5 42  1  0
  5 43  1  0
 11 44  1  0
 11 45  1  0
 12 46  1  0
 12 47  1  0
 14 48  1  0
 15 49  1  0
 16 50  1  0
 17 51  1  0
 19 52  1  0
 19 53  1  0
 23 54  1  0
 23 55  1  0
 24 56  1  0
 24 57  1  0
 26 58  1  0
 27 59  1  0
 28 60  1  0
 29 61  1  0
 31 62  1  0
 31 63  1  0
 33 64  1  0
 33 65  1  0
 34 66  1  0
 34 67  1  0
M  END
>  <UniqueID>  (42) 
59

>  <SMILES>  (42) 
CNC1CCN(c2nc(N3CCc4ccccc4C3)nc(N3CCc4ccccc4C3)n2)CC1

>  <Energy>  (42) 
81.65917992965035

>  <Genealogy>  (42) 
CNC1CCN(c2nc(N3CCc4ccccc4C3)nc(N3CCc4ccccc4C3)n2)CC1 (3D coordinates assigned)
CNC1CCN(c2nc(N3CCc4ccccc4C3)nc(N3CCc4ccccc4C3)n2)CC1 (nonaromatic ring conformer: 81.65917992965035 kcal/mol)

>  <smiles>  (42) 
CNC1CCN(c2nc(N3CCc4ccccc4C3)nc(N3CCc4ccccc4C3)n2)CC1

>  <score_type>  (42) 
oracle

>  <origin>  (42) 
autodockgpu

>  <m_score__min__energy>  (42) 
-8.9900000000000002

>  <m_primary>  (42) 
energy

>  <meeko>  (42) 
{"free_energy": -8.86, "intermolecular_energy": -10.06, "internal_energy": -1.03, "cluster_size": 18, "cluster_id": 1, "rank_in_cluster": 6}

>  <energy>  (42) 
-8.98

>  <cluster_rmsd>  (42) 
0.05

>  <rmsd>  (42) 
271.81

>  <cluster>  (42) 
1

$$$$
DSYBMJCSYFRFMG-UHFFFAOYNA-N
     RDKit          3D

 67 72  0  0  0  0  0  0  0  0999 V2000
  145.9370   73.8300  220.8810 C   0  0  0  0  0  0  0  0  0  0  0  0
  146.3940   72.6200  220.1900 N   0  0  0  0  0  0  0  0  0  0  0  0
  145.5650   72.3150  219.0050 C   0  0  0  0  0  0  0  0  0  0  0  0
  144.7220   73.5490  218.5500 C   0  0  0  0  0  0  0  0  0  0  0  0
  143.2130   73.2840  218.5390 C   0  0  0  0  0  0  0  0  0  0  0  0
  142.8160   72.6420  219.8020 N   0  0  0  0  0  0  0  0  0  0  0  0
  141.8060   73.2150  220.6570 C   0  0  0  0  0  0  0  0  0  0  0  0
  141.5760   74.5540  220.6370 N   0  0  0  0  0  0  0  0  0  0  0  0
  140.6000   75.1060  221.4030 C   0  0  0  0  0  0  0  0  0  0  0  0
  140.3490   76.5280  221.3570 N   0  0  0  0  0  0  0  0  0  0  0  0
  140.5180   77.2980  220.1230 C   0  0  0  0  0  0  0  0  0  0  0  0
  141.7440   78.2000  220.2680 C   0  0  0  0  0  0  0  0  0  0  0  0
  141.7340   78.9510  221.5780 C   0  0  0  0  0  0  0  0  0  0  0  0
  142.5610   80.0760  221.7260 C   0  0  0  0  0  0  0  0  0  0  0  0
  142.6110   80.7630  222.9420 C   0  0  0  0  0  0  0  0  0  0  0  0
  141.8440   80.3280  224.0240 C   0  0  0  0  0  0  0  0  0  0  0  0
  141.0290   79.2010  223.8980 C   0  0  0  0  0  0  0  0  0  0  0  0
  140.9770   78.4930  222.6870 C   0  0  0  0  0  0  0  0  0  0  0  0
  140.0560   77.2990  222.5730 C   0  0  0  0  0  0  0  0  0  0  0  0
  139.8470   74.2990  222.1960 N   0  0  0  0  0  0  0  0  0  0  0  0
  140.0670   72.9590  222.2360 C   0  0  0  0  0  0  0  0  0  0  0  0
  139.2490   72.1150  223.0730 N   0  0  0  0  0  0  0  0  0  0  0  0
  139.8170   71.4590  224.2590 C   0  0  0  0  0  0  0  0  0  0  0  0
  139.3010   70.0280  224.3580 C   0  0  0  0  0  0  0  0  0  0  0  0
  137.7990   70.0130  224.3410 C   0  0  0  0  0  0  0  0  0  0  0  0
  137.1020   68.9770  224.9850 C   0  0  0  0  0  0  0  0  0  0  0  0
  135.7060   68.9370  224.9480 C   0  0  0  0  0  0  0  0  0  0  0  0
  134.9960   69.9240  224.2620 C   0  0  0  0  0  0  0  0  0  0  0  0
  135.6800   70.9460  223.5980 C   0  0  0  0  0  0  0  0  0  0  0  0
  137.0840   70.9980  223.6250 C   0  0  0  0  0  0  0  0  0  0  0  0
  137.7930   72.0800  222.8430 C   0  0  0  0  0  0  0  0  0  0  0  0
  141.0460   72.4260  221.4610 N   0  0  0  0  0  0  0  0  0  0  0  0
  143.5200   71.4250  220.2380 C   0  0  0  0  0  0  0  0  0  0  0  0
  144.6930   71.0780  219.3080 C   0  0  0  0  0  0  0  0  0  0  0  0
  145.9954   73.6754  221.9685 H   0  0  0  0  0  0  0  0  0  0  0  0
  146.5766   74.6785  220.5964 H   0  0  0  0  0  0  0  0  0  0  0  0
  144.8962   74.0438  220.5964 H   0  0  0  0  0  0  0  0  0  0  0  0
  146.3690   71.8190  220.8630 H   0  0  0  0  0  0  0  0  0  0  0  0
  146.2202   72.0802  218.1532 H   0  0  0  0  0  0  0  0  0  0  0  0
  144.9246   74.3827  219.2384 H   0  0  0  0  0  0  0  0  0  0  0  0
  145.0185   73.7818  217.5166 H   0  0  0  0  0  0  0  0  0  0  0  0
  142.6747   74.2368  218.4275 H   0  0  0  0  0  0  0  0  0  0  0  0
  142.9645   72.6203  217.6977 H   0  0  0  0  0  0  0  0  0  0  0  0
  140.6625   76.6114  219.2758 H   0  0  0  0  0  0  0  0  0  0  0  0
  139.6231   77.9109  219.9398 H   0  0  0  0  0  0  0  0  0  0  0  0
  142.6508   77.5792  220.2201 H   0  0  0  0  0  0  0  0  0  0  0  0
  141.7262   78.9362  219.4509 H   0  0  0  0  0  0  0  0  0  0  0  0
  143.1736   80.4189  220.8792 H   0  0  0  0  0  0  0  0  0  0  0  0
  143.2559   81.6480  223.0466 H   0  0  0  0  0  0  0  0  0  0  0  0
  141.8816   80.8741  224.9781 H   0  0  0  0  0  0  0  0  0  0  0  0
  140.4239   78.8659  224.7533 H   0  0  0  0  0  0  0  0  0  0  0  0
  140.1937   76.6522  223.4520 H   0  0  0  0  0  0  0  0  0  0  0  0
  139.0177   77.6585  222.5208 H   0  0  0  0  0  0  0  0  0  0  0  0
  140.9140   71.4463  224.1785 H   0  0  0  0  0  0  0  0  0  0  0  0
  139.5164   72.0153  225.1591 H   0  0  0  0  0  0  0  0  0  0  0  0
  139.6794   69.4460  223.5047 H   0  0  0  0  0  0  0  0  0  0  0  0
  139.6526   69.5854  225.3016 H   0  0  0  0  0  0  0  0  0  0  0  0
  137.6581   68.1937  225.5209 H   0  0  0  0  0  0  0  0  0  0  0  0
  135.1657   68.1270  225.4599 H   0  0  0  0  0  0  0  0  0  0  0  0
  133.8965   69.8973  224.2440 H   0  0  0  0  0  0  0  0  0  0  0  0
  135.1154   71.7150  223.0505 H   0  0  0  0  0  0  0  0  0  0  0  0
  137.6140   71.9089  221.7712 H   0  0  0  0  0  0  0  0  0  0  0  0
  137.3885   73.0439  223.1853 H   0  0  0  0  0  0  0  0  0  0  0  0
  143.9074   71.5833  221.2553 H   0  0  0  0  0  0  0  0  0  0  0  0
  142.8051   70.5894  220.2118 H   0  0  0  0  0  0  0  0  0  0  0  0
  145.3167   70.3116  219.7913 H   0  0  0  0  0  0  0  0  0  0  0  0
  144.2801   70.7078  218.3580 H   0  0  0  0  0  0  0  0  0  0  0  0
  1  2  1  0
  2  3  1  0
  3  4  1  0
  4  5  1  0
  5  6  1  0
  6  7  1  0
  7  8  2  0
  8  9  1  0
  9 10  1  0
 10 11  1  0
 11 12  1  0
 12 13  1  0
 13 14  2  0
 14 15  1  0
 15 16  2  0
 16 17  1  0
 17 18  2  0
 18 19  1  0
  9 20  2  0
 20 21  1  0
 21 22  1  0
 22 23  1  0
 23 24  1  0
 24 25  1  0
 25 26  2  0
 26 27  1  0
 27 28  2  0
 28 29  1  0
 29 30  2  0
 30 31  1  0
 21 32  2  0
  6 33  1  0
 33 34  1  0
 34  3  1  0
 32  7  1  0
 19 10  1  0
 31 22  1  0
 18 13  1  0
 30 25  1  0
  1 35  1  0
  1 36  1  0
  1 37  1  0
  2 38  1  0
  3 39  1  0
  4 40  1  0
  4 41  1  0
  5 42  1  0
  5 43  1  0
 11 44  1  0
 11 45  1  0
 12 46  1  0
 12 47  1  0
 14 48  1  0
 15 49  1  0
 16 50  1  0
 17 51  1  0
 19 52  1  0
 19 53  1  0
 23 54  1  0
 23 55  1  0
 24 56  1  0
 24 57  1  0
 26 58  1  0
 27 59  1  0
 28 60  1  0
 29 61  1  0
 31 62  1  0
 31 63  1  0
 33 64  1  0
 33 65  1  0
 34 66  1  0
 34 67  1  0
M  END
>  <UniqueID>  (43) 
59

>  <SMILES>  (43) 
CNC1CCN(c2nc(N3CCc4ccccc4C3)nc(N3CCc4ccccc4C3)n2)CC1

>  <Energy>  (43) 
81.65917992965035

>  <Genealogy>  (43) 
CNC1CCN(c2nc(N3CCc4ccccc4C3)nc(N3CCc4ccccc4C3)n2)CC1 (3D coordinates assigned)
CNC1CCN(c2nc(N3CCc4ccccc4C3)nc(N3CCc4ccccc4C3)n2)CC1 (nonaromatic ring conformer: 81.65917992965035 kcal/mol)

>  <smiles>  (43) 
CNC1CCN(c2nc(N3CCc4ccccc4C3)nc(N3CCc4ccccc4C3)n2)CC1

>  <score_type>  (43) 
oracle

>  <origin>  (43) 
autodockgpu

>  <m_score__min__energy>  (43) 
-8.9900000000000002

>  <m_primary>  (43) 
energy

>  <meeko>  (43) 
{"free_energy": -8.82, "intermolecular_energy": -10.02, "internal_energy": -1.06, "cluster_size": 18, "cluster_id": 1, "rank_in_cluster": 13}

>  <energy>  (43) 
-8.9

>  <cluster_rmsd>  (43) 
0.77

>  <rmsd>  (43) 
271.79

>  <cluster>  (43) 
1

$$$$
DSYBMJCSYFRFMG-UHFFFAOYNA-N
     RDKit          3D

 67 72  0  0  0  0  0  0  0  0999 V2000
  145.7880   72.9820  219.5520 C   0  0  0  0  0  0  0  0  0  0  0  0
  145.9520   72.0310  218.4490 N   0  0  0  0  0  0  0  0  0  0  0  0
  144.8510   72.1280  217.4680 C   0  0  0  0  0  0  0  0  0  0  0  0
  144.1370   73.5160  217.5290 C   0  0  0  0  0  0  0  0  0  0  0  0
  142.6380   73.4180  217.8300 C   0  0  0  0  0  0  0  0  0  0  0  0
  142.4240   72.5140  218.9710 N   0  0  0  0  0  0  0  0  0  0  0  0
  141.7240   72.9460  220.1560 C   0  0  0  0  0  0  0  0  0  0  0  0
  141.3170   74.2370  220.2750 N   0  0  0  0  0  0  0  0  0  0  0  0
  140.6200   74.6510  221.3640 C   0  0  0  0  0  0  0  0  0  0  0  0
  140.1720   76.0210  221.4700 N   0  0  0  0  0  0  0  0  0  0  0  0
  139.7550   76.7860  220.2920 C   0  0  0  0  0  0  0  0  0  0  0  0
  140.8050   77.8570  220.0030 C   0  0  0  0  0  0  0  0  0  0  0  0
  141.1820   78.6230  221.2500 C   0  0  0  0  0  0  0  0  0  0  0  0
  141.8370   79.8580  221.1200 C   0  0  0  0  0  0  0  0  0  0  0  0
  142.2430   80.5660  222.2540 C   0  0  0  0  0  0  0  0  0  0  0  0
  142.0080   80.0440  223.5270 C   0  0  0  0  0  0  0  0  0  0  0  0
  141.3730   78.8090  223.6730 C   0  0  0  0  0  0  0  0  0  0  0  0
  140.9700   78.0790  222.5420 C   0  0  0  0  0  0  0  0  0  0  0  0
  140.2520   76.7630  222.7360 C   0  0  0  0  0  0  0  0  0  0  0  0
  140.3290   73.7540  222.3430 N   0  0  0  0  0  0  0  0  0  0  0  0
  140.7340   72.4610  222.2470 C   0  0  0  0  0  0  0  0  0  0  0  0
  140.4040   71.5180  223.2880 N   0  0  0  0  0  0  0  0  0  0  0  0
  139.5970   70.3260  222.9910 C   0  0  0  0  0  0  0  0  0  0  0  0
  138.5840   70.0950  224.1060 C   0  0  0  0  0  0  0  0  0  0  0  0
  139.2800   70.0180  225.4350 C   0  0  0  0  0  0  0  0  0  0  0  0
  138.7180   69.2600  226.4770 C   0  0  0  0  0  0  0  0  0  0  0  0
  139.3410   69.2070  227.7250 C   0  0  0  0  0  0  0  0  0  0  0  0
  140.5240   69.9160  227.9480 C   0  0  0  0  0  0  0  0  0  0  0  0
  141.0780   70.6920  226.9260 C   0  0  0  0  0  0  0  0  0  0  0  0
  140.4620   70.7550  225.6660 C   0  0  0  0  0  0  0  0  0  0  0  0
  141.0540   71.6540  224.6040 C   0  0  0  0  0  0  0  0  0  0  0  0
  141.4280   72.0650  221.1480 N   0  0  0  0  0  0  0  0  0  0  0  0
  143.0010   71.1610  218.9300 C   0  0  0  0  0  0  0  0  0  0  0  0
  143.8780   70.9490  217.6870 C   0  0  0  0  0  0  0  0  0  0  0  0
  145.8796   72.4508  220.5109 H   0  0  0  0  0  0  0  0  0  0  0  0
  146.5657   73.7571  219.4865 H   0  0  0  0  0  0  0  0  0  0  0  0
  144.7956   73.4519  219.4865 H   0  0  0  0  0  0  0  0  0  0  0  0
  145.9960   71.0620  218.8440 H   0  0  0  0  0  0  0  0  0  0  0  0
  145.2631   72.0564  216.4506 H   0  0  0  0  0  0  0  0  0  0  0  0
  144.6121   74.1178  218.3177 H   0  0  0  0  0  0  0  0  0  0  0  0
  144.2386   73.9767  216.5353 H   0  0  0  0  0  0  0  0  0  0  0  0
  142.2474   74.4166  218.0753 H   0  0  0  0  0  0  0  0  0  0  0  0
  142.1122   73.0247  216.9475 H   0  0  0  0  0  0  0  0  0  0  0  0
  139.6658   76.1128  219.4267 H   0  0  0  0  0  0  0  0  0  0  0  0
  138.7802   77.2597  220.4801 H   0  0  0  0  0  0  0  0  0  0  0  0
  141.7052   77.3728  219.5965 H   0  0  0  0  0  0  0  0  0  0  0  0
  140.3786   78.5682  219.2802 H   0  0  0  0  0  0  0  0  0  0  0  0
  142.0318   80.2707  220.1191 H   0  0  0  0  0  0  0  0  0  0  0  0
  142.7488   81.5366  222.1434 H   0  0  0  0  0  0  0  0  0  0  0  0
  142.3239   80.6070  224.4176 H   0  0  0  0  0  0  0  0  0  0  0  0
  141.1872   78.4052  224.6792 H   0  0  0  0  0  0  0  0  0  0  0  0
  140.7996   76.1587  223.4742 H   0  0  0  0  0  0  0  0  0  0  0  0
  139.2308   76.9672  223.0903 H   0  0  0  0  0  0  0  0  0  0  0  0
  139.0650   70.4734  222.0395 H   0  0  0  0  0  0  0  0  0  0  0  0
  140.2584   69.4503  222.9152 H   0  0  0  0  0  0  0  0  0  0  0  0
  137.8646   70.9270  224.1208 H   0  0  0  0  0  0  0  0  0  0  0  0
  138.0590   69.1461  223.9215 H   0  0  0  0  0  0  0  0  0  0  0  0
  137.7828   68.7060  226.3081 H   0  0  0  0  0  0  0  0  0  0  0  0
  138.8999   68.6062  228.5340 H   0  0  0  0  0  0  0  0  0  0  0  0
  141.0198   69.8635  228.9285 H   0  0  0  0  0  0  0  0  0  0  0  0
  142.0034   71.2575  227.1102 H   0  0  0  0  0  0  0  0  0  0  0  0
  140.9529   72.6979  224.9358 H   0  0  0  0  0  0  0  0  0  0  0  0
  142.1052   71.3558  224.4775 H   0  0  0  0  0  0  0  0  0  0  0  0
  143.6162   71.0095  219.8292 H   0  0  0  0  0  0  0  0  0  0  0  0
  142.1725   70.4385  218.8896 H   0  0  0  0  0  0  0  0  0  0  0  0
  144.4606   70.0248  217.8149 H   0  0  0  0  0  0  0  0  0  0  0  0
  143.2186   70.8803  216.8092 H   0  0  0  0  0  0  0  0  0  0  0  0
  1  2  1  0
  2  3  1  0
  3  4  1  0
  4  5  1  0
  5  6  1  0
  6  7  1  0
  7  8  2  0
  8  9  1  0
  9 10  1  0
 10 11  1  0
 11 12  1  0
 12 13  1  0
 13 14  2  0
 14 15  1  0
 15 16  2  0
 16 17  1  0
 17 18  2  0
 18 19  1  0
  9 20  2  0
 20 21  1  0
 21 22  1  0
 22 23  1  0
 23 24  1  0
 24 25  1  0
 25 26  2  0
 26 27  1  0
 27 28  2  0
 28 29  1  0
 29 30  2  0
 30 31  1  0
 21 32  2  0
  6 33  1  0
 33 34  1  0
 34  3  1  0
 32  7  1  0
 19 10  1  0
 31 22  1  0
 18 13  1  0
 30 25  1  0
  1 35  1  0
  1 36  1  0
  1 37  1  0
  2 38  1  0
  3 39  1  0
  4 40  1  0
  4 41  1  0
  5 42  1  0
  5 43  1  0
 11 44  1  0
 11 45  1  0
 12 46  1  0
 12 47  1  0
 14 48  1  0
 15 49  1  0
 16 50  1  0
 17 51  1  0
 19 52  1  0
 19 53  1  0
 23 54  1  0
 23 55  1  0
 24 56  1  0
 24 57  1  0
 26 58  1  0
 27 59  1  0
 28 60  1  0
 29 61  1  0
 31 62  1  0
 31 63  1  0
 33 64  1  0
 33 65  1  0
 34 66  1  0
 34 67  1  0
M  END
>  <UniqueID>  (44) 
59

>  <SMILES>  (44) 
CNC1CCN(c2nc(N3CCc4ccccc4C3)nc(N3CCc4ccccc4C3)n2)CC1

>  <Energy>  (44) 
81.65917992965035

>  <Genealogy>  (44) 
CNC1CCN(c2nc(N3CCc4ccccc4C3)nc(N3CCc4ccccc4C3)n2)CC1 (3D coordinates assigned)
CNC1CCN(c2nc(N3CCc4ccccc4C3)nc(N3CCc4ccccc4C3)n2)CC1 (nonaromatic ring conformer: 81.65917992965035 kcal/mol)

>  <smiles>  (44) 
CNC1CCN(c2nc(N3CCc4ccccc4C3)nc(N3CCc4ccccc4C3)n2)CC1

>  <score_type>  (44) 
oracle

>  <origin>  (44) 
autodockgpu

>  <m_score__min__energy>  (44) 
-8.9900000000000002

>  <m_primary>  (44) 
energy

>  <meeko>  (44) 
{"free_energy": -8.87, "intermolecular_energy": -10.06, "internal_energy": -1.04, "cluster_size": 18, "cluster_id": 1, "rank_in_cluster": 5}

>  <energy>  (44) 
-8.88

>  <cluster_rmsd>  (44) 
1.23

>  <rmsd>  (44) 
271.99

>  <cluster>  (44) 
1

$$$$
DSYBMJCSYFRFMG-UHFFFAOYNA-N
     RDKit          3D

 67 72  0  0  0  0  0  0  0  0999 V2000
  143.3050   75.9370  216.8780 C   0  0  0  0  0  0  0  0  0  0  0  0
  144.5400   75.2770  216.4420 N   0  0  0  0  0  0  0  0  0  0  0  0
  144.4130   73.8050  216.4560 C   0  0  0  0  0  0  0  0  0  0  0  0
  142.9190   73.3490  216.4720 C   0  0  0  0  0  0  0  0  0  0  0  0
  142.5620   72.4760  217.6800 C   0  0  0  0  0  0  0  0  0  0  0  0
  143.0760   73.1030  218.9080 N   0  0  0  0  0  0  0  0  0  0  0  0
  142.2060   73.4250  220.0130 C   0  0  0  0  0  0  0  0  0  0  0  0
  141.7940   74.7060  220.2040 N   0  0  0  0  0  0  0  0  0  0  0  0
  140.9410   75.0200  221.2130 C   0  0  0  0  0  0  0  0  0  0  0  0
  140.4910   76.3810  221.3930 N   0  0  0  0  0  0  0  0  0  0  0  0
  140.1590   77.2380  220.2530 C   0  0  0  0  0  0  0  0  0  0  0  0
  141.2290   78.3210  220.1210 C   0  0  0  0  0  0  0  0  0  0  0  0
  141.5210   78.9840  221.4460 C   0  0  0  0  0  0  0  0  0  0  0  0
  142.1860   80.2210  221.4580 C   0  0  0  0  0  0  0  0  0  0  0  0
  142.5140   80.8360  222.6690 C   0  0  0  0  0  0  0  0  0  0  0  0
  142.1900   80.2190  223.8790 C   0  0  0  0  0  0  0  0  0  0  0  0
  141.5430   78.9810  223.8830 C   0  0  0  0  0  0  0  0  0  0  0  0
  141.2170   78.3440  222.6750 C   0  0  0  0  0  0  0  0  0  0  0  0
  140.4850   77.0230  222.7150 C   0  0  0  0  0  0  0  0  0  0  0  0
  140.4990   74.0340  222.0370 N   0  0  0  0  0  0  0  0  0  0  0  0
  140.9060   72.7490  221.8670 C   0  0  0  0  0  0  0  0  0  0  0  0
  140.4150   71.7110  222.7410 N   0  0  0  0  0  0  0  0  0  0  0  0
  139.4240   70.7360  222.2640 C   0  0  0  0  0  0  0  0  0  0  0  0
  138.3780   70.4900  223.3440 C   0  0  0  0  0  0  0  0  0  0  0  0
  139.0390   70.0760  224.6270 C   0  0  0  0  0  0  0  0  0  0  0  0
  138.3510   69.2560  225.5380 C   0  0  0  0  0  0  0  0  0  0  0  0
  138.9460   68.8910  226.7470 C   0  0  0  0  0  0  0  0  0  0  0  0
  140.2280   69.3470  227.0620 C   0  0  0  0  0  0  0  0  0  0  0  0
  140.9120   70.1830  226.1740 C   0  0  0  0  0  0  0  0  0  0  0  0
  140.3250   70.5580  224.9550 C   0  0  0  0  0  0  0  0  0  0  0  0
  141.0670   71.5140  224.0480 C   0  0  0  0  0  0  0  0  0  0  0  0
  141.7570   72.4540  220.8500 N   0  0  0  0  0  0  0  0  0  0  0  0
  144.4980   73.4750  218.9810 C   0  0  0  0  0  0  0  0  0  0  0  0
  145.2200   73.2420  217.6450 C   0  0  0  0  0  0  0  0  0  0  0  0
  143.2682   75.9567  217.9772 H   0  0  0  0  0  0  0  0  0  0  0  0
  143.2836   76.9668  216.4919 H   0  0  0  0  0  0  0  0  0  0  0  0
  142.4369   75.3825  216.4919 H   0  0  0  0  0  0  0  0  0  0  0  0
  145.3210   75.5760  217.0720 H   0  0  0  0  0  0  0  0  0  0  0  0
  144.8324   73.3952  215.5253 H   0  0  0  0  0  0  0  0  0  0  0  0
  142.2811   74.2450  216.4886 H   0  0  0  0  0  0  0  0  0  0  0  0
  142.7559   72.7392  215.5711 H   0  0  0  0  0  0  0  0  0  0  0  0
  141.4688   72.3757  217.7495 H   0  0  0  0  0  0  0  0  0  0  0  0
  143.0148   71.4808  217.5595 H   0  0  0  0  0  0  0  0  0  0  0  0
  140.1287   76.6347  219.3337 H   0  0  0  0  0  0  0  0  0  0  0  0
  139.1747   77.7032  220.4101 H   0  0  0  0  0  0  0  0  0  0  0  0
  142.1540   77.8634  219.7402 H   0  0  0  0  0  0  0  0  0  0  0  0
  140.8546   79.0896  219.4288 H   0  0  0  0  0  0  0  0  0  0  0  0
  142.4503   80.7087  220.5081 H   0  0  0  0  0  0  0  0  0  0  0  0
  143.0285   81.8082  222.6692 H   0  0  0  0  0  0  0  0  0  0  0  0
  142.4447   80.7086  224.8305 H   0  0  0  0  0  0  0  0  0  0  0  0
  141.2871   78.5017  224.8394 H   0  0  0  0  0  0  0  0  0  0  0  0
  140.9787   76.3593  223.4401 H   0  0  0  0  0  0  0  0  0  0  0  0
  139.4420   77.2075  223.0118 H   0  0  0  0  0  0  0  0  0  0  0  0
  138.9316   71.1279  221.3618 H   0  0  0  0  0  0  0  0  0  0  0  0
  139.9316   69.7889  222.0287 H   0  0  0  0  0  0  0  0  0  0  0  0
  137.8064   71.4146  223.5125 H   0  0  0  0  0  0  0  0  0  0  0  0
  137.7052   69.6852  223.0129 H   0  0  0  0  0  0  0  0  0  0  0  0
  137.3385   68.9000  225.2971 H   0  0  0  0  0  0  0  0  0  0  0  0
  138.4045   68.2435  227.4524 H   0  0  0  0  0  0  0  0  0  0  0  0
  140.7001   69.0482  228.0096 H   0  0  0  0  0  0  0  0  0  0  0  0
  141.9166   70.5492  226.4322 H   0  0  0  0  0  0  0  0  0  0  0  0
  141.1370   72.4890  224.5525 H   0  0  0  0  0  0  0  0  0  0  0  0
  142.0556   71.0730  223.8529 H   0  0  0  0  0  0  0  0  0  0  0  0
  144.5739   74.5401  219.2453 H   0  0  0  0  0  0  0  0  0  0  0  0
  144.9774   72.8425  219.7426 H   0  0  0  0  0  0  0  0  0  0  0  0
  146.2006   73.7393  217.6780 H   0  0  0  0  0  0  0  0  0  0  0  0
  145.3335   72.1575  217.5004 H   0  0  0  0  0  0  0  0  0  0  0  0
  1  2  1  0
  2  3  1  0
  3  4  1  0
  4  5  1  0
  5  6  1  0
  6  7  1  0
  7  8  2  0
  8  9  1  0
  9 10  1  0
 10 11  1  0
 11 12  1  0
 12 13  1  0
 13 14  2  0
 14 15  1  0
 15 16  2  0
 16 17  1  0
 17 18  2  0
 18 19  1  0
  9 20  2  0
 20 21  1  0
 21 22  1  0
 22 23  1  0
 23 24  1  0
 24 25  1  0
 25 26  2  0
 26 27  1  0
 27 28  2  0
 28 29  1  0
 29 30  2  0
 30 31  1  0
 21 32  2  0
  6 33  1  0
 33 34  1  0
 34  3  1  0
 32  7  1  0
 19 10  1  0
 31 22  1  0
 18 13  1  0
 30 25  1  0
  1 35  1  0
  1 36  1  0
  1 37  1  0
  2 38  1  0
  3 39  1  0
  4 40  1  0
  4 41  1  0
  5 42  1  0
  5 43  1  0
 11 44  1  0
 11 45  1  0
 12 46  1  0
 12 47  1  0
 14 48  1  0
 15 49  1  0
 16 50  1  0
 17 51  1  0
 19 52  1  0
 19 53  1  0
 23 54  1  0
 23 55  1  0
 24 56  1  0
 24 57  1  0
 26 58  1  0
 27 59  1  0
 28 60  1  0
 29 61  1  0
 31 62  1  0
 31 63  1  0
 33 64  1  0
 33 65  1  0
 34 66  1  0
 34 67  1  0
M  END
>  <UniqueID>  (45) 
59

>  <SMILES>  (45) 
CNC1CCN(c2nc(N3CCc4ccccc4C3)nc(N3CCc4ccccc4C3)n2)CC1

>  <Energy>  (45) 
81.65917992965035

>  <Genealogy>  (45) 
CNC1CCN(c2nc(N3CCc4ccccc4C3)nc(N3CCc4ccccc4C3)n2)CC1 (3D coordinates assigned)
CNC1CCN(c2nc(N3CCc4ccccc4C3)nc(N3CCc4ccccc4C3)n2)CC1 (nonaromatic ring conformer: 81.65917992965035 kcal/mol)

>  <smiles>  (45) 
CNC1CCN(c2nc(N3CCc4ccccc4C3)nc(N3CCc4ccccc4C3)n2)CC1

>  <score_type>  (45) 
oracle

>  <origin>  (45) 
autodockgpu

>  <m_score__min__energy>  (45) 
-8.9900000000000002

>  <m_primary>  (45) 
energy

>  <meeko>  (45) 
{"free_energy": -8.69, "intermolecular_energy": -9.89, "internal_energy": -1.1, "cluster_size": 18, "cluster_id": 1, "rank_in_cluster": 15}

>  <energy>  (45) 
-8.87

>  <cluster_rmsd>  (45) 
0.82

>  <rmsd>  (45) 
271.8

>  <cluster>  (45) 
1

$$$$
DSYBMJCSYFRFMG-UHFFFAOYNA-N
     RDKit          3D

 67 72  0  0  0  0  0  0  0  0999 V2000
  145.9970   73.7420  220.8500 C   0  0  0  0  0  0  0  0  0  0  0  0
  146.3650   72.5080  220.1470 N   0  0  0  0  0  0  0  0  0  0  0  0
  145.5390   72.2940  218.9410 C   0  0  0  0  0  0  0  0  0  0  0  0
  144.7530   73.5820  218.5360 C   0  0  0  0  0  0  0  0  0  0  0  0
  143.2340   73.3810  218.4960 C   0  0  0  0  0  0  0  0  0  0  0  0
  142.7960   72.6960  219.7220 N   0  0  0  0  0  0  0  0  0  0  0  0
  141.7980   73.2700  220.5920 C   0  0  0  0  0  0  0  0  0  0  0  0
  141.5720   74.6100  220.5790 N   0  0  0  0  0  0  0  0  0  0  0  0
  140.6080   75.1620  221.3600 C   0  0  0  0  0  0  0  0  0  0  0  0
  140.3600   76.5840  221.3210 N   0  0  0  0  0  0  0  0  0  0  0  0
  140.5370   77.3620  220.0920 C   0  0  0  0  0  0  0  0  0  0  0  0
  141.7640   78.2600  220.2500 C   0  0  0  0  0  0  0  0  0  0  0  0
  141.7480   79.0040  221.5640 C   0  0  0  0  0  0  0  0  0  0  0  0
  142.5760   80.1260  221.7240 C   0  0  0  0  0  0  0  0  0  0  0  0
  142.6210   80.8060  222.9430 C   0  0  0  0  0  0  0  0  0  0  0  0
  141.8480   80.3660  224.0190 C   0  0  0  0  0  0  0  0  0  0  0  0
  141.0310   79.2410  223.8820 C   0  0  0  0  0  0  0  0  0  0  0  0
  140.9840   78.5400  222.6660 C   0  0  0  0  0  0  0  0  0  0  0  0
  140.0620   77.3490  222.5400 C   0  0  0  0  0  0  0  0  0  0  0  0
  139.8640   74.3550  222.1620 N   0  0  0  0  0  0  0  0  0  0  0  0
  140.0810   73.0140  222.1950 C   0  0  0  0  0  0  0  0  0  0  0  0
  139.2730   72.1690  223.0410 N   0  0  0  0  0  0  0  0  0  0  0  0
  139.8560   71.5070  224.2150 C   0  0  0  0  0  0  0  0  0  0  0  0
  139.3360   70.0780  224.3170 C   0  0  0  0  0  0  0  0  0  0  0  0
  137.8350   70.0680  224.3220 C   0  0  0  0  0  0  0  0  0  0  0  0
  137.1430   69.0320  224.9730 C   0  0  0  0  0  0  0  0  0  0  0  0
  135.7470   68.9970  224.9570 C   0  0  0  0  0  0  0  0  0  0  0  0
  135.0300   69.9890  224.2850 C   0  0  0  0  0  0  0  0  0  0  0  0
  135.7080   71.0110  223.6140 C   0  0  0  0  0  0  0  0  0  0  0  0
  137.1120   71.0580  223.6210 C   0  0  0  0  0  0  0  0  0  0  0  0
  137.8140   72.1410  222.8320 C   0  0  0  0  0  0  0  0  0  0  0  0
  141.0490   72.4800  221.4040 N   0  0  0  0  0  0  0  0  0  0  0  0
  143.4440   71.4320  220.1060 C   0  0  0  0  0  0  0  0  0  0  0  0
  144.6130   71.0810  219.1750 C   0  0  0  0  0  0  0  0  0  0  0  0
  146.0470   73.5742  221.9360 H   0  0  0  0  0  0  0  0  0  0  0  0
  146.6947   74.5452  220.5706 H   0  0  0  0  0  0  0  0  0  0  0  0
  144.9733   74.0318  220.5706 H   0  0  0  0  0  0  0  0  0  0  0  0
  146.2550   71.7010  220.8050 H   0  0  0  0  0  0  0  0  0  0  0  0
  146.1949   72.0725  218.0862 H   0  0  0  0  0  0  0  0  0  0  0  0
  144.9809   74.3733  219.2653 H   0  0  0  0  0  0  0  0  0  0  0  0
  145.0719   73.8503  217.5180 H   0  0  0  0  0  0  0  0  0  0  0  0
  142.7367   74.3596  218.4255 H   0  0  0  0  0  0  0  0  0  0  0  0
  142.9686   72.7700  217.6206 H   0  0  0  0  0  0  0  0  0  0  0  0
  140.6846   76.6806  219.2411 H   0  0  0  0  0  0  0  0  0  0  0  0
  139.6444   77.9778  219.9076 H   0  0  0  0  0  0  0  0  0  0  0  0
  142.6695   77.6371  220.2043 H   0  0  0  0  0  0  0  0  0  0  0  0
  141.7529   79.0009  219.4370 H   0  0  0  0  0  0  0  0  0  0  0  0
  143.1943   80.4724  220.8827 H   0  0  0  0  0  0  0  0  0  0  0  0
  143.2665   81.6896  223.0555 H   0  0  0  0  0  0  0  0  0  0  0  0
  141.8823   80.9062  224.9766 H   0  0  0  0  0  0  0  0  0  0  0  0
  140.4206   78.9021  224.7321 H   0  0  0  0  0  0  0  0  0  0  0  0
  140.1937   76.6969  223.4160 H   0  0  0  0  0  0  0  0  0  0  0  0
  139.0247   77.7109  222.4840 H   0  0  0  0  0  0  0  0  0  0  0  0
  140.9516   71.4903  224.1176 H   0  0  0  0  0  0  0  0  0  0  0  0
  139.5714   72.0613  225.1215 H   0  0  0  0  0  0  0  0  0  0  0  0
  139.6997   69.4974  223.4564 H   0  0  0  0  0  0  0  0  0  0  0  0
  139.6995   69.6314  225.2542 H   0  0  0  0  0  0  0  0  0  0  0  0
  137.7040   68.2447  225.4978 H   0  0  0  0  0  0  0  0  0  0  0  0
  135.2117   68.1871  225.4743 H   0  0  0  0  0  0  0  0  0  0  0  0
  133.9302   69.9663  224.2836 H   0  0  0  0  0  0  0  0  0  0  0  0
  135.1382   71.7836  223.0769 H   0  0  0  0  0  0  0  0  0  0  0  0
  137.6186   71.9746  221.7623 H   0  0  0  0  0  0  0  0  0  0  0  0
  137.4183   73.1053  223.1834 H   0  0  0  0  0  0  0  0  0  0  0  0
  143.8240   71.5254  221.1340 H   0  0  0  0  0  0  0  0  0  0  0  0
  142.6958   70.6292  220.0306 H   0  0  0  0  0  0  0  0  0  0  0  0
  145.1984   70.2676  219.6285 H   0  0  0  0  0  0  0  0  0  0  0  0
  144.1982   70.7732  218.2038 H   0  0  0  0  0  0  0  0  0  0  0  0
  1  2  1  0
  2  3  1  0
  3  4  1  0
  4  5  1  0
  5  6  1  0
  6  7  1  0
  7  8  2  0
  8  9  1  0
  9 10  1  0
 10 11  1  0
 11 12  1  0
 12 13  1  0
 13 14  2  0
 14 15  1  0
 15 16  2  0
 16 17  1  0
 17 18  2  0
 18 19  1  0
  9 20  2  0
 20 21  1  0
 21 22  1  0
 22 23  1  0
 23 24  1  0
 24 25  1  0
 25 26  2  0
 26 27  1  0
 27 28  2  0
 28 29  1  0
 29 30  2  0
 30 31  1  0
 21 32  2  0
  6 33  1  0
 33 34  1  0
 34  3  1  0
 32  7  1  0
 19 10  1  0
 31 22  1  0
 18 13  1  0
 30 25  1  0
  1 35  1  0
  1 36  1  0
  1 37  1  0
  2 38  1  0
  3 39  1  0
  4 40  1  0
  4 41  1  0
  5 42  1  0
  5 43  1  0
 11 44  1  0
 11 45  1  0
 12 46  1  0
 12 47  1  0
 14 48  1  0
 15 49  1  0
 16 50  1  0
 17 51  1  0
 19 52  1  0
 19 53  1  0
 23 54  1  0
 23 55  1  0
 24 56  1  0
 24 57  1  0
 26 58  1  0
 27 59  1  0
 28 60  1  0
 29 61  1  0
 31 62  1  0
 31 63  1  0
 33 64  1  0
 33 65  1  0
 34 66  1  0
 34 67  1  0
M  END
>  <UniqueID>  (46) 
59

>  <SMILES>  (46) 
CNC1CCN(c2nc(N3CCc4ccccc4C3)nc(N3CCc4ccccc4C3)n2)CC1

>  <Energy>  (46) 
81.65917992965035

>  <Genealogy>  (46) 
CNC1CCN(c2nc(N3CCc4ccccc4C3)nc(N3CCc4ccccc4C3)n2)CC1 (3D coordinates assigned)
CNC1CCN(c2nc(N3CCc4ccccc4C3)nc(N3CCc4ccccc4C3)n2)CC1 (nonaromatic ring conformer: 81.65917992965035 kcal/mol)

>  <smiles>  (46) 
CNC1CCN(c2nc(N3CCc4ccccc4C3)nc(N3CCc4ccccc4C3)n2)CC1

>  <score_type>  (46) 
oracle

>  <origin>  (46) 
autodockgpu

>  <m_score__min__energy>  (46) 
-8.9900000000000002

>  <m_primary>  (46) 
energy

>  <meeko>  (46) 
{"free_energy": -8.83, "intermolecular_energy": -10.02, "internal_energy": -1.05, "cluster_size": 18, "cluster_id": 1, "rank_in_cluster": 11}

>  <energy>  (46) 
-8.86

>  <cluster_rmsd>  (46) 
0.75

>  <rmsd>  (46) 
271.77

>  <cluster>  (46) 
1

$$$$
DSYBMJCSYFRFMG-UHFFFAOYNA-N
     RDKit          3D

 67 72  0  0  0  0  0  0  0  0999 V2000
  143.4630   75.9170  217.0700 C   0  0  0  0  0  0  0  0  0  0  0  0
  144.5930   75.1820  216.4930 N   0  0  0  0  0  0  0  0  0  0  0  0
  144.3280   73.7300  216.4200 C   0  0  0  0  0  0  0  0  0  0  0  0
  142.7980   73.4160  216.4270 C   0  0  0  0  0  0  0  0  0  0  0  0
  142.3680   72.5090  217.5850 C   0  0  0  0  0  0  0  0  0  0  0  0
  142.9460   73.0090  218.8430 N   0  0  0  0  0  0  0  0  0  0  0  0
  142.1170   73.3450  219.9750 C   0  0  0  0  0  0  0  0  0  0  0  0
  141.7190   74.6290  220.1710 N   0  0  0  0  0  0  0  0  0  0  0  0
  140.9040   74.9550  221.2070 C   0  0  0  0  0  0  0  0  0  0  0  0
  140.4670   76.3200  221.3930 N   0  0  0  0  0  0  0  0  0  0  0  0
  140.1350   77.1820  220.2560 C   0  0  0  0  0  0  0  0  0  0  0  0
  141.2150   78.2550  220.1190 C   0  0  0  0  0  0  0  0  0  0  0  0
  141.5210   78.9130  221.4430 C   0  0  0  0  0  0  0  0  0  0  0  0
  142.1980   80.1430  221.4530 C   0  0  0  0  0  0  0  0  0  0  0  0
  142.5400   80.7530  222.6630 C   0  0  0  0  0  0  0  0  0  0  0  0
  142.2190   80.1370  223.8740 C   0  0  0  0  0  0  0  0  0  0  0  0
  141.5610   78.9050  223.8810 C   0  0  0  0  0  0  0  0  0  0  0  0
  141.2210   78.2740  222.6730 C   0  0  0  0  0  0  0  0  0  0  0  0
  140.4760   76.9590  222.7160 C   0  0  0  0  0  0  0  0  0  0  0  0
  140.4860   73.9770  222.0530 N   0  0  0  0  0  0  0  0  0  0  0  0
  140.8800   72.6890  221.8780 C   0  0  0  0  0  0  0  0  0  0  0  0
  140.4150   71.6600  222.7770 N   0  0  0  0  0  0  0  0  0  0  0  0
  139.4900   70.6190  222.3090 C   0  0  0  0  0  0  0  0  0  0  0  0
  138.4240   70.3590  223.3680 C   0  0  0  0  0  0  0  0  0  0  0  0
  139.0650   70.0270  224.6840 C   0  0  0  0  0  0  0  0  0  0  0  0
  138.3910   69.2070  225.6050 C   0  0  0  0  0  0  0  0  0  0  0  0
  138.9660   68.9170  226.8440 C   0  0  0  0  0  0  0  0  0  0  0  0
  140.2130   69.4500  227.1790 C   0  0  0  0  0  0  0  0  0  0  0  0
  140.8820   70.2860  226.2800 C   0  0  0  0  0  0  0  0  0  0  0  0
  140.3150   70.5860  225.0300 C   0  0  0  0  0  0  0  0  0  0  0  0
  141.0350   71.5450  224.1090 C   0  0  0  0  0  0  0  0  0  0  0  0
  141.6940   72.3820  220.8350 N   0  0  0  0  0  0  0  0  0  0  0  0
  144.3970   73.2420  218.9200 C   0  0  0  0  0  0  0  0  0  0  0  0
  145.0860   73.0230  217.5640 C   0  0  0  0  0  0  0  0  0  0  0  0
  143.5225   75.8783  218.1677 H   0  0  0  0  0  0  0  0  0  0  0  0
  143.4991   76.9649  216.7376 H   0  0  0  0  0  0  0  0  0  0  0  0
  142.5197   75.4592  216.7376 H   0  0  0  0  0  0  0  0  0  0  0  0
  145.4440   75.3630  217.0760 H   0  0  0  0  0  0  0  0  0  0  0  0
  144.7009   73.3399  215.4615 H   0  0  0  0  0  0  0  0  0  0  0  0
  142.2476   74.3652  216.5047 H   0  0  0  0  0  0  0  0  0  0  0  0
  142.5724   72.8797  215.4935 H   0  0  0  0  0  0  0  0  0  0  0  0
  141.2706   72.5075  217.6612 H   0  0  0  0  0  0  0  0  0  0  0  0
  142.7250   71.4852  217.3998 H   0  0  0  0  0  0  0  0  0  0  0  0
  140.0928   76.5805  219.3360 H   0  0  0  0  0  0  0  0  0  0  0  0
  139.1560   77.6561  220.4199 H   0  0  0  0  0  0  0  0  0  0  0  0
  142.1332   77.7890  219.7321 H   0  0  0  0  0  0  0  0  0  0  0  0
  140.8442   79.0281  219.4300 H   0  0  0  0  0  0  0  0  0  0  0  0
  142.4609   80.6297  220.5022 H   0  0  0  0  0  0  0  0  0  0  0  0
  143.0632   81.7206  222.6612 H   0  0  0  0  0  0  0  0  0  0  0  0
  142.4848   80.6228  224.8244 H   0  0  0  0  0  0  0  0  0  0  0  0
  141.3076   78.4260  224.8382 H   0  0  0  0  0  0  0  0  0  0  0  0
  140.9682   76.2892  223.4365 H   0  0  0  0  0  0  0  0  0  0  0  0
  139.4369   77.1527  223.0207 H   0  0  0  0  0  0  0  0  0  0  0  0
  139.0066   70.9518  221.3787 H   0  0  0  0  0  0  0  0  0  0  0  0
  140.0516   69.6913  222.1245 H   0  0  0  0  0  0  0  0  0  0  0  0
  137.8016   71.2585  223.4845 H   0  0  0  0  0  0  0  0  0  0  0  0
  137.8031   69.5090  223.0486 H   0  0  0  0  0  0  0  0  0  0  0  0
  137.4053   68.7914  225.3485 H   0  0  0  0  0  0  0  0  0  0  0  0
  138.4364   68.2681  227.5570 H   0  0  0  0  0  0  0  0  0  0  0  0
  140.6691   69.2117  228.1512 H   0  0  0  0  0  0  0  0  0  0  0  0
  141.8588   70.7117  226.5532 H   0  0  0  0  0  0  0  0  0  0  0  0
  141.0397   72.5401  224.5777 H   0  0  0  0  0  0  0  0  0  0  0  0
  142.0502   71.1486  223.9596 H   0  0  0  0  0  0  0  0  0  0  0  0
  144.5740   74.2777  219.2455 H   0  0  0  0  0  0  0  0  0  0  0  0
  144.8199   72.5229  219.6370 H   0  0  0  0  0  0  0  0  0  0  0  0
  146.1093   73.4233  217.6149 H   0  0  0  0  0  0  0  0  0  0  0  0
  145.0962   71.9433  217.3539 H   0  0  0  0  0  0  0  0  0  0  0  0
  1  2  1  0
  2  3  1  0
  3  4  1  0
  4  5  1  0
  5  6  1  0
  6  7  1  0
  7  8  2  0
  8  9  1  0
  9 10  1  0
 10 11  1  0
 11 12  1  0
 12 13  1  0
 13 14  2  0
 14 15  1  0
 15 16  2  0
 16 17  1  0
 17 18  2  0
 18 19  1  0
  9 20  2  0
 20 21  1  0
 21 22  1  0
 22 23  1  0
 23 24  1  0
 24 25  1  0
 25 26  2  0
 26 27  1  0
 27 28  2  0
 28 29  1  0
 29 30  2  0
 30 31  1  0
 21 32  2  0
  6 33  1  0
 33 34  1  0
 34  3  1  0
 32  7  1  0
 19 10  1  0
 31 22  1  0
 18 13  1  0
 30 25  1  0
  1 35  1  0
  1 36  1  0
  1 37  1  0
  2 38  1  0
  3 39  1  0
  4 40  1  0
  4 41  1  0
  5 42  1  0
  5 43  1  0
 11 44  1  0
 11 45  1  0
 12 46  1  0
 12 47  1  0
 14 48  1  0
 15 49  1  0
 16 50  1  0
 17 51  1  0
 19 52  1  0
 19 53  1  0
 23 54  1  0
 23 55  1  0
 24 56  1  0
 24 57  1  0
 26 58  1  0
 27 59  1  0
 28 60  1  0
 29 61  1  0
 31 62  1  0
 31 63  1  0
 33 64  1  0
 33 65  1  0
 34 66  1  0
 34 67  1  0
M  END
>  <UniqueID>  (47) 
59

>  <SMILES>  (47) 
CNC1CCN(c2nc(N3CCc4ccccc4C3)nc(N3CCc4ccccc4C3)n2)CC1

>  <Energy>  (47) 
81.65917992965035

>  <Genealogy>  (47) 
CNC1CCN(c2nc(N3CCc4ccccc4C3)nc(N3CCc4ccccc4C3)n2)CC1 (3D coordinates assigned)
CNC1CCN(c2nc(N3CCc4ccccc4C3)nc(N3CCc4ccccc4C3)n2)CC1 (nonaromatic ring conformer: 81.65917992965035 kcal/mol)

>  <smiles>  (47) 
CNC1CCN(c2nc(N3CCc4ccccc4C3)nc(N3CCc4ccccc4C3)n2)CC1

>  <score_type>  (47) 
oracle

>  <origin>  (47) 
autodockgpu

>  <m_score__min__energy>  (47) 
-8.9900000000000002

>  <m_primary>  (47) 
energy

>  <meeko>  (47) 
{"free_energy": -8.63, "intermolecular_energy": -9.83, "internal_energy": -1.1, "cluster_size": 18, "cluster_id": 1, "rank_in_cluster": 18}

>  <energy>  (47) 
-8.86

>  <cluster_rmsd>  (47) 
0.77

>  <rmsd>  (47) 
271.79

>  <cluster>  (47) 
1

$$$$
DSYBMJCSYFRFMG-UHFFFAOYNA-N
     RDKit          3D

 67 72  0  0  0  0  0  0  0  0999 V2000
  145.9640   73.7790  220.8560 C   0  0  0  0  0  0  0  0  0  0  0  0
  146.4010   72.5690  220.1530 N   0  0  0  0  0  0  0  0  0  0  0  0
  145.5740   72.2960  218.9590 C   0  0  0  0  0  0  0  0  0  0  0  0
  144.7550   73.5500  218.5180 C   0  0  0  0  0  0  0  0  0  0  0  0
  143.2410   73.3110  218.4940 C   0  0  0  0  0  0  0  0  0  0  0  0
  142.8260   72.6570  219.7440 N   0  0  0  0  0  0  0  0  0  0  0  0
  141.8200   73.2340  220.6020 C   0  0  0  0  0  0  0  0  0  0  0  0
  141.5910   74.5730  220.5770 N   0  0  0  0  0  0  0  0  0  0  0  0
  140.6190   75.1290  221.3450 C   0  0  0  0  0  0  0  0  0  0  0  0
  140.3670   76.5500  221.2930 N   0  0  0  0  0  0  0  0  0  0  0  0
  140.5650   77.3210  220.0640 C   0  0  0  0  0  0  0  0  0  0  0  0
  141.7860   78.2240  220.2380 C   0  0  0  0  0  0  0  0  0  0  0  0
  141.7440   78.9750  221.5480 C   0  0  0  0  0  0  0  0  0  0  0  0
  142.5660   80.1010  221.7160 C   0  0  0  0  0  0  0  0  0  0  0  0
  142.5870   80.7880  222.9320 C   0  0  0  0  0  0  0  0  0  0  0  0
  141.7940   80.3520  223.9960 C   0  0  0  0  0  0  0  0  0  0  0  0
  140.9840   79.2240  223.8510 C   0  0  0  0  0  0  0  0  0  0  0  0
  140.9610   78.5160  222.6380 C   0  0  0  0  0  0  0  0  0  0  0  0
  140.0450   77.3210  222.5020 C   0  0  0  0  0  0  0  0  0  0  0  0
  139.8700   74.3260  222.1470 N   0  0  0  0  0  0  0  0  0  0  0  0
  140.0900   72.9860  222.1920 C   0  0  0  0  0  0  0  0  0  0  0  0
  139.2760   72.1460  223.0370 N   0  0  0  0  0  0  0  0  0  0  0  0
  139.8470   71.5100  224.2330 C   0  0  0  0  0  0  0  0  0  0  0  0
  139.3420   70.0770  224.3490 C   0  0  0  0  0  0  0  0  0  0  0  0
  137.8410   70.0480  224.3280 C   0  0  0  0  0  0  0  0  0  0  0  0
  137.1500   69.0150  224.9830 C   0  0  0  0  0  0  0  0  0  0  0  0
  135.7550   68.9620  224.9430 C   0  0  0  0  0  0  0  0  0  0  0  0
  135.0380   69.9350  224.2420 C   0  0  0  0  0  0  0  0  0  0  0  0
  135.7170   70.9540  223.5660 C   0  0  0  0  0  0  0  0  0  0  0  0
  137.1190   71.0180  223.5970 C   0  0  0  0  0  0  0  0  0  0  0  0
  137.8220   72.0960  222.8030 C   0  0  0  0  0  0  0  0  0  0  0  0
  141.0660   72.4490  221.4140 N   0  0  0  0  0  0  0  0  0  0  0  0
  143.5070   71.4220  220.1660 C   0  0  0  0  0  0  0  0  0  0  0  0
  144.6800   71.0690  219.2390 C   0  0  0  0  0  0  0  0  0  0  0  0
  146.0236   73.6139  221.9419 H   0  0  0  0  0  0  0  0  0  0  0  0
  146.6150   74.6206  220.5768 H   0  0  0  0  0  0  0  0  0  0  0  0
  144.9255   74.0104  220.5768 H   0  0  0  0  0  0  0  0  0  0  0  0
  146.3540   71.7600  220.8160 H   0  0  0  0  0  0  0  0  0  0  0  0
  146.2298   72.0633  218.1071 H   0  0  0  0  0  0  0  0  0  0  0  0
  144.9675   74.3697  219.2201 H   0  0  0  0  0  0  0  0  0  0  0  0
  145.0617   73.7929  217.4899 H   0  0  0  0  0  0  0  0  0  0  0  0
  142.7196   74.2744  218.3941 H   0  0  0  0  0  0  0  0  0  0  0  0
  142.9862   72.6648  217.6411 H   0  0  0  0  0  0  0  0  0  0  0  0
  140.7302   76.6350  219.2202 H   0  0  0  0  0  0  0  0  0  0  0  0
  139.6742   77.9334  219.8603 H   0  0  0  0  0  0  0  0  0  0  0  0
  142.6943   77.6042  220.2115 H   0  0  0  0  0  0  0  0  0  0  0  0
  141.7869   78.9603  219.4208 H   0  0  0  0  0  0  0  0  0  0  0  0
  143.1980   80.4446  220.8839 H   0  0  0  0  0  0  0  0  0  0  0  0
  143.2287   81.6733  223.0518 H   0  0  0  0  0  0  0  0  0  0  0  0
  141.8077   80.8986  224.9505 H   0  0  0  0  0  0  0  0  0  0  0  0
  140.3599   78.8876  224.6920 H   0  0  0  0  0  0  0  0  0  0  0  0
  140.1630   76.6743  223.3839 H   0  0  0  0  0  0  0  0  0  0  0  0
  139.0079   77.6794  222.4252 H   0  0  0  0  0  0  0  0  0  0  0  0
  140.9442   71.5049  224.1549 H   0  0  0  0  0  0  0  0  0  0  0  0
  139.5406   72.0755  225.1254 H   0  0  0  0  0  0  0  0  0  0  0  0
  139.7278   69.4872  223.5044 H   0  0  0  0  0  0  0  0  0  0  0  0
  139.6940   69.6504  225.2998 H   0  0  0  0  0  0  0  0  0  0  0  0
  137.7110   68.2434  225.5306 H   0  0  0  0  0  0  0  0  0  0  0  0
  135.2205   68.1538  225.4636 H   0  0  0  0  0  0  0  0  0  0  0  0
  133.9388   69.8996  224.2218 H   0  0  0  0  0  0  0  0  0  0  0  0
  135.1482   71.7108  223.0059 H   0  0  0  0  0  0  0  0  0  0  0  0
  137.6480   71.9095  221.7330 H   0  0  0  0  0  0  0  0  0  0  0  0
  137.4085   73.0609  223.1315 H   0  0  0  0  0  0  0  0  0  0  0  0
  143.8901   71.5586  221.1880 H   0  0  0  0  0  0  0  0  0  0  0  0
  142.7784   70.5990  220.1222 H   0  0  0  0  0  0  0  0  0  0  0  0
  145.2880   70.2859  219.7155 H   0  0  0  0  0  0  0  0  0  0  0  0
  144.2675   70.7188  218.2813 H   0  0  0  0  0  0  0  0  0  0  0  0
  1  2  1  0
  2  3  1  0
  3  4  1  0
  4  5  1  0
  5  6  1  0
  6  7  1  0
  7  8  2  0
  8  9  1  0
  9 10  1  0
 10 11  1  0
 11 12  1  0
 12 13  1  0
 13 14  2  0
 14 15  1  0
 15 16  2  0
 16 17  1  0
 17 18  2  0
 18 19  1  0
  9 20  2  0
 20 21  1  0
 21 22  1  0
 22 23  1  0
 23 24  1  0
 24 25  1  0
 25 26  2  0
 26 27  1  0
 27 28  2  0
 28 29  1  0
 29 30  2  0
 30 31  1  0
 21 32  2  0
  6 33  1  0
 33 34  1  0
 34  3  1  0
 32  7  1  0
 19 10  1  0
 31 22  1  0
 18 13  1  0
 30 25  1  0
  1 35  1  0
  1 36  1  0
  1 37  1  0
  2 38  1  0
  3 39  1  0
  4 40  1  0
  4 41  1  0
  5 42  1  0
  5 43  1  0
 11 44  1  0
 11 45  1  0
 12 46  1  0
 12 47  1  0
 14 48  1  0
 15 49  1  0
 16 50  1  0
 17 51  1  0
 19 52  1  0
 19 53  1  0
 23 54  1  0
 23 55  1  0
 24 56  1  0
 24 57  1  0
 26 58  1  0
 27 59  1  0
 28 60  1  0
 29 61  1  0
 31 62  1  0
 31 63  1  0
 33 64  1  0
 33 65  1  0
 34 66  1  0
 34 67  1  0
M  END
>  <UniqueID>  (48) 
59

>  <SMILES>  (48) 
CNC1CCN(c2nc(N3CCc4ccccc4C3)nc(N3CCc4ccccc4C3)n2)CC1

>  <Energy>  (48) 
81.65917992965035

>  <Genealogy>  (48) 
CNC1CCN(c2nc(N3CCc4ccccc4C3)nc(N3CCc4ccccc4C3)n2)CC1 (3D coordinates assigned)
CNC1CCN(c2nc(N3CCc4ccccc4C3)nc(N3CCc4ccccc4C3)n2)CC1 (nonaromatic ring conformer: 81.65917992965035 kcal/mol)

>  <smiles>  (48) 
CNC1CCN(c2nc(N3CCc4ccccc4C3)nc(N3CCc4ccccc4C3)n2)CC1

>  <score_type>  (48) 
oracle

>  <origin>  (48) 
autodockgpu

>  <m_score__min__energy>  (48) 
-8.9900000000000002

>  <m_primary>  (48) 
energy

>  <meeko>  (48) 
{"free_energy": -8.84, "intermolecular_energy": -10.03, "internal_energy": -1.05, "cluster_size": 18, "cluster_id": 1, "rank_in_cluster": 9}

>  <energy>  (48) 
-8.86

>  <cluster_rmsd>  (48) 
1.26

>  <rmsd>  (48) 
271.97

>  <cluster>  (48) 
1

$$$$
DSYBMJCSYFRFMG-UHFFFAOYNA-N
     RDKit          3D

 67 72  0  0  0  0  0  0  0  0999 V2000
  143.6910   75.6520  217.0400 C   0  0  0  0  0  0  0  0  0  0  0  0
  144.7450   74.6860  216.7140 N   0  0  0  0  0  0  0  0  0  0  0  0
  144.2060   73.3230  216.5270 C   0  0  0  0  0  0  0  0  0  0  0  0
  142.6440   73.3100  216.5230 C   0  0  0  0  0  0  0  0  0  0  0  0
  142.0400   72.4130  217.6090 C   0  0  0  0  0  0  0  0  0  0  0  0
  142.6950   72.6900  218.8970 N   0  0  0  0  0  0  0  0  0  0  0  0
  141.9390   73.0860  220.0600 C   0  0  0  0  0  0  0  0  0  0  0  0
  141.5500   74.3790  220.2110 N   0  0  0  0  0  0  0  0  0  0  0  0
  140.8010   74.7620  221.2770 C   0  0  0  0  0  0  0  0  0  0  0  0
  140.3720   76.1340  221.4160 N   0  0  0  0  0  0  0  0  0  0  0  0
  140.0540   76.9620  220.2500 C   0  0  0  0  0  0  0  0  0  0  0  0
  141.1420   78.0220  220.0860 C   0  0  0  0  0  0  0  0  0  0  0  0
  141.4440   78.7210  221.3910 C   0  0  0  0  0  0  0  0  0  0  0  0
  142.1290   79.9470  221.3660 C   0  0  0  0  0  0  0  0  0  0  0  0
  142.4670   80.5930  222.5570 C   0  0  0  0  0  0  0  0  0  0  0  0
  142.1330   80.0180  223.7850 C   0  0  0  0  0  0  0  0  0  0  0  0
  141.4670   78.7910  223.8270 C   0  0  0  0  0  0  0  0  0  0  0  0
  141.1310   78.1240  222.6380 C   0  0  0  0  0  0  0  0  0  0  0  0
  140.3770   76.8160  222.7180 C   0  0  0  0  0  0  0  0  0  0  0  0
  140.4410   73.8310  222.2000 N   0  0  0  0  0  0  0  0  0  0  0  0
  140.8280   72.5360  222.0710 C   0  0  0  0  0  0  0  0  0  0  0  0
  140.4250   71.5570  223.0530 N   0  0  0  0  0  0  0  0  0  0  0  0
  139.5440   70.4420  222.6800 C   0  0  0  0  0  0  0  0  0  0  0  0
  138.5060   70.2140  223.7730 C   0  0  0  0  0  0  0  0  0  0  0  0
  139.1810   70.0120  225.1000 C   0  0  0  0  0  0  0  0  0  0  0  0
  138.5590   69.2340  226.0910 C   0  0  0  0  0  0  0  0  0  0  0  0
  139.1640   69.0660  227.3380 C   0  0  0  0  0  0  0  0  0  0  0  0
  140.3890   69.6790  227.6100 C   0  0  0  0  0  0  0  0  0  0  0  0
  141.0050   70.4750  226.6400 C   0  0  0  0  0  0  0  0  0  0  0  0
  140.4070   70.6530  225.3810 C   0  0  0  0  0  0  0  0  0  0  0  0
  141.0680   71.5720  224.3790 C   0  0  0  0  0  0  0  0  0  0  0  0
  141.5740   72.1720  220.9960 N   0  0  0  0  0  0  0  0  0  0  0  0
  144.1630   72.6320  218.9790 C   0  0  0  0  0  0  0  0  0  0  0  0
  144.8060   72.3940  217.6050 C   0  0  0  0  0  0  0  0  0  0  0  0
  143.5974   75.7378  218.1326 H   0  0  0  0  0  0  0  0  0  0  0  0
  143.9493   76.6336  216.6159 H   0  0  0  0  0  0  0  0  0  0  0  0
  142.7356   75.3093  216.6159 H   0  0  0  0  0  0  0  0  0  0  0  0
  145.4540   74.6900  217.4840 H   0  0  0  0  0  0  0  0  0  0  0  0
  144.5031   72.9465  215.5370 H   0  0  0  0  0  0  0  0  0  0  0  0
  142.2863   74.3381  216.6812 H   0  0  0  0  0  0  0  0  0  0  0  0
  142.3251   72.9037  215.5518 H   0  0  0  0  0  0  0  0  0  0  0  0
  140.9624   72.6166  217.6948 H   0  0  0  0  0  0  0  0  0  0  0  0
  142.1944   71.3578  217.3395 H   0  0  0  0  0  0  0  0  0  0  0  0
  140.0133   76.3318  219.3493 H   0  0  0  0  0  0  0  0  0  0  0  0
  139.0776   77.4482  220.3925 H   0  0  0  0  0  0  0  0  0  0  0  0
  142.0595   77.5373  219.7208 H   0  0  0  0  0  0  0  0  0  0  0  0
  140.7813   78.7749  219.3697 H   0  0  0  0  0  0  0  0  0  0  0  0
  142.4010   80.4013  220.4018 H   0  0  0  0  0  0  0  0  0  0  0  0
  142.9972   81.5564  222.5278 H   0  0  0  0  0  0  0  0  0  0  0  0
  142.3950   80.5325  224.7213 H   0  0  0  0  0  0  0  0  0  0  0  0
  141.2041   78.3445  224.7973 H   0  0  0  0  0  0  0  0  0  0  0  0
  140.8600   76.1667  223.4630 H   0  0  0  0  0  0  0  0  0  0  0  0
  139.3373   77.0265  223.0089 H   0  0  0  0  0  0  0  0  0  0  0  0
  139.0330   70.6809  221.7356 H   0  0  0  0  0  0  0  0  0  0  0  0
  140.1463   69.5299  222.5561 H   0  0  0  0  0  0  0  0  0  0  0  0
  137.8435   71.0901  223.8326 H   0  0  0  0  0  0  0  0  0  0  0  0
  137.9212   69.3149  223.5288 H   0  0  0  0  0  0  0  0  0  0  0  0
  137.5908   68.7550  225.8834 H   0  0  0  0  0  0  0  0  0  0  0  0
  138.6752   68.4500  228.1072 H   0  0  0  0  0  0  0  0  0  0  0  0
  140.8698   69.5352  228.5889 H   0  0  0  0  0  0  0  0  0  0  0  0
  141.9640   70.9652  226.8637 H   0  0  0  0  0  0  0  0  0  0  0  0
  141.0317   72.5988  224.7718 H   0  0  0  0  0  0  0  0  0  0  0  0
  142.0989   71.2133  224.2424 H   0  0  0  0  0  0  0  0  0  0  0  0
  144.5341   73.5847  219.3847 H   0  0  0  0  0  0  0  0  0  0  0  0
  144.4342   71.7894  219.6320 H   0  0  0  0  0  0  0  0  0  0  0  0
  145.8868   72.5847  217.6790 H   0  0  0  0  0  0  0  0  0  0  0  0
  144.6097   71.3528  217.3094 H   0  0  0  0  0  0  0  0  0  0  0  0
  1  2  1  0
  2  3  1  0
  3  4  1  0
  4  5  1  0
  5  6  1  0
  6  7  1  0
  7  8  2  0
  8  9  1  0
  9 10  1  0
 10 11  1  0
 11 12  1  0
 12 13  1  0
 13 14  2  0
 14 15  1  0
 15 16  2  0
 16 17  1  0
 17 18  2  0
 18 19  1  0
  9 20  2  0
 20 21  1  0
 21 22  1  0
 22 23  1  0
 23 24  1  0
 24 25  1  0
 25 26  2  0
 26 27  1  0
 27 28  2  0
 28 29  1  0
 29 30  2  0
 30 31  1  0
 21 32  2  0
  6 33  1  0
 33 34  1  0
 34  3  1  0
 32  7  1  0
 19 10  1  0
 31 22  1  0
 18 13  1  0
 30 25  1  0
  1 35  1  0
  1 36  1  0
  1 37  1  0
  2 38  1  0
  3 39  1  0
  4 40  1  0
  4 41  1  0
  5 42  1  0
  5 43  1  0
 11 44  1  0
 11 45  1  0
 12 46  1  0
 12 47  1  0
 14 48  1  0
 15 49  1  0
 16 50  1  0
 17 51  1  0
 19 52  1  0
 19 53  1  0
 23 54  1  0
 23 55  1  0
 24 56  1  0
 24 57  1  0
 26 58  1  0
 27 59  1  0
 28 60  1  0
 29 61  1  0
 31 62  1  0
 31 63  1  0
 33 64  1  0
 33 65  1  0
 34 66  1  0
 34 67  1  0
M  END
>  <UniqueID>  (49) 
59

>  <SMILES>  (49) 
CNC1CCN(c2nc(N3CCc4ccccc4C3)nc(N3CCc4ccccc4C3)n2)CC1

>  <Energy>  (49) 
81.65917992965035

>  <Genealogy>  (49) 
CNC1CCN(c2nc(N3CCc4ccccc4C3)nc(N3CCc4ccccc4C3)n2)CC1 (3D coordinates assigned)
CNC1CCN(c2nc(N3CCc4ccccc4C3)nc(N3CCc4ccccc4C3)n2)CC1 (nonaromatic ring conformer: 81.65917992965035 kcal/mol)

>  <smiles>  (49) 
CNC1CCN(c2nc(N3CCc4ccccc4C3)nc(N3CCc4ccccc4C3)n2)CC1

>  <score_type>  (49) 
oracle

>  <origin>  (49) 
autodockgpu

>  <m_score__min__energy>  (49) 
-8.9900000000000002

>  <m_primary>  (49) 
energy

>  <meeko>  (49) 
{"free_energy": -8.65, "intermolecular_energy": -9.84, "internal_energy": -1.09, "cluster_size": 18, "cluster_id": 1, "rank_in_cluster": 17}

>  <energy>  (49) 
-8.84

>  <cluster_rmsd>  (49) 
1.9

>  <rmsd>  (49) 
271.61

>  <cluster>  (49) 
1

$$$$
DSYBMJCSYFRFMG-UHFFFAOYNA-N
     RDKit          3D

 67 72  0  0  0  0  0  0  0  0999 V2000
  145.6970   73.1250  219.4900 C   0  0  0  0  0  0  0  0  0  0  0  0
  145.9370   72.2240  218.3590 N   0  0  0  0  0  0  0  0  0  0  0  0
  144.8080   72.2230  217.4060 C   0  0  0  0  0  0  0  0  0  0  0  0
  144.0220   73.5720  217.4320 C   0  0  0  0  0  0  0  0  0  0  0  0
  142.5380   73.4060  217.7780 C   0  0  0  0  0  0  0  0  0  0  0  0
  142.4020   72.5380  218.9590 N   0  0  0  0  0  0  0  0  0  0  0  0
  141.7100   72.9790  220.1450 C   0  0  0  0  0  0  0  0  0  0  0  0
  141.3130   74.2730  220.2610 N   0  0  0  0  0  0  0  0  0  0  0  0
  140.6230   74.6960  221.3510 C   0  0  0  0  0  0  0  0  0  0  0  0
  140.1860   76.0690  221.4540 N   0  0  0  0  0  0  0  0  0  0  0  0
  139.7980   76.8420  220.2720 C   0  0  0  0  0  0  0  0  0  0  0  0
  140.8630   77.9060  220.0070 C   0  0  0  0  0  0  0  0  0  0  0  0
  141.2230   78.6630  221.2640 C   0  0  0  0  0  0  0  0  0  0  0  0
  141.8910   79.8920  221.1520 C   0  0  0  0  0  0  0  0  0  0  0  0
  142.2820   80.5920  222.2960 C   0  0  0  0  0  0  0  0  0  0  0  0
  142.0180   80.0670  223.5630 C   0  0  0  0  0  0  0  0  0  0  0  0
  141.3700   78.8370  223.6910 C   0  0  0  0  0  0  0  0  0  0  0  0
  140.9810   78.1160  222.5500 C   0  0  0  0  0  0  0  0  0  0  0  0
  140.2480   76.8050  222.7240 C   0  0  0  0  0  0  0  0  0  0  0  0
  140.3290   73.8040  222.3340 N   0  0  0  0  0  0  0  0  0  0  0  0
  140.7240   72.5080  222.2400 C   0  0  0  0  0  0  0  0  0  0  0  0
  140.3910   71.5710  223.2860 N   0  0  0  0  0  0  0  0  0  0  0  0
  139.6920   70.3170  222.9730 C   0  0  0  0  0  0  0  0  0  0  0  0
  138.6240   70.0420  224.0260 C   0  0  0  0  0  0  0  0  0  0  0  0
  139.2310   70.0490  225.3990 C   0  0  0  0  0  0  0  0  0  0  0  0
  138.6550   69.2800  226.4240 C   0  0  0  0  0  0  0  0  0  0  0  0
  139.1940   69.3040  227.7120 C   0  0  0  0  0  0  0  0  0  0  0  0
  140.3060   70.1020  227.9910 C   0  0  0  0  0  0  0  0  0  0  0  0
  140.8730   70.8890  226.9840 C   0  0  0  0  0  0  0  0  0  0  0  0
  140.3410   70.8750  225.6850 C   0  0  0  0  0  0  0  0  0  0  0  0
  140.9390   71.7870  224.6370 C   0  0  0  0  0  0  0  0  0  0  0  0
  141.4120   72.1040  221.1400 N   0  0  0  0  0  0  0  0  0  0  0  0
  143.0520   71.2170  218.9540 C   0  0  0  0  0  0  0  0  0  0  0  0
  143.9070   71.0030  217.6960 C   0  0  0  0  0  0  0  0  0  0  0  0
  145.8429   72.5771  220.4326 H   0  0  0  0  0  0  0  0  0  0  0  0
  146.4019   73.9682  219.4431 H   0  0  0  0  0  0  0  0  0  0  0  0
  144.6661   73.5058  219.4431 H   0  0  0  0  0  0  0  0  0  0  0  0
  146.0970   71.2570  218.7280 H   0  0  0  0  0  0  0  0  0  0  0  0
  145.1973   72.1331  216.3811 H   0  0  0  0  0  0  0  0  0  0  0  0
  144.4836   74.2299  218.1831 H   0  0  0  0  0  0  0  0  0  0  0  0
  144.0734   73.9970  216.4187 H   0  0  0  0  0  0  0  0  0  0  0  0
  142.1000   74.3914  217.9952 H   0  0  0  0  0  0  0  0  0  0  0  0
  142.0124   72.9499  216.9261 H   0  0  0  0  0  0  0  0  0  0  0  0
  139.7195   76.1730  219.4023 H   0  0  0  0  0  0  0  0  0  0  0  0
  138.8239   77.3233  220.4437 H   0  0  0  0  0  0  0  0  0  0  0  0
  141.7665   77.4159  219.6151 H   0  0  0  0  0  0  0  0  0  0  0  0
  140.4563   78.6239  219.2795 H   0  0  0  0  0  0  0  0  0  0  0  0
  142.1082   80.3070  220.1567 H   0  0  0  0  0  0  0  0  0  0  0  0
  142.7986   81.5583  222.1987 H   0  0  0  0  0  0  0  0  0  0  0  0
  142.3213   80.6238  224.4619 H   0  0  0  0  0  0  0  0  0  0  0  0
  141.1628   78.4300  224.6917 H   0  0  0  0  0  0  0  0  0  0  0  0
  140.7760   76.1929  223.4700 H   0  0  0  0  0  0  0  0  0  0  0  0
  139.2219   77.0167  223.0591 H   0  0  0  0  0  0  0  0  0  0  0  0
  139.2167   70.4012  221.9846 H   0  0  0  0  0  0  0  0  0  0  0  0
  140.4169   69.4897  222.9675 H   0  0  0  0  0  0  0  0  0  0  0  0
  137.8487   70.8202  223.9682 H   0  0  0  0  0  0  0  0  0  0  0  0
  138.1809   69.0533  223.8361 H   0  0  0  0  0  0  0  0  0  0  0  0
  137.7748   68.6557  226.2108 H   0  0  0  0  0  0  0  0  0  0  0  0
  138.7423   68.6937  228.5079 H   0  0  0  0  0  0  0  0  0  0  0  0
  140.7358   70.1113  229.0035 H   0  0  0  0  0  0  0  0  0  0  0  0
  141.7422   71.5237  227.2113 H   0  0  0  0  0  0  0  0  0  0  0  0
  140.7426   72.8290  224.9296 H   0  0  0  0  0  0  0  0  0  0  0  0
  142.0147   71.5621  224.5890 H   0  0  0  0  0  0  0  0  0  0  0  0
  143.6977   71.1352  219.8408 H   0  0  0  0  0  0  0  0  0  0  0  0
  142.2639   70.4497  218.9646 H   0  0  0  0  0  0  0  0  0  0  0  0
  144.5423   70.1171  217.8427 H   0  0  0  0  0  0  0  0  0  0  0  0
  143.2303   70.8641  216.8400 H   0  0  0  0  0  0  0  0  0  0  0  0
  1  2  1  0
  2  3  1  0
  3  4  1  0
  4  5  1  0
  5  6  1  0
  6  7  1  0
  7  8  2  0
  8  9  1  0
  9 10  1  0
 10 11  1  0
 11 12  1  0
 12 13  1  0
 13 14  2  0
 14 15  1  0
 15 16  2  0
 16 17  1  0
 17 18  2  0
 18 19  1  0
  9 20  2  0
 20 21  1  0
 21 22  1  0
 22 23  1  0
 23 24  1  0
 24 25  1  0
 25 26  2  0
 26 27  1  0
 27 28  2  0
 28 29  1  0
 29 30  2  0
 30 31  1  0
 21 32  2  0
  6 33  1  0
 33 34  1  0
 34  3  1  0
 32  7  1  0
 19 10  1  0
 31 22  1  0
 18 13  1  0
 30 25  1  0
  1 35  1  0
  1 36  1  0
  1 37  1  0
  2 38  1  0
  3 39  1  0
  4 40  1  0
  4 41  1  0
  5 42  1  0
  5 43  1  0
 11 44  1  0
 11 45  1  0
 12 46  1  0
 12 47  1  0
 14 48  1  0
 15 49  1  0
 16 50  1  0
 17 51  1  0
 19 52  1  0
 19 53  1  0
 23 54  1  0
 23 55  1  0
 24 56  1  0
 24 57  1  0
 26 58  1  0
 27 59  1  0
 28 60  1  0
 29 61  1  0
 31 62  1  0
 31 63  1  0
 33 64  1  0
 33 65  1  0
 34 66  1  0
 34 67  1  0
M  END
>  <UniqueID>  (50) 
59

>  <SMILES>  (50) 
CNC1CCN(c2nc(N3CCc4ccccc4C3)nc(N3CCc4ccccc4C3)n2)CC1

>  <Energy>  (50) 
81.65917992965035

>  <Genealogy>  (50) 
CNC1CCN(c2nc(N3CCc4ccccc4C3)nc(N3CCc4ccccc4C3)n2)CC1 (3D coordinates assigned)
CNC1CCN(c2nc(N3CCc4ccccc4C3)nc(N3CCc4ccccc4C3)n2)CC1 (nonaromatic ring conformer: 81.65917992965035 kcal/mol)

>  <smiles>  (50) 
CNC1CCN(c2nc(N3CCc4ccccc4C3)nc(N3CCc4ccccc4C3)n2)CC1

>  <score_type>  (50) 
oracle

>  <origin>  (50) 
autodockgpu

>  <m_score__min__energy>  (50) 
-8.9900000000000002

>  <m_primary>  (50) 
energy

>  <meeko>  (50) 
{"free_energy": -8.86, "intermolecular_energy": -10.06, "internal_energy": -1.03, "cluster_size": 18, "cluster_id": 1, "rank_in_cluster": 7}

>  <energy>  (50) 
-8.83

>  <cluster_rmsd>  (50) 
1.34

>  <rmsd>  (50) 
271.98

>  <cluster>  (50) 
1

$$$$
DSYBMJCSYFRFMG-UHFFFAOYNA-N
     RDKit          3D

 67 72  0  0  0  0  0  0  0  0999 V2000
  146.8970   73.7990  216.8140 C   0  0  0  0  0  0  0  0  0  0  0  0
  145.8780   73.3260  217.7570 N   0  0  0  0  0  0  0  0  0  0  0  0
  144.7600   72.6510  217.0680 C   0  0  0  0  0  0  0  0  0  0  0  0
  143.4980   73.5660  216.9680 C   0  0  0  0  0  0  0  0  0  0  0  0
  142.2540   72.9620  217.6270 C   0  0  0  0  0  0  0  0  0  0  0  0
  142.6010   72.4590  218.9650 N   0  0  0  0  0  0  0  0  0  0  0  0
  141.9100   72.9140  220.1460 C   0  0  0  0  0  0  0  0  0  0  0  0
  141.5260   74.2130  220.2530 N   0  0  0  0  0  0  0  0  0  0  0  0
  140.8360   74.6500  221.3390 C   0  0  0  0  0  0  0  0  0  0  0  0
  140.4120   76.0280  221.4310 N   0  0  0  0  0  0  0  0  0  0  0  0
  140.1540   76.8340  220.2350 C   0  0  0  0  0  0  0  0  0  0  0  0
  141.2560   77.8840  220.1010 C   0  0  0  0  0  0  0  0  0  0  0  0
  141.5030   78.6060  221.4050 C   0  0  0  0  0  0  0  0  0  0  0  0
  142.1980   79.8260  221.3880 C   0  0  0  0  0  0  0  0  0  0  0  0
  142.4860   80.4940  222.5810 C   0  0  0  0  0  0  0  0  0  0  0  0
  142.0920   79.9450  223.8030 C   0  0  0  0  0  0  0  0  0  0  0  0
  141.4150   78.7240  223.8380 C   0  0  0  0  0  0  0  0  0  0  0  0
  141.1290   78.0360  222.6480 C   0  0  0  0  0  0  0  0  0  0  0  0
  140.3620   76.7340  222.7180 C   0  0  0  0  0  0  0  0  0  0  0  0
  140.5310   73.7680  222.3260 N   0  0  0  0  0  0  0  0  0  0  0  0
  140.9130   72.4670  222.2420 C   0  0  0  0  0  0  0  0  0  0  0  0
  140.5680   71.5400  223.2930 N   0  0  0  0  0  0  0  0  0  0  0  0
  139.9220   70.2590  222.9790 C   0  0  0  0  0  0  0  0  0  0  0  0
  138.8220   69.9690  223.9940 C   0  0  0  0  0  0  0  0  0  0  0  0
  139.3730   70.0230  225.3900 C   0  0  0  0  0  0  0  0  0  0  0  0
  138.7800   69.2560  226.4070 C   0  0  0  0  0  0  0  0  0  0  0  0
  139.2660   69.3230  227.7140 C   0  0  0  0  0  0  0  0  0  0  0  0
  140.3400   70.1610  228.0200 C   0  0  0  0  0  0  0  0  0  0  0  0
  140.9220   70.9470  227.0210 C   0  0  0  0  0  0  0  0  0  0  0  0
  140.4430   70.8900  225.7020 C   0  0  0  0  0  0  0  0  0  0  0  0
  141.0540   71.8010  224.6600 C   0  0  0  0  0  0  0  0  0  0  0  0
  141.6000   72.0490  221.1470 N   0  0  0  0  0  0  0  0  0  0  0  0
  143.7290   71.5240  219.1070 C   0  0  0  0  0  0  0  0  0  0  0  0
  144.4680   71.3110  217.7780 C   0  0  0  0  0  0  0  0  0  0  0  0
  147.7565   74.1980  217.3726 H   0  0  0  0  0  0  0  0  0  0  0  0
  147.2275   72.9622  216.1811 H   0  0  0  0  0  0  0  0  0  0  0  0
  146.4712   74.5915  216.1811 H   0  0  0  0  0  0  0  0  0  0  0  0
  145.5220   74.1450  218.3040 H   0  0  0  0  0  0  0  0  0  0  0  0
  145.0493   72.4397  216.0280 H   0  0  0  0  0  0  0  0  0  0  0  0
  143.7224   74.5242  217.4595 H   0  0  0  0  0  0  0  0  0  0  0  0
  143.2710   73.6899  215.8988 H   0  0  0  0  0  0  0  0  0  0  0  0
  141.4755   73.7339  217.7164 H   0  0  0  0  0  0  0  0  0  0  0  0
  141.8795   72.1320  217.0099 H   0  0  0  0  0  0  0  0  0  0  0  0
  140.1509   76.1860  219.3462 H   0  0  0  0  0  0  0  0  0  0  0  0
  139.1753   77.3286  220.3219 H   0  0  0  0  0  0  0  0  0  0  0  0
  142.1857   77.3867  219.7874 H   0  0  0  0  0  0  0  0  0  0  0  0
  140.9338   78.6253  219.3549 H   0  0  0  0  0  0  0  0  0  0  0  0
  142.5180   80.2589  220.4287 H   0  0  0  0  0  0  0  0  0  0  0  0
  143.0236   81.4534  222.5575 H   0  0  0  0  0  0  0  0  0  0  0  0
  142.3154   80.4755  224.7403 H   0  0  0  0  0  0  0  0  0  0  0  0
  141.1040   78.2988  224.8036 H   0  0  0  0  0  0  0  0  0  0  0  0
  140.8054   76.0959  223.4966 H   0  0  0  0  0  0  0  0  0  0  0  0
  139.3116   76.9566  222.9569 H   0  0  0  0  0  0  0  0  0  0  0  0
  139.4841   70.3089  221.9711 H   0  0  0  0  0  0  0  0  0  0  0  0
  140.6725   69.4558  223.0195 H   0  0  0  0  0  0  0  0  0  0  0  0
  138.0247   70.7196  223.8894 H   0  0  0  0  0  0  0  0  0  0  0  0
  138.4192   68.9626  223.8072 H   0  0  0  0  0  0  0  0  0  0  0  0
  137.9290   68.5998  226.1723 H   0  0  0  0  0  0  0  0  0  0  0  0
  138.8020   68.7145  228.5042 H   0  0  0  0  0  0  0  0  0  0  0  0
  140.7286   70.2028  229.0482 H   0  0  0  0  0  0  0  0  0  0  0  0
  141.7604   71.6143  227.2696 H   0  0  0  0  0  0  0  0  0  0  0  0
  140.8125   72.8415  224.9226 H   0  0  0  0  0  0  0  0  0  0  0  0
  142.1375   71.6114  224.6599 H   0  0  0  0  0  0  0  0  0  0  0  0
  144.4359   71.9294  219.8458 H   0  0  0  0  0  0  0  0  0  0  0  0
  143.3276   70.5531  219.4329 H   0  0  0  0  0  0  0  0  0  0  0  0
  145.4203   70.7979  217.9775 H   0  0  0  0  0  0  0  0  0  0  0  0
  143.8258   70.7064  217.1206 H   0  0  0  0  0  0  0  0  0  0  0  0
  1  2  1  0
  2  3  1  0
  3  4  1  0
  4  5  1  0
  5  6  1  0
  6  7  1  0
  7  8  2  0
  8  9  1  0
  9 10  1  0
 10 11  1  0
 11 12  1  0
 12 13  1  0
 13 14  2  0
 14 15  1  0
 15 16  2  0
 16 17  1  0
 17 18  2  0
 18 19  1  0
  9 20  2  0
 20 21  1  0
 21 22  1  0
 22 23  1  0
 23 24  1  0
 24 25  1  0
 25 26  2  0
 26 27  1  0
 27 28  2  0
 28 29  1  0
 29 30  2  0
 30 31  1  0
 21 32  2  0
  6 33  1  0
 33 34  1  0
 34  3  1  0
 32  7  1  0
 19 10  1  0
 31 22  1  0
 18 13  1  0
 30 25  1  0
  1 35  1  0
  1 36  1  0
  1 37  1  0
  2 38  1  0
  3 39  1  0
  4 40  1  0
  4 41  1  0
  5 42  1  0
  5 43  1  0
 11 44  1  0
 11 45  1  0
 12 46  1  0
 12 47  1  0
 14 48  1  0
 15 49  1  0
 16 50  1  0
 17 51  1  0
 19 52  1  0
 19 53  1  0
 23 54  1  0
 23 55  1  0
 24 56  1  0
 24 57  1  0
 26 58  1  0
 27 59  1  0
 28 60  1  0
 29 61  1  0
 31 62  1  0
 31 63  1  0
 33 64  1  0
 33 65  1  0
 34 66  1  0
 34 67  1  0
M  END
>  <UniqueID>  (51) 
59

>  <SMILES>  (51) 
CNC1CCN(c2nc(N3CCc4ccccc4C3)nc(N3CCc4ccccc4C3)n2)CC1

>  <Energy>  (51) 
81.65917992965035

>  <Genealogy>  (51) 
CNC1CCN(c2nc(N3CCc4ccccc4C3)nc(N3CCc4ccccc4C3)n2)CC1 (3D coordinates assigned)
CNC1CCN(c2nc(N3CCc4ccccc4C3)nc(N3CCc4ccccc4C3)n2)CC1 (nonaromatic ring conformer: 81.65917992965035 kcal/mol)

>  <smiles>  (51) 
CNC1CCN(c2nc(N3CCc4ccccc4C3)nc(N3CCc4ccccc4C3)n2)CC1

>  <score_type>  (51) 
oracle

>  <origin>  (51) 
autodockgpu

>  <m_score__min__energy>  (51) 
-8.9900000000000002

>  <m_primary>  (51) 
energy

>  <meeko>  (51) 
{"free_energy": -8.99, "intermolecular_energy": -10.18, "internal_energy": -0.96, "cluster_size": 18, "cluster_id": 1, "rank_in_cluster": 1}

>  <energy>  (51) 
-8.83

>  <cluster_rmsd>  (51) 
1.91

>  <rmsd>  (51) 
271.61

>  <cluster>  (51) 
1

$$$$
DSYBMJCSYFRFMG-UHFFFAOYNA-N
     RDKit          3D

 67 72  0  0  0  0  0  0  0  0999 V2000
  143.2920   75.8590  216.8190 C   0  0  0  0  0  0  0  0  0  0  0  0
  144.5620   75.2410  216.4250 N   0  0  0  0  0  0  0  0  0  0  0  0
  144.5020   73.7660  216.4950 C   0  0  0  0  0  0  0  0  0  0  0  0
  143.0310   73.2420  216.5160 C   0  0  0  0  0  0  0  0  0  0  0  0
  142.7020   72.4010  217.7540 C   0  0  0  0  0  0  0  0  0  0  0  0
  143.1730   73.0970  218.9610 N   0  0  0  0  0  0  0  0  0  0  0  0
  142.2770   73.4210  220.0450 C   0  0  0  0  0  0  0  0  0  0  0  0
  141.8550   74.7010  220.2200 N   0  0  0  0  0  0  0  0  0  0  0  0
  140.9790   75.0160  221.2080 C   0  0  0  0  0  0  0  0  0  0  0  0
  140.5180   76.3760  221.3710 N   0  0  0  0  0  0  0  0  0  0  0  0
  140.2060   77.2250  220.2190 C   0  0  0  0  0  0  0  0  0  0  0  0
  141.2740   78.3120  220.1040 C   0  0  0  0  0  0  0  0  0  0  0  0
  141.5330   78.9840  221.4310 C   0  0  0  0  0  0  0  0  0  0  0  0
  142.1920   80.2240  221.4510 C   0  0  0  0  0  0  0  0  0  0  0  0
  142.4910   80.8480  222.6650 C   0  0  0  0  0  0  0  0  0  0  0  0
  142.1440   80.2360  223.8710 C   0  0  0  0  0  0  0  0  0  0  0  0
  141.5030   78.9950  223.8690 C   0  0  0  0  0  0  0  0  0  0  0  0
  141.2070   78.3500  222.6570 C   0  0  0  0  0  0  0  0  0  0  0  0
  140.4800   77.0250  222.6890 C   0  0  0  0  0  0  0  0  0  0  0  0
  140.5230   74.0320  222.0270 N   0  0  0  0  0  0  0  0  0  0  0  0
  140.9400   72.7490  221.8730 C   0  0  0  0  0  0  0  0  0  0  0  0
  140.4350   71.7130  222.7420 N   0  0  0  0  0  0  0  0  0  0  0  0
  139.4440   70.7440  222.2550 C   0  0  0  0  0  0  0  0  0  0  0  0
  138.3860   70.5020  223.3250 C   0  0  0  0  0  0  0  0  0  0  0  0
  139.0320   70.0840  224.6140 C   0  0  0  0  0  0  0  0  0  0  0  0
  138.3310   69.2670  225.5170 C   0  0  0  0  0  0  0  0  0  0  0  0
  138.9120   68.8990  226.7320 C   0  0  0  0  0  0  0  0  0  0  0  0
  140.1930   69.3480  227.0600 C   0  0  0  0  0  0  0  0  0  0  0  0
  140.8910   70.1800  226.1790 C   0  0  0  0  0  0  0  0  0  0  0  0
  140.3180   70.5590  224.9550 C   0  0  0  0  0  0  0  0  0  0  0  0
  141.0740   71.5120  224.0550 C   0  0  0  0  0  0  0  0  0  0  0  0
  141.8150   72.4520  220.8770 N   0  0  0  0  0  0  0  0  0  0  0  0
  144.5750   73.5380  219.0320 C   0  0  0  0  0  0  0  0  0  0  0  0
  145.3220   73.2870  217.7130 C   0  0  0  0  0  0  0  0  0  0  0  0
  143.2250   75.8916  217.9165 H   0  0  0  0  0  0  0  0  0  0  0  0
  143.2421   76.8821  216.4180 H   0  0  0  0  0  0  0  0  0  0  0  0
  142.4561   75.2669  216.4180 H   0  0  0  0  0  0  0  0  0  0  0  0
  145.3190   75.6000  217.0530 H   0  0  0  0  0  0  0  0  0  0  0  0
  144.9490   73.3408  215.5843 H   0  0  0  0  0  0  0  0  0  0  0  0
  142.3523   74.1073  216.4919 H   0  0  0  0  0  0  0  0  0  0  0  0
  142.9058   72.5907  215.6384 H   0  0  0  0  0  0  0  0  0  0  0  0
  141.6139   72.2529  217.8176 H   0  0  0  0  0  0  0  0  0  0  0  0
  143.2020   71.4243  217.6763 H   0  0  0  0  0  0  0  0  0  0  0  0
  140.1979   76.6164  219.3027 H   0  0  0  0  0  0  0  0  0  0  0  0
  139.2163   77.6863  220.3521 H   0  0  0  0  0  0  0  0  0  0  0  0
  142.2093   77.8563  219.7468 H   0  0  0  0  0  0  0  0  0  0  0  0
  140.9121   79.0746  219.3987 H   0  0  0  0  0  0  0  0  0  0  0  0
  142.4748   80.7075  220.5043 H   0  0  0  0  0  0  0  0  0  0  0  0
  143.0005   81.8229  222.6705 H   0  0  0  0  0  0  0  0  0  0  0  0
  142.3759   80.7323  224.8249 H   0  0  0  0  0  0  0  0  0  0  0  0
  141.2284   78.5200  224.8224 H   0  0  0  0  0  0  0  0  0  0  0  0
  140.9609   76.3678  223.4284 H   0  0  0  0  0  0  0  0  0  0  0  0
  139.4300   77.2059  222.9624 H   0  0  0  0  0  0  0  0  0  0  0  0
  138.9623   71.1393  221.3485 H   0  0  0  0  0  0  0  0  0  0  0  0
  139.9491   69.7946  222.0238 H   0  0  0  0  0  0  0  0  0  0  0  0
  137.8171   71.4292  223.4886 H   0  0  0  0  0  0  0  0  0  0  0  0
  137.7129   69.7005  222.9866 H   0  0  0  0  0  0  0  0  0  0  0  0
  137.3194   68.9156  225.2654 H   0  0  0  0  0  0  0  0  0  0  0  0
  138.3600   68.2545  227.4319 H   0  0  0  0  0  0  0  0  0  0  0  0
  140.6535   69.0469  228.0125 H   0  0  0  0  0  0  0  0  0  0  0  0
  141.8954   70.5397  226.4469 H   0  0  0  0  0  0  0  0  0  0  0  0
  141.1445   72.4863  224.5606 H   0  0  0  0  0  0  0  0  0  0  0  0
  142.0621   71.0659  223.8689 H   0  0  0  0  0  0  0  0  0  0  0  0
  144.5982   74.6150  219.2545 H   0  0  0  0  0  0  0  0  0  0  0  0
  145.0749   72.9590  219.8224 H   0  0  0  0  0  0  0  0  0  0  0  0
  146.2783   73.8302  217.7354 H   0  0  0  0  0  0  0  0  0  0  0  0
  145.4874   72.2042  217.6120 H   0  0  0  0  0  0  0  0  0  0  0  0
  1  2  1  0
  2  3  1  0
  3  4  1  0
  4  5  1  0
  5  6  1  0
  6  7  1  0
  7  8  2  0
  8  9  1  0
  9 10  1  0
 10 11  1  0
 11 12  1  0
 12 13  1  0
 13 14  2  0
 14 15  1  0
 15 16  2  0
 16 17  1  0
 17 18  2  0
 18 19  1  0
  9 20  2  0
 20 21  1  0
 21 22  1  0
 22 23  1  0
 23 24  1  0
 24 25  1  0
 25 26  2  0
 26 27  1  0
 27 28  2  0
 28 29  1  0
 29 30  2  0
 30 31  1  0
 21 32  2  0
  6 33  1  0
 33 34  1  0
 34  3  1  0
 32  7  1  0
 19 10  1  0
 31 22  1  0
 18 13  1  0
 30 25  1  0
  1 35  1  0
  1 36  1  0
  1 37  1  0
  2 38  1  0
  3 39  1  0
  4 40  1  0
  4 41  1  0
  5 42  1  0
  5 43  1  0
 11 44  1  0
 11 45  1  0
 12 46  1  0
 12 47  1  0
 14 48  1  0
 15 49  1  0
 16 50  1  0
 17 51  1  0
 19 52  1  0
 19 53  1  0
 23 54  1  0
 23 55  1  0
 24 56  1  0
 24 57  1  0
 26 58  1  0
 27 59  1  0
 28 60  1  0
 29 61  1  0
 31 62  1  0
 31 63  1  0
 33 64  1  0
 33 65  1  0
 34 66  1  0
 34 67  1  0
M  END
>  <UniqueID>  (52) 
59

>  <SMILES>  (52) 
CNC1CCN(c2nc(N3CCc4ccccc4C3)nc(N3CCc4ccccc4C3)n2)CC1

>  <Energy>  (52) 
81.65917992965035

>  <Genealogy>  (52) 
CNC1CCN(c2nc(N3CCc4ccccc4C3)nc(N3CCc4ccccc4C3)n2)CC1 (3D coordinates assigned)
CNC1CCN(c2nc(N3CCc4ccccc4C3)nc(N3CCc4ccccc4C3)n2)CC1 (nonaromatic ring conformer: 81.65917992965035 kcal/mol)

>  <smiles>  (52) 
CNC1CCN(c2nc(N3CCc4ccccc4C3)nc(N3CCc4ccccc4C3)n2)CC1

>  <score_type>  (52) 
oracle

>  <origin>  (52) 
autodockgpu

>  <m_score__min__energy>  (52) 
-8.9900000000000002

>  <m_primary>  (52) 
energy

>  <meeko>  (52) 
{"free_energy": -8.68, "intermolecular_energy": -9.88, "internal_energy": -1.09, "cluster_size": 18, "cluster_id": 1, "rank_in_cluster": 16}

>  <energy>  (52) 
-8.83

>  <cluster_rmsd>  (52) 
1.91

>  <rmsd>  (52) 
271.62

>  <cluster>  (52) 
1

$$$$
DSYBMJCSYFRFMG-UHFFFAOYNA-N
     RDKit          3D

 67 72  0  0  0  0  0  0  0  0999 V2000
  146.9000   73.7640  216.8180 C   0  0  0  0  0  0  0  0  0  0  0  0
  145.8640   73.3050  217.7490 N   0  0  0  0  0  0  0  0  0  0  0  0
  144.7340   72.6640  217.0440 C   0  0  0  0  0  0  0  0  0  0  0  0
  143.4920   73.6070  216.9540 C   0  0  0  0  0  0  0  0  0  0  0  0
  142.2330   73.0180  217.5990 C   0  0  0  0  0  0  0  0  0  0  0  0
  142.5640   72.4850  218.9290 N   0  0  0  0  0  0  0  0  0  0  0  0
  141.8780   72.9340  220.1160 C   0  0  0  0  0  0  0  0  0  0  0  0
  141.4980   74.2340  220.2320 N   0  0  0  0  0  0  0  0  0  0  0  0
  140.8140   74.6650  221.3230 C   0  0  0  0  0  0  0  0  0  0  0  0
  140.3940   76.0440  221.4260 N   0  0  0  0  0  0  0  0  0  0  0  0
  140.1280   76.8570  220.2370 C   0  0  0  0  0  0  0  0  0  0  0  0
  141.2310   77.9040  220.0980 C   0  0  0  0  0  0  0  0  0  0  0  0
  141.4920   78.6190  221.4030 C   0  0  0  0  0  0  0  0  0  0  0  0
  142.1900   79.8370  221.3860 C   0  0  0  0  0  0  0  0  0  0  0  0
  142.4900   80.4980  222.5800 C   0  0  0  0  0  0  0  0  0  0  0  0
  142.1050   79.9440  223.8020 C   0  0  0  0  0  0  0  0  0  0  0  0
  141.4250   78.7250  223.8370 C   0  0  0  0  0  0  0  0  0  0  0  0
  141.1260   78.0430  222.6460 C   0  0  0  0  0  0  0  0  0  0  0  0
  140.3570   76.7440  222.7170 C   0  0  0  0  0  0  0  0  0  0  0  0
  140.5080   73.7770  222.3050 N   0  0  0  0  0  0  0  0  0  0  0  0
  140.8860   72.4760  222.2110 C   0  0  0  0  0  0  0  0  0  0  0  0
  140.5410   71.5420  223.2570 N   0  0  0  0  0  0  0  0  0  0  0  0
  139.8600   70.2810  222.9390 C   0  0  0  0  0  0  0  0  0  0  0  0
  138.7740   70.0030  223.9730 C   0  0  0  0  0  0  0  0  0  0  0  0
  139.3540   70.0250  225.3580 C   0  0  0  0  0  0  0  0  0  0  0  0
  138.7650   69.2580  226.3770 C   0  0  0  0  0  0  0  0  0  0  0  0
  139.2780   69.2960  227.6750 C   0  0  0  0  0  0  0  0  0  0  0  0
  140.3770   70.1060  227.9690 C   0  0  0  0  0  0  0  0  0  0  0  0
  140.9570   70.8910  226.9680 C   0  0  0  0  0  0  0  0  0  0  0  0
  140.4500   70.8630  225.6590 C   0  0  0  0  0  0  0  0  0  0  0  0
  141.0600   71.7740  224.6170 C   0  0  0  0  0  0  0  0  0  0  0  0
  141.5690   72.0630  221.1110 N   0  0  0  0  0  0  0  0  0  0  0  0
  143.6720   71.5250  219.0600 C   0  0  0  0  0  0  0  0  0  0  0  0
  144.4120   71.3190  217.7300 C   0  0  0  0  0  0  0  0  0  0  0  0
  147.7610   74.1455  217.3865 H   0  0  0  0  0  0  0  0  0  0  0  0
  147.2219   72.9243  216.1846 H   0  0  0  0  0  0  0  0  0  0  0  0
  146.4942   74.5666  216.1846 H   0  0  0  0  0  0  0  0  0  0  0  0
  145.5230   74.1260  218.3020 H   0  0  0  0  0  0  0  0  0  0  0  0
  145.0227   72.4635  216.0017 H   0  0  0  0  0  0  0  0  0  0  0  0
  143.7343   74.5523  217.4617 H   0  0  0  0  0  0  0  0  0  0  0  0
  143.2719   73.7533  215.8862 H   0  0  0  0  0  0  0  0  0  0  0  0
  141.4706   73.8046  217.6991 H   0  0  0  0  0  0  0  0  0  0  0  0
  141.8437   72.2066  216.9665 H   0  0  0  0  0  0  0  0  0  0  0  0
  140.1149   76.2136  219.3449 H   0  0  0  0  0  0  0  0  0  0  0  0
  139.1518   77.3543  220.3358 H   0  0  0  0  0  0  0  0  0  0  0  0
  142.1564   77.4057  219.7735 H   0  0  0  0  0  0  0  0  0  0  0  0
  140.9040   78.6497  219.3585 H   0  0  0  0  0  0  0  0  0  0  0  0
  142.5029   80.2739  220.4262 H   0  0  0  0  0  0  0  0  0  0  0  0
  143.0302   81.4560  222.5569 H   0  0  0  0  0  0  0  0  0  0  0  0
  142.3379   80.4692  224.7400 H   0  0  0  0  0  0  0  0  0  0  0  0
  141.1215   78.2960  224.8034 H   0  0  0  0  0  0  0  0  0  0  0  0
  140.8056   76.1012  223.4887 H   0  0  0  0  0  0  0  0  0  0  0  0
  139.3093   76.9680  222.9665 H   0  0  0  0  0  0  0  0  0  0  0  0
  139.4033   70.3546  221.9410 H   0  0  0  0  0  0  0  0  0  0  0  0
  140.5922   69.4602  222.9529 H   0  0  0  0  0  0  0  0  0  0  0  0
  137.9928   70.7734  223.8946 H   0  0  0  0  0  0  0  0  0  0  0  0
  138.3440   69.0088  223.7813 H   0  0  0  0  0  0  0  0  0  0  0  0
  137.8949   68.6241  226.1510 H   0  0  0  0  0  0  0  0  0  0  0  0
  138.8162   68.6875  228.4666 H   0  0  0  0  0  0  0  0  0  0  0  0
  140.7869   70.1264  228.9896 H   0  0  0  0  0  0  0  0  0  0  0  0
  141.8162   71.5348  227.2075 H   0  0  0  0  0  0  0  0  0  0  0  0
  140.8470   72.8160  224.8979 H   0  0  0  0  0  0  0  0  0  0  0  0
  142.1389   71.5608  224.5924 H   0  0  0  0  0  0  0  0  0  0  0  0
  144.3840   71.9037  219.8081 H   0  0  0  0  0  0  0  0  0  0  0  0
  143.2497   70.5573  219.3684 H   0  0  0  0  0  0  0  0  0  0  0  0
  145.3529   70.7832  217.9243 H   0  0  0  0  0  0  0  0  0  0  0  0
  143.7603   70.7387  217.0602 H   0  0  0  0  0  0  0  0  0  0  0  0
  1  2  1  0
  2  3  1  0
  3  4  1  0
  4  5  1  0
  5  6  1  0
  6  7  1  0
  7  8  2  0
  8  9  1  0
  9 10  1  0
 10 11  1  0
 11 12  1  0
 12 13  1  0
 13 14  2  0
 14 15  1  0
 15 16  2  0
 16 17  1  0
 17 18  2  0
 18 19  1  0
  9 20  2  0
 20 21  1  0
 21 22  1  0
 22 23  1  0
 23 24  1  0
 24 25  1  0
 25 26  2  0
 26 27  1  0
 27 28  2  0
 28 29  1  0
 29 30  2  0
 30 31  1  0
 21 32  2  0
  6 33  1  0
 33 34  1  0
 34  3  1  0
 32  7  1  0
 19 10  1  0
 31 22  1  0
 18 13  1  0
 30 25  1  0
  1 35  1  0
  1 36  1  0
  1 37  1  0
  2 38  1  0
  3 39  1  0
  4 40  1  0
  4 41  1  0
  5 42  1  0
  5 43  1  0
 11 44  1  0
 11 45  1  0
 12 46  1  0
 12 47  1  0
 14 48  1  0
 15 49  1  0
 16 50  1  0
 17 51  1  0
 19 52  1  0
 19 53  1  0
 23 54  1  0
 23 55  1  0
 24 56  1  0
 24 57  1  0
 26 58  1  0
 27 59  1  0
 28 60  1  0
 29 61  1  0
 31 62  1  0
 31 63  1  0
 33 64  1  0
 33 65  1  0
 34 66  1  0
 34 67  1  0
M  END
>  <UniqueID>  (53) 
59

>  <SMILES>  (53) 
CNC1CCN(c2nc(N3CCc4ccccc4C3)nc(N3CCc4ccccc4C3)n2)CC1

>  <Energy>  (53) 
81.65917992965035

>  <Genealogy>  (53) 
CNC1CCN(c2nc(N3CCc4ccccc4C3)nc(N3CCc4ccccc4C3)n2)CC1 (3D coordinates assigned)
CNC1CCN(c2nc(N3CCc4ccccc4C3)nc(N3CCc4ccccc4C3)n2)CC1 (nonaromatic ring conformer: 81.65917992965035 kcal/mol)

>  <smiles>  (53) 
CNC1CCN(c2nc(N3CCc4ccccc4C3)nc(N3CCc4ccccc4C3)n2)CC1

>  <score_type>  (53) 
oracle

>  <origin>  (53) 
autodockgpu

>  <m_score__min__energy>  (53) 
-8.9900000000000002

>  <m_primary>  (53) 
energy

>  <meeko>  (53) 
{"free_energy": -8.98, "intermolecular_energy": -10.17, "internal_energy": -0.96, "cluster_size": 18, "cluster_id": 1, "rank_in_cluster": 2}

>  <energy>  (53) 
-8.82

>  <cluster_rmsd>  (53) 
1.92

>  <rmsd>  (53) 
271.63

>  <cluster>  (53) 
1

$$$$
DSYBMJCSYFRFMG-UHFFFAOYNA-N
     RDKit          3D

 67 72  0  0  0  0  0  0  0  0999 V2000
  145.6830   73.1830  219.4550 C   0  0  0  0  0  0  0  0  0  0  0  0
  145.9400   72.2610  218.3440 N   0  0  0  0  0  0  0  0  0  0  0  0
  144.8020   72.2000  217.4040 C   0  0  0  0  0  0  0  0  0  0  0  0
  143.9700   73.5220  217.4080 C   0  0  0  0  0  0  0  0  0  0  0  0
  142.4970   73.3130  217.7740 C   0  0  0  0  0  0  0  0  0  0  0  0
  142.4030   72.4690  218.9760 N   0  0  0  0  0  0  0  0  0  0  0  0
  141.7090   72.9140  220.1590 C   0  0  0  0  0  0  0  0  0  0  0  0
  141.3130   74.2090  220.2710 N   0  0  0  0  0  0  0  0  0  0  0  0
  140.6200   74.6340  221.3590 C   0  0  0  0  0  0  0  0  0  0  0  0
  140.1830   76.0080  221.4570 N   0  0  0  0  0  0  0  0  0  0  0  0
  139.7700   76.7690  220.2750 C   0  0  0  0  0  0  0  0  0  0  0  0
  140.8270   77.8310  219.9770 C   0  0  0  0  0  0  0  0  0  0  0  0
  141.2130   78.6010  221.2180 C   0  0  0  0  0  0  0  0  0  0  0  0
  141.8770   79.8300  221.0790 C   0  0  0  0  0  0  0  0  0  0  0  0
  142.2910   80.5420  222.2070 C   0  0  0  0  0  0  0  0  0  0  0  0
  142.0550   80.0300  223.4850 C   0  0  0  0  0  0  0  0  0  0  0  0
  141.4110   78.8010  223.6390 C   0  0  0  0  0  0  0  0  0  0  0  0
  140.9990   78.0670  222.5150 C   0  0  0  0  0  0  0  0  0  0  0  0
  140.2720   76.7580  222.7180 C   0  0  0  0  0  0  0  0  0  0  0  0
  140.3240   73.7460  222.3430 N   0  0  0  0  0  0  0  0  0  0  0  0
  140.7180   72.4490  222.2540 C   0  0  0  0  0  0  0  0  0  0  0  0
  140.3830   71.5150  223.3020 N   0  0  0  0  0  0  0  0  0  0  0  0
  139.5620   70.3310  223.0140 C   0  0  0  0  0  0  0  0  0  0  0  0
  138.5520   70.1150  224.1350 C   0  0  0  0  0  0  0  0  0  0  0  0
  139.2520   70.0380  225.4610 C   0  0  0  0  0  0  0  0  0  0  0  0
  138.6870   69.2920  226.5090 C   0  0  0  0  0  0  0  0  0  0  0  0
  139.3140   69.2380  227.7560 C   0  0  0  0  0  0  0  0  0  0  0  0
  140.5060   69.9360  227.9700 C   0  0  0  0  0  0  0  0  0  0  0  0
  141.0640   70.7010  226.9410 C   0  0  0  0  0  0  0  0  0  0  0  0
  140.4430   70.7640  225.6830 C   0  0  0  0  0  0  0  0  0  0  0  0
  141.0400   71.6510  224.6140 C   0  0  0  0  0  0  0  0  0  0  0  0
  141.4080   72.0410  221.1570 N   0  0  0  0  0  0  0  0  0  0  0  0
  143.0970   71.1720  218.9940 C   0  0  0  0  0  0  0  0  0  0  0  0
  143.9460   70.9580  217.7320 C   0  0  0  0  0  0  0  0  0  0  0  0
  145.8297   72.6567  220.4097 H   0  0  0  0  0  0  0  0  0  0  0  0
  146.3784   74.0331  219.3943 H   0  0  0  0  0  0  0  0  0  0  0  0
  144.6481   73.5508  219.3943 H   0  0  0  0  0  0  0  0  0  0  0  0
  146.1350   71.3100  218.7350 H   0  0  0  0  0  0  0  0  0  0  0  0
  145.1841   72.0998  216.3774 H   0  0  0  0  0  0  0  0  0  0  0  0
  144.4162   74.2126  218.1388 H   0  0  0  0  0  0  0  0  0  0  0  0
  143.9963   73.9252  216.3849 H   0  0  0  0  0  0  0  0  0  0  0  0
  142.0272   74.2875  217.9731 H   0  0  0  0  0  0  0  0  0  0  0  0
  141.9791   72.8189  216.9387 H   0  0  0  0  0  0  0  0  0  0  0  0
  139.6745   76.0911  219.4140 H   0  0  0  0  0  0  0  0  0  0  0  0
  138.7992   77.2512  220.4622 H   0  0  0  0  0  0  0  0  0  0  0  0
  141.7225   77.3381  219.5707 H   0  0  0  0  0  0  0  0  0  0  0  0
  140.4036   78.5412  219.2515 H   0  0  0  0  0  0  0  0  0  0  0  0
  142.0725   80.2349  220.0751 H   0  0  0  0  0  0  0  0  0  0  0  0
  142.8039   81.5079  222.0887 H   0  0  0  0  0  0  0  0  0  0  0  0
  142.3771   80.5961  224.3715 H   0  0  0  0  0  0  0  0  0  0  0  0
  141.2249   78.4047  224.6481 H   0  0  0  0  0  0  0  0  0  0  0  0
  140.8168   76.1543  223.4587 H   0  0  0  0  0  0  0  0  0  0  0  0
  139.2531   76.9725  223.0727 H   0  0  0  0  0  0  0  0  0  0  0  0
  139.0268   70.4804  222.0646 H   0  0  0  0  0  0  0  0  0  0  0  0
  140.2137   69.4480  222.9385 H   0  0  0  0  0  0  0  0  0  0  0  0
  137.8405   70.9538  224.1487 H   0  0  0  0  0  0  0  0  0  0  0  0
  138.0179   69.1699  223.9575 H   0  0  0  0  0  0  0  0  0  0  0  0
  137.7453   68.7472  226.3465 H   0  0  0  0  0  0  0  0  0  0  0  0
  138.8697   68.6461  228.5698 H   0  0  0  0  0  0  0  0  0  0  0  0
  141.0055   69.8835  228.9486 H   0  0  0  0  0  0  0  0  0  0  0  0
  141.9962   71.2575  227.1182 H   0  0  0  0  0  0  0  0  0  0  0  0
  140.9515   72.6976  224.9407 H   0  0  0  0  0  0  0  0  0  0  0  0
  142.0875   71.3411  224.4847 H   0  0  0  0  0  0  0  0  0  0  0  0
  143.7541   71.1327  219.8753 H   0  0  0  0  0  0  0  0  0  0  0  0
  142.3356   70.3789  219.0307 H   0  0  0  0  0  0  0  0  0  0  0  0
  144.6124   70.0976  217.8920 H   0  0  0  0  0  0  0  0  0  0  0  0
  143.2656   70.7769  216.8869 H   0  0  0  0  0  0  0  0  0  0  0  0
  1  2  1  0
  2  3  1  0
  3  4  1  0
  4  5  1  0
  5  6  1  0
  6  7  1  0
  7  8  2  0
  8  9  1  0
  9 10  1  0
 10 11  1  0
 11 12  1  0
 12 13  1  0
 13 14  2  0
 14 15  1  0
 15 16  2  0
 16 17  1  0
 17 18  2  0
 18 19  1  0
  9 20  2  0
 20 21  1  0
 21 22  1  0
 22 23  1  0
 23 24  1  0
 24 25  1  0
 25 26  2  0
 26 27  1  0
 27 28  2  0
 28 29  1  0
 29 30  2  0
 30 31  1  0
 21 32  2  0
  6 33  1  0
 33 34  1  0
 34  3  1  0
 32  7  1  0
 19 10  1  0
 31 22  1  0
 18 13  1  0
 30 25  1  0
  1 35  1  0
  1 36  1  0
  1 37  1  0
  2 38  1  0
  3 39  1  0
  4 40  1  0
  4 41  1  0
  5 42  1  0
  5 43  1  0
 11 44  1  0
 11 45  1  0
 12 46  1  0
 12 47  1  0
 14 48  1  0
 15 49  1  0
 16 50  1  0
 17 51  1  0
 19 52  1  0
 19 53  1  0
 23 54  1  0
 23 55  1  0
 24 56  1  0
 24 57  1  0
 26 58  1  0
 27 59  1  0
 28 60  1  0
 29 61  1  0
 31 62  1  0
 31 63  1  0
 33 64  1  0
 33 65  1  0
 34 66  1  0
 34 67  1  0
M  END
>  <UniqueID>  (54) 
59

>  <SMILES>  (54) 
CNC1CCN(c2nc(N3CCc4ccccc4C3)nc(N3CCc4ccccc4C3)n2)CC1

>  <Energy>  (54) 
81.65917992965035

>  <Genealogy>  (54) 
CNC1CCN(c2nc(N3CCc4ccccc4C3)nc(N3CCc4ccccc4C3)n2)CC1 (3D coordinates assigned)
CNC1CCN(c2nc(N3CCc4ccccc4C3)nc(N3CCc4ccccc4C3)n2)CC1 (nonaromatic ring conformer: 81.65917992965035 kcal/mol)

>  <smiles>  (54) 
CNC1CCN(c2nc(N3CCc4ccccc4C3)nc(N3CCc4ccccc4C3)n2)CC1

>  <score_type>  (54) 
oracle

>  <origin>  (54) 
autodockgpu

>  <m_score__min__energy>  (54) 
-8.9900000000000002

>  <m_primary>  (54) 
energy

>  <meeko>  (54) 
{"free_energy": -8.9, "intermolecular_energy": -10.09, "internal_energy": -1.03, "cluster_size": 18, "cluster_id": 1, "rank_in_cluster": 3}

>  <energy>  (54) 
-8.81

>  <cluster_rmsd>  (54) 
1.93

>  <rmsd>  (54) 
271.6

>  <cluster>  (54) 
1

$$$$
DSYBMJCSYFRFMG-UHFFFAOYNA-N
     RDKit          3D

 67 72  0  0  0  0  0  0  0  0999 V2000
  146.1650   73.1320  220.7280 C   0  0  0  0  0  0  0  0  0  0  0  0
  146.2700   72.0770  219.7150 N   0  0  0  0  0  0  0  0  0  0  0  0
  145.4080   72.3480  218.5450 C   0  0  0  0  0  0  0  0  0  0  0  0
  144.7440   73.7600  218.6250 C   0  0  0  0  0  0  0  0  0  0  0  0
  143.2130   73.7160  218.5920 C   0  0  0  0  0  0  0  0  0  0  0  0
  142.7290   72.7030  219.5430 N   0  0  0  0  0  0  0  0  0  0  0  0
  141.8060   73.0380  220.6000 C   0  0  0  0  0  0  0  0  0  0  0  0
  141.1430   74.2240  220.5740 N   0  0  0  0  0  0  0  0  0  0  0  0
  140.2380   74.5370  221.5370 C   0  0  0  0  0  0  0  0  0  0  0  0
  139.5210   75.7910  221.4870 N   0  0  0  0  0  0  0  0  0  0  0  0
  139.0640   76.3640  220.2190 C   0  0  0  0  0  0  0  0  0  0  0  0
  139.9020   77.6040  219.9080 C   0  0  0  0  0  0  0  0  0  0  0  0
  140.0110   78.5200  221.1040 C   0  0  0  0  0  0  0  0  0  0  0  0
  140.4160   79.8500  220.9090 C   0  0  0  0  0  0  0  0  0  0  0  0
  140.5750   80.7090  221.9990 C   0  0  0  0  0  0  0  0  0  0  0  0
  140.3390   80.2460  223.2950 C   0  0  0  0  0  0  0  0  0  0  0  0
  139.9510   78.9210  223.5070 C   0  0  0  0  0  0  0  0  0  0  0  0
  139.7990   78.0430  222.4220 C   0  0  0  0  0  0  0  0  0  0  0  0
  139.3430   76.6250  222.6830 C   0  0  0  0  0  0  0  0  0  0  0  0
  140.0000   73.6470  222.5360 N   0  0  0  0  0  0  0  0  0  0  0  0
  140.6600   72.4610  222.5840 C   0  0  0  0  0  0  0  0  0  0  0  0
  140.3850   71.5200  223.6430 N   0  0  0  0  0  0  0  0  0  0  0  0
  139.6670   70.2680  223.3660 C   0  0  0  0  0  0  0  0  0  0  0  0
  138.6610   69.9910  224.4760 C   0  0  0  0  0  0  0  0  0  0  0  0
  139.3440   69.9930  225.8130 C   0  0  0  0  0  0  0  0  0  0  0  0
  138.8250   69.2210  226.8670 C   0  0  0  0  0  0  0  0  0  0  0  0
  139.4350   69.2400  228.1220 C   0  0  0  0  0  0  0  0  0  0  0  0
  140.5630   70.0350  228.3410 C   0  0  0  0  0  0  0  0  0  0  0  0
  141.0730   70.8260  227.3060 C   0  0  0  0  0  0  0  0  0  0  0  0
  140.4690   70.8170  226.0390 C   0  0  0  0  0  0  0  0  0  0  0  0
  141.0080   71.7320  224.9630 C   0  0  0  0  0  0  0  0  0  0  0  0
  141.5590   72.1640  221.6100 N   0  0  0  0  0  0  0  0  0  0  0  0
  143.2580   71.3320  219.4590 C   0  0  0  0  0  0  0  0  0  0  0  0
  144.3730   71.2110  218.4090 C   0  0  0  0  0  0  0  0  0  0  0  0
  146.2097   72.6829  221.7311 H   0  0  0  0  0  0  0  0  0  0  0  0
  146.9970   73.8412  220.6064 H   0  0  0  0  0  0  0  0  0  0  0  0
  145.2095   73.6633  220.6064 H   0  0  0  0  0  0  0  0  0  0  0  0
  146.0050   71.1640  220.1520 H   0  0  0  0  0  0  0  0  0  0  0  0
  146.0259   72.3675  217.6352 H   0  0  0  0  0  0  0  0  0  0  0  0
  145.0587   74.2405  219.5631 H   0  0  0  0  0  0  0  0  0  0  0  0
  145.0715   74.3232  217.7387 H   0  0  0  0  0  0  0  0  0  0  0  0
  142.8121   74.7016  218.8711 H   0  0  0  0  0  0  0  0  0  0  0  0
  142.8762   73.4560  217.5776 H   0  0  0  0  0  0  0  0  0  0  0  0
  139.1855   75.6243  219.4140 H   0  0  0  0  0  0  0  0  0  0  0  0
  138.0020   76.6402  220.2950 H   0  0  0  0  0  0  0  0  0  0  0  0
  140.9118   77.2859  219.6096 H   0  0  0  0  0  0  0  0  0  0  0  0
  139.4067   78.1575  219.0967 H   0  0  0  0  0  0  0  0  0  0  0  0
  140.6095   80.2182  219.8907 H   0  0  0  0  0  0  0  0  0  0  0  0
  140.8865   81.7513  221.8362 H   0  0  0  0  0  0  0  0  0  0  0  0
  140.4589   80.9263  224.1510 H   0  0  0  0  0  0  0  0  0  0  0  0
  139.7634   78.5633  224.5302 H   0  0  0  0  0  0  0  0  0  0  0  0
  139.9343   76.2023  223.5086 H   0  0  0  0  0  0  0  0  0  0  0  0
  138.2750   76.6410  222.9458 H   0  0  0  0  0  0  0  0  0  0  0  0
  139.1364   70.3564  222.4065 H   0  0  0  0  0  0  0  0  0  0  0  0
  140.3891   69.4396  223.3165 H   0  0  0  0  0  0  0  0  0  0  0  0
  137.8846   70.7701  224.4643 H   0  0  0  0  0  0  0  0  0  0  0  0
  138.2073   69.0031  224.3083 H   0  0  0  0  0  0  0  0  0  0  0  0
  137.9332   68.5986  226.7016 H   0  0  0  0  0  0  0  0  0  0  0  0
  139.0272   68.6281  228.9401 H   0  0  0  0  0  0  0  0  0  0  0  0
  141.0500   70.0389  229.3273 H   0  0  0  0  0  0  0  0  0  0  0  0
  141.9538   71.4597  227.4864 H   0  0  0  0  0  0  0  0  0  0  0  0
  140.8285   72.7731  225.2694 H   0  0  0  0  0  0  0  0  0  0  0  0
  142.0794   71.5074  224.8546 H   0  0  0  0  0  0  0  0  0  0  0  0
  143.6621   71.0460  220.4413 H   0  0  0  0  0  0  0  0  0  0  0  0
  142.4346   70.6668  219.1598 H   0  0  0  0  0  0  0  0  0  0  0  0
  144.8839   70.2457  218.5405 H   0  0  0  0  0  0  0  0  0  0  0  0
  143.9149   71.2806  217.4114 H   0  0  0  0  0  0  0  0  0  0  0  0
  1  2  1  0
  2  3  1  0
  3  4  1  0
  4  5  1  0
  5  6  1  0
  6  7  1  0
  7  8  2  0
  8  9  1  0
  9 10  1  0
 10 11  1  0
 11 12  1  0
 12 13  1  0
 13 14  2  0
 14 15  1  0
 15 16  2  0
 16 17  1  0
 17 18  2  0
 18 19  1  0
  9 20  2  0
 20 21  1  0
 21 22  1  0
 22 23  1  0
 23 24  1  0
 24 25  1  0
 25 26  2  0
 26 27  1  0
 27 28  2  0
 28 29  1  0
 29 30  2  0
 30 31  1  0
 21 32  2  0
  6 33  1  0
 33 34  1  0
 34  3  1  0
 32  7  1  0
 19 10  1  0
 31 22  1  0
 18 13  1  0
 30 25  1  0
  1 35  1  0
  1 36  1  0
  1 37  1  0
  2 38  1  0
  3 39  1  0
  4 40  1  0
  4 41  1  0
  5 42  1  0
  5 43  1  0
 11 44  1  0
 11 45  1  0
 12 46  1  0
 12 47  1  0
 14 48  1  0
 15 49  1  0
 16 50  1  0
 17 51  1  0
 19 52  1  0
 19 53  1  0
 23 54  1  0
 23 55  1  0
 24 56  1  0
 24 57  1  0
 26 58  1  0
 27 59  1  0
 28 60  1  0
 29 61  1  0
 31 62  1  0
 31 63  1  0
 33 64  1  0
 33 65  1  0
 34 66  1  0
 34 67  1  0
M  END
>  <UniqueID>  (55) 
59

>  <SMILES>  (55) 
CNC1CCN(c2nc(N3CCc4ccccc4C3)nc(N3CCc4ccccc4C3)n2)CC1

>  <Energy>  (55) 
81.65917992965035

>  <Genealogy>  (55) 
CNC1CCN(c2nc(N3CCc4ccccc4C3)nc(N3CCc4ccccc4C3)n2)CC1 (3D coordinates assigned)
CNC1CCN(c2nc(N3CCc4ccccc4C3)nc(N3CCc4ccccc4C3)n2)CC1 (nonaromatic ring conformer: 81.65917992965035 kcal/mol)

>  <smiles>  (55) 
CNC1CCN(c2nc(N3CCc4ccccc4C3)nc(N3CCc4ccccc4C3)n2)CC1

>  <score_type>  (55) 
oracle

>  <origin>  (55) 
autodockgpu

>  <m_score__min__energy>  (55) 
-8.9900000000000002

>  <m_primary>  (55) 
energy

>  <meeko>  (55) 
{"free_energy": -8.83, "intermolecular_energy": -10.03, "internal_energy": -1.03, "cluster_size": 18, "cluster_id": 1, "rank_in_cluster": 10}

>  <energy>  (55) 
-8.69

>  <cluster_rmsd>  (55) 
1.0

>  <rmsd>  (55) 
271.58

>  <cluster>  (55) 
1

$$$$
DSYBMJCSYFRFMG-UHFFFAOYNA-N
     RDKit          3D

 67 72  0  0  0  0  0  0  0  0999 V2000
  141.0980   67.8170  227.0270 C   0  0  0  0  0  0  0  0  0  0  0  0
  140.7580   68.4400  225.7440 N   0  0  0  0  0  0  0  0  0  0  0  0
  139.5520   69.2870  225.8450 C   0  0  0  0  0  0  0  0  0  0  0  0
  138.7640   69.3420  224.4970 C   0  0  0  0  0  0  0  0  0  0  0  0
  138.5990   70.7620  223.9460 C   0  0  0  0  0  0  0  0  0  0  0  0
  139.8950   71.4580  223.9830 N   0  0  0  0  0  0  0  0  0  0  0  0
  140.4830   72.0250  222.7940 C   0  0  0  0  0  0  0  0  0  0  0  0
  141.0050   71.2120  221.8380 N   0  0  0  0  0  0  0  0  0  0  0  0
  141.5240   71.7260  220.6930 C   0  0  0  0  0  0  0  0  0  0  0  0
  142.0560   70.8520  219.6730 N   0  0  0  0  0  0  0  0  0  0  0  0
  141.3130   69.6800  219.2030 C   0  0  0  0  0  0  0  0  0  0  0  0
  142.0160   68.4180  219.7030 C   0  0  0  0  0  0  0  0  0  0  0  0
  143.5030   68.4660  219.4450 C   0  0  0  0  0  0  0  0  0  0  0  0
  144.2430   67.2740  219.4950 C   0  0  0  0  0  0  0  0  0  0  0  0
  145.6280   67.2920  219.3110 C   0  0  0  0  0  0  0  0  0  0  0  0
  146.2890   68.5010  219.0850 C   0  0  0  0  0  0  0  0  0  0  0  0
  145.5690   69.6980  219.0500 C   0  0  0  0  0  0  0  0  0  0  0  0
  144.1790   69.6970  219.2450 C   0  0  0  0  0  0  0  0  0  0  0  0
  143.4250   71.0050  219.1630 C   0  0  0  0  0  0  0  0  0  0  0  0
  141.5160   73.0730  220.5100 N   0  0  0  0  0  0  0  0  0  0  0  0
  141.0060   73.9020  221.4570 C   0  0  0  0  0  0  0  0  0  0  0  0
  140.9910   75.3290  221.2400 N   0  0  0  0  0  0  0  0  0  0  0  0
  141.1740   75.8840  219.8920 C   0  0  0  0  0  0  0  0  0  0  0  0
  142.0850   77.1040  219.9530 C   0  0  0  0  0  0  0  0  0  0  0  0
  141.5510   78.1070  220.9340 C   0  0  0  0  0  0  0  0  0  0  0  0
  141.8240   79.4740  220.7580 C   0  0  0  0  0  0  0  0  0  0  0  0
  141.3570   80.4120  221.6810 C   0  0  0  0  0  0  0  0  0  0  0  0
  140.6220   79.9930  222.7930 C   0  0  0  0  0  0  0  0  0  0  0  0
  140.3650   78.6330  222.9910 C   0  0  0  0  0  0  0  0  0  0  0  0
  140.8290   77.6790  222.0700 C   0  0  0  0  0  0  0  0  0  0  0  0
  140.5880   76.2130  222.3490 C   0  0  0  0  0  0  0  0  0  0  0  0
  140.4890   73.3690  222.5950 N   0  0  0  0  0  0  0  0  0  0  0  0
  140.6420   71.5120  225.2500 C   0  0  0  0  0  0  0  0  0  0  0  0
  139.9610   70.6860  226.3520 C   0  0  0  0  0  0  0  0  0  0  0  0
  140.7483   68.4578  227.8499 H   0  0  0  0  0  0  0  0  0  0  0  0
  140.6120   66.8326  227.0968 H   0  0  0  0  0  0  0  0  0  0  0  0
  142.1888   67.6932  227.0968 H   0  0  0  0  0  0  0  0  0  0  0  0
  140.6100   67.6860  225.0330 H   0  0  0  0  0  0  0  0  0  0  0  0
  138.8560   68.8428  226.5718 H   0  0  0  0  0  0  0  0  0  0  0  0
  139.3048   68.7397  223.7522 H   0  0  0  0  0  0  0  0  0  0  0  0
  137.7550   68.9511  224.6946 H   0  0  0  0  0  0  0  0  0  0  0  0
  138.2392   70.7126  222.9077 H   0  0  0  0  0  0  0  0  0  0  0  0
  137.8711   71.3110  224.5614 H   0  0  0  0  0  0  0  0  0  0  0  0
  140.2860   69.7114  219.5958 H   0  0  0  0  0  0  0  0  0  0  0  0
  141.2765   69.6768  218.1036 H   0  0  0  0  0  0  0  0  0  0  0  0
  141.8452   68.3201  220.7852 H   0  0  0  0  0  0  0  0  0  0  0  0
  141.6017   67.5568  219.1584 H   0  0  0  0  0  0  0  0  0  0  0  0
  143.7289   66.3193  219.6803 H   0  0  0  0  0  0  0  0  0  0  0  0
  146.1986   66.3521  219.3443 H   0  0  0  0  0  0  0  0  0  0  0  0
  147.3786   68.5111  218.9342 H   0  0  0  0  0  0  0  0  0  0  0  0
  146.0948   70.6470  218.8685 H   0  0  0  0  0  0  0  0  0  0  0  0
  143.9507   71.7623  219.7631 H   0  0  0  0  0  0  0  0  0  0  0  0
  143.3754   71.3174  218.1094 H   0  0  0  0  0  0  0  0  0  0  0  0
  141.6284   75.1216  219.2422 H   0  0  0  0  0  0  0  0  0  0  0  0
  140.1957   76.1823  219.4872 H   0  0  0  0  0  0  0  0  0  0  0  0
  143.0912   76.7897  220.2674 H   0  0  0  0  0  0  0  0  0  0  0  0
  142.1281   77.5675  218.9564 H   0  0  0  0  0  0  0  0  0  0  0  0
  142.4090   79.8072  219.8881 H   0  0  0  0  0  0  0  0  0  0  0  0
  141.5679   81.4814  221.5326 H   0  0  0  0  0  0  0  0  0  0  0  0
  140.2451   80.7339  223.5134 H   0  0  0  0  0  0  0  0  0  0  0  0
  139.7955   78.3077  223.8741 H   0  0  0  0  0  0  0  0  0  0  0  0
  141.1602   75.9305  223.2450 H   0  0  0  0  0  0  0  0  0  0  0  0
  139.5045   76.0841  222.4880 H   0  0  0  0  0  0  0  0  0  0  0  0
  141.6546   71.1160  225.0830 H   0  0  0  0  0  0  0  0  0  0  0  0
  140.6760   72.5603  225.5814 H   0  0  0  0  0  0  0  0  0  0  0  0
  140.6593   70.5701  227.1940 H   0  0  0  0  0  0  0  0  0  0  0  0
  139.0504   71.2171  226.6660 H   0  0  0  0  0  0  0  0  0  0  0  0
  1  2  1  0
  2  3  1  0
  3  4  1  0
  4  5  1  0
  5  6  1  0
  6  7  1  0
  7  8  2  0
  8  9  1  0
  9 10  1  0
 10 11  1  0
 11 12  1  0
 12 13  1  0
 13 14  2  0
 14 15  1  0
 15 16  2  0
 16 17  1  0
 17 18  2  0
 18 19  1  0
  9 20  2  0
 20 21  1  0
 21 22  1  0
 22 23  1  0
 23 24  1  0
 24 25  1  0
 25 26  2  0
 26 27  1  0
 27 28  2  0
 28 29  1  0
 29 30  2  0
 30 31  1  0
 21 32  2  0
  6 33  1  0
 33 34  1  0
 34  3  1  0
 32  7  1  0
 19 10  1  0
 31 22  1  0
 18 13  1  0
 30 25  1  0
  1 35  1  0
  1 36  1  0
  1 37  1  0
  2 38  1  0
  3 39  1  0
  4 40  1  0
  4 41  1  0
  5 42  1  0
  5 43  1  0
 11 44  1  0
 11 45  1  0
 12 46  1  0
 12 47  1  0
 14 48  1  0
 15 49  1  0
 16 50  1  0
 17 51  1  0
 19 52  1  0
 19 53  1  0
 23 54  1  0
 23 55  1  0
 24 56  1  0
 24 57  1  0
 26 58  1  0
 27 59  1  0
 28 60  1  0
 29 61  1  0
 31 62  1  0
 31 63  1  0
 33 64  1  0
 33 65  1  0
 34 66  1  0
 34 67  1  0
M  END
>  <UniqueID>  (56) 
59

>  <SMILES>  (56) 
CNC1CCN(c2nc(N3CCc4ccccc4C3)nc(N3CCc4ccccc4C3)n2)CC1

>  <Energy>  (56) 
81.65917992965035

>  <Genealogy>  (56) 
CNC1CCN(c2nc(N3CCc4ccccc4C3)nc(N3CCc4ccccc4C3)n2)CC1 (3D coordinates assigned)
CNC1CCN(c2nc(N3CCc4ccccc4C3)nc(N3CCc4ccccc4C3)n2)CC1 (nonaromatic ring conformer: 81.65917992965035 kcal/mol)

>  <smiles>  (56) 
CNC1CCN(c2nc(N3CCc4ccccc4C3)nc(N3CCc4ccccc4C3)n2)CC1

>  <score_type>  (56) 
oracle

>  <origin>  (56) 
autodockgpu

>  <m_score__min__energy>  (56) 
-8.9900000000000002

>  <m_primary>  (56) 
energy

>  <meeko>  (56) 
{"free_energy": -8.66, "intermolecular_energy": -9.86, "internal_energy": -0.97, "cluster_size": 2, "cluster_id": 2, "rank_in_cluster": 2}

>  <energy>  (56) 
-8.68

>  <cluster_rmsd>  (56) 
1.01

>  <rmsd>  (56) 
271.6

>  <cluster>  (56) 
1

$$$$
DSYBMJCSYFRFMG-UHFFFAOYNA-N
     RDKit          3D

 67 72  0  0  0  0  0  0  0  0999 V2000
  145.9510   73.8130  220.8620 C   0  0  0  0  0  0  0  0  0  0  0  0
  146.3830   72.6000  220.1600 N   0  0  0  0  0  0  0  0  0  0  0  0
  145.5530   72.3270  218.9690 C   0  0  0  0  0  0  0  0  0  0  0  0
  144.7270   73.5800  218.5340 C   0  0  0  0  0  0  0  0  0  0  0  0
  143.2140   73.3340  218.5150 C   0  0  0  0  0  0  0  0  0  0  0  0
  142.8060   72.6740  219.7650 N   0  0  0  0  0  0  0  0  0  0  0  0
  141.8010   73.2440  220.6270 C   0  0  0  0  0  0  0  0  0  0  0  0
  141.5700   74.5830  220.6120 N   0  0  0  0  0  0  0  0  0  0  0  0
  140.5980   75.1320  221.3860 C   0  0  0  0  0  0  0  0  0  0  0  0
  140.3450   76.5540  221.3450 N   0  0  0  0  0  0  0  0  0  0  0  0
  140.4940   77.3250  220.1080 C   0  0  0  0  0  0  0  0  0  0  0  0
  141.7210   78.2270  220.2350 C   0  0  0  0  0  0  0  0  0  0  0  0
  141.7310   78.9780  221.5460 C   0  0  0  0  0  0  0  0  0  0  0  0
  142.5590   80.1040  221.6810 C   0  0  0  0  0  0  0  0  0  0  0  0
  142.6280   80.7900  222.8960 C   0  0  0  0  0  0  0  0  0  0  0  0
  141.8790   80.3540  223.9900 C   0  0  0  0  0  0  0  0  0  0  0  0
  141.0630   79.2260  223.8770 C   0  0  0  0  0  0  0  0  0  0  0  0
  140.9920   78.5190  222.6660 C   0  0  0  0  0  0  0  0  0  0  0  0
  140.0710   77.3240  222.5660 C   0  0  0  0  0  0  0  0  0  0  0  0
  139.8510   74.3230  222.1830 N   0  0  0  0  0  0  0  0  0  0  0  0
  140.0730   72.9830  222.2180 C   0  0  0  0  0  0  0  0  0  0  0  0
  139.2610   72.1350  223.0580 N   0  0  0  0  0  0  0  0  0  0  0  0
  139.8390   71.4750  224.2370 C   0  0  0  0  0  0  0  0  0  0  0  0
  139.3230   70.0440  224.3350 C   0  0  0  0  0  0  0  0  0  0  0  0
  137.8210   70.0290  224.3300 C   0  0  0  0  0  0  0  0  0  0  0  0
  137.1290   68.9910  224.9760 C   0  0  0  0  0  0  0  0  0  0  0  0
  135.7340   68.9510  224.9500 C   0  0  0  0  0  0  0  0  0  0  0  0
  135.0170   69.9410  224.2730 C   0  0  0  0  0  0  0  0  0  0  0  0
  135.6970   70.9650  223.6070 C   0  0  0  0  0  0  0  0  0  0  0  0
  137.1000   71.0170  223.6240 C   0  0  0  0  0  0  0  0  0  0  0  0
  137.8040   72.1020  222.8400 C   0  0  0  0  0  0  0  0  0  0  0  0
  141.0480   72.4520  221.4350 N   0  0  0  0  0  0  0  0  0  0  0  0
  143.4930   71.4400  220.1790 C   0  0  0  0  0  0  0  0  0  0  0  0
  144.6640   71.0960  219.2470 C   0  0  0  0  0  0  0  0  0  0  0  0
  146.0095   73.6486  221.9481 H   0  0  0  0  0  0  0  0  0  0  0  0
  146.6058   74.6514  220.5822 H   0  0  0  0  0  0  0  0  0  0  0  0
  144.9136   74.0488  220.5822 H   0  0  0  0  0  0  0  0  0  0  0  0
  146.3340   71.7920  220.8250 H   0  0  0  0  0  0  0  0  0  0  0  0
  146.2076   72.0987  218.1149 H   0  0  0  0  0  0  0  0  0  0  0  0
  144.9385   74.3987  219.2375 H   0  0  0  0  0  0  0  0  0  0  0  0
  145.0291   73.8276  217.5057 H   0  0  0  0  0  0  0  0  0  0  0  0
  142.6879   74.2953  218.4199 H   0  0  0  0  0  0  0  0  0  0  0  0
  142.9593   72.6890  217.6611 H   0  0  0  0  0  0  0  0  0  0  0  0
  140.6258   76.6389  219.2583 H   0  0  0  0  0  0  0  0  0  0  0  0
  139.5959   77.9371  219.9385 H   0  0  0  0  0  0  0  0  0  0  0  0
  142.6272   77.6065  220.1730 H   0  0  0  0  0  0  0  0  0  0  0  0
  141.6902   78.9637  219.4187 H   0  0  0  0  0  0  0  0  0  0  0  0
  143.1572   80.4482  220.8245 H   0  0  0  0  0  0  0  0  0  0  0  0
  143.2738   81.6754  222.9906 H   0  0  0  0  0  0  0  0  0  0  0  0
  141.9314   80.9000  224.9435 H   0  0  0  0  0  0  0  0  0  0  0  0
  140.4725   78.8895  224.7419 H   0  0  0  0  0  0  0  0  0  0  0  0
  140.2237   76.6768  223.4422 H   0  0  0  0  0  0  0  0  0  0  0  0
  139.0316   77.6823  222.5307 H   0  0  0  0  0  0  0  0  0  0  0  0
  140.9353   71.4622  224.1471 H   0  0  0  0  0  0  0  0  0  0  0  0
  139.5468   72.0283  225.1417 H   0  0  0  0  0  0  0  0  0  0  0  0
  139.6944   69.4649  223.4767 H   0  0  0  0  0  0  0  0  0  0  0  0
  139.6818   69.5982  225.2745 H   0  0  0  0  0  0  0  0  0  0  0  0
  137.6893   68.2059  225.5049 H   0  0  0  0  0  0  0  0  0  0  0  0
  135.1982   68.1389  225.4632 H   0  0  0  0  0  0  0  0  0  0  0  0
  133.9174   69.9147  224.2641 H   0  0  0  0  0  0  0  0  0  0  0  0
  135.1287   71.7357  223.0656 H   0  0  0  0  0  0  0  0  0  0  0  0
  137.6161   71.9352  221.7691 H   0  0  0  0  0  0  0  0  0  0  0  0
  137.4032   73.0649  223.1894 H   0  0  0  0  0  0  0  0  0  0  0  0
  143.8788   71.5734  221.2004 H   0  0  0  0  0  0  0  0  0  0  0  0
  142.7675   70.6144  220.1337 H   0  0  0  0  0  0  0  0  0  0  0  0
  145.2764   70.3131  219.7181 H   0  0  0  0  0  0  0  0  0  0  0  0
  144.2494   70.7491  218.2890 H   0  0  0  0  0  0  0  0  0  0  0  0
  1  2  1  0
  2  3  1  0
  3  4  1  0
  4  5  1  0
  5  6  1  0
  6  7  1  0
  7  8  2  0
  8  9  1  0
  9 10  1  0
 10 11  1  0
 11 12  1  0
 12 13  1  0
 13 14  2  0
 14 15  1  0
 15 16  2  0
 16 17  1  0
 17 18  2  0
 18 19  1  0
  9 20  2  0
 20 21  1  0
 21 22  1  0
 22 23  1  0
 23 24  1  0
 24 25  1  0
 25 26  2  0
 26 27  1  0
 27 28  2  0
 28 29  1  0
 29 30  2  0
 30 31  1  0
 21 32  2  0
  6 33  1  0
 33 34  1  0
 34  3  1  0
 32  7  1  0
 19 10  1  0
 31 22  1  0
 18 13  1  0
 30 25  1  0
  1 35  1  0
  1 36  1  0
  1 37  1  0
  2 38  1  0
  3 39  1  0
  4 40  1  0
  4 41  1  0
  5 42  1  0
  5 43  1  0
 11 44  1  0
 11 45  1  0
 12 46  1  0
 12 47  1  0
 14 48  1  0
 15 49  1  0
 16 50  1  0
 17 51  1  0
 19 52  1  0
 19 53  1  0
 23 54  1  0
 23 55  1  0
 24 56  1  0
 24 57  1  0
 26 58  1  0
 27 59  1  0
 28 60  1  0
 29 61  1  0
 31 62  1  0
 31 63  1  0
 33 64  1  0
 33 65  1  0
 34 66  1  0
 34 67  1  0
M  END
>  <UniqueID>  (57) 
59

>  <SMILES>  (57) 
CNC1CCN(c2nc(N3CCc4ccccc4C3)nc(N3CCc4ccccc4C3)n2)CC1

>  <Energy>  (57) 
81.65917992965035

>  <Genealogy>  (57) 
CNC1CCN(c2nc(N3CCc4ccccc4C3)nc(N3CCc4ccccc4C3)n2)CC1 (3D coordinates assigned)
CNC1CCN(c2nc(N3CCc4ccccc4C3)nc(N3CCc4ccccc4C3)n2)CC1 (nonaromatic ring conformer: 81.65917992965035 kcal/mol)

>  <smiles>  (57) 
CNC1CCN(c2nc(N3CCc4ccccc4C3)nc(N3CCc4ccccc4C3)n2)CC1

>  <score_type>  (57) 
oracle

>  <origin>  (57) 
autodockgpu

>  <m_score__min__energy>  (57) 
-8.9900000000000002

>  <m_primary>  (57) 
energy

>  <meeko>  (57) 
{"free_energy": -8.83, "intermolecular_energy": -10.02, "internal_energy": -1.06, "cluster_size": 18, "cluster_id": 1, "rank_in_cluster": 12}

>  <energy>  (57) 
-8.65

>  <cluster_rmsd>  (57) 
0.68

>  <rmsd>  (57) 
271.62

>  <cluster>  (57) 
1

$$$$
DSYBMJCSYFRFMG-UHFFFAOYNA-N
     RDKit          3D

 67 72  0  0  0  0  0  0  0  0999 V2000
  146.1650   73.3030  220.4940 C   0  0  0  0  0  0  0  0  0  0  0  0
  146.2860   72.1800  219.5580 N   0  0  0  0  0  0  0  0  0  0  0  0
  145.3630   72.3150  218.4120 C   0  0  0  0  0  0  0  0  0  0  0  0
  144.6230   73.6900  218.4190 C   0  0  0  0  0  0  0  0  0  0  0  0
  143.0960   73.5590  218.4580 C   0  0  0  0  0  0  0  0  0  0  0  0
  142.7110   72.5960  219.5010 N   0  0  0  0  0  0  0  0  0  0  0  0
  141.8140   72.9580  220.5710 C   0  0  0  0  0  0  0  0  0  0  0  0
  141.1790   74.1590  220.5500 N   0  0  0  0  0  0  0  0  0  0  0  0
  140.2990   74.4990  221.5260 C   0  0  0  0  0  0  0  0  0  0  0  0
  139.6110   75.7690  221.4830 N   0  0  0  0  0  0  0  0  0  0  0  0
  139.1480   76.3490  220.2200 C   0  0  0  0  0  0  0  0  0  0  0  0
  140.0110   77.5660  219.8890 C   0  0  0  0  0  0  0  0  0  0  0  0
  140.1620   78.4840  221.0790 C   0  0  0  0  0  0  0  0  0  0  0  0
  140.5970   79.8030  220.8710 C   0  0  0  0  0  0  0  0  0  0  0  0
  140.7940   80.6620  221.9550 C   0  0  0  0  0  0  0  0  0  0  0  0
  140.5690   80.2100  223.2570 C   0  0  0  0  0  0  0  0  0  0  0  0
  140.1520   78.8960  223.4810 C   0  0  0  0  0  0  0  0  0  0  0  0
  139.9610   78.0180  222.4030 C   0  0  0  0  0  0  0  0  0  0  0  0
  139.4740   76.6130  222.6780 C   0  0  0  0  0  0  0  0  0  0  0  0
  140.0550   73.6190  222.5330 N   0  0  0  0  0  0  0  0  0  0  0  0
  140.6860   72.4170  222.5750 C   0  0  0  0  0  0  0  0  0  0  0  0
  140.4050   71.4870  223.6430 N   0  0  0  0  0  0  0  0  0  0  0  0
  139.6550   70.2510  223.3820 C   0  0  0  0  0  0  0  0  0  0  0  0
  138.6580   70.0020  224.5090 C   0  0  0  0  0  0  0  0  0  0  0  0
  139.3610   69.9940  225.8360 C   0  0  0  0  0  0  0  0  0  0  0  0
  138.8400   69.2390  226.9000 C   0  0  0  0  0  0  0  0  0  0  0  0
  139.4700   69.2490  228.1460 C   0  0  0  0  0  0  0  0  0  0  0  0
  140.6180   70.0190  228.3440 C   0  0  0  0  0  0  0  0  0  0  0  0
  141.1310   70.7930  227.2990 C   0  0  0  0  0  0  0  0  0  0  0  0
  140.5080   70.7920  226.0400 C   0  0  0  0  0  0  0  0  0  0  0  0
  141.0520   71.6900  224.9520 C   0  0  0  0  0  0  0  0  0  0  0  0
  141.5620   72.0940  221.5880 N   0  0  0  0  0  0  0  0  0  0  0  0
  143.3150   71.2530  219.4920 C   0  0  0  0  0  0  0  0  0  0  0  0
  144.3910   71.1160  218.4050 C   0  0  0  0  0  0  0  0  0  0  0  0
  146.2056   72.9258  221.5265 H   0  0  0  0  0  0  0  0  0  0  0  0
  146.9923   74.0089  220.3287 H   0  0  0  0  0  0  0  0  0  0  0  0
  145.2063   73.8165  220.3287 H   0  0  0  0  0  0  0  0  0  0  0  0
  146.0900   71.2900  220.0740 H   0  0  0  0  0  0  0  0  0  0  0  0
  145.9410   72.3000  217.4762 H   0  0  0  0  0  0  0  0  0  0  0  0
  144.9472   74.2560  219.3047 H   0  0  0  0  0  0  0  0  0  0  0  0
  144.8813   74.2027  217.4807 H   0  0  0  0  0  0  0  0  0  0  0  0
  142.6498   74.5392  218.6818 H   0  0  0  0  0  0  0  0  0  0  0  0
  142.7342   73.2047  217.4815 H   0  0  0  0  0  0  0  0  0  0  0  0
  139.2374   75.6032  219.4164 H   0  0  0  0  0  0  0  0  0  0  0  0
  138.0949   76.6528  220.3130 H   0  0  0  0  0  0  0  0  0  0  0  0
  141.0076   77.2217  219.5756 H   0  0  0  0  0  0  0  0  0  0  0  0
  139.5166   78.1280  219.0829 H   0  0  0  0  0  0  0  0  0  0  0  0
  140.7838   80.1620  219.8482 H   0  0  0  0  0  0  0  0  0  0  0  0
  141.1269   81.6961  221.7826 H   0  0  0  0  0  0  0  0  0  0  0  0
  140.7205   80.8903  224.1080 H   0  0  0  0  0  0  0  0  0  0  0  0
  139.9722   78.5472  224.5086 H   0  0  0  0  0  0  0  0  0  0  0  0
  140.0682   76.1791  223.4958 H   0  0  0  0  0  0  0  0  0  0  0  0
  138.4111   76.6572  222.9580 H   0  0  0  0  0  0  0  0  0  0  0  0
  139.1128   70.3474  222.4298 H   0  0  0  0  0  0  0  0  0  0  0  0
  140.3570   69.4060  223.3258 H   0  0  0  0  0  0  0  0  0  0  0  0
  137.8998   70.7989  224.5051 H   0  0  0  0  0  0  0  0  0  0  0  0
  138.1788   69.0243  224.3526 H   0  0  0  0  0  0  0  0  0  0  0  0
  137.9314   68.6371  226.7508 H   0  0  0  0  0  0  0  0  0  0  0  0
  139.0614   68.6495  228.9728 H   0  0  0  0  0  0  0  0  0  0  0  0
  141.1191   70.0165  229.3232 H   0  0  0  0  0  0  0  0  0  0  0  0
  142.0287   71.4070  227.4638 H   0  0  0  0  0  0  0  0  0  0  0  0
  140.9011   72.7362  225.2563 H   0  0  0  0  0  0  0  0  0  0  0  0
  142.1162   71.4404  224.8288 H   0  0  0  0  0  0  0  0  0  0  0  0
  143.7746   71.0633  220.4732 H   0  0  0  0  0  0  0  0  0  0  0  0
  142.5201   70.5233  219.2785 H   0  0  0  0  0  0  0  0  0  0  0  0
  144.9620   70.1927  218.5825 H   0  0  0  0  0  0  0  0  0  0  0  0
  143.8892   71.0861  217.4266 H   0  0  0  0  0  0  0  0  0  0  0  0
  1  2  1  0
  2  3  1  0
  3  4  1  0
  4  5  1  0
  5  6  1  0
  6  7  1  0
  7  8  2  0
  8  9  1  0
  9 10  1  0
 10 11  1  0
 11 12  1  0
 12 13  1  0
 13 14  2  0
 14 15  1  0
 15 16  2  0
 16 17  1  0
 17 18  2  0
 18 19  1  0
  9 20  2  0
 20 21  1  0
 21 22  1  0
 22 23  1  0
 23 24  1  0
 24 25  1  0
 25 26  2  0
 26 27  1  0
 27 28  2  0
 28 29  1  0
 29 30  2  0
 30 31  1  0
 21 32  2  0
  6 33  1  0
 33 34  1  0
 34  3  1  0
 32  7  1  0
 19 10  1  0
 31 22  1  0
 18 13  1  0
 30 25  1  0
  1 35  1  0
  1 36  1  0
  1 37  1  0
  2 38  1  0
  3 39  1  0
  4 40  1  0
  4 41  1  0
  5 42  1  0
  5 43  1  0
 11 44  1  0
 11 45  1  0
 12 46  1  0
 12 47  1  0
 14 48  1  0
 15 49  1  0
 16 50  1  0
 17 51  1  0
 19 52  1  0
 19 53  1  0
 23 54  1  0
 23 55  1  0
 24 56  1  0
 24 57  1  0
 26 58  1  0
 27 59  1  0
 28 60  1  0
 29 61  1  0
 31 62  1  0
 31 63  1  0
 33 64  1  0
 33 65  1  0
 34 66  1  0
 34 67  1  0
M  END
>  <UniqueID>  (58) 
59

>  <SMILES>  (58) 
CNC1CCN(c2nc(N3CCc4ccccc4C3)nc(N3CCc4ccccc4C3)n2)CC1

>  <Energy>  (58) 
81.65917992965035

>  <Genealogy>  (58) 
CNC1CCN(c2nc(N3CCc4ccccc4C3)nc(N3CCc4ccccc4C3)n2)CC1 (3D coordinates assigned)
CNC1CCN(c2nc(N3CCc4ccccc4C3)nc(N3CCc4ccccc4C3)n2)CC1 (nonaromatic ring conformer: 81.65917992965035 kcal/mol)

>  <smiles>  (58) 
CNC1CCN(c2nc(N3CCc4ccccc4C3)nc(N3CCc4ccccc4C3)n2)CC1

>  <score_type>  (58) 
oracle

>  <origin>  (58) 
autodockgpu

>  <m_score__min__energy>  (58) 
-8.9900000000000002

>  <m_primary>  (58) 
energy

>  <meeko>  (58) 
{"free_energy": -8.86, "intermolecular_energy": -10.06, "internal_energy": -1.03, "cluster_size": 18, "cluster_id": 1, "rank_in_cluster": 8}

>  <energy>  (58) 
-8.63

>  <cluster_rmsd>  (58) 
0.93

>  <rmsd>  (58) 
271.57

>  <cluster>  (58) 
1

$$$$
DSYBMJCSYFRFMG-UHFFFAOYNA-N
     RDKit          3D

 67 72  0  0  0  0  0  0  0  0999 V2000
  146.1070   73.4470  220.4410 C   0  0  0  0  0  0  0  0  0  0  0  0
  146.3150   72.3260  219.5170 N   0  0  0  0  0  0  0  0  0  0  0  0
  145.3670   72.3620  218.3850 C   0  0  0  0  0  0  0  0  0  0  0  0
  144.5600   73.6990  218.3410 C   0  0  0  0  0  0  0  0  0  0  0  0
  143.0430   73.4970  218.4170 C   0  0  0  0  0  0  0  0  0  0  0  0
  142.7240   72.5680  219.5120 N   0  0  0  0  0  0  0  0  0  0  0  0
  141.8290   72.9390  220.5820 C   0  0  0  0  0  0  0  0  0  0  0  0
  141.2040   74.1450  220.5590 N   0  0  0  0  0  0  0  0  0  0  0  0
  140.3260   74.4930  221.5350 C   0  0  0  0  0  0  0  0  0  0  0  0
  139.6480   75.7680  221.4890 N   0  0  0  0  0  0  0  0  0  0  0  0
  139.1810   76.3450  220.2260 C   0  0  0  0  0  0  0  0  0  0  0  0
  140.0520   77.5540  219.8850 C   0  0  0  0  0  0  0  0  0  0  0  0
  140.2170   78.4770  221.0690 C   0  0  0  0  0  0  0  0  0  0  0  0
  140.6610   79.7910  220.8530 C   0  0  0  0  0  0  0  0  0  0  0  0
  140.8710   80.6540  221.9320 C   0  0  0  0  0  0  0  0  0  0  0  0
  140.6500   80.2100  223.2370 C   0  0  0  0  0  0  0  0  0  0  0  0
  140.2240   78.9000  223.4700 C   0  0  0  0  0  0  0  0  0  0  0  0
  140.0200   78.0180  222.3970 C   0  0  0  0  0  0  0  0  0  0  0  0
  139.5240   76.6180  222.6810 C   0  0  0  0  0  0  0  0  0  0  0  0
  140.0750   73.6160  222.5430 N   0  0  0  0  0  0  0  0  0  0  0  0
  140.6970   72.4090  222.5870 C   0  0  0  0  0  0  0  0  0  0  0  0
  140.4090   71.4830  223.6560 N   0  0  0  0  0  0  0  0  0  0  0  0
  139.6320   70.2630  223.4010 C   0  0  0  0  0  0  0  0  0  0  0  0
  138.6430   70.0310  224.5370 C   0  0  0  0  0  0  0  0  0  0  0  0
  139.3600   70.0070  225.8570 C   0  0  0  0  0  0  0  0  0  0  0  0
  138.8350   69.2600  226.9260 C   0  0  0  0  0  0  0  0  0  0  0  0
  139.4770   69.2560  228.1650 C   0  0  0  0  0  0  0  0  0  0  0  0
  140.6430   70.0030  228.3520 C   0  0  0  0  0  0  0  0  0  0  0  0
  141.1600   70.7680  227.3030 C   0  0  0  0  0  0  0  0  0  0  0  0
  140.5240   70.7820  226.0510 C   0  0  0  0  0  0  0  0  0  0  0  0
  141.0740   71.6710  224.9580 C   0  0  0  0  0  0  0  0  0  0  0  0
  141.5710   72.0780  221.6000 N   0  0  0  0  0  0  0  0  0  0  0  0
  143.3920   71.2570  219.5550 C   0  0  0  0  0  0  0  0  0  0  0  0
  144.4540   71.1190  218.4550 C   0  0  0  0  0  0  0  0  0  0  0  0
  146.1742   73.0851  221.4776 H   0  0  0  0  0  0  0  0  0  0  0  0
  146.8785   74.2119  220.2690 H   0  0  0  0  0  0  0  0  0  0  0  0
  145.1124   73.8842  220.2690 H   0  0  0  0  0  0  0  0  0  0  0  0
  146.2080   71.4300  220.0480 H   0  0  0  0  0  0  0  0  0  0  0  0
  145.9291   72.3303  217.4400 H   0  0  0  0  0  0  0  0  0  0  0  0
  144.8718   74.3226  219.1918 H   0  0  0  0  0  0  0  0  0  0  0  0
  144.7759   74.1769  217.3740 H   0  0  0  0  0  0  0  0  0  0  0  0
  142.5536   74.4644  218.6032 H   0  0  0  0  0  0  0  0  0  0  0  0
  142.6816   73.0790  217.4659 H   0  0  0  0  0  0  0  0  0  0  0  0
  139.2599   75.5949  219.4253 H   0  0  0  0  0  0  0  0  0  0  0  0
  138.1305   76.6566  220.3232 H   0  0  0  0  0  0  0  0  0  0  0  0
  141.0442   77.2002  219.5681 H   0  0  0  0  0  0  0  0  0  0  0  0
  139.5572   78.1160  219.0792 H   0  0  0  0  0  0  0  0  0  0  0  0
  140.8449   80.1438  219.8275 H   0  0  0  0  0  0  0  0  0  0  0  0
  141.2110   81.6847  221.7528 H   0  0  0  0  0  0  0  0  0  0  0  0
  140.8116   80.8932  224.0838 H   0  0  0  0  0  0  0  0  0  0  0  0
  140.0474   78.5576  224.5003 H   0  0  0  0  0  0  0  0  0  0  0  0
  140.1195   76.1832  223.4973 H   0  0  0  0  0  0  0  0  0  0  0  0
  138.4631   76.6713  222.9669 H   0  0  0  0  0  0  0  0  0  0  0  0
  139.0816   70.3722  222.4549 H   0  0  0  0  0  0  0  0  0  0  0  0
  140.3167   69.4045  223.3360 H   0  0  0  0  0  0  0  0  0  0  0  0
  137.9001   70.8422  224.5425 H   0  0  0  0  0  0  0  0  0  0  0  0
  138.1435   69.0630  224.3839 H   0  0  0  0  0  0  0  0  0  0  0  0
  137.9137   68.6758  226.7851 H   0  0  0  0  0  0  0  0  0  0  0  0
  139.0647   68.6641  228.9954 H   0  0  0  0  0  0  0  0  0  0  0  0
  141.1544   69.9889  229.3258 H   0  0  0  0  0  0  0  0  0  0  0  0
  142.0716   71.3634  227.4591 H   0  0  0  0  0  0  0  0  0  0  0  0
  140.9472   72.7195  225.2654 H   0  0  0  0  0  0  0  0  0  0  0  0
  142.1316   71.4005  224.8228 H   0  0  0  0  0  0  0  0  0  0  0  0
  143.8773   71.1372  220.5348 H   0  0  0  0  0  0  0  0  0  0  0  0
  142.6299   70.4807  219.3922 H   0  0  0  0  0  0  0  0  0  0  0  0
  145.0722   70.2338  218.6651 H   0  0  0  0  0  0  0  0  0  0  0  0
  143.9370   71.0179  217.4894 H   0  0  0  0  0  0  0  0  0  0  0  0
  1  2  1  0
  2  3  1  0
  3  4  1  0
  4  5  1  0
  5  6  1  0
  6  7  1  0
  7  8  2  0
  8  9  1  0
  9 10  1  0
 10 11  1  0
 11 12  1  0
 12 13  1  0
 13 14  2  0
 14 15  1  0
 15 16  2  0
 16 17  1  0
 17 18  2  0
 18 19  1  0
  9 20  2  0
 20 21  1  0
 21 22  1  0
 22 23  1  0
 23 24  1  0
 24 25  1  0
 25 26  2  0
 26 27  1  0
 27 28  2  0
 28 29  1  0
 29 30  2  0
 30 31  1  0
 21 32  2  0
  6 33  1  0
 33 34  1  0
 34  3  1  0
 32  7  1  0
 19 10  1  0
 31 22  1  0
 18 13  1  0
 30 25  1  0
  1 35  1  0
  1 36  1  0
  1 37  1  0
  2 38  1  0
  3 39  1  0
  4 40  1  0
  4 41  1  0
  5 42  1  0
  5 43  1  0
 11 44  1  0
 11 45  1  0
 12 46  1  0
 12 47  1  0
 14 48  1  0
 15 49  1  0
 16 50  1  0
 17 51  1  0
 19 52  1  0
 19 53  1  0
 23 54  1  0
 23 55  1  0
 24 56  1  0
 24 57  1  0
 26 58  1  0
 27 59  1  0
 28 60  1  0
 29 61  1  0
 31 62  1  0
 31 63  1  0
 33 64  1  0
 33 65  1  0
 34 66  1  0
 34 67  1  0
M  END
>  <UniqueID>  (59) 
59

>  <SMILES>  (59) 
CNC1CCN(c2nc(N3CCc4ccccc4C3)nc(N3CCc4ccccc4C3)n2)CC1

>  <Energy>  (59) 
81.65917992965035

>  <Genealogy>  (59) 
CNC1CCN(c2nc(N3CCc4ccccc4C3)nc(N3CCc4ccccc4C3)n2)CC1 (3D coordinates assigned)
CNC1CCN(c2nc(N3CCc4ccccc4C3)nc(N3CCc4ccccc4C3)n2)CC1 (nonaromatic ring conformer: 81.65917992965035 kcal/mol)

>  <smiles>  (59) 
CNC1CCN(c2nc(N3CCc4ccccc4C3)nc(N3CCc4ccccc4C3)n2)CC1

>  <score_type>  (59) 
oracle

>  <origin>  (59) 
autodockgpu

>  <m_score__min__energy>  (59) 
-8.9900000000000002

>  <m_primary>  (59) 
energy

>  <meeko>  (59) 
{"free_energy": -8.88, "intermolecular_energy": -10.07, "internal_energy": -1.04, "cluster_size": 18, "cluster_id": 1, "rank_in_cluster": 4}

>  <energy>  (59) 
-8.7

>  <cluster_rmsd>  (59) 
0.0

>  <rmsd>  (59) 
271.23

>  <cluster>  (59) 
2

$$$$
DSYBMJCSYFRFMG-UHFFFAOYNA-N
     RDKit          3D

 67 72  0  0  0  0  0  0  0  0999 V2000
  145.8940   73.8280  220.8260 C   0  0  0  0  0  0  0  0  0  0  0  0
  146.3770   72.6160  220.1560 N   0  0  0  0  0  0  0  0  0  0  0  0
  145.5390   72.2580  218.9930 C   0  0  0  0  0  0  0  0  0  0  0  0
  144.6740   73.4640  218.5040 C   0  0  0  0  0  0  0  0  0  0  0  0
  143.1680   73.1790  218.5190 C   0  0  0  0  0  0  0  0  0  0  0  0
  142.7940   72.5760  219.8090 N   0  0  0  0  0  0  0  0  0  0  0  0
  141.7850   73.1660  220.6540 C   0  0  0  0  0  0  0  0  0  0  0  0
  141.5680   74.5070  220.6210 N   0  0  0  0  0  0  0  0  0  0  0  0
  140.5930   75.0740  221.3780 C   0  0  0  0  0  0  0  0  0  0  0  0
  140.3540   76.4980  221.3170 N   0  0  0  0  0  0  0  0  0  0  0  0
  140.5820   77.2640  220.0900 C   0  0  0  0  0  0  0  0  0  0  0  0
  141.8070   78.1570  220.2850 C   0  0  0  0  0  0  0  0  0  0  0  0
  141.7450   78.9120  221.5920 C   0  0  0  0  0  0  0  0  0  0  0  0
  142.5730   80.0310  221.7720 C   0  0  0  0  0  0  0  0  0  0  0  0
  142.5760   80.7210  222.9870 C   0  0  0  0  0  0  0  0  0  0  0  0
  141.7600   80.2950  224.0370 C   0  0  0  0  0  0  0  0  0  0  0  0
  140.9440   79.1730  223.8790 C   0  0  0  0  0  0  0  0  0  0  0  0
  140.9380   78.4620  222.6680 C   0  0  0  0  0  0  0  0  0  0  0  0
  140.0150   77.2740  222.5180 C   0  0  0  0  0  0  0  0  0  0  0  0
  139.8300   74.2810  222.1760 N   0  0  0  0  0  0  0  0  0  0  0  0
  140.0380   72.9400  222.2290 C   0  0  0  0  0  0  0  0  0  0  0  0
  139.2100   72.1100  223.0710 N   0  0  0  0  0  0  0  0  0  0  0  0
  139.7710   71.4520  224.2580 C   0  0  0  0  0  0  0  0  0  0  0  0
  139.2350   70.0290  224.3640 C   0  0  0  0  0  0  0  0  0  0  0  0
  137.7330   70.0340  224.3490 C   0  0  0  0  0  0  0  0  0  0  0  0
  137.0230   69.0100  224.9980 C   0  0  0  0  0  0  0  0  0  0  0  0
  135.6270   68.9890  224.9630 C   0  0  0  0  0  0  0  0  0  0  0  0
  134.9290   69.9830  224.2740 C   0  0  0  0  0  0  0  0  0  0  0  0
  135.6270   70.9930  223.6040 C   0  0  0  0  0  0  0  0  0  0  0  0
  137.0300   71.0260  223.6300 C   0  0  0  0  0  0  0  0  0  0  0  0
  137.7540   72.0950  222.8420 C   0  0  0  0  0  0  0  0  0  0  0  0
  141.0160   72.3910  221.4620 N   0  0  0  0  0  0  0  0  0  0  0  0
  143.5200   71.3850  220.2790 C   0  0  0  0  0  0  0  0  0  0  0  0
  144.6870   71.0210  219.3490 C   0  0  0  0  0  0  0  0  0  0  0  0
  145.9486   73.6909  221.9161 H   0  0  0  0  0  0  0  0  0  0  0  0
  146.5199   74.6835  220.5322 H   0  0  0  0  0  0  0  0  0  0  0  0
  144.8512   74.0186  220.5322 H   0  0  0  0  0  0  0  0  0  0  0  0
  146.3850   71.8300  220.8480 H   0  0  0  0  0  0  0  0  0  0  0  0
  146.1883   72.0014  218.1429 H   0  0  0  0  0  0  0  0  0  0  0  0
  144.8726   74.3242  219.1602 H   0  0  0  0  0  0  0  0  0  0  0  0
  144.9562   73.6636  217.4597 H   0  0  0  0  0  0  0  0  0  0  0  0
  142.6156   74.1201  218.3806 H   0  0  0  0  0  0  0  0  0  0  0  0
  142.9189   72.4835  217.7039 H   0  0  0  0  0  0  0  0  0  0  0  0
  140.7574   76.5743  219.2512 H   0  0  0  0  0  0  0  0  0  0  0  0
  139.7005   77.8834  219.8678 H   0  0  0  0  0  0  0  0  0  0  0  0
  142.7104   77.5295  220.2782 H   0  0  0  0  0  0  0  0  0  0  0  0
  141.8308   78.8906  219.4657 H   0  0  0  0  0  0  0  0  0  0  0  0
  143.2238   80.3669  220.9512 H   0  0  0  0  0  0  0  0  0  0  0  0
  143.2224   81.6015  223.1166 H   0  0  0  0  0  0  0  0  0  0  0  0
  141.7600   80.8442  224.9901 H   0  0  0  0  0  0  0  0  0  0  0  0
  140.3014   78.8437  224.7089 H   0  0  0  0  0  0  0  0  0  0  0  0
  140.1112   76.6285  223.4035 H   0  0  0  0  0  0  0  0  0  0  0  0
  138.9822   77.6400  222.4213 H   0  0  0  0  0  0  0  0  0  0  0  0
  140.8675   71.4236  224.1753 H   0  0  0  0  0  0  0  0  0  0  0  0
  139.4805   72.0164  225.1564 H   0  0  0  0  0  0  0  0  0  0  0  0
  139.6042   69.4380  223.5128 H   0  0  0  0  0  0  0  0  0  0  0  0
  139.5814   69.5862  225.3095 H   0  0  0  0  0  0  0  0  0  0  0  0
  137.5691   68.2212  225.5361 H   0  0  0  0  0  0  0  0  0  0  0  0
  135.0766   68.1884  225.4788 H   0  0  0  0  0  0  0  0  0  0  0  0
  133.8292   69.9717  224.2582 H   0  0  0  0  0  0  0  0  0  0  0  0
  135.0726   71.7669  223.0529 H   0  0  0  0  0  0  0  0  0  0  0  0
  137.5718   71.9216  221.7711 H   0  0  0  0  0  0  0  0  0  0  0  0
  137.3634   73.0662  223.1799 H   0  0  0  0  0  0  0  0  0  0  0  0
  143.9164   71.5844  221.2855 H   0  0  0  0  0  0  0  0  0  0  0  0
  142.8165   70.5394  220.2900 H   0  0  0  0  0  0  0  0  0  0  0  0
  145.3262   70.2803  219.8518 H   0  0  0  0  0  0  0  0  0  0  0  0
  144.2690   70.6122  218.4173 H   0  0  0  0  0  0  0  0  0  0  0  0
  1  2  1  0
  2  3  1  0
  3  4  1  0
  4  5  1  0
  5  6  1  0
  6  7  1  0
  7  8  2  0
  8  9  1  0
  9 10  1  0
 10 11  1  0
 11 12  1  0
 12 13  1  0
 13 14  2  0
 14 15  1  0
 15 16  2  0
 16 17  1  0
 17 18  2  0
 18 19  1  0
  9 20  2  0
 20 21  1  0
 21 22  1  0
 22 23  1  0
 23 24  1  0
 24 25  1  0
 25 26  2  0
 26 27  1  0
 27 28  2  0
 28 29  1  0
 29 30  2  0
 30 31  1  0
 21 32  2  0
  6 33  1  0
 33 34  1  0
 34  3  1  0
 32  7  1  0
 19 10  1  0
 31 22  1  0
 18 13  1  0
 30 25  1  0
  1 35  1  0
  1 36  1  0
  1 37  1  0
  2 38  1  0
  3 39  1  0
  4 40  1  0
  4 41  1  0
  5 42  1  0
  5 43  1  0
 11 44  1  0
 11 45  1  0
 12 46  1  0
 12 47  1  0
 14 48  1  0
 15 49  1  0
 16 50  1  0
 17 51  1  0
 19 52  1  0
 19 53  1  0
 23 54  1  0
 23 55  1  0
 24 56  1  0
 24 57  1  0
 26 58  1  0
 27 59  1  0
 28 60  1  0
 29 61  1  0
 31 62  1  0
 31 63  1  0
 33 64  1  0
 33 65  1  0
 34 66  1  0
 34 67  1  0
M  END
>  <UniqueID>  (60) 
59

>  <SMILES>  (60) 
CNC1CCN(c2nc(N3CCc4ccccc4C3)nc(N3CCc4ccccc4C3)n2)CC1

>  <Energy>  (60) 
81.65917992965035

>  <Genealogy>  (60) 
CNC1CCN(c2nc(N3CCc4ccccc4C3)nc(N3CCc4ccccc4C3)n2)CC1 (3D coordinates assigned)
CNC1CCN(c2nc(N3CCc4ccccc4C3)nc(N3CCc4ccccc4C3)n2)CC1 (nonaromatic ring conformer: 81.65917992965035 kcal/mol)

>  <smiles>  (60) 
CNC1CCN(c2nc(N3CCc4ccccc4C3)nc(N3CCc4ccccc4C3)n2)CC1

>  <score_type>  (60) 
oracle

>  <origin>  (60) 
autodockgpu

>  <m_score__min__energy>  (60) 
-8.9900000000000002

>  <m_primary>  (60) 
energy

>  <meeko>  (60) 
{"free_energy": -8.81, "intermolecular_energy": -10.01, "internal_energy": -1.06, "cluster_size": 18, "cluster_id": 1, "rank_in_cluster": 14}

>  <energy>  (60) 
-8.66

>  <cluster_rmsd>  (60) 
0.55

>  <rmsd>  (60) 
271.46

>  <cluster>  (60) 
2

$$$$
DSYBMJCSYFRFMG-UHFFFAOYNA-N
     RDKit          3D

 67 72  0  0  0  0  0  0  0  0999 V2000
  140.2690   67.3800  226.0920 C   0  0  0  0  0  0  0  0  0  0  0  0
  139.5730   67.9650  224.9420 N   0  0  0  0  0  0  0  0  0  0  0  0
  138.7190   69.1050  225.3370 C   0  0  0  0  0  0  0  0  0  0  0  0
  137.9010   69.6650  224.1300 C   0  0  0  0  0  0  0  0  0  0  0  0
  138.1710   71.1470  223.8470 C   0  0  0  0  0  0  0  0  0  0  0  0
  139.6230   71.3880  223.8310 N   0  0  0  0  0  0  0  0  0  0  0  0
  140.2800   71.9700  222.6860 C   0  0  0  0  0  0  0  0  0  0  0  0
  140.8370   71.1690  221.7400 N   0  0  0  0  0  0  0  0  0  0  0  0
  141.4220   71.6990  220.6350 C   0  0  0  0  0  0  0  0  0  0  0  0
  141.9910   70.8370  219.6240 N   0  0  0  0  0  0  0  0  0  0  0  0
  141.2840   69.6480  219.1410 C   0  0  0  0  0  0  0  0  0  0  0  0
  142.0070   68.4030  219.6530 C   0  0  0  0  0  0  0  0  0  0  0  0
  143.4970   68.4860  219.4210 C   0  0  0  0  0  0  0  0  0  0  0  0
  144.2640   67.3120  219.4830 C   0  0  0  0  0  0  0  0  0  0  0  0
  145.6510   67.3620  219.3220 C   0  0  0  0  0  0  0  0  0  0  0  0
  146.2870   68.5860  219.1070 C   0  0  0  0  0  0  0  0  0  0  0  0
  145.5400   69.7660  219.0600 C   0  0  0  0  0  0  0  0  0  0  0  0
  144.1470   69.7320  219.2310 C   0  0  0  0  0  0  0  0  0  0  0  0
  143.3650   71.0230  219.1370 C   0  0  0  0  0  0  0  0  0  0  0  0
  141.4440   73.0480  220.4810 N   0  0  0  0  0  0  0  0  0  0  0  0
  140.9000   73.8660  221.4190 C   0  0  0  0  0  0  0  0  0  0  0  0
  140.9190   75.2970  221.2340 N   0  0  0  0  0  0  0  0  0  0  0  0
  141.1840   75.8780  219.9100 C   0  0  0  0  0  0  0  0  0  0  0  0
  142.1090   77.0810  220.0470 C   0  0  0  0  0  0  0  0  0  0  0  0
  141.5380   78.0720  221.0200 C   0  0  0  0  0  0  0  0  0  0  0  0
  141.8410   79.4380  220.8890 C   0  0  0  0  0  0  0  0  0  0  0  0
  141.3390   80.3630  221.8060 C   0  0  0  0  0  0  0  0  0  0  0  0
  140.5380   79.9330  222.8670 C   0  0  0  0  0  0  0  0  0  0  0  0
  140.2490   78.5730  223.0200 C   0  0  0  0  0  0  0  0  0  0  0  0
  140.7480   77.6320  222.1060 C   0  0  0  0  0  0  0  0  0  0  0  0
  140.4700   76.1640  222.3380 C   0  0  0  0  0  0  0  0  0  0  0  0
  140.3170   73.3180  222.5170 N   0  0  0  0  0  0  0  0  0  0  0  0
  140.4320   70.9570  224.9820 C   0  0  0  0  0  0  0  0  0  0  0  0
  139.5970   70.1810  226.0110 C   0  0  0  0  0  0  0  0  0  0  0  0
  139.8203   67.7571  227.0228 H   0  0  0  0  0  0  0  0  0  0  0  0
  140.1766   66.2844  226.0580 H   0  0  0  0  0  0  0  0  0  0  0  0
  141.3324   67.6595  226.0580 H   0  0  0  0  0  0  0  0  0  0  0  0
  138.9930   67.2220  224.4870 H   0  0  0  0  0  0  0  0  0  0  0  0
  137.9683   68.7623  226.0643 H   0  0  0  0  0  0  0  0  0  0  0  0
  138.1626   69.0853  223.2325 H   0  0  0  0  0  0  0  0  0  0  0  0
  136.8359   69.5726  224.3887 H   0  0  0  0  0  0  0  0  0  0  0  0
  137.7439   71.4173  222.8700 H   0  0  0  0  0  0  0  0  0  0  0  0
  137.7066   71.7605  224.6332 H   0  0  0  0  0  0  0  0  0  0  0  0
  140.2498   69.6552  219.5157 H   0  0  0  0  0  0  0  0  0  0  0  0
  141.2670   69.6444  218.0411 H   0  0  0  0  0  0  0  0  0  0  0  0
  141.8196   68.3007  220.7321 H   0  0  0  0  0  0  0  0  0  0  0  0
  141.6225   67.5325  219.1013 H   0  0  0  0  0  0  0  0  0  0  0  0
  143.7694   66.3455  219.6596 H   0  0  0  0  0  0  0  0  0  0  0  0
  146.2426   66.4356  219.3647 H   0  0  0  0  0  0  0  0  0  0  0  0
  147.3784   68.6216  218.9743 H   0  0  0  0  0  0  0  0  0  0  0  0
  146.0464   70.7272  218.8880 H   0  0  0  0  0  0  0  0  0  0  0  0
  143.8628   71.7915  219.7466 H   0  0  0  0  0  0  0  0  0  0  0  0
  143.3264   71.3361  218.0832 H   0  0  0  0  0  0  0  0  0  0  0  0
  141.6612   75.1222  219.2690 H   0  0  0  0  0  0  0  0  0  0  0  0
  140.2339   76.2013  219.4598 H   0  0  0  0  0  0  0  0  0  0  0  0
  143.0917   76.7434  220.4081 H   0  0  0  0  0  0  0  0  0  0  0  0
  142.2132   77.5648  219.0646 H   0  0  0  0  0  0  0  0  0  0  0  0
  142.4772   79.7801  220.0594 H   0  0  0  0  0  0  0  0  0  0  0  0
  141.5743   81.4316  221.6932 H   0  0  0  0  0  0  0  0  0  0  0  0
  140.1344   80.6645  223.5825 H   0  0  0  0  0  0  0  0  0  0  0  0
  139.6261   78.2386  223.8627 H   0  0  0  0  0  0  0  0  0  0  0  0
  140.9880   75.8530  223.2572 H   0  0  0  0  0  0  0  0  0  0  0  0
  139.3785   76.0504  222.4141 H   0  0  0  0  0  0  0  0  0  0  0  0
  141.2450   70.3091  224.6225 H   0  0  0  0  0  0  0  0  0  0  0  0
  140.8299   71.8564  225.4747 H   0  0  0  0  0  0  0  0  0  0  0  0
  140.2757   69.6917  226.7251 H   0  0  0  0  0  0  0  0  0  0  0  0
  138.9341   70.8938  226.5233 H   0  0  0  0  0  0  0  0  0  0  0  0
  1  2  1  0
  2  3  1  0
  3  4  1  0
  4  5  1  0
  5  6  1  0
  6  7  1  0
  7  8  2  0
  8  9  1  0
  9 10  1  0
 10 11  1  0
 11 12  1  0
 12 13  1  0
 13 14  2  0
 14 15  1  0
 15 16  2  0
 16 17  1  0
 17 18  2  0
 18 19  1  0
  9 20  2  0
 20 21  1  0
 21 22  1  0
 22 23  1  0
 23 24  1  0
 24 25  1  0
 25 26  2  0
 26 27  1  0
 27 28  2  0
 28 29  1  0
 29 30  2  0
 30 31  1  0
 21 32  2  0
  6 33  1  0
 33 34  1  0
 34  3  1  0
 32  7  1  0
 19 10  1  0
 31 22  1  0
 18 13  1  0
 30 25  1  0
  1 35  1  0
  1 36  1  0
  1 37  1  0
  2 38  1  0
  3 39  1  0
  4 40  1  0
  4 41  1  0
  5 42  1  0
  5 43  1  0
 11 44  1  0
 11 45  1  0
 12 46  1  0
 12 47  1  0
 14 48  1  0
 15 49  1  0
 16 50  1  0
 17 51  1  0
 19 52  1  0
 19 53  1  0
 23 54  1  0
 23 55  1  0
 24 56  1  0
 24 57  1  0
 26 58  1  0
 27 59  1  0
 28 60  1  0
 29 61  1  0
 31 62  1  0
 31 63  1  0
 33 64  1  0
 33 65  1  0
 34 66  1  0
 34 67  1  0
M  END
>  <UniqueID>  (61) 
60

>  <SMILES>  (61) 
CNC1CCN(c2nc(N3CCc4ccccc4C3)nc(N3CCc4ccccc4C3)n2)CC1

>  <Energy>  (61) 
81.82523011856723

>  <Genealogy>  (61) 
CNC1CCN(c2nc(N3CCc4ccccc4C3)nc(N3CCc4ccccc4C3)n2)CC1 (3D coordinates assigned)
CNC1CCN(c2nc(N3CCc4ccccc4C3)nc(N3CCc4ccccc4C3)n2)CC1 (nonaromatic ring conformer: 81.82523011856723 kcal/mol)

>  <smiles>  (61) 
CNC1CCN(c2nc(N3CCc4ccccc4C3)nc(N3CCc4ccccc4C3)n2)CC1

>  <score_type>  (61) 
oracle

>  <origin>  (61) 
autodockgpu

>  <m_score__min__energy>  (61) 
-8.9900000000000002

>  <m_primary>  (61) 
energy

>  <meeko>  (61) 
{"free_energy": -8.7, "intermolecular_energy": -9.9, "internal_energy": -0.98, "cluster_size": 2, "cluster_id": 2, "rank_in_cluster": 1}

>  <energy>  (61) 
-8.99

>  <cluster_rmsd>  (61) 
0.0

>  <rmsd>  (61) 
271.83

>  <cluster>  (61) 
1

$$$$
DSYBMJCSYFRFMG-UHFFFAOYNA-N
     RDKit          3D

 67 72  0  0  0  0  0  0  0  0999 V2000
  145.6830   73.1260  219.3790 C   0  0  0  0  0  0  0  0  0  0  0  0
  145.9480   72.2460  218.2360 N   0  0  0  0  0  0  0  0  0  0  0  0
  144.8000   72.1880  217.3080 C   0  0  0  0  0  0  0  0  0  0  0  0
  143.9700   73.5110  217.3220 C   0  0  0  0  0  0  0  0  0  0  0  0
  142.5000   73.3030  217.7030 C   0  0  0  0  0  0  0  0  0  0  0  0
  142.4180   72.4570  218.9040 N   0  0  0  0  0  0  0  0  0  0  0  0
  141.7360   72.9010  220.0950 C   0  0  0  0  0  0  0  0  0  0  0  0
  141.3600   74.2010  220.2220 N   0  0  0  0  0  0  0  0  0  0  0  0
  140.6800   74.6260  221.3170 C   0  0  0  0  0  0  0  0  0  0  0  0
  140.2650   76.0060  221.4300 N   0  0  0  0  0  0  0  0  0  0  0  0
  139.9190   76.8040  220.2510 C   0  0  0  0  0  0  0  0  0  0  0  0
  141.0090   77.8510  220.0280 C   0  0  0  0  0  0  0  0  0  0  0  0
  141.3530   78.5830  221.3040 C   0  0  0  0  0  0  0  0  0  0  0  0
  142.0450   79.8010  221.2270 C   0  0  0  0  0  0  0  0  0  0  0  0
  142.4210   80.4770  222.3900 C   0  0  0  0  0  0  0  0  0  0  0  0
  142.1180   79.9380  223.6420 C   0  0  0  0  0  0  0  0  0  0  0  0
  141.4450   78.7180  223.7360 C   0  0  0  0  0  0  0  0  0  0  0  0
  141.0710   78.0210  222.5760 C   0  0  0  0  0  0  0  0  0  0  0  0
  140.3110   76.7220  222.7120 C   0  0  0  0  0  0  0  0  0  0  0  0
  140.3740   73.7330  222.2940 N   0  0  0  0  0  0  0  0  0  0  0  0
  140.7480   72.4320  222.1900 C   0  0  0  0  0  0  0  0  0  0  0  0
  140.4020   71.4920  223.2300 N   0  0  0  0  0  0  0  0  0  0  0  0
  139.5750   70.3150  222.9310 C   0  0  0  0  0  0  0  0  0  0  0  0
  138.5600   70.0980  224.0470 C   0  0  0  0  0  0  0  0  0  0  0  0
  139.2540   70.0070  225.3750 C   0  0  0  0  0  0  0  0  0  0  0  0
  138.6800   69.2580  226.4160 C   0  0  0  0  0  0  0  0  0  0  0  0
  139.3030   69.1920  227.6640 C   0  0  0  0  0  0  0  0  0  0  0  0
  140.4980   69.8810  227.8880 C   0  0  0  0  0  0  0  0  0  0  0  0
  141.0650   70.6490  226.8660 C   0  0  0  0  0  0  0  0  0  0  0  0
  140.4490   70.7240  225.6060 C   0  0  0  0  0  0  0  0  0  0  0  0
  141.0550   71.6150  224.5460 C   0  0  0  0  0  0  0  0  0  0  0  0
  141.4260   72.0240  221.0850 N   0  0  0  0  0  0  0  0  0  0  0  0
  143.1110   71.1590  218.9140 C   0  0  0  0  0  0  0  0  0  0  0  0
  143.9460   70.9460  217.6430 C   0  0  0  0  0  0  0  0  0  0  0  0
  145.8498   72.5721  220.3146 H   0  0  0  0  0  0  0  0  0  0  0  0
  146.3602   73.9919  219.3398 H   0  0  0  0  0  0  0  0  0  0  0  0
  144.6402   73.4740  219.3398 H   0  0  0  0  0  0  0  0  0  0  0  0
  146.1700   71.2880  218.5940 H   0  0  0  0  0  0  0  0  0  0  0  0
  145.1710   72.0891  216.2772 H   0  0  0  0  0  0  0  0  0  0  0  0
  144.4245   74.2002  218.0490 H   0  0  0  0  0  0  0  0  0  0  0  0
  143.9864   73.9156  216.2993 H   0  0  0  0  0  0  0  0  0  0  0  0
  142.0334   74.2776  217.9088 H   0  0  0  0  0  0  0  0  0  0  0  0
  141.9726   72.8113  216.8723 H   0  0  0  0  0  0  0  0  0  0  0  0
  139.8488   76.1499  219.3694 H   0  0  0  0  0  0  0  0  0  0  0  0
  138.9500   77.3007  220.4071 H   0  0  0  0  0  0  0  0  0  0  0  0
  141.9124   77.3497  219.6504 H   0  0  0  0  0  0  0  0  0  0  0  0
  140.6329   78.5871  219.3022 H   0  0  0  0  0  0  0  0  0  0  0  0
  142.2932   80.2267  220.2436 H   0  0  0  0  0  0  0  0  0  0  0  0
  142.9565   81.4352  222.3195 H   0  0  0  0  0  0  0  0  0  0  0  0
  142.4100   80.4755  224.5562 H   0  0  0  0  0  0  0  0  0  0  0  0
  141.2064   78.3004  224.7253 H   0  0  0  0  0  0  0  0  0  0  0  0
  140.8102   76.0891  223.4605 H   0  0  0  0  0  0  0  0  0  0  0  0
  139.2813   76.9480  223.0260 H   0  0  0  0  0  0  0  0  0  0  0  0
  139.0441   70.4740  221.9808 H   0  0  0  0  0  0  0  0  0  0  0  0
  140.2214   69.4285  222.8516 H   0  0  0  0  0  0  0  0  0  0  0  0
  137.8541   70.9414  224.0640 H   0  0  0  0  0  0  0  0  0  0  0  0
  138.0207   69.1575  223.8610 H   0  0  0  0  0  0  0  0  0  0  0  0
  137.7350   68.7209  226.2470 H   0  0  0  0  0  0  0  0  0  0  0  0
  138.8525   68.5968  228.4719 H   0  0  0  0  0  0  0  0  0  0  0  0
  140.9928   69.8192  228.8685 H   0  0  0  0  0  0  0  0  0  0  0  0
  142.0001   71.1983  227.0503 H   0  0  0  0  0  0  0  0  0  0  0  0
  140.9711   72.6597  224.8799 H   0  0  0  0  0  0  0  0  0  0  0  0
  142.1012   71.3002  224.4185 H   0  0  0  0  0  0  0  0  0  0  0  0
  143.7773   71.1183  219.7883 H   0  0  0  0  0  0  0  0  0  0  0  0
  142.3496   70.3663  218.9585 H   0  0  0  0  0  0  0  0  0  0  0  0
  144.6131   70.0846  217.7946 H   0  0  0  0  0  0  0  0  0  0  0  0
  143.2565   70.7668  216.8049 H   0  0  0  0  0  0  0  0  0  0  0  0
  1  2  1  0
  2  3  1  0
  3  4  1  0
  4  5  1  0
  5  6  1  0
  6  7  1  0
  7  8  2  0
  8  9  1  0
  9 10  1  0
 10 11  1  0
 11 12  1  0
 12 13  1  0
 13 14  2  0
 14 15  1  0
 15 16  2  0
 16 17  1  0
 17 18  2  0
 18 19  1  0
  9 20  2  0
 20 21  1  0
 21 22  1  0
 22 23  1  0
 23 24  1  0
 24 25  1  0
 25 26  2  0
 26 27  1  0
 27 28  2  0
 28 29  1  0
 29 30  2  0
 30 31  1  0
 21 32  2  0
  6 33  1  0
 33 34  1  0
 34  3  1  0
 32  7  1  0
 19 10  1  0
 31 22  1  0
 18 13  1  0
 30 25  1  0
  1 35  1  0
  1 36  1  0
  1 37  1  0
  2 38  1  0
  3 39  1  0
  4 40  1  0
  4 41  1  0
  5 42  1  0
  5 43  1  0
 11 44  1  0
 11 45  1  0
 12 46  1  0
 12 47  1  0
 14 48  1  0
 15 49  1  0
 16 50  1  0
 17 51  1  0
 19 52  1  0
 19 53  1  0
 23 54  1  0
 23 55  1  0
 24 56  1  0
 24 57  1  0
 26 58  1  0
 27 59  1  0
 28 60  1  0
 29 61  1  0
 31 62  1  0
 31 63  1  0
 33 64  1  0
 33 65  1  0
 34 66  1  0
 34 67  1  0
M  END
>  <UniqueID>  (62) 
60

>  <SMILES>  (62) 
CNC1CCN(c2nc(N3CCc4ccccc4C3)nc(N3CCc4ccccc4C3)n2)CC1

>  <Energy>  (62) 
81.82523011856723

>  <Genealogy>  (62) 
CNC1CCN(c2nc(N3CCc4ccccc4C3)nc(N3CCc4ccccc4C3)n2)CC1 (3D coordinates assigned)
CNC1CCN(c2nc(N3CCc4ccccc4C3)nc(N3CCc4ccccc4C3)n2)CC1 (nonaromatic ring conformer: 81.82523011856723 kcal/mol)

>  <smiles>  (62) 
CNC1CCN(c2nc(N3CCc4ccccc4C3)nc(N3CCc4ccccc4C3)n2)CC1

>  <score_type>  (62) 
oracle

>  <origin>  (62) 
autodockgpu

>  <m_score__min__energy>  (62) 
-8.9900000000000002

>  <m_primary>  (62) 
energy

>  <meeko>  (62) 
{"free_energy": -8.86, "intermolecular_energy": -10.06, "internal_energy": -1.03, "cluster_size": 18, "cluster_id": 1, "rank_in_cluster": 6}

>  <energy>  (62) 
-8.98

>  <cluster_rmsd>  (62) 
0.05

>  <rmsd>  (62) 
271.81

>  <cluster>  (62) 
1

$$$$
DSYBMJCSYFRFMG-UHFFFAOYNA-N
     RDKit          3D

 67 72  0  0  0  0  0  0  0  0999 V2000
  145.9370   73.8300  220.8810 C   0  0  0  0  0  0  0  0  0  0  0  0
  146.3940   72.6200  220.1900 N   0  0  0  0  0  0  0  0  0  0  0  0
  145.5650   72.3150  219.0050 C   0  0  0  0  0  0  0  0  0  0  0  0
  144.7220   73.5490  218.5500 C   0  0  0  0  0  0  0  0  0  0  0  0
  143.2130   73.2840  218.5390 C   0  0  0  0  0  0  0  0  0  0  0  0
  142.8160   72.6420  219.8020 N   0  0  0  0  0  0  0  0  0  0  0  0
  141.8060   73.2150  220.6570 C   0  0  0  0  0  0  0  0  0  0  0  0
  141.5760   74.5540  220.6370 N   0  0  0  0  0  0  0  0  0  0  0  0
  140.6000   75.1060  221.4030 C   0  0  0  0  0  0  0  0  0  0  0  0
  140.3490   76.5280  221.3570 N   0  0  0  0  0  0  0  0  0  0  0  0
  140.5180   77.2980  220.1230 C   0  0  0  0  0  0  0  0  0  0  0  0
  141.7440   78.2000  220.2680 C   0  0  0  0  0  0  0  0  0  0  0  0
  141.7340   78.9510  221.5780 C   0  0  0  0  0  0  0  0  0  0  0  0
  142.5610   80.0760  221.7260 C   0  0  0  0  0  0  0  0  0  0  0  0
  142.6110   80.7630  222.9420 C   0  0  0  0  0  0  0  0  0  0  0  0
  141.8440   80.3280  224.0240 C   0  0  0  0  0  0  0  0  0  0  0  0
  141.0290   79.2010  223.8980 C   0  0  0  0  0  0  0  0  0  0  0  0
  140.9770   78.4930  222.6870 C   0  0  0  0  0  0  0  0  0  0  0  0
  140.0560   77.2990  222.5730 C   0  0  0  0  0  0  0  0  0  0  0  0
  139.8470   74.2990  222.1960 N   0  0  0  0  0  0  0  0  0  0  0  0
  140.0670   72.9590  222.2360 C   0  0  0  0  0  0  0  0  0  0  0  0
  139.2490   72.1150  223.0730 N   0  0  0  0  0  0  0  0  0  0  0  0
  139.8170   71.4590  224.2590 C   0  0  0  0  0  0  0  0  0  0  0  0
  139.3010   70.0280  224.3580 C   0  0  0  0  0  0  0  0  0  0  0  0
  137.7990   70.0130  224.3410 C   0  0  0  0  0  0  0  0  0  0  0  0
  137.1020   68.9770  224.9850 C   0  0  0  0  0  0  0  0  0  0  0  0
  135.7060   68.9370  224.9480 C   0  0  0  0  0  0  0  0  0  0  0  0
  134.9960   69.9240  224.2620 C   0  0  0  0  0  0  0  0  0  0  0  0
  135.6800   70.9460  223.5980 C   0  0  0  0  0  0  0  0  0  0  0  0
  137.0840   70.9980  223.6250 C   0  0  0  0  0  0  0  0  0  0  0  0
  137.7930   72.0800  222.8430 C   0  0  0  0  0  0  0  0  0  0  0  0
  141.0460   72.4260  221.4610 N   0  0  0  0  0  0  0  0  0  0  0  0
  143.5200   71.4250  220.2380 C   0  0  0  0  0  0  0  0  0  0  0  0
  144.6930   71.0780  219.3080 C   0  0  0  0  0  0  0  0  0  0  0  0
  145.9954   73.6754  221.9685 H   0  0  0  0  0  0  0  0  0  0  0  0
  146.5766   74.6785  220.5964 H   0  0  0  0  0  0  0  0  0  0  0  0
  144.8962   74.0438  220.5964 H   0  0  0  0  0  0  0  0  0  0  0  0
  146.3690   71.8190  220.8630 H   0  0  0  0  0  0  0  0  0  0  0  0
  146.2202   72.0802  218.1532 H   0  0  0  0  0  0  0  0  0  0  0  0
  144.9246   74.3827  219.2384 H   0  0  0  0  0  0  0  0  0  0  0  0
  145.0185   73.7818  217.5166 H   0  0  0  0  0  0  0  0  0  0  0  0
  142.6747   74.2368  218.4275 H   0  0  0  0  0  0  0  0  0  0  0  0
  142.9645   72.6203  217.6977 H   0  0  0  0  0  0  0  0  0  0  0  0
  140.6625   76.6114  219.2758 H   0  0  0  0  0  0  0  0  0  0  0  0
  139.6231   77.9109  219.9398 H   0  0  0  0  0  0  0  0  0  0  0  0
  142.6508   77.5792  220.2201 H   0  0  0  0  0  0  0  0  0  0  0  0
  141.7262   78.9362  219.4509 H   0  0  0  0  0  0  0  0  0  0  0  0
  143.1736   80.4189  220.8792 H   0  0  0  0  0  0  0  0  0  0  0  0
  143.2559   81.6480  223.0466 H   0  0  0  0  0  0  0  0  0  0  0  0
  141.8816   80.8741  224.9781 H   0  0  0  0  0  0  0  0  0  0  0  0
  140.4239   78.8659  224.7533 H   0  0  0  0  0  0  0  0  0  0  0  0
  140.1937   76.6522  223.4520 H   0  0  0  0  0  0  0  0  0  0  0  0
  139.0177   77.6585  222.5208 H   0  0  0  0  0  0  0  0  0  0  0  0
  140.9140   71.4463  224.1785 H   0  0  0  0  0  0  0  0  0  0  0  0
  139.5164   72.0153  225.1591 H   0  0  0  0  0  0  0  0  0  0  0  0
  139.6794   69.4460  223.5047 H   0  0  0  0  0  0  0  0  0  0  0  0
  139.6526   69.5854  225.3016 H   0  0  0  0  0  0  0  0  0  0  0  0
  137.6581   68.1937  225.5209 H   0  0  0  0  0  0  0  0  0  0  0  0
  135.1657   68.1270  225.4599 H   0  0  0  0  0  0  0  0  0  0  0  0
  133.8965   69.8973  224.2440 H   0  0  0  0  0  0  0  0  0  0  0  0
  135.1154   71.7150  223.0505 H   0  0  0  0  0  0  0  0  0  0  0  0
  137.6140   71.9089  221.7712 H   0  0  0  0  0  0  0  0  0  0  0  0
  137.3885   73.0439  223.1853 H   0  0  0  0  0  0  0  0  0  0  0  0
  143.9074   71.5833  221.2553 H   0  0  0  0  0  0  0  0  0  0  0  0
  142.8051   70.5894  220.2118 H   0  0  0  0  0  0  0  0  0  0  0  0
  145.3167   70.3116  219.7913 H   0  0  0  0  0  0  0  0  0  0  0  0
  144.2801   70.7078  218.3580 H   0  0  0  0  0  0  0  0  0  0  0  0
  1  2  1  0
  2  3  1  0
  3  4  1  0
  4  5  1  0
  5  6  1  0
  6  7  1  0
  7  8  2  0
  8  9  1  0
  9 10  1  0
 10 11  1  0
 11 12  1  0
 12 13  1  0
 13 14  2  0
 14 15  1  0
 15 16  2  0
 16 17  1  0
 17 18  2  0
 18 19  1  0
  9 20  2  0
 20 21  1  0
 21 22  1  0
 22 23  1  0
 23 24  1  0
 24 25  1  0
 25 26  2  0
 26 27  1  0
 27 28  2  0
 28 29  1  0
 29 30  2  0
 30 31  1  0
 21 32  2  0
  6 33  1  0
 33 34  1  0
 34  3  1  0
 32  7  1  0
 19 10  1  0
 31 22  1  0
 18 13  1  0
 30 25  1  0
  1 35  1  0
  1 36  1  0
  1 37  1  0
  2 38  1  0
  3 39  1  0
  4 40  1  0
  4 41  1  0
  5 42  1  0
  5 43  1  0
 11 44  1  0
 11 45  1  0
 12 46  1  0
 12 47  1  0
 14 48  1  0
 15 49  1  0
 16 50  1  0
 17 51  1  0
 19 52  1  0
 19 53  1  0
 23 54  1  0
 23 55  1  0
 24 56  1  0
 24 57  1  0
 26 58  1  0
 27 59  1  0
 28 60  1  0
 29 61  1  0
 31 62  1  0
 31 63  1  0
 33 64  1  0
 33 65  1  0
 34 66  1  0
 34 67  1  0
M  END
>  <UniqueID>  (63) 
60

>  <SMILES>  (63) 
CNC1CCN(c2nc(N3CCc4ccccc4C3)nc(N3CCc4ccccc4C3)n2)CC1

>  <Energy>  (63) 
81.82523011856723

>  <Genealogy>  (63) 
CNC1CCN(c2nc(N3CCc4ccccc4C3)nc(N3CCc4ccccc4C3)n2)CC1 (3D coordinates assigned)
CNC1CCN(c2nc(N3CCc4ccccc4C3)nc(N3CCc4ccccc4C3)n2)CC1 (nonaromatic ring conformer: 81.82523011856723 kcal/mol)

>  <smiles>  (63) 
CNC1CCN(c2nc(N3CCc4ccccc4C3)nc(N3CCc4ccccc4C3)n2)CC1

>  <score_type>  (63) 
oracle

>  <origin>  (63) 
autodockgpu

>  <m_score__min__energy>  (63) 
-8.9900000000000002

>  <m_primary>  (63) 
energy

>  <meeko>  (63) 
{"free_energy": -8.82, "intermolecular_energy": -10.02, "internal_energy": -1.06, "cluster_size": 18, "cluster_id": 1, "rank_in_cluster": 13}

>  <energy>  (63) 
-8.9

>  <cluster_rmsd>  (63) 
0.77

>  <rmsd>  (63) 
271.79

>  <cluster>  (63) 
1

$$$$
DSYBMJCSYFRFMG-UHFFFAOYNA-N
     RDKit          3D

 67 72  0  0  0  0  0  0  0  0999 V2000
  145.7880   72.9820  219.5520 C   0  0  0  0  0  0  0  0  0  0  0  0
  145.9520   72.0310  218.4490 N   0  0  0  0  0  0  0  0  0  0  0  0
  144.8510   72.1280  217.4680 C   0  0  0  0  0  0  0  0  0  0  0  0
  144.1370   73.5160  217.5290 C   0  0  0  0  0  0  0  0  0  0  0  0
  142.6380   73.4180  217.8300 C   0  0  0  0  0  0  0  0  0  0  0  0
  142.4240   72.5140  218.9710 N   0  0  0  0  0  0  0  0  0  0  0  0
  141.7240   72.9460  220.1560 C   0  0  0  0  0  0  0  0  0  0  0  0
  141.3170   74.2370  220.2750 N   0  0  0  0  0  0  0  0  0  0  0  0
  140.6200   74.6510  221.3640 C   0  0  0  0  0  0  0  0  0  0  0  0
  140.1720   76.0210  221.4700 N   0  0  0  0  0  0  0  0  0  0  0  0
  139.7550   76.7860  220.2920 C   0  0  0  0  0  0  0  0  0  0  0  0
  140.8050   77.8570  220.0030 C   0  0  0  0  0  0  0  0  0  0  0  0
  141.1820   78.6230  221.2500 C   0  0  0  0  0  0  0  0  0  0  0  0
  141.8370   79.8580  221.1200 C   0  0  0  0  0  0  0  0  0  0  0  0
  142.2430   80.5660  222.2540 C   0  0  0  0  0  0  0  0  0  0  0  0
  142.0080   80.0440  223.5270 C   0  0  0  0  0  0  0  0  0  0  0  0
  141.3730   78.8090  223.6730 C   0  0  0  0  0  0  0  0  0  0  0  0
  140.9700   78.0790  222.5420 C   0  0  0  0  0  0  0  0  0  0  0  0
  140.2520   76.7630  222.7360 C   0  0  0  0  0  0  0  0  0  0  0  0
  140.3290   73.7540  222.3430 N   0  0  0  0  0  0  0  0  0  0  0  0
  140.7340   72.4610  222.2470 C   0  0  0  0  0  0  0  0  0  0  0  0
  140.4040   71.5180  223.2880 N   0  0  0  0  0  0  0  0  0  0  0  0
  139.5970   70.3260  222.9910 C   0  0  0  0  0  0  0  0  0  0  0  0
  138.5840   70.0950  224.1060 C   0  0  0  0  0  0  0  0  0  0  0  0
  139.2800   70.0180  225.4350 C   0  0  0  0  0  0  0  0  0  0  0  0
  138.7180   69.2600  226.4770 C   0  0  0  0  0  0  0  0  0  0  0  0
  139.3410   69.2070  227.7250 C   0  0  0  0  0  0  0  0  0  0  0  0
  140.5240   69.9160  227.9480 C   0  0  0  0  0  0  0  0  0  0  0  0
  141.0780   70.6920  226.9260 C   0  0  0  0  0  0  0  0  0  0  0  0
  140.4620   70.7550  225.6660 C   0  0  0  0  0  0  0  0  0  0  0  0
  141.0540   71.6540  224.6040 C   0  0  0  0  0  0  0  0  0  0  0  0
  141.4280   72.0650  221.1480 N   0  0  0  0  0  0  0  0  0  0  0  0
  143.0010   71.1610  218.9300 C   0  0  0  0  0  0  0  0  0  0  0  0
  143.8780   70.9490  217.6870 C   0  0  0  0  0  0  0  0  0  0  0  0
  145.8796   72.4508  220.5109 H   0  0  0  0  0  0  0  0  0  0  0  0
  146.5657   73.7571  219.4865 H   0  0  0  0  0  0  0  0  0  0  0  0
  144.7956   73.4519  219.4865 H   0  0  0  0  0  0  0  0  0  0  0  0
  145.9960   71.0620  218.8440 H   0  0  0  0  0  0  0  0  0  0  0  0
  145.2631   72.0564  216.4506 H   0  0  0  0  0  0  0  0  0  0  0  0
  144.6121   74.1178  218.3177 H   0  0  0  0  0  0  0  0  0  0  0  0
  144.2386   73.9767  216.5353 H   0  0  0  0  0  0  0  0  0  0  0  0
  142.2474   74.4166  218.0753 H   0  0  0  0  0  0  0  0  0  0  0  0
  142.1122   73.0247  216.9475 H   0  0  0  0  0  0  0  0  0  0  0  0
  139.6658   76.1128  219.4267 H   0  0  0  0  0  0  0  0  0  0  0  0
  138.7802   77.2597  220.4801 H   0  0  0  0  0  0  0  0  0  0  0  0
  141.7052   77.3728  219.5965 H   0  0  0  0  0  0  0  0  0  0  0  0
  140.3786   78.5682  219.2802 H   0  0  0  0  0  0  0  0  0  0  0  0
  142.0318   80.2707  220.1191 H   0  0  0  0  0  0  0  0  0  0  0  0
  142.7488   81.5366  222.1434 H   0  0  0  0  0  0  0  0  0  0  0  0
  142.3239   80.6070  224.4176 H   0  0  0  0  0  0  0  0  0  0  0  0
  141.1872   78.4052  224.6792 H   0  0  0  0  0  0  0  0  0  0  0  0
  140.7996   76.1587  223.4742 H   0  0  0  0  0  0  0  0  0  0  0  0
  139.2308   76.9672  223.0903 H   0  0  0  0  0  0  0  0  0  0  0  0
  139.0650   70.4734  222.0395 H   0  0  0  0  0  0  0  0  0  0  0  0
  140.2584   69.4503  222.9152 H   0  0  0  0  0  0  0  0  0  0  0  0
  137.8646   70.9270  224.1208 H   0  0  0  0  0  0  0  0  0  0  0  0
  138.0590   69.1461  223.9215 H   0  0  0  0  0  0  0  0  0  0  0  0
  137.7828   68.7060  226.3081 H   0  0  0  0  0  0  0  0  0  0  0  0
  138.8999   68.6062  228.5340 H   0  0  0  0  0  0  0  0  0  0  0  0
  141.0198   69.8635  228.9285 H   0  0  0  0  0  0  0  0  0  0  0  0
  142.0034   71.2575  227.1102 H   0  0  0  0  0  0  0  0  0  0  0  0
  140.9529   72.6979  224.9358 H   0  0  0  0  0  0  0  0  0  0  0  0
  142.1052   71.3558  224.4775 H   0  0  0  0  0  0  0  0  0  0  0  0
  143.6162   71.0095  219.8292 H   0  0  0  0  0  0  0  0  0  0  0  0
  142.1725   70.4385  218.8896 H   0  0  0  0  0  0  0  0  0  0  0  0
  144.4606   70.0248  217.8149 H   0  0  0  0  0  0  0  0  0  0  0  0
  143.2186   70.8803  216.8092 H   0  0  0  0  0  0  0  0  0  0  0  0
  1  2  1  0
  2  3  1  0
  3  4  1  0
  4  5  1  0
  5  6  1  0
  6  7  1  0
  7  8  2  0
  8  9  1  0
  9 10  1  0
 10 11  1  0
 11 12  1  0
 12 13  1  0
 13 14  2  0
 14 15  1  0
 15 16  2  0
 16 17  1  0
 17 18  2  0
 18 19  1  0
  9 20  2  0
 20 21  1  0
 21 22  1  0
 22 23  1  0
 23 24  1  0
 24 25  1  0
 25 26  2  0
 26 27  1  0
 27 28  2  0
 28 29  1  0
 29 30  2  0
 30 31  1  0
 21 32  2  0
  6 33  1  0
 33 34  1  0
 34  3  1  0
 32  7  1  0
 19 10  1  0
 31 22  1  0
 18 13  1  0
 30 25  1  0
  1 35  1  0
  1 36  1  0
  1 37  1  0
  2 38  1  0
  3 39  1  0
  4 40  1  0
  4 41  1  0
  5 42  1  0
  5 43  1  0
 11 44  1  0
 11 45  1  0
 12 46  1  0
 12 47  1  0
 14 48  1  0
 15 49  1  0
 16 50  1  0
 17 51  1  0
 19 52  1  0
 19 53  1  0
 23 54  1  0
 23 55  1  0
 24 56  1  0
 24 57  1  0
 26 58  1  0
 27 59  1  0
 28 60  1  0
 29 61  1  0
 31 62  1  0
 31 63  1  0
 33 64  1  0
 33 65  1  0
 34 66  1  0
 34 67  1  0
M  END
>  <UniqueID>  (64) 
60

>  <SMILES>  (64) 
CNC1CCN(c2nc(N3CCc4ccccc4C3)nc(N3CCc4ccccc4C3)n2)CC1

>  <Energy>  (64) 
81.82523011856723

>  <Genealogy>  (64) 
CNC1CCN(c2nc(N3CCc4ccccc4C3)nc(N3CCc4ccccc4C3)n2)CC1 (3D coordinates assigned)
CNC1CCN(c2nc(N3CCc4ccccc4C3)nc(N3CCc4ccccc4C3)n2)CC1 (nonaromatic ring conformer: 81.82523011856723 kcal/mol)

>  <smiles>  (64) 
CNC1CCN(c2nc(N3CCc4ccccc4C3)nc(N3CCc4ccccc4C3)n2)CC1

>  <score_type>  (64) 
oracle

>  <origin>  (64) 
autodockgpu

>  <m_score__min__energy>  (64) 
-8.9900000000000002

>  <m_primary>  (64) 
energy

>  <meeko>  (64) 
{"free_energy": -8.87, "intermolecular_energy": -10.06, "internal_energy": -1.04, "cluster_size": 18, "cluster_id": 1, "rank_in_cluster": 5}

>  <energy>  (64) 
-8.88

>  <cluster_rmsd>  (64) 
1.23

>  <rmsd>  (64) 
271.99

>  <cluster>  (64) 
1

$$$$
DSYBMJCSYFRFMG-UHFFFAOYNA-N
     RDKit          3D

 67 72  0  0  0  0  0  0  0  0999 V2000
  143.3050   75.9370  216.8780 C   0  0  0  0  0  0  0  0  0  0  0  0
  144.5400   75.2770  216.4420 N   0  0  0  0  0  0  0  0  0  0  0  0
  144.4130   73.8050  216.4560 C   0  0  0  0  0  0  0  0  0  0  0  0
  142.9190   73.3490  216.4720 C   0  0  0  0  0  0  0  0  0  0  0  0
  142.5620   72.4760  217.6800 C   0  0  0  0  0  0  0  0  0  0  0  0
  143.0760   73.1030  218.9080 N   0  0  0  0  0  0  0  0  0  0  0  0
  142.2060   73.4250  220.0130 C   0  0  0  0  0  0  0  0  0  0  0  0
  141.7940   74.7060  220.2040 N   0  0  0  0  0  0  0  0  0  0  0  0
  140.9410   75.0200  221.2130 C   0  0  0  0  0  0  0  0  0  0  0  0
  140.4910   76.3810  221.3930 N   0  0  0  0  0  0  0  0  0  0  0  0
  140.1590   77.2380  220.2530 C   0  0  0  0  0  0  0  0  0  0  0  0
  141.2290   78.3210  220.1210 C   0  0  0  0  0  0  0  0  0  0  0  0
  141.5210   78.9840  221.4460 C   0  0  0  0  0  0  0  0  0  0  0  0
  142.1860   80.2210  221.4580 C   0  0  0  0  0  0  0  0  0  0  0  0
  142.5140   80.8360  222.6690 C   0  0  0  0  0  0  0  0  0  0  0  0
  142.1900   80.2190  223.8790 C   0  0  0  0  0  0  0  0  0  0  0  0
  141.5430   78.9810  223.8830 C   0  0  0  0  0  0  0  0  0  0  0  0
  141.2170   78.3440  222.6750 C   0  0  0  0  0  0  0  0  0  0  0  0
  140.4850   77.0230  222.7150 C   0  0  0  0  0  0  0  0  0  0  0  0
  140.4990   74.0340  222.0370 N   0  0  0  0  0  0  0  0  0  0  0  0
  140.9060   72.7490  221.8670 C   0  0  0  0  0  0  0  0  0  0  0  0
  140.4150   71.7110  222.7410 N   0  0  0  0  0  0  0  0  0  0  0  0
  139.4240   70.7360  222.2640 C   0  0  0  0  0  0  0  0  0  0  0  0
  138.3780   70.4900  223.3440 C   0  0  0  0  0  0  0  0  0  0  0  0
  139.0390   70.0760  224.6270 C   0  0  0  0  0  0  0  0  0  0  0  0
  138.3510   69.2560  225.5380 C   0  0  0  0  0  0  0  0  0  0  0  0
  138.9460   68.8910  226.7470 C   0  0  0  0  0  0  0  0  0  0  0  0
  140.2280   69.3470  227.0620 C   0  0  0  0  0  0  0  0  0  0  0  0
  140.9120   70.1830  226.1740 C   0  0  0  0  0  0  0  0  0  0  0  0
  140.3250   70.5580  224.9550 C   0  0  0  0  0  0  0  0  0  0  0  0
  141.0670   71.5140  224.0480 C   0  0  0  0  0  0  0  0  0  0  0  0
  141.7570   72.4540  220.8500 N   0  0  0  0  0  0  0  0  0  0  0  0
  144.4980   73.4750  218.9810 C   0  0  0  0  0  0  0  0  0  0  0  0
  145.2200   73.2420  217.6450 C   0  0  0  0  0  0  0  0  0  0  0  0
  143.2682   75.9567  217.9772 H   0  0  0  0  0  0  0  0  0  0  0  0
  143.2836   76.9668  216.4919 H   0  0  0  0  0  0  0  0  0  0  0  0
  142.4369   75.3825  216.4919 H   0  0  0  0  0  0  0  0  0  0  0  0
  145.3210   75.5760  217.0720 H   0  0  0  0  0  0  0  0  0  0  0  0
  144.8324   73.3952  215.5253 H   0  0  0  0  0  0  0  0  0  0  0  0
  142.2811   74.2450  216.4886 H   0  0  0  0  0  0  0  0  0  0  0  0
  142.7559   72.7392  215.5711 H   0  0  0  0  0  0  0  0  0  0  0  0
  141.4688   72.3757  217.7495 H   0  0  0  0  0  0  0  0  0  0  0  0
  143.0148   71.4808  217.5595 H   0  0  0  0  0  0  0  0  0  0  0  0
  140.1287   76.6347  219.3337 H   0  0  0  0  0  0  0  0  0  0  0  0
  139.1747   77.7032  220.4101 H   0  0  0  0  0  0  0  0  0  0  0  0
  142.1540   77.8634  219.7402 H   0  0  0  0  0  0  0  0  0  0  0  0
  140.8546   79.0896  219.4288 H   0  0  0  0  0  0  0  0  0  0  0  0
  142.4503   80.7087  220.5081 H   0  0  0  0  0  0  0  0  0  0  0  0
  143.0285   81.8082  222.6692 H   0  0  0  0  0  0  0  0  0  0  0  0
  142.4447   80.7086  224.8305 H   0  0  0  0  0  0  0  0  0  0  0  0
  141.2871   78.5017  224.8394 H   0  0  0  0  0  0  0  0  0  0  0  0
  140.9787   76.3593  223.4401 H   0  0  0  0  0  0  0  0  0  0  0  0
  139.4420   77.2075  223.0118 H   0  0  0  0  0  0  0  0  0  0  0  0
  138.9316   71.1279  221.3618 H   0  0  0  0  0  0  0  0  0  0  0  0
  139.9316   69.7889  222.0287 H   0  0  0  0  0  0  0  0  0  0  0  0
  137.8064   71.4146  223.5125 H   0  0  0  0  0  0  0  0  0  0  0  0
  137.7052   69.6852  223.0129 H   0  0  0  0  0  0  0  0  0  0  0  0
  137.3385   68.9000  225.2971 H   0  0  0  0  0  0  0  0  0  0  0  0
  138.4045   68.2435  227.4524 H   0  0  0  0  0  0  0  0  0  0  0  0
  140.7001   69.0482  228.0096 H   0  0  0  0  0  0  0  0  0  0  0  0
  141.9166   70.5492  226.4322 H   0  0  0  0  0  0  0  0  0  0  0  0
  141.1370   72.4890  224.5525 H   0  0  0  0  0  0  0  0  0  0  0  0
  142.0556   71.0730  223.8529 H   0  0  0  0  0  0  0  0  0  0  0  0
  144.5739   74.5401  219.2453 H   0  0  0  0  0  0  0  0  0  0  0  0
  144.9774   72.8425  219.7426 H   0  0  0  0  0  0  0  0  0  0  0  0
  146.2006   73.7393  217.6780 H   0  0  0  0  0  0  0  0  0  0  0  0
  145.3335   72.1575  217.5004 H   0  0  0  0  0  0  0  0  0  0  0  0
  1  2  1  0
  2  3  1  0
  3  4  1  0
  4  5  1  0
  5  6  1  0
  6  7  1  0
  7  8  2  0
  8  9  1  0
  9 10  1  0
 10 11  1  0
 11 12  1  0
 12 13  1  0
 13 14  2  0
 14 15  1  0
 15 16  2  0
 16 17  1  0
 17 18  2  0
 18 19  1  0
  9 20  2  0
 20 21  1  0
 21 22  1  0
 22 23  1  0
 23 24  1  0
 24 25  1  0
 25 26  2  0
 26 27  1  0
 27 28  2  0
 28 29  1  0
 29 30  2  0
 30 31  1  0
 21 32  2  0
  6 33  1  0
 33 34  1  0
 34  3  1  0
 32  7  1  0
 19 10  1  0
 31 22  1  0
 18 13  1  0
 30 25  1  0
  1 35  1  0
  1 36  1  0
  1 37  1  0
  2 38  1  0
  3 39  1  0
  4 40  1  0
  4 41  1  0
  5 42  1  0
  5 43  1  0
 11 44  1  0
 11 45  1  0
 12 46  1  0
 12 47  1  0
 14 48  1  0
 15 49  1  0
 16 50  1  0
 17 51  1  0
 19 52  1  0
 19 53  1  0
 23 54  1  0
 23 55  1  0
 24 56  1  0
 24 57  1  0
 26 58  1  0
 27 59  1  0
 28 60  1  0
 29 61  1  0
 31 62  1  0
 31 63  1  0
 33 64  1  0
 33 65  1  0
 34 66  1  0
 34 67  1  0
M  END
>  <UniqueID>  (65) 
60

>  <SMILES>  (65) 
CNC1CCN(c2nc(N3CCc4ccccc4C3)nc(N3CCc4ccccc4C3)n2)CC1

>  <Energy>  (65) 
81.82523011856723

>  <Genealogy>  (65) 
CNC1CCN(c2nc(N3CCc4ccccc4C3)nc(N3CCc4ccccc4C3)n2)CC1 (3D coordinates assigned)
CNC1CCN(c2nc(N3CCc4ccccc4C3)nc(N3CCc4ccccc4C3)n2)CC1 (nonaromatic ring conformer: 81.82523011856723 kcal/mol)

>  <smiles>  (65) 
CNC1CCN(c2nc(N3CCc4ccccc4C3)nc(N3CCc4ccccc4C3)n2)CC1

>  <score_type>  (65) 
oracle

>  <origin>  (65) 
autodockgpu

>  <m_score__min__energy>  (65) 
-8.9900000000000002

>  <m_primary>  (65) 
energy

>  <meeko>  (65) 
{"free_energy": -8.69, "intermolecular_energy": -9.89, "internal_energy": -1.1, "cluster_size": 18, "cluster_id": 1, "rank_in_cluster": 15}

>  <energy>  (65) 
-8.87

>  <cluster_rmsd>  (65) 
0.82

>  <rmsd>  (65) 
271.8

>  <cluster>  (65) 
1

$$$$
DSYBMJCSYFRFMG-UHFFFAOYNA-N
     RDKit          3D

 67 72  0  0  0  0  0  0  0  0999 V2000
  145.9970   73.7420  220.8500 C   0  0  0  0  0  0  0  0  0  0  0  0
  146.3650   72.5080  220.1470 N   0  0  0  0  0  0  0  0  0  0  0  0
  145.5390   72.2940  218.9410 C   0  0  0  0  0  0  0  0  0  0  0  0
  144.7530   73.5820  218.5360 C   0  0  0  0  0  0  0  0  0  0  0  0
  143.2340   73.3810  218.4960 C   0  0  0  0  0  0  0  0  0  0  0  0
  142.7960   72.6960  219.7220 N   0  0  0  0  0  0  0  0  0  0  0  0
  141.7980   73.2700  220.5920 C   0  0  0  0  0  0  0  0  0  0  0  0
  141.5720   74.6100  220.5790 N   0  0  0  0  0  0  0  0  0  0  0  0
  140.6080   75.1620  221.3600 C   0  0  0  0  0  0  0  0  0  0  0  0
  140.3600   76.5840  221.3210 N   0  0  0  0  0  0  0  0  0  0  0  0
  140.5370   77.3620  220.0920 C   0  0  0  0  0  0  0  0  0  0  0  0
  141.7640   78.2600  220.2500 C   0  0  0  0  0  0  0  0  0  0  0  0
  141.7480   79.0040  221.5640 C   0  0  0  0  0  0  0  0  0  0  0  0
  142.5760   80.1260  221.7240 C   0  0  0  0  0  0  0  0  0  0  0  0
  142.6210   80.8060  222.9430 C   0  0  0  0  0  0  0  0  0  0  0  0
  141.8480   80.3660  224.0190 C   0  0  0  0  0  0  0  0  0  0  0  0
  141.0310   79.2410  223.8820 C   0  0  0  0  0  0  0  0  0  0  0  0
  140.9840   78.5400  222.6660 C   0  0  0  0  0  0  0  0  0  0  0  0
  140.0620   77.3490  222.5400 C   0  0  0  0  0  0  0  0  0  0  0  0
  139.8640   74.3550  222.1620 N   0  0  0  0  0  0  0  0  0  0  0  0
  140.0810   73.0140  222.1950 C   0  0  0  0  0  0  0  0  0  0  0  0
  139.2730   72.1690  223.0410 N   0  0  0  0  0  0  0  0  0  0  0  0
  139.8560   71.5070  224.2150 C   0  0  0  0  0  0  0  0  0  0  0  0
  139.3360   70.0780  224.3170 C   0  0  0  0  0  0  0  0  0  0  0  0
  137.8350   70.0680  224.3220 C   0  0  0  0  0  0  0  0  0  0  0  0
  137.1430   69.0320  224.9730 C   0  0  0  0  0  0  0  0  0  0  0  0
  135.7470   68.9970  224.9570 C   0  0  0  0  0  0  0  0  0  0  0  0
  135.0300   69.9890  224.2850 C   0  0  0  0  0  0  0  0  0  0  0  0
  135.7080   71.0110  223.6140 C   0  0  0  0  0  0  0  0  0  0  0  0
  137.1120   71.0580  223.6210 C   0  0  0  0  0  0  0  0  0  0  0  0
  137.8140   72.1410  222.8320 C   0  0  0  0  0  0  0  0  0  0  0  0
  141.0490   72.4800  221.4040 N   0  0  0  0  0  0  0  0  0  0  0  0
  143.4440   71.4320  220.1060 C   0  0  0  0  0  0  0  0  0  0  0  0
  144.6130   71.0810  219.1750 C   0  0  0  0  0  0  0  0  0  0  0  0
  146.0470   73.5742  221.9360 H   0  0  0  0  0  0  0  0  0  0  0  0
  146.6947   74.5452  220.5706 H   0  0  0  0  0  0  0  0  0  0  0  0
  144.9733   74.0318  220.5706 H   0  0  0  0  0  0  0  0  0  0  0  0
  146.2550   71.7010  220.8050 H   0  0  0  0  0  0  0  0  0  0  0  0
  146.1949   72.0725  218.0862 H   0  0  0  0  0  0  0  0  0  0  0  0
  144.9809   74.3733  219.2653 H   0  0  0  0  0  0  0  0  0  0  0  0
  145.0719   73.8503  217.5180 H   0  0  0  0  0  0  0  0  0  0  0  0
  142.7367   74.3596  218.4255 H   0  0  0  0  0  0  0  0  0  0  0  0
  142.9686   72.7700  217.6206 H   0  0  0  0  0  0  0  0  0  0  0  0
  140.6846   76.6806  219.2411 H   0  0  0  0  0  0  0  0  0  0  0  0
  139.6444   77.9778  219.9076 H   0  0  0  0  0  0  0  0  0  0  0  0
  142.6695   77.6371  220.2043 H   0  0  0  0  0  0  0  0  0  0  0  0
  141.7529   79.0009  219.4370 H   0  0  0  0  0  0  0  0  0  0  0  0
  143.1943   80.4724  220.8827 H   0  0  0  0  0  0  0  0  0  0  0  0
  143.2665   81.6896  223.0555 H   0  0  0  0  0  0  0  0  0  0  0  0
  141.8823   80.9062  224.9766 H   0  0  0  0  0  0  0  0  0  0  0  0
  140.4206   78.9021  224.7321 H   0  0  0  0  0  0  0  0  0  0  0  0
  140.1937   76.6969  223.4160 H   0  0  0  0  0  0  0  0  0  0  0  0
  139.0247   77.7109  222.4840 H   0  0  0  0  0  0  0  0  0  0  0  0
  140.9516   71.4903  224.1176 H   0  0  0  0  0  0  0  0  0  0  0  0
  139.5714   72.0613  225.1215 H   0  0  0  0  0  0  0  0  0  0  0  0
  139.6997   69.4974  223.4564 H   0  0  0  0  0  0  0  0  0  0  0  0
  139.6995   69.6314  225.2542 H   0  0  0  0  0  0  0  0  0  0  0  0
  137.7040   68.2447  225.4978 H   0  0  0  0  0  0  0  0  0  0  0  0
  135.2117   68.1871  225.4743 H   0  0  0  0  0  0  0  0  0  0  0  0
  133.9302   69.9663  224.2836 H   0  0  0  0  0  0  0  0  0  0  0  0
  135.1382   71.7836  223.0769 H   0  0  0  0  0  0  0  0  0  0  0  0
  137.6186   71.9746  221.7623 H   0  0  0  0  0  0  0  0  0  0  0  0
  137.4183   73.1053  223.1834 H   0  0  0  0  0  0  0  0  0  0  0  0
  143.8240   71.5254  221.1340 H   0  0  0  0  0  0  0  0  0  0  0  0
  142.6958   70.6292  220.0306 H   0  0  0  0  0  0  0  0  0  0  0  0
  145.1984   70.2676  219.6285 H   0  0  0  0  0  0  0  0  0  0  0  0
  144.1982   70.7732  218.2038 H   0  0  0  0  0  0  0  0  0  0  0  0
  1  2  1  0
  2  3  1  0
  3  4  1  0
  4  5  1  0
  5  6  1  0
  6  7  1  0
  7  8  2  0
  8  9  1  0
  9 10  1  0
 10 11  1  0
 11 12  1  0
 12 13  1  0
 13 14  2  0
 14 15  1  0
 15 16  2  0
 16 17  1  0
 17 18  2  0
 18 19  1  0
  9 20  2  0
 20 21  1  0
 21 22  1  0
 22 23  1  0
 23 24  1  0
 24 25  1  0
 25 26  2  0
 26 27  1  0
 27 28  2  0
 28 29  1  0
 29 30  2  0
 30 31  1  0
 21 32  2  0
  6 33  1  0
 33 34  1  0
 34  3  1  0
 32  7  1  0
 19 10  1  0
 31 22  1  0
 18 13  1  0
 30 25  1  0
  1 35  1  0
  1 36  1  0
  1 37  1  0
  2 38  1  0
  3 39  1  0
  4 40  1  0
  4 41  1  0
  5 42  1  0
  5 43  1  0
 11 44  1  0
 11 45  1  0
 12 46  1  0
 12 47  1  0
 14 48  1  0
 15 49  1  0
 16 50  1  0
 17 51  1  0
 19 52  1  0
 19 53  1  0
 23 54  1  0
 23 55  1  0
 24 56  1  0
 24 57  1  0
 26 58  1  0
 27 59  1  0
 28 60  1  0
 29 61  1  0
 31 62  1  0
 31 63  1  0
 33 64  1  0
 33 65  1  0
 34 66  1  0
 34 67  1  0
M  END
>  <UniqueID>  (66) 
60

>  <SMILES>  (66) 
CNC1CCN(c2nc(N3CCc4ccccc4C3)nc(N3CCc4ccccc4C3)n2)CC1

>  <Energy>  (66) 
81.82523011856723

>  <Genealogy>  (66) 
CNC1CCN(c2nc(N3CCc4ccccc4C3)nc(N3CCc4ccccc4C3)n2)CC1 (3D coordinates assigned)
CNC1CCN(c2nc(N3CCc4ccccc4C3)nc(N3CCc4ccccc4C3)n2)CC1 (nonaromatic ring conformer: 81.82523011856723 kcal/mol)

>  <smiles>  (66) 
CNC1CCN(c2nc(N3CCc4ccccc4C3)nc(N3CCc4ccccc4C3)n2)CC1

>  <score_type>  (66) 
oracle

>  <origin>  (66) 
autodockgpu

>  <m_score__min__energy>  (66) 
-8.9900000000000002

>  <m_primary>  (66) 
energy

>  <meeko>  (66) 
{"free_energy": -8.83, "intermolecular_energy": -10.02, "internal_energy": -1.05, "cluster_size": 18, "cluster_id": 1, "rank_in_cluster": 11}

>  <energy>  (66) 
-8.86

>  <cluster_rmsd>  (66) 
0.75

>  <rmsd>  (66) 
271.77

>  <cluster>  (66) 
1

$$$$
DSYBMJCSYFRFMG-UHFFFAOYNA-N
     RDKit          3D

 67 72  0  0  0  0  0  0  0  0999 V2000
  143.4630   75.9170  217.0700 C   0  0  0  0  0  0  0  0  0  0  0  0
  144.5930   75.1820  216.4930 N   0  0  0  0  0  0  0  0  0  0  0  0
  144.3280   73.7300  216.4200 C   0  0  0  0  0  0  0  0  0  0  0  0
  142.7980   73.4160  216.4270 C   0  0  0  0  0  0  0  0  0  0  0  0
  142.3680   72.5090  217.5850 C   0  0  0  0  0  0  0  0  0  0  0  0
  142.9460   73.0090  218.8430 N   0  0  0  0  0  0  0  0  0  0  0  0
  142.1170   73.3450  219.9750 C   0  0  0  0  0  0  0  0  0  0  0  0
  141.7190   74.6290  220.1710 N   0  0  0  0  0  0  0  0  0  0  0  0
  140.9040   74.9550  221.2070 C   0  0  0  0  0  0  0  0  0  0  0  0
  140.4670   76.3200  221.3930 N   0  0  0  0  0  0  0  0  0  0  0  0
  140.1350   77.1820  220.2560 C   0  0  0  0  0  0  0  0  0  0  0  0
  141.2150   78.2550  220.1190 C   0  0  0  0  0  0  0  0  0  0  0  0
  141.5210   78.9130  221.4430 C   0  0  0  0  0  0  0  0  0  0  0  0
  142.1980   80.1430  221.4530 C   0  0  0  0  0  0  0  0  0  0  0  0
  142.5400   80.7530  222.6630 C   0  0  0  0  0  0  0  0  0  0  0  0
  142.2190   80.1370  223.8740 C   0  0  0  0  0  0  0  0  0  0  0  0
  141.5610   78.9050  223.8810 C   0  0  0  0  0  0  0  0  0  0  0  0
  141.2210   78.2740  222.6730 C   0  0  0  0  0  0  0  0  0  0  0  0
  140.4760   76.9590  222.7160 C   0  0  0  0  0  0  0  0  0  0  0  0
  140.4860   73.9770  222.0530 N   0  0  0  0  0  0  0  0  0  0  0  0
  140.8800   72.6890  221.8780 C   0  0  0  0  0  0  0  0  0  0  0  0
  140.4150   71.6600  222.7770 N   0  0  0  0  0  0  0  0  0  0  0  0
  139.4900   70.6190  222.3090 C   0  0  0  0  0  0  0  0  0  0  0  0
  138.4240   70.3590  223.3680 C   0  0  0  0  0  0  0  0  0  0  0  0
  139.0650   70.0270  224.6840 C   0  0  0  0  0  0  0  0  0  0  0  0
  138.3910   69.2070  225.6050 C   0  0  0  0  0  0  0  0  0  0  0  0
  138.9660   68.9170  226.8440 C   0  0  0  0  0  0  0  0  0  0  0  0
  140.2130   69.4500  227.1790 C   0  0  0  0  0  0  0  0  0  0  0  0
  140.8820   70.2860  226.2800 C   0  0  0  0  0  0  0  0  0  0  0  0
  140.3150   70.5860  225.0300 C   0  0  0  0  0  0  0  0  0  0  0  0
  141.0350   71.5450  224.1090 C   0  0  0  0  0  0  0  0  0  0  0  0
  141.6940   72.3820  220.8350 N   0  0  0  0  0  0  0  0  0  0  0  0
  144.3970   73.2420  218.9200 C   0  0  0  0  0  0  0  0  0  0  0  0
  145.0860   73.0230  217.5640 C   0  0  0  0  0  0  0  0  0  0  0  0
  143.5225   75.8783  218.1677 H   0  0  0  0  0  0  0  0  0  0  0  0
  143.4991   76.9649  216.7376 H   0  0  0  0  0  0  0  0  0  0  0  0
  142.5197   75.4592  216.7376 H   0  0  0  0  0  0  0  0  0  0  0  0
  145.4440   75.3630  217.0760 H   0  0  0  0  0  0  0  0  0  0  0  0
  144.7009   73.3399  215.4615 H   0  0  0  0  0  0  0  0  0  0  0  0
  142.2476   74.3652  216.5047 H   0  0  0  0  0  0  0  0  0  0  0  0
  142.5724   72.8797  215.4935 H   0  0  0  0  0  0  0  0  0  0  0  0
  141.2706   72.5075  217.6612 H   0  0  0  0  0  0  0  0  0  0  0  0
  142.7250   71.4852  217.3998 H   0  0  0  0  0  0  0  0  0  0  0  0
  140.0928   76.5805  219.3360 H   0  0  0  0  0  0  0  0  0  0  0  0
  139.1560   77.6561  220.4199 H   0  0  0  0  0  0  0  0  0  0  0  0
  142.1332   77.7890  219.7321 H   0  0  0  0  0  0  0  0  0  0  0  0
  140.8442   79.0281  219.4300 H   0  0  0  0  0  0  0  0  0  0  0  0
  142.4609   80.6297  220.5022 H   0  0  0  0  0  0  0  0  0  0  0  0
  143.0632   81.7206  222.6612 H   0  0  0  0  0  0  0  0  0  0  0  0
  142.4848   80.6228  224.8244 H   0  0  0  0  0  0  0  0  0  0  0  0
  141.3076   78.4260  224.8382 H   0  0  0  0  0  0  0  0  0  0  0  0
  140.9682   76.2892  223.4365 H   0  0  0  0  0  0  0  0  0  0  0  0
  139.4369   77.1527  223.0207 H   0  0  0  0  0  0  0  0  0  0  0  0
  139.0066   70.9518  221.3787 H   0  0  0  0  0  0  0  0  0  0  0  0
  140.0516   69.6913  222.1245 H   0  0  0  0  0  0  0  0  0  0  0  0
  137.8016   71.2585  223.4845 H   0  0  0  0  0  0  0  0  0  0  0  0
  137.8031   69.5090  223.0486 H   0  0  0  0  0  0  0  0  0  0  0  0
  137.4053   68.7914  225.3485 H   0  0  0  0  0  0  0  0  0  0  0  0
  138.4364   68.2681  227.5570 H   0  0  0  0  0  0  0  0  0  0  0  0
  140.6691   69.2117  228.1512 H   0  0  0  0  0  0  0  0  0  0  0  0
  141.8588   70.7117  226.5532 H   0  0  0  0  0  0  0  0  0  0  0  0
  141.0397   72.5401  224.5777 H   0  0  0  0  0  0  0  0  0  0  0  0
  142.0502   71.1486  223.9596 H   0  0  0  0  0  0  0  0  0  0  0  0
  144.5740   74.2777  219.2455 H   0  0  0  0  0  0  0  0  0  0  0  0
  144.8199   72.5229  219.6370 H   0  0  0  0  0  0  0  0  0  0  0  0
  146.1093   73.4233  217.6149 H   0  0  0  0  0  0  0  0  0  0  0  0
  145.0962   71.9433  217.3539 H   0  0  0  0  0  0  0  0  0  0  0  0
  1  2  1  0
  2  3  1  0
  3  4  1  0
  4  5  1  0
  5  6  1  0
  6  7  1  0
  7  8  2  0
  8  9  1  0
  9 10  1  0
 10 11  1  0
 11 12  1  0
 12 13  1  0
 13 14  2  0
 14 15  1  0
 15 16  2  0
 16 17  1  0
 17 18  2  0
 18 19  1  0
  9 20  2  0
 20 21  1  0
 21 22  1  0
 22 23  1  0
 23 24  1  0
 24 25  1  0
 25 26  2  0
 26 27  1  0
 27 28  2  0
 28 29  1  0
 29 30  2  0
 30 31  1  0
 21 32  2  0
  6 33  1  0
 33 34  1  0
 34  3  1  0
 32  7  1  0
 19 10  1  0
 31 22  1  0
 18 13  1  0
 30 25  1  0
  1 35  1  0
  1 36  1  0
  1 37  1  0
  2 38  1  0
  3 39  1  0
  4 40  1  0
  4 41  1  0
  5 42  1  0
  5 43  1  0
 11 44  1  0
 11 45  1  0
 12 46  1  0
 12 47  1  0
 14 48  1  0
 15 49  1  0
 16 50  1  0
 17 51  1  0
 19 52  1  0
 19 53  1  0
 23 54  1  0
 23 55  1  0
 24 56  1  0
 24 57  1  0
 26 58  1  0
 27 59  1  0
 28 60  1  0
 29 61  1  0
 31 62  1  0
 31 63  1  0
 33 64  1  0
 33 65  1  0
 34 66  1  0
 34 67  1  0
M  END
>  <UniqueID>  (67) 
60

>  <SMILES>  (67) 
CNC1CCN(c2nc(N3CCc4ccccc4C3)nc(N3CCc4ccccc4C3)n2)CC1

>  <Energy>  (67) 
81.82523011856723

>  <Genealogy>  (67) 
CNC1CCN(c2nc(N3CCc4ccccc4C3)nc(N3CCc4ccccc4C3)n2)CC1 (3D coordinates assigned)
CNC1CCN(c2nc(N3CCc4ccccc4C3)nc(N3CCc4ccccc4C3)n2)CC1 (nonaromatic ring conformer: 81.82523011856723 kcal/mol)

>  <smiles>  (67) 
CNC1CCN(c2nc(N3CCc4ccccc4C3)nc(N3CCc4ccccc4C3)n2)CC1

>  <score_type>  (67) 
oracle

>  <origin>  (67) 
autodockgpu

>  <m_score__min__energy>  (67) 
-8.9900000000000002

>  <m_primary>  (67) 
energy

>  <meeko>  (67) 
{"free_energy": -8.63, "intermolecular_energy": -9.83, "internal_energy": -1.1, "cluster_size": 18, "cluster_id": 1, "rank_in_cluster": 18}

>  <energy>  (67) 
-8.86

>  <cluster_rmsd>  (67) 
0.77

>  <rmsd>  (67) 
271.79

>  <cluster>  (67) 
1

$$$$
DSYBMJCSYFRFMG-UHFFFAOYNA-N
     RDKit          3D

 67 72  0  0  0  0  0  0  0  0999 V2000
  145.9640   73.7790  220.8560 C   0  0  0  0  0  0  0  0  0  0  0  0
  146.4010   72.5690  220.1530 N   0  0  0  0  0  0  0  0  0  0  0  0
  145.5740   72.2960  218.9590 C   0  0  0  0  0  0  0  0  0  0  0  0
  144.7550   73.5500  218.5180 C   0  0  0  0  0  0  0  0  0  0  0  0
  143.2410   73.3110  218.4940 C   0  0  0  0  0  0  0  0  0  0  0  0
  142.8260   72.6570  219.7440 N   0  0  0  0  0  0  0  0  0  0  0  0
  141.8200   73.2340  220.6020 C   0  0  0  0  0  0  0  0  0  0  0  0
  141.5910   74.5730  220.5770 N   0  0  0  0  0  0  0  0  0  0  0  0
  140.6190   75.1290  221.3450 C   0  0  0  0  0  0  0  0  0  0  0  0
  140.3670   76.5500  221.2930 N   0  0  0  0  0  0  0  0  0  0  0  0
  140.5650   77.3210  220.0640 C   0  0  0  0  0  0  0  0  0  0  0  0
  141.7860   78.2240  220.2380 C   0  0  0  0  0  0  0  0  0  0  0  0
  141.7440   78.9750  221.5480 C   0  0  0  0  0  0  0  0  0  0  0  0
  142.5660   80.1010  221.7160 C   0  0  0  0  0  0  0  0  0  0  0  0
  142.5870   80.7880  222.9320 C   0  0  0  0  0  0  0  0  0  0  0  0
  141.7940   80.3520  223.9960 C   0  0  0  0  0  0  0  0  0  0  0  0
  140.9840   79.2240  223.8510 C   0  0  0  0  0  0  0  0  0  0  0  0
  140.9610   78.5160  222.6380 C   0  0  0  0  0  0  0  0  0  0  0  0
  140.0450   77.3210  222.5020 C   0  0  0  0  0  0  0  0  0  0  0  0
  139.8700   74.3260  222.1470 N   0  0  0  0  0  0  0  0  0  0  0  0
  140.0900   72.9860  222.1920 C   0  0  0  0  0  0  0  0  0  0  0  0
  139.2760   72.1460  223.0370 N   0  0  0  0  0  0  0  0  0  0  0  0
  139.8470   71.5100  224.2330 C   0  0  0  0  0  0  0  0  0  0  0  0
  139.3420   70.0770  224.3490 C   0  0  0  0  0  0  0  0  0  0  0  0
  137.8410   70.0480  224.3280 C   0  0  0  0  0  0  0  0  0  0  0  0
  137.1500   69.0150  224.9830 C   0  0  0  0  0  0  0  0  0  0  0  0
  135.7550   68.9620  224.9430 C   0  0  0  0  0  0  0  0  0  0  0  0
  135.0380   69.9350  224.2420 C   0  0  0  0  0  0  0  0  0  0  0  0
  135.7170   70.9540  223.5660 C   0  0  0  0  0  0  0  0  0  0  0  0
  137.1190   71.0180  223.5970 C   0  0  0  0  0  0  0  0  0  0  0  0
  137.8220   72.0960  222.8030 C   0  0  0  0  0  0  0  0  0  0  0  0
  141.0660   72.4490  221.4140 N   0  0  0  0  0  0  0  0  0  0  0  0
  143.5070   71.4220  220.1660 C   0  0  0  0  0  0  0  0  0  0  0  0
  144.6800   71.0690  219.2390 C   0  0  0  0  0  0  0  0  0  0  0  0
  146.0236   73.6139  221.9419 H   0  0  0  0  0  0  0  0  0  0  0  0
  146.6150   74.6206  220.5768 H   0  0  0  0  0  0  0  0  0  0  0  0
  144.9255   74.0104  220.5768 H   0  0  0  0  0  0  0  0  0  0  0  0
  146.3540   71.7600  220.8160 H   0  0  0  0  0  0  0  0  0  0  0  0
  146.2298   72.0633  218.1071 H   0  0  0  0  0  0  0  0  0  0  0  0
  144.9675   74.3697  219.2201 H   0  0  0  0  0  0  0  0  0  0  0  0
  145.0617   73.7929  217.4899 H   0  0  0  0  0  0  0  0  0  0  0  0
  142.7196   74.2744  218.3941 H   0  0  0  0  0  0  0  0  0  0  0  0
  142.9862   72.6648  217.6411 H   0  0  0  0  0  0  0  0  0  0  0  0
  140.7302   76.6350  219.2202 H   0  0  0  0  0  0  0  0  0  0  0  0
  139.6742   77.9334  219.8603 H   0  0  0  0  0  0  0  0  0  0  0  0
  142.6943   77.6042  220.2115 H   0  0  0  0  0  0  0  0  0  0  0  0
  141.7869   78.9603  219.4208 H   0  0  0  0  0  0  0  0  0  0  0  0
  143.1980   80.4446  220.8839 H   0  0  0  0  0  0  0  0  0  0  0  0
  143.2287   81.6733  223.0518 H   0  0  0  0  0  0  0  0  0  0  0  0
  141.8077   80.8986  224.9505 H   0  0  0  0  0  0  0  0  0  0  0  0
  140.3599   78.8876  224.6920 H   0  0  0  0  0  0  0  0  0  0  0  0
  140.1630   76.6743  223.3839 H   0  0  0  0  0  0  0  0  0  0  0  0
  139.0079   77.6794  222.4252 H   0  0  0  0  0  0  0  0  0  0  0  0
  140.9442   71.5049  224.1549 H   0  0  0  0  0  0  0  0  0  0  0  0
  139.5406   72.0755  225.1254 H   0  0  0  0  0  0  0  0  0  0  0  0
  139.7278   69.4872  223.5044 H   0  0  0  0  0  0  0  0  0  0  0  0
  139.6940   69.6504  225.2998 H   0  0  0  0  0  0  0  0  0  0  0  0
  137.7110   68.2434  225.5306 H   0  0  0  0  0  0  0  0  0  0  0  0
  135.2205   68.1538  225.4636 H   0  0  0  0  0  0  0  0  0  0  0  0
  133.9388   69.8996  224.2218 H   0  0  0  0  0  0  0  0  0  0  0  0
  135.1482   71.7108  223.0059 H   0  0  0  0  0  0  0  0  0  0  0  0
  137.6480   71.9095  221.7330 H   0  0  0  0  0  0  0  0  0  0  0  0
  137.4085   73.0609  223.1315 H   0  0  0  0  0  0  0  0  0  0  0  0
  143.8901   71.5586  221.1880 H   0  0  0  0  0  0  0  0  0  0  0  0
  142.7784   70.5990  220.1222 H   0  0  0  0  0  0  0  0  0  0  0  0
  145.2880   70.2859  219.7155 H   0  0  0  0  0  0  0  0  0  0  0  0
  144.2675   70.7188  218.2813 H   0  0  0  0  0  0  0  0  0  0  0  0
  1  2  1  0
  2  3  1  0
  3  4  1  0
  4  5  1  0
  5  6  1  0
  6  7  1  0
  7  8  2  0
  8  9  1  0
  9 10  1  0
 10 11  1  0
 11 12  1  0
 12 13  1  0
 13 14  2  0
 14 15  1  0
 15 16  2  0
 16 17  1  0
 17 18  2  0
 18 19  1  0
  9 20  2  0
 20 21  1  0
 21 22  1  0
 22 23  1  0
 23 24  1  0
 24 25  1  0
 25 26  2  0
 26 27  1  0
 27 28  2  0
 28 29  1  0
 29 30  2  0
 30 31  1  0
 21 32  2  0
  6 33  1  0
 33 34  1  0
 34  3  1  0
 32  7  1  0
 19 10  1  0
 31 22  1  0
 18 13  1  0
 30 25  1  0
  1 35  1  0
  1 36  1  0
  1 37  1  0
  2 38  1  0
  3 39  1  0
  4 40  1  0
  4 41  1  0
  5 42  1  0
  5 43  1  0
 11 44  1  0
 11 45  1  0
 12 46  1  0
 12 47  1  0
 14 48  1  0
 15 49  1  0
 16 50  1  0
 17 51  1  0
 19 52  1  0
 19 53  1  0
 23 54  1  0
 23 55  1  0
 24 56  1  0
 24 57  1  0
 26 58  1  0
 27 59  1  0
 28 60  1  0
 29 61  1  0
 31 62  1  0
 31 63  1  0
 33 64  1  0
 33 65  1  0
 34 66  1  0
 34 67  1  0
M  END
>  <UniqueID>  (68) 
60

>  <SMILES>  (68) 
CNC1CCN(c2nc(N3CCc4ccccc4C3)nc(N3CCc4ccccc4C3)n2)CC1

>  <Energy>  (68) 
81.82523011856723

>  <Genealogy>  (68) 
CNC1CCN(c2nc(N3CCc4ccccc4C3)nc(N3CCc4ccccc4C3)n2)CC1 (3D coordinates assigned)
CNC1CCN(c2nc(N3CCc4ccccc4C3)nc(N3CCc4ccccc4C3)n2)CC1 (nonaromatic ring conformer: 81.82523011856723 kcal/mol)

>  <smiles>  (68) 
CNC1CCN(c2nc(N3CCc4ccccc4C3)nc(N3CCc4ccccc4C3)n2)CC1

>  <score_type>  (68) 
oracle

>  <origin>  (68) 
autodockgpu

>  <m_score__min__energy>  (68) 
-8.9900000000000002

>  <m_primary>  (68) 
energy

>  <meeko>  (68) 
{"free_energy": -8.84, "intermolecular_energy": -10.03, "internal_energy": -1.05, "cluster_size": 18, "cluster_id": 1, "rank_in_cluster": 9}

>  <energy>  (68) 
-8.86

>  <cluster_rmsd>  (68) 
1.26

>  <rmsd>  (68) 
271.97

>  <cluster>  (68) 
1

$$$$
DSYBMJCSYFRFMG-UHFFFAOYNA-N
     RDKit          3D

 67 72  0  0  0  0  0  0  0  0999 V2000
  143.6910   75.6520  217.0400 C   0  0  0  0  0  0  0  0  0  0  0  0
  144.7450   74.6860  216.7140 N   0  0  0  0  0  0  0  0  0  0  0  0
  144.2060   73.3230  216.5270 C   0  0  0  0  0  0  0  0  0  0  0  0
  142.6440   73.3100  216.5230 C   0  0  0  0  0  0  0  0  0  0  0  0
  142.0400   72.4130  217.6090 C   0  0  0  0  0  0  0  0  0  0  0  0
  142.6950   72.6900  218.8970 N   0  0  0  0  0  0  0  0  0  0  0  0
  141.9390   73.0860  220.0600 C   0  0  0  0  0  0  0  0  0  0  0  0
  141.5500   74.3790  220.2110 N   0  0  0  0  0  0  0  0  0  0  0  0
  140.8010   74.7620  221.2770 C   0  0  0  0  0  0  0  0  0  0  0  0
  140.3720   76.1340  221.4160 N   0  0  0  0  0  0  0  0  0  0  0  0
  140.0540   76.9620  220.2500 C   0  0  0  0  0  0  0  0  0  0  0  0
  141.1420   78.0220  220.0860 C   0  0  0  0  0  0  0  0  0  0  0  0
  141.4440   78.7210  221.3910 C   0  0  0  0  0  0  0  0  0  0  0  0
  142.1290   79.9470  221.3660 C   0  0  0  0  0  0  0  0  0  0  0  0
  142.4670   80.5930  222.5570 C   0  0  0  0  0  0  0  0  0  0  0  0
  142.1330   80.0180  223.7850 C   0  0  0  0  0  0  0  0  0  0  0  0
  141.4670   78.7910  223.8270 C   0  0  0  0  0  0  0  0  0  0  0  0
  141.1310   78.1240  222.6380 C   0  0  0  0  0  0  0  0  0  0  0  0
  140.3770   76.8160  222.7180 C   0  0  0  0  0  0  0  0  0  0  0  0
  140.4410   73.8310  222.2000 N   0  0  0  0  0  0  0  0  0  0  0  0
  140.8280   72.5360  222.0710 C   0  0  0  0  0  0  0  0  0  0  0  0
  140.4250   71.5570  223.0530 N   0  0  0  0  0  0  0  0  0  0  0  0
  139.5440   70.4420  222.6800 C   0  0  0  0  0  0  0  0  0  0  0  0
  138.5060   70.2140  223.7730 C   0  0  0  0  0  0  0  0  0  0  0  0
  139.1810   70.0120  225.1000 C   0  0  0  0  0  0  0  0  0  0  0  0
  138.5590   69.2340  226.0910 C   0  0  0  0  0  0  0  0  0  0  0  0
  139.1640   69.0660  227.3380 C   0  0  0  0  0  0  0  0  0  0  0  0
  140.3890   69.6790  227.6100 C   0  0  0  0  0  0  0  0  0  0  0  0
  141.0050   70.4750  226.6400 C   0  0  0  0  0  0  0  0  0  0  0  0
  140.4070   70.6530  225.3810 C   0  0  0  0  0  0  0  0  0  0  0  0
  141.0680   71.5720  224.3790 C   0  0  0  0  0  0  0  0  0  0  0  0
  141.5740   72.1720  220.9960 N   0  0  0  0  0  0  0  0  0  0  0  0
  144.1630   72.6320  218.9790 C   0  0  0  0  0  0  0  0  0  0  0  0
  144.8060   72.3940  217.6050 C   0  0  0  0  0  0  0  0  0  0  0  0
  143.5974   75.7378  218.1326 H   0  0  0  0  0  0  0  0  0  0  0  0
  143.9493   76.6336  216.6159 H   0  0  0  0  0  0  0  0  0  0  0  0
  142.7356   75.3093  216.6159 H   0  0  0  0  0  0  0  0  0  0  0  0
  145.4540   74.6900  217.4840 H   0  0  0  0  0  0  0  0  0  0  0  0
  144.5031   72.9465  215.5370 H   0  0  0  0  0  0  0  0  0  0  0  0
  142.2863   74.3381  216.6812 H   0  0  0  0  0  0  0  0  0  0  0  0
  142.3251   72.9037  215.5518 H   0  0  0  0  0  0  0  0  0  0  0  0
  140.9624   72.6166  217.6948 H   0  0  0  0  0  0  0  0  0  0  0  0
  142.1944   71.3578  217.3395 H   0  0  0  0  0  0  0  0  0  0  0  0
  140.0133   76.3318  219.3493 H   0  0  0  0  0  0  0  0  0  0  0  0
  139.0776   77.4482  220.3925 H   0  0  0  0  0  0  0  0  0  0  0  0
  142.0595   77.5373  219.7208 H   0  0  0  0  0  0  0  0  0  0  0  0
  140.7813   78.7749  219.3697 H   0  0  0  0  0  0  0  0  0  0  0  0
  142.4010   80.4013  220.4018 H   0  0  0  0  0  0  0  0  0  0  0  0
  142.9972   81.5564  222.5278 H   0  0  0  0  0  0  0  0  0  0  0  0
  142.3950   80.5325  224.7213 H   0  0  0  0  0  0  0  0  0  0  0  0
  141.2041   78.3445  224.7973 H   0  0  0  0  0  0  0  0  0  0  0  0
  140.8600   76.1667  223.4630 H   0  0  0  0  0  0  0  0  0  0  0  0
  139.3373   77.0265  223.0089 H   0  0  0  0  0  0  0  0  0  0  0  0
  139.0330   70.6809  221.7356 H   0  0  0  0  0  0  0  0  0  0  0  0
  140.1463   69.5299  222.5561 H   0  0  0  0  0  0  0  0  0  0  0  0
  137.8435   71.0901  223.8326 H   0  0  0  0  0  0  0  0  0  0  0  0
  137.9212   69.3149  223.5288 H   0  0  0  0  0  0  0  0  0  0  0  0
  137.5908   68.7550  225.8834 H   0  0  0  0  0  0  0  0  0  0  0  0
  138.6752   68.4500  228.1072 H   0  0  0  0  0  0  0  0  0  0  0  0
  140.8698   69.5352  228.5889 H   0  0  0  0  0  0  0  0  0  0  0  0
  141.9640   70.9652  226.8637 H   0  0  0  0  0  0  0  0  0  0  0  0
  141.0317   72.5988  224.7718 H   0  0  0  0  0  0  0  0  0  0  0  0
  142.0989   71.2133  224.2424 H   0  0  0  0  0  0  0  0  0  0  0  0
  144.5341   73.5847  219.3847 H   0  0  0  0  0  0  0  0  0  0  0  0
  144.4342   71.7894  219.6320 H   0  0  0  0  0  0  0  0  0  0  0  0
  145.8868   72.5847  217.6790 H   0  0  0  0  0  0  0  0  0  0  0  0
  144.6097   71.3528  217.3094 H   0  0  0  0  0  0  0  0  0  0  0  0
  1  2  1  0
  2  3  1  0
  3  4  1  0
  4  5  1  0
  5  6  1  0
  6  7  1  0
  7  8  2  0
  8  9  1  0
  9 10  1  0
 10 11  1  0
 11 12  1  0
 12 13  1  0
 13 14  2  0
 14 15  1  0
 15 16  2  0
 16 17  1  0
 17 18  2  0
 18 19  1  0
  9 20  2  0
 20 21  1  0
 21 22  1  0
 22 23  1  0
 23 24  1  0
 24 25  1  0
 25 26  2  0
 26 27  1  0
 27 28  2  0
 28 29  1  0
 29 30  2  0
 30 31  1  0
 21 32  2  0
  6 33  1  0
 33 34  1  0
 34  3  1  0
 32  7  1  0
 19 10  1  0
 31 22  1  0
 18 13  1  0
 30 25  1  0
  1 35  1  0
  1 36  1  0
  1 37  1  0
  2 38  1  0
  3 39  1  0
  4 40  1  0
  4 41  1  0
  5 42  1  0
  5 43  1  0
 11 44  1  0
 11 45  1  0
 12 46  1  0
 12 47  1  0
 14 48  1  0
 15 49  1  0
 16 50  1  0
 17 51  1  0
 19 52  1  0
 19 53  1  0
 23 54  1  0
 23 55  1  0
 24 56  1  0
 24 57  1  0
 26 58  1  0
 27 59  1  0
 28 60  1  0
 29 61  1  0
 31 62  1  0
 31 63  1  0
 33 64  1  0
 33 65  1  0
 34 66  1  0
 34 67  1  0
M  END
>  <UniqueID>  (69) 
60

>  <SMILES>  (69) 
CNC1CCN(c2nc(N3CCc4ccccc4C3)nc(N3CCc4ccccc4C3)n2)CC1

>  <Energy>  (69) 
81.82523011856723

>  <Genealogy>  (69) 
CNC1CCN(c2nc(N3CCc4ccccc4C3)nc(N3CCc4ccccc4C3)n2)CC1 (3D coordinates assigned)
CNC1CCN(c2nc(N3CCc4ccccc4C3)nc(N3CCc4ccccc4C3)n2)CC1 (nonaromatic ring conformer: 81.82523011856723 kcal/mol)

>  <smiles>  (69) 
CNC1CCN(c2nc(N3CCc4ccccc4C3)nc(N3CCc4ccccc4C3)n2)CC1

>  <score_type>  (69) 
oracle

>  <origin>  (69) 
autodockgpu

>  <m_score__min__energy>  (69) 
-8.9900000000000002

>  <m_primary>  (69) 
energy

>  <meeko>  (69) 
{"free_energy": -8.65, "intermolecular_energy": -9.84, "internal_energy": -1.09, "cluster_size": 18, "cluster_id": 1, "rank_in_cluster": 17}

>  <energy>  (69) 
-8.84

>  <cluster_rmsd>  (69) 
1.9

>  <rmsd>  (69) 
271.61

>  <cluster>  (69) 
1

$$$$
DSYBMJCSYFRFMG-UHFFFAOYNA-N
     RDKit          3D

 67 72  0  0  0  0  0  0  0  0999 V2000
  145.6970   73.1250  219.4900 C   0  0  0  0  0  0  0  0  0  0  0  0
  145.9370   72.2240  218.3590 N   0  0  0  0  0  0  0  0  0  0  0  0
  144.8080   72.2230  217.4060 C   0  0  0  0  0  0  0  0  0  0  0  0
  144.0220   73.5720  217.4320 C   0  0  0  0  0  0  0  0  0  0  0  0
  142.5380   73.4060  217.7780 C   0  0  0  0  0  0  0  0  0  0  0  0
  142.4020   72.5380  218.9590 N   0  0  0  0  0  0  0  0  0  0  0  0
  141.7100   72.9790  220.1450 C   0  0  0  0  0  0  0  0  0  0  0  0
  141.3130   74.2730  220.2610 N   0  0  0  0  0  0  0  0  0  0  0  0
  140.6230   74.6960  221.3510 C   0  0  0  0  0  0  0  0  0  0  0  0
  140.1860   76.0690  221.4540 N   0  0  0  0  0  0  0  0  0  0  0  0
  139.7980   76.8420  220.2720 C   0  0  0  0  0  0  0  0  0  0  0  0
  140.8630   77.9060  220.0070 C   0  0  0  0  0  0  0  0  0  0  0  0
  141.2230   78.6630  221.2640 C   0  0  0  0  0  0  0  0  0  0  0  0
  141.8910   79.8920  221.1520 C   0  0  0  0  0  0  0  0  0  0  0  0
  142.2820   80.5920  222.2960 C   0  0  0  0  0  0  0  0  0  0  0  0
  142.0180   80.0670  223.5630 C   0  0  0  0  0  0  0  0  0  0  0  0
  141.3700   78.8370  223.6910 C   0  0  0  0  0  0  0  0  0  0  0  0
  140.9810   78.1160  222.5500 C   0  0  0  0  0  0  0  0  0  0  0  0
  140.2480   76.8050  222.7240 C   0  0  0  0  0  0  0  0  0  0  0  0
  140.3290   73.8040  222.3340 N   0  0  0  0  0  0  0  0  0  0  0  0
  140.7240   72.5080  222.2400 C   0  0  0  0  0  0  0  0  0  0  0  0
  140.3910   71.5710  223.2860 N   0  0  0  0  0  0  0  0  0  0  0  0
  139.6920   70.3170  222.9730 C   0  0  0  0  0  0  0  0  0  0  0  0
  138.6240   70.0420  224.0260 C   0  0  0  0  0  0  0  0  0  0  0  0
  139.2310   70.0490  225.3990 C   0  0  0  0  0  0  0  0  0  0  0  0
  138.6550   69.2800  226.4240 C   0  0  0  0  0  0  0  0  0  0  0  0
  139.1940   69.3040  227.7120 C   0  0  0  0  0  0  0  0  0  0  0  0
  140.3060   70.1020  227.9910 C   0  0  0  0  0  0  0  0  0  0  0  0
  140.8730   70.8890  226.9840 C   0  0  0  0  0  0  0  0  0  0  0  0
  140.3410   70.8750  225.6850 C   0  0  0  0  0  0  0  0  0  0  0  0
  140.9390   71.7870  224.6370 C   0  0  0  0  0  0  0  0  0  0  0  0
  141.4120   72.1040  221.1400 N   0  0  0  0  0  0  0  0  0  0  0  0
  143.0520   71.2170  218.9540 C   0  0  0  0  0  0  0  0  0  0  0  0
  143.9070   71.0030  217.6960 C   0  0  0  0  0  0  0  0  0  0  0  0
  145.8429   72.5771  220.4326 H   0  0  0  0  0  0  0  0  0  0  0  0
  146.4019   73.9682  219.4431 H   0  0  0  0  0  0  0  0  0  0  0  0
  144.6661   73.5058  219.4431 H   0  0  0  0  0  0  0  0  0  0  0  0
  146.0970   71.2570  218.7280 H   0  0  0  0  0  0  0  0  0  0  0  0
  145.1973   72.1331  216.3811 H   0  0  0  0  0  0  0  0  0  0  0  0
  144.4836   74.2299  218.1831 H   0  0  0  0  0  0  0  0  0  0  0  0
  144.0734   73.9970  216.4187 H   0  0  0  0  0  0  0  0  0  0  0  0
  142.1000   74.3914  217.9952 H   0  0  0  0  0  0  0  0  0  0  0  0
  142.0124   72.9499  216.9261 H   0  0  0  0  0  0  0  0  0  0  0  0
  139.7195   76.1730  219.4023 H   0  0  0  0  0  0  0  0  0  0  0  0
  138.8239   77.3233  220.4437 H   0  0  0  0  0  0  0  0  0  0  0  0
  141.7665   77.4159  219.6151 H   0  0  0  0  0  0  0  0  0  0  0  0
  140.4563   78.6239  219.2795 H   0  0  0  0  0  0  0  0  0  0  0  0
  142.1082   80.3070  220.1567 H   0  0  0  0  0  0  0  0  0  0  0  0
  142.7986   81.5583  222.1987 H   0  0  0  0  0  0  0  0  0  0  0  0
  142.3213   80.6238  224.4619 H   0  0  0  0  0  0  0  0  0  0  0  0
  141.1628   78.4300  224.6917 H   0  0  0  0  0  0  0  0  0  0  0  0
  140.7760   76.1929  223.4700 H   0  0  0  0  0  0  0  0  0  0  0  0
  139.2219   77.0167  223.0591 H   0  0  0  0  0  0  0  0  0  0  0  0
  139.2167   70.4012  221.9846 H   0  0  0  0  0  0  0  0  0  0  0  0
  140.4169   69.4897  222.9675 H   0  0  0  0  0  0  0  0  0  0  0  0
  137.8487   70.8202  223.9682 H   0  0  0  0  0  0  0  0  0  0  0  0
  138.1809   69.0533  223.8361 H   0  0  0  0  0  0  0  0  0  0  0  0
  137.7748   68.6557  226.2108 H   0  0  0  0  0  0  0  0  0  0  0  0
  138.7423   68.6937  228.5079 H   0  0  0  0  0  0  0  0  0  0  0  0
  140.7358   70.1113  229.0035 H   0  0  0  0  0  0  0  0  0  0  0  0
  141.7422   71.5237  227.2113 H   0  0  0  0  0  0  0  0  0  0  0  0
  140.7426   72.8290  224.9296 H   0  0  0  0  0  0  0  0  0  0  0  0
  142.0147   71.5621  224.5890 H   0  0  0  0  0  0  0  0  0  0  0  0
  143.6977   71.1352  219.8408 H   0  0  0  0  0  0  0  0  0  0  0  0
  142.2639   70.4497  218.9646 H   0  0  0  0  0  0  0  0  0  0  0  0
  144.5423   70.1171  217.8427 H   0  0  0  0  0  0  0  0  0  0  0  0
  143.2303   70.8641  216.8400 H   0  0  0  0  0  0  0  0  0  0  0  0
  1  2  1  0
  2  3  1  0
  3  4  1  0
  4  5  1  0
  5  6  1  0
  6  7  1  0
  7  8  2  0
  8  9  1  0
  9 10  1  0
 10 11  1  0
 11 12  1  0
 12 13  1  0
 13 14  2  0
 14 15  1  0
 15 16  2  0
 16 17  1  0
 17 18  2  0
 18 19  1  0
  9 20  2  0
 20 21  1  0
 21 22  1  0
 22 23  1  0
 23 24  1  0
 24 25  1  0
 25 26  2  0
 26 27  1  0
 27 28  2  0
 28 29  1  0
 29 30  2  0
 30 31  1  0
 21 32  2  0
  6 33  1  0
 33 34  1  0
 34  3  1  0
 32  7  1  0
 19 10  1  0
 31 22  1  0
 18 13  1  0
 30 25  1  0
  1 35  1  0
  1 36  1  0
  1 37  1  0
  2 38  1  0
  3 39  1  0
  4 40  1  0
  4 41  1  0
  5 42  1  0
  5 43  1  0
 11 44  1  0
 11 45  1  0
 12 46  1  0
 12 47  1  0
 14 48  1  0
 15 49  1  0
 16 50  1  0
 17 51  1  0
 19 52  1  0
 19 53  1  0
 23 54  1  0
 23 55  1  0
 24 56  1  0
 24 57  1  0
 26 58  1  0
 27 59  1  0
 28 60  1  0
 29 61  1  0
 31 62  1  0
 31 63  1  0
 33 64  1  0
 33 65  1  0
 34 66  1  0
 34 67  1  0
M  END
>  <UniqueID>  (70) 
60

>  <SMILES>  (70) 
CNC1CCN(c2nc(N3CCc4ccccc4C3)nc(N3CCc4ccccc4C3)n2)CC1

>  <Energy>  (70) 
81.82523011856723

>  <Genealogy>  (70) 
CNC1CCN(c2nc(N3CCc4ccccc4C3)nc(N3CCc4ccccc4C3)n2)CC1 (3D coordinates assigned)
CNC1CCN(c2nc(N3CCc4ccccc4C3)nc(N3CCc4ccccc4C3)n2)CC1 (nonaromatic ring conformer: 81.82523011856723 kcal/mol)

>  <smiles>  (70) 
CNC1CCN(c2nc(N3CCc4ccccc4C3)nc(N3CCc4ccccc4C3)n2)CC1

>  <score_type>  (70) 
oracle

>  <origin>  (70) 
autodockgpu

>  <m_score__min__energy>  (70) 
-8.9900000000000002

>  <m_primary>  (70) 
energy

>  <meeko>  (70) 
{"free_energy": -8.86, "intermolecular_energy": -10.06, "internal_energy": -1.03, "cluster_size": 18, "cluster_id": 1, "rank_in_cluster": 7}

>  <energy>  (70) 
-8.83

>  <cluster_rmsd>  (70) 
1.34

>  <rmsd>  (70) 
271.98

>  <cluster>  (70) 
1

$$$$
DSYBMJCSYFRFMG-UHFFFAOYNA-N
     RDKit          3D

 67 72  0  0  0  0  0  0  0  0999 V2000
  146.8970   73.7990  216.8140 C   0  0  0  0  0  0  0  0  0  0  0  0
  145.8780   73.3260  217.7570 N   0  0  0  0  0  0  0  0  0  0  0  0
  144.7600   72.6510  217.0680 C   0  0  0  0  0  0  0  0  0  0  0  0
  143.4980   73.5660  216.9680 C   0  0  0  0  0  0  0  0  0  0  0  0
  142.2540   72.9620  217.6270 C   0  0  0  0  0  0  0  0  0  0  0  0
  142.6010   72.4590  218.9650 N   0  0  0  0  0  0  0  0  0  0  0  0
  141.9100   72.9140  220.1460 C   0  0  0  0  0  0  0  0  0  0  0  0
  141.5260   74.2130  220.2530 N   0  0  0  0  0  0  0  0  0  0  0  0
  140.8360   74.6500  221.3390 C   0  0  0  0  0  0  0  0  0  0  0  0
  140.4120   76.0280  221.4310 N   0  0  0  0  0  0  0  0  0  0  0  0
  140.1540   76.8340  220.2350 C   0  0  0  0  0  0  0  0  0  0  0  0
  141.2560   77.8840  220.1010 C   0  0  0  0  0  0  0  0  0  0  0  0
  141.5030   78.6060  221.4050 C   0  0  0  0  0  0  0  0  0  0  0  0
  142.1980   79.8260  221.3880 C   0  0  0  0  0  0  0  0  0  0  0  0
  142.4860   80.4940  222.5810 C   0  0  0  0  0  0  0  0  0  0  0  0
  142.0920   79.9450  223.8030 C   0  0  0  0  0  0  0  0  0  0  0  0
  141.4150   78.7240  223.8380 C   0  0  0  0  0  0  0  0  0  0  0  0
  141.1290   78.0360  222.6480 C   0  0  0  0  0  0  0  0  0  0  0  0
  140.3620   76.7340  222.7180 C   0  0  0  0  0  0  0  0  0  0  0  0
  140.5310   73.7680  222.3260 N   0  0  0  0  0  0  0  0  0  0  0  0
  140.9130   72.4670  222.2420 C   0  0  0  0  0  0  0  0  0  0  0  0
  140.5680   71.5400  223.2930 N   0  0  0  0  0  0  0  0  0  0  0  0
  139.9220   70.2590  222.9790 C   0  0  0  0  0  0  0  0  0  0  0  0
  138.8220   69.9690  223.9940 C   0  0  0  0  0  0  0  0  0  0  0  0
  139.3730   70.0230  225.3900 C   0  0  0  0  0  0  0  0  0  0  0  0
  138.7800   69.2560  226.4070 C   0  0  0  0  0  0  0  0  0  0  0  0
  139.2660   69.3230  227.7140 C   0  0  0  0  0  0  0  0  0  0  0  0
  140.3400   70.1610  228.0200 C   0  0  0  0  0  0  0  0  0  0  0  0
  140.9220   70.9470  227.0210 C   0  0  0  0  0  0  0  0  0  0  0  0
  140.4430   70.8900  225.7020 C   0  0  0  0  0  0  0  0  0  0  0  0
  141.0540   71.8010  224.6600 C   0  0  0  0  0  0  0  0  0  0  0  0
  141.6000   72.0490  221.1470 N   0  0  0  0  0  0  0  0  0  0  0  0
  143.7290   71.5240  219.1070 C   0  0  0  0  0  0  0  0  0  0  0  0
  144.4680   71.3110  217.7780 C   0  0  0  0  0  0  0  0  0  0  0  0
  147.7565   74.1980  217.3726 H   0  0  0  0  0  0  0  0  0  0  0  0
  147.2275   72.9622  216.1811 H   0  0  0  0  0  0  0  0  0  0  0  0
  146.4712   74.5915  216.1811 H   0  0  0  0  0  0  0  0  0  0  0  0
  145.5220   74.1450  218.3040 H   0  0  0  0  0  0  0  0  0  0  0  0
  145.0493   72.4397  216.0280 H   0  0  0  0  0  0  0  0  0  0  0  0
  143.7224   74.5242  217.4595 H   0  0  0  0  0  0  0  0  0  0  0  0
  143.2710   73.6899  215.8988 H   0  0  0  0  0  0  0  0  0  0  0  0
  141.4755   73.7339  217.7164 H   0  0  0  0  0  0  0  0  0  0  0  0
  141.8795   72.1320  217.0099 H   0  0  0  0  0  0  0  0  0  0  0  0
  140.1509   76.1860  219.3462 H   0  0  0  0  0  0  0  0  0  0  0  0
  139.1753   77.3286  220.3219 H   0  0  0  0  0  0  0  0  0  0  0  0
  142.1857   77.3867  219.7874 H   0  0  0  0  0  0  0  0  0  0  0  0
  140.9338   78.6253  219.3549 H   0  0  0  0  0  0  0  0  0  0  0  0
  142.5180   80.2589  220.4287 H   0  0  0  0  0  0  0  0  0  0  0  0
  143.0236   81.4534  222.5575 H   0  0  0  0  0  0  0  0  0  0  0  0
  142.3154   80.4755  224.7403 H   0  0  0  0  0  0  0  0  0  0  0  0
  141.1040   78.2988  224.8036 H   0  0  0  0  0  0  0  0  0  0  0  0
  140.8054   76.0959  223.4966 H   0  0  0  0  0  0  0  0  0  0  0  0
  139.3116   76.9566  222.9569 H   0  0  0  0  0  0  0  0  0  0  0  0
  139.4841   70.3089  221.9711 H   0  0  0  0  0  0  0  0  0  0  0  0
  140.6725   69.4558  223.0195 H   0  0  0  0  0  0  0  0  0  0  0  0
  138.0247   70.7196  223.8894 H   0  0  0  0  0  0  0  0  0  0  0  0
  138.4192   68.9626  223.8072 H   0  0  0  0  0  0  0  0  0  0  0  0
  137.9290   68.5998  226.1723 H   0  0  0  0  0  0  0  0  0  0  0  0
  138.8020   68.7145  228.5042 H   0  0  0  0  0  0  0  0  0  0  0  0
  140.7286   70.2028  229.0482 H   0  0  0  0  0  0  0  0  0  0  0  0
  141.7604   71.6143  227.2696 H   0  0  0  0  0  0  0  0  0  0  0  0
  140.8125   72.8415  224.9226 H   0  0  0  0  0  0  0  0  0  0  0  0
  142.1375   71.6114  224.6599 H   0  0  0  0  0  0  0  0  0  0  0  0
  144.4359   71.9294  219.8458 H   0  0  0  0  0  0  0  0  0  0  0  0
  143.3276   70.5531  219.4329 H   0  0  0  0  0  0  0  0  0  0  0  0
  145.4203   70.7979  217.9775 H   0  0  0  0  0  0  0  0  0  0  0  0
  143.8258   70.7064  217.1206 H   0  0  0  0  0  0  0  0  0  0  0  0
  1  2  1  0
  2  3  1  0
  3  4  1  0
  4  5  1  0
  5  6  1  0
  6  7  1  0
  7  8  2  0
  8  9  1  0
  9 10  1  0
 10 11  1  0
 11 12  1  0
 12 13  1  0
 13 14  2  0
 14 15  1  0
 15 16  2  0
 16 17  1  0
 17 18  2  0
 18 19  1  0
  9 20  2  0
 20 21  1  0
 21 22  1  0
 22 23  1  0
 23 24  1  0
 24 25  1  0
 25 26  2  0
 26 27  1  0
 27 28  2  0
 28 29  1  0
 29 30  2  0
 30 31  1  0
 21 32  2  0
  6 33  1  0
 33 34  1  0
 34  3  1  0
 32  7  1  0
 19 10  1  0
 31 22  1  0
 18 13  1  0
 30 25  1  0
  1 35  1  0
  1 36  1  0
  1 37  1  0
  2 38  1  0
  3 39  1  0
  4 40  1  0
  4 41  1  0
  5 42  1  0
  5 43  1  0
 11 44  1  0
 11 45  1  0
 12 46  1  0
 12 47  1  0
 14 48  1  0
 15 49  1  0
 16 50  1  0
 17 51  1  0
 19 52  1  0
 19 53  1  0
 23 54  1  0
 23 55  1  0
 24 56  1  0
 24 57  1  0
 26 58  1  0
 27 59  1  0
 28 60  1  0
 29 61  1  0
 31 62  1  0
 31 63  1  0
 33 64  1  0
 33 65  1  0
 34 66  1  0
 34 67  1  0
M  END
>  <UniqueID>  (71) 
60

>  <SMILES>  (71) 
CNC1CCN(c2nc(N3CCc4ccccc4C3)nc(N3CCc4ccccc4C3)n2)CC1

>  <Energy>  (71) 
81.82523011856723

>  <Genealogy>  (71) 
CNC1CCN(c2nc(N3CCc4ccccc4C3)nc(N3CCc4ccccc4C3)n2)CC1 (3D coordinates assigned)
CNC1CCN(c2nc(N3CCc4ccccc4C3)nc(N3CCc4ccccc4C3)n2)CC1 (nonaromatic ring conformer: 81.82523011856723 kcal/mol)

>  <smiles>  (71) 
CNC1CCN(c2nc(N3CCc4ccccc4C3)nc(N3CCc4ccccc4C3)n2)CC1

>  <score_type>  (71) 
oracle

>  <origin>  (71) 
autodockgpu

>  <m_score__min__energy>  (71) 
-8.9900000000000002

>  <m_primary>  (71) 
energy

>  <meeko>  (71) 
{"free_energy": -8.99, "intermolecular_energy": -10.18, "internal_energy": -0.96, "cluster_size": 18, "cluster_id": 1, "rank_in_cluster": 1}

>  <energy>  (71) 
-8.83

>  <cluster_rmsd>  (71) 
1.91

>  <rmsd>  (71) 
271.61

>  <cluster>  (71) 
1

$$$$
DSYBMJCSYFRFMG-UHFFFAOYNA-N
     RDKit          3D

 67 72  0  0  0  0  0  0  0  0999 V2000
  143.2920   75.8590  216.8190 C   0  0  0  0  0  0  0  0  0  0  0  0
  144.5620   75.2410  216.4250 N   0  0  0  0  0  0  0  0  0  0  0  0
  144.5020   73.7660  216.4950 C   0  0  0  0  0  0  0  0  0  0  0  0
  143.0310   73.2420  216.5160 C   0  0  0  0  0  0  0  0  0  0  0  0
  142.7020   72.4010  217.7540 C   0  0  0  0  0  0  0  0  0  0  0  0
  143.1730   73.0970  218.9610 N   0  0  0  0  0  0  0  0  0  0  0  0
  142.2770   73.4210  220.0450 C   0  0  0  0  0  0  0  0  0  0  0  0
  141.8550   74.7010  220.2200 N   0  0  0  0  0  0  0  0  0  0  0  0
  140.9790   75.0160  221.2080 C   0  0  0  0  0  0  0  0  0  0  0  0
  140.5180   76.3760  221.3710 N   0  0  0  0  0  0  0  0  0  0  0  0
  140.2060   77.2250  220.2190 C   0  0  0  0  0  0  0  0  0  0  0  0
  141.2740   78.3120  220.1040 C   0  0  0  0  0  0  0  0  0  0  0  0
  141.5330   78.9840  221.4310 C   0  0  0  0  0  0  0  0  0  0  0  0
  142.1920   80.2240  221.4510 C   0  0  0  0  0  0  0  0  0  0  0  0
  142.4910   80.8480  222.6650 C   0  0  0  0  0  0  0  0  0  0  0  0
  142.1440   80.2360  223.8710 C   0  0  0  0  0  0  0  0  0  0  0  0
  141.5030   78.9950  223.8690 C   0  0  0  0  0  0  0  0  0  0  0  0
  141.2070   78.3500  222.6570 C   0  0  0  0  0  0  0  0  0  0  0  0
  140.4800   77.0250  222.6890 C   0  0  0  0  0  0  0  0  0  0  0  0
  140.5230   74.0320  222.0270 N   0  0  0  0  0  0  0  0  0  0  0  0
  140.9400   72.7490  221.8730 C   0  0  0  0  0  0  0  0  0  0  0  0
  140.4350   71.7130  222.7420 N   0  0  0  0  0  0  0  0  0  0  0  0
  139.4440   70.7440  222.2550 C   0  0  0  0  0  0  0  0  0  0  0  0
  138.3860   70.5020  223.3250 C   0  0  0  0  0  0  0  0  0  0  0  0
  139.0320   70.0840  224.6140 C   0  0  0  0  0  0  0  0  0  0  0  0
  138.3310   69.2670  225.5170 C   0  0  0  0  0  0  0  0  0  0  0  0
  138.9120   68.8990  226.7320 C   0  0  0  0  0  0  0  0  0  0  0  0
  140.1930   69.3480  227.0600 C   0  0  0  0  0  0  0  0  0  0  0  0
  140.8910   70.1800  226.1790 C   0  0  0  0  0  0  0  0  0  0  0  0
  140.3180   70.5590  224.9550 C   0  0  0  0  0  0  0  0  0  0  0  0
  141.0740   71.5120  224.0550 C   0  0  0  0  0  0  0  0  0  0  0  0
  141.8150   72.4520  220.8770 N   0  0  0  0  0  0  0  0  0  0  0  0
  144.5750   73.5380  219.0320 C   0  0  0  0  0  0  0  0  0  0  0  0
  145.3220   73.2870  217.7130 C   0  0  0  0  0  0  0  0  0  0  0  0
  143.2250   75.8916  217.9165 H   0  0  0  0  0  0  0  0  0  0  0  0
  143.2421   76.8821  216.4180 H   0  0  0  0  0  0  0  0  0  0  0  0
  142.4561   75.2669  216.4180 H   0  0  0  0  0  0  0  0  0  0  0  0
  145.3190   75.6000  217.0530 H   0  0  0  0  0  0  0  0  0  0  0  0
  144.9490   73.3408  215.5843 H   0  0  0  0  0  0  0  0  0  0  0  0
  142.3523   74.1073  216.4919 H   0  0  0  0  0  0  0  0  0  0  0  0
  142.9058   72.5907  215.6384 H   0  0  0  0  0  0  0  0  0  0  0  0
  141.6139   72.2529  217.8176 H   0  0  0  0  0  0  0  0  0  0  0  0
  143.2020   71.4243  217.6763 H   0  0  0  0  0  0  0  0  0  0  0  0
  140.1979   76.6164  219.3027 H   0  0  0  0  0  0  0  0  0  0  0  0
  139.2163   77.6863  220.3521 H   0  0  0  0  0  0  0  0  0  0  0  0
  142.2093   77.8563  219.7468 H   0  0  0  0  0  0  0  0  0  0  0  0
  140.9121   79.0746  219.3987 H   0  0  0  0  0  0  0  0  0  0  0  0
  142.4748   80.7075  220.5043 H   0  0  0  0  0  0  0  0  0  0  0  0
  143.0005   81.8229  222.6705 H   0  0  0  0  0  0  0  0  0  0  0  0
  142.3759   80.7323  224.8249 H   0  0  0  0  0  0  0  0  0  0  0  0
  141.2284   78.5200  224.8224 H   0  0  0  0  0  0  0  0  0  0  0  0
  140.9609   76.3678  223.4284 H   0  0  0  0  0  0  0  0  0  0  0  0
  139.4300   77.2059  222.9624 H   0  0  0  0  0  0  0  0  0  0  0  0
  138.9623   71.1393  221.3485 H   0  0  0  0  0  0  0  0  0  0  0  0
  139.9491   69.7946  222.0238 H   0  0  0  0  0  0  0  0  0  0  0  0
  137.8171   71.4292  223.4886 H   0  0  0  0  0  0  0  0  0  0  0  0
  137.7129   69.7005  222.9866 H   0  0  0  0  0  0  0  0  0  0  0  0
  137.3194   68.9156  225.2654 H   0  0  0  0  0  0  0  0  0  0  0  0
  138.3600   68.2545  227.4319 H   0  0  0  0  0  0  0  0  0  0  0  0
  140.6535   69.0469  228.0125 H   0  0  0  0  0  0  0  0  0  0  0  0
  141.8954   70.5397  226.4469 H   0  0  0  0  0  0  0  0  0  0  0  0
  141.1445   72.4863  224.5606 H   0  0  0  0  0  0  0  0  0  0  0  0
  142.0621   71.0659  223.8689 H   0  0  0  0  0  0  0  0  0  0  0  0
  144.5982   74.6150  219.2545 H   0  0  0  0  0  0  0  0  0  0  0  0
  145.0749   72.9590  219.8224 H   0  0  0  0  0  0  0  0  0  0  0  0
  146.2783   73.8302  217.7354 H   0  0  0  0  0  0  0  0  0  0  0  0
  145.4874   72.2042  217.6120 H   0  0  0  0  0  0  0  0  0  0  0  0
  1  2  1  0
  2  3  1  0
  3  4  1  0
  4  5  1  0
  5  6  1  0
  6  7  1  0
  7  8  2  0
  8  9  1  0
  9 10  1  0
 10 11  1  0
 11 12  1  0
 12 13  1  0
 13 14  2  0
 14 15  1  0
 15 16  2  0
 16 17  1  0
 17 18  2  0
 18 19  1  0
  9 20  2  0
 20 21  1  0
 21 22  1  0
 22 23  1  0
 23 24  1  0
 24 25  1  0
 25 26  2  0
 26 27  1  0
 27 28  2  0
 28 29  1  0
 29 30  2  0
 30 31  1  0
 21 32  2  0
  6 33  1  0
 33 34  1  0
 34  3  1  0
 32  7  1  0
 19 10  1  0
 31 22  1  0
 18 13  1  0
 30 25  1  0
  1 35  1  0
  1 36  1  0
  1 37  1  0
  2 38  1  0
  3 39  1  0
  4 40  1  0
  4 41  1  0
  5 42  1  0
  5 43  1  0
 11 44  1  0
 11 45  1  0
 12 46  1  0
 12 47  1  0
 14 48  1  0
 15 49  1  0
 16 50  1  0
 17 51  1  0
 19 52  1  0
 19 53  1  0
 23 54  1  0
 23 55  1  0
 24 56  1  0
 24 57  1  0
 26 58  1  0
 27 59  1  0
 28 60  1  0
 29 61  1  0
 31 62  1  0
 31 63  1  0
 33 64  1  0
 33 65  1  0
 34 66  1  0
 34 67  1  0
M  END
>  <UniqueID>  (72) 
60

>  <SMILES>  (72) 
CNC1CCN(c2nc(N3CCc4ccccc4C3)nc(N3CCc4ccccc4C3)n2)CC1

>  <Energy>  (72) 
81.82523011856723

>  <Genealogy>  (72) 
CNC1CCN(c2nc(N3CCc4ccccc4C3)nc(N3CCc4ccccc4C3)n2)CC1 (3D coordinates assigned)
CNC1CCN(c2nc(N3CCc4ccccc4C3)nc(N3CCc4ccccc4C3)n2)CC1 (nonaromatic ring conformer: 81.82523011856723 kcal/mol)

>  <smiles>  (72) 
CNC1CCN(c2nc(N3CCc4ccccc4C3)nc(N3CCc4ccccc4C3)n2)CC1

>  <score_type>  (72) 
oracle

>  <origin>  (72) 
autodockgpu

>  <m_score__min__energy>  (72) 
-8.9900000000000002

>  <m_primary>  (72) 
energy

>  <meeko>  (72) 
{"free_energy": -8.68, "intermolecular_energy": -9.88, "internal_energy": -1.09, "cluster_size": 18, "cluster_id": 1, "rank_in_cluster": 16}

>  <energy>  (72) 
-8.83

>  <cluster_rmsd>  (72) 
1.91

>  <rmsd>  (72) 
271.62

>  <cluster>  (72) 
1

$$$$
DSYBMJCSYFRFMG-UHFFFAOYNA-N
     RDKit          3D

 67 72  0  0  0  0  0  0  0  0999 V2000
  146.9000   73.7640  216.8180 C   0  0  0  0  0  0  0  0  0  0  0  0
  145.8640   73.3050  217.7490 N   0  0  0  0  0  0  0  0  0  0  0  0
  144.7340   72.6640  217.0440 C   0  0  0  0  0  0  0  0  0  0  0  0
  143.4920   73.6070  216.9540 C   0  0  0  0  0  0  0  0  0  0  0  0
  142.2330   73.0180  217.5990 C   0  0  0  0  0  0  0  0  0  0  0  0
  142.5640   72.4850  218.9290 N   0  0  0  0  0  0  0  0  0  0  0  0
  141.8780   72.9340  220.1160 C   0  0  0  0  0  0  0  0  0  0  0  0
  141.4980   74.2340  220.2320 N   0  0  0  0  0  0  0  0  0  0  0  0
  140.8140   74.6650  221.3230 C   0  0  0  0  0  0  0  0  0  0  0  0
  140.3940   76.0440  221.4260 N   0  0  0  0  0  0  0  0  0  0  0  0
  140.1280   76.8570  220.2370 C   0  0  0  0  0  0  0  0  0  0  0  0
  141.2310   77.9040  220.0980 C   0  0  0  0  0  0  0  0  0  0  0  0
  141.4920   78.6190  221.4030 C   0  0  0  0  0  0  0  0  0  0  0  0
  142.1900   79.8370  221.3860 C   0  0  0  0  0  0  0  0  0  0  0  0
  142.4900   80.4980  222.5800 C   0  0  0  0  0  0  0  0  0  0  0  0
  142.1050   79.9440  223.8020 C   0  0  0  0  0  0  0  0  0  0  0  0
  141.4250   78.7250  223.8370 C   0  0  0  0  0  0  0  0  0  0  0  0
  141.1260   78.0430  222.6460 C   0  0  0  0  0  0  0  0  0  0  0  0
  140.3570   76.7440  222.7170 C   0  0  0  0  0  0  0  0  0  0  0  0
  140.5080   73.7770  222.3050 N   0  0  0  0  0  0  0  0  0  0  0  0
  140.8860   72.4760  222.2110 C   0  0  0  0  0  0  0  0  0  0  0  0
  140.5410   71.5420  223.2570 N   0  0  0  0  0  0  0  0  0  0  0  0
  139.8600   70.2810  222.9390 C   0  0  0  0  0  0  0  0  0  0  0  0
  138.7740   70.0030  223.9730 C   0  0  0  0  0  0  0  0  0  0  0  0
  139.3540   70.0250  225.3580 C   0  0  0  0  0  0  0  0  0  0  0  0
  138.7650   69.2580  226.3770 C   0  0  0  0  0  0  0  0  0  0  0  0
  139.2780   69.2960  227.6750 C   0  0  0  0  0  0  0  0  0  0  0  0
  140.3770   70.1060  227.9690 C   0  0  0  0  0  0  0  0  0  0  0  0
  140.9570   70.8910  226.9680 C   0  0  0  0  0  0  0  0  0  0  0  0
  140.4500   70.8630  225.6590 C   0  0  0  0  0  0  0  0  0  0  0  0
  141.0600   71.7740  224.6170 C   0  0  0  0  0  0  0  0  0  0  0  0
  141.5690   72.0630  221.1110 N   0  0  0  0  0  0  0  0  0  0  0  0
  143.6720   71.5250  219.0600 C   0  0  0  0  0  0  0  0  0  0  0  0
  144.4120   71.3190  217.7300 C   0  0  0  0  0  0  0  0  0  0  0  0
  147.7610   74.1455  217.3865 H   0  0  0  0  0  0  0  0  0  0  0  0
  147.2219   72.9243  216.1846 H   0  0  0  0  0  0  0  0  0  0  0  0
  146.4942   74.5666  216.1846 H   0  0  0  0  0  0  0  0  0  0  0  0
  145.5230   74.1260  218.3020 H   0  0  0  0  0  0  0  0  0  0  0  0
  145.0227   72.4635  216.0017 H   0  0  0  0  0  0  0  0  0  0  0  0
  143.7343   74.5523  217.4617 H   0  0  0  0  0  0  0  0  0  0  0  0
  143.2719   73.7533  215.8862 H   0  0  0  0  0  0  0  0  0  0  0  0
  141.4706   73.8046  217.6991 H   0  0  0  0  0  0  0  0  0  0  0  0
  141.8437   72.2066  216.9665 H   0  0  0  0  0  0  0  0  0  0  0  0
  140.1149   76.2136  219.3449 H   0  0  0  0  0  0  0  0  0  0  0  0
  139.1518   77.3543  220.3358 H   0  0  0  0  0  0  0  0  0  0  0  0
  142.1564   77.4057  219.7735 H   0  0  0  0  0  0  0  0  0  0  0  0
  140.9040   78.6497  219.3585 H   0  0  0  0  0  0  0  0  0  0  0  0
  142.5029   80.2739  220.4262 H   0  0  0  0  0  0  0  0  0  0  0  0
  143.0302   81.4560  222.5569 H   0  0  0  0  0  0  0  0  0  0  0  0
  142.3379   80.4692  224.7400 H   0  0  0  0  0  0  0  0  0  0  0  0
  141.1215   78.2960  224.8034 H   0  0  0  0  0  0  0  0  0  0  0  0
  140.8056   76.1012  223.4887 H   0  0  0  0  0  0  0  0  0  0  0  0
  139.3093   76.9680  222.9665 H   0  0  0  0  0  0  0  0  0  0  0  0
  139.4033   70.3546  221.9410 H   0  0  0  0  0  0  0  0  0  0  0  0
  140.5922   69.4602  222.9529 H   0  0  0  0  0  0  0  0  0  0  0  0
  137.9928   70.7734  223.8946 H   0  0  0  0  0  0  0  0  0  0  0  0
  138.3440   69.0088  223.7813 H   0  0  0  0  0  0  0  0  0  0  0  0
  137.8949   68.6241  226.1510 H   0  0  0  0  0  0  0  0  0  0  0  0
  138.8162   68.6875  228.4666 H   0  0  0  0  0  0  0  0  0  0  0  0
  140.7869   70.1264  228.9896 H   0  0  0  0  0  0  0  0  0  0  0  0
  141.8162   71.5348  227.2075 H   0  0  0  0  0  0  0  0  0  0  0  0
  140.8470   72.8160  224.8979 H   0  0  0  0  0  0  0  0  0  0  0  0
  142.1389   71.5608  224.5924 H   0  0  0  0  0  0  0  0  0  0  0  0
  144.3840   71.9037  219.8081 H   0  0  0  0  0  0  0  0  0  0  0  0
  143.2497   70.5573  219.3684 H   0  0  0  0  0  0  0  0  0  0  0  0
  145.3529   70.7832  217.9243 H   0  0  0  0  0  0  0  0  0  0  0  0
  143.7603   70.7387  217.0602 H   0  0  0  0  0  0  0  0  0  0  0  0
  1  2  1  0
  2  3  1  0
  3  4  1  0
  4  5  1  0
  5  6  1  0
  6  7  1  0
  7  8  2  0
  8  9  1  0
  9 10  1  0
 10 11  1  0
 11 12  1  0
 12 13  1  0
 13 14  2  0
 14 15  1  0
 15 16  2  0
 16 17  1  0
 17 18  2  0
 18 19  1  0
  9 20  2  0
 20 21  1  0
 21 22  1  0
 22 23  1  0
 23 24  1  0
 24 25  1  0
 25 26  2  0
 26 27  1  0
 27 28  2  0
 28 29  1  0
 29 30  2  0
 30 31  1  0
 21 32  2  0
  6 33  1  0
 33 34  1  0
 34  3  1  0
 32  7  1  0
 19 10  1  0
 31 22  1  0
 18 13  1  0
 30 25  1  0
  1 35  1  0
  1 36  1  0
  1 37  1  0
  2 38  1  0
  3 39  1  0
  4 40  1  0
  4 41  1  0
  5 42  1  0
  5 43  1  0
 11 44  1  0
 11 45  1  0
 12 46  1  0
 12 47  1  0
 14 48  1  0
 15 49  1  0
 16 50  1  0
 17 51  1  0
 19 52  1  0
 19 53  1  0
 23 54  1  0
 23 55  1  0
 24 56  1  0
 24 57  1  0
 26 58  1  0
 27 59  1  0
 28 60  1  0
 29 61  1  0
 31 62  1  0
 31 63  1  0
 33 64  1  0
 33 65  1  0
 34 66  1  0
 34 67  1  0
M  END
>  <UniqueID>  (73) 
60

>  <SMILES>  (73) 
CNC1CCN(c2nc(N3CCc4ccccc4C3)nc(N3CCc4ccccc4C3)n2)CC1

>  <Energy>  (73) 
81.82523011856723

>  <Genealogy>  (73) 
CNC1CCN(c2nc(N3CCc4ccccc4C3)nc(N3CCc4ccccc4C3)n2)CC1 (3D coordinates assigned)
CNC1CCN(c2nc(N3CCc4ccccc4C3)nc(N3CCc4ccccc4C3)n2)CC1 (nonaromatic ring conformer: 81.82523011856723 kcal/mol)

>  <smiles>  (73) 
CNC1CCN(c2nc(N3CCc4ccccc4C3)nc(N3CCc4ccccc4C3)n2)CC1

>  <score_type>  (73) 
oracle

>  <origin>  (73) 
autodockgpu

>  <m_score__min__energy>  (73) 
-8.9900000000000002

>  <m_primary>  (73) 
energy

>  <meeko>  (73) 
{"free_energy": -8.98, "intermolecular_energy": -10.17, "internal_energy": -0.96, "cluster_size": 18, "cluster_id": 1, "rank_in_cluster": 2}

>  <energy>  (73) 
-8.82

>  <cluster_rmsd>  (73) 
1.92

>  <rmsd>  (73) 
271.63

>  <cluster>  (73) 
1

$$$$
DSYBMJCSYFRFMG-UHFFFAOYNA-N
     RDKit          3D

 67 72  0  0  0  0  0  0  0  0999 V2000
  145.6830   73.1830  219.4550 C   0  0  0  0  0  0  0  0  0  0  0  0
  145.9400   72.2610  218.3440 N   0  0  0  0  0  0  0  0  0  0  0  0
  144.8020   72.2000  217.4040 C   0  0  0  0  0  0  0  0  0  0  0  0
  143.9700   73.5220  217.4080 C   0  0  0  0  0  0  0  0  0  0  0  0
  142.4970   73.3130  217.7740 C   0  0  0  0  0  0  0  0  0  0  0  0
  142.4030   72.4690  218.9760 N   0  0  0  0  0  0  0  0  0  0  0  0
  141.7090   72.9140  220.1590 C   0  0  0  0  0  0  0  0  0  0  0  0
  141.3130   74.2090  220.2710 N   0  0  0  0  0  0  0  0  0  0  0  0
  140.6200   74.6340  221.3590 C   0  0  0  0  0  0  0  0  0  0  0  0
  140.1830   76.0080  221.4570 N   0  0  0  0  0  0  0  0  0  0  0  0
  139.7700   76.7690  220.2750 C   0  0  0  0  0  0  0  0  0  0  0  0
  140.8270   77.8310  219.9770 C   0  0  0  0  0  0  0  0  0  0  0  0
  141.2130   78.6010  221.2180 C   0  0  0  0  0  0  0  0  0  0  0  0
  141.8770   79.8300  221.0790 C   0  0  0  0  0  0  0  0  0  0  0  0
  142.2910   80.5420  222.2070 C   0  0  0  0  0  0  0  0  0  0  0  0
  142.0550   80.0300  223.4850 C   0  0  0  0  0  0  0  0  0  0  0  0
  141.4110   78.8010  223.6390 C   0  0  0  0  0  0  0  0  0  0  0  0
  140.9990   78.0670  222.5150 C   0  0  0  0  0  0  0  0  0  0  0  0
  140.2720   76.7580  222.7180 C   0  0  0  0  0  0  0  0  0  0  0  0
  140.3240   73.7460  222.3430 N   0  0  0  0  0  0  0  0  0  0  0  0
  140.7180   72.4490  222.2540 C   0  0  0  0  0  0  0  0  0  0  0  0
  140.3830   71.5150  223.3020 N   0  0  0  0  0  0  0  0  0  0  0  0
  139.5620   70.3310  223.0140 C   0  0  0  0  0  0  0  0  0  0  0  0
  138.5520   70.1150  224.1350 C   0  0  0  0  0  0  0  0  0  0  0  0
  139.2520   70.0380  225.4610 C   0  0  0  0  0  0  0  0  0  0  0  0
  138.6870   69.2920  226.5090 C   0  0  0  0  0  0  0  0  0  0  0  0
  139.3140   69.2380  227.7560 C   0  0  0  0  0  0  0  0  0  0  0  0
  140.5060   69.9360  227.9700 C   0  0  0  0  0  0  0  0  0  0  0  0
  141.0640   70.7010  226.9410 C   0  0  0  0  0  0  0  0  0  0  0  0
  140.4430   70.7640  225.6830 C   0  0  0  0  0  0  0  0  0  0  0  0
  141.0400   71.6510  224.6140 C   0  0  0  0  0  0  0  0  0  0  0  0
  141.4080   72.0410  221.1570 N   0  0  0  0  0  0  0  0  0  0  0  0
  143.0970   71.1720  218.9940 C   0  0  0  0  0  0  0  0  0  0  0  0
  143.9460   70.9580  217.7320 C   0  0  0  0  0  0  0  0  0  0  0  0
  145.8297   72.6567  220.4097 H   0  0  0  0  0  0  0  0  0  0  0  0
  146.3784   74.0331  219.3943 H   0  0  0  0  0  0  0  0  0  0  0  0
  144.6481   73.5508  219.3943 H   0  0  0  0  0  0  0  0  0  0  0  0
  146.1350   71.3100  218.7350 H   0  0  0  0  0  0  0  0  0  0  0  0
  145.1841   72.0998  216.3774 H   0  0  0  0  0  0  0  0  0  0  0  0
  144.4162   74.2126  218.1388 H   0  0  0  0  0  0  0  0  0  0  0  0
  143.9963   73.9252  216.3849 H   0  0  0  0  0  0  0  0  0  0  0  0
  142.0272   74.2875  217.9731 H   0  0  0  0  0  0  0  0  0  0  0  0
  141.9791   72.8189  216.9387 H   0  0  0  0  0  0  0  0  0  0  0  0
  139.6745   76.0911  219.4140 H   0  0  0  0  0  0  0  0  0  0  0  0
  138.7992   77.2512  220.4622 H   0  0  0  0  0  0  0  0  0  0  0  0
  141.7225   77.3381  219.5707 H   0  0  0  0  0  0  0  0  0  0  0  0
  140.4036   78.5412  219.2515 H   0  0  0  0  0  0  0  0  0  0  0  0
  142.0725   80.2349  220.0751 H   0  0  0  0  0  0  0  0  0  0  0  0
  142.8039   81.5079  222.0887 H   0  0  0  0  0  0  0  0  0  0  0  0
  142.3771   80.5961  224.3715 H   0  0  0  0  0  0  0  0  0  0  0  0
  141.2249   78.4047  224.6481 H   0  0  0  0  0  0  0  0  0  0  0  0
  140.8168   76.1543  223.4587 H   0  0  0  0  0  0  0  0  0  0  0  0
  139.2531   76.9725  223.0727 H   0  0  0  0  0  0  0  0  0  0  0  0
  139.0268   70.4804  222.0646 H   0  0  0  0  0  0  0  0  0  0  0  0
  140.2137   69.4480  222.9385 H   0  0  0  0  0  0  0  0  0  0  0  0
  137.8405   70.9538  224.1487 H   0  0  0  0  0  0  0  0  0  0  0  0
  138.0179   69.1699  223.9575 H   0  0  0  0  0  0  0  0  0  0  0  0
  137.7453   68.7472  226.3465 H   0  0  0  0  0  0  0  0  0  0  0  0
  138.8697   68.6461  228.5698 H   0  0  0  0  0  0  0  0  0  0  0  0
  141.0055   69.8835  228.9486 H   0  0  0  0  0  0  0  0  0  0  0  0
  141.9962   71.2575  227.1182 H   0  0  0  0  0  0  0  0  0  0  0  0
  140.9515   72.6976  224.9407 H   0  0  0  0  0  0  0  0  0  0  0  0
  142.0875   71.3411  224.4847 H   0  0  0  0  0  0  0  0  0  0  0  0
  143.7541   71.1327  219.8753 H   0  0  0  0  0  0  0  0  0  0  0  0
  142.3356   70.3789  219.0307 H   0  0  0  0  0  0  0  0  0  0  0  0
  144.6124   70.0976  217.8920 H   0  0  0  0  0  0  0  0  0  0  0  0
  143.2656   70.7769  216.8869 H   0  0  0  0  0  0  0  0  0  0  0  0
  1  2  1  0
  2  3  1  0
  3  4  1  0
  4  5  1  0
  5  6  1  0
  6  7  1  0
  7  8  2  0
  8  9  1  0
  9 10  1  0
 10 11  1  0
 11 12  1  0
 12 13  1  0
 13 14  2  0
 14 15  1  0
 15 16  2  0
 16 17  1  0
 17 18  2  0
 18 19  1  0
  9 20  2  0
 20 21  1  0
 21 22  1  0
 22 23  1  0
 23 24  1  0
 24 25  1  0
 25 26  2  0
 26 27  1  0
 27 28  2  0
 28 29  1  0
 29 30  2  0
 30 31  1  0
 21 32  2  0
  6 33  1  0
 33 34  1  0
 34  3  1  0
 32  7  1  0
 19 10  1  0
 31 22  1  0
 18 13  1  0
 30 25  1  0
  1 35  1  0
  1 36  1  0
  1 37  1  0
  2 38  1  0
  3 39  1  0
  4 40  1  0
  4 41  1  0
  5 42  1  0
  5 43  1  0
 11 44  1  0
 11 45  1  0
 12 46  1  0
 12 47  1  0
 14 48  1  0
 15 49  1  0
 16 50  1  0
 17 51  1  0
 19 52  1  0
 19 53  1  0
 23 54  1  0
 23 55  1  0
 24 56  1  0
 24 57  1  0
 26 58  1  0
 27 59  1  0
 28 60  1  0
 29 61  1  0
 31 62  1  0
 31 63  1  0
 33 64  1  0
 33 65  1  0
 34 66  1  0
 34 67  1  0
M  END
>  <UniqueID>  (74) 
60

>  <SMILES>  (74) 
CNC1CCN(c2nc(N3CCc4ccccc4C3)nc(N3CCc4ccccc4C3)n2)CC1

>  <Energy>  (74) 
81.82523011856723

>  <Genealogy>  (74) 
CNC1CCN(c2nc(N3CCc4ccccc4C3)nc(N3CCc4ccccc4C3)n2)CC1 (3D coordinates assigned)
CNC1CCN(c2nc(N3CCc4ccccc4C3)nc(N3CCc4ccccc4C3)n2)CC1 (nonaromatic ring conformer: 81.82523011856723 kcal/mol)

>  <smiles>  (74) 
CNC1CCN(c2nc(N3CCc4ccccc4C3)nc(N3CCc4ccccc4C3)n2)CC1

>  <score_type>  (74) 
oracle

>  <origin>  (74) 
autodockgpu

>  <m_score__min__energy>  (74) 
-8.9900000000000002

>  <m_primary>  (74) 
energy

>  <meeko>  (74) 
{"free_energy": -8.9, "intermolecular_energy": -10.09, "internal_energy": -1.03, "cluster_size": 18, "cluster_id": 1, "rank_in_cluster": 3}

>  <energy>  (74) 
-8.81

>  <cluster_rmsd>  (74) 
1.93

>  <rmsd>  (74) 
271.6

>  <cluster>  (74) 
1

$$$$
DSYBMJCSYFRFMG-UHFFFAOYNA-N
     RDKit          3D

 67 72  0  0  0  0  0  0  0  0999 V2000
  146.1650   73.1320  220.7280 C   0  0  0  0  0  0  0  0  0  0  0  0
  146.2700   72.0770  219.7150 N   0  0  0  0  0  0  0  0  0  0  0  0
  145.4080   72.3480  218.5450 C   0  0  0  0  0  0  0  0  0  0  0  0
  144.7440   73.7600  218.6250 C   0  0  0  0  0  0  0  0  0  0  0  0
  143.2130   73.7160  218.5920 C   0  0  0  0  0  0  0  0  0  0  0  0
  142.7290   72.7030  219.5430 N   0  0  0  0  0  0  0  0  0  0  0  0
  141.8060   73.0380  220.6000 C   0  0  0  0  0  0  0  0  0  0  0  0
  141.1430   74.2240  220.5740 N   0  0  0  0  0  0  0  0  0  0  0  0
  140.2380   74.5370  221.5370 C   0  0  0  0  0  0  0  0  0  0  0  0
  139.5210   75.7910  221.4870 N   0  0  0  0  0  0  0  0  0  0  0  0
  139.0640   76.3640  220.2190 C   0  0  0  0  0  0  0  0  0  0  0  0
  139.9020   77.6040  219.9080 C   0  0  0  0  0  0  0  0  0  0  0  0
  140.0110   78.5200  221.1040 C   0  0  0  0  0  0  0  0  0  0  0  0
  140.4160   79.8500  220.9090 C   0  0  0  0  0  0  0  0  0  0  0  0
  140.5750   80.7090  221.9990 C   0  0  0  0  0  0  0  0  0  0  0  0
  140.3390   80.2460  223.2950 C   0  0  0  0  0  0  0  0  0  0  0  0
  139.9510   78.9210  223.5070 C   0  0  0  0  0  0  0  0  0  0  0  0
  139.7990   78.0430  222.4220 C   0  0  0  0  0  0  0  0  0  0  0  0
  139.3430   76.6250  222.6830 C   0  0  0  0  0  0  0  0  0  0  0  0
  140.0000   73.6470  222.5360 N   0  0  0  0  0  0  0  0  0  0  0  0
  140.6600   72.4610  222.5840 C   0  0  0  0  0  0  0  0  0  0  0  0
  140.3850   71.5200  223.6430 N   0  0  0  0  0  0  0  0  0  0  0  0
  139.6670   70.2680  223.3660 C   0  0  0  0  0  0  0  0  0  0  0  0
  138.6610   69.9910  224.4760 C   0  0  0  0  0  0  0  0  0  0  0  0
  139.3440   69.9930  225.8130 C   0  0  0  0  0  0  0  0  0  0  0  0
  138.8250   69.2210  226.8670 C   0  0  0  0  0  0  0  0  0  0  0  0
  139.4350   69.2400  228.1220 C   0  0  0  0  0  0  0  0  0  0  0  0
  140.5630   70.0350  228.3410 C   0  0  0  0  0  0  0  0  0  0  0  0
  141.0730   70.8260  227.3060 C   0  0  0  0  0  0  0  0  0  0  0  0
  140.4690   70.8170  226.0390 C   0  0  0  0  0  0  0  0  0  0  0  0
  141.0080   71.7320  224.9630 C   0  0  0  0  0  0  0  0  0  0  0  0
  141.5590   72.1640  221.6100 N   0  0  0  0  0  0  0  0  0  0  0  0
  143.2580   71.3320  219.4590 C   0  0  0  0  0  0  0  0  0  0  0  0
  144.3730   71.2110  218.4090 C   0  0  0  0  0  0  0  0  0  0  0  0
  146.2097   72.6829  221.7311 H   0  0  0  0  0  0  0  0  0  0  0  0
  146.9970   73.8412  220.6064 H   0  0  0  0  0  0  0  0  0  0  0  0
  145.2095   73.6633  220.6064 H   0  0  0  0  0  0  0  0  0  0  0  0
  146.0050   71.1640  220.1520 H   0  0  0  0  0  0  0  0  0  0  0  0
  146.0259   72.3675  217.6352 H   0  0  0  0  0  0  0  0  0  0  0  0
  145.0587   74.2405  219.5631 H   0  0  0  0  0  0  0  0  0  0  0  0
  145.0715   74.3232  217.7387 H   0  0  0  0  0  0  0  0  0  0  0  0
  142.8121   74.7016  218.8711 H   0  0  0  0  0  0  0  0  0  0  0  0
  142.8762   73.4560  217.5776 H   0  0  0  0  0  0  0  0  0  0  0  0
  139.1855   75.6243  219.4140 H   0  0  0  0  0  0  0  0  0  0  0  0
  138.0020   76.6402  220.2950 H   0  0  0  0  0  0  0  0  0  0  0  0
  140.9118   77.2859  219.6096 H   0  0  0  0  0  0  0  0  0  0  0  0
  139.4067   78.1575  219.0967 H   0  0  0  0  0  0  0  0  0  0  0  0
  140.6095   80.2182  219.8907 H   0  0  0  0  0  0  0  0  0  0  0  0
  140.8865   81.7513  221.8362 H   0  0  0  0  0  0  0  0  0  0  0  0
  140.4589   80.9263  224.1510 H   0  0  0  0  0  0  0  0  0  0  0  0
  139.7634   78.5633  224.5302 H   0  0  0  0  0  0  0  0  0  0  0  0
  139.9343   76.2023  223.5086 H   0  0  0  0  0  0  0  0  0  0  0  0
  138.2750   76.6410  222.9458 H   0  0  0  0  0  0  0  0  0  0  0  0
  139.1364   70.3564  222.4065 H   0  0  0  0  0  0  0  0  0  0  0  0
  140.3891   69.4396  223.3165 H   0  0  0  0  0  0  0  0  0  0  0  0
  137.8846   70.7701  224.4643 H   0  0  0  0  0  0  0  0  0  0  0  0
  138.2073   69.0031  224.3083 H   0  0  0  0  0  0  0  0  0  0  0  0
  137.9332   68.5986  226.7016 H   0  0  0  0  0  0  0  0  0  0  0  0
  139.0272   68.6281  228.9401 H   0  0  0  0  0  0  0  0  0  0  0  0
  141.0500   70.0389  229.3273 H   0  0  0  0  0  0  0  0  0  0  0  0
  141.9538   71.4597  227.4864 H   0  0  0  0  0  0  0  0  0  0  0  0
  140.8285   72.7731  225.2694 H   0  0  0  0  0  0  0  0  0  0  0  0
  142.0794   71.5074  224.8546 H   0  0  0  0  0  0  0  0  0  0  0  0
  143.6621   71.0460  220.4413 H   0  0  0  0  0  0  0  0  0  0  0  0
  142.4346   70.6668  219.1598 H   0  0  0  0  0  0  0  0  0  0  0  0
  144.8839   70.2457  218.5405 H   0  0  0  0  0  0  0  0  0  0  0  0
  143.9149   71.2806  217.4114 H   0  0  0  0  0  0  0  0  0  0  0  0
  1  2  1  0
  2  3  1  0
  3  4  1  0
  4  5  1  0
  5  6  1  0
  6  7  1  0
  7  8  2  0
  8  9  1  0
  9 10  1  0
 10 11  1  0
 11 12  1  0
 12 13  1  0
 13 14  2  0
 14 15  1  0
 15 16  2  0
 16 17  1  0
 17 18  2  0
 18 19  1  0
  9 20  2  0
 20 21  1  0
 21 22  1  0
 22 23  1  0
 23 24  1  0
 24 25  1  0
 25 26  2  0
 26 27  1  0
 27 28  2  0
 28 29  1  0
 29 30  2  0
 30 31  1  0
 21 32  2  0
  6 33  1  0
 33 34  1  0
 34  3  1  0
 32  7  1  0
 19 10  1  0
 31 22  1  0
 18 13  1  0
 30 25  1  0
  1 35  1  0
  1 36  1  0
  1 37  1  0
  2 38  1  0
  3 39  1  0
  4 40  1  0
  4 41  1  0
  5 42  1  0
  5 43  1  0
 11 44  1  0
 11 45  1  0
 12 46  1  0
 12 47  1  0
 14 48  1  0
 15 49  1  0
 16 50  1  0
 17 51  1  0
 19 52  1  0
 19 53  1  0
 23 54  1  0
 23 55  1  0
 24 56  1  0
 24 57  1  0
 26 58  1  0
 27 59  1  0
 28 60  1  0
 29 61  1  0
 31 62  1  0
 31 63  1  0
 33 64  1  0
 33 65  1  0
 34 66  1  0
 34 67  1  0
M  END
>  <UniqueID>  (75) 
60

>  <SMILES>  (75) 
CNC1CCN(c2nc(N3CCc4ccccc4C3)nc(N3CCc4ccccc4C3)n2)CC1

>  <Energy>  (75) 
81.82523011856723

>  <Genealogy>  (75) 
CNC1CCN(c2nc(N3CCc4ccccc4C3)nc(N3CCc4ccccc4C3)n2)CC1 (3D coordinates assigned)
CNC1CCN(c2nc(N3CCc4ccccc4C3)nc(N3CCc4ccccc4C3)n2)CC1 (nonaromatic ring conformer: 81.82523011856723 kcal/mol)

>  <smiles>  (75) 
CNC1CCN(c2nc(N3CCc4ccccc4C3)nc(N3CCc4ccccc4C3)n2)CC1

>  <score_type>  (75) 
oracle

>  <origin>  (75) 
autodockgpu

>  <m_score__min__energy>  (75) 
-8.9900000000000002

>  <m_primary>  (75) 
energy

>  <meeko>  (75) 
{"free_energy": -8.83, "intermolecular_energy": -10.03, "internal_energy": -1.03, "cluster_size": 18, "cluster_id": 1, "rank_in_cluster": 10}

>  <energy>  (75) 
-8.69

>  <cluster_rmsd>  (75) 
1.0

>  <rmsd>  (75) 
271.58

>  <cluster>  (75) 
1

$$$$
DSYBMJCSYFRFMG-UHFFFAOYNA-N
     RDKit          3D

 67 72  0  0  0  0  0  0  0  0999 V2000
  141.0980   67.8170  227.0270 C   0  0  0  0  0  0  0  0  0  0  0  0
  140.7580   68.4400  225.7440 N   0  0  0  0  0  0  0  0  0  0  0  0
  139.5520   69.2870  225.8450 C   0  0  0  0  0  0  0  0  0  0  0  0
  138.7640   69.3420  224.4970 C   0  0  0  0  0  0  0  0  0  0  0  0
  138.5990   70.7620  223.9460 C   0  0  0  0  0  0  0  0  0  0  0  0
  139.8950   71.4580  223.9830 N   0  0  0  0  0  0  0  0  0  0  0  0
  140.4830   72.0250  222.7940 C   0  0  0  0  0  0  0  0  0  0  0  0
  141.0050   71.2120  221.8380 N   0  0  0  0  0  0  0  0  0  0  0  0
  141.5240   71.7260  220.6930 C   0  0  0  0  0  0  0  0  0  0  0  0
  142.0560   70.8520  219.6730 N   0  0  0  0  0  0  0  0  0  0  0  0
  141.3130   69.6800  219.2030 C   0  0  0  0  0  0  0  0  0  0  0  0
  142.0160   68.4180  219.7030 C   0  0  0  0  0  0  0  0  0  0  0  0
  143.5030   68.4660  219.4450 C   0  0  0  0  0  0  0  0  0  0  0  0
  144.2430   67.2740  219.4950 C   0  0  0  0  0  0  0  0  0  0  0  0
  145.6280   67.2920  219.3110 C   0  0  0  0  0  0  0  0  0  0  0  0
  146.2890   68.5010  219.0850 C   0  0  0  0  0  0  0  0  0  0  0  0
  145.5690   69.6980  219.0500 C   0  0  0  0  0  0  0  0  0  0  0  0
  144.1790   69.6970  219.2450 C   0  0  0  0  0  0  0  0  0  0  0  0
  143.4250   71.0050  219.1630 C   0  0  0  0  0  0  0  0  0  0  0  0
  141.5160   73.0730  220.5100 N   0  0  0  0  0  0  0  0  0  0  0  0
  141.0060   73.9020  221.4570 C   0  0  0  0  0  0  0  0  0  0  0  0
  140.9910   75.3290  221.2400 N   0  0  0  0  0  0  0  0  0  0  0  0
  141.1740   75.8840  219.8920 C   0  0  0  0  0  0  0  0  0  0  0  0
  142.0850   77.1040  219.9530 C   0  0  0  0  0  0  0  0  0  0  0  0
  141.5510   78.1070  220.9340 C   0  0  0  0  0  0  0  0  0  0  0  0
  141.8240   79.4740  220.7580 C   0  0  0  0  0  0  0  0  0  0  0  0
  141.3570   80.4120  221.6810 C   0  0  0  0  0  0  0  0  0  0  0  0
  140.6220   79.9930  222.7930 C   0  0  0  0  0  0  0  0  0  0  0  0
  140.3650   78.6330  222.9910 C   0  0  0  0  0  0  0  0  0  0  0  0
  140.8290   77.6790  222.0700 C   0  0  0  0  0  0  0  0  0  0  0  0
  140.5880   76.2130  222.3490 C   0  0  0  0  0  0  0  0  0  0  0  0
  140.4890   73.3690  222.5950 N   0  0  0  0  0  0  0  0  0  0  0  0
  140.6420   71.5120  225.2500 C   0  0  0  0  0  0  0  0  0  0  0  0
  139.9610   70.6860  226.3520 C   0  0  0  0  0  0  0  0  0  0  0  0
  140.7483   68.4578  227.8499 H   0  0  0  0  0  0  0  0  0  0  0  0
  140.6120   66.8326  227.0968 H   0  0  0  0  0  0  0  0  0  0  0  0
  142.1888   67.6932  227.0968 H   0  0  0  0  0  0  0  0  0  0  0  0
  140.6100   67.6860  225.0330 H   0  0  0  0  0  0  0  0  0  0  0  0
  138.8560   68.8428  226.5718 H   0  0  0  0  0  0  0  0  0  0  0  0
  139.3048   68.7397  223.7522 H   0  0  0  0  0  0  0  0  0  0  0  0
  137.7550   68.9511  224.6946 H   0  0  0  0  0  0  0  0  0  0  0  0
  138.2392   70.7126  222.9077 H   0  0  0  0  0  0  0  0  0  0  0  0
  137.8711   71.3110  224.5614 H   0  0  0  0  0  0  0  0  0  0  0  0
  140.2860   69.7114  219.5958 H   0  0  0  0  0  0  0  0  0  0  0  0
  141.2765   69.6768  218.1036 H   0  0  0  0  0  0  0  0  0  0  0  0
  141.8452   68.3201  220.7852 H   0  0  0  0  0  0  0  0  0  0  0  0
  141.6017   67.5568  219.1584 H   0  0  0  0  0  0  0  0  0  0  0  0
  143.7289   66.3193  219.6803 H   0  0  0  0  0  0  0  0  0  0  0  0
  146.1986   66.3521  219.3443 H   0  0  0  0  0  0  0  0  0  0  0  0
  147.3786   68.5111  218.9342 H   0  0  0  0  0  0  0  0  0  0  0  0
  146.0948   70.6470  218.8685 H   0  0  0  0  0  0  0  0  0  0  0  0
  143.9507   71.7623  219.7631 H   0  0  0  0  0  0  0  0  0  0  0  0
  143.3754   71.3174  218.1094 H   0  0  0  0  0  0  0  0  0  0  0  0
  141.6284   75.1216  219.2422 H   0  0  0  0  0  0  0  0  0  0  0  0
  140.1957   76.1823  219.4872 H   0  0  0  0  0  0  0  0  0  0  0  0
  143.0912   76.7897  220.2674 H   0  0  0  0  0  0  0  0  0  0  0  0
  142.1281   77.5675  218.9564 H   0  0  0  0  0  0  0  0  0  0  0  0
  142.4090   79.8072  219.8881 H   0  0  0  0  0  0  0  0  0  0  0  0
  141.5679   81.4814  221.5326 H   0  0  0  0  0  0  0  0  0  0  0  0
  140.2451   80.7339  223.5134 H   0  0  0  0  0  0  0  0  0  0  0  0
  139.7955   78.3077  223.8741 H   0  0  0  0  0  0  0  0  0  0  0  0
  141.1602   75.9305  223.2450 H   0  0  0  0  0  0  0  0  0  0  0  0
  139.5045   76.0841  222.4880 H   0  0  0  0  0  0  0  0  0  0  0  0
  141.6546   71.1160  225.0830 H   0  0  0  0  0  0  0  0  0  0  0  0
  140.6760   72.5603  225.5814 H   0  0  0  0  0  0  0  0  0  0  0  0
  140.6593   70.5701  227.1940 H   0  0  0  0  0  0  0  0  0  0  0  0
  139.0504   71.2171  226.6660 H   0  0  0  0  0  0  0  0  0  0  0  0
  1  2  1  0
  2  3  1  0
  3  4  1  0
  4  5  1  0
  5  6  1  0
  6  7  1  0
  7  8  2  0
  8  9  1  0
  9 10  1  0
 10 11  1  0
 11 12  1  0
 12 13  1  0
 13 14  2  0
 14 15  1  0
 15 16  2  0
 16 17  1  0
 17 18  2  0
 18 19  1  0
  9 20  2  0
 20 21  1  0
 21 22  1  0
 22 23  1  0
 23 24  1  0
 24 25  1  0
 25 26  2  0
 26 27  1  0
 27 28  2  0
 28 29  1  0
 29 30  2  0
 30 31  1  0
 21 32  2  0
  6 33  1  0
 33 34  1  0
 34  3  1  0
 32  7  1  0
 19 10  1  0
 31 22  1  0
 18 13  1  0
 30 25  1  0
  1 35  1  0
  1 36  1  0
  1 37  1  0
  2 38  1  0
  3 39  1  0
  4 40  1  0
  4 41  1  0
  5 42  1  0
  5 43  1  0
 11 44  1  0
 11 45  1  0
 12 46  1  0
 12 47  1  0
 14 48  1  0
 15 49  1  0
 16 50  1  0
 17 51  1  0
 19 52  1  0
 19 53  1  0
 23 54  1  0
 23 55  1  0
 24 56  1  0
 24 57  1  0
 26 58  1  0
 27 59  1  0
 28 60  1  0
 29 61  1  0
 31 62  1  0
 31 63  1  0
 33 64  1  0
 33 65  1  0
 34 66  1  0
 34 67  1  0
M  END
>  <UniqueID>  (76) 
60

>  <SMILES>  (76) 
CNC1CCN(c2nc(N3CCc4ccccc4C3)nc(N3CCc4ccccc4C3)n2)CC1

>  <Energy>  (76) 
81.82523011856723

>  <Genealogy>  (76) 
CNC1CCN(c2nc(N3CCc4ccccc4C3)nc(N3CCc4ccccc4C3)n2)CC1 (3D coordinates assigned)
CNC1CCN(c2nc(N3CCc4ccccc4C3)nc(N3CCc4ccccc4C3)n2)CC1 (nonaromatic ring conformer: 81.82523011856723 kcal/mol)

>  <smiles>  (76) 
CNC1CCN(c2nc(N3CCc4ccccc4C3)nc(N3CCc4ccccc4C3)n2)CC1

>  <score_type>  (76) 
oracle

>  <origin>  (76) 
autodockgpu

>  <m_score__min__energy>  (76) 
-8.9900000000000002

>  <m_primary>  (76) 
energy

>  <meeko>  (76) 
{"free_energy": -8.66, "intermolecular_energy": -9.86, "internal_energy": -0.97, "cluster_size": 2, "cluster_id": 2, "rank_in_cluster": 2}

>  <energy>  (76) 
-8.68

>  <cluster_rmsd>  (76) 
1.01

>  <rmsd>  (76) 
271.6

>  <cluster>  (76) 
1

$$$$
DSYBMJCSYFRFMG-UHFFFAOYNA-N
     RDKit          3D

 67 72  0  0  0  0  0  0  0  0999 V2000
  145.9510   73.8130  220.8620 C   0  0  0  0  0  0  0  0  0  0  0  0
  146.3830   72.6000  220.1600 N   0  0  0  0  0  0  0  0  0  0  0  0
  145.5530   72.3270  218.9690 C   0  0  0  0  0  0  0  0  0  0  0  0
  144.7270   73.5800  218.5340 C   0  0  0  0  0  0  0  0  0  0  0  0
  143.2140   73.3340  218.5150 C   0  0  0  0  0  0  0  0  0  0  0  0
  142.8060   72.6740  219.7650 N   0  0  0  0  0  0  0  0  0  0  0  0
  141.8010   73.2440  220.6270 C   0  0  0  0  0  0  0  0  0  0  0  0
  141.5700   74.5830  220.6120 N   0  0  0  0  0  0  0  0  0  0  0  0
  140.5980   75.1320  221.3860 C   0  0  0  0  0  0  0  0  0  0  0  0
  140.3450   76.5540  221.3450 N   0  0  0  0  0  0  0  0  0  0  0  0
  140.4940   77.3250  220.1080 C   0  0  0  0  0  0  0  0  0  0  0  0
  141.7210   78.2270  220.2350 C   0  0  0  0  0  0  0  0  0  0  0  0
  141.7310   78.9780  221.5460 C   0  0  0  0  0  0  0  0  0  0  0  0
  142.5590   80.1040  221.6810 C   0  0  0  0  0  0  0  0  0  0  0  0
  142.6280   80.7900  222.8960 C   0  0  0  0  0  0  0  0  0  0  0  0
  141.8790   80.3540  223.9900 C   0  0  0  0  0  0  0  0  0  0  0  0
  141.0630   79.2260  223.8770 C   0  0  0  0  0  0  0  0  0  0  0  0
  140.9920   78.5190  222.6660 C   0  0  0  0  0  0  0  0  0  0  0  0
  140.0710   77.3240  222.5660 C   0  0  0  0  0  0  0  0  0  0  0  0
  139.8510   74.3230  222.1830 N   0  0  0  0  0  0  0  0  0  0  0  0
  140.0730   72.9830  222.2180 C   0  0  0  0  0  0  0  0  0  0  0  0
  139.2610   72.1350  223.0580 N   0  0  0  0  0  0  0  0  0  0  0  0
  139.8390   71.4750  224.2370 C   0  0  0  0  0  0  0  0  0  0  0  0
  139.3230   70.0440  224.3350 C   0  0  0  0  0  0  0  0  0  0  0  0
  137.8210   70.0290  224.3300 C   0  0  0  0  0  0  0  0  0  0  0  0
  137.1290   68.9910  224.9760 C   0  0  0  0  0  0  0  0  0  0  0  0
  135.7340   68.9510  224.9500 C   0  0  0  0  0  0  0  0  0  0  0  0
  135.0170   69.9410  224.2730 C   0  0  0  0  0  0  0  0  0  0  0  0
  135.6970   70.9650  223.6070 C   0  0  0  0  0  0  0  0  0  0  0  0
  137.1000   71.0170  223.6240 C   0  0  0  0  0  0  0  0  0  0  0  0
  137.8040   72.1020  222.8400 C   0  0  0  0  0  0  0  0  0  0  0  0
  141.0480   72.4520  221.4350 N   0  0  0  0  0  0  0  0  0  0  0  0
  143.4930   71.4400  220.1790 C   0  0  0  0  0  0  0  0  0  0  0  0
  144.6640   71.0960  219.2470 C   0  0  0  0  0  0  0  0  0  0  0  0
  146.0095   73.6486  221.9481 H   0  0  0  0  0  0  0  0  0  0  0  0
  146.6058   74.6514  220.5822 H   0  0  0  0  0  0  0  0  0  0  0  0
  144.9136   74.0488  220.5822 H   0  0  0  0  0  0  0  0  0  0  0  0
  146.3340   71.7920  220.8250 H   0  0  0  0  0  0  0  0  0  0  0  0
  146.2076   72.0987  218.1149 H   0  0  0  0  0  0  0  0  0  0  0  0
  144.9385   74.3987  219.2375 H   0  0  0  0  0  0  0  0  0  0  0  0
  145.0291   73.8276  217.5057 H   0  0  0  0  0  0  0  0  0  0  0  0
  142.6879   74.2953  218.4199 H   0  0  0  0  0  0  0  0  0  0  0  0
  142.9593   72.6890  217.6611 H   0  0  0  0  0  0  0  0  0  0  0  0
  140.6258   76.6389  219.2583 H   0  0  0  0  0  0  0  0  0  0  0  0
  139.5959   77.9371  219.9385 H   0  0  0  0  0  0  0  0  0  0  0  0
  142.6272   77.6065  220.1730 H   0  0  0  0  0  0  0  0  0  0  0  0
  141.6902   78.9637  219.4187 H   0  0  0  0  0  0  0  0  0  0  0  0
  143.1572   80.4482  220.8245 H   0  0  0  0  0  0  0  0  0  0  0  0
  143.2738   81.6754  222.9906 H   0  0  0  0  0  0  0  0  0  0  0  0
  141.9314   80.9000  224.9435 H   0  0  0  0  0  0  0  0  0  0  0  0
  140.4725   78.8895  224.7419 H   0  0  0  0  0  0  0  0  0  0  0  0
  140.2237   76.6768  223.4422 H   0  0  0  0  0  0  0  0  0  0  0  0
  139.0316   77.6823  222.5307 H   0  0  0  0  0  0  0  0  0  0  0  0
  140.9353   71.4622  224.1471 H   0  0  0  0  0  0  0  0  0  0  0  0
  139.5468   72.0283  225.1417 H   0  0  0  0  0  0  0  0  0  0  0  0
  139.6944   69.4649  223.4767 H   0  0  0  0  0  0  0  0  0  0  0  0
  139.6818   69.5982  225.2745 H   0  0  0  0  0  0  0  0  0  0  0  0
  137.6893   68.2059  225.5049 H   0  0  0  0  0  0  0  0  0  0  0  0
  135.1982   68.1389  225.4632 H   0  0  0  0  0  0  0  0  0  0  0  0
  133.9174   69.9147  224.2641 H   0  0  0  0  0  0  0  0  0  0  0  0
  135.1287   71.7357  223.0656 H   0  0  0  0  0  0  0  0  0  0  0  0
  137.6161   71.9352  221.7691 H   0  0  0  0  0  0  0  0  0  0  0  0
  137.4032   73.0649  223.1894 H   0  0  0  0  0  0  0  0  0  0  0  0
  143.8788   71.5734  221.2004 H   0  0  0  0  0  0  0  0  0  0  0  0
  142.7675   70.6144  220.1337 H   0  0  0  0  0  0  0  0  0  0  0  0
  145.2764   70.3131  219.7181 H   0  0  0  0  0  0  0  0  0  0  0  0
  144.2494   70.7491  218.2890 H   0  0  0  0  0  0  0  0  0  0  0  0
  1  2  1  0
  2  3  1  0
  3  4  1  0
  4  5  1  0
  5  6  1  0
  6  7  1  0
  7  8  2  0
  8  9  1  0
  9 10  1  0
 10 11  1  0
 11 12  1  0
 12 13  1  0
 13 14  2  0
 14 15  1  0
 15 16  2  0
 16 17  1  0
 17 18  2  0
 18 19  1  0
  9 20  2  0
 20 21  1  0
 21 22  1  0
 22 23  1  0
 23 24  1  0
 24 25  1  0
 25 26  2  0
 26 27  1  0
 27 28  2  0
 28 29  1  0
 29 30  2  0
 30 31  1  0
 21 32  2  0
  6 33  1  0
 33 34  1  0
 34  3  1  0
 32  7  1  0
 19 10  1  0
 31 22  1  0
 18 13  1  0
 30 25  1  0
  1 35  1  0
  1 36  1  0
  1 37  1  0
  2 38  1  0
  3 39  1  0
  4 40  1  0
  4 41  1  0
  5 42  1  0
  5 43  1  0
 11 44  1  0
 11 45  1  0
 12 46  1  0
 12 47  1  0
 14 48  1  0
 15 49  1  0
 16 50  1  0
 17 51  1  0
 19 52  1  0
 19 53  1  0
 23 54  1  0
 23 55  1  0
 24 56  1  0
 24 57  1  0
 26 58  1  0
 27 59  1  0
 28 60  1  0
 29 61  1  0
 31 62  1  0
 31 63  1  0
 33 64  1  0
 33 65  1  0
 34 66  1  0
 34 67  1  0
M  END
>  <UniqueID>  (77) 
60

>  <SMILES>  (77) 
CNC1CCN(c2nc(N3CCc4ccccc4C3)nc(N3CCc4ccccc4C3)n2)CC1

>  <Energy>  (77) 
81.82523011856723

>  <Genealogy>  (77) 
CNC1CCN(c2nc(N3CCc4ccccc4C3)nc(N3CCc4ccccc4C3)n2)CC1 (3D coordinates assigned)
CNC1CCN(c2nc(N3CCc4ccccc4C3)nc(N3CCc4ccccc4C3)n2)CC1 (nonaromatic ring conformer: 81.82523011856723 kcal/mol)

>  <smiles>  (77) 
CNC1CCN(c2nc(N3CCc4ccccc4C3)nc(N3CCc4ccccc4C3)n2)CC1

>  <score_type>  (77) 
oracle

>  <origin>  (77) 
autodockgpu

>  <m_score__min__energy>  (77) 
-8.9900000000000002

>  <m_primary>  (77) 
energy

>  <meeko>  (77) 
{"free_energy": -8.83, "intermolecular_energy": -10.02, "internal_energy": -1.06, "cluster_size": 18, "cluster_id": 1, "rank_in_cluster": 12}

>  <energy>  (77) 
-8.65

>  <cluster_rmsd>  (77) 
0.68

>  <rmsd>  (77) 
271.62

>  <cluster>  (77) 
1

$$$$
DSYBMJCSYFRFMG-UHFFFAOYNA-N
     RDKit          3D

 67 72  0  0  0  0  0  0  0  0999 V2000
  146.1650   73.3030  220.4940 C   0  0  0  0  0  0  0  0  0  0  0  0
  146.2860   72.1800  219.5580 N   0  0  0  0  0  0  0  0  0  0  0  0
  145.3630   72.3150  218.4120 C   0  0  0  0  0  0  0  0  0  0  0  0
  144.6230   73.6900  218.4190 C   0  0  0  0  0  0  0  0  0  0  0  0
  143.0960   73.5590  218.4580 C   0  0  0  0  0  0  0  0  0  0  0  0
  142.7110   72.5960  219.5010 N   0  0  0  0  0  0  0  0  0  0  0  0
  141.8140   72.9580  220.5710 C   0  0  0  0  0  0  0  0  0  0  0  0
  141.1790   74.1590  220.5500 N   0  0  0  0  0  0  0  0  0  0  0  0
  140.2990   74.4990  221.5260 C   0  0  0  0  0  0  0  0  0  0  0  0
  139.6110   75.7690  221.4830 N   0  0  0  0  0  0  0  0  0  0  0  0
  139.1480   76.3490  220.2200 C   0  0  0  0  0  0  0  0  0  0  0  0
  140.0110   77.5660  219.8890 C   0  0  0  0  0  0  0  0  0  0  0  0
  140.1620   78.4840  221.0790 C   0  0  0  0  0  0  0  0  0  0  0  0
  140.5970   79.8030  220.8710 C   0  0  0  0  0  0  0  0  0  0  0  0
  140.7940   80.6620  221.9550 C   0  0  0  0  0  0  0  0  0  0  0  0
  140.5690   80.2100  223.2570 C   0  0  0  0  0  0  0  0  0  0  0  0
  140.1520   78.8960  223.4810 C   0  0  0  0  0  0  0  0  0  0  0  0
  139.9610   78.0180  222.4030 C   0  0  0  0  0  0  0  0  0  0  0  0
  139.4740   76.6130  222.6780 C   0  0  0  0  0  0  0  0  0  0  0  0
  140.0550   73.6190  222.5330 N   0  0  0  0  0  0  0  0  0  0  0  0
  140.6860   72.4170  222.5750 C   0  0  0  0  0  0  0  0  0  0  0  0
  140.4050   71.4870  223.6430 N   0  0  0  0  0  0  0  0  0  0  0  0
  139.6550   70.2510  223.3820 C   0  0  0  0  0  0  0  0  0  0  0  0
  138.6580   70.0020  224.5090 C   0  0  0  0  0  0  0  0  0  0  0  0
  139.3610   69.9940  225.8360 C   0  0  0  0  0  0  0  0  0  0  0  0
  138.8400   69.2390  226.9000 C   0  0  0  0  0  0  0  0  0  0  0  0
  139.4700   69.2490  228.1460 C   0  0  0  0  0  0  0  0  0  0  0  0
  140.6180   70.0190  228.3440 C   0  0  0  0  0  0  0  0  0  0  0  0
  141.1310   70.7930  227.2990 C   0  0  0  0  0  0  0  0  0  0  0  0
  140.5080   70.7920  226.0400 C   0  0  0  0  0  0  0  0  0  0  0  0
  141.0520   71.6900  224.9520 C   0  0  0  0  0  0  0  0  0  0  0  0
  141.5620   72.0940  221.5880 N   0  0  0  0  0  0  0  0  0  0  0  0
  143.3150   71.2530  219.4920 C   0  0  0  0  0  0  0  0  0  0  0  0
  144.3910   71.1160  218.4050 C   0  0  0  0  0  0  0  0  0  0  0  0
  146.2056   72.9258  221.5265 H   0  0  0  0  0  0  0  0  0  0  0  0
  146.9923   74.0089  220.3287 H   0  0  0  0  0  0  0  0  0  0  0  0
  145.2063   73.8165  220.3287 H   0  0  0  0  0  0  0  0  0  0  0  0
  146.0900   71.2900  220.0740 H   0  0  0  0  0  0  0  0  0  0  0  0
  145.9410   72.3000  217.4762 H   0  0  0  0  0  0  0  0  0  0  0  0
  144.9472   74.2560  219.3047 H   0  0  0  0  0  0  0  0  0  0  0  0
  144.8813   74.2027  217.4807 H   0  0  0  0  0  0  0  0  0  0  0  0
  142.6498   74.5392  218.6818 H   0  0  0  0  0  0  0  0  0  0  0  0
  142.7342   73.2047  217.4815 H   0  0  0  0  0  0  0  0  0  0  0  0
  139.2374   75.6032  219.4164 H   0  0  0  0  0  0  0  0  0  0  0  0
  138.0949   76.6528  220.3130 H   0  0  0  0  0  0  0  0  0  0  0  0
  141.0076   77.2217  219.5756 H   0  0  0  0  0  0  0  0  0  0  0  0
  139.5166   78.1280  219.0829 H   0  0  0  0  0  0  0  0  0  0  0  0
  140.7838   80.1620  219.8482 H   0  0  0  0  0  0  0  0  0  0  0  0
  141.1269   81.6961  221.7826 H   0  0  0  0  0  0  0  0  0  0  0  0
  140.7205   80.8903  224.1080 H   0  0  0  0  0  0  0  0  0  0  0  0
  139.9722   78.5472  224.5086 H   0  0  0  0  0  0  0  0  0  0  0  0
  140.0682   76.1791  223.4958 H   0  0  0  0  0  0  0  0  0  0  0  0
  138.4111   76.6572  222.9580 H   0  0  0  0  0  0  0  0  0  0  0  0
  139.1128   70.3474  222.4298 H   0  0  0  0  0  0  0  0  0  0  0  0
  140.3570   69.4060  223.3258 H   0  0  0  0  0  0  0  0  0  0  0  0
  137.8998   70.7989  224.5051 H   0  0  0  0  0  0  0  0  0  0  0  0
  138.1788   69.0243  224.3526 H   0  0  0  0  0  0  0  0  0  0  0  0
  137.9314   68.6371  226.7508 H   0  0  0  0  0  0  0  0  0  0  0  0
  139.0614   68.6495  228.9728 H   0  0  0  0  0  0  0  0  0  0  0  0
  141.1191   70.0165  229.3232 H   0  0  0  0  0  0  0  0  0  0  0  0
  142.0287   71.4070  227.4638 H   0  0  0  0  0  0  0  0  0  0  0  0
  140.9011   72.7362  225.2563 H   0  0  0  0  0  0  0  0  0  0  0  0
  142.1162   71.4404  224.8288 H   0  0  0  0  0  0  0  0  0  0  0  0
  143.7746   71.0633  220.4732 H   0  0  0  0  0  0  0  0  0  0  0  0
  142.5201   70.5233  219.2785 H   0  0  0  0  0  0  0  0  0  0  0  0
  144.9620   70.1927  218.5825 H   0  0  0  0  0  0  0  0  0  0  0  0
  143.8892   71.0861  217.4266 H   0  0  0  0  0  0  0  0  0  0  0  0
  1  2  1  0
  2  3  1  0
  3  4  1  0
  4  5  1  0
  5  6  1  0
  6  7  1  0
  7  8  2  0
  8  9  1  0
  9 10  1  0
 10 11  1  0
 11 12  1  0
 12 13  1  0
 13 14  2  0
 14 15  1  0
 15 16  2  0
 16 17  1  0
 17 18  2  0
 18 19  1  0
  9 20  2  0
 20 21  1  0
 21 22  1  0
 22 23  1  0
 23 24  1  0
 24 25  1  0
 25 26  2  0
 26 27  1  0
 27 28  2  0
 28 29  1  0
 29 30  2  0
 30 31  1  0
 21 32  2  0
  6 33  1  0
 33 34  1  0
 34  3  1  0
 32  7  1  0
 19 10  1  0
 31 22  1  0
 18 13  1  0
 30 25  1  0
  1 35  1  0
  1 36  1  0
  1 37  1  0
  2 38  1  0
  3 39  1  0
  4 40  1  0
  4 41  1  0
  5 42  1  0
  5 43  1  0
 11 44  1  0
 11 45  1  0
 12 46  1  0
 12 47  1  0
 14 48  1  0
 15 49  1  0
 16 50  1  0
 17 51  1  0
 19 52  1  0
 19 53  1  0
 23 54  1  0
 23 55  1  0
 24 56  1  0
 24 57  1  0
 26 58  1  0
 27 59  1  0
 28 60  1  0
 29 61  1  0
 31 62  1  0
 31 63  1  0
 33 64  1  0
 33 65  1  0
 34 66  1  0
 34 67  1  0
M  END
>  <UniqueID>  (78) 
60

>  <SMILES>  (78) 
CNC1CCN(c2nc(N3CCc4ccccc4C3)nc(N3CCc4ccccc4C3)n2)CC1

>  <Energy>  (78) 
81.82523011856723

>  <Genealogy>  (78) 
CNC1CCN(c2nc(N3CCc4ccccc4C3)nc(N3CCc4ccccc4C3)n2)CC1 (3D coordinates assigned)
CNC1CCN(c2nc(N3CCc4ccccc4C3)nc(N3CCc4ccccc4C3)n2)CC1 (nonaromatic ring conformer: 81.82523011856723 kcal/mol)

>  <smiles>  (78) 
CNC1CCN(c2nc(N3CCc4ccccc4C3)nc(N3CCc4ccccc4C3)n2)CC1

>  <score_type>  (78) 
oracle

>  <origin>  (78) 
autodockgpu

>  <m_score__min__energy>  (78) 
-8.9900000000000002

>  <m_primary>  (78) 
energy

>  <meeko>  (78) 
{"free_energy": -8.86, "intermolecular_energy": -10.06, "internal_energy": -1.03, "cluster_size": 18, "cluster_id": 1, "rank_in_cluster": 8}

>  <energy>  (78) 
-8.63

>  <cluster_rmsd>  (78) 
0.93

>  <rmsd>  (78) 
271.57

>  <cluster>  (78) 
1

$$$$
DSYBMJCSYFRFMG-UHFFFAOYNA-N
     RDKit          3D

 67 72  0  0  0  0  0  0  0  0999 V2000
  146.1070   73.4470  220.4410 C   0  0  0  0  0  0  0  0  0  0  0  0
  146.3150   72.3260  219.5170 N   0  0  0  0  0  0  0  0  0  0  0  0
  145.3670   72.3620  218.3850 C   0  0  0  0  0  0  0  0  0  0  0  0
  144.5600   73.6990  218.3410 C   0  0  0  0  0  0  0  0  0  0  0  0
  143.0430   73.4970  218.4170 C   0  0  0  0  0  0  0  0  0  0  0  0
  142.7240   72.5680  219.5120 N   0  0  0  0  0  0  0  0  0  0  0  0
  141.8290   72.9390  220.5820 C   0  0  0  0  0  0  0  0  0  0  0  0
  141.2040   74.1450  220.5590 N   0  0  0  0  0  0  0  0  0  0  0  0
  140.3260   74.4930  221.5350 C   0  0  0  0  0  0  0  0  0  0  0  0
  139.6480   75.7680  221.4890 N   0  0  0  0  0  0  0  0  0  0  0  0
  139.1810   76.3450  220.2260 C   0  0  0  0  0  0  0  0  0  0  0  0
  140.0520   77.5540  219.8850 C   0  0  0  0  0  0  0  0  0  0  0  0
  140.2170   78.4770  221.0690 C   0  0  0  0  0  0  0  0  0  0  0  0
  140.6610   79.7910  220.8530 C   0  0  0  0  0  0  0  0  0  0  0  0
  140.8710   80.6540  221.9320 C   0  0  0  0  0  0  0  0  0  0  0  0
  140.6500   80.2100  223.2370 C   0  0  0  0  0  0  0  0  0  0  0  0
  140.2240   78.9000  223.4700 C   0  0  0  0  0  0  0  0  0  0  0  0
  140.0200   78.0180  222.3970 C   0  0  0  0  0  0  0  0  0  0  0  0
  139.5240   76.6180  222.6810 C   0  0  0  0  0  0  0  0  0  0  0  0
  140.0750   73.6160  222.5430 N   0  0  0  0  0  0  0  0  0  0  0  0
  140.6970   72.4090  222.5870 C   0  0  0  0  0  0  0  0  0  0  0  0
  140.4090   71.4830  223.6560 N   0  0  0  0  0  0  0  0  0  0  0  0
  139.6320   70.2630  223.4010 C   0  0  0  0  0  0  0  0  0  0  0  0
  138.6430   70.0310  224.5370 C   0  0  0  0  0  0  0  0  0  0  0  0
  139.3600   70.0070  225.8570 C   0  0  0  0  0  0  0  0  0  0  0  0
  138.8350   69.2600  226.9260 C   0  0  0  0  0  0  0  0  0  0  0  0
  139.4770   69.2560  228.1650 C   0  0  0  0  0  0  0  0  0  0  0  0
  140.6430   70.0030  228.3520 C   0  0  0  0  0  0  0  0  0  0  0  0
  141.1600   70.7680  227.3030 C   0  0  0  0  0  0  0  0  0  0  0  0
  140.5240   70.7820  226.0510 C   0  0  0  0  0  0  0  0  0  0  0  0
  141.0740   71.6710  224.9580 C   0  0  0  0  0  0  0  0  0  0  0  0
  141.5710   72.0780  221.6000 N   0  0  0  0  0  0  0  0  0  0  0  0
  143.3920   71.2570  219.5550 C   0  0  0  0  0  0  0  0  0  0  0  0
  144.4540   71.1190  218.4550 C   0  0  0  0  0  0  0  0  0  0  0  0
  146.1742   73.0851  221.4776 H   0  0  0  0  0  0  0  0  0  0  0  0
  146.8785   74.2119  220.2690 H   0  0  0  0  0  0  0  0  0  0  0  0
  145.1124   73.8842  220.2690 H   0  0  0  0  0  0  0  0  0  0  0  0
  146.2080   71.4300  220.0480 H   0  0  0  0  0  0  0  0  0  0  0  0
  145.9291   72.3303  217.4400 H   0  0  0  0  0  0  0  0  0  0  0  0
  144.8718   74.3226  219.1918 H   0  0  0  0  0  0  0  0  0  0  0  0
  144.7759   74.1769  217.3740 H   0  0  0  0  0  0  0  0  0  0  0  0
  142.5536   74.4644  218.6032 H   0  0  0  0  0  0  0  0  0  0  0  0
  142.6816   73.0790  217.4659 H   0  0  0  0  0  0  0  0  0  0  0  0
  139.2599   75.5949  219.4253 H   0  0  0  0  0  0  0  0  0  0  0  0
  138.1305   76.6566  220.3232 H   0  0  0  0  0  0  0  0  0  0  0  0
  141.0442   77.2002  219.5681 H   0  0  0  0  0  0  0  0  0  0  0  0
  139.5572   78.1160  219.0792 H   0  0  0  0  0  0  0  0  0  0  0  0
  140.8449   80.1438  219.8275 H   0  0  0  0  0  0  0  0  0  0  0  0
  141.2110   81.6847  221.7528 H   0  0  0  0  0  0  0  0  0  0  0  0
  140.8116   80.8932  224.0838 H   0  0  0  0  0  0  0  0  0  0  0  0
  140.0474   78.5576  224.5003 H   0  0  0  0  0  0  0  0  0  0  0  0
  140.1195   76.1832  223.4973 H   0  0  0  0  0  0  0  0  0  0  0  0
  138.4631   76.6713  222.9669 H   0  0  0  0  0  0  0  0  0  0  0  0
  139.0816   70.3722  222.4549 H   0  0  0  0  0  0  0  0  0  0  0  0
  140.3167   69.4045  223.3360 H   0  0  0  0  0  0  0  0  0  0  0  0
  137.9001   70.8422  224.5425 H   0  0  0  0  0  0  0  0  0  0  0  0
  138.1435   69.0630  224.3839 H   0  0  0  0  0  0  0  0  0  0  0  0
  137.9137   68.6758  226.7851 H   0  0  0  0  0  0  0  0  0  0  0  0
  139.0647   68.6641  228.9954 H   0  0  0  0  0  0  0  0  0  0  0  0
  141.1544   69.9889  229.3258 H   0  0  0  0  0  0  0  0  0  0  0  0
  142.0716   71.3634  227.4591 H   0  0  0  0  0  0  0  0  0  0  0  0
  140.9472   72.7195  225.2654 H   0  0  0  0  0  0  0  0  0  0  0  0
  142.1316   71.4005  224.8228 H   0  0  0  0  0  0  0  0  0  0  0  0
  143.8773   71.1372  220.5348 H   0  0  0  0  0  0  0  0  0  0  0  0
  142.6299   70.4807  219.3922 H   0  0  0  0  0  0  0  0  0  0  0  0
  145.0722   70.2338  218.6651 H   0  0  0  0  0  0  0  0  0  0  0  0
  143.9370   71.0179  217.4894 H   0  0  0  0  0  0  0  0  0  0  0  0
  1  2  1  0
  2  3  1  0
  3  4  1  0
  4  5  1  0
  5  6  1  0
  6  7  1  0
  7  8  2  0
  8  9  1  0
  9 10  1  0
 10 11  1  0
 11 12  1  0
 12 13  1  0
 13 14  2  0
 14 15  1  0
 15 16  2  0
 16 17  1  0
 17 18  2  0
 18 19  1  0
  9 20  2  0
 20 21  1  0
 21 22  1  0
 22 23  1  0
 23 24  1  0
 24 25  1  0
 25 26  2  0
 26 27  1  0
 27 28  2  0
 28 29  1  0
 29 30  2  0
 30 31  1  0
 21 32  2  0
  6 33  1  0
 33 34  1  0
 34  3  1  0
 32  7  1  0
 19 10  1  0
 31 22  1  0
 18 13  1  0
 30 25  1  0
  1 35  1  0
  1 36  1  0
  1 37  1  0
  2 38  1  0
  3 39  1  0
  4 40  1  0
  4 41  1  0
  5 42  1  0
  5 43  1  0
 11 44  1  0
 11 45  1  0
 12 46  1  0
 12 47  1  0
 14 48  1  0
 15 49  1  0
 16 50  1  0
 17 51  1  0
 19 52  1  0
 19 53  1  0
 23 54  1  0
 23 55  1  0
 24 56  1  0
 24 57  1  0
 26 58  1  0
 27 59  1  0
 28 60  1  0
 29 61  1  0
 31 62  1  0
 31 63  1  0
 33 64  1  0
 33 65  1  0
 34 66  1  0
 34 67  1  0
M  END
>  <UniqueID>  (79) 
60

>  <SMILES>  (79) 
CNC1CCN(c2nc(N3CCc4ccccc4C3)nc(N3CCc4ccccc4C3)n2)CC1

>  <Energy>  (79) 
81.82523011856723

>  <Genealogy>  (79) 
CNC1CCN(c2nc(N3CCc4ccccc4C3)nc(N3CCc4ccccc4C3)n2)CC1 (3D coordinates assigned)
CNC1CCN(c2nc(N3CCc4ccccc4C3)nc(N3CCc4ccccc4C3)n2)CC1 (nonaromatic ring conformer: 81.82523011856723 kcal/mol)

>  <smiles>  (79) 
CNC1CCN(c2nc(N3CCc4ccccc4C3)nc(N3CCc4ccccc4C3)n2)CC1

>  <score_type>  (79) 
oracle

>  <origin>  (79) 
autodockgpu

>  <m_score__min__energy>  (79) 
-8.9900000000000002

>  <m_primary>  (79) 
energy

>  <meeko>  (79) 
{"free_energy": -8.88, "intermolecular_energy": -10.07, "internal_energy": -1.04, "cluster_size": 18, "cluster_id": 1, "rank_in_cluster": 4}

>  <energy>  (79) 
-8.7

>  <cluster_rmsd>  (79) 
0.0

>  <rmsd>  (79) 
271.23

>  <cluster>  (79) 
2

$$$$
DSYBMJCSYFRFMG-UHFFFAOYNA-N
     RDKit          3D

 67 72  0  0  0  0  0  0  0  0999 V2000
  145.8940   73.8280  220.8260 C   0  0  0  0  0  0  0  0  0  0  0  0
  146.3770   72.6160  220.1560 N   0  0  0  0  0  0  0  0  0  0  0  0
  145.5390   72.2580  218.9930 C   0  0  0  0  0  0  0  0  0  0  0  0
  144.6740   73.4640  218.5040 C   0  0  0  0  0  0  0  0  0  0  0  0
  143.1680   73.1790  218.5190 C   0  0  0  0  0  0  0  0  0  0  0  0
  142.7940   72.5760  219.8090 N   0  0  0  0  0  0  0  0  0  0  0  0
  141.7850   73.1660  220.6540 C   0  0  0  0  0  0  0  0  0  0  0  0
  141.5680   74.5070  220.6210 N   0  0  0  0  0  0  0  0  0  0  0  0
  140.5930   75.0740  221.3780 C   0  0  0  0  0  0  0  0  0  0  0  0
  140.3540   76.4980  221.3170 N   0  0  0  0  0  0  0  0  0  0  0  0
  140.5820   77.2640  220.0900 C   0  0  0  0  0  0  0  0  0  0  0  0
  141.8070   78.1570  220.2850 C   0  0  0  0  0  0  0  0  0  0  0  0
  141.7450   78.9120  221.5920 C   0  0  0  0  0  0  0  0  0  0  0  0
  142.5730   80.0310  221.7720 C   0  0  0  0  0  0  0  0  0  0  0  0
  142.5760   80.7210  222.9870 C   0  0  0  0  0  0  0  0  0  0  0  0
  141.7600   80.2950  224.0370 C   0  0  0  0  0  0  0  0  0  0  0  0
  140.9440   79.1730  223.8790 C   0  0  0  0  0  0  0  0  0  0  0  0
  140.9380   78.4620  222.6680 C   0  0  0  0  0  0  0  0  0  0  0  0
  140.0150   77.2740  222.5180 C   0  0  0  0  0  0  0  0  0  0  0  0
  139.8300   74.2810  222.1760 N   0  0  0  0  0  0  0  0  0  0  0  0
  140.0380   72.9400  222.2290 C   0  0  0  0  0  0  0  0  0  0  0  0
  139.2100   72.1100  223.0710 N   0  0  0  0  0  0  0  0  0  0  0  0
  139.7710   71.4520  224.2580 C   0  0  0  0  0  0  0  0  0  0  0  0
  139.2350   70.0290  224.3640 C   0  0  0  0  0  0  0  0  0  0  0  0
  137.7330   70.0340  224.3490 C   0  0  0  0  0  0  0  0  0  0  0  0
  137.0230   69.0100  224.9980 C   0  0  0  0  0  0  0  0  0  0  0  0
  135.6270   68.9890  224.9630 C   0  0  0  0  0  0  0  0  0  0  0  0
  134.9290   69.9830  224.2740 C   0  0  0  0  0  0  0  0  0  0  0  0
  135.6270   70.9930  223.6040 C   0  0  0  0  0  0  0  0  0  0  0  0
  137.0300   71.0260  223.6300 C   0  0  0  0  0  0  0  0  0  0  0  0
  137.7540   72.0950  222.8420 C   0  0  0  0  0  0  0  0  0  0  0  0
  141.0160   72.3910  221.4620 N   0  0  0  0  0  0  0  0  0  0  0  0
  143.5200   71.3850  220.2790 C   0  0  0  0  0  0  0  0  0  0  0  0
  144.6870   71.0210  219.3490 C   0  0  0  0  0  0  0  0  0  0  0  0
  145.9486   73.6909  221.9161 H   0  0  0  0  0  0  0  0  0  0  0  0
  146.5199   74.6835  220.5322 H   0  0  0  0  0  0  0  0  0  0  0  0
  144.8512   74.0186  220.5322 H   0  0  0  0  0  0  0  0  0  0  0  0
  146.3850   71.8300  220.8480 H   0  0  0  0  0  0  0  0  0  0  0  0
  146.1883   72.0014  218.1429 H   0  0  0  0  0  0  0  0  0  0  0  0
  144.8726   74.3242  219.1602 H   0  0  0  0  0  0  0  0  0  0  0  0
  144.9562   73.6636  217.4597 H   0  0  0  0  0  0  0  0  0  0  0  0
  142.6156   74.1201  218.3806 H   0  0  0  0  0  0  0  0  0  0  0  0
  142.9189   72.4835  217.7039 H   0  0  0  0  0  0  0  0  0  0  0  0
  140.7574   76.5743  219.2512 H   0  0  0  0  0  0  0  0  0  0  0  0
  139.7005   77.8834  219.8678 H   0  0  0  0  0  0  0  0  0  0  0  0
  142.7104   77.5295  220.2782 H   0  0  0  0  0  0  0  0  0  0  0  0
  141.8308   78.8906  219.4657 H   0  0  0  0  0  0  0  0  0  0  0  0
  143.2238   80.3669  220.9512 H   0  0  0  0  0  0  0  0  0  0  0  0
  143.2224   81.6015  223.1166 H   0  0  0  0  0  0  0  0  0  0  0  0
  141.7600   80.8442  224.9901 H   0  0  0  0  0  0  0  0  0  0  0  0
  140.3014   78.8437  224.7089 H   0  0  0  0  0  0  0  0  0  0  0  0
  140.1112   76.6285  223.4035 H   0  0  0  0  0  0  0  0  0  0  0  0
  138.9822   77.6400  222.4213 H   0  0  0  0  0  0  0  0  0  0  0  0
  140.8675   71.4236  224.1753 H   0  0  0  0  0  0  0  0  0  0  0  0
  139.4805   72.0164  225.1564 H   0  0  0  0  0  0  0  0  0  0  0  0
  139.6042   69.4380  223.5128 H   0  0  0  0  0  0  0  0  0  0  0  0
  139.5814   69.5862  225.3095 H   0  0  0  0  0  0  0  0  0  0  0  0
  137.5691   68.2212  225.5361 H   0  0  0  0  0  0  0  0  0  0  0  0
  135.0766   68.1884  225.4788 H   0  0  0  0  0  0  0  0  0  0  0  0
  133.8292   69.9717  224.2582 H   0  0  0  0  0  0  0  0  0  0  0  0
  135.0726   71.7669  223.0529 H   0  0  0  0  0  0  0  0  0  0  0  0
  137.5718   71.9216  221.7711 H   0  0  0  0  0  0  0  0  0  0  0  0
  137.3634   73.0662  223.1799 H   0  0  0  0  0  0  0  0  0  0  0  0
  143.9164   71.5844  221.2855 H   0  0  0  0  0  0  0  0  0  0  0  0
  142.8165   70.5394  220.2900 H   0  0  0  0  0  0  0  0  0  0  0  0
  145.3262   70.2803  219.8518 H   0  0  0  0  0  0  0  0  0  0  0  0
  144.2690   70.6122  218.4173 H   0  0  0  0  0  0  0  0  0  0  0  0
  1  2  1  0
  2  3  1  0
  3  4  1  0
  4  5  1  0
  5  6  1  0
  6  7  1  0
  7  8  2  0
  8  9  1  0
  9 10  1  0
 10 11  1  0
 11 12  1  0
 12 13  1  0
 13 14  2  0
 14 15  1  0
 15 16  2  0
 16 17  1  0
 17 18  2  0
 18 19  1  0
  9 20  2  0
 20 21  1  0
 21 22  1  0
 22 23  1  0
 23 24  1  0
 24 25  1  0
 25 26  2  0
 26 27  1  0
 27 28  2  0
 28 29  1  0
 29 30  2  0
 30 31  1  0
 21 32  2  0
  6 33  1  0
 33 34  1  0
 34  3  1  0
 32  7  1  0
 19 10  1  0
 31 22  1  0
 18 13  1  0
 30 25  1  0
  1 35  1  0
  1 36  1  0
  1 37  1  0
  2 38  1  0
  3 39  1  0
  4 40  1  0
  4 41  1  0
  5 42  1  0
  5 43  1  0
 11 44  1  0
 11 45  1  0
 12 46  1  0
 12 47  1  0
 14 48  1  0
 15 49  1  0
 16 50  1  0
 17 51  1  0
 19 52  1  0
 19 53  1  0
 23 54  1  0
 23 55  1  0
 24 56  1  0
 24 57  1  0
 26 58  1  0
 27 59  1  0
 28 60  1  0
 29 61  1  0
 31 62  1  0
 31 63  1  0
 33 64  1  0
 33 65  1  0
 34 66  1  0
 34 67  1  0
M  END
>  <UniqueID>  (80) 
60

>  <SMILES>  (80) 
CNC1CCN(c2nc(N3CCc4ccccc4C3)nc(N3CCc4ccccc4C3)n2)CC1

>  <Energy>  (80) 
81.82523011856723

>  <Genealogy>  (80) 
CNC1CCN(c2nc(N3CCc4ccccc4C3)nc(N3CCc4ccccc4C3)n2)CC1 (3D coordinates assigned)
CNC1CCN(c2nc(N3CCc4ccccc4C3)nc(N3CCc4ccccc4C3)n2)CC1 (nonaromatic ring conformer: 81.82523011856723 kcal/mol)

>  <smiles>  (80) 
CNC1CCN(c2nc(N3CCc4ccccc4C3)nc(N3CCc4ccccc4C3)n2)CC1

>  <score_type>  (80) 
oracle

>  <origin>  (80) 
autodockgpu

>  <m_score__min__energy>  (80) 
-8.9900000000000002

>  <m_primary>  (80) 
energy

>  <meeko>  (80) 
{"free_energy": -8.81, "intermolecular_energy": -10.01, "internal_energy": -1.06, "cluster_size": 18, "cluster_id": 1, "rank_in_cluster": 14}

>  <energy>  (80) 
-8.66

>  <cluster_rmsd>  (80) 
0.55

>  <rmsd>  (80) 
271.46

>  <cluster>  (80) 
2

$$$$
