
     RDKit          3D

 59 62  0  0  0  0  0  0  0  0999 V2000
  142.4190   79.9010  223.8140 C   0  0  0  0  0  0  0  0  0  0  0  0
  141.4420   79.6260  222.6780 C   0  0  1  0  0  0  0  0  0  0  0  0
  141.7340   78.3180  222.0840 N   0  0  0  0  0  0  0  0  0  0  0  0
  141.8840   78.2370  220.6540 C   0  0  0  0  0  0  0  0  0  0  0  0
  141.7770   79.2310  219.9020 O   0  0  0  0  0  0  0  0  0  0  0  0
  142.1870   76.8850  220.0690 C   0  0  2  0  0  0  0  0  0  0  0  0
  142.5760   77.0350  218.6090 C   0  0  0  0  0  0  0  0  0  0  0  0
  141.4740   76.4210  217.7970 C   0  0  1  0  0  0  0  0  0  0  0  0
  141.9120   75.2970  217.0910 O   0  0  0  0  0  0  0  0  0  0  0  0
  140.3950   76.1350  218.7810 C   0  0  0  0  0  0  0  0  0  0  0  0
  141.0040   76.0600  220.1150 N   0  0  0  0  0  0  0  0  0  0  0  0
  140.4200   75.2950  221.1430 C   0  0  0  0  0  0  0  0  0  0  0  0
  140.5590   75.7520  222.3290 O   0  0  0  0  0  0  0  0  0  0  0  0
  139.6800   74.0420  220.9930 C   0  0  0  0  0  0  0  0  0  0  0  0
  139.7010   73.2610  222.2400 N   0  0  0  0  0  0  0  0  0  0  0  0
  139.8520   71.8770  222.2970 C   0  0  0  0  0  0  0  0  0  0  0  0
  139.9840   71.2600  221.1840 O   0  0  0  0  0  0  0  0  0  0  0  0
  139.8690   71.0870  223.5230 C   0  0  0  0  0  0  0  0  0  0  0  0
  139.2840   69.8360  223.5510 C   0  0  0  0  0  0  0  0  0  0  0  0
  139.2550   69.0320  224.6600 C   0  0  0  0  0  0  0  0  0  0  0  0
  139.8620   69.5470  225.8100 C   0  0  0  0  0  0  0  0  0  0  0  0
  139.8480   68.7550  226.9460 C   0  0  0  0  0  0  0  0  0  0  0  0
  140.4450   69.2520  228.0780 C   0  0  0  0  0  0  0  0  0  0  0  0
  140.4070   68.4320  229.1810 F   0  0  0  0  0  0  0  0  0  0  0  0
  141.0390   70.4850  228.0990 C   0  0  0  0  0  0  0  0  0  0  0  0
  141.0460   71.2660  226.9620 C   0  0  0  0  0  0  0  0  0  0  0  0
  140.4570   70.8060  225.7990 C   0  0  0  0  0  0  0  0  0  0  0  0
  140.4490   71.5510  224.6570 N   0  0  0  0  0  0  0  0  0  0  0  0
  140.0440   79.7970  223.0720 C   0  0  0  0  0  0  0  0  0  0  0  0
  139.1250   78.8560  222.6800 C   0  0  0  0  0  0  0  0  0  0  0  0
  137.7720   78.9720  223.0250 C   0  0  0  0  0  0  0  0  0  0  0  0
  137.3910   80.0660  223.7770 C   0  0  0  0  0  0  0  0  0  0  0  0
  135.6990   80.1970  224.1980 Cl  0  0  0  0  0  0  0  0  0  0  0  0
  138.3280   81.0240  224.1750 C   0  0  0  0  0  0  0  0  0  0  0  0
  139.6690   80.8890  223.8190 C   0  0  0  0  0  0  0  0  0  0  0  0
  141.9097   79.7576  224.7784 H   0  0  0  0  0  0  0  0  0  0  0  0
  143.2697   79.2074  223.7419 H   0  0  0  0  0  0  0  0  0  0  0  0
  142.7830   80.9365  223.7419 H   0  0  0  0  0  0  0  0  0  0  0  0
  141.5896   80.3871  221.8976 H   0  0  0  0  0  0  0  0  0  0  0  0
  141.8190   77.4940  222.7070 H   0  0  0  0  0  0  0  0  0  0  0  0
  143.0047   76.4297  220.6469 H   0  0  0  0  0  0  0  0  0  0  0  0
  142.6850   78.0996  218.3544 H   0  0  0  0  0  0  0  0  0  0  0  0
  143.5368   76.5396  218.4055 H   0  0  0  0  0  0  0  0  0  0  0  0
  141.1068   77.0888  217.0037 H   0  0  0  0  0  0  0  0  0  0  0  0
  142.8920   75.2260  217.0720 H   0  0  0  0  0  0  0  0  0  0  0  0
  139.6458   76.9401  218.7577 H   0  0  0  0  0  0  0  0  0  0  0  0
  139.8962   75.1859  218.5353 H   0  0  0  0  0  0  0  0  0  0  0  0
  138.6366   74.2704  220.7298 H   0  0  0  0  0  0  0  0  0  0  0  0
  140.1577   73.4472  220.2005 H   0  0  0  0  0  0  0  0  0  0  0  0
  139.5910   73.8000  223.1380 H   0  0  0  0  0  0  0  0  0  0  0  0
  138.8139   69.4635  222.6289 H   0  0  0  0  0  0  0  0  0  0  0  0
  138.7818   68.0391  224.6467 H   0  0  0  0  0  0  0  0  0  0  0  0
  139.3749   67.7620  226.9415 H   0  0  0  0  0  0  0  0  0  0  0  0
  141.5106   70.8529  229.0222 H   0  0  0  0  0  0  0  0  0  0  0  0
  141.5216   72.2577  226.9808 H   0  0  0  0  0  0  0  0  0  0  0  0
  139.4572   77.9938  222.0832 H   0  0  0  0  0  0  0  0  0  0  0  0
  137.0377   78.2170  222.7075 H   0  0  0  0  0  0  0  0  0  0  0  0
  138.0053   81.8893  224.7725 H   0  0  0  0  0  0  0  0  0  0  0  0
  140.4110   81.6396  224.1288 H   0  0  0  0  0  0  0  0  0  0  0  0
  1  2  1  0
  2  3  1  0
  3  4  1  0
  4  5  2  0
  4  6  1  0
  6  7  1  0
  7  8  1  0
  8  9  1  0
  8 10  1  0
 10 11  1  0
 11 12  1  0
 12 13  2  0
 12 14  1  0
 14 15  1  0
 15 16  1  0
 16 17  2  0
 16 18  1  0
 18 19  2  0
 19 20  1  0
 20 21  2  0
 21 22  1  0
 22 23  2  0
 23 24  1  0
 23 25  1  0
 25 26  2  0
 26 27  1  0
 27 28  2  0
  2 29  1  0
 29 30  2  0
 30 31  1  0
 31 32  2  0
 32 33  1  0
 32 34  1  0
 34 35  2  0
 11  6  1  0
 28 18  1  0
 35 29  1  0
 27 21  1  0
  1 36  1  0
  1 37  1  0
  1 38  1  0
  2 39  1  6
  3 40  1  0
  6 41  1  1
  7 42  1  0
  7 43  1  0
  8 44  1  6
  9 45  1  0
 10 46  1  0
 10 47  1  0
 14 48  1  0
 14 49  1  0
 15 50  1  0
 19 51  1  0
 20 52  1  0
 22 53  1  0
 25 54  1  0
 26 55  1  0
 30 56  1  0
 31 57  1  0
 34 58  1  0
 35 59  1  0
M  END
>  <smiles>  (1) 
C[C@@H](NC(=O)[C@@H]1C[C@@H](O)CN1C(=O)CNC(=O)c1ccc2cc(F)ccc2n1)c1ccc(Cl)cc1

>  <score_type>  (1) 
oracle

>  <origin>  (1) 
autodockgpu

>  <m_score__min__energy>  (1) 
-10.109999999999999

>  <m_primary>  (1) 
energy

>  <meeko>  (1) 
{"free_energy": -8.86, "intermolecular_energy": -11.24, "internal_energy": -2.88, "cluster_size": 4, "cluster_id": 2, "rank_in_cluster": 3}

>  <energy>  (1) 
-10.11

>  <cluster_rmsd>  (1) 
0.0

>  <rmsd>  (1) 
270.73

>  <cluster>  (1) 
1

$$$$

     RDKit          3D

 59 62  0  0  0  0  0  0  0  0999 V2000
  138.6340   77.1250  220.8210 C   0  0  0  0  0  0  0  0  0  0  0  0
  139.9510   76.8130  221.5200 C   0  0  1  0  0  0  0  0  0  0  0  0
  140.8470   76.1150  220.5920 N   0  0  0  0  0  0  0  0  0  0  0  0
  141.2920   74.7910  220.9400 C   0  0  0  0  0  0  0  0  0  0  0  0
  140.9480   74.2140  221.9950 O   0  0  0  0  0  0  0  0  0  0  0  0
  142.2080   74.0960  219.9700 C   0  0  2  0  0  0  0  0  0  0  0  0
  143.3890   73.5040  220.7180 C   0  0  0  0  0  0  0  0  0  0  0  0
  144.6040   74.2810  220.3060 C   0  0  1  0  0  0  0  0  0  0  0  0
  145.5200   73.4870  219.6100 O   0  0  0  0  0  0  0  0  0  0  0  0
  144.0700   75.4230  219.5160 C   0  0  0  0  0  0  0  0  0  0  0  0
  142.7350   75.0540  219.0290 N   0  0  0  0  0  0  0  0  0  0  0  0
  142.2030   75.6220  217.8550 C   0  0  0  0  0  0  0  0  0  0  0  0
  141.0390   75.2160  217.5150 O   0  0  0  0  0  0  0  0  0  0  0  0
  142.8410   76.6160  216.9930 C   0  0  0  0  0  0  0  0  0  0  0  0
  142.6990   77.9710  217.5500 N   0  0  0  0  0  0  0  0  0  0  0  0
  141.5300   78.4640  218.1260 C   0  0  0  0  0  0  0  0  0  0  0  0
  140.5250   77.6730  218.1700 O   0  0  0  0  0  0  0  0  0  0  0  0
  141.3700   79.8050  218.6770 C   0  0  0  0  0  0  0  0  0  0  0  0
  142.1660   80.8410  218.2250 C   0  0  0  0  0  0  0  0  0  0  0  0
  142.0810   82.1250  218.6910 C   0  0  0  0  0  0  0  0  0  0  0  0
  141.1220   82.3600  219.6820 C   0  0  0  0  0  0  0  0  0  0  0  0
  141.0150   83.6520  220.1700 C   0  0  0  0  0  0  0  0  0  0  0  0
  140.0730   83.8910  221.1410 C   0  0  0  0  0  0  0  0  0  0  0  0
  140.0020   85.1860  221.5960 F   0  0  0  0  0  0  0  0  0  0  0  0
  139.2620   82.8980  221.6200 C   0  0  0  0  0  0  0  0  0  0  0  0
  139.3780   81.6150  221.1260 C   0  0  0  0  0  0  0  0  0  0  0  0
  140.3120   81.3280  220.1480 C   0  0  0  0  0  0  0  0  0  0  0  0
  140.4520   80.0720  219.6370 N   0  0  0  0  0  0  0  0  0  0  0  0
  140.5530   77.9830  222.1550 C   0  0  0  0  0  0  0  0  0  0  0  0
  139.8350   78.6660  223.1040 C   0  0  0  0  0  0  0  0  0  0  0  0
  140.3610   79.7970  223.7420 C   0  0  0  0  0  0  0  0  0  0  0  0
  141.6320   80.2040  223.3850 C   0  0  0  0  0  0  0  0  0  0  0  0
  142.2740   81.6180  224.1880 Cl  0  0  0  0  0  0  0  0  0  0  0  0
  142.3630   79.5080  222.4180 C   0  0  0  0  0  0  0  0  0  0  0  0
  141.8190   78.3850  221.7960 C   0  0  0  0  0  0  0  0  0  0  0  0
  137.8539   77.3098  221.5742 H   0  0  0  0  0  0  0  0  0  0  0  0
  138.7556   78.0192  220.1920 H   0  0  0  0  0  0  0  0  0  0  0  0
  138.3415   76.2713  220.1920 H   0  0  0  0  0  0  0  0  0  0  0  0
  139.7481   76.1344  222.3616 H   0  0  0  0  0  0  0  0  0  0  0  0
  141.1350   76.5960  219.7200 H   0  0  0  0  0  0  0  0  0  0  0  0
  141.6379   73.3106  219.4523 H   0  0  0  0  0  0  0  0  0  0  0  0
  143.2327   73.5947  221.8031 H   0  0  0  0  0  0  0  0  0  0  0  0
  143.5076   72.4362  220.4819 H   0  0  0  0  0  0  0  0  0  0  0  0
  145.1886   74.6434  221.1644 H   0  0  0  0  0  0  0  0  0  0  0  0
  146.1000   74.0170  219.0190 H   0  0  0  0  0  0  0  0  0  0  0  0
  144.0009   76.3173  220.1528 H   0  0  0  0  0  0  0  0  0  0  0  0
  144.7366   75.6469  218.6701 H   0  0  0  0  0  0  0  0  0  0  0  0
  143.9105   76.3765  216.8993 H   0  0  0  0  0  0  0  0  0  0  0  0
  142.3509   76.5902  216.0086 H   0  0  0  0  0  0  0  0  0  0  0  0
  143.5460   78.5950  217.4980 H   0  0  0  0  0  0  0  0  0  0  0  0
  142.9106   80.6206  217.4459 H   0  0  0  0  0  0  0  0  0  0  0  0
  142.7298   82.9266  218.3081 H   0  0  0  0  0  0  0  0  0  0  0  0
  141.6616   84.4583  219.7933 H   0  0  0  0  0  0  0  0  0  0  0  0
  138.5180   83.1227  222.3985 H   0  0  0  0  0  0  0  0  0  0  0  0
  138.7253   80.8179  221.5116 H   0  0  0  0  0  0  0  0  0  0  0  0
  138.8257   78.3184  223.3694 H   0  0  0  0  0  0  0  0  0  0  0  0
  139.7816   80.3424  224.5015 H   0  0  0  0  0  0  0  0  0  0  0  0
  143.3732   79.8482  222.1462 H   0  0  0  0  0  0  0  0  0  0  0  0
  142.3895   77.8325  221.0349 H   0  0  0  0  0  0  0  0  0  0  0  0
  1  2  1  0
  2  3  1  0
  3  4  1  0
  4  5  2  0
  4  6  1  0
  6  7  1  0
  7  8  1  0
  8  9  1  0
  8 10  1  0
 10 11  1  0
 11 12  1  0
 12 13  2  0
 12 14  1  0
 14 15  1  0
 15 16  1  0
 16 17  2  0
 16 18  1  0
 18 19  2  0
 19 20  1  0
 20 21  2  0
 21 22  1  0
 22 23  2  0
 23 24  1  0
 23 25  1  0
 25 26  2  0
 26 27  1  0
 27 28  2  0
  2 29  1  0
 29 30  2  0
 30 31  1  0
 31 32  2  0
 32 33  1  0
 32 34  1  0
 34 35  2  0
 11  6  1  0
 28 18  1  0
 35 29  1  0
 27 21  1  0
  1 36  1  0
  1 37  1  0
  1 38  1  0
  2 39  1  1
  3 40  1  0
  6 41  1  6
  7 42  1  0
  7 43  1  0
  8 44  1  1
  9 45  1  0
 10 46  1  0
 10 47  1  0
 14 48  1  0
 14 49  1  0
 15 50  1  0
 19 51  1  0
 20 52  1  0
 22 53  1  0
 25 54  1  0
 26 55  1  0
 30 56  1  0
 31 57  1  0
 34 58  1  0
 35 59  1  0
M  END
>  <smiles>  (2) 
C[C@@H](NC(=O)[C@@H]1C[C@@H](O)CN1C(=O)CNC(=O)c1ccc2cc(F)ccc2n1)c1ccc(Cl)cc1

>  <score_type>  (2) 
oracle

>  <origin>  (2) 
autodockgpu

>  <m_score__min__energy>  (2) 
-10.109999999999999

>  <m_primary>  (2) 
energy

>  <meeko>  (2) 
{"free_energy": -6.82, "intermolecular_energy": -9.21, "internal_energy": -4.44, "cluster_size": 2, "cluster_id": 6, "rank_in_cluster": 1}

>  <energy>  (2) 
-10.01

>  <cluster_rmsd>  (2) 
0.18

>  <rmsd>  (2) 
270.66

>  <cluster>  (2) 
1

$$$$

     RDKit          3D

 59 62  0  0  0  0  0  0  0  0999 V2000
  142.9970   77.5810  217.7370 C   0  0  0  0  0  0  0  0  0  0  0  0
  141.9270   77.3160  218.7890 C   0  0  1  0  0  0  0  0  0  0  0  0
  142.4610   76.4170  219.8180 N   0  0  0  0  0  0  0  0  0  0  0  0
  143.0160   75.1560  219.4000 C   0  0  0  0  0  0  0  0  0  0  0  0
  143.0620   74.7970  218.2030 O   0  0  0  0  0  0  0  0  0  0  0  0
  143.5600   74.2540  220.4740 C   0  0  2  0  0  0  0  0  0  0  0  0
  145.0310   74.5560  220.6980 C   0  0  0  0  0  0  0  0  0  0  0  0
  145.8030   73.3660  220.2110 C   0  0  1  0  0  0  0  0  0  0  0  0
  146.4780   72.7220  221.2520 O   0  0  0  0  0  0  0  0  0  0  0  0
  144.7910   72.5140  219.5290 C   0  0  0  0  0  0  0  0  0  0  0  0
  143.4670   72.8790  220.0470 N   0  0  0  0  0  0  0  0  0  0  0  0
  142.4030   71.9560  220.0490 C   0  0  0  0  0  0  0  0  0  0  0  0
  142.7190   70.7380  220.2750 O   0  0  0  0  0  0  0  0  0  0  0  0
  140.9880   72.2470  219.8180 C   0  0  0  0  0  0  0  0  0  0  0  0
  140.6510   73.6140  220.2440 N   0  0  0  0  0  0  0  0  0  0  0  0
  140.3080   73.9690  221.5480 C   0  0  0  0  0  0  0  0  0  0  0  0
  140.2950   73.0330  222.4200 O   0  0  0  0  0  0  0  0  0  0  0  0
  139.9660   75.3170  221.9850 C   0  0  0  0  0  0  0  0  0  0  0  0
  138.6420   75.6950  222.1000 C   0  0  0  0  0  0  0  0  0  0  0  0
  138.2360   76.9400  222.5010 C   0  0  0  0  0  0  0  0  0  0  0  0
  139.2530   77.8520  222.8020 C   0  0  0  0  0  0  0  0  0  0  0  0
  138.8710   79.1190  223.2110 C   0  0  0  0  0  0  0  0  0  0  0  0
  139.8640   80.0190  223.5120 C   0  0  0  0  0  0  0  0  0  0  0  0
  139.4380   81.2630  223.9130 F   0  0  0  0  0  0  0  0  0  0  0  0
  141.1890   79.6910  223.4150 C   0  0  0  0  0  0  0  0  0  0  0  0
  141.5580   78.4260  223.0050 C   0  0  0  0  0  0  0  0  0  0  0  0
  140.5930   77.4870  222.6930 C   0  0  0  0  0  0  0  0  0  0  0  0
  140.9230   76.2290  222.2870 N   0  0  0  0  0  0  0  0  0  0  0  0
  141.3350   78.5400  219.3240 C   0  0  0  0  0  0  0  0  0  0  0  0
  142.1630   79.5520  219.7370 C   0  0  0  0  0  0  0  0  0  0  0  0
  141.6500   80.7450  220.2630 C   0  0  0  0  0  0  0  0  0  0  0  0
  140.2770   80.8730  220.3490 C   0  0  0  0  0  0  0  0  0  0  0  0
  139.6520   82.3660  221.0080 Cl  0  0  0  0  0  0  0  0  0  0  0  0
  139.4340   79.8400  219.9280 C   0  0  0  0  0  0  0  0  0  0  0  0
  139.9670   78.6610  219.4100 C   0  0  0  0  0  0  0  0  0  0  0  0
  143.9495   77.8169  218.2341 H   0  0  0  0  0  0  0  0  0  0  0  0
  143.1229   76.6869  217.1087 H   0  0  0  0  0  0  0  0  0  0  0  0
  142.6911   78.4305  217.1087 H   0  0  0  0  0  0  0  0  0  0  0  0
  141.0807   76.8054  218.3061 H   0  0  0  0  0  0  0  0  0  0  0  0
  142.4190   76.7140  220.8100 H   0  0  0  0  0  0  0  0  0  0  0  0
  142.9807   74.4189  221.3944 H   0  0  0  0  0  0  0  0  0  0  0  0
  145.3228   75.4529  220.1319 H   0  0  0  0  0  0  0  0  0  0  0  0
  145.2346   74.7469  221.7620 H   0  0  0  0  0  0  0  0  0  0  0  0
  146.6116   73.6383  219.5167 H   0  0  0  0  0  0  0  0  0  0  0  0
  145.9700   71.9600  221.6120 H   0  0  0  0  0  0  0  0  0  0  0  0
  144.8278   72.6873  218.4434 H   0  0  0  0  0  0  0  0  0  0  0  0
  144.9960   71.4503  219.7201 H   0  0  0  0  0  0  0  0  0  0  0  0
  140.7702   72.1413  218.7450 H   0  0  0  0  0  0  0  0  0  0  0  0
  140.3857   71.5396  220.4068 H   0  0  0  0  0  0  0  0  0  0  0  0
  140.6730   74.3610  219.5010 H   0  0  0  0  0  0  0  0  0  0  0  0
  137.8685   74.9522  221.8551 H   0  0  0  0  0  0  0  0  0  0  0  0
  137.1720   77.2072  222.5817 H   0  0  0  0  0  0  0  0  0  0  0  0
  137.8092   79.3949  223.2919 H   0  0  0  0  0  0  0  0  0  0  0  0
  141.9597   80.4354  223.6637 H   0  0  0  0  0  0  0  0  0  0  0  0
  142.6235   78.1642  222.9263 H   0  0  0  0  0  0  0  0  0  0  0  0
  143.2524   79.4246  219.6536 H   0  0  0  0  0  0  0  0  0  0  0  0
  142.3181   81.5528  220.5964 H   0  0  0  0  0  0  0  0  0  0  0  0
  138.3432   79.9586  220.0061 H   0  0  0  0  0  0  0  0  0  0  0  0
  139.3085   77.8451  219.0772 H   0  0  0  0  0  0  0  0  0  0  0  0
  1  2  1  0
  2  3  1  0
  3  4  1  0
  4  5  2  0
  4  6  1  0
  6  7  1  0
  7  8  1  0
  8  9  1  0
  8 10  1  0
 10 11  1  0
 11 12  1  0
 12 13  2  0
 12 14  1  0
 14 15  1  0
 15 16  1  0
 16 17  2  0
 16 18  1  0
 18 19  2  0
 19 20  1  0
 20 21  2  0
 21 22  1  0
 22 23  2  0
 23 24  1  0
 23 25  1  0
 25 26  2  0
 26 27  1  0
 27 28  2  0
  2 29  1  0
 29 30  2  0
 30 31  1  0
 31 32  2  0
 32 33  1  0
 32 34  1  0
 34 35  2  0
 11  6  1  0
 28 18  1  0
 35 29  1  0
 27 21  1  0
  1 36  1  0
  1 37  1  0
  1 38  1  0
  2 39  1  6
  3 40  1  0
  6 41  1  1
  7 42  1  0
  7 43  1  0
  8 44  1  6
  9 45  1  0
 10 46  1  0
 10 47  1  0
 14 48  1  0
 14 49  1  0
 15 50  1  0
 19 51  1  0
 20 52  1  0
 22 53  1  0
 25 54  1  0
 26 55  1  0
 30 56  1  0
 31 57  1  0
 34 58  1  0
 35 59  1  0
M  END
>  <smiles>  (3) 
C[C@@H](NC(=O)[C@@H]1C[C@@H](O)CN1C(=O)CNC(=O)c1ccc2cc(F)ccc2n1)c1ccc(Cl)cc1

>  <score_type>  (3) 
oracle

>  <origin>  (3) 
autodockgpu

>  <m_score__min__energy>  (3) 
-10.109999999999999

>  <m_primary>  (3) 
energy

>  <meeko>  (3) 
{"free_energy": -7.32, "intermolecular_energy": -9.71, "internal_energy": -4.36, "cluster_size": 1, "cluster_id": 5, "rank_in_cluster": 1}

>  <energy>  (3) 
-9.99

>  <cluster_rmsd>  (3) 
0.14

>  <rmsd>  (3) 
270.63

>  <cluster>  (3) 
1

$$$$

     RDKit          3D

 59 62  0  0  0  0  0  0  0  0999 V2000
  142.3940   79.8720  223.8510 C   0  0  0  0  0  0  0  0  0  0  0  0
  141.4260   79.6200  222.7020 C   0  0  1  0  0  0  0  0  0  0  0  0
  141.7180   78.3200  222.0890 N   0  0  0  0  0  0  0  0  0  0  0  0
  141.8340   78.2540  220.6550 C   0  0  0  0  0  0  0  0  0  0  0  0
  141.6980   79.2530  219.9160 O   0  0  0  0  0  0  0  0  0  0  0  0
  142.1380   76.9100  220.0510 C   0  0  2  0  0  0  0  0  0  0  0  0
  142.4850   77.0770  218.5820 C   0  0  0  0  0  0  0  0  0  0  0  0
  141.3690   76.4570  217.7950 C   0  0  1  0  0  0  0  0  0  0  0  0
  141.8020   75.3440  217.0670 O   0  0  0  0  0  0  0  0  0  0  0  0
  140.3200   76.1490  218.8040 C   0  0  0  0  0  0  0  0  0  0  0  0
  140.9660   76.0710  220.1210 N   0  0  0  0  0  0  0  0  0  0  0  0
  140.4200   75.2900  221.1580 C   0  0  0  0  0  0  0  0  0  0  0  0
  140.6200   75.7180  222.3460 O   0  0  0  0  0  0  0  0  0  0  0  0
  139.6550   74.0510  221.0140 C   0  0  0  0  0  0  0  0  0  0  0  0
  139.6750   73.2680  222.2600 N   0  0  0  0  0  0  0  0  0  0  0  0
  139.8050   71.8820  222.3140 C   0  0  0  0  0  0  0  0  0  0  0  0
  139.9170   71.2650  221.1990 O   0  0  0  0  0  0  0  0  0  0  0  0
  139.8200   71.0900  223.5390 C   0  0  0  0  0  0  0  0  0  0  0  0
  139.2410   69.8360  223.5620 C   0  0  0  0  0  0  0  0  0  0  0  0
  139.2110   69.0310  224.6700 C   0  0  0  0  0  0  0  0  0  0  0  0
  139.8110   69.5460  225.8230 C   0  0  0  0  0  0  0  0  0  0  0  0
  139.7950   68.7530  226.9580 C   0  0  0  0  0  0  0  0  0  0  0  0
  140.3850   69.2510  228.0940 C   0  0  0  0  0  0  0  0  0  0  0  0
  140.3460   68.4290  229.1950 F   0  0  0  0  0  0  0  0  0  0  0  0
  140.9720   70.4870  228.1190 C   0  0  0  0  0  0  0  0  0  0  0  0
  140.9810   71.2690  226.9830 C   0  0  0  0  0  0  0  0  0  0  0  0
  140.3990   70.8090  225.8170 C   0  0  0  0  0  0  0  0  0  0  0  0
  140.3930   71.5550  224.6760 N   0  0  0  0  0  0  0  0  0  0  0  0
  140.0260   79.7890  223.0870 C   0  0  0  0  0  0  0  0  0  0  0  0
  139.6700   80.8870  223.8280 C   0  0  0  0  0  0  0  0  0  0  0  0
  138.3430   81.0980  224.2280 C   0  0  0  0  0  0  0  0  0  0  0  0
  137.4000   80.1630  223.8480 C   0  0  0  0  0  0  0  0  0  0  0  0
  135.7510   80.4390  224.3560 Cl  0  0  0  0  0  0  0  0  0  0  0  0
  137.7640   79.0440  223.0930 C   0  0  0  0  0  0  0  0  0  0  0  0
  139.0900   78.8540  222.7080 C   0  0  0  0  0  0  0  0  0  0  0  0
  141.8700   79.7356  224.8085 H   0  0  0  0  0  0  0  0  0  0  0  0
  143.2317   79.1620  223.7871 H   0  0  0  0  0  0  0  0  0  0  0  0
  142.7792   80.9004  223.7871 H   0  0  0  0  0  0  0  0  0  0  0  0
  141.5834   80.3934  221.9358 H   0  0  0  0  0  0  0  0  0  0  0  0
  141.8270   77.4920  222.7020 H   0  0  0  0  0  0  0  0  0  0  0  0
  142.9763   76.4599  220.6030 H   0  0  0  0  0  0  0  0  0  0  0  0
  142.5744   78.1449  218.3339 H   0  0  0  0  0  0  0  0  0  0  0  0
  143.4456   76.5948  218.3481 H   0  0  0  0  0  0  0  0  0  0  0  0
  140.9724   77.1276  217.0185 H   0  0  0  0  0  0  0  0  0  0  0  0
  142.5310   75.5640  216.4450 H   0  0  0  0  0  0  0  0  0  0  0  0
  139.5603   76.9445  218.8074 H   0  0  0  0  0  0  0  0  0  0  0  0
  139.8264   75.1959  218.5634 H   0  0  0  0  0  0  0  0  0  0  0  0
  138.6133   74.2992  220.7624 H   0  0  0  0  0  0  0  0  0  0  0  0
  140.1127   73.4486  220.2155 H   0  0  0  0  0  0  0  0  0  0  0  0
  139.5810   73.8080  223.1600 H   0  0  0  0  0  0  0  0  0  0  0  0
  138.7772   69.4623  222.6372 H   0  0  0  0  0  0  0  0  0  0  0  0
  138.7417   68.0363  224.6535 H   0  0  0  0  0  0  0  0  0  0  0  0
  139.3258   67.7581  226.9501 H   0  0  0  0  0  0  0  0  0  0  0  0
  141.4366   70.8567  229.0450 H   0  0  0  0  0  0  0  0  0  0  0  0
  141.4531   72.2623  227.0051 H   0  0  0  0  0  0  0  0  0  0  0  0
  140.4415   81.6170  224.1143 H   0  0  0  0  0  0  0  0  0  0  0  0
  138.0622   81.9786  224.8244 H   0  0  0  0  0  0  0  0  0  0  0  0
  136.9993   78.3091  222.8011 H   0  0  0  0  0  0  0  0  0  0  0  0
  139.3821   77.9755  222.1139 H   0  0  0  0  0  0  0  0  0  0  0  0
  1  2  1  0
  2  3  1  0
  3  4  1  0
  4  5  2  0
  4  6  1  0
  6  7  1  0
  7  8  1  0
  8  9  1  0
  8 10  1  0
 10 11  1  0
 11 12  1  0
 12 13  2  0
 12 14  1  0
 14 15  1  0
 15 16  1  0
 16 17  2  0
 16 18  1  0
 18 19  2  0
 19 20  1  0
 20 21  2  0
 21 22  1  0
 22 23  2  0
 23 24  1  0
 23 25  1  0
 25 26  2  0
 26 27  1  0
 27 28  2  0
  2 29  1  0
 29 30  2  0
 30 31  1  0
 31 32  2  0
 32 33  1  0
 32 34  1  0
 34 35  2  0
 11  6  1  0
 28 18  1  0
 35 29  1  0
 27 21  1  0
  1 36  1  0
  1 37  1  0
  1 38  1  0
  2 39  1  6
  3 40  1  0
  6 41  1  1
  7 42  1  0
  7 43  1  0
  8 44  1  6
  9 45  1  0
 10 46  1  0
 10 47  1  0
 14 48  1  0
 14 49  1  0
 15 50  1  0
 19 51  1  0
 20 52  1  0
 22 53  1  0
 25 54  1  0
 26 55  1  0
 30 56  1  0
 31 57  1  0
 34 58  1  0
 35 59  1  0
M  END
>  <smiles>  (4) 
C[C@@H](NC(=O)[C@@H]1C[C@@H](O)CN1C(=O)CNC(=O)c1ccc2cc(F)ccc2n1)c1ccc(Cl)cc1

>  <score_type>  (4) 
oracle

>  <origin>  (4) 
autodockgpu

>  <m_score__min__energy>  (4) 
-10.109999999999999

>  <m_primary>  (4) 
energy

>  <meeko>  (4) 
{"free_energy": -8.9, "intermolecular_energy": -11.28, "internal_energy": -2.88, "cluster_size": 4, "cluster_id": 2, "rank_in_cluster": 2}

>  <energy>  (4) 
-9.79

>  <cluster_rmsd>  (4) 
0.83

>  <rmsd>  (4) 
270.76

>  <cluster>  (4) 
1

$$$$

     RDKit          3D

 59 62  0  0  0  0  0  0  0  0999 V2000
  137.8850   76.7010  222.0700 C   0  0  0  0  0  0  0  0  0  0  0  0
  139.3840   76.5330  222.2840 C   0  0  1  0  0  0  0  0  0  0  0  0
  139.9830   75.9110  221.0990 N   0  0  0  0  0  0  0  0  0  0  0  0
  140.6110   74.6230  221.2490 C   0  0  0  0  0  0  0  0  0  0  0  0
  140.6650   74.0170  222.3410 O   0  0  0  0  0  0  0  0  0  0  0  0
  141.2150   74.0050  220.0180 C   0  0  2  0  0  0  0  0  0  0  0  0
  140.9000   72.5200  219.9840 C   0  0  0  0  0  0  0  0  0  0  0  0
  142.1940   71.7920  220.1960 C   0  0  1  0  0  0  0  0  0  0  0  0
  142.5610   71.0440  219.0730 O   0  0  0  0  0  0  0  0  0  0  0  0
  143.1690   72.8550  220.5600 C   0  0  0  0  0  0  0  0  0  0  0  0
  142.6510   74.1360  220.0640 N   0  0  0  0  0  0  0  0  0  0  0  0
  143.5170   75.2000  219.7460 C   0  0  0  0  0  0  0  0  0  0  0  0
  144.5670   75.3040  220.4690 O   0  0  0  0  0  0  0  0  0  0  0  0
  143.3380   76.1910  218.6850 C   0  0  0  0  0  0  0  0  0  0  0  0
  142.6790   77.4030  219.1970 N   0  0  0  0  0  0  0  0  0  0  0  0
  141.3390   77.7200  218.9810 C   0  0  0  0  0  0  0  0  0  0  0  0
  140.6490   76.8900  218.2950 O   0  0  0  0  0  0  0  0  0  0  0  0
  140.6730   78.9190  219.4760 C   0  0  0  0  0  0  0  0  0  0  0  0
  139.2940   78.9650  219.5540 C   0  0  0  0  0  0  0  0  0  0  0  0
  138.5920   80.0510  220.0040 C   0  0  0  0  0  0  0  0  0  0  0  0
  139.3520   81.1570  220.3970 C   0  0  0  0  0  0  0  0  0  0  0  0
  138.6670   82.2700  220.8570 C   0  0  0  0  0  0  0  0  0  0  0  0
  139.4080   83.3590  221.2470 C   0  0  0  0  0  0  0  0  0  0  0  0
  138.6860   84.4390  221.6960 F   0  0  0  0  0  0  0  0  0  0  0  0
  140.7750   83.3610  221.1890 C   0  0  0  0  0  0  0  0  0  0  0  0
  141.4470   82.2470  220.7280 C   0  0  0  0  0  0  0  0  0  0  0  0
  140.7430   81.1270  220.3240 C   0  0  0  0  0  0  0  0  0  0  0  0
  141.3760   80.0110  219.8660 N   0  0  0  0  0  0  0  0  0  0  0  0
  140.0450   77.7680  222.7000 C   0  0  0  0  0  0  0  0  0  0  0  0
  141.4080   77.8650  222.5780 C   0  0  0  0  0  0  0  0  0  0  0  0
  142.0930   79.0240  222.9650 C   0  0  0  0  0  0  0  0  0  0  0  0
  141.3500   80.0720  223.4740 C   0  0  0  0  0  0  0  0  0  0  0  0
  142.2200   81.5100  223.9530 Cl  0  0  0  0  0  0  0  0  0  0  0  0
  139.9620   79.9720  223.5980 C   0  0  0  0  0  0  0  0  0  0  0  0
  139.3010   78.8090  223.2070 C   0  0  0  0  0  0  0  0  0  0  0  0
  137.3795   76.7577  223.0453 H   0  0  0  0  0  0  0  0  0  0  0  0
  137.6966   77.6259  221.5051 H   0  0  0  0  0  0  0  0  0  0  0  0
  137.4966   75.8408  221.5051 H   0  0  0  0  0  0  0  0  0  0  0  0
  139.5415   75.8529  223.1340 H   0  0  0  0  0  0  0  0  0  0  0  0
  139.9410   76.4160  220.1950 H   0  0  0  0  0  0  0  0  0  0  0  0
  140.8026   74.5135  219.1341 H   0  0  0  0  0  0  0  0  0  0  0  0
  140.1885   72.2664  220.7837 H   0  0  0  0  0  0  0  0  0  0  0  0
  140.4436   72.2375  219.0238 H   0  0  0  0  0  0  0  0  0  0  0  0
  142.1314   71.0355  220.9921 H   0  0  0  0  0  0  0  0  0  0  0  0
  142.9680   71.5990  218.3720 H   0  0  0  0  0  0  0  0  0  0  0  0
  143.2842   72.8972  221.6531 H   0  0  0  0  0  0  0  0  0  0  0  0
  144.1511   72.6415  220.1130 H   0  0  0  0  0  0  0  0  0  0  0  0
  144.3229   76.4627  218.2774 H   0  0  0  0  0  0  0  0  0  0  0  0
  142.7025   75.7526  217.9014 H   0  0  0  0  0  0  0  0  0  0  0  0
  143.2760   78.0650  219.7580 H   0  0  0  0  0  0  0  0  0  0  0  0
  138.7273   78.0774  219.2360 H   0  0  0  0  0  0  0  0  0  0  0  0
  137.4931   80.0533  220.0535 H   0  0  0  0  0  0  0  0  0  0  0  0
  137.5683   82.2812  220.9081 H   0  0  0  0  0  0  0  0  0  0  0  0
  141.3381   84.2499  221.5096 H   0  0  0  0  0  0  0  0  0  0  0  0
  142.5460   82.2499  220.6817 H   0  0  0  0  0  0  0  0  0  0  0  0
  141.9743   77.0157  222.1681 H   0  0  0  0  0  0  0  0  0  0  0  0
  143.1862   79.0974  222.8669 H   0  0  0  0  0  0  0  0  0  0  0  0
  139.3874   80.8163  224.0067 H   0  0  0  0  0  0  0  0  0  0  0  0
  138.2083   78.7249  223.3016 H   0  0  0  0  0  0  0  0  0  0  0  0
  1  2  1  0
  2  3  1  0
  3  4  1  0
  4  5  2  0
  4  6  1  0
  6  7  1  0
  7  8  1  0
  8  9  1  0
  8 10  1  0
 10 11  1  0
 11 12  1  0
 12 13  2  0
 12 14  1  0
 14 15  1  0
 15 16  1  0
 16 17  2  0
 16 18  1  0
 18 19  2  0
 19 20  1  0
 20 21  2  0
 21 22  1  0
 22 23  2  0
 23 24  1  0
 23 25  1  0
 25 26  2  0
 26 27  1  0
 27 28  2  0
  2 29  1  0
 29 30  2  0
 30 31  1  0
 31 32  2  0
 32 33  1  0
 32 34  1  0
 34 35  2  0
 11  6  1  0
 28 18  1  0
 35 29  1  0
 27 21  1  0
  1 36  1  0
  1 37  1  0
  1 38  1  0
  2 39  1  1
  3 40  1  0
  6 41  1  6
  7 42  1  0
  7 43  1  0
  8 44  1  1
  9 45  1  0
 10 46  1  0
 10 47  1  0
 14 48  1  0
 14 49  1  0
 15 50  1  0
 19 51  1  0
 20 52  1  0
 22 53  1  0
 25 54  1  0
 26 55  1  0
 30 56  1  0
 31 57  1  0
 34 58  1  0
 35 59  1  0
M  END
>  <smiles>  (5) 
C[C@@H](NC(=O)[C@@H]1C[C@@H](O)CN1C(=O)CNC(=O)c1ccc2cc(F)ccc2n1)c1ccc(Cl)cc1

>  <score_type>  (5) 
oracle

>  <origin>  (5) 
autodockgpu

>  <m_score__min__energy>  (5) 
-10.109999999999999

>  <m_primary>  (5) 
energy

>  <meeko>  (5) 
{"free_energy": -6.31, "intermolecular_energy": -8.69, "internal_energy": -4.77, "cluster_size": 2, "cluster_id": 6, "rank_in_cluster": 2}

>  <energy>  (5) 
-9.76

>  <cluster_rmsd>  (5) 
0.84

>  <rmsd>  (5) 
270.78

>  <cluster>  (5) 
1

$$$$

     RDKit          3D

 59 62  0  0  0  0  0  0  0  0999 V2000
  137.7230   77.5910  221.8840 C   0  0  0  0  0  0  0  0  0  0  0  0
  139.0740   77.0840  222.3730 C   0  0  1  0  0  0  0  0  0  0  0  0
  139.6720   76.2150  221.3550 N   0  0  0  0  0  0  0  0  0  0  0  0
  140.3430   76.8320  220.2400 C   0  0  0  0  0  0  0  0  0  0  0  0
  140.4370   78.0720  220.1050 O   0  0  0  0  0  0  0  0  0  0  0  0
  140.9510   75.9180  219.2110 C   0  0  2  0  0  0  0  0  0  0  0  0
  141.0990   76.6590  217.8940 C   0  0  0  0  0  0  0  0  0  0  0  0
  140.1320   76.0380  216.9300 C   0  0  1  0  0  0  0  0  0  0  0  0
  140.7870   75.4100  215.8670 O   0  0  0  0  0  0  0  0  0  0  0  0
  139.3090   75.1190  217.7620 C   0  0  0  0  0  0  0  0  0  0  0  0
  140.0710   74.7990  218.9750 N   0  0  0  0  0  0  0  0  0  0  0  0
  139.8620   73.5940  219.6730 C   0  0  0  0  0  0  0  0  0  0  0  0
  138.7580   73.5000  220.3100 O   0  0  0  0  0  0  0  0  0  0  0  0
  140.7730   72.4510  219.7440 C   0  0  0  0  0  0  0  0  0  0  0  0
  140.5500   71.6700  220.9710 N   0  0  0  0  0  0  0  0  0  0  0  0
  140.4650   72.2210  222.2480 C   0  0  0  0  0  0  0  0  0  0  0  0
  140.5880   73.4910  222.3430 O   0  0  0  0  0  0  0  0  0  0  0  0
  140.2500   71.4610  223.4740 C   0  0  0  0  0  0  0  0  0  0  0  0
  139.5440   70.2730  223.4410 C   0  0  0  0  0  0  0  0  0  0  0  0
  139.2970   69.5020  224.5440 C   0  0  0  0  0  0  0  0  0  0  0  0
  139.8050   69.9800  225.7570 C   0  0  0  0  0  0  0  0  0  0  0  0
  139.5690   69.2190  226.8900 C   0  0  0  0  0  0  0  0  0  0  0  0
  140.0680   69.6810  228.0840 C   0  0  0  0  0  0  0  0  0  0  0  0
  139.8100   68.8940  229.1800 F   0  0  0  0  0  0  0  0  0  0  0  0
  140.7740   70.8500  228.1680 C   0  0  0  0  0  0  0  0  0  0  0  0
  141.0010   71.6010  227.0320 C   0  0  0  0  0  0  0  0  0  0  0  0
  140.5190   71.1750  225.8080 C   0  0  0  0  0  0  0  0  0  0  0  0
  140.7280   71.8910  224.6680 N   0  0  0  0  0  0  0  0  0  0  0  0
  139.9580   78.1570  222.8260 C   0  0  0  0  0  0  0  0  0  0  0  0
  139.4420   79.4180  222.9860 C   0  0  0  0  0  0  0  0  0  0  0  0
  140.2440   80.4850  223.4130 C   0  0  0  0  0  0  0  0  0  0  0  0
  141.5760   80.2250  223.6710 C   0  0  0  0  0  0  0  0  0  0  0  0
  142.5640   81.5660  224.2010 Cl  0  0  0  0  0  0  0  0  0  0  0  0
  142.1010   78.9400  223.5070 C   0  0  0  0  0  0  0  0  0  0  0  0
  141.2840   77.8940  223.0800 C   0  0  0  0  0  0  0  0  0  0  0  0
  137.0863   77.8300  222.7485 H   0  0  0  0  0  0  0  0  0  0  0  0
  137.8693   78.4954  221.2752 H   0  0  0  0  0  0  0  0  0  0  0  0
  137.2381   76.8137  221.2752 H   0  0  0  0  0  0  0  0  0  0  0  0
  138.9130   76.4773  223.2764 H   0  0  0  0  0  0  0  0  0  0  0  0
  139.5910   75.1880  221.4650 H   0  0  0  0  0  0  0  0  0  0  0  0
  141.9289   75.5765  219.5813 H   0  0  0  0  0  0  0  0  0  0  0  0
  140.8634   77.7246  218.0316 H   0  0  0  0  0  0  0  0  0  0  0  0
  142.1298   76.5871  217.5169 H   0  0  0  0  0  0  0  0  0  0  0  0
  139.4947   76.7808  216.4280 H   0  0  0  0  0  0  0  0  0  0  0  0
  140.6800   75.9000  215.0210 H   0  0  0  0  0  0  0  0  0  0  0  0
  138.3625   75.6090  218.0343 H   0  0  0  0  0  0  0  0  0  0  0  0
  139.0788   74.2004  217.2024 H   0  0  0  0  0  0  0  0  0  0  0  0
  140.6054   71.8034  218.8708 H   0  0  0  0  0  0  0  0  0  0  0  0
  141.8062   72.8283  219.7535 H   0  0  0  0  0  0  0  0  0  0  0  0
  140.4530   70.6280  220.8570 H   0  0  0  0  0  0  0  0  0  0  0  0
  139.1580   69.9271  222.4708 H   0  0  0  0  0  0  0  0  0  0  0  0
  138.7316   68.5605  224.4808 H   0  0  0  0  0  0  0  0  0  0  0  0
  139.0021   68.2779  226.8358 H   0  0  0  0  0  0  0  0  0  0  0  0
  141.1604   71.1911  229.1398 H   0  0  0  0  0  0  0  0  0  0  0  0
  141.5673   72.5415  227.1008 H   0  0  0  0  0  0  0  0  0  0  0  0
  138.3771   79.5952  222.7748 H   0  0  0  0  0  0  0  0  0  0  0  0
  139.8271   81.4952  223.5384 H   0  0  0  0  0  0  0  0  0  0  0  0
  143.1646   78.7530  223.7160 H   0  0  0  0  0  0  0  0  0  0  0  0
  141.6910   76.8805  222.9491 H   0  0  0  0  0  0  0  0  0  0  0  0
  1  2  1  0
  2  3  1  0
  3  4  1  0
  4  5  2  0
  4  6  1  0
  6  7  1  0
  7  8  1  0
  8  9  1  0
  8 10  1  0
 10 11  1  0
 11 12  1  0
 12 13  2  0
 12 14  1  0
 14 15  1  0
 15 16  1  0
 16 17  2  0
 16 18  1  0
 18 19  2  0
 19 20  1  0
 20 21  2  0
 21 22  1  0
 22 23  2  0
 23 24  1  0
 23 25  1  0
 25 26  2  0
 26 27  1  0
 27 28  2  0
  2 29  1  0
 29 30  2  0
 30 31  1  0
 31 32  2  0
 32 33  1  0
 32 34  1  0
 34 35  2  0
 11  6  1  0
 28 18  1  0
 35 29  1  0
 27 21  1  0
  1 36  1  0
  1 37  1  0
  1 38  1  0
  2 39  1  1
  3 40  1  0
  6 41  1  1
  7 42  1  0
  7 43  1  0
  8 44  1  6
  9 45  1  0
 10 46  1  0
 10 47  1  0
 14 48  1  0
 14 49  1  0
 15 50  1  0
 19 51  1  0
 20 52  1  0
 22 53  1  0
 25 54  1  0
 26 55  1  0
 30 56  1  0
 31 57  1  0
 34 58  1  0
 35 59  1  0
M  END
>  <smiles>  (6) 
C[C@@H](NC(=O)[C@@H]1C[C@@H](O)CN1C(=O)CNC(=O)c1ccc2cc(F)ccc2n1)c1ccc(Cl)cc1

>  <score_type>  (6) 
oracle

>  <origin>  (6) 
autodockgpu

>  <m_score__min__energy>  (6) 
-10.109999999999999

>  <m_primary>  (6) 
energy

>  <meeko>  (6) 
{"free_energy": -7.54, "intermolecular_energy": -9.92, "internal_energy": -3.03, "cluster_size": 11, "cluster_id": 1, "rank_in_cluster": 11}

>  <energy>  (6) 
-8.11

>  <cluster_rmsd>  (6) 
1.58

>  <rmsd>  (6) 
270.35

>  <cluster>  (6) 
1

$$$$

     RDKit          3D

 59 62  0  0  0  0  0  0  0  0999 V2000
  140.8940   77.1090  218.9740 C   0  0  0  0  0  0  0  0  0  0  0  0
  140.1210   77.3520  220.2640 C   0  0  1  0  0  0  0  0  0  0  0  0
  139.7140   76.0680  220.8440 N   0  0  0  0  0  0  0  0  0  0  0  0
  140.7350   75.0920  221.1220 C   0  0  0  0  0  0  0  0  0  0  0  0
  141.9480   75.2920  220.8910 O   0  0  0  0  0  0  0  0  0  0  0  0
  140.2920   73.7840  221.7190 C   0  0  2  0  0  0  0  0  0  0  0  0
  141.4040   72.7590  221.5860 C   0  0  0  0  0  0  0  0  0  0  0  0
  140.9340   71.7270  220.6050 C   0  0  1  0  0  0  0  0  0  0  0  0
  140.7780   70.4730  221.2030 O   0  0  0  0  0  0  0  0  0  0  0  0
  139.6780   72.2880  220.0400 C   0  0  0  0  0  0  0  0  0  0  0  0
  139.1550   73.2780  220.9910 N   0  0  0  0  0  0  0  0  0  0  0  0
  137.7790   73.5760  221.0530 C   0  0  0  0  0  0  0  0  0  0  0  0
  137.3770   74.5240  220.2960 O   0  0  0  0  0  0  0  0  0  0  0  0
  136.7760   72.9180  221.8890 C   0  0  0  0  0  0  0  0  0  0  0  0
  137.4030   72.2180  223.0200 N   0  0  0  0  0  0  0  0  0  0  0  0
  138.0610   70.9930  222.9190 C   0  0  0  0  0  0  0  0  0  0  0  0
  138.1170   70.4580  221.7580 O   0  0  0  0  0  0  0  0  0  0  0  0
  138.6840   70.2830  224.0300 C   0  0  0  0  0  0  0  0  0  0  0  0
  138.6340   68.9030  224.0880 C   0  0  0  0  0  0  0  0  0  0  0  0
  139.1900   68.1620  225.0950 C   0  0  0  0  0  0  0  0  0  0  0  0
  139.8360   68.8820  226.1060 C   0  0  0  0  0  0  0  0  0  0  0  0
  140.4080   68.1570  227.1380 C   0  0  0  0  0  0  0  0  0  0  0  0
  141.0460   68.8570  228.1330 C   0  0  0  0  0  0  0  0  0  0  0  0
  141.5990   68.0960  229.1350 F   0  0  0  0  0  0  0  0  0  0  0  0
  141.1230   70.2230  228.1190 C   0  0  0  0  0  0  0  0  0  0  0  0
  140.5480   70.9350  227.0860 C   0  0  0  0  0  0  0  0  0  0  0  0
  139.8950   70.2730  226.0630 C   0  0  0  0  0  0  0  0  0  0  0  0
  139.3190   70.9460  225.0280 N   0  0  0  0  0  0  0  0  0  0  0  0
  140.8280   78.2240  221.1990 C   0  0  0  0  0  0  0  0  0  0  0  0
  140.7790   77.9370  222.5400 C   0  0  0  0  0  0  0  0  0  0  0  0
  141.4350   78.7420  223.4820 C   0  0  0  0  0  0  0  0  0  0  0  0
  142.1380   79.8360  223.0160 C   0  0  0  0  0  0  0  0  0  0  0  0
  142.9490   80.8300  224.2020 Cl  0  0  0  0  0  0  0  0  0  0  0  0
  142.1870   80.1270  221.6490 C   0  0  0  0  0  0  0  0  0  0  0  0
  141.5260   79.3140  220.7310 C   0  0  0  0  0  0  0  0  0  0  0  0
  141.9178   76.7871  219.2151 H   0  0  0  0  0  0  0  0  0  0  0  0
  140.3918   76.3254  218.3877 H   0  0  0  0  0  0  0  0  0  0  0  0
  140.9305   78.0390  218.3877 H   0  0  0  0  0  0  0  0  0  0  0  0
  139.2065   77.9134  220.0223 H   0  0  0  0  0  0  0  0  0  0  0  0
  138.7080   75.9010  221.0310 H   0  0  0  0  0  0  0  0  0  0  0  0
  140.0374   73.9514  222.7759 H   0  0  0  0  0  0  0  0  0  0  0  0
  142.3206   73.2419  221.2163 H   0  0  0  0  0  0  0  0  0  0  0  0
  141.6332   72.3000  222.5590 H   0  0  0  0  0  0  0  0  0  0  0  0
  141.6654   71.5352  219.8061 H   0  0  0  0  0  0  0  0  0  0  0  0
  139.8410   70.1730  221.2030 H   0  0  0  0  0  0  0  0  0  0  0  0
  139.8865   72.7718  219.0743 H   0  0  0  0  0  0  0  0  0  0  0  0
  138.9411   71.4876  219.8776 H   0  0  0  0  0  0  0  0  0  0  0  0
  136.0796   73.6757  222.2775 H   0  0  0  0  0  0  0  0  0  0  0  0
  136.2413   72.1785  221.2748 H   0  0  0  0  0  0  0  0  0  0  0  0
  137.3400   72.6860  223.9610 H   0  0  0  0  0  0  0  0  0  0  0  0
  138.1169   68.3691  223.2771 H   0  0  0  0  0  0  0  0  0  0  0  0
  139.1324   67.0636  225.1089 H   0  0  0  0  0  0  0  0  0  0  0  0
  140.3534   67.0586  227.1602 H   0  0  0  0  0  0  0  0  0  0  0  0
  141.6428   70.7533  228.9305 H   0  0  0  0  0  0  0  0  0  0  0  0
  140.6095   72.0332  227.0766 H   0  0  0  0  0  0  0  0  0  0  0  0
  140.2138   77.0578  222.8827 H   0  0  0  0  0  0  0  0  0  0  0  0
  141.3913   78.5101  224.5564 H   0  0  0  0  0  0  0  0  0  0  0  0
  142.7509   81.0032  221.2965 H   0  0  0  0  0  0  0  0  0  0  0  0
  141.5612   79.5385  219.6547 H   0  0  0  0  0  0  0  0  0  0  0  0
  1  2  1  0
  2  3  1  0
  3  4  1  0
  4  5  2  0
  4  6  1  0
  6  7  1  0
  7  8  1  0
  8  9  1  0
  8 10  1  0
 10 11  1  0
 11 12  1  0
 12 13  2  0
 12 14  1  0
 14 15  1  0
 15 16  1  0
 16 17  2  0
 16 18  1  0
 18 19  2  0
 19 20  1  0
 20 21  2  0
 21 22  1  0
 22 23  2  0
 23 24  1  0
 23 25  1  0
 25 26  2  0
 26 27  1  0
 27 28  2  0
  2 29  1  0
 29 30  2  0
 30 31  1  0
 31 32  2  0
 32 33  1  0
 32 34  1  0
 34 35  2  0
 11  6  1  0
 28 18  1  0
 35 29  1  0
 27 21  1  0
  1 36  1  0
  1 37  1  0
  1 38  1  0
  2 39  1  6
  3 40  1  0
  6 41  1  1
  7 42  1  0
  7 43  1  0
  8 44  1  6
  9 45  1  0
 10 46  1  0
 10 47  1  0
 14 48  1  0
 14 49  1  0
 15 50  1  0
 19 51  1  0
 20 52  1  0
 22 53  1  0
 25 54  1  0
 26 55  1  0
 30 56  1  0
 31 57  1  0
 34 58  1  0
 35 59  1  0
M  END
>  <smiles>  (7) 
C[C@@H](NC(=O)[C@@H]1C[C@@H](O)CN1C(=O)CNC(=O)c1ccc2cc(F)ccc2n1)c1ccc(Cl)cc1

>  <score_type>  (7) 
oracle

>  <origin>  (7) 
autodockgpu

>  <m_score__min__energy>  (7) 
-10.109999999999999

>  <m_primary>  (7) 
energy

>  <meeko>  (7) 
{"free_energy": -7.79, "intermolecular_energy": -10.18, "internal_energy": -3.61, "cluster_size": 1, "cluster_id": 3, "rank_in_cluster": 1}

>  <energy>  (7) 
-8.1

>  <cluster_rmsd>  (7) 
1.61

>  <rmsd>  (7) 
270.34

>  <cluster>  (7) 
1

$$$$

     RDKit          3D

 59 62  0  0  0  0  0  0  0  0999 V2000
  140.9340   77.0010  218.8720 C   0  0  0  0  0  0  0  0  0  0  0  0
  140.7890   76.6310  220.3420 C   0  0  1  0  0  0  0  0  0  0  0  0
  141.4520   75.3470  220.5930 N   0  0  0  0  0  0  0  0  0  0  0  0
  142.8490   75.2260  220.2680 C   0  0  0  0  0  0  0  0  0  0  0  0
  143.5180   76.1640  219.7830 O   0  0  0  0  0  0  0  0  0  0  0  0
  143.5060   73.9000  220.5380 C   0  0  2  0  0  0  0  0  0  0  0  0
  145.0160   74.0630  220.5180 C   0  0  0  0  0  0  0  0  0  0  0  0
  145.5190   73.3340  219.3080 C   0  0  1  0  0  0  0  0  0  0  0  0
  146.3260   72.2460  219.6540 O   0  0  0  0  0  0  0  0  0  0  0  0
  144.2920   72.9610  218.5540 C   0  0  0  0  0  0  0  0  0  0  0  0
  143.1630   72.9660  219.4930 N   0  0  0  0  0  0  0  0  0  0  0  0
  142.0260   72.1640  219.2730 C   0  0  0  0  0  0  0  0  0  0  0  0
  142.1950   71.1490  218.5150 O   0  0  0  0  0  0  0  0  0  0  0  0
  140.6850   72.3750  219.8180 C   0  0  0  0  0  0  0  0  0  0  0  0
  140.4880   71.6080  221.0580 N   0  0  0  0  0  0  0  0  0  0  0  0
  140.2550   72.1810  222.3070 C   0  0  0  0  0  0  0  0  0  0  0  0
  140.2080   73.4580  222.3600 O   0  0  0  0  0  0  0  0  0  0  0  0
  140.0640   71.4360  223.5460 C   0  0  0  0  0  0  0  0  0  0  0  0
  139.2650   70.3090  223.5630 C   0  0  0  0  0  0  0  0  0  0  0  0
  139.0330   69.5560  224.6820 C   0  0  0  0  0  0  0  0  0  0  0  0
  139.6580   69.9880  225.8560 C   0  0  0  0  0  0  0  0  0  0  0  0
  139.4400   69.2440  227.0040 C   0  0  0  0  0  0  0  0  0  0  0  0
  140.0540   69.6600  228.1600 C   0  0  0  0  0  0  0  0  0  0  0  0
  139.8100   68.8920  229.2740 F   0  0  0  0  0  0  0  0  0  0  0  0
  140.8550   70.7690  228.1940 C   0  0  0  0  0  0  0  0  0  0  0  0
  141.0640   71.5030  227.0440 C   0  0  0  0  0  0  0  0  0  0  0  0
  140.4670   71.1220  225.8570 C   0  0  0  0  0  0  0  0  0  0  0  0
  140.6540   71.8230  224.7040 N   0  0  0  0  0  0  0  0  0  0  0  0
  141.2110   77.6990  221.2460 C   0  0  0  0  0  0  0  0  0  0  0  0
  141.7470   78.8450  220.7140 C   0  0  0  0  0  0  0  0  0  0  0  0
  142.1730   79.8990  221.5330 C   0  0  0  0  0  0  0  0  0  0  0  0
  142.0330   79.7490  222.9000 C   0  0  0  0  0  0  0  0  0  0  0  0
  142.5690   81.0720  223.9080 Cl  0  0  0  0  0  0  0  0  0  0  0  0
  141.4870   78.5810  223.4400 C   0  0  0  0  0  0  0  0  0  0  0  0
  141.0710   77.5450  222.6060 C   0  0  0  0  0  0  0  0  0  0  0  0
  141.3342   78.0222  218.7887 H   0  0  0  0  0  0  0  0  0  0  0  0
  141.6225   76.2963  218.3827 H   0  0  0  0  0  0  0  0  0  0  0  0
  139.9500   76.9517  218.3827 H   0  0  0  0  0  0  0  0  0  0  0  0
  139.7196   76.5052  220.5667 H   0  0  0  0  0  0  0  0  0  0  0  0
  140.8960   74.5680  220.9920 H   0  0  0  0  0  0  0  0  0  0  0  0
  143.1644   73.5350  221.5178 H   0  0  0  0  0  0  0  0  0  0  0  0
  145.2802   75.1289  220.4540 H   0  0  0  0  0  0  0  0  0  0  0  0
  145.4670   73.6584  221.4361 H   0  0  0  0  0  0  0  0  0  0  0  0
  146.1825   73.9517  218.6849 H   0  0  0  0  0  0  0  0  0  0  0  0
  146.0590   71.8400  220.5090 H   0  0  0  0  0  0  0  0  0  0  0  0
  144.1120   73.6898  217.7500 H   0  0  0  0  0  0  0  0  0  0  0  0
  144.4091   71.9647  218.1026 H   0  0  0  0  0  0  0  0  0  0  0  0
  140.5492   73.4453  220.0327 H   0  0  0  0  0  0  0  0  0  0  0  0
  139.9493   72.0320  219.0756 H   0  0  0  0  0  0  0  0  0  0  0  0
  140.5320   70.5590  220.9780 H   0  0  0  0  0  0  0  0  0  0  0  0
  138.7873   69.9987  222.6220 H   0  0  0  0  0  0  0  0  0  0  0  0
  138.3919   68.6625  224.6592 H   0  0  0  0  0  0  0  0  0  0  0  0
  138.7976   68.3512  226.9902 H   0  0  0  0  0  0  0  0  0  0  0  0
  141.3318   71.0751  229.1368 H   0  0  0  0  0  0  0  0  0  0  0  0
  141.7080   72.3944  227.0722 H   0  0  0  0  0  0  0  0  0  0  0  0
  141.8441   78.9379  219.6222 H   0  0  0  0  0  0  0  0  0  0  0  0
  142.6043   80.8149  221.1027 H   0  0  0  0  0  0  0  0  0  0  0  0
  141.3850   78.4790  224.5305 H   0  0  0  0  0  0  0  0  0  0  0  0
  140.6401   76.6241  223.0259 H   0  0  0  0  0  0  0  0  0  0  0  0
  1  2  1  0
  2  3  1  0
  3  4  1  0
  4  5  2  0
  4  6  1  0
  6  7  1  0
  7  8  1  0
  8  9  1  0
  8 10  1  0
 10 11  1  0
 11 12  1  0
 12 13  2  0
 12 14  1  0
 14 15  1  0
 15 16  1  0
 16 17  2  0
 16 18  1  0
 18 19  2  0
 19 20  1  0
 20 21  2  0
 21 22  1  0
 22 23  2  0
 23 24  1  0
 23 25  1  0
 25 26  2  0
 26 27  1  0
 27 28  2  0
  2 29  1  0
 29 30  2  0
 30 31  1  0
 31 32  2  0
 32 33  1  0
 32 34  1  0
 34 35  2  0
 11  6  1  0
 28 18  1  0
 35 29  1  0
 27 21  1  0
  1 36  1  0
  1 37  1  0
  1 38  1  0
  2 39  1  1
  3 40  1  0
  6 41  1  1
  7 42  1  0
  7 43  1  0
  8 44  1  6
  9 45  1  0
 10 46  1  0
 10 47  1  0
 14 48  1  0
 14 49  1  0
 15 50  1  0
 19 51  1  0
 20 52  1  0
 22 53  1  0
 25 54  1  0
 26 55  1  0
 30 56  1  0
 31 57  1  0
 34 58  1  0
 35 59  1  0
M  END
>  <smiles>  (8) 
C[C@@H](NC(=O)[C@@H]1C[C@@H](O)CN1C(=O)CNC(=O)c1ccc2cc(F)ccc2n1)c1ccc(Cl)cc1

>  <score_type>  (8) 
oracle

>  <origin>  (8) 
autodockgpu

>  <m_score__min__energy>  (8) 
-10.109999999999999

>  <m_primary>  (8) 
energy

>  <meeko>  (8) 
{"free_energy": -10.01, "intermolecular_energy": -12.4, "internal_energy": -2.64, "cluster_size": 11, "cluster_id": 1, "rank_in_cluster": 2}

>  <energy>  (8) 
-7.98

>  <cluster_rmsd>  (8) 
1.69

>  <rmsd>  (8) 
270.29

>  <cluster>  (8) 
1

$$$$

     RDKit          3D

 59 62  0  0  0  0  0  0  0  0999 V2000
  142.0950   77.5160  218.6380 C   0  0  0  0  0  0  0  0  0  0  0  0
  141.0370   77.6420  219.7270 C   0  0  1  0  0  0  0  0  0  0  0  0
  140.6550   76.3070  220.1990 N   0  0  0  0  0  0  0  0  0  0  0  0
  141.7020   75.3770  220.5330 C   0  0  0  0  0  0  0  0  0  0  0  0
  142.9170   75.6590  220.4390 O   0  0  0  0  0  0  0  0  0  0  0  0
  141.2850   74.0160  221.0180 C   0  0  2  0  0  0  0  0  0  0  0  0
  142.4350   73.0380  220.8490 C   0  0  0  0  0  0  0  0  0  0  0  0
  142.0320   72.0670  219.7790 C   0  0  1  0  0  0  0  0  0  0  0  0
  141.8990   70.7680  220.2780 O   0  0  0  0  0  0  0  0  0  0  0  0
  140.7760   72.6300  219.2130 C   0  0  0  0  0  0  0  0  0  0  0  0
  140.1890   73.5290  220.2150 N   0  0  0  0  0  0  0  0  0  0  0  0
  138.8030   73.7790  220.2500 C   0  0  0  0  0  0  0  0  0  0  0  0
  138.3990   74.7880  219.5770 O   0  0  0  0  0  0  0  0  0  0  0  0
  137.7910   73.0090  220.9740 C   0  0  0  0  0  0  0  0  0  0  0  0
  138.2930   72.5760  222.2870 N   0  0  0  0  0  0  0  0  0  0  0  0
  139.1090   71.4640  222.4880 C   0  0  0  0  0  0  0  0  0  0  0  0
  139.4380   70.7900  221.4520 O   0  0  0  0  0  0  0  0  0  0  0  0
  139.6100   71.0170  223.7820 C   0  0  0  0  0  0  0  0  0  0  0  0
  140.4190   71.8450  224.5380 C   0  0  0  0  0  0  0  0  0  0  0  0
  140.9310   71.5020  225.7600 C   0  0  0  0  0  0  0  0  0  0  0  0
  140.5940   70.2300  226.2350 C   0  0  0  0  0  0  0  0  0  0  0  0
  141.0990   69.8570  227.4690 C   0  0  0  0  0  0  0  0  0  0  0  0
  140.7690   68.6110  227.9440 C   0  0  0  0  0  0  0  0  0  0  0  0
  141.2920   68.2840  229.1720 F   0  0  0  0  0  0  0  0  0  0  0  0
  139.9710   67.7560  227.2330 C   0  0  0  0  0  0  0  0  0  0  0  0
  139.4740   68.1380  226.0040 C   0  0  0  0  0  0  0  0  0  0  0  0
  139.7800   69.3830  225.4870 C   0  0  0  0  0  0  0  0  0  0  0  0
  139.3040   69.7920  224.2770 N   0  0  0  0  0  0  0  0  0  0  0  0
  141.4240   78.5580  220.7980 C   0  0  0  0  0  0  0  0  0  0  0  0
  141.3890   78.1140  222.0960 C   0  0  0  0  0  0  0  0  0  0  0  0
  141.7450   78.9500  223.1620 C   0  0  0  0  0  0  0  0  0  0  0  0
  142.1370   80.2410  222.8650 C   0  0  0  0  0  0  0  0  0  0  0  0
  142.5770   81.2730  224.2050 Cl  0  0  0  0  0  0  0  0  0  0  0  0
  142.1720   80.6930  221.5420 C   0  0  0  0  0  0  0  0  0  0  0  0
  141.8120   79.8430  220.4970 C   0  0  0  0  0  0  0  0  0  0  0  0
  143.0857   77.3980  219.1012 H   0  0  0  0  0  0  0  0  0  0  0  0
  141.8754   76.6377  218.0133 H   0  0  0  0  0  0  0  0  0  0  0  0
  142.0878   78.4213  218.0133 H   0  0  0  0  0  0  0  0  0  0  0  0
  140.1422   78.1109  219.2918 H   0  0  0  0  0  0  0  0  0  0  0  0
  139.6480   76.0730  220.2730 H   0  0  0  0  0  0  0  0  0  0  0  0
  140.9915   74.0973  222.0750 H   0  0  0  0  0  0  0  0  0  0  0  0
  143.3464   73.5752  220.5477 H   0  0  0  0  0  0  0  0  0  0  0  0
  142.6475   72.5153  221.7933 H   0  0  0  0  0  0  0  0  0  0  0  0
  142.7948   71.9574  218.9940 H   0  0  0  0  0  0  0  0  0  0  0  0
  140.9770   70.5680  220.5560 H   0  0  0  0  0  0  0  0  0  0  0  0
  140.9996   73.1911  218.2936 H   0  0  0  0  0  0  0  0  0  0  0  0
  140.0722   71.8214  218.9664 H   0  0  0  0  0  0  0  0  0  0  0  0
  136.8989   73.6359  221.1195 H   0  0  0  0  0  0  0  0  0  0  0  0
  137.5436   72.1150  220.3828 H   0  0  0  0  0  0  0  0  0  0  0  0
  138.0040   73.1540  223.1190 H   0  0  0  0  0  0  0  0  0  0  0  0
  140.6656   72.8378  224.1335 H   0  0  0  0  0  0  0  0  0  0  0  0
  141.5707   72.1871  226.3356 H   0  0  0  0  0  0  0  0  0  0  0  0
  141.7423   70.5350  228.0490 H   0  0  0  0  0  0  0  0  0  0  0  0
  139.7260   66.7645  227.6414 H   0  0  0  0  0  0  0  0  0  0  0  0
  138.8324   67.4500  225.4339 H   0  0  0  0  0  0  0  0  0  0  0  0
  141.0750   77.0804  222.3035 H   0  0  0  0  0  0  0  0  0  0  0  0
  141.7135   78.5905  224.2011 H   0  0  0  0  0  0  0  0  0  0  0  0
  142.4853   81.7248  221.3246 H   0  0  0  0  0  0  0  0  0  0  0  0
  141.8377   80.1924  219.4543 H   0  0  0  0  0  0  0  0  0  0  0  0
  1  2  1  0
  2  3  1  0
  3  4  1  0
  4  5  2  0
  4  6  1  0
  6  7  1  0
  7  8  1  0
  8  9  1  0
  8 10  1  0
 10 11  1  0
 11 12  1  0
 12 13  2  0
 12 14  1  0
 14 15  1  0
 15 16  1  0
 16 17  2  0
 16 18  1  0
 18 19  2  0
 19 20  1  0
 20 21  2  0
 21 22  1  0
 22 23  2  0
 23 24  1  0
 23 25  1  0
 25 26  2  0
 26 27  1  0
 27 28  2  0
  2 29  1  0
 29 30  2  0
 30 31  1  0
 31 32  2  0
 32 33  1  0
 32 34  1  0
 34 35  2  0
 11  6  1  0
 28 18  1  0
 35 29  1  0
 27 21  1  0
  1 36  1  0
  1 37  1  0
  1 38  1  0
  2 39  1  6
  3 40  1  0
  6 41  1  1
  7 42  1  0
  7 43  1  0
  8 44  1  6
  9 45  1  0
 10 46  1  0
 10 47  1  0
 14 48  1  0
 14 49  1  0
 15 50  1  0
 19 51  1  0
 20 52  1  0
 22 53  1  0
 25 54  1  0
 26 55  1  0
 30 56  1  0
 31 57  1  0
 34 58  1  0
 35 59  1  0
M  END
>  <smiles>  (9) 
C[C@@H](NC(=O)[C@@H]1C[C@@H](O)CN1C(=O)CNC(=O)c1ccc2cc(F)ccc2n1)c1ccc(Cl)cc1

>  <score_type>  (9) 
oracle

>  <origin>  (9) 
autodockgpu

>  <m_score__min__energy>  (9) 
-10.109999999999999

>  <m_primary>  (9) 
energy

>  <meeko>  (9) 
{"free_energy": -7.98, "intermolecular_energy": -10.37, "internal_energy": -3.37, "cluster_size": 11, "cluster_id": 1, "rank_in_cluster": 8}

>  <energy>  (9) 
-7.82

>  <cluster_rmsd>  (9) 
1.66

>  <rmsd>  (9) 
270.38

>  <cluster>  (9) 
1

$$$$

     RDKit          3D

 59 62  0  0  0  0  0  0  0  0999 V2000
  140.9470   77.0460  218.7460 C   0  0  0  0  0  0  0  0  0  0  0  0
  140.8040   76.7090  220.2250 C   0  0  1  0  0  0  0  0  0  0  0  0
  141.4450   75.4200  220.5010 N   0  0  0  0  0  0  0  0  0  0  0  0
  142.8510   75.2840  220.2190 C   0  0  0  0  0  0  0  0  0  0  0  0
  143.5440   76.2140  219.7530 O   0  0  0  0  0  0  0  0  0  0  0  0
  143.4860   73.9520  220.5140 C   0  0  2  0  0  0  0  0  0  0  0  0
  144.9960   74.1030  220.5520 C   0  0  0  0  0  0  0  0  0  0  0  0
  145.5400   73.3700  219.3620 C   0  0  1  0  0  0  0  0  0  0  0  0
  146.3240   72.2750  219.7380 O   0  0  0  0  0  0  0  0  0  0  0  0
  144.3400   73.0080  218.5610 C   0  0  0  0  0  0  0  0  0  0  0  0
  143.1760   73.0210  219.4550 N   0  0  0  0  0  0  0  0  0  0  0  0
  142.0410   72.2300  219.1910 C   0  0  0  0  0  0  0  0  0  0  0  0
  142.2180   71.2470  218.3920 O   0  0  0  0  0  0  0  0  0  0  0  0
  140.6950   72.4170  219.7300 C   0  0  0  0  0  0  0  0  0  0  0  0
  140.5050   71.6400  220.9650 N   0  0  0  0  0  0  0  0  0  0  0  0
  140.3580   72.2020  222.2320 C   0  0  0  0  0  0  0  0  0  0  0  0
  140.3890   73.4780  222.3090 O   0  0  0  0  0  0  0  0  0  0  0  0
  140.1750   71.4460  223.4660 C   0  0  0  0  0  0  0  0  0  0  0  0
  139.4660   70.2600  223.4550 C   0  0  0  0  0  0  0  0  0  0  0  0
  139.2460   69.4930  224.5680 C   0  0  0  0  0  0  0  0  0  0  0  0
  139.7870   69.9740  225.7650 C   0  0  0  0  0  0  0  0  0  0  0  0
  139.5810   69.2170  226.9060 C   0  0  0  0  0  0  0  0  0  0  0  0
  140.1120   69.6810  228.0840 C   0  0  0  0  0  0  0  0  0  0  0  0
  139.8830   68.8980  229.1900 F   0  0  0  0  0  0  0  0  0  0  0  0
  140.8230   70.8500  228.1450 C   0  0  0  0  0  0  0  0  0  0  0  0
  141.0210   71.5960  227.0020 C   0  0  0  0  0  0  0  0  0  0  0  0
  140.5050   71.1670  225.7930 C   0  0  0  0  0  0  0  0  0  0  0  0
  140.6850   71.8790  224.6450 N   0  0  0  0  0  0  0  0  0  0  0  0
  141.2500   77.7890  221.1030 C   0  0  0  0  0  0  0  0  0  0  0  0
  141.1200   77.6380  222.4610 C   0  0  0  0  0  0  0  0  0  0  0  0
  141.5260   78.6420  223.3490 C   0  0  0  0  0  0  0  0  0  0  0  0
  142.0660   79.7950  222.8130 C   0  0  0  0  0  0  0  0  0  0  0  0
  142.5670   81.0400  223.9330 Cl  0  0  0  0  0  0  0  0  0  0  0  0
  142.1980   79.9490  221.4290 C   0  0  0  0  0  0  0  0  0  0  0  0
  141.7860   78.9360  220.5650 C   0  0  0  0  0  0  0  0  0  0  0  0
  141.3747   78.0538  218.6393 H   0  0  0  0  0  0  0  0  0  0  0  0
  141.6116   76.3129  218.2655 H   0  0  0  0  0  0  0  0  0  0  0  0
  139.9580   77.0146  218.2655 H   0  0  0  0  0  0  0  0  0  0  0  0
  139.7338   76.6057  220.4575 H   0  0  0  0  0  0  0  0  0  0  0  0
  140.8700   74.6480  220.8840 H   0  0  0  0  0  0  0  0  0  0  0  0
  143.1038   73.5893  221.4796 H   0  0  0  0  0  0  0  0  0  0  0  0
  145.2708   75.1668  220.4985 H   0  0  0  0  0  0  0  0  0  0  0  0
  145.4080   73.6946  221.4866 H   0  0  0  0  0  0  0  0  0  0  0  0
  146.2328   73.9820  218.7658 H   0  0  0  0  0  0  0  0  0  0  0  0
  146.0380   71.8880  220.5960 H   0  0  0  0  0  0  0  0  0  0  0  0
  144.1971   73.7392  217.7517 H   0  0  0  0  0  0  0  0  0  0  0  0
  144.4664   72.0112  218.1133 H   0  0  0  0  0  0  0  0  0  0  0  0
  140.5413   73.4838  219.9498 H   0  0  0  0  0  0  0  0  0  0  0  0
  139.9681   72.0670  218.9823 H   0  0  0  0  0  0  0  0  0  0  0  0
  140.4830   70.5920  220.8660 H   0  0  0  0  0  0  0  0  0  0  0  0
  139.0543   69.9116  222.4963 H   0  0  0  0  0  0  0  0  0  0  0  0
  138.6767   68.5528  224.5233 H   0  0  0  0  0  0  0  0  0  0  0  0
  139.0116   68.2765  226.8699 H   0  0  0  0  0  0  0  0  0  0  0  0
  141.2358   71.1937  229.1049 H   0  0  0  0  0  0  0  0  0  0  0  0
  141.5912   72.5353  227.0523 H   0  0  0  0  0  0  0  0  0  0  0  0
  140.6877   76.7087  222.8604 H   0  0  0  0  0  0  0  0  0  0  0  0
  141.4185   78.5167  224.4365 H   0  0  0  0  0  0  0  0  0  0  0  0
  142.6293   80.8747  221.0203 H   0  0  0  0  0  0  0  0  0  0  0  0
  141.8873   79.0512  219.4758 H   0  0  0  0  0  0  0  0  0  0  0  0
  1  2  1  0
  2  3  1  0
  3  4  1  0
  4  5  2  0
  4  6  1  0
  6  7  1  0
  7  8  1  0
  8  9  1  0
  8 10  1  0
 10 11  1  0
 11 12  1  0
 12 13  2  0
 12 14  1  0
 14 15  1  0
 15 16  1  0
 16 17  2  0
 16 18  1  0
 18 19  2  0
 19 20  1  0
 20 21  2  0
 21 22  1  0
 22 23  2  0
 23 24  1  0
 23 25  1  0
 25 26  2  0
 26 27  1  0
 27 28  2  0
  2 29  1  0
 29 30  2  0
 30 31  1  0
 31 32  2  0
 32 33  1  0
 32 34  1  0
 34 35  2  0
 11  6  1  0
 28 18  1  0
 35 29  1  0
 27 21  1  0
  1 36  1  0
  1 37  1  0
  1 38  1  0
  2 39  1  6
  3 40  1  0
  6 41  1  1
  7 42  1  0
  7 43  1  0
  8 44  1  6
  9 45  1  0
 10 46  1  0
 10 47  1  0
 14 48  1  0
 14 49  1  0
 15 50  1  0
 19 51  1  0
 20 52  1  0
 22 53  1  0
 25 54  1  0
 26 55  1  0
 30 56  1  0
 31 57  1  0
 34 58  1  0
 35 59  1  0
M  END
>  <smiles>  (10) 
C[C@@H](NC(=O)[C@@H]1C[C@@H](O)CN1C(=O)CNC(=O)c1ccc2cc(F)ccc2n1)c1ccc(Cl)cc1

>  <score_type>  (10) 
oracle

>  <origin>  (10) 
autodockgpu

>  <m_score__min__energy>  (10) 
-10.109999999999999

>  <m_primary>  (10) 
energy

>  <meeko>  (10) 
{"free_energy": -9.99, "intermolecular_energy": -12.38, "internal_energy": -2.66, "cluster_size": 11, "cluster_id": 1, "rank_in_cluster": 3}

>  <energy>  (10) 
-7.68

>  <cluster_rmsd>  (10) 
1.78

>  <rmsd>  (10) 
270.14

>  <cluster>  (10) 
1

$$$$

     RDKit          3D

 59 62  0  0  0  0  0  0  0  0999 V2000
  141.6800   77.3710  218.5650 C   0  0  0  0  0  0  0  0  0  0  0  0
  140.7070   77.4850  219.7320 C   0  0  1  0  0  0  0  0  0  0  0  0
  140.3200   76.1450  220.1830 N   0  0  0  0  0  0  0  0  0  0  0  0
  141.3600   75.2380  220.5950 C   0  0  0  0  0  0  0  0  0  0  0  0
  142.5720   75.5440  220.5840 O   0  0  0  0  0  0  0  0  0  0  0  0
  140.9370   73.8700  221.0560 C   0  0  2  0  0  0  0  0  0  0  0  0
  142.1010   72.9050  220.9290 C   0  0  0  0  0  0  0  0  0  0  0  0
  141.7510   71.9350  219.8400 C   0  0  1  0  0  0  0  0  0  0  0  0
  141.6110   70.6320  220.3270 O   0  0  0  0  0  0  0  0  0  0  0  0
  140.5130   72.4880  219.2270 C   0  0  0  0  0  0  0  0  0  0  0  0
  139.8780   73.3770  220.2080 N   0  0  0  0  0  0  0  0  0  0  0  0
  138.4900   73.6130  220.1900 C   0  0  0  0  0  0  0  0  0  0  0  0
  138.0830   74.4950  219.3580 O   0  0  0  0  0  0  0  0  0  0  0  0
  137.4770   72.9600  221.0190 C   0  0  0  0  0  0  0  0  0  0  0  0
  138.0450   72.5230  222.3040 N   0  0  0  0  0  0  0  0  0  0  0  0
  138.8490   71.3950  222.4640 C   0  0  0  0  0  0  0  0  0  0  0  0
  139.1020   70.7090  221.4150 O   0  0  0  0  0  0  0  0  0  0  0  0
  139.4150   70.9440  223.7300 C   0  0  0  0  0  0  0  0  0  0  0  0
  140.3190   71.7390  224.4090 C   0  0  0  0  0  0  0  0  0  0  0  0
  140.8980   71.3900  225.5990 C   0  0  0  0  0  0  0  0  0  0  0  0
  140.5250   70.1480  226.1250 C   0  0  0  0  0  0  0  0  0  0  0  0
  141.0950   69.7690  227.3290 C   0  0  0  0  0  0  0  0  0  0  0  0
  140.7320   68.5530  227.8530 C   0  0  0  0  0  0  0  0  0  0  0  0
  141.3220   68.2190  229.0480 F   0  0  0  0  0  0  0  0  0  0  0  0
  139.8390   67.7320  227.2190 C   0  0  0  0  0  0  0  0  0  0  0  0
  139.2780   68.1190  226.0190 C   0  0  0  0  0  0  0  0  0  0  0  0
  139.6150   69.3350  225.4540 C   0  0  0  0  0  0  0  0  0  0  0  0
  139.0780   69.7480  224.2720 N   0  0  0  0  0  0  0  0  0  0  0  0
  141.1980   78.3500  220.8030 C   0  0  0  0  0  0  0  0  0  0  0  0
  141.0820   77.9260  222.1030 C   0  0  0  0  0  0  0  0  0  0  0  0
  141.5310   78.7160  223.1700 C   0  0  0  0  0  0  0  0  0  0  0  0
  142.1000   79.9390  222.8700 C   0  0  0  0  0  0  0  0  0  0  0  0
  142.6540   80.9130  224.2120 Cl  0  0  0  0  0  0  0  0  0  0  0  0
  142.2180   80.3690  221.5460 C   0  0  0  0  0  0  0  0  0  0  0  0
  141.7630   79.5670  220.5010 C   0  0  0  0  0  0  0  0  0  0  0  0
  142.7031   77.2511  218.9510 H   0  0  0  0  0  0  0  0  0  0  0  0
  141.4152   76.4977  217.9508 H   0  0  0  0  0  0  0  0  0  0  0  0
  141.6242   78.2818  217.9508 H   0  0  0  0  0  0  0  0  0  0  0  0
  139.7972   77.9936  219.3805 H   0  0  0  0  0  0  0  0  0  0  0  0
  139.3150   75.8910  220.1880 H   0  0  0  0  0  0  0  0  0  0  0  0
  140.6007   73.9428  222.1008 H   0  0  0  0  0  0  0  0  0  0  0  0
  143.0183   73.4524  220.6666 H   0  0  0  0  0  0  0  0  0  0  0  0
  142.2806   72.3801  221.8788 H   0  0  0  0  0  0  0  0  0  0  0  0
  142.5461   71.8367  219.0862 H   0  0  0  0  0  0  0  0  0  0  0  0
  140.7060   70.4580  220.6720 H   0  0  0  0  0  0  0  0  0  0  0  0
  140.7672   73.0549  218.3193 H   0  0  0  0  0  0  0  0  0  0  0  0
  139.8275   71.6735  218.9500 H   0  0  0  0  0  0  0  0  0  0  0  0
  136.6582   73.6690  221.2108 H   0  0  0  0  0  0  0  0  0  0  0  0
  137.1044   72.0748  220.4827 H   0  0  0  0  0  0  0  0  0  0  0  0
  137.8180   73.1110  223.1470 H   0  0  0  0  0  0  0  0  0  0  0  0
  140.5890   72.7094  223.9669 H   0  0  0  0  0  0  0  0  0  0  0  0
  141.6150   72.0477  226.1122 H   0  0  0  0  0  0  0  0  0  0  0  0
  141.8141   70.4200  227.8477 H   0  0  0  0  0  0  0  0  0  0  0  0
  139.5686   66.7639  227.6659 H   0  0  0  0  0  0  0  0  0  0  0  0
  138.5606   67.4581  225.5106 H   0  0  0  0  0  0  0  0  0  0  0  0
  140.6274   76.9463  222.3118 H   0  0  0  0  0  0  0  0  0  0  0  0
  141.4338   78.3741  224.2110 H   0  0  0  0  0  0  0  0  0  0  0  0
  142.6727   81.3464  221.3271 H   0  0  0  0  0  0  0  0  0  0  0  0
  141.8539   79.9003  219.4567 H   0  0  0  0  0  0  0  0  0  0  0  0
  1  2  1  0
  2  3  1  0
  3  4  1  0
  4  5  2  0
  4  6  1  0
  6  7  1  0
  7  8  1  0
  8  9  1  0
  8 10  1  0
 10 11  1  0
 11 12  1  0
 12 13  2  0
 12 14  1  0
 14 15  1  0
 15 16  1  0
 16 17  2  0
 16 18  1  0
 18 19  2  0
 19 20  1  0
 20 21  2  0
 21 22  1  0
 22 23  2  0
 23 24  1  0
 23 25  1  0
 25 26  2  0
 26 27  1  0
 27 28  2  0
  2 29  1  0
 29 30  2  0
 30 31  1  0
 31 32  2  0
 32 33  1  0
 32 34  1  0
 34 35  2  0
 11  6  1  0
 28 18  1  0
 35 29  1  0
 27 21  1  0
  1 36  1  0
  1 37  1  0
  1 38  1  0
  2 39  1  6
  3 40  1  0
  6 41  1  1
  7 42  1  0
  7 43  1  0
  8 44  1  6
  9 45  1  0
 10 46  1  0
 10 47  1  0
 14 48  1  0
 14 49  1  0
 15 50  1  0
 19 51  1  0
 20 52  1  0
 22 53  1  0
 25 54  1  0
 26 55  1  0
 30 56  1  0
 31 57  1  0
 34 58  1  0
 35 59  1  0
M  END
>  <smiles>  (11) 
C[C@@H](NC(=O)[C@@H]1C[C@@H](O)CN1C(=O)CNC(=O)c1ccc2cc(F)ccc2n1)c1ccc(Cl)cc1

>  <score_type>  (11) 
oracle

>  <origin>  (11) 
autodockgpu

>  <m_score__min__energy>  (11) 
-10.109999999999999

>  <m_primary>  (11) 
energy

>  <meeko>  (11) 
{"free_energy": -7.68, "intermolecular_energy": -10.07, "internal_energy": -3.5, "cluster_size": 11, "cluster_id": 1, "rank_in_cluster": 10}

>  <energy>  (11) 
-7.54

>  <cluster_rmsd>  (11) 
1.97

>  <rmsd>  (11) 
270.13

>  <cluster>  (11) 
1

$$$$

     RDKit          3D

 59 62  0  0  0  0  0  0  0  0999 V2000
  142.4470   79.8650  223.8030 C   0  0  0  0  0  0  0  0  0  0  0  0
  141.4590   79.6040  222.6720 C   0  0  1  0  0  0  0  0  0  0  0  0
  141.7350   78.2960  222.0700 N   0  0  0  0  0  0  0  0  0  0  0  0
  141.8510   78.2160  220.6370 C   0  0  0  0  0  0  0  0  0  0  0  0
  141.7270   79.2110  219.8890 O   0  0  0  0  0  0  0  0  0  0  0  0
  142.1390   76.8640  220.0440 C   0  0  2  0  0  0  0  0  0  0  0  0
  142.4900   77.0150  218.5740 C   0  0  0  0  0  0  0  0  0  0  0  0
  141.3680   76.4020  217.7900 C   0  0  1  0  0  0  0  0  0  0  0  0
  141.7870   75.2780  217.0720 O   0  0  0  0  0  0  0  0  0  0  0  0
  140.3130   76.1170  218.8010 C   0  0  0  0  0  0  0  0  0  0  0  0
  140.9560   76.0400  220.1180 N   0  0  0  0  0  0  0  0  0  0  0  0
  140.3980   75.2750  221.1610 C   0  0  0  0  0  0  0  0  0  0  0  0
  140.6000   75.7110  222.3460 O   0  0  0  0  0  0  0  0  0  0  0  0
  139.6190   74.0440  221.0260 C   0  0  0  0  0  0  0  0  0  0  0  0
  139.6540   73.2560  222.2680 N   0  0  0  0  0  0  0  0  0  0  0  0
  139.7620   71.8670  222.3150 C   0  0  0  0  0  0  0  0  0  0  0  0
  139.8400   71.2530  221.1950 O   0  0  0  0  0  0  0  0  0  0  0  0
  139.7920   71.0710  223.5360 C   0  0  0  0  0  0  0  0  0  0  0  0
  139.2370   69.8050  223.5530 C   0  0  0  0  0  0  0  0  0  0  0  0
  139.2220   68.9950  224.6570 C   0  0  0  0  0  0  0  0  0  0  0  0
  139.8110   69.5170  225.8130 C   0  0  0  0  0  0  0  0  0  0  0  0
  139.8090   68.7180  226.9450 C   0  0  0  0  0  0  0  0  0  0  0  0
  140.3890   69.2230  228.0830 C   0  0  0  0  0  0  0  0  0  0  0  0
  140.3640   68.3950  229.1800 F   0  0  0  0  0  0  0  0  0  0  0  0
  140.9520   70.4700  228.1150 C   0  0  0  0  0  0  0  0  0  0  0  0
  140.9460   71.2570  226.9820 C   0  0  0  0  0  0  0  0  0  0  0  0
  140.3740   70.7900  225.8130 C   0  0  0  0  0  0  0  0  0  0  0  0
  140.3540   71.5420  224.6760 N   0  0  0  0  0  0  0  0  0  0  0  0
  140.0660   79.7860  223.0760 C   0  0  0  0  0  0  0  0  0  0  0  0
  139.1370   78.8540  222.6890 C   0  0  0  0  0  0  0  0  0  0  0  0
  137.7870   78.9800  223.0440 C   0  0  0  0  0  0  0  0  0  0  0  0
  137.4200   80.0750  223.8010 C   0  0  0  0  0  0  0  0  0  0  0  0
  135.7330   80.2200  224.2340 Cl  0  0  0  0  0  0  0  0  0  0  0  0
  138.3680   81.0240  224.1950 C   0  0  0  0  0  0  0  0  0  0  0  0
  139.7050   80.8790  223.8300 C   0  0  0  0  0  0  0  0  0  0  0  0
  141.9407   79.7312  224.7703 H   0  0  0  0  0  0  0  0  0  0  0  0
  143.2861   79.1577  223.7274 H   0  0  0  0  0  0  0  0  0  0  0  0
  142.8273   80.8944  223.7274 H   0  0  0  0  0  0  0  0  0  0  0  0
  141.6081   80.3673  221.8941 H   0  0  0  0  0  0  0  0  0  0  0  0
  141.8340   77.4720  222.6900 H   0  0  0  0  0  0  0  0  0  0  0  0
  142.9708   76.4081  220.6011 H   0  0  0  0  0  0  0  0  0  0  0  0
  142.5924   78.0798  218.3175 H   0  0  0  0  0  0  0  0  0  0  0  0
  143.4451   76.5194  218.3456 H   0  0  0  0  0  0  0  0  0  0  0  0
  140.9817   77.0702  217.0062 H   0  0  0  0  0  0  0  0  0  0  0  0
  142.0510   74.5360  217.6620 H   0  0  0  0  0  0  0  0  0  0  0  0
  139.5649   76.9234  218.7974 H   0  0  0  0  0  0  0  0  0  0  0  0
  139.8058   75.1693  218.5673 H   0  0  0  0  0  0  0  0  0  0  0  0
  138.5754   74.3029  220.7941 H   0  0  0  0  0  0  0  0  0  0  0  0
  140.0566   73.4406  220.2170 H   0  0  0  0  0  0  0  0  0  0  0  0
  139.5880   73.7930  223.1720 H   0  0  0  0  0  0  0  0  0  0  0  0
  138.7811   69.4265  222.6262 H   0  0  0  0  0  0  0  0  0  0  0  0
  138.7724   67.9913  224.6358 H   0  0  0  0  0  0  0  0  0  0  0  0
  139.3587   67.7145  226.9327 H   0  0  0  0  0  0  0  0  0  0  0  0
  141.4087   70.8443  229.0431 H   0  0  0  0  0  0  0  0  0  0  0  0
  141.3979   72.2596  227.0087 H   0  0  0  0  0  0  0  0  0  0  0  0
  139.4579   77.9904  222.0880 H   0  0  0  0  0  0  0  0  0  0  0  0
  137.0446   78.2315  222.7301 H   0  0  0  0  0  0  0  0  0  0  0  0
  138.0566   81.8905  224.7969 H   0  0  0  0  0  0  0  0  0  0  0  0
  140.4554   81.6220  224.1379 H   0  0  0  0  0  0  0  0  0  0  0  0
  1  2  1  0
  2  3  1  0
  3  4  1  0
  4  5  2  0
  4  6  1  0
  6  7  1  0
  7  8  1  0
  8  9  1  0
  8 10  1  0
 10 11  1  0
 11 12  1  0
 12 13  2  0
 12 14  1  0
 14 15  1  0
 15 16  1  0
 16 17  2  0
 16 18  1  0
 18 19  2  0
 19 20  1  0
 20 21  2  0
 21 22  1  0
 22 23  2  0
 23 24  1  0
 23 25  1  0
 25 26  2  0
 26 27  1  0
 27 28  2  0
  2 29  1  0
 29 30  2  0
 30 31  1  0
 31 32  2  0
 32 33  1  0
 32 34  1  0
 34 35  2  0
 11  6  1  0
 28 18  1  0
 35 29  1  0
 27 21  1  0
  1 36  1  0
  1 37  1  0
  1 38  1  0
  2 39  1  6
  3 40  1  0
  6 41  1  1
  7 42  1  0
  7 43  1  0
  8 44  1  6
  9 45  1  0
 10 46  1  0
 10 47  1  0
 14 48  1  0
 14 49  1  0
 15 50  1  0
 19 51  1  0
 20 52  1  0
 22 53  1  0
 25 54  1  0
 26 55  1  0
 30 56  1  0
 31 57  1  0
 34 58  1  0
 35 59  1  0
M  END
>  <smiles>  (12) 
C[C@@H](NC(=O)[C@@H]1C[C@@H](O)CN1C(=O)CNC(=O)c1ccc2cc(F)ccc2n1)c1ccc(Cl)cc1

>  <score_type>  (12) 
oracle

>  <origin>  (12) 
autodockgpu

>  <m_score__min__energy>  (12) 
-10.109999999999999

>  <m_primary>  (12) 
energy

>  <meeko>  (12) 
{"free_energy": -8.83, "intermolecular_energy": -11.22, "internal_energy": -2.91, "cluster_size": 4, "cluster_id": 2, "rank_in_cluster": 4}

>  <energy>  (12) 
-9.27

>  <cluster_rmsd>  (12) 
0.0

>  <rmsd>  (12) 
270.99

>  <cluster>  (12) 
2

$$$$

     RDKit          3D

 59 62  0  0  0  0  0  0  0  0999 V2000
  140.4980   76.4650  219.2320 C   0  0  0  0  0  0  0  0  0  0  0  0
  140.5650   76.2360  220.7370 C   0  0  1  0  0  0  0  0  0  0  0  0
  141.2820   74.9880  221.0140 N   0  0  0  0  0  0  0  0  0  0  0  0
  142.6330   74.8570  220.5330 C   0  0  0  0  0  0  0  0  0  0  0  0
  143.2170   75.7580  219.8930 O   0  0  0  0  0  0  0  0  0  0  0  0
  143.3480   73.5670  220.8320 C   0  0  2  0  0  0  0  0  0  0  0  0
  144.8480   73.7990  220.8110 C   0  0  0  0  0  0  0  0  0  0  0  0
  145.3880   73.0670  219.6180 C   0  0  1  0  0  0  0  0  0  0  0  0
  146.2420   72.0240  219.9890 O   0  0  0  0  0  0  0  0  0  0  0  0
  144.1810   72.6240  218.8700 C   0  0  0  0  0  0  0  0  0  0  0  0
  143.0500   72.5970  219.8060 N   0  0  0  0  0  0  0  0  0  0  0  0
  141.9510   71.7410  219.6010 C   0  0  0  0  0  0  0  0  0  0  0  0
  142.1110   70.8250  218.7230 O   0  0  0  0  0  0  0  0  0  0  0  0
  140.6570   71.7950  220.2810 C   0  0  0  0  0  0  0  0  0  0  0  0
  140.7280   71.1590  221.6060 N   0  0  0  0  0  0  0  0  0  0  0  0
  140.4100   71.7990  222.8020 C   0  0  0  0  0  0  0  0  0  0  0  0
  140.0300   73.0180  222.7250 O   0  0  0  0  0  0  0  0  0  0  0  0
  140.4790   71.1850  224.1230 C   0  0  0  0  0  0  0  0  0  0  0  0
  141.0090   71.8890  225.1890 C   0  0  0  0  0  0  0  0  0  0  0  0
  141.1120   71.3860  226.4580 C   0  0  0  0  0  0  0  0  0  0  0  0
  140.6430   70.0810  226.6440 C   0  0  0  0  0  0  0  0  0  0  0  0
  140.7350   69.5480  227.9190 C   0  0  0  0  0  0  0  0  0  0  0  0
  140.2740   68.2680  228.1100 C   0  0  0  0  0  0  0  0  0  0  0  0
  140.3860   67.7800  229.3900 F   0  0  0  0  0  0  0  0  0  0  0  0
  139.7410   67.5320  227.0870 C   0  0  0  0  0  0  0  0  0  0  0  0
  139.6550   68.0740  225.8210 C   0  0  0  0  0  0  0  0  0  0  0  0
  140.1060   69.3590  225.5810 C   0  0  0  0  0  0  0  0  0  0  0  0
  140.0340   69.9240  224.3430 N   0  0  0  0  0  0  0  0  0  0  0  0
  141.0850   77.3900  221.4690 C   0  0  0  0  0  0  0  0  0  0  0  0
  141.0580   77.3730  222.8400 C   0  0  0  0  0  0  0  0  0  0  0  0
  141.5380   78.4530  223.5920 C   0  0  0  0  0  0  0  0  0  0  0  0
  142.0450   79.5400  222.9070 C   0  0  0  0  0  0  0  0  0  0  0  0
  142.6400   80.8790  223.8590 Cl  0  0  0  0  0  0  0  0  0  0  0  0
  142.0720   79.5560  221.5090 C   0  0  0  0  0  0  0  0  0  0  0  0
  141.5870   78.4710  220.7820 C   0  0  0  0  0  0  0  0  0  0  0  0
  140.1942   77.5032  219.0322 H   0  0  0  0  0  0  0  0  0  0  0  0
  141.4877   76.2808  218.7887 H   0  0  0  0  0  0  0  0  0  0  0  0
  139.7637   75.7763  218.7887 H   0  0  0  0  0  0  0  0  0  0  0  0
  139.5395   76.1232  221.1187 H   0  0  0  0  0  0  0  0  0  0  0  0
  140.7960   74.2390  221.5410 H   0  0  0  0  0  0  0  0  0  0  0  0
  143.0207   73.2062  221.8182 H   0  0  0  0  0  0  0  0  0  0  0  0
  145.0628   74.8743  220.7236 H   0  0  0  0  0  0  0  0  0  0  0  0
  145.3146   73.4361  221.7387 H   0  0  0  0  0  0  0  0  0  0  0  0
  146.0259   73.6996  218.9833 H   0  0  0  0  0  0  0  0  0  0  0  0
  145.9900   71.6240  220.8510 H   0  0  0  0  0  0  0  0  0  0  0  0
  143.9707   73.3275  218.0509 H   0  0  0  0  0  0  0  0  0  0  0  0
  144.3441   71.6249  218.4397 H   0  0  0  0  0  0  0  0  0  0  0  0
  140.3588   72.8468  220.4029 H   0  0  0  0  0  0  0  0  0  0  0  0
  139.9193   71.2521  219.6719 H   0  0  0  0  0  0  0  0  0  0  0  0
  141.0430   70.1540  221.6330 H   0  0  0  0  0  0  0  0  0  0  0  0
  141.3686   72.9124  225.0065 H   0  0  0  0  0  0  0  0  0  0  0  0
  141.5389   71.9739  227.2839 H   0  0  0  0  0  0  0  0  0  0  0  0
  141.1622   70.1291  228.7496 H   0  0  0  0  0  0  0  0  0  0  0  0
  139.3814   66.5093  227.2737 H   0  0  0  0  0  0  0  0  0  0  0  0
  139.2260   67.4816  224.9994 H   0  0  0  0  0  0  0  0  0  0  0  0
  140.6510   76.4932  223.3599 H   0  0  0  0  0  0  0  0  0  0  0  0
  141.5120   78.4360  224.6916 H   0  0  0  0  0  0  0  0  0  0  0  0
  142.4787   80.4306  220.9801 H   0  0  0  0  0  0  0  0  0  0  0  0
  141.6051   78.4785  219.6822 H   0  0  0  0  0  0  0  0  0  0  0  0
  1  2  1  0
  2  3  1  0
  3  4  1  0
  4  5  2  0
  4  6  1  0
  6  7  1  0
  7  8  1  0
  8  9  1  0
  8 10  1  0
 10 11  1  0
 11 12  1  0
 12 13  2  0
 12 14  1  0
 14 15  1  0
 15 16  1  0
 16 17  2  0
 16 18  1  0
 18 19  2  0
 19 20  1  0
 20 21  2  0
 21 22  1  0
 22 23  2  0
 23 24  1  0
 23 25  1  0
 25 26  2  0
 26 27  1  0
 27 28  2  0
  2 29  1  0
 29 30  2  0
 30 31  1  0
 31 32  2  0
 32 33  1  0
 32 34  1  0
 34 35  2  0
 11  6  1  0
 28 18  1  0
 35 29  1  0
 27 21  1  0
  1 36  1  0
  1 37  1  0
  1 38  1  0
  2 39  1  1
  3 40  1  0
  6 41  1  1
  7 42  1  0
  7 43  1  0
  8 44  1  6
  9 45  1  0
 10 46  1  0
 10 47  1  0
 14 48  1  0
 14 49  1  0
 15 50  1  0
 19 51  1  0
 20 52  1  0
 22 53  1  0
 25 54  1  0
 26 55  1  0
 30 56  1  0
 31 57  1  0
 34 58  1  0
 35 59  1  0
M  END
>  <smiles>  (13) 
C[C@@H](NC(=O)[C@@H]1C[C@@H](O)CN1C(=O)CNC(=O)c1ccc2cc(F)ccc2n1)c1ccc(Cl)cc1

>  <score_type>  (13) 
oracle

>  <origin>  (13) 
autodockgpu

>  <m_score__min__energy>  (13) 
-10.109999999999999

>  <m_primary>  (13) 
energy

>  <meeko>  (13) 
{"free_energy": -9.76, "intermolecular_energy": -12.15, "internal_energy": -2.75, "cluster_size": 11, "cluster_id": 1, "rank_in_cluster": 5}

>  <energy>  (13) 
-8.9

>  <cluster_rmsd>  (13) 
0.78

>  <rmsd>  (13) 
270.78

>  <cluster>  (13) 
2

$$$$

     RDKit          3D

 59 62  0  0  0  0  0  0  0  0999 V2000
  139.4610   70.6900  222.2060 C   0  0  0  0  0  0  0  0  0  0  0  0
  139.1650   71.4640  223.4850 C   0  0  1  0  0  0  0  0  0  0  0  0
  137.7440   71.8210  223.5270 N   0  0  0  0  0  0  0  0  0  0  0  0
  136.7720   70.7600  223.4670 C   0  0  0  0  0  0  0  0  0  0  0  0
  137.0880   69.5530  223.3800 O   0  0  0  0  0  0  0  0  0  0  0  0
  135.3210   71.1520  223.5150 C   0  0  2  0  0  0  0  0  0  0  0  0
  134.4960   70.1560  222.7200 C   0  0  0  0  0  0  0  0  0  0  0  0
  133.9820   70.8790  221.5100 C   0  0  1  0  0  0  0  0  0  0  0  0
  132.5880   70.9880  221.5220 O   0  0  0  0  0  0  0  0  0  0  0  0
  134.6910   72.1870  221.5230 C   0  0  0  0  0  0  0  0  0  0  0  0
  135.1460   72.4430  222.8950 N   0  0  0  0  0  0  0  0  0  0  0  0
  135.3400   73.7560  223.3670 C   0  0  0  0  0  0  0  0  0  0  0  0
  135.7990   73.8610  224.5560 O   0  0  0  0  0  0  0  0  0  0  0  0
  135.0700   74.9980  222.6440 C   0  0  0  0  0  0  0  0  0  0  0  0
  136.2020   75.9320  222.7520 N   0  0  0  0  0  0  0  0  0  0  0  0
  137.5270   75.5950  222.4840 C   0  0  0  0  0  0  0  0  0  0  0  0
  137.7570   74.3920  222.1160 O   0  0  0  0  0  0  0  0  0  0  0  0
  138.6600   76.5070  222.5920 C   0  0  0  0  0  0  0  0  0  0  0  0
  139.9330   76.0730  222.2720 C   0  0  0  0  0  0  0  0  0  0  0  0
  141.0490   76.8630  222.3490 C   0  0  0  0  0  0  0  0  0  0  0  0
  140.8450   78.1780  222.7800 C   0  0  0  0  0  0  0  0  0  0  0  0
  141.9570   78.9990  222.8650 C   0  0  0  0  0  0  0  0  0  0  0  0
  141.7640   80.2920  223.2850 C   0  0  0  0  0  0  0  0  0  0  0  0
  142.8950   81.0700  223.3540 F   0  0  0  0  0  0  0  0  0  0  0  0
  140.5230   80.7680  223.6110 C   0  0  0  0  0  0  0  0  0  0  0  0
  139.4230   79.9410  223.5220 C   0  0  0  0  0  0  0  0  0  0  0  0
  139.5690   78.6310  223.1050 C   0  0  0  0  0  0  0  0  0  0  0  0
  138.5030   77.7880  223.0040 N   0  0  0  0  0  0  0  0  0  0  0  0
  139.6380   70.7810  224.6880 C   0  0  0  0  0  0  0  0  0  0  0  0
  139.4690   69.4240  224.7910 C   0  0  0  0  0  0  0  0  0  0  0  0
  139.8990   68.7190  225.9230 C   0  0  0  0  0  0  0  0  0  0  0  0
  140.5040   69.4370  226.9370 C   0  0  0  0  0  0  0  0  0  0  0  0
  141.0330   68.5450  228.3430 Cl  0  0  0  0  0  0  0  0  0  0  0  0
  140.6750   70.8200  226.8310 C   0  0  0  0  0  0  0  0  0  0  0  0
  140.2390   71.5010  225.6960 C   0  0  0  0  0  0  0  0  0  0  0  0
  139.8431   69.6908  222.4622 H   0  0  0  0  0  0  0  0  0  0  0  0
  138.5379   70.5894  221.6163 H   0  0  0  0  0  0  0  0  0  0  0  0
  140.2157   71.2311  221.6163 H   0  0  0  0  0  0  0  0  0  0  0  0
  139.7429   72.3998  223.4693 H   0  0  0  0  0  0  0  0  0  0  0  0
  137.4820   72.8210  223.5950 H   0  0  0  0  0  0  0  0  0  0  0  0
  135.0005   71.1755  224.5670 H   0  0  0  0  0  0  0  0  0  0  0  0
  135.1227   69.3054  222.4139 H   0  0  0  0  0  0  0  0  0  0  0  0
  133.6654   69.7629  223.3247 H   0  0  0  0  0  0  0  0  0  0  0  0
  134.1841   70.3387  220.5734 H   0  0  0  0  0  0  0  0  0  0  0  0
  132.1960   70.8680  220.6280 H   0  0  0  0  0  0  0  0  0  0  0  0
  135.5555   72.1497  220.8439 H   0  0  0  0  0  0  0  0  0  0  0  0
  134.0178   72.9898  221.1877 H   0  0  0  0  0  0  0  0  0  0  0  0
  134.8965   74.7653  221.5830 H   0  0  0  0  0  0  0  0  0  0  0  0
  134.1821   75.4733  223.0864 H   0  0  0  0  0  0  0  0  0  0  0  0
  135.9770   76.9150  223.0560 H   0  0  0  0  0  0  0  0  0  0  0  0
  140.0566   75.0329  221.9361 H   0  0  0  0  0  0  0  0  0  0  0  0
  142.0483   76.4852  222.0870 H   0  0  0  0  0  0  0  0  0  0  0  0
  142.9596   78.6284  222.6052 H   0  0  0  0  0  0  0  0  0  0  0  0
  140.4030   81.8096  223.9438 H   0  0  0  0  0  0  0  0  0  0  0  0
  138.4260   80.3250  223.7837 H   0  0  0  0  0  0  0  0  0  0  0  0
  138.9857   68.8775  223.9677 H   0  0  0  0  0  0  0  0  0  0  0  0
  139.7597   67.6307  226.0019 H   0  0  0  0  0  0  0  0  0  0  0  0
  141.1572   71.3749  227.6493 H   0  0  0  0  0  0  0  0  0  0  0  0
  140.3720   72.5893  225.6074 H   0  0  0  0  0  0  0  0  0  0  0  0
  1  2  1  0
  2  3  1  0
  3  4  1  0
  4  5  2  0
  4  6  1  0
  6  7  1  0
  7  8  1  0
  8  9  1  0
  8 10  1  0
 10 11  1  0
 11 12  1  0
 12 13  2  0
 12 14  1  0
 14 15  1  0
 15 16  1  0
 16 17  2  0
 16 18  1  0
 18 19  2  0
 19 20  1  0
 20 21  2  0
 21 22  1  0
 22 23  2  0
 23 24  1  0
 23 25  1  0
 25 26  2  0
 26 27  1  0
 27 28  2  0
  2 29  1  0
 29 30  2  0
 30 31  1  0
 31 32  2  0
 32 33  1  0
 32 34  1  0
 34 35  2  0
 11  6  1  0
 28 18  1  0
 35 29  1  0
 27 21  1  0
  1 36  1  0
  1 37  1  0
  1 38  1  0
  2 39  1  6
  3 40  1  0
  6 41  1  1
  7 42  1  0
  7 43  1  0
  8 44  1  6
  9 45  1  0
 10 46  1  0
 10 47  1  0
 14 48  1  0
 14 49  1  0
 15 50  1  0
 19 51  1  0
 20 52  1  0
 22 53  1  0
 25 54  1  0
 26 55  1  0
 30 56  1  0
 31 57  1  0
 34 58  1  0
 35 59  1  0
M  END
>  <smiles>  (14) 
C[C@@H](NC(=O)[C@@H]1C[C@@H](O)CN1C(=O)CNC(=O)c1ccc2cc(F)ccc2n1)c1ccc(Cl)cc1

>  <score_type>  (14) 
oracle

>  <origin>  (14) 
autodockgpu

>  <m_score__min__energy>  (14) 
-10.109999999999999

>  <m_primary>  (14) 
energy

>  <meeko>  (14) 
{"free_energy": -7.46, "intermolecular_energy": -9.85, "internal_energy": -3.34, "cluster_size": 1, "cluster_id": 4, "rank_in_cluster": 1}

>  <energy>  (14) 
-8.86

>  <cluster_rmsd>  (14) 
0.81

>  <rmsd>  (14) 
270.8

>  <cluster>  (14) 
2

$$$$

     RDKit          3D

 59 62  0  0  0  0  0  0  0  0999 V2000
  143.1500   80.5770  223.8470 C   0  0  0  0  0  0  0  0  0  0  0  0
  142.2270   80.3470  222.6580 C   0  0  1  0  0  0  0  0  0  0  0  0
  142.5560   79.0680  222.0190 N   0  0  0  0  0  0  0  0  0  0  0  0
  141.7770   78.6540  220.8810 C   0  0  0  0  0  0  0  0  0  0  0  0
  140.8380   79.3360  220.4160 O   0  0  0  0  0  0  0  0  0  0  0  0
  142.1370   77.3410  220.2420 C   0  0  2  0  0  0  0  0  0  0  0  0
  142.5540   77.5710  218.8000 C   0  0  0  0  0  0  0  0  0  0  0  0
  141.4910   76.9620  217.9340 C   0  0  1  0  0  0  0  0  0  0  0  0
  141.9810   75.8850  217.1880 O   0  0  0  0  0  0  0  0  0  0  0  0
  140.3990   76.5970  218.8770 C   0  0  0  0  0  0  0  0  0  0  0  0
  140.9800   76.4780  220.2200 N   0  0  0  0  0  0  0  0  0  0  0  0
  140.3970   75.6490  221.1980 C   0  0  0  0  0  0  0  0  0  0  0  0
  140.4420   76.0830  222.4000 O   0  0  0  0  0  0  0  0  0  0  0  0
  139.7540   74.3530  220.9800 C   0  0  0  0  0  0  0  0  0  0  0  0
  139.7430   73.5520  222.2140 N   0  0  0  0  0  0  0  0  0  0  0  0
  139.9340   72.1720  222.2560 C   0  0  0  0  0  0  0  0  0  0  0  0
  140.1350   71.5790  221.1400 O   0  0  0  0  0  0  0  0  0  0  0  0
  139.9200   71.3620  223.4690 C   0  0  0  0  0  0  0  0  0  0  0  0
  139.2990   70.1270  223.4720 C   0  0  0  0  0  0  0  0  0  0  0  0
  139.2390   69.3070  224.5670 C   0  0  0  0  0  0  0  0  0  0  0  0
  139.8530   69.7860  225.7290 C   0  0  0  0  0  0  0  0  0  0  0  0
  139.8080   68.9760  226.8520 C   0  0  0  0  0  0  0  0  0  0  0  0
  140.4110   69.4370  227.9970 C   0  0  0  0  0  0  0  0  0  0  0  0
  140.3410   68.6010  229.0850 F   0  0  0  0  0  0  0  0  0  0  0  0
  141.0390   70.6530  228.0420 C   0  0  0  0  0  0  0  0  0  0  0  0
  141.0770   71.4510  226.9170 C   0  0  0  0  0  0  0  0  0  0  0  0
  140.4830   71.0280  225.7430 C   0  0  0  0  0  0  0  0  0  0  0  0
  140.5040   71.7910  224.6140 N   0  0  0  0  0  0  0  0  0  0  0  0
  140.8120   80.4910  222.9950 C   0  0  0  0  0  0  0  0  0  0  0  0
  140.0970   81.5180  222.4320 C   0  0  0  0  0  0  0  0  0  0  0  0
  138.7400   81.7060  222.7240 C   0  0  0  0  0  0  0  0  0  0  0  0
  138.1400   80.8200  223.5980 C   0  0  0  0  0  0  0  0  0  0  0  0
  136.4470   81.0690  223.9520 Cl  0  0  0  0  0  0  0  0  0  0  0  0
  138.8690   79.7750  224.1710 C   0  0  0  0  0  0  0  0  0  0  0  0
  140.2190   79.6070  223.8670 C   0  0  0  0  0  0  0  0  0  0  0  0
  142.5865   80.4366  224.7812 H   0  0  0  0  0  0  0  0  0  0  0  0
  143.9823   79.8588  223.8094 H   0  0  0  0  0  0  0  0  0  0  0  0
  143.5480   81.6018  223.8094 H   0  0  0  0  0  0  0  0  0  0  0  0
  142.4033   81.1439  221.9205 H   0  0  0  0  0  0  0  0  0  0  0  0
  143.3320   78.5020  222.4080 H   0  0  0  0  0  0  0  0  0  0  0  0
  142.9554   76.8853  220.8187 H   0  0  0  0  0  0  0  0  0  0  0  0
  142.6347   78.6492  218.5974 H   0  0  0  0  0  0  0  0  0  0  0  0
  143.5345   77.1154  218.5973 H   0  0  0  0  0  0  0  0  0  0  0  0
  141.1213   77.6548  217.1637 H   0  0  0  0  0  0  0  0  0  0  0  0
  142.0720   76.1040  216.2330 H   0  0  0  0  0  0  0  0  0  0  0  0
  139.6254   77.3790  218.8729 H   0  0  0  0  0  0  0  0  0  0  0  0
  139.9358   75.6459  218.5755 H   0  0  0  0  0  0  0  0  0  0  0  0
  138.7178   74.5173  220.6493 H   0  0  0  0  0  0  0  0  0  0  0  0
  140.3227   73.8057  220.2138 H   0  0  0  0  0  0  0  0  0  0  0  0
  139.5750   74.0720  223.1140 H   0  0  0  0  0  0  0  0  0  0  0  0
  138.8255   69.7830  222.5406 H   0  0  0  0  0  0  0  0  0  0  0  0
  138.7372   68.3286  224.5347 H   0  0  0  0  0  0  0  0  0  0  0  0
  139.3066   67.9972  226.8277 H   0  0  0  0  0  0  0  0  0  0  0  0
  141.5129   70.9935  228.9745 H   0  0  0  0  0  0  0  0  0  0  0  0
  141.5820   72.4275  226.9547 H   0  0  0  0  0  0  0  0  0  0  0  0
  140.5995   82.2074  221.7376 H   0  0  0  0  0  0  0  0  0  0  0  0
  138.1708   82.5318  222.2723 H   0  0  0  0  0  0  0  0  0  0  0  0
  138.3747   79.0806  224.8663 H   0  0  0  0  0  0  0  0  0  0  0  0
  140.7977   78.7855  224.3145 H   0  0  0  0  0  0  0  0  0  0  0  0
  1  2  1  0
  2  3  1  0
  3  4  1  0
  4  5  2  0
  4  6  1  0
  6  7  1  0
  7  8  1  0
  8  9  1  0
  8 10  1  0
 10 11  1  0
 11 12  1  0
 12 13  2  0
 12 14  1  0
 14 15  1  0
 15 16  1  0
 16 17  2  0
 16 18  1  0
 18 19  2  0
 19 20  1  0
 20 21  2  0
 21 22  1  0
 22 23  2  0
 23 24  1  0
 23 25  1  0
 25 26  2  0
 26 27  1  0
 27 28  2  0
  2 29  1  0
 29 30  2  0
 30 31  1  0
 31 32  2  0
 32 33  1  0
 32 34  1  0
 34 35  2  0
 11  6  1  0
 28 18  1  0
 35 29  1  0
 27 21  1  0
  1 36  1  0
  1 37  1  0
  1 38  1  0
  2 39  1  6
  3 40  1  0
  6 41  1  1
  7 42  1  0
  7 43  1  0
  8 44  1  6
  9 45  1  0
 10 46  1  0
 10 47  1  0
 14 48  1  0
 14 49  1  0
 15 50  1  0
 19 51  1  0
 20 52  1  0
 22 53  1  0
 25 54  1  0
 26 55  1  0
 30 56  1  0
 31 57  1  0
 34 58  1  0
 35 59  1  0
M  END
>  <smiles>  (15) 
C[C@@H](NC(=O)[C@@H]1C[C@@H](O)CN1C(=O)CNC(=O)c1ccc2cc(F)ccc2n1)c1ccc(Cl)cc1

>  <score_type>  (15) 
oracle

>  <origin>  (15) 
autodockgpu

>  <m_score__min__energy>  (15) 
-10.109999999999999

>  <m_primary>  (15) 
energy

>  <meeko>  (15) 
{"free_energy": -9.27, "intermolecular_energy": -11.66, "internal_energy": -2.23, "cluster_size": 4, "cluster_id": 2, "rank_in_cluster": 1}

>  <energy>  (15) 
-8.83

>  <cluster_rmsd>  (15) 
0.86

>  <rmsd>  (15) 
270.78

>  <cluster>  (15) 
2

$$$$

     RDKit          3D

 59 62  0  0  0  0  0  0  0  0999 V2000
  140.7320   76.4930  219.0890 C   0  0  0  0  0  0  0  0  0  0  0  0
  140.6830   76.2050  220.5840 C   0  0  1  0  0  0  0  0  0  0  0  0
  141.3830   74.9480  220.8670 N   0  0  0  0  0  0  0  0  0  0  0  0
  142.7540   74.8230  220.4460 C   0  0  0  0  0  0  0  0  0  0  0  0
  143.3690   75.7350  219.8520 O   0  0  0  0  0  0  0  0  0  0  0  0
  143.4510   73.5250  220.7510 C   0  0  2  0  0  0  0  0  0  0  0  0
  144.9550   73.7240  220.6820 C   0  0  0  0  0  0  0  0  0  0  0  0
  145.4450   72.9580  219.4880 C   0  0  1  0  0  0  0  0  0  0  0  0
  146.2880   71.9050  219.8560 O   0  0  0  0  0  0  0  0  0  0  0  0
  144.2070   72.5260  218.7840 C   0  0  0  0  0  0  0  0  0  0  0  0
  143.1040   72.5410  219.7530 N   0  0  0  0  0  0  0  0  0  0  0  0
  141.9820   71.7040  219.5970 C   0  0  0  0  0  0  0  0  0  0  0  0
  142.1070   70.7520  218.7530 O   0  0  0  0  0  0  0  0  0  0  0  0
  140.7010   71.8150  220.2930 C   0  0  0  0  0  0  0  0  0  0  0  0
  140.7590   71.1780  221.6180 N   0  0  0  0  0  0  0  0  0  0  0  0
  140.4320   71.8170  222.8120 C   0  0  0  0  0  0  0  0  0  0  0  0
  140.0540   73.0370  222.7340 O   0  0  0  0  0  0  0  0  0  0  0  0
  140.4900   71.2020  224.1330 C   0  0  0  0  0  0  0  0  0  0  0  0
  141.0110   71.9040  225.2040 C   0  0  0  0  0  0  0  0  0  0  0  0
  141.1030   71.4000  226.4740 C   0  0  0  0  0  0  0  0  0  0  0  0
  140.6330   70.0950  226.6540 C   0  0  0  0  0  0  0  0  0  0  0  0
  140.7140   69.5600  227.9290 C   0  0  0  0  0  0  0  0  0  0  0  0
  140.2510   68.2800  228.1150 C   0  0  0  0  0  0  0  0  0  0  0  0
  140.3510   67.7920  229.3960 F   0  0  0  0  0  0  0  0  0  0  0  0
  139.7270   67.5460  227.0870 C   0  0  0  0  0  0  0  0  0  0  0  0
  139.6520   68.0890  225.8200 C   0  0  0  0  0  0  0  0  0  0  0  0
  140.1050   69.3740  225.5860 C   0  0  0  0  0  0  0  0  0  0  0  0
  140.0440   69.9400  224.3480 N   0  0  0  0  0  0  0  0  0  0  0  0
  141.1370   77.3300  221.3980 C   0  0  0  0  0  0  0  0  0  0  0  0
  141.6480   78.4390  220.7720 C   0  0  0  0  0  0  0  0  0  0  0  0
  142.1030   79.5440  221.5030 C   0  0  0  0  0  0  0  0  0  0  0  0
  142.0180   79.4840  222.8810 C   0  0  0  0  0  0  0  0  0  0  0  0
  142.5910   80.8700  223.7790 Cl  0  0  0  0  0  0  0  0  0  0  0  0
  141.4980   78.3540  223.5180 C   0  0  0  0  0  0  0  0  0  0  0  0
  141.0520   77.2650  222.7700 C   0  0  0  0  0  0  0  0  0  0  0  0
  140.9145   77.5657  218.9280 H   0  0  0  0  0  0  0  0  0  0  0  0
  141.5439   75.9100  218.6297 H   0  0  0  0  0  0  0  0  0  0  0  0
  139.7730   76.2112  218.6297 H   0  0  0  0  0  0  0  0  0  0  0  0
  139.6318   76.0744  220.8804 H   0  0  0  0  0  0  0  0  0  0  0  0
  140.8710   74.1910  221.3550 H   0  0  0  0  0  0  0  0  0  0  0  0
  143.1450   73.1917  221.7536 H   0  0  0  0  0  0  0  0  0  0  0  0
  145.1898   74.7925  220.5676 H   0  0  0  0  0  0  0  0  0  0  0  0
  145.4405   73.3683  221.6027 H   0  0  0  0  0  0  0  0  0  0  0  0
  146.0766   73.5641  218.8219 H   0  0  0  0  0  0  0  0  0  0  0  0
  146.0960   71.5720  220.7610 H   0  0  0  0  0  0  0  0  0  0  0  0
  143.9870   73.2178  217.9576 H   0  0  0  0  0  0  0  0  0  0  0  0
  144.3368   71.5156  218.3690 H   0  0  0  0  0  0  0  0  0  0  0  0
  140.4509   72.8790  220.4169 H   0  0  0  0  0  0  0  0  0  0  0  0
  139.9333   71.3036  219.6937 H   0  0  0  0  0  0  0  0  0  0  0  0
  141.0730   70.1730  221.6460 H   0  0  0  0  0  0  0  0  0  0  0  0
  141.3728   72.9273  225.0256 H   0  0  0  0  0  0  0  0  0  0  0  0
  141.5221   71.9873  227.3043 H   0  0  0  0  0  0  0  0  0  0  0  0
  141.1345   70.1399  228.7638 H   0  0  0  0  0  0  0  0  0  0  0  0
  139.3654   66.5233  227.2696 H   0  0  0  0  0  0  0  0  0  0  0  0
  139.2304   67.4973  224.9940 H   0  0  0  0  0  0  0  0  0  0  0  0
  141.7015   78.4608  219.6735 H   0  0  0  0  0  0  0  0  0  0  0  0
  142.5142   80.4299  220.9970 H   0  0  0  0  0  0  0  0  0  0  0  0
  141.4402   78.3235  224.6161 H   0  0  0  0  0  0  0  0  0  0  0  0
  140.6411   76.3732  223.2659 H   0  0  0  0  0  0  0  0  0  0  0  0
  1  2  1  0
  2  3  1  0
  3  4  1  0
  4  5  2  0
  4  6  1  0
  6  7  1  0
  7  8  1  0
  8  9  1  0
  8 10  1  0
 10 11  1  0
 11 12  1  0
 12 13  2  0
 12 14  1  0
 14 15  1  0
 15 16  1  0
 16 17  2  0
 16 18  1  0
 18 19  2  0
 19 20  1  0
 20 21  2  0
 21 22  1  0
 22 23  2  0
 23 24  1  0
 23 25  1  0
 25 26  2  0
 26 27  1  0
 27 28  2  0
  2 29  1  0
 29 30  2  0
 30 31  1  0
 31 32  2  0
 32 33  1  0
 32 34  1  0
 34 35  2  0
 11  6  1  0
 28 18  1  0
 35 29  1  0
 27 21  1  0
  1 36  1  0
  1 37  1  0
  1 38  1  0
  2 39  1  1
  3 40  1  0
  6 41  1  1
  7 42  1  0
  7 43  1  0
  8 44  1  6
  9 45  1  0
 10 46  1  0
 10 47  1  0
 14 48  1  0
 14 49  1  0
 15 50  1  0
 19 51  1  0
 20 52  1  0
 22 53  1  0
 25 54  1  0
 26 55  1  0
 30 56  1  0
 31 57  1  0
 34 58  1  0
 35 59  1  0
M  END
>  <smiles>  (16) 
C[C@@H](NC(=O)[C@@H]1C[C@@H](O)CN1C(=O)CNC(=O)c1ccc2cc(F)ccc2n1)c1ccc(Cl)cc1

>  <score_type>  (16) 
oracle

>  <origin>  (16) 
autodockgpu

>  <m_score__min__energy>  (16) 
-10.109999999999999

>  <m_primary>  (16) 
energy

>  <meeko>  (16) 
{"free_energy": -9.79, "intermolecular_energy": -12.18, "internal_energy": -2.72, "cluster_size": 11, "cluster_id": 1, "rank_in_cluster": 4}

>  <energy>  (16) 
-7.79

>  <cluster_rmsd>  (16) 
0.0

>  <rmsd>  (16) 
270.26

>  <cluster>  (16) 
3

$$$$

     RDKit          3D

 59 62  0  0  0  0  0  0  0  0999 V2000
  142.1790   77.4660  218.6710 C   0  0  0  0  0  0  0  0  0  0  0  0
  141.1070   77.5140  219.7520 C   0  0  1  0  0  0  0  0  0  0  0  0
  140.7620   76.1500  220.1650 N   0  0  0  0  0  0  0  0  0  0  0  0
  141.8330   75.2500  220.5070 C   0  0  0  0  0  0  0  0  0  0  0  0
  143.0380   75.5820  220.4680 O   0  0  0  0  0  0  0  0  0  0  0  0
  141.4530   73.8570  220.9300 C   0  0  2  0  0  0  0  0  0  0  0  0
  142.3070   72.8460  220.1860 C   0  0  0  0  0  0  0  0  0  0  0  0
  141.3980   72.1110  219.2460 C   0  0  1  0  0  0  0  0  0  0  0  0
  141.2910   70.7570  219.5760 O   0  0  0  0  0  0  0  0  0  0  0  0
  140.1090   72.8530  219.3110 C   0  0  0  0  0  0  0  0  0  0  0  0
  140.0780   73.6000  220.5750 N   0  0  0  0  0  0  0  0  0  0  0  0
  138.8590   73.9370  221.1950 C   0  0  0  0  0  0  0  0  0  0  0  0
  138.6970   75.1740  221.4750 O   0  0  0  0  0  0  0  0  0  0  0  0
  137.7730   73.0240  221.5500 C   0  0  0  0  0  0  0  0  0  0  0  0
  138.1050   72.2470  222.7540 N   0  0  0  0  0  0  0  0  0  0  0  0
  138.9510   71.1390  222.7650 C   0  0  0  0  0  0  0  0  0  0  0  0
  139.4670   70.7910  221.6480 O   0  0  0  0  0  0  0  0  0  0  0  0
  139.2860   70.3540  223.9480 C   0  0  0  0  0  0  0  0  0  0  0  0
  139.0070   69.0010  223.9860 C   0  0  0  0  0  0  0  0  0  0  0  0
  139.2870   68.1950  225.0560 C   0  0  0  0  0  0  0  0  0  0  0  0
  139.8890   68.8170  226.1560 C   0  0  0  0  0  0  0  0  0  0  0  0
  140.1840   68.0240  227.2520 C   0  0  0  0  0  0  0  0  0  0  0  0
  140.7780   68.6270  228.3340 C   0  0  0  0  0  0  0  0  0  0  0  0
  141.0520   67.8020  229.3990 F   0  0  0  0  0  0  0  0  0  0  0  0
  141.0750   69.9630  228.3440 C   0  0  0  0  0  0  0  0  0  0  0  0
  140.7760   70.7430  227.2450 C   0  0  0  0  0  0  0  0  0  0  0  0
  140.1770   70.1790  226.1340 C   0  0  0  0  0  0  0  0  0  0  0  0
  139.8710   70.9210  225.0320 N   0  0  0  0  0  0  0  0  0  0  0  0
  141.4560   78.3960  220.8640 C   0  0  0  0  0  0  0  0  0  0  0  0
  141.8440   79.6830  220.5930 C   0  0  0  0  0  0  0  0  0  0  0  0
  142.1940   80.5710  221.6200 C   0  0  0  0  0  0  0  0  0  0  0  0
  142.1320   80.1080  222.9200 C   0  0  0  0  0  0  0  0  0  0  0  0
  142.5730   81.2260  224.1890 Cl  0  0  0  0  0  0  0  0  0  0  0  0
  141.7360   78.7960  223.1950 C   0  0  0  0  0  0  0  0  0  0  0  0
  141.3940   77.9300  222.1570 C   0  0  0  0  0  0  0  0  0  0  0  0
  143.1723   77.4215  219.1414 H   0  0  0  0  0  0  0  0  0  0  0  0
  142.0292   76.5737  218.0455 H   0  0  0  0  0  0  0  0  0  0  0  0
  142.1096   78.3682  218.0455 H   0  0  0  0  0  0  0  0  0  0  0  0
  140.2022   77.9723  219.3263 H   0  0  0  0  0  0  0  0  0  0  0  0
  139.7640   75.8740  220.1930 H   0  0  0  0  0  0  0  0  0  0  0  0
  141.6001   73.7696  222.0166 H   0  0  0  0  0  0  0  0  0  0  0  0
  143.0973   73.3621  219.6211 H   0  0  0  0  0  0  0  0  0  0  0  0
  142.7921   72.1507  220.8868 H   0  0  0  0  0  0  0  0  0  0  0  0
  141.7807   72.0886  218.2149 H   0  0  0  0  0  0  0  0  0  0  0  0
  140.6280   70.5970  220.2850 H   0  0  0  0  0  0  0  0  0  0  0  0
  140.0367   73.5504  218.4635 H   0  0  0  0  0  0  0  0  0  0  0  0
  139.2622   72.1527  219.2604 H   0  0  0  0  0  0  0  0  0  0  0  0
  136.8605   73.6082  221.7400 H   0  0  0  0  0  0  0  0  0  0  0  0
  137.6183   72.3246  220.7152 H   0  0  0  0  0  0  0  0  0  0  0  0
  137.6640   72.5610  223.6570 H   0  0  0  0  0  0  0  0  0  0  0  0
  138.5321   68.5453  223.1046 H   0  0  0  0  0  0  0  0  0  0  0  0
  139.0525   67.1203  225.0518 H   0  0  0  0  0  0  0  0  0  0  0  0
  139.9509   66.9490  227.2562 H   0  0  0  0  0  0  0  0  0  0  0  0
  141.5514   70.4146  229.2267 H   0  0  0  0  0  0  0  0  0  0  0  0
  141.0151   71.8167  227.2533 H   0  0  0  0  0  0  0  0  0  0  0  0
  141.8814   80.0258  219.5484 H   0  0  0  0  0  0  0  0  0  0  0  0
  142.5074   81.6018  221.3980 H   0  0  0  0  0  0  0  0  0  0  0  0
  141.6939   78.4446  224.2365 H   0  0  0  0  0  0  0  0  0  0  0  0
  141.0814   76.8966  222.3674 H   0  0  0  0  0  0  0  0  0  0  0  0
  1  2  1  0
  2  3  1  0
  3  4  1  0
  4  5  2  0
  4  6  1  0
  6  7  1  0
  7  8  1  0
  8  9  1  0
  8 10  1  0
 10 11  1  0
 11 12  1  0
 12 13  2  0
 12 14  1  0
 14 15  1  0
 15 16  1  0
 16 17  2  0
 16 18  1  0
 18 19  2  0
 19 20  1  0
 20 21  2  0
 21 22  1  0
 22 23  2  0
 23 24  1  0
 23 25  1  0
 25 26  2  0
 26 27  1  0
 27 28  2  0
  2 29  1  0
 29 30  2  0
 30 31  1  0
 31 32  2  0
 32 33  1  0
 32 34  1  0
 34 35  2  0
 11  6  1  0
 28 18  1  0
 35 29  1  0
 27 21  1  0
  1 36  1  0
  1 37  1  0
  1 38  1  0
  2 39  1  6
  3 40  1  0
  6 41  1  1
  7 42  1  0
  7 43  1  0
  8 44  1  6
  9 45  1  0
 10 46  1  0
 10 47  1  0
 14 48  1  0
 14 49  1  0
 15 50  1  0
 19 51  1  0
 20 52  1  0
 22 53  1  0
 25 54  1  0
 26 55  1  0
 30 56  1  0
 31 57  1  0
 34 58  1  0
 35 59  1  0
M  END
>  <smiles>  (17) 
C[C@@H](NC(=O)[C@@H]1C[C@@H](O)CN1C(=O)CNC(=O)c1ccc2cc(F)ccc2n1)c1ccc(Cl)cc1

>  <score_type>  (17) 
oracle

>  <origin>  (17) 
autodockgpu

>  <m_score__min__energy>  (17) 
-10.109999999999999

>  <m_primary>  (17) 
energy

>  <meeko>  (17) 
{"free_energy": -8.1, "intermolecular_energy": -10.49, "internal_energy": -3.26, "cluster_size": 11, "cluster_id": 1, "rank_in_cluster": 7}

>  <energy>  (17) 
-7.46

>  <cluster_rmsd>  (17) 
0.0

>  <rmsd>  (17) 
269.84

>  <cluster>  (17) 
4

$$$$

     RDKit          3D

 59 62  0  0  0  0  0  0  0  0999 V2000
  141.9140   77.7970  218.4980 C   0  0  0  0  0  0  0  0  0  0  0  0
  140.9150   77.7280  219.6460 C   0  0  1  0  0  0  0  0  0  0  0  0
  140.6600   76.3270  219.9920 N   0  0  0  0  0  0  0  0  0  0  0  0
  141.7780   75.5050  220.3770 C   0  0  0  0  0  0  0  0  0  0  0  0
  142.9510   75.9340  220.4280 O   0  0  0  0  0  0  0  0  0  0  0  0
  141.4890   74.0720  220.7310 C   0  0  2  0  0  0  0  0  0  0  0  0
  142.4430   73.1580  219.9830 C   0  0  0  0  0  0  0  0  0  0  0  0
  141.6270   72.3980  218.9810 C   0  0  1  0  0  0  0  0  0  0  0  0
  141.6110   71.0270  219.2550 O   0  0  0  0  0  0  0  0  0  0  0  0
  140.2840   73.0380  219.0230 C   0  0  0  0  0  0  0  0  0  0  0  0
  140.1510   73.7280  220.3120 N   0  0  0  0  0  0  0  0  0  0  0  0
  138.8880   73.9480  220.8960 C   0  0  0  0  0  0  0  0  0  0  0  0
  138.5380   75.1710  221.0290 O   0  0  0  0  0  0  0  0  0  0  0  0
  137.9480   72.9300  221.3640 C   0  0  0  0  0  0  0  0  0  0  0  0
  138.3590   72.3870  222.6680 N   0  0  0  0  0  0  0  0  0  0  0  0
  139.4790   71.5830  222.8660 C   0  0  0  0  0  0  0  0  0  0  0  0
  140.1890   71.3110  221.8370 O   0  0  0  0  0  0  0  0  0  0  0  0
  139.8970   71.0320  224.1500 C   0  0  0  0  0  0  0  0  0  0  0  0
  140.4630   71.8530  225.1070 C   0  0  0  0  0  0  0  0  0  0  0  0
  140.8830   71.4160  226.3350 C   0  0  0  0  0  0  0  0  0  0  0  0
  140.7130   70.0520  226.5950 C   0  0  0  0  0  0  0  0  0  0  0  0
  141.1300   69.5830  227.8290 C   0  0  0  0  0  0  0  0  0  0  0  0
  140.9630   68.2450  228.0930 C   0  0  0  0  0  0  0  0  0  0  0  0
  141.3900   67.8250  229.3300 F   0  0  0  0  0  0  0  0  0  0  0  0
  140.4070   67.3930  227.1780 C   0  0  0  0  0  0  0  0  0  0  0  0
  139.9970   67.8710  225.9510 C   0  0  0  0  0  0  0  0  0  0  0  0
  140.1450   69.2110  225.6410 C   0  0  0  0  0  0  0  0  0  0  0  0
  139.7480   69.7160  224.4390 N   0  0  0  0  0  0  0  0  0  0  0  0
  141.2970   78.5580  220.7870 C   0  0  0  0  0  0  0  0  0  0  0  0
  141.7830   79.8200  220.5560 C   0  0  0  0  0  0  0  0  0  0  0  0
  142.1680   80.6570  221.6120 C   0  0  0  0  0  0  0  0  0  0  0  0
  142.0400   80.1710  222.8990 C   0  0  0  0  0  0  0  0  0  0  0  0
  142.5260   81.2260  224.2050 Cl  0  0  0  0  0  0  0  0  0  0  0  0
  141.5450   78.8850  223.1320 C   0  0  0  0  0  0  0  0  0  0  0  0
  141.1690   78.0690  222.0660 C   0  0  0  0  0  0  0  0  0  0  0  0
  142.9341   77.8675  218.9034 H   0  0  0  0  0  0  0  0  0  0  0  0
  141.8265   76.8907  217.8808 H   0  0  0  0  0  0  0  0  0  0  0  0
  141.7027   78.6827  217.8808 H   0  0  0  0  0  0  0  0  0  0  0  0
  139.9641   78.1668  219.3093 H   0  0  0  0  0  0  0  0  0  0  0  0
  139.6880   75.9700  219.9460 H   0  0  0  0  0  0  0  0  0  0  0  0
  141.6025   73.9519  221.8185 H   0  0  0  0  0  0  0  0  0  0  0  0
  143.2124   73.7536  219.4699 H   0  0  0  0  0  0  0  0  0  0  0  0
  142.9531   72.4719  220.6752 H   0  0  0  0  0  0  0  0  0  0  0  0
  142.0473   72.4476  217.9657 H   0  0  0  0  0  0  0  0  0  0  0  0
  141.1170   70.8160  220.0790 H   0  0  0  0  0  0  0  0  0  0  0  0
  140.1896   73.7621  218.2004 H   0  0  0  0  0  0  0  0  0  0  0  0
  139.4952   72.2793  218.9122 H   0  0  0  0  0  0  0  0  0  0  0  0
  136.9495   73.3811  221.4616 H   0  0  0  0  0  0  0  0  0  0  0  0
  137.9319   72.1079  220.6333 H   0  0  0  0  0  0  0  0  0  0  0  0
  137.7530   72.6310  223.4940 H   0  0  0  0  0  0  0  0  0  0  0  0
  140.5831   72.9200  224.8683 H   0  0  0  0  0  0  0  0  0  0  0  0
  141.3283   72.0981  227.0742 H   0  0  0  0  0  0  0  0  0  0  0  0
  141.5794   70.2580  228.5722 H   0  0  0  0  0  0  0  0  0  0  0  0
  140.2870   66.3269  227.4210 H   0  0  0  0  0  0  0  0  0  0  0  0
  139.5508   67.1844  225.2165 H   0  0  0  0  0  0  0  0  0  0  0  0
  141.8723   80.1821  219.5212 H   0  0  0  0  0  0  0  0  0  0  0  0
  142.5592   81.6675  221.4225 H   0  0  0  0  0  0  0  0  0  0  0  0
  141.4514   78.5142  224.1634 H   0  0  0  0  0  0  0  0  0  0  0  0
  140.7785   77.0562  222.2440 H   0  0  0  0  0  0  0  0  0  0  0  0
  1  2  1  0
  2  3  1  0
  3  4  1  0
  4  5  2  0
  4  6  1  0
  6  7  1  0
  7  8  1  0
  8  9  1  0
  8 10  1  0
 10 11  1  0
 11 12  1  0
 12 13  2  0
 12 14  1  0
 14 15  1  0
 15 16  1  0
 16 17  2  0
 16 18  1  0
 18 19  2  0
 19 20  1  0
 20 21  2  0
 21 22  1  0
 22 23  2  0
 23 24  1  0
 23 25  1  0
 25 26  2  0
 26 27  1  0
 27 28  2  0
  2 29  1  0
 29 30  2  0
 30 31  1  0
 31 32  2  0
 32 33  1  0
 32 34  1  0
 34 35  2  0
 11  6  1  0
 28 18  1  0
 35 29  1  0
 27 21  1  0
  1 36  1  0
  1 37  1  0
  1 38  1  0
  2 39  1  6
  3 40  1  0
  6 41  1  1
  7 42  1  0
  7 43  1  0
  8 44  1  6
  9 45  1  0
 10 46  1  0
 10 47  1  0
 14 48  1  0
 14 49  1  0
 15 50  1  0
 19 51  1  0
 20 52  1  0
 22 53  1  0
 25 54  1  0
 26 55  1  0
 30 56  1  0
 31 57  1  0
 34 58  1  0
 35 59  1  0
M  END
>  <smiles>  (18) 
C[C@@H](NC(=O)[C@@H]1C[C@@H](O)CN1C(=O)CNC(=O)c1ccc2cc(F)ccc2n1)c1ccc(Cl)cc1

>  <score_type>  (18) 
oracle

>  <origin>  (18) 
autodockgpu

>  <m_score__min__energy>  (18) 
-10.109999999999999

>  <m_primary>  (18) 
energy

>  <meeko>  (18) 
{"free_energy": -7.82, "intermolecular_energy": -10.21, "internal_energy": -3.28, "cluster_size": 11, "cluster_id": 1, "rank_in_cluster": 9}

>  <energy>  (18) 
-7.32

>  <cluster_rmsd>  (18) 
0.0

>  <rmsd>  (18) 
270.2

>  <cluster>  (18) 
5

$$$$

     RDKit          3D

 59 62  0  0  0  0  0  0  0  0999 V2000
  141.1510   77.1670  218.8920 C   0  0  0  0  0  0  0  0  0  0  0  0
  140.8990   76.7940  220.3480 C   0  0  1  0  0  0  0  0  0  0  0  0
  141.5010   75.4880  220.6320 N   0  0  0  0  0  0  0  0  0  0  0  0
  142.8940   75.2980  220.3220 C   0  0  0  0  0  0  0  0  0  0  0  0
  143.6080   76.1950  219.8230 O   0  0  0  0  0  0  0  0  0  0  0  0
  143.4890   73.9500  220.6260 C   0  0  2  0  0  0  0  0  0  0  0  0
  144.9990   74.0700  220.7300 C   0  0  0  0  0  0  0  0  0  0  0  0
  145.5790   73.3400  219.5550 C   0  0  1  0  0  0  0  0  0  0  0  0
  146.3240   72.2250  219.9510 O   0  0  0  0  0  0  0  0  0  0  0  0
  144.4070   73.0120  218.6990 C   0  0  0  0  0  0  0  0  0  0  0  0
  143.2060   73.0390  219.5440 N   0  0  0  0  0  0  0  0  0  0  0  0
  142.0690   72.2740  219.2210 C   0  0  0  0  0  0  0  0  0  0  0  0
  142.2440   71.3460  218.3580 O   0  0  0  0  0  0  0  0  0  0  0  0
  140.7210   72.4330  219.7660 C   0  0  0  0  0  0  0  0  0  0  0  0
  140.5490   71.6440  220.9960 N   0  0  0  0  0  0  0  0  0  0  0  0
  140.3590   72.1960  222.2620 C   0  0  0  0  0  0  0  0  0  0  0  0
  140.3310   73.4720  222.3410 O   0  0  0  0  0  0  0  0  0  0  0  0
  140.1930   71.4300  223.4920 C   0  0  0  0  0  0  0  0  0  0  0  0
  139.5330   70.2160  223.4700 C   0  0  0  0  0  0  0  0  0  0  0  0
  139.3330   69.4370  224.5780 C   0  0  0  0  0  0  0  0  0  0  0  0
  139.8410   69.9360  225.7820 C   0  0  0  0  0  0  0  0  0  0  0  0
  139.6530   69.1680  226.9190 C   0  0  0  0  0  0  0  0  0  0  0  0
  140.1520   69.6500  228.1050 C   0  0  0  0  0  0  0  0  0  0  0  0
  139.9420   68.8550  229.2060 F   0  0  0  0  0  0  0  0  0  0  0  0
  140.8130   70.8460  228.1760 C   0  0  0  0  0  0  0  0  0  0  0  0
  140.9940   71.6030  227.0370 C   0  0  0  0  0  0  0  0  0  0  0  0
  140.5090   71.1570  225.8220 C   0  0  0  0  0  0  0  0  0  0  0  0
  140.6720   71.8800  224.6770 N   0  0  0  0  0  0  0  0  0  0  0  0
  141.2960   77.8440  221.2840 C   0  0  0  0  0  0  0  0  0  0  0  0
  141.7940   79.0220  220.7880 C   0  0  0  0  0  0  0  0  0  0  0  0
  142.1950   80.0600  221.6400 C   0  0  0  0  0  0  0  0  0  0  0  0
  142.0700   79.8600  223.0010 C   0  0  0  0  0  0  0  0  0  0  0  0
  142.5750   81.1640  224.0500 Cl  0  0  0  0  0  0  0  0  0  0  0  0
  141.5620   78.6590  223.5050 C   0  0  0  0  0  0  0  0  0  0  0  0
  141.1710   77.6400  222.6390 C   0  0  0  0  0  0  0  0  0  0  0  0
  141.7663   78.0778  218.8480 H   0  0  0  0  0  0  0  0  0  0  0  0
  141.6785   76.3434  218.3885 H   0  0  0  0  0  0  0  0  0  0  0  0
  140.1901   77.3490  218.3885 H   0  0  0  0  0  0  0  0  0  0  0  0
  139.8139   76.7016  220.5032 H   0  0  0  0  0  0  0  0  0  0  0  0
  140.9080   74.7430  221.0420 H   0  0  0  0  0  0  0  0  0  0  0  0
  143.0588   73.5832  221.5696 H   0  0  0  0  0  0  0  0  0  0  0  0
  145.2967   75.1286  220.7015 H   0  0  0  0  0  0  0  0  0  0  0  0
  145.3625   73.6425  221.6761 H   0  0  0  0  0  0  0  0  0  0  0  0
  146.3088   73.9443  218.9962 H   0  0  0  0  0  0  0  0  0  0  0  0
  146.0450   71.8820  220.8290 H   0  0  0  0  0  0  0  0  0  0  0  0
  144.3134   73.7552  217.8935 H   0  0  0  0  0  0  0  0  0  0  0  0
  144.5321   72.0182  218.2444 H   0  0  0  0  0  0  0  0  0  0  0  0
  140.5489   73.4953  219.9939 H   0  0  0  0  0  0  0  0  0  0  0  0
  139.9980   72.0752  219.0182 H   0  0  0  0  0  0  0  0  0  0  0  0
  140.5760   70.5970  220.8950 H   0  0  0  0  0  0  0  0  0  0  0  0
  139.1458   69.8545  222.5060 H   0  0  0  0  0  0  0  0  0  0  0  0
  138.8034   68.4744  224.5245 H   0  0  0  0  0  0  0  0  0  0  0  0
  139.1225   68.2054  226.8742 H   0  0  0  0  0  0  0  0  0  0  0  0
  141.2001   71.2039  229.1414 H   0  0  0  0  0  0  0  0  0  0  0  0
  141.5257   72.5641  227.0959 H   0  0  0  0  0  0  0  0  0  0  0  0
  141.8804   79.1546  219.6994 H   0  0  0  0  0  0  0  0  0  0  0  0
  142.5958   81.0023  221.2384 H   0  0  0  0  0  0  0  0  0  0  0  0
  141.4704   78.5177  224.5920 H   0  0  0  0  0  0  0  0  0  0  0  0
  140.7710   76.6929  223.0301 H   0  0  0  0  0  0  0  0  0  0  0  0
  1  2  1  0
  2  3  1  0
  3  4  1  0
  4  5  2  0
  4  6  1  0
  6  7  1  0
  7  8  1  0
  8  9  1  0
  8 10  1  0
 10 11  1  0
 11 12  1  0
 12 13  2  0
 12 14  1  0
 14 15  1  0
 15 16  1  0
 16 17  2  0
 16 18  1  0
 18 19  2  0
 19 20  1  0
 20 21  2  0
 21 22  1  0
 22 23  2  0
 23 24  1  0
 23 25  1  0
 25 26  2  0
 26 27  1  0
 27 28  2  0
  2 29  1  0
 29 30  2  0
 30 31  1  0
 31 32  2  0
 32 33  1  0
 32 34  1  0
 34 35  2  0
 11  6  1  0
 28 18  1  0
 35 29  1  0
 27 21  1  0
  1 36  1  0
  1 37  1  0
  1 38  1  0
  2 39  1  6
  3 40  1  0
  6 41  1  1
  7 42  1  0
  7 43  1  0
  8 44  1  6
  9 45  1  0
 10 46  1  0
 10 47  1  0
 14 48  1  0
 14 49  1  0
 15 50  1  0
 19 51  1  0
 20 52  1  0
 22 53  1  0
 25 54  1  0
 26 55  1  0
 30 56  1  0
 31 57  1  0
 34 58  1  0
 35 59  1  0
M  END
>  <smiles>  (19) 
C[C@@H](NC(=O)[C@@H]1C[C@@H](O)CN1C(=O)CNC(=O)c1ccc2cc(F)ccc2n1)c1ccc(Cl)cc1

>  <score_type>  (19) 
oracle

>  <origin>  (19) 
autodockgpu

>  <m_score__min__energy>  (19) 
-10.109999999999999

>  <m_primary>  (19) 
energy

>  <meeko>  (19) 
{"free_energy": -10.11, "intermolecular_energy": -12.49, "internal_energy": -2.6, "cluster_size": 11, "cluster_id": 1, "rank_in_cluster": 1}

>  <energy>  (19) 
-6.82

>  <cluster_rmsd>  (19) 
0.0

>  <rmsd>  (19) 
270.24

>  <cluster>  (19) 
6

$$$$

     RDKit          3D

 59 62  0  0  0  0  0  0  0  0999 V2000
  142.2250   77.5480  218.6180 C   0  0  0  0  0  0  0  0  0  0  0  0
  141.1570   77.5660  219.7040 C   0  0  1  0  0  0  0  0  0  0  0  0
  140.8360   76.1910  220.1000 N   0  0  0  0  0  0  0  0  0  0  0  0
  141.9230   75.3020  220.4200 C   0  0  0  0  0  0  0  0  0  0  0  0
  143.1230   75.6520  220.3740 O   0  0  0  0  0  0  0  0  0  0  0  0
  141.5670   73.8980  220.8270 C   0  0  2  0  0  0  0  0  0  0  0  0
  142.3880   72.9090  220.0200 C   0  0  0  0  0  0  0  0  0  0  0  0
  141.4380   72.1930  219.1070 C   0  0  1  0  0  0  0  0  0  0  0  0
  141.3510   70.8300  219.4100 O   0  0  0  0  0  0  0  0  0  0  0  0
  140.1520   72.9270  219.2490 C   0  0  0  0  0  0  0  0  0  0  0  0
  140.1780   73.6440  220.5300 N   0  0  0  0  0  0  0  0  0  0  0  0
  138.9890   73.9620  221.2150 C   0  0  0  0  0  0  0  0  0  0  0  0
  138.8720   75.1750  221.6010 O   0  0  0  0  0  0  0  0  0  0  0  0
  137.8860   73.0530  221.5260 C   0  0  0  0  0  0  0  0  0  0  0  0
  138.1760   72.2590  222.7310 N   0  0  0  0  0  0  0  0  0  0  0  0
  139.0560   71.1790  222.7660 C   0  0  0  0  0  0  0  0  0  0  0  0
  139.6440   70.8720  221.6720 O   0  0  0  0  0  0  0  0  0  0  0  0
  139.3510   70.3790  223.9500 C   0  0  0  0  0  0  0  0  0  0  0  0
  138.9980   69.0430  223.9900 C   0  0  0  0  0  0  0  0  0  0  0  0
  139.2360   68.2240  225.0610 C   0  0  0  0  0  0  0  0  0  0  0  0
  139.8750   68.8130  226.1580 C   0  0  0  0  0  0  0  0  0  0  0  0
  140.1290   68.0070  227.2550 C   0  0  0  0  0  0  0  0  0  0  0  0
  140.7580   68.5780  228.3340 C   0  0  0  0  0  0  0  0  0  0  0  0
  140.9900   67.7420  229.4000 F   0  0  0  0  0  0  0  0  0  0  0  0
  141.1280   69.8960  228.3410 C   0  0  0  0  0  0  0  0  0  0  0  0
  140.8690   70.6900  227.2420 C   0  0  0  0  0  0  0  0  0  0  0  0
  140.2370   70.1580  226.1330 C   0  0  0  0  0  0  0  0  0  0  0  0
  139.9690   70.9140  225.0310 N   0  0  0  0  0  0  0  0  0  0  0  0
  141.4960   78.4390  220.8250 C   0  0  0  0  0  0  0  0  0  0  0  0
  141.8680   79.7350  220.5680 C   0  0  0  0  0  0  0  0  0  0  0  0
  142.2080   80.6150  221.6040 C   0  0  0  0  0  0  0  0  0  0  0  0
  142.1540   80.1360  222.8990 C   0  0  0  0  0  0  0  0  0  0  0  0
  142.5820   81.2450  224.1800 Cl  0  0  0  0  0  0  0  0  0  0  0  0
  141.7750   78.8160  223.1600 C   0  0  0  0  0  0  0  0  0  0  0  0
  141.4430   77.9580  222.1130 C   0  0  0  0  0  0  0  0  0  0  0  0
  143.2214   77.5312  219.0838 H   0  0  0  0  0  0  0  0  0  0  0  0
  142.0973   76.6519  217.9930 H   0  0  0  0  0  0  0  0  0  0  0  0
  142.1276   78.4479  217.9930 H   0  0  0  0  0  0  0  0  0  0  0  0
  140.2432   78.0161  219.2888 H   0  0  0  0  0  0  0  0  0  0  0  0
  139.8420   75.9010  220.1350 H   0  0  0  0  0  0  0  0  0  0  0  0
  141.7646   73.7854  221.9032 H   0  0  0  0  0  0  0  0  0  0  0  0
  143.1491   73.4417  219.4309 H   0  0  0  0  0  0  0  0  0  0  0  0
  142.9081   72.1994  220.6803 H   0  0  0  0  0  0  0  0  0  0  0  0
  141.7717   72.1968  218.0588 H   0  0  0  0  0  0  0  0  0  0  0  0
  140.7070   70.6490  220.1300 H   0  0  0  0  0  0  0  0  0  0  0  0
  140.0379   73.6437  218.4223 H   0  0  0  0  0  0  0  0  0  0  0  0
  139.3059   72.2246  219.2213 H   0  0  0  0  0  0  0  0  0  0  0  0
  136.9724   73.6417  221.6952 H   0  0  0  0  0  0  0  0  0  0  0  0
  137.7516   72.3647  220.6786 H   0  0  0  0  0  0  0  0  0  0  0  0
  137.6760   72.5390  223.6140 H   0  0  0  0  0  0  0  0  0  0  0  0
  138.4968   68.6130  223.1103 H   0  0  0  0  0  0  0  0  0  0  0  0
  138.9419   67.1640  225.0594 H   0  0  0  0  0  0  0  0  0  0  0  0
  139.8371   66.9465  227.2619 H   0  0  0  0  0  0  0  0  0  0  0  0
  141.6312   70.3219  229.2216 H   0  0  0  0  0  0  0  0  0  0  0  0
  141.1662   71.7491  227.2484 H   0  0  0  0  0  0  0  0  0  0  0  0
  141.8998   80.0901  219.5274 H   0  0  0  0  0  0  0  0  0  0  0  0
  142.5078   81.6522  221.3935 H   0  0  0  0  0  0  0  0  0  0  0  0
  141.7386   78.4524  224.1975 H   0  0  0  0  0  0  0  0  0  0  0  0
  141.1448   76.9181  222.3122 H   0  0  0  0  0  0  0  0  0  0  0  0
  1  2  1  0
  2  3  1  0
  3  4  1  0
  4  5  2  0
  4  6  1  0
  6  7  1  0
  7  8  1  0
  8  9  1  0
  8 10  1  0
 10 11  1  0
 11 12  1  0
 12 13  2  0
 12 14  1  0
 14 15  1  0
 15 16  1  0
 16 17  2  0
 16 18  1  0
 18 19  2  0
 19 20  1  0
 20 21  2  0
 21 22  1  0
 22 23  2  0
 23 24  1  0
 23 25  1  0
 25 26  2  0
 26 27  1  0
 27 28  2  0
  2 29  1  0
 29 30  2  0
 30 31  1  0
 31 32  2  0
 32 33  1  0
 32 34  1  0
 34 35  2  0
 11  6  1  0
 28 18  1  0
 35 29  1  0
 27 21  1  0
  1 36  1  0
  1 37  1  0
  1 38  1  0
  2 39  1  6
  3 40  1  0
  6 41  1  1
  7 42  1  0
  7 43  1  0
  8 44  1  6
  9 45  1  0
 10 46  1  0
 10 47  1  0
 14 48  1  0
 14 49  1  0
 15 50  1  0
 19 51  1  0
 20 52  1  0
 22 53  1  0
 25 54  1  0
 26 55  1  0
 30 56  1  0
 31 57  1  0
 34 58  1  0
 35 59  1  0
M  END
>  <smiles>  (20) 
C[C@@H](NC(=O)[C@@H]1C[C@@H](O)CN1C(=O)CNC(=O)c1ccc2cc(F)ccc2n1)c1ccc(Cl)cc1

>  <score_type>  (20) 
oracle

>  <origin>  (20) 
autodockgpu

>  <m_score__min__energy>  (20) 
-10.109999999999999

>  <m_primary>  (20) 
energy

>  <meeko>  (20) 
{"free_energy": -8.11, "intermolecular_energy": -10.49, "internal_energy": -3.25, "cluster_size": 11, "cluster_id": 1, "rank_in_cluster": 6}

>  <energy>  (20) 
-6.31

>  <cluster_rmsd>  (20) 
1.54

>  <rmsd>  (20) 
270.2

>  <cluster>  (20) 
6

$$$$
