MXRVYNFLTYDQGX-PQYUSCEXNA-O
     RDKit          3D

 65 69  0  0  0  0  0  0  0  0999 V2000
  141.6765   68.2845  227.8412 H   0  0  0  0  0  0  0  0  0  0  0  0
  141.0210   68.5480  226.9980 C   0  0  0  0  0  0  0  0  0  0  0  0
  140.1200   67.6050  226.4930 C   0  0  0  0  0  0  0  0  0  0  0  0
  140.0662   66.6016  226.9405 H   0  0  0  0  0  0  0  0  0  0  0  0
  139.2870   67.9370  225.4190 C   0  0  0  0  0  0  0  0  0  0  0  0
  138.5689   67.1991  225.0320 H   0  0  0  0  0  0  0  0  0  0  0  0
  139.3670   69.2110  224.8350 C   0  0  0  0  0  0  0  0  0  0  0  0
  140.2690   70.1570  225.3430 C   0  0  0  0  0  0  0  0  0  0  0  0
  141.0900   69.8250  226.4330 C   0  0  0  0  0  0  0  0  0  0  0  0
  141.7878   70.5702  226.8425 H   0  0  0  0  0  0  0  0  0  0  0  0
  140.2960   71.5380  224.7430 C   0  0  0  0  0  0  0  0  0  0  0  0
  141.2776   71.9950  224.9371 H   0  0  0  0  0  0  0  0  0  0  0  0
  139.4944   72.1348  225.2027 H   0  0  0  0  0  0  0  0  0  0  0  0
  140.0670   71.4880  223.2860 N   0  0  0  0  0  0  0  0  0  0  0  0
  140.6560   72.4970  222.4370 C   0  0  0  0  0  0  0  0  0  0  0  0
  141.8090   72.2420  221.7680 N   0  0  0  0  0  0  0  0  0  0  0  0
  142.3600   73.1700  220.9450 C   0  0  0  0  0  0  0  0  0  0  0  0
  143.5850   72.8620  220.2450 N   0  0  0  0  0  0  0  0  0  0  0  0
  144.8910   73.1080  220.8660 C   0  0  0  0  0  0  0  0  0  0  0  0
  144.8244   73.9950  221.5132 H   0  0  0  0  0  0  0  0  0  0  0  0
  145.1764   72.2289  221.4623 H   0  0  0  0  0  0  0  0  0  0  0  0
  145.9530   73.3470  219.7870 C   0  0  0  0  0  0  0  0  0  0  0  0
  145.7519   74.3078  219.2906 H   0  0  0  0  0  0  0  0  0  0  0  0
  146.9431   73.3613  220.2661 H   0  0  0  0  0  0  0  0  0  0  0  0
  145.9340   72.3140  218.8210 O   0  0  0  0  0  0  0  0  0  0  0  0
  144.7040   72.3410  218.1210 C   0  0  0  0  0  0  0  0  0  0  0  0
  144.5489   73.3464  217.7026 H   0  0  0  0  0  0  0  0  0  0  0  0
  144.7398   71.5930  217.3153 H   0  0  0  0  0  0  0  0  0  0  0  0
  143.5400   72.0010  219.0560 C   0  0  0  0  0  0  0  0  0  0  0  0
  142.5889   72.1597  218.5267 H   0  0  0  0  0  0  0  0  0  0  0  0
  143.6215   70.9492  219.3676 H   0  0  0  0  0  0  0  0  0  0  0  0
  141.7450   74.3760  220.7930 N   0  0  0  0  0  0  0  0  0  0  0  0
  142.1640   75.1150  220.1840 H   0  0  0  0  0  0  0  0  0  0  0  0
  140.5930   74.6490  221.4640 C   0  0  0  0  0  0  0  0  0  0  0  0
  140.0240   75.8090  221.3110 N   0  0  0  0  0  0  0  0  0  0  0  0
  139.6350   76.7310  222.3820 C   0  0  0  0  0  0  0  0  0  0  0  0
  139.7901   76.2427  223.3554 H   0  0  0  0  0  0  0  0  0  0  0  0
  140.2516   77.6394  222.3137 H   0  0  0  0  0  0  0  0  0  0  0  0
  138.1570   77.1190  222.2400 C   0  0  0  0  0  0  0  0  0  0  0  0
  137.9730   78.0225  222.8399 H   0  0  0  0  0  0  0  0  0  0  0  0
  137.9636   77.2884  221.1705 H   0  0  0  0  0  0  0  0  0  0  0  0
  137.1890   76.0070  222.7140 C   0  0  1  0  0  0  0  0  0  0  0  0
  137.1283   76.0492  223.8115 H   0  0  0  0  0  0  0  0  0  0  0  0
  135.7790   76.2440  222.1390 C   0  0  0  0  0  0  0  0  0  0  0  0
  135.4513   77.2617  222.3976 H   0  0  0  0  0  0  0  0  0  0  0  0
  135.8198   76.1186  221.0469 H   0  0  0  0  0  0  0  0  0  0  0  0
  134.7720   75.2290  222.7130 C   0  0  0  0  0  0  0  0  0  0  0  0
  134.2817   75.6772  223.5897 H   0  0  0  0  0  0  0  0  0  0  0  0
  134.0488   74.9931  221.9184 H   0  0  0  0  0  0  0  0  0  0  0  0
  135.4370   73.9100  223.1420 C   0  0  0  0  0  0  0  0  0  0  0  0
  135.7555   73.9923  224.1917 H   0  0  0  0  0  0  0  0  0  0  0  0
  134.7079   73.0949  223.0237 H   0  0  0  0  0  0  0  0  0  0  0  0
  136.6590   73.6030  222.2700 C   0  0  0  0  0  0  0  0  0  0  0  0
  137.0989   72.6513  222.6028 H   0  0  0  0  0  0  0  0  0  0  0  0
  136.3176   73.5496  221.2257 H   0  0  0  0  0  0  0  0  0  0  0  0
  137.6960   74.6580  222.3490 N   0  0  0  0  0  0  0  0  0  0  0  0
  138.1870   74.6930  221.4250 H   0  0  0  0  0  0  0  0  0  0  0  0
  138.4000   74.3730  223.0670 H   0  0  0  0  0  0  0  0  0  0  0  0
  140.0540   73.7050  222.2850 N   0  0  0  0  0  0  0  0  0  0  0  0
  139.2080   70.4540  222.6770 C   0  0  0  0  0  0  0  0  0  0  0  0
  139.8392   69.7847  222.0740 H   0  0  0  0  0  0  0  0  0  0  0  0
  138.4550   70.9713  222.0643 H   0  0  0  0  0  0  0  0  0  0  0  0
  138.4540   69.6110  223.7160 C   0  0  0  0  0  0  0  0  0  0  0  0
  138.0600   68.7062  223.2301 H   0  0  0  0  0  0  0  0  0  0  0  0
  137.6298   70.2114  224.1287 H   0  0  0  0  0  0  0  0  0  0  0  0
  1  2  1  0
  2  3  2  0
  3  4  1  0
  3  5  1  0
  5  6  1  0
  5  7  2  0
  7  8  1  0
  8  9  2  0
  9 10  1  0
  8 11  1  0
 11 12  1  0
 11 13  1  0
 11 14  1  0
 14 15  1  0
 15 16  1  0
 16 17  2  0
 17 18  1  0
 18 19  1  0
 19 20  1  0
 19 21  1  0
 19 22  1  0
 22 23  1  0
 22 24  1  0
 22 25  1  0
 25 26  1  0
 26 27  1  0
 26 28  1  0
 26 29  1  0
 29 30  1  0
 29 31  1  0
 17 32  1  0
 32 33  1  0
 32 34  1  0
 34 35  2  0
 35 36  1  0
 36 37  1  0
 36 38  1  0
 36 39  1  0
 39 40  1  0
 39 41  1  0
 39 42  1  0
 42 43  1  1
 42 44  1  0
 44 45  1  0
 44 46  1  0
 44 47  1  0
 47 48  1  0
 47 49  1  0
 47 50  1  0
 50 51  1  0
 50 52  1  0
 50 53  1  0
 53 54  1  0
 53 55  1  0
 53 56  1  0
 56 57  1  0
 56 58  1  0
 34 59  1  0
 14 60  1  0
 60 61  1  0
 60 62  1  0
 60 63  1  0
 63 64  1  0
 63 65  1  0
  9  2  1  0
 59 15  2  0
 63  7  1  0
 29 18  1  0
 56 42  1  0
M  CHG  1  56   1
M  END
>  <UniqueID>  (1) 
487

>  <SMILES>  (1) 
c1ccc2c(c1)CCN(c1nc(N3CCOCC3)[nH]/c(=N/CC[C@H]3CCCC[NH2+]3)n1)C2

>  <Energy>  (1) 
76.1538113849742

>  <Genealogy>  (1) 
c1ccc2c(c1)CCN(c1nc(NCCC3CCCC[NH2+]3)nc(N3CCOCC3)n1)C2 (protonated)
c1ccc2c(c1)CCN(c1nc(N3CCOCC3)[nH]c(=NCCC3CCCC[NH2+]3)n1)C2 (tautomer)
c1ccc2c(c1)CCN(c1nc(N3CCOCC3)[nH]c(=NCC[C@H]3CCCC[NH2+]3)n1)C2 (chirality)
c1ccc2c(c1)CCN(c1nc(N3CCOCC3)[nH]/c(=N/CC[C@H]3CCCC[NH2+]3)n1)C2 (cis-trans isomerization)
c1ccc2c(c1)CCN(c1nc(N3CCOCC3)[nH]/c(=N/CC[C@H]3CCCC[NH2+]3)n1)C2 (3D coordinates assigned)
c1ccc2c(c1)CCN(c1nc(N3CCOCC3)[nH]/c(=N/CC[C@H]3CCCC[NH2+]3)n1)C2 (nonaromatic ring conformer: 76.1538113849742 kcal/mol)

>  <smiles>  (1) 
c1ccc2c(c1)CCN(c1nc(NCCC3CCCCN3)nc(N3CCOCC3)n1)C2

>  <score_type>  (1) 
oracle

>  <origin>  (1) 
autodockgpu

>  <m_score__min__energy>  (1) 
-10.529999999999999

>  <m_primary>  (1) 
energy

>  <meeko>  (1) 
{"free_energy": -8.25, "intermolecular_energy": -10.04, "internal_energy": -2.56, "cluster_size": 3, "cluster_id": 2, "rank_in_cluster": 2}

>  <energy>  (1) 
-10.53

>  <cluster_rmsd>  (1) 
0.0

>  <rmsd>  (1) 
272.05

>  <cluster>  (1) 
1

$$$$
MXRVYNFLTYDQGX-PQYUSCEXNA-O
     RDKit          3D

 65 69  0  0  0  0  0  0  0  0999 V2000
  141.6613   68.3941  227.7429 H   0  0  0  0  0  0  0  0  0  0  0  0
  141.0000   68.6840  226.9130 C   0  0  0  0  0  0  0  0  0  0  0  0
  140.0650   67.7710  226.4130 C   0  0  0  0  0  0  0  0  0  0  0  0
  139.9907   66.7645  226.8506 H   0  0  0  0  0  0  0  0  0  0  0  0
  139.2250   68.1380  225.3570 C   0  0  0  0  0  0  0  0  0  0  0  0
  138.4811   67.4240  224.9739 H   0  0  0  0  0  0  0  0  0  0  0  0
  139.3290   69.4150  224.7850 C   0  0  0  0  0  0  0  0  0  0  0  0
  140.2650   70.3310  225.2870 C   0  0  0  0  0  0  0  0  0  0  0  0
  141.0950   69.9650  226.3590 C   0  0  0  0  0  0  0  0  0  0  0  0
  141.8205   70.6862  226.7634 H   0  0  0  0  0  0  0  0  0  0  0  0
  140.3190   71.7170  224.7000 C   0  0  0  0  0  0  0  0  0  0  0  0
  141.3155   72.1457  224.8823 H   0  0  0  0  0  0  0  0  0  0  0  0
  139.5409   72.3296  225.1788 H   0  0  0  0  0  0  0  0  0  0  0  0
  140.0650   71.6890  223.2470 N   0  0  0  0  0  0  0  0  0  0  0  0
  140.6670   72.6900  222.3990 C   0  0  0  0  0  0  0  0  0  0  0  0
  141.7920   72.4050  221.6940 N   0  0  0  0  0  0  0  0  0  0  0  0
  142.3540   73.3260  220.8700 C   0  0  0  0  0  0  0  0  0  0  0  0
  143.5460   72.9860  220.1320 N   0  0  0  0  0  0  0  0  0  0  0  0
  144.2560   73.9960  219.3380 C   0  0  0  0  0  0  0  0  0  0  0  0
  143.5290   74.7119  218.9268 H   0  0  0  0  0  0  0  0  0  0  0  0
  144.9750   74.5205  219.9845 H   0  0  0  0  0  0  0  0  0  0  0  0
  145.0140   73.3270  218.1870 C   0  0  0  0  0  0  0  0  0  0  0  0
  144.2890   72.9344  217.4588 H   0  0  0  0  0  0  0  0  0  0  0  0
  145.6669   74.0760  217.7150 H   0  0  0  0  0  0  0  0  0  0  0  0
  145.8170   72.2630  218.6600 O   0  0  0  0  0  0  0  0  0  0  0  0
  144.9910   71.2400  219.1830 C   0  0  0  0  0  0  0  0  0  0  0  0
  144.2593   70.9403  218.4182 H   0  0  0  0  0  0  0  0  0  0  0  0
  145.6225   70.3840  219.4631 H   0  0  0  0  0  0  0  0  0  0  0  0
  144.2450   71.7300  220.4280 C   0  0  0  0  0  0  0  0  0  0  0  0
  143.5127   70.9695  220.7368 H   0  0  0  0  0  0  0  0  0  0  0  0
  144.9686   71.9017  221.2385 H   0  0  0  0  0  0  0  0  0  0  0  0
  141.7790   74.5560  220.7550 N   0  0  0  0  0  0  0  0  0  0  0  0
  142.2080   75.2900  220.1470 H   0  0  0  0  0  0  0  0  0  0  0  0
  140.6570   74.8590  221.4630 C   0  0  0  0  0  0  0  0  0  0  0  0
  140.1260   76.0420  221.3450 N   0  0  0  0  0  0  0  0  0  0  0  0
  140.1140   76.8680  220.1350 C   0  0  0  0  0  0  0  0  0  0  0  0
  141.0646   76.7376  219.5971 H   0  0  0  0  0  0  0  0  0  0  0  0
  139.2742   76.5558  219.4969 H   0  0  0  0  0  0  0  0  0  0  0  0
  139.9390   78.3470  220.5020 C   0  0  0  0  0  0  0  0  0  0  0  0
  139.9683   78.9427  219.5777 H   0  0  0  0  0  0  0  0  0  0  0  0
  138.9756   78.4432  221.0242 H   0  0  0  0  0  0  0  0  0  0  0  0
  141.0370   78.8700  221.4600 C   0  0  1  0  0  0  0  0  0  0  0  0
  141.9886   78.8959  220.9088 H   0  0  0  0  0  0  0  0  0  0  0  0
  140.7070   80.3010  221.9250 C   0  0  0  0  0  0  0  0  0  0  0  0
  140.5444   80.9374  221.0426 H   0  0  0  0  0  0  0  0  0  0  0  0
  139.8010   80.2667  222.5479 H   0  0  0  0  0  0  0  0  0  0  0  0
  141.8570   80.8880  222.7640 C   0  0  0  0  0  0  0  0  0  0  0  0
  142.5195   81.4624  222.0998 H   0  0  0  0  0  0  0  0  0  0  0  0
  141.4093   81.5241  223.5418 H   0  0  0  0  0  0  0  0  0  0  0  0
  142.6890   79.8050  223.4720 C   0  0  0  0  0  0  0  0  0  0  0  0
  143.5070   79.4885  222.8082 H   0  0  0  0  0  0  0  0  0  0  0  0
  143.0912   80.2261  224.4052 H   0  0  0  0  0  0  0  0  0  0  0  0
  141.8250   78.5880  223.8180 C   0  0  0  0  0  0  0  0  0  0  0  0
  142.4538   77.8430  224.3274 H   0  0  0  0  0  0  0  0  0  0  0  0
  141.0039   78.9349  224.4625 H   0  0  0  0  0  0  0  0  0  0  0  0
  141.2200   77.9590  222.6200 N   0  0  0  0  0  0  0  0  0  0  0  0
  140.3020   77.5460  222.9050 H   0  0  0  0  0  0  0  0  0  0  0  0
  141.8370   77.1710  222.3170 H   0  0  0  0  0  0  0  0  0  0  0  0
  140.1070   73.9210  222.2830 N   0  0  0  0  0  0  0  0  0  0  0  0
  139.1680   70.6840  222.6420 C   0  0  0  0  0  0  0  0  0  0  0  0
  139.7709   70.0042  222.0220 H   0  0  0  0  0  0  0  0  0  0  0  0
  138.4192   71.2275  222.0471 H   0  0  0  0  0  0  0  0  0  0  0  0
  138.4090   69.8510  223.6850 C   0  0  0  0  0  0  0  0  0  0  0  0
  137.9829   68.9621  223.1968 H   0  0  0  0  0  0  0  0  0  0  0  0
  137.6084   70.4692  224.1173 H   0  0  0  0  0  0  0  0  0  0  0  0
  1  2  1  0
  2  3  2  0
  3  4  1  0
  3  5  1  0
  5  6  1  0
  5  7  2  0
  7  8  1  0
  8  9  2  0
  9 10  1  0
  8 11  1  0
 11 12  1  0
 11 13  1  0
 11 14  1  0
 14 15  1  0
 15 16  1  0
 16 17  2  0
 17 18  1  0
 18 19  1  0
 19 20  1  0
 19 21  1  0
 19 22  1  0
 22 23  1  0
 22 24  1  0
 22 25  1  0
 25 26  1  0
 26 27  1  0
 26 28  1  0
 26 29  1  0
 29 30  1  0
 29 31  1  0
 17 32  1  0
 32 33  1  0
 32 34  1  0
 34 35  2  0
 35 36  1  0
 36 37  1  0
 36 38  1  0
 36 39  1  0
 39 40  1  0
 39 41  1  0
 39 42  1  0
 42 43  1  6
 42 44  1  0
 44 45  1  0
 44 46  1  0
 44 47  1  0
 47 48  1  0
 47 49  1  0
 47 50  1  0
 50 51  1  0
 50 52  1  0
 50 53  1  0
 53 54  1  0
 53 55  1  0
 53 56  1  0
 56 57  1  0
 56 58  1  0
 34 59  1  0
 14 60  1  0
 60 61  1  0
 60 62  1  0
 60 63  1  0
 63 64  1  0
 63 65  1  0
  9  2  1  0
 59 15  2  0
 63  7  1  0
 29 18  1  0
 56 42  1  0
M  CHG  1  56   1
M  END
>  <UniqueID>  (2) 
487

>  <SMILES>  (2) 
c1ccc2c(c1)CCN(c1nc(N3CCOCC3)[nH]/c(=N/CC[C@H]3CCCC[NH2+]3)n1)C2

>  <Energy>  (2) 
76.1538113849742

>  <Genealogy>  (2) 
c1ccc2c(c1)CCN(c1nc(NCCC3CCCC[NH2+]3)nc(N3CCOCC3)n1)C2 (protonated)
c1ccc2c(c1)CCN(c1nc(N3CCOCC3)[nH]c(=NCCC3CCCC[NH2+]3)n1)C2 (tautomer)
c1ccc2c(c1)CCN(c1nc(N3CCOCC3)[nH]c(=NCC[C@H]3CCCC[NH2+]3)n1)C2 (chirality)
c1ccc2c(c1)CCN(c1nc(N3CCOCC3)[nH]/c(=N/CC[C@H]3CCCC[NH2+]3)n1)C2 (cis-trans isomerization)
c1ccc2c(c1)CCN(c1nc(N3CCOCC3)[nH]/c(=N/CC[C@H]3CCCC[NH2+]3)n1)C2 (3D coordinates assigned)
c1ccc2c(c1)CCN(c1nc(N3CCOCC3)[nH]/c(=N/CC[C@H]3CCCC[NH2+]3)n1)C2 (nonaromatic ring conformer: 76.1538113849742 kcal/mol)

>  <smiles>  (2) 
c1ccc2c(c1)CCN(c1nc(NCCC3CCCCN3)nc(N3CCOCC3)n1)C2

>  <score_type>  (2) 
oracle

>  <origin>  (2) 
autodockgpu

>  <m_score__min__energy>  (2) 
-10.529999999999999

>  <m_primary>  (2) 
energy

>  <meeko>  (2) 
{"free_energy": -8.98, "intermolecular_energy": -10.77, "internal_energy": -1.57, "cluster_size": 11, "cluster_id": 1, "rank_in_cluster": 9}

>  <energy>  (2) 
-10.32

>  <cluster_rmsd>  (2) 
0.42

>  <rmsd>  (2) 
271.89

>  <cluster>  (2) 
1

$$$$
MXRVYNFLTYDQGX-PQYUSCEXNA-O
     RDKit          3D

 65 69  0  0  0  0  0  0  0  0999 V2000
  141.5701   68.4739  228.0549 H   0  0  0  0  0  0  0  0  0  0  0  0
  140.9990   68.6310  227.1280 C   0  0  0  0  0  0  0  0  0  0  0  0
  140.3100   67.5630  226.5430 C   0  0  0  0  0  0  0  0  0  0  0  0
  140.3378   66.5681  227.0114 H   0  0  0  0  0  0  0  0  0  0  0  0
  139.5860   67.7600  225.3630 C   0  0  0  0  0  0  0  0  0  0  0  0
  139.0337   66.9228  224.9112 H   0  0  0  0  0  0  0  0  0  0  0  0
  139.5630   69.0250  224.7540 C   0  0  0  0  0  0  0  0  0  0  0  0
  140.2520   70.0960  225.3420 C   0  0  0  0  0  0  0  0  0  0  0  0
  140.9630   69.8970  226.5370 C   0  0  0  0  0  0  0  0  0  0  0  0
  141.4920   70.7385  227.0082 H   0  0  0  0  0  0  0  0  0  0  0  0
  140.1640   71.4590  224.7070 C   0  0  0  0  0  0  0  0  0  0  0  0
  141.0389   72.0534  225.0092 H   0  0  0  0  0  0  0  0  0  0  0  0
  139.2343   71.9417  225.0427 H   0  0  0  0  0  0  0  0  0  0  0  0
  140.1350   71.3580  223.2360 N   0  0  0  0  0  0  0  0  0  0  0  0
  140.6830   72.4290  222.4370 C   0  0  0  0  0  0  0  0  0  0  0  0
  141.8320   72.2440  221.7380 N   0  0  0  0  0  0  0  0  0  0  0  0
  142.3450   73.2310  220.9610 C   0  0  0  0  0  0  0  0  0  0  0  0
  143.5660   72.9970  220.2270 N   0  0  0  0  0  0  0  0  0  0  0  0
  144.8670   73.0070  220.9050 C   0  0  0  0  0  0  0  0  0  0  0  0
  144.8411   73.7336  221.7305 H   0  0  0  0  0  0  0  0  0  0  0  0
  145.0754   72.0007  221.2973 H   0  0  0  0  0  0  0  0  0  0  0  0
  145.9730   73.3990  219.9200 C   0  0  0  0  0  0  0  0  0  0  0  0
  145.8516   74.4572  219.6452 H   0  0  0  0  0  0  0  0  0  0  0  0
  146.9473   73.2360  220.4039 H   0  0  0  0  0  0  0  0  0  0  0  0
  145.9130   72.6070  218.7490 O   0  0  0  0  0  0  0  0  0  0  0  0
  144.7090   72.8750  218.0560 C   0  0  0  0  0  0  0  0  0  0  0  0
  144.6340   73.9561  217.8675 H   0  0  0  0  0  0  0  0  0  0  0  0
  144.7176   72.3211  217.1057 H   0  0  0  0  0  0  0  0  0  0  0  0
  143.4980   72.4230  218.8780 C   0  0  0  0  0  0  0  0  0  0  0  0
  142.5753   72.7614  218.3840 H   0  0  0  0  0  0  0  0  0  0  0  0
  143.5002   71.3255  218.9515 H   0  0  0  0  0  0  0  0  0  0  0  0
  141.6960   74.4270  220.8860 N   0  0  0  0  0  0  0  0  0  0  0  0
  142.0850   75.2100  220.3150 H   0  0  0  0  0  0  0  0  0  0  0  0
  140.5480   74.6290  221.5890 C   0  0  0  0  0  0  0  0  0  0  0  0
  139.9450   75.7810  221.5100 N   0  0  0  0  0  0  0  0  0  0  0  0
  138.9880   76.1880  220.4790 C   0  0  0  0  0  0  0  0  0  0  0  0
  139.4634   76.9227  219.8125 H   0  0  0  0  0  0  0  0  0  0  0  0
  138.6818   75.3009  219.9051 H   0  0  0  0  0  0  0  0  0  0  0  0
  137.7470   76.8180  221.1230 C   0  0  0  0  0  0  0  0  0  0  0  0
  138.0739   77.6200  221.8012 H   0  0  0  0  0  0  0  0  0  0  0  0
  137.1134   77.1989  220.3085 H   0  0  0  0  0  0  0  0  0  0  0  0
  136.8990   75.8050  221.9310 C   0  0  1  0  0  0  0  0  0  0  0  0
  136.6814   76.2470  222.9145 H   0  0  0  0  0  0  0  0  0  0  0  0
  135.5620   75.5320  221.2150 C   0  0  0  0  0  0  0  0  0  0  0  0
  135.0532   76.4887  221.0259 H   0  0  0  0  0  0  0  0  0  0  0  0
  135.7710   75.0131  220.2678 H   0  0  0  0  0  0  0  0  0  0  0  0
  134.6490   74.6370  222.0740 C   0  0  0  0  0  0  0  0  0  0  0  0
  133.9818   75.2804  222.6663 H   0  0  0  0  0  0  0  0  0  0  0  0
  134.0846   73.9853  221.3909 H   0  0  0  0  0  0  0  0  0  0  0  0
  135.4390   73.7310  223.0340 C   0  0  0  0  0  0  0  0  0  0  0  0
  135.5947   74.2628  223.9842 H   0  0  0  0  0  0  0  0  0  0  0  0
  134.8632   72.8083  223.1987 H   0  0  0  0  0  0  0  0  0  0  0  0
  136.8010   73.3570  222.4400 C   0  0  0  0  0  0  0  0  0  0  0  0
  137.3282   72.7044  223.1515 H   0  0  0  0  0  0  0  0  0  0  0  0
  136.6179   72.8489  221.4817 H   0  0  0  0  0  0  0  0  0  0  0  0
  137.6480   74.5410  222.1650 N   0  0  0  0  0  0  0  0  0  0  0  0
  138.2500   74.3190  221.3390 H   0  0  0  0  0  0  0  0  0  0  0  0
  138.2810   74.6890  222.9830 H   0  0  0  0  0  0  0  0  0  0  0  0
  140.0480   73.6270  222.3620 N   0  0  0  0  0  0  0  0  0  0  0  0
  139.5140   70.2050  222.5550 C   0  0  0  0  0  0  0  0  0  0  0  0
  140.3047   69.6241  222.0576 H   0  0  0  0  0  0  0  0  0  0  0  0
  138.7825   70.6022  221.8359 H   0  0  0  0  0  0  0  0  0  0  0  0
  138.7560   69.2770  223.5170 C   0  0  0  0  0  0  0  0  0  0  0  0
  138.5575   68.3192  223.0138 H   0  0  0  0  0  0  0  0  0  0  0  0
  137.8102   69.7602  223.8035 H   0  0  0  0  0  0  0  0  0  0  0  0
  1  2  1  0
  2  3  2  0
  3  4  1  0
  3  5  1  0
  5  6  1  0
  5  7  2  0
  7  8  1  0
  8  9  2  0
  9 10  1  0
  8 11  1  0
 11 12  1  0
 11 13  1  0
 11 14  1  0
 14 15  1  0
 15 16  1  0
 16 17  2  0
 17 18  1  0
 18 19  1  0
 19 20  1  0
 19 21  1  0
 19 22  1  0
 22 23  1  0
 22 24  1  0
 22 25  1  0
 25 26  1  0
 26 27  1  0
 26 28  1  0
 26 29  1  0
 29 30  1  0
 29 31  1  0
 17 32  1  0
 32 33  1  0
 32 34  1  0
 34 35  2  0
 35 36  1  0
 36 37  1  0
 36 38  1  0
 36 39  1  0
 39 40  1  0
 39 41  1  0
 39 42  1  0
 42 43  1  1
 42 44  1  0
 44 45  1  0
 44 46  1  0
 44 47  1  0
 47 48  1  0
 47 49  1  0
 47 50  1  0
 50 51  1  0
 50 52  1  0
 50 53  1  0
 53 54  1  0
 53 55  1  0
 53 56  1  0
 56 57  1  0
 56 58  1  0
 34 59  1  0
 14 60  1  0
 60 61  1  0
 60 62  1  0
 60 63  1  0
 63 64  1  0
 63 65  1  0
  9  2  1  0
 59 15  2  0
 63  7  1  0
 29 18  1  0
 56 42  1  0
M  CHG  1  56   1
M  END
>  <UniqueID>  (3) 
487

>  <SMILES>  (3) 
c1ccc2c(c1)CCN(c1nc(N3CCOCC3)[nH]/c(=N/CC[C@H]3CCCC[NH2+]3)n1)C2

>  <Energy>  (3) 
76.1538113849742

>  <Genealogy>  (3) 
c1ccc2c(c1)CCN(c1nc(NCCC3CCCC[NH2+]3)nc(N3CCOCC3)n1)C2 (protonated)
c1ccc2c(c1)CCN(c1nc(N3CCOCC3)[nH]c(=NCCC3CCCC[NH2+]3)n1)C2 (tautomer)
c1ccc2c(c1)CCN(c1nc(N3CCOCC3)[nH]c(=NCC[C@H]3CCCC[NH2+]3)n1)C2 (chirality)
c1ccc2c(c1)CCN(c1nc(N3CCOCC3)[nH]/c(=N/CC[C@H]3CCCC[NH2+]3)n1)C2 (cis-trans isomerization)
c1ccc2c(c1)CCN(c1nc(N3CCOCC3)[nH]/c(=N/CC[C@H]3CCCC[NH2+]3)n1)C2 (3D coordinates assigned)
c1ccc2c(c1)CCN(c1nc(N3CCOCC3)[nH]/c(=N/CC[C@H]3CCCC[NH2+]3)n1)C2 (nonaromatic ring conformer: 76.1538113849742 kcal/mol)

>  <smiles>  (3) 
c1ccc2c(c1)CCN(c1nc(NCCC3CCCCN3)nc(N3CCOCC3)n1)C2

>  <score_type>  (3) 
oracle

>  <origin>  (3) 
autodockgpu

>  <m_score__min__energy>  (3) 
-10.529999999999999

>  <m_primary>  (3) 
energy

>  <meeko>  (3) 
{"free_energy": -7.7, "intermolecular_energy": -9.49, "internal_energy": -2.61, "cluster_size": 3, "cluster_id": 2, "rank_in_cluster": 3}

>  <energy>  (3) 
-9.36

>  <cluster_rmsd>  (3) 
0.95

>  <rmsd>  (3) 
271.76

>  <cluster>  (3) 
1

$$$$
MXRVYNFLTYDQGX-PQYUSCEXNA-O
     RDKit          3D

 65 69  0  0  0  0  0  0  0  0999 V2000
  141.2394   68.5088  228.0374 H   0  0  0  0  0  0  0  0  0  0  0  0
  140.7240   68.6810  227.0810 C   0  0  0  0  0  0  0  0  0  0  0  0
  140.0600   67.6260  226.4450 C   0  0  0  0  0  0  0  0  0  0  0  0
  140.0525   66.6257  226.9025 H   0  0  0  0  0  0  0  0  0  0  0  0
  139.4060   67.8430  225.2280 C   0  0  0  0  0  0  0  0  0  0  0  0
  138.8725   67.0161  224.7364 H   0  0  0  0  0  0  0  0  0  0  0  0
  139.4290   69.1130  224.6330 C   0  0  0  0  0  0  0  0  0  0  0  0
  140.0930   70.1720  225.2710 C   0  0  0  0  0  0  0  0  0  0  0  0
  140.7330   69.9540  226.5020 C   0  0  0  0  0  0  0  0  0  0  0  0
  141.2420   70.7856  227.0114 H   0  0  0  0  0  0  0  0  0  0  0  0
  140.0540   71.5410  224.6470 C   0  0  0  0  0  0  0  0  0  0  0  0
  140.9157   72.1236  225.0050 H   0  0  0  0  0  0  0  0  0  0  0  0
  139.1109   72.0289  224.9342 H   0  0  0  0  0  0  0  0  0  0  0  0
  140.1080   71.4560  223.1750 N   0  0  0  0  0  0  0  0  0  0  0  0
  140.7110   72.5300  222.4210 C   0  0  0  0  0  0  0  0  0  0  0  0
  141.8800   72.3310  221.7590 N   0  0  0  0  0  0  0  0  0  0  0  0
  142.4440   73.3220  221.0230 C   0  0  0  0  0  0  0  0  0  0  0  0
  143.6850   73.0740  220.3290 N   0  0  0  0  0  0  0  0  0  0  0  0
  143.7690   72.0570  219.2740 C   0  0  0  0  0  0  0  0  0  0  0  0
  143.0863   71.2282  219.5130 H   0  0  0  0  0  0  0  0  0  0  0  0
  143.4855   72.5118  218.3134 H   0  0  0  0  0  0  0  0  0  0  0  0
  145.2000   71.5200  219.1700 C   0  0  0  0  0  0  0  0  0  0  0  0
  145.4300   70.9321  220.0708 H   0  0  0  0  0  0  0  0  0  0  0  0
  145.2740   70.8913  218.2704 H   0  0  0  0  0  0  0  0  0  0  0  0
  146.1320   72.5790  219.0580 O   0  0  0  0  0  0  0  0  0  0  0  0
  146.1250   73.3450  220.2480 C   0  0  0  0  0  0  0  0  0  0  0  0
  146.3051   72.6805  221.1059 H   0  0  0  0  0  0  0  0  0  0  0  0
  146.9156   74.1070  220.1821 H   0  0  0  0  0  0  0  0  0  0  0  0
  144.7780   74.0490  220.4320 C   0  0  0  0  0  0  0  0  0  0  0  0
  144.7485   74.5263  221.4226 H   0  0  0  0  0  0  0  0  0  0  0  0
  144.6581   74.8109  219.6477 H   0  0  0  0  0  0  0  0  0  0  0  0
  141.8270   74.5350  220.9520 N   0  0  0  0  0  0  0  0  0  0  0  0
  142.2550   75.3200  220.4120 H   0  0  0  0  0  0  0  0  0  0  0  0
  140.6590   74.7510  221.6170 C   0  0  0  0  0  0  0  0  0  0  0  0
  140.0880   75.9180  221.5420 N   0  0  0  0  0  0  0  0  0  0  0  0
  138.9640   76.3860  222.3570 C   0  0  0  0  0  0  0  0  0  0  0  0
  138.0614   75.8162  222.0913 H   0  0  0  0  0  0  0  0  0  0  0  0
  139.2060   76.2357  223.4195 H   0  0  0  0  0  0  0  0  0  0  0  0
  138.7110   77.8780  222.1100 C   0  0  0  0  0  0  0  0  0  0  0  0
  138.3803   78.0090  221.0691 H   0  0  0  0  0  0  0  0  0  0  0  0
  137.9461   78.2038  222.8303 H   0  0  0  0  0  0  0  0  0  0  0  0
  139.9650   78.7550  222.3420 C   0  0  1  0  0  0  0  0  0  0  0  0
  140.2163   79.2511  221.3929 H   0  0  0  0  0  0  0  0  0  0  0  0
  139.6740   79.8410  223.3950 C   0  0  0  0  0  0  0  0  0  0  0  0
  138.7831   80.4091  223.0889 H   0  0  0  0  0  0  0  0  0  0  0  0
  139.5047   79.3514  224.3654 H   0  0  0  0  0  0  0  0  0  0  0  0
  140.8640   80.8080  223.5350 C   0  0  0  0  0  0  0  0  0  0  0  0
  140.6946   81.6721  222.8758 H   0  0  0  0  0  0  0  0  0  0  0  0
  140.9256   81.1080  224.5915 H   0  0  0  0  0  0  0  0  0  0  0  0
  142.2060   80.1570  223.1580 C   0  0  0  0  0  0  0  0  0  0  0  0
  142.3845   80.2975  222.0817 H   0  0  0  0  0  0  0  0  0  0  0  0
  143.0046   80.6333  223.7458 H   0  0  0  0  0  0  0  0  0  0  0  0
  142.1950   78.6570  223.4730 C   0  0  0  0  0  0  0  0  0  0  0  0
  143.1716   78.2321  223.1978 H   0  0  0  0  0  0  0  0  0  0  0  0
  141.9917   78.5439  224.5481 H   0  0  0  0  0  0  0  0  0  0  0  0
  141.1360   77.9280  222.7370 N   0  0  0  0  0  0  0  0  0  0  0  0
  140.8280   77.1250  223.3340 H   0  0  0  0  0  0  0  0  0  0  0  0
  141.5560   77.5280  221.8680 H   0  0  0  0  0  0  0  0  0  0  0  0
  140.1070   73.7450  222.3490 N   0  0  0  0  0  0  0  0  0  0  0  0
  139.5160   70.3160  222.4480 C   0  0  0  0  0  0  0  0  0  0  0  0
  140.3282   69.7326  221.9897 H   0  0  0  0  0  0  0  0  0  0  0  0
  138.8297   70.7277  221.6933 H   0  0  0  0  0  0  0  0  0  0  0  0
  138.6970   69.3860  223.3550 C   0  0  0  0  0  0  0  0  0  0  0  0
  138.5189   68.4355  222.8308 H   0  0  0  0  0  0  0  0  0  0  0  0
  137.7412   69.8758  223.5927 H   0  0  0  0  0  0  0  0  0  0  0  0
  1  2  1  0
  2  3  2  0
  3  4  1  0
  3  5  1  0
  5  6  1  0
  5  7  2  0
  7  8  1  0
  8  9  2  0
  9 10  1  0
  8 11  1  0
 11 12  1  0
 11 13  1  0
 11 14  1  0
 14 15  1  0
 15 16  1  0
 16 17  2  0
 17 18  1  0
 18 19  1  0
 19 20  1  0
 19 21  1  0
 19 22  1  0
 22 23  1  0
 22 24  1  0
 22 25  1  0
 25 26  1  0
 26 27  1  0
 26 28  1  0
 26 29  1  0
 29 30  1  0
 29 31  1  0
 17 32  1  0
 32 33  1  0
 32 34  1  0
 34 35  2  0
 35 36  1  0
 36 37  1  0
 36 38  1  0
 36 39  1  0
 39 40  1  0
 39 41  1  0
 39 42  1  0
 42 43  1  6
 42 44  1  0
 44 45  1  0
 44 46  1  0
 44 47  1  0
 47 48  1  0
 47 49  1  0
 47 50  1  0
 50 51  1  0
 50 52  1  0
 50 53  1  0
 53 54  1  0
 53 55  1  0
 53 56  1  0
 56 57  1  0
 56 58  1  0
 34 59  1  0
 14 60  1  0
 60 61  1  0
 60 62  1  0
 60 63  1  0
 63 64  1  0
 63 65  1  0
  9  2  1  0
 59 15  2  0
 63  7  1  0
 29 18  1  0
 56 42  1  0
M  CHG  1  56   1
M  END
>  <UniqueID>  (4) 
487

>  <SMILES>  (4) 
c1ccc2c(c1)CCN(c1nc(N3CCOCC3)[nH]/c(=N/CC[C@H]3CCCC[NH2+]3)n1)C2

>  <Energy>  (4) 
76.1538113849742

>  <Genealogy>  (4) 
c1ccc2c(c1)CCN(c1nc(NCCC3CCCC[NH2+]3)nc(N3CCOCC3)n1)C2 (protonated)
c1ccc2c(c1)CCN(c1nc(N3CCOCC3)[nH]c(=NCCC3CCCC[NH2+]3)n1)C2 (tautomer)
c1ccc2c(c1)CCN(c1nc(N3CCOCC3)[nH]c(=NCC[C@H]3CCCC[NH2+]3)n1)C2 (chirality)
c1ccc2c(c1)CCN(c1nc(N3CCOCC3)[nH]/c(=N/CC[C@H]3CCCC[NH2+]3)n1)C2 (cis-trans isomerization)
c1ccc2c(c1)CCN(c1nc(N3CCOCC3)[nH]/c(=N/CC[C@H]3CCCC[NH2+]3)n1)C2 (3D coordinates assigned)
c1ccc2c(c1)CCN(c1nc(N3CCOCC3)[nH]/c(=N/CC[C@H]3CCCC[NH2+]3)n1)C2 (nonaromatic ring conformer: 76.1538113849742 kcal/mol)

>  <smiles>  (4) 
c1ccc2c(c1)CCN(c1nc(NCCC3CCCCN3)nc(N3CCOCC3)n1)C2

>  <score_type>  (4) 
oracle

>  <origin>  (4) 
autodockgpu

>  <m_score__min__energy>  (4) 
-10.529999999999999

>  <m_primary>  (4) 
energy

>  <meeko>  (4) 
{"free_energy": -9.16, "intermolecular_energy": -10.95, "internal_energy": -1.46, "cluster_size": 11, "cluster_id": 1, "rank_in_cluster": 8}

>  <energy>  (4) 
-9.28

>  <cluster_rmsd>  (4) 
0.98

>  <rmsd>  (4) 
271.72

>  <cluster>  (4) 
1

$$$$
MXRVYNFLTYDQGX-PQYUSCEXNA-O
     RDKit          3D

 65 69  0  0  0  0  0  0  0  0999 V2000
  143.4013   81.4148  223.3210 H   0  0  0  0  0  0  0  0  0  0  0  0
  142.5060   80.7890  223.1910 C   0  0  0  0  0  0  0  0  0  0  0  0
  141.3110   81.1400  223.8260 C   0  0  0  0  0  0  0  0  0  0  0  0
  141.2668   82.0418  224.4543 H   0  0  0  0  0  0  0  0  0  0  0  0
  140.1710   80.3450  223.6630 C   0  0  0  0  0  0  0  0  0  0  0  0
  139.2272   80.6309  224.1504 H   0  0  0  0  0  0  0  0  0  0  0  0
  140.2310   79.1830  222.8780 C   0  0  0  0  0  0  0  0  0  0  0  0
  141.4290   78.8320  222.2390 C   0  0  0  0  0  0  0  0  0  0  0  0
  142.5650   79.6440  222.3910 C   0  0  0  0  0  0  0  0  0  0  0  0
  143.5022   79.3787  221.8800 H   0  0  0  0  0  0  0  0  0  0  0  0
  141.4560   77.6160  221.3510 C   0  0  0  0  0  0  0  0  0  0  0  0
  142.4902   77.2488  221.2760 H   0  0  0  0  0  0  0  0  0  0  0  0
  141.0733   77.8990  220.3593 H   0  0  0  0  0  0  0  0  0  0  0  0
  140.6020   76.5430  221.8940 N   0  0  0  0  0  0  0  0  0  0  0  0
  140.9390   75.1640  221.6330 C   0  0  0  0  0  0  0  0  0  0  0  0
  142.1410   74.8420  221.0900 N   0  0  0  0  0  0  0  0  0  0  0  0
  142.4840   73.5480  220.8660 C   0  0  0  0  0  0  0  0  0  0  0  0
  143.7730   73.2430  220.2930 N   0  0  0  0  0  0  0  0  0  0  0  0
  143.9180   72.1930  219.2780 C   0  0  0  0  0  0  0  0  0  0  0  0
  143.1908   71.3920  219.4769 H   0  0  0  0  0  0  0  0  0  0  0  0
  143.7354   72.6263  218.2836 H   0  0  0  0  0  0  0  0  0  0  0  0
  145.3360   71.6120  219.3190 C   0  0  0  0  0  0  0  0  0  0  0  0
  145.4663   71.0465  220.2535 H   0  0  0  0  0  0  0  0  0  0  0  0
  145.4705   70.9532  218.4485 H   0  0  0  0  0  0  0  0  0  0  0  0
  146.3060   72.6400  219.2610 O   0  0  0  0  0  0  0  0  0  0  0  0
  146.2180   73.4420  220.4240 C   0  0  0  0  0  0  0  0  0  0  0  0
  146.3010   72.7993  221.3129 H   0  0  0  0  0  0  0  0  0  0  0  0
  147.0346   74.1788  220.4079 H   0  0  0  0  0  0  0  0  0  0  0  0
  144.8820   74.1890  220.4670 C   0  0  0  0  0  0  0  0  0  0  0  0
  144.7793   74.6965  221.4375 H   0  0  0  0  0  0  0  0  0  0  0  0
  144.8559   74.9300  219.6544 H   0  0  0  0  0  0  0  0  0  0  0  0
  141.6030   72.5590  221.1870 N   0  0  0  0  0  0  0  0  0  0  0  0
  141.8340   71.5580  220.9990 H   0  0  0  0  0  0  0  0  0  0  0  0
  140.3900   72.8680  221.7220 C   0  0  0  0  0  0  0  0  0  0  0  0
  139.5590   71.9100  222.0160 N   0  0  0  0  0  0  0  0  0  0  0  0
  139.0820   71.5580  223.3560 C   0  0  0  0  0  0  0  0  0  0  0  0
  139.6320   70.6764  223.7169 H   0  0  0  0  0  0  0  0  0  0  0  0
  139.2507   72.4101  224.0309 H   0  0  0  0  0  0  0  0  0  0  0  0
  137.5820   71.2390  223.3210 C   0  0  0  0  0  0  0  0  0  0  0  0
  137.4340   70.3164  222.7406 H   0  0  0  0  0  0  0  0  0  0  0  0
  137.2462   71.1295  224.3628 H   0  0  0  0  0  0  0  0  0  0  0  0
  136.7350   72.3650  222.6800 C   0  0  1  0  0  0  0  0  0  0  0  0
  136.3114   71.9822  221.7398 H   0  0  0  0  0  0  0  0  0  0  0  0
  135.5730   72.7590  223.6110 C   0  0  0  0  0  0  0  0  0  0  0  0
  134.9963   71.8581  223.8675 H   0  0  0  0  0  0  0  0  0  0  0  0
  135.9915   73.2200  224.5179 H   0  0  0  0  0  0  0  0  0  0  0  0
  134.6400   73.7770  222.9290 C   0  0  0  0  0  0  0  0  0  0  0  0
  133.8157   73.2308  222.4471 H   0  0  0  0  0  0  0  0  0  0  0  0
  134.2739   74.4641  223.7061 H   0  0  0  0  0  0  0  0  0  0  0  0
  135.3590   74.6220  221.8640 C   0  0  0  0  0  0  0  0  0  0  0  0
  135.2954   74.1081  220.8935 H   0  0  0  0  0  0  0  0  0  0  0  0
  134.8725   75.6071  221.8102 H   0  0  0  0  0  0  0  0  0  0  0  0
  136.8340   74.8240  222.2290 C   0  0  0  0  0  0  0  0  0  0  0  0
  137.3089   75.4374  221.4491 H   0  0  0  0  0  0  0  0  0  0  0  0
  136.8690   75.3174  223.2115 H   0  0  0  0  0  0  0  0  0  0  0  0
  137.5740   73.5460  222.3430 N   0  0  0  0  0  0  0  0  0  0  0  0
  138.3250   73.6740  223.0600 H   0  0  0  0  0  0  0  0  0  0  0  0
  138.0440   73.3570  221.4290 H   0  0  0  0  0  0  0  0  0  0  0  0
  140.0650   74.1710  221.9420 N   0  0  0  0  0  0  0  0  0  0  0  0
  139.3790   76.8470  222.6630 C   0  0  0  0  0  0  0  0  0  0  0  0
  139.5347   76.5360  223.7066 H   0  0  0  0  0  0  0  0  0  0  0  0
  138.5492   76.3004  222.1912 H   0  0  0  0  0  0  0  0  0  0  0  0
  139.0150   78.3390  222.6460 C   0  0  0  0  0  0  0  0  0  0  0  0
  138.2791   78.5403  223.4384 H   0  0  0  0  0  0  0  0  0  0  0  0
  138.5933   78.5891  221.6613 H   0  0  0  0  0  0  0  0  0  0  0  0
  1  2  1  0
  2  3  2  0
  3  4  1  0
  3  5  1  0
  5  6  1  0
  5  7  2  0
  7  8  1  0
  8  9  2  0
  9 10  1  0
  8 11  1  0
 11 12  1  0
 11 13  1  0
 11 14  1  0
 14 15  1  0
 15 16  1  0
 16 17  2  0
 17 18  1  0
 18 19  1  0
 19 20  1  0
 19 21  1  0
 19 22  1  0
 22 23  1  0
 22 24  1  0
 22 25  1  0
 25 26  1  0
 26 27  1  0
 26 28  1  0
 26 29  1  0
 29 30  1  0
 29 31  1  0
 17 32  1  0
 32 33  1  0
 32 34  1  0
 34 35  2  0
 35 36  1  0
 36 37  1  0
 36 38  1  0
 36 39  1  0
 39 40  1  0
 39 41  1  0
 39 42  1  0
 42 43  1  6
 42 44  1  0
 44 45  1  0
 44 46  1  0
 44 47  1  0
 47 48  1  0
 47 49  1  0
 47 50  1  0
 50 51  1  0
 50 52  1  0
 50 53  1  0
 53 54  1  0
 53 55  1  0
 53 56  1  0
 56 57  1  0
 56 58  1  0
 34 59  1  0
 14 60  1  0
 60 61  1  0
 60 62  1  0
 60 63  1  0
 63 64  1  0
 63 65  1  0
  9  2  1  0
 59 15  2  0
 63  7  1  0
 29 18  1  0
 56 42  1  0
M  CHG  1  56   1
M  END
>  <UniqueID>  (5) 
487

>  <SMILES>  (5) 
c1ccc2c(c1)CCN(c1nc(N3CCOCC3)[nH]/c(=N/CC[C@H]3CCCC[NH2+]3)n1)C2

>  <Energy>  (5) 
76.1538113849742

>  <Genealogy>  (5) 
c1ccc2c(c1)CCN(c1nc(NCCC3CCCC[NH2+]3)nc(N3CCOCC3)n1)C2 (protonated)
c1ccc2c(c1)CCN(c1nc(N3CCOCC3)[nH]c(=NCCC3CCCC[NH2+]3)n1)C2 (tautomer)
c1ccc2c(c1)CCN(c1nc(N3CCOCC3)[nH]c(=NCC[C@H]3CCCC[NH2+]3)n1)C2 (chirality)
c1ccc2c(c1)CCN(c1nc(N3CCOCC3)[nH]/c(=N/CC[C@H]3CCCC[NH2+]3)n1)C2 (cis-trans isomerization)
c1ccc2c(c1)CCN(c1nc(N3CCOCC3)[nH]/c(=N/CC[C@H]3CCCC[NH2+]3)n1)C2 (3D coordinates assigned)
c1ccc2c(c1)CCN(c1nc(N3CCOCC3)[nH]/c(=N/CC[C@H]3CCCC[NH2+]3)n1)C2 (nonaromatic ring conformer: 76.1538113849742 kcal/mol)

>  <smiles>  (5) 
c1ccc2c(c1)CCN(c1nc(NCCC3CCCCN3)nc(N3CCOCC3)n1)C2

>  <score_type>  (5) 
oracle

>  <origin>  (5) 
autodockgpu

>  <m_score__min__energy>  (5) 
-10.529999999999999

>  <m_primary>  (5) 
energy

>  <meeko>  (5) 
{"free_energy": -8.02, "intermolecular_energy": -9.81, "internal_energy": -2.68, "cluster_size": 6, "cluster_id": 3, "rank_in_cluster": 3}

>  <energy>  (5) 
-9.25

>  <cluster_rmsd>  (5) 
0.99

>  <rmsd>  (5) 
271.68

>  <cluster>  (5) 
1

$$$$
MXRVYNFLTYDQGX-PQYUSCEXNA-O
     RDKit          3D

 65 69  0  0  0  0  0  0  0  0999 V2000
  141.6924   68.4985  228.1457 H   0  0  0  0  0  0  0  0  0  0  0  0
  141.0670   68.6690  227.2570 C   0  0  0  0  0  0  0  0  0  0  0  0
  140.2960   67.6250  226.7350 C   0  0  0  0  0  0  0  0  0  0  0  0
  140.3143   66.6352  227.2145 H   0  0  0  0  0  0  0  0  0  0  0  0
  139.5020   67.8390  225.6040 C   0  0  0  0  0  0  0  0  0  0  0  0
  138.8854   67.0212  225.2027 H   0  0  0  0  0  0  0  0  0  0  0  0
  139.4910   69.0970  224.9800 C   0  0  0  0  0  0  0  0  0  0  0  0
  140.2620   70.1440  225.5040 C   0  0  0  0  0  0  0  0  0  0  0  0
  141.0440   69.9290  226.6510 C   0  0  0  0  0  0  0  0  0  0  0  0
  141.6388   70.7526  227.0728 H   0  0  0  0  0  0  0  0  0  0  0  0
  140.1890   71.5020  224.8570 C   0  0  0  0  0  0  0  0  0  0  0  0
  141.1071   72.0612  225.0904 H   0  0  0  0  0  0  0  0  0  0  0  0
  139.3060   72.0288  225.2480 H   0  0  0  0  0  0  0  0  0  0  0  0
  140.0550   71.3850  223.3920 N   0  0  0  0  0  0  0  0  0  0  0  0
  140.5920   72.4220  222.5430 C   0  0  0  0  0  0  0  0  0  0  0  0
  141.7620   72.2290  221.8820 N   0  0  0  0  0  0  0  0  0  0  0  0
  142.2650   73.1840  221.0580 C   0  0  0  0  0  0  0  0  0  0  0  0
  143.5090   72.9420  220.3670 N   0  0  0  0  0  0  0  0  0  0  0  0
  143.6240   71.8700  219.3730 C   0  0  0  0  0  0  0  0  0  0  0  0
  142.9755   71.0313  219.6664 H   0  0  0  0  0  0  0  0  0  0  0  0
  143.3159   72.2570  218.3905 H   0  0  0  0  0  0  0  0  0  0  0  0
  145.0750   71.3820  219.2860 C   0  0  0  0  0  0  0  0  0  0  0  0
  145.3348   70.8573  220.2172 H   0  0  0  0  0  0  0  0  0  0  0  0
  145.1664   70.7044  218.4243 H   0  0  0  0  0  0  0  0  0  0  0  0
  145.9630   72.4670  219.1030 O   0  0  0  0  0  0  0  0  0  0  0  0
  145.9370   73.3010  220.2460 C   0  0  0  0  0  0  0  0  0  0  0  0
  146.1495   72.6957  221.1396 H   0  0  0  0  0  0  0  0  0  0  0  0
  146.6975   74.0869  220.1277 H   0  0  0  0  0  0  0  0  0  0  0  0
  144.5650   73.9630  220.4020 C   0  0  0  0  0  0  0  0  0  0  0  0
  144.5247   74.4963  221.3632 H   0  0  0  0  0  0  0  0  0  0  0  0
  144.4097   74.6724  219.5758 H   0  0  0  0  0  0  0  0  0  0  0  0
  141.5850   74.3530  220.8980 N   0  0  0  0  0  0  0  0  0  0  0  0
  141.9660   75.1120  220.2890 H   0  0  0  0  0  0  0  0  0  0  0  0
  140.4150   74.5630  221.5620 C   0  0  0  0  0  0  0  0  0  0  0  0
  139.7830   75.6900  221.4000 N   0  0  0  0  0  0  0  0  0  0  0  0
  140.1310   76.7500  220.4510 C   0  0  0  0  0  0  0  0  0  0  0  0
  140.2210   76.3192  219.4429 H   0  0  0  0  0  0  0  0  0  0  0  0
  139.3413   77.5157  220.4648 H   0  0  0  0  0  0  0  0  0  0  0  0
  141.4640   77.4010  220.8440 C   0  0  0  0  0  0  0  0  0  0  0  0
  142.0385   76.6845  221.4494 H   0  0  0  0  0  0  0  0  0  0  0  0
  141.9868   77.6658  219.9131 H   0  0  0  0  0  0  0  0  0  0  0  0
  141.2860   78.7040  221.6600 C   0  0  1  0  0  0  0  0  0  0  0  0
  140.9227   79.4875  220.9787 H   0  0  0  0  0  0  0  0  0  0  0  0
  140.2380   78.5030  222.7720 C   0  0  0  0  0  0  0  0  0  0  0  0
  139.3064   78.1262  222.3247 H   0  0  0  0  0  0  0  0  0  0  0  0
  140.6343   77.7811  223.5012 H   0  0  0  0  0  0  0  0  0  0  0  0
  139.9470   79.8280  223.5010 C   0  0  0  0  0  0  0  0  0  0  0  0
  139.0753   80.3049  223.0290 H   0  0  0  0  0  0  0  0  0  0  0  0
  139.7589   79.5902  224.5584 H   0  0  0  0  0  0  0  0  0  0  0  0
  141.1310   80.8080  223.4500 C   0  0  0  0  0  0  0  0  0  0  0  0
  141.0415   81.4341  222.5500 H   0  0  0  0  0  0  0  0  0  0  0  0
  141.1099   81.4315  224.3560 H   0  0  0  0  0  0  0  0  0  0  0  0
  142.4650   80.0540  223.4060 C   0  0  0  0  0  0  0  0  0  0  0  0
  143.2837   80.7881  223.3780 H   0  0  0  0  0  0  0  0  0  0  0  0
  142.5187   79.4199  224.3032 H   0  0  0  0  0  0  0  0  0  0  0  0
  142.5810   79.1690  222.2240 N   0  0  0  0  0  0  0  0  0  0  0  0
  143.1730   78.3490  222.4960 H   0  0  0  0  0  0  0  0  0  0  0  0
  143.0910   79.6880  221.4750 H   0  0  0  0  0  0  0  0  0  0  0  0
  139.9250   73.5940  222.3820 N   0  0  0  0  0  0  0  0  0  0  0  0
  139.3410   70.2520  222.7720 C   0  0  0  0  0  0  0  0  0  0  0  0
  140.0706   69.6320  222.2304 H   0  0  0  0  0  0  0  0  0  0  0  0
  138.5790   70.6719  222.0989 H   0  0  0  0  0  0  0  0  0  0  0  0
  138.6130   69.3690  223.7960 C   0  0  0  0  0  0  0  0  0  0  0  0
  138.3410   68.4147  223.3213 H   0  0  0  0  0  0  0  0  0  0  0  0
  137.7102   69.8957  224.1387 H   0  0  0  0  0  0  0  0  0  0  0  0
  1  2  1  0
  2  3  2  0
  3  4  1  0
  3  5  1  0
  5  6  1  0
  5  7  2  0
  7  8  1  0
  8  9  2  0
  9 10  1  0
  8 11  1  0
 11 12  1  0
 11 13  1  0
 11 14  1  0
 14 15  1  0
 15 16  1  0
 16 17  2  0
 17 18  1  0
 18 19  1  0
 19 20  1  0
 19 21  1  0
 19 22  1  0
 22 23  1  0
 22 24  1  0
 22 25  1  0
 25 26  1  0
 26 27  1  0
 26 28  1  0
 26 29  1  0
 29 30  1  0
 29 31  1  0
 17 32  1  0
 32 33  1  0
 32 34  1  0
 34 35  2  0
 35 36  1  0
 36 37  1  0
 36 38  1  0
 36 39  1  0
 39 40  1  0
 39 41  1  0
 39 42  1  0
 42 43  1  6
 42 44  1  0
 44 45  1  0
 44 46  1  0
 44 47  1  0
 47 48  1  0
 47 49  1  0
 47 50  1  0
 50 51  1  0
 50 52  1  0
 50 53  1  0
 53 54  1  0
 53 55  1  0
 53 56  1  0
 56 57  1  0
 56 58  1  0
 34 59  1  0
 14 60  1  0
 60 61  1  0
 60 62  1  0
 60 63  1  0
 63 64  1  0
 63 65  1  0
  9  2  1  0
 59 15  2  0
 63  7  1  0
 29 18  1  0
 56 42  1  0
M  CHG  1  56   1
M  END
>  <UniqueID>  (6) 
487

>  <SMILES>  (6) 
c1ccc2c(c1)CCN(c1nc(N3CCOCC3)[nH]/c(=N/CC[C@H]3CCCC[NH2+]3)n1)C2

>  <Energy>  (6) 
76.1538113849742

>  <Genealogy>  (6) 
c1ccc2c(c1)CCN(c1nc(NCCC3CCCC[NH2+]3)nc(N3CCOCC3)n1)C2 (protonated)
c1ccc2c(c1)CCN(c1nc(N3CCOCC3)[nH]c(=NCCC3CCCC[NH2+]3)n1)C2 (tautomer)
c1ccc2c(c1)CCN(c1nc(N3CCOCC3)[nH]c(=NCC[C@H]3CCCC[NH2+]3)n1)C2 (chirality)
c1ccc2c(c1)CCN(c1nc(N3CCOCC3)[nH]/c(=N/CC[C@H]3CCCC[NH2+]3)n1)C2 (cis-trans isomerization)
c1ccc2c(c1)CCN(c1nc(N3CCOCC3)[nH]/c(=N/CC[C@H]3CCCC[NH2+]3)n1)C2 (3D coordinates assigned)
c1ccc2c(c1)CCN(c1nc(N3CCOCC3)[nH]/c(=N/CC[C@H]3CCCC[NH2+]3)n1)C2 (nonaromatic ring conformer: 76.1538113849742 kcal/mol)

>  <smiles>  (6) 
c1ccc2c(c1)CCN(c1nc(NCCC3CCCCN3)nc(N3CCOCC3)n1)C2

>  <score_type>  (6) 
oracle

>  <origin>  (6) 
autodockgpu

>  <m_score__min__energy>  (6) 
-10.529999999999999

>  <m_primary>  (6) 
energy

>  <meeko>  (6) 
{"free_energy": -10.32, "intermolecular_energy": -12.11, "internal_energy": -0.55, "cluster_size": 11, "cluster_id": 1, "rank_in_cluster": 2}

>  <energy>  (6) 
-9.23

>  <cluster_rmsd>  (6) 
0.99

>  <rmsd>  (6) 
271.66

>  <cluster>  (6) 
1

$$$$
MXRVYNFLTYDQGX-PQYUSCEXNA-O
     RDKit          3D

 65 69  0  0  0  0  0  0  0  0999 V2000
  141.7225   68.5008  228.1972 H   0  0  0  0  0  0  0  0  0  0  0  0
  141.0780   68.6700  227.3220 C   0  0  0  0  0  0  0  0  0  0  0  0
  140.2830   67.6300  226.8290 C   0  0  0  0  0  0  0  0  0  0  0  0
  140.3018   66.6445  227.3173 H   0  0  0  0  0  0  0  0  0  0  0  0
  139.4640   67.8430  225.7150 C   0  0  0  0  0  0  0  0  0  0  0  0
  138.8284   67.0287  225.3370 H   0  0  0  0  0  0  0  0  0  0  0  0
  139.4520   69.0940  225.0790 C   0  0  0  0  0  0  0  0  0  0  0  0
  140.2480   70.1380  225.5750 C   0  0  0  0  0  0  0  0  0  0  0  0
  141.0550   69.9250  226.7040 C   0  0  0  0  0  0  0  0  0  0  0  0
  141.6696   70.7454  227.1029 H   0  0  0  0  0  0  0  0  0  0  0  0
  140.1740   71.4900  224.9160 C   0  0  0  0  0  0  0  0  0  0  0  0
  141.1035   72.0411  225.1215 H   0  0  0  0  0  0  0  0  0  0  0  0
  139.3063   72.0299  225.3229 H   0  0  0  0  0  0  0  0  0  0  0  0
  140.0030   71.3610  223.4560 N   0  0  0  0  0  0  0  0  0  0  0  0
  140.5310   72.3840  222.5850 C   0  0  0  0  0  0  0  0  0  0  0  0
  141.7210   72.2020  221.9560 N   0  0  0  0  0  0  0  0  0  0  0  0
  142.2160   73.1410  221.1110 C   0  0  0  0  0  0  0  0  0  0  0  0
  143.4810   72.9120  220.4550 N   0  0  0  0  0  0  0  0  0  0  0  0
  143.6380   71.8320  219.4740 C   0  0  0  0  0  0  0  0  0  0  0  0
  142.9943   70.9865  219.7582 H   0  0  0  0  0  0  0  0  0  0  0  0
  143.3505   72.2053  218.4800 H   0  0  0  0  0  0  0  0  0  0  0  0
  145.0970   71.3650  219.4300 C   0  0  0  0  0  0  0  0  0  0  0  0
  145.3394   70.8528  220.3728 H   0  0  0  0  0  0  0  0  0  0  0  0
  145.2206   70.6813  218.5772 H   0  0  0  0  0  0  0  0  0  0  0  0
  145.9750   72.4610  219.2600 O   0  0  0  0  0  0  0  0  0  0  0  0
  145.9060   73.3040  220.3950 C   0  0  0  0  0  0  0  0  0  0  0  0
  146.1033   72.7091  221.2990 H   0  0  0  0  0  0  0  0  0  0  0  0
  146.6577   74.1002  220.2901 H   0  0  0  0  0  0  0  0  0  0  0  0
  144.5210   73.9470  220.5090 C   0  0  0  0  0  0  0  0  0  0  0  0
  144.4478   74.4875  221.4643 H   0  0  0  0  0  0  0  0  0  0  0  0
  144.3778   74.6468  219.6725 H   0  0  0  0  0  0  0  0  0  0  0  0
  141.5090   74.2860  220.8960 N   0  0  0  0  0  0  0  0  0  0  0  0
  141.8820   75.0350  220.2700 H   0  0  0  0  0  0  0  0  0  0  0  0
  140.3190   74.4860  221.5270 C   0  0  0  0  0  0  0  0  0  0  0  0
  139.6610   75.5880  221.3150 N   0  0  0  0  0  0  0  0  0  0  0  0
  139.8660   76.8660  222.0020 C   0  0  0  0  0  0  0  0  0  0  0  0
  138.9761   77.4981  221.8657 H   0  0  0  0  0  0  0  0  0  0  0  0
  140.0317   76.6742  223.0724 H   0  0  0  0  0  0  0  0  0  0  0  0
  141.0920   77.5880  221.4290 C   0  0  0  0  0  0  0  0  0  0  0  0
  141.9829   76.9726  221.6229 H   0  0  0  0  0  0  0  0  0  0  0  0
  140.9153   77.7299  220.3526 H   0  0  0  0  0  0  0  0  0  0  0  0
  141.3170   78.9890  222.0480 C   0  0  1  0  0  0  0  0  0  0  0  0
  141.0732   79.7433  221.2854 H   0  0  0  0  0  0  0  0  0  0  0  0
  140.3830   79.1990  223.2550 C   0  0  0  0  0  0  0  0  0  0  0  0
  139.3451   79.0091  222.9440 H   0  0  0  0  0  0  0  0  0  0  0  0
  140.6799   78.5026  224.0530 H   0  0  0  0  0  0  0  0  0  0  0  0
  140.4920   80.6380  223.7940 C   0  0  0  0  0  0  0  0  0  0  0  0
  139.7087   81.2504  223.3235 H   0  0  0  0  0  0  0  0  0  0  0  0
  140.3721   80.5937  224.8865 H   0  0  0  0  0  0  0  0  0  0  0  0
  141.8600   81.2790  223.5020 C   0  0  0  0  0  0  0  0  0  0  0  0
  141.8189   81.7860  222.5267 H   0  0  0  0  0  0  0  0  0  0  0  0
  142.0873   81.9995  224.3015 H   0  0  0  0  0  0  0  0  0  0  0  0
  142.9670   80.2200  223.4700 C   0  0  0  0  0  0  0  0  0  0  0  0
  143.9259   80.7191  223.2665 H   0  0  0  0  0  0  0  0  0  0  0  0
  142.9715   79.7140  224.4467 H   0  0  0  0  0  0  0  0  0  0  0  0
  142.7400   79.1880  222.4320 N   0  0  0  0  0  0  0  0  0  0  0  0
  143.1500   78.2900  222.7780 H   0  0  0  0  0  0  0  0  0  0  0  0
  143.2690   79.4640  221.5740 H   0  0  0  0  0  0  0  0  0  0  0  0
  139.8370   73.5310  222.3700 N   0  0  0  0  0  0  0  0  0  0  0  0
  139.2620   70.2300  222.8650 C   0  0  0  0  0  0  0  0  0  0  0  0
  139.9716   69.5967  222.3124 H   0  0  0  0  0  0  0  0  0  0  0  0
  138.4886   70.6521  222.2065 H   0  0  0  0  0  0  0  0  0  0  0  0
  138.5490   69.3650  223.9140 C   0  0  0  0  0  0  0  0  0  0  0  0
  138.2551   68.4095  223.4549 H   0  0  0  0  0  0  0  0  0  0  0  0
  137.6605   69.9049  224.2731 H   0  0  0  0  0  0  0  0  0  0  0  0
  1  2  1  0
  2  3  2  0
  3  4  1  0
  3  5  1  0
  5  6  1  0
  5  7  2  0
  7  8  1  0
  8  9  2  0
  9 10  1  0
  8 11  1  0
 11 12  1  0
 11 13  1  0
 11 14  1  0
 14 15  1  0
 15 16  1  0
 16 17  2  0
 17 18  1  0
 18 19  1  0
 19 20  1  0
 19 21  1  0
 19 22  1  0
 22 23  1  0
 22 24  1  0
 22 25  1  0
 25 26  1  0
 26 27  1  0
 26 28  1  0
 26 29  1  0
 29 30  1  0
 29 31  1  0
 17 32  1  0
 32 33  1  0
 32 34  1  0
 34 35  2  0
 35 36  1  0
 36 37  1  0
 36 38  1  0
 36 39  1  0
 39 40  1  0
 39 41  1  0
 39 42  1  0
 42 43  1  6
 42 44  1  0
 44 45  1  0
 44 46  1  0
 44 47  1  0
 47 48  1  0
 47 49  1  0
 47 50  1  0
 50 51  1  0
 50 52  1  0
 50 53  1  0
 53 54  1  0
 53 55  1  0
 53 56  1  0
 56 57  1  0
 56 58  1  0
 34 59  1  0
 14 60  1  0
 60 61  1  0
 60 62  1  0
 60 63  1  0
 63 64  1  0
 63 65  1  0
  9  2  1  0
 59 15  2  0
 63  7  1  0
 29 18  1  0
 56 42  1  0
M  CHG  1  56   1
M  END
>  <UniqueID>  (7) 
487

>  <SMILES>  (7) 
c1ccc2c(c1)CCN(c1nc(N3CCOCC3)[nH]/c(=N/CC[C@H]3CCCC[NH2+]3)n1)C2

>  <Energy>  (7) 
76.1538113849742

>  <Genealogy>  (7) 
c1ccc2c(c1)CCN(c1nc(NCCC3CCCC[NH2+]3)nc(N3CCOCC3)n1)C2 (protonated)
c1ccc2c(c1)CCN(c1nc(N3CCOCC3)[nH]c(=NCCC3CCCC[NH2+]3)n1)C2 (tautomer)
c1ccc2c(c1)CCN(c1nc(N3CCOCC3)[nH]c(=NCC[C@H]3CCCC[NH2+]3)n1)C2 (chirality)
c1ccc2c(c1)CCN(c1nc(N3CCOCC3)[nH]/c(=N/CC[C@H]3CCCC[NH2+]3)n1)C2 (cis-trans isomerization)
c1ccc2c(c1)CCN(c1nc(N3CCOCC3)[nH]/c(=N/CC[C@H]3CCCC[NH2+]3)n1)C2 (3D coordinates assigned)
c1ccc2c(c1)CCN(c1nc(N3CCOCC3)[nH]/c(=N/CC[C@H]3CCCC[NH2+]3)n1)C2 (nonaromatic ring conformer: 76.1538113849742 kcal/mol)

>  <smiles>  (7) 
c1ccc2c(c1)CCN(c1nc(NCCC3CCCCN3)nc(N3CCOCC3)n1)C2

>  <score_type>  (7) 
oracle

>  <origin>  (7) 
autodockgpu

>  <m_score__min__energy>  (7) 
-10.529999999999999

>  <m_primary>  (7) 
energy

>  <meeko>  (7) 
{"free_energy": -10.53, "intermolecular_energy": -12.32, "internal_energy": -0.52, "cluster_size": 11, "cluster_id": 1, "rank_in_cluster": 1}

>  <energy>  (7) 
-9.2

>  <cluster_rmsd>  (7) 
1.0

>  <rmsd>  (7) 
271.64

>  <cluster>  (7) 
1

$$$$
MXRVYNFLTYDQGX-PQYUSCEXNA-O
     RDKit          3D

 65 69  0  0  0  0  0  0  0  0999 V2000
  141.6450   68.8121  228.5546 H   0  0  0  0  0  0  0  0  0  0  0  0
  141.0760   68.8700  227.6150 C   0  0  0  0  0  0  0  0  0  0  0  0
  140.4350   67.7310  227.1160 C   0  0  0  0  0  0  0  0  0  0  0  0
  140.5002   66.7790  227.6631 H   0  0  0  0  0  0  0  0  0  0  0  0
  139.7110   67.8030  225.9210 C   0  0  0  0  0  0  0  0  0  0  0  0
  139.1946   66.9110  225.5369 H   0  0  0  0  0  0  0  0  0  0  0  0
  139.6430   69.0120  225.2120 C   0  0  0  0  0  0  0  0  0  0  0  0
  140.2850   70.1540  225.7130 C   0  0  0  0  0  0  0  0  0  0  0  0
  140.9950   70.0820  226.9220 C   0  0  0  0  0  0  0  0  0  0  0  0
  141.4878   70.9793  227.3244 H   0  0  0  0  0  0  0  0  0  0  0  0
  140.1480   71.4560  224.9690 C   0  0  0  0  0  0  0  0  0  0  0  0
  140.9968   72.1072  225.2250 H   0  0  0  0  0  0  0  0  0  0  0  0
  139.1977   71.9269  225.2609 H   0  0  0  0  0  0  0  0  0  0  0  0
  140.1330   71.2350  223.5100 N   0  0  0  0  0  0  0  0  0  0  0  0
  140.6450   72.2580  222.6290 C   0  0  0  0  0  0  0  0  0  0  0  0
  141.8070   72.0650  221.9560 N   0  0  0  0  0  0  0  0  0  0  0  0
  142.2870   73.0050  221.1020 C   0  0  0  0  0  0  0  0  0  0  0  0
  143.5230   72.7630  220.3980 N   0  0  0  0  0  0  0  0  0  0  0  0
  143.6340   71.6770  219.4180 C   0  0  0  0  0  0  0  0  0  0  0  0
  142.9957   70.8379  219.7317 H   0  0  0  0  0  0  0  0  0  0  0  0
  143.3109   72.0473  218.4339 H   0  0  0  0  0  0  0  0  0  0  0  0
  145.0860   71.1990  219.3200 C   0  0  0  0  0  0  0  0  0  0  0  0
  145.3615   70.6906  220.2558 H   0  0  0  0  0  0  0  0  0  0  0  0
  145.1715   70.5090  218.4676 H   0  0  0  0  0  0  0  0  0  0  0  0
  145.9640   72.2880  219.1090 O   0  0  0  0  0  0  0  0  0  0  0  0
  145.9460   73.1390  220.2400 C   0  0  0  0  0  0  0  0  0  0  0  0
  146.1756   72.5489  221.1395 H   0  0  0  0  0  0  0  0  0  0  0  0
  146.6980   73.9294  220.0995 H   0  0  0  0  0  0  0  0  0  0  0  0
  144.5710   73.7920  220.4050 C   0  0  0  0  0  0  0  0  0  0  0  0
  144.5391   74.3382  221.3593 H   0  0  0  0  0  0  0  0  0  0  0  0
  144.3992   74.4885  219.5711 H   0  0  0  0  0  0  0  0  0  0  0  0
  141.5890   74.1620  220.9250 N   0  0  0  0  0  0  0  0  0  0  0  0
  141.9510   74.9110  220.2920 H   0  0  0  0  0  0  0  0  0  0  0  0
  140.4270   74.3740  221.6010 C   0  0  0  0  0  0  0  0  0  0  0  0
  139.7780   75.4880  221.4230 N   0  0  0  0  0  0  0  0  0  0  0  0
  139.8860   76.6940  222.2480 C   0  0  0  0  0  0  0  0  0  0  0  0
  140.3020   76.4255  223.2303 H   0  0  0  0  0  0  0  0  0  0  0  0
  140.5461   77.4147  221.7432 H   0  0  0  0  0  0  0  0  0  0  0  0
  138.5050   77.3330  222.4410 C   0  0  0  0  0  0  0  0  0  0  0  0
  138.6146   78.2136  223.0910 H   0  0  0  0  0  0  0  0  0  0  0  0
  138.1258   77.6014  221.4439 H   0  0  0  0  0  0  0  0  0  0  0  0
  137.4750   76.3720  223.0830 C   0  0  1  0  0  0  0  0  0  0  0  0
  137.7793   76.1889  224.1241 H   0  0  0  0  0  0  0  0  0  0  0  0
  136.0740   77.0150  223.0920 C   0  0  0  0  0  0  0  0  0  0  0  0
  136.1325   77.9982  223.5818 H   0  0  0  0  0  0  0  0  0  0  0  0
  135.7307   77.1225  222.0525 H   0  0  0  0  0  0  0  0  0  0  0  0
  135.0670   76.1320  223.8530 C   0  0  0  0  0  0  0  0  0  0  0  0
  135.0199   76.4726  224.8979 H   0  0  0  0  0  0  0  0  0  0  0  0
  134.0940   76.2283  223.3490 H   0  0  0  0  0  0  0  0  0  0  0  0
  135.4520   74.6430  223.8380 C   0  0  0  0  0  0  0  0  0  0  0  0
  136.0973   74.4294  224.7028 H   0  0  0  0  0  0  0  0  0  0  0  0
  134.5319   74.0421  223.8867 H   0  0  0  0  0  0  0  0  0  0  0  0
  136.2030   74.2840  222.5510 C   0  0  0  0  0  0  0  0  0  0  0  0
  136.4514   73.2127  222.5753 H   0  0  0  0  0  0  0  0  0  0  0  0
  135.5467   74.5294  221.7030 H   0  0  0  0  0  0  0  0  0  0  0  0
  137.4560   75.0580  222.3870 N   0  0  0  0  0  0  0  0  0  0  0  0
  137.6190   75.1890  221.3620 H   0  0  0  0  0  0  0  0  0  0  0  0
  138.2460   74.4850  222.7600 H   0  0  0  0  0  0  0  0  0  0  0  0
  139.9610   73.4180  222.4510 N   0  0  0  0  0  0  0  0  0  0  0  0
  139.5630   70.0070  222.9240 C   0  0  0  0  0  0  0  0  0  0  0  0
  140.3794   69.4196  222.4786 H   0  0  0  0  0  0  0  0  0  0  0  0
  138.8210   70.3149  222.1726 H   0  0  0  0  0  0  0  0  0  0  0  0
  138.8360   69.1310  223.9550 C   0  0  0  0  0  0  0  0  0  0  0  0
  138.6790   68.1285  223.5304 H   0  0  0  0  0  0  0  0  0  0  0  0
  137.8702   69.5982  224.1977 H   0  0  0  0  0  0  0  0  0  0  0  0
  1  2  1  0
  2  3  2  0
  3  4  1  0
  3  5  1  0
  5  6  1  0
  5  7  2  0
  7  8  1  0
  8  9  2  0
  9 10  1  0
  8 11  1  0
 11 12  1  0
 11 13  1  0
 11 14  1  0
 14 15  1  0
 15 16  1  0
 16 17  2  0
 17 18  1  0
 18 19  1  0
 19 20  1  0
 19 21  1  0
 19 22  1  0
 22 23  1  0
 22 24  1  0
 22 25  1  0
 25 26  1  0
 26 27  1  0
 26 28  1  0
 26 29  1  0
 29 30  1  0
 29 31  1  0
 17 32  1  0
 32 33  1  0
 32 34  1  0
 34 35  2  0
 35 36  1  0
 36 37  1  0
 36 38  1  0
 36 39  1  0
 39 40  1  0
 39 41  1  0
 39 42  1  0
 42 43  1  1
 42 44  1  0
 44 45  1  0
 44 46  1  0
 44 47  1  0
 47 48  1  0
 47 49  1  0
 47 50  1  0
 50 51  1  0
 50 52  1  0
 50 53  1  0
 53 54  1  0
 53 55  1  0
 53 56  1  0
 56 57  1  0
 56 58  1  0
 34 59  1  0
 14 60  1  0
 60 61  1  0
 60 62  1  0
 60 63  1  0
 63 64  1  0
 63 65  1  0
  9  2  1  0
 59 15  2  0
 63  7  1  0
 29 18  1  0
 56 42  1  0
M  CHG  1  56   1
M  END
>  <UniqueID>  (8) 
487

>  <SMILES>  (8) 
c1ccc2c(c1)CCN(c1nc(N3CCOCC3)[nH]/c(=N/CC[C@H]3CCCC[NH2+]3)n1)C2

>  <Energy>  (8) 
76.1538113849742

>  <Genealogy>  (8) 
c1ccc2c(c1)CCN(c1nc(NCCC3CCCC[NH2+]3)nc(N3CCOCC3)n1)C2 (protonated)
c1ccc2c(c1)CCN(c1nc(N3CCOCC3)[nH]c(=NCCC3CCCC[NH2+]3)n1)C2 (tautomer)
c1ccc2c(c1)CCN(c1nc(N3CCOCC3)[nH]c(=NCC[C@H]3CCCC[NH2+]3)n1)C2 (chirality)
c1ccc2c(c1)CCN(c1nc(N3CCOCC3)[nH]/c(=N/CC[C@H]3CCCC[NH2+]3)n1)C2 (cis-trans isomerization)
c1ccc2c(c1)CCN(c1nc(N3CCOCC3)[nH]/c(=N/CC[C@H]3CCCC[NH2+]3)n1)C2 (3D coordinates assigned)
c1ccc2c(c1)CCN(c1nc(N3CCOCC3)[nH]/c(=N/CC[C@H]3CCCC[NH2+]3)n1)C2 (nonaromatic ring conformer: 76.1538113849742 kcal/mol)

>  <smiles>  (8) 
c1ccc2c(c1)CCN(c1nc(NCCC3CCCCN3)nc(N3CCOCC3)n1)C2

>  <score_type>  (8) 
oracle

>  <origin>  (8) 
autodockgpu

>  <m_score__min__energy>  (8) 
-10.529999999999999

>  <m_primary>  (8) 
energy

>  <meeko>  (8) 
{"free_energy": -8.74, "intermolecular_energy": -10.53, "internal_energy": -2.4, "cluster_size": 3, "cluster_id": 2, "rank_in_cluster": 1}

>  <energy>  (8) 
-9.16

>  <cluster_rmsd>  (8) 
0.92

>  <rmsd>  (8) 
271.83

>  <cluster>  (8) 
1

$$$$
MXRVYNFLTYDQGX-PQYUSCEXNA-O
     RDKit          3D

 65 69  0  0  0  0  0  0  0  0999 V2000
  141.5821   68.3067  227.9022 H   0  0  0  0  0  0  0  0  0  0  0  0
  140.9650   68.5400  227.0220 C   0  0  0  0  0  0  0  0  0  0  0  0
  140.1480   67.5530  226.4600 C   0  0  0  0  0  0  0  0  0  0  0  0
  140.1219   66.5449  226.8994 H   0  0  0  0  0  0  0  0  0  0  0  0
  139.3640   67.8480  225.3390 C   0  0  0  0  0  0  0  0  0  0  0  0
  138.7115   67.0753  224.9064 H   0  0  0  0  0  0  0  0  0  0  0  0
  139.4090   69.1280  224.7660 C   0  0  0  0  0  0  0  0  0  0  0  0
  140.2270   70.1180  225.3310 C   0  0  0  0  0  0  0  0  0  0  0  0
  140.9980   69.8230  226.4660 C   0  0  0  0  0  0  0  0  0  0  0  0
  141.6291   70.6018  226.9189 H   0  0  0  0  0  0  0  0  0  0  0  0
  140.2140   71.5020  224.7380 C   0  0  0  0  0  0  0  0  0  0  0  0
  141.1559   72.0102  224.9919 H   0  0  0  0  0  0  0  0  0  0  0  0
  139.3545   72.0504  225.1510 H   0  0  0  0  0  0  0  0  0  0  0  0
  140.0750   71.4510  223.2710 N   0  0  0  0  0  0  0  0  0  0  0  0
  140.6580   72.4960  222.4630 C   0  0  0  0  0  0  0  0  0  0  0  0
  141.7980   72.2660  221.7630 N   0  0  0  0  0  0  0  0  0  0  0  0
  142.3430   73.2290  220.9760 C   0  0  0  0  0  0  0  0  0  0  0  0
  143.5530   72.9480  220.2420 N   0  0  0  0  0  0  0  0  0  0  0  0
  143.6030   71.8610  219.2570 C   0  0  0  0  0  0  0  0  0  0  0  0
  142.9450   71.0428  219.5850 H   0  0  0  0  0  0  0  0  0  0  0  0
  143.2679   72.2444  218.2819 H   0  0  0  0  0  0  0  0  0  0  0  0
  145.0360   71.3350  219.1220 C   0  0  0  0  0  0  0  0  0  0  0  0
  145.3169   70.8140  220.0491 H   0  0  0  0  0  0  0  0  0  0  0  0
  145.0775   70.6460  218.2655 H   0  0  0  0  0  0  0  0  0  0  0  0
  145.9450   72.3950  218.8930 O   0  0  0  0  0  0  0  0  0  0  0  0
  145.9830   73.2410  220.0260 C   0  0  0  0  0  0  0  0  0  0  0  0
  146.2137   72.6398  220.9178 H   0  0  0  0  0  0  0  0  0  0  0  0
  146.7580   74.0059  219.8700 H   0  0  0  0  0  0  0  0  0  0  0  0
  144.6350   73.9400  220.2260 C   0  0  0  0  0  0  0  0  0  0  0  0
  144.6449   74.4838  221.1821 H   0  0  0  0  0  0  0  0  0  0  0  0
  144.4670   74.6445  219.3981 H   0  0  0  0  0  0  0  0  0  0  0  0
  141.7350   74.4460  220.8940 N   0  0  0  0  0  0  0  0  0  0  0  0
  142.1500   75.2110  220.3150 H   0  0  0  0  0  0  0  0  0  0  0  0
  140.5960   74.6930  221.5970 C   0  0  0  0  0  0  0  0  0  0  0  0
  140.0340   75.8640  221.5110 N   0  0  0  0  0  0  0  0  0  0  0  0
  139.7650   76.6060  220.2760 C   0  0  0  0  0  0  0  0  0  0  0  0
  140.6112   76.4791  219.5848 H   0  0  0  0  0  0  0  0  0  0  0  0
  138.8433   76.2173  219.8185 H   0  0  0  0  0  0  0  0  0  0  0  0
  139.5800   78.0980  220.5810 C   0  0  0  0  0  0  0  0  0  0  0  0
  139.4679   78.6384  219.6295 H   0  0  0  0  0  0  0  0  0  0  0  0
  138.6879   78.1942  221.2174 H   0  0  0  0  0  0  0  0  0  0  0  0
  140.7700   78.7120  221.3590 C   0  0  1  0  0  0  0  0  0  0  0  0
  141.6437   78.7306  220.6910 H   0  0  0  0  0  0  0  0  0  0  0  0
  140.4480   80.1590  221.7770 C   0  0  0  0  0  0  0  0  0  0  0  0
  140.1520   80.7333  220.8867 H   0  0  0  0  0  0  0  0  0  0  0  0
  139.6293   80.1380  222.5114 H   0  0  0  0  0  0  0  0  0  0  0  0
  141.6730   80.8310  222.4260 C   0  0  0  0  0  0  0  0  0  0  0  0
  142.2257   81.3800  221.6494 H   0  0  0  0  0  0  0  0  0  0  0  0
  141.3040   81.5029  223.2149 H   0  0  0  0  0  0  0  0  0  0  0  0
  142.6260   79.8190  223.0860 C   0  0  0  0  0  0  0  0  0  0  0  0
  143.3659   79.4845  222.3439 H   0  0  0  0  0  0  0  0  0  0  0  0
  143.1261   80.3096  223.9341 H   0  0  0  0  0  0  0  0  0  0  0  0
  141.8560   78.6020  223.6100 C   0  0  0  0  0  0  0  0  0  0  0  0
  142.5699   77.9091  224.0793 H   0  0  0  0  0  0  0  0  0  0  0  0
  141.1092   78.9662  224.3308 H   0  0  0  0  0  0  0  0  0  0  0  0
  141.1300   77.8810  222.5390 N   0  0  0  0  0  0  0  0  0  0  0  0
  140.2690   77.4620  222.9620 H   0  0  0  0  0  0  0  0  0  0  0  0
  141.7310   77.0940  222.2070 H   0  0  0  0  0  0  0  0  0  0  0  0
  140.0640   73.7140  222.3790 N   0  0  0  0  0  0  0  0  0  0  0  0
  139.3110   70.3760  222.6070 C   0  0  0  0  0  0  0  0  0  0  0  0
  140.0124   69.7459  222.0403 H   0  0  0  0  0  0  0  0  0  0  0  0
  138.5690   70.8558  221.9518 H   0  0  0  0  0  0  0  0  0  0  0  0
  138.5440   69.4870  223.5960 C   0  0  0  0  0  0  0  0  0  0  0  0
  138.2286   68.5659  223.0840 H   0  0  0  0  0  0  0  0  0  0  0  0
  137.6662   70.0401  223.9615 H   0  0  0  0  0  0  0  0  0  0  0  0
  1  2  1  0
  2  3  2  0
  3  4  1  0
  3  5  1  0
  5  6  1  0
  5  7  2  0
  7  8  1  0
  8  9  2  0
  9 10  1  0
  8 11  1  0
 11 12  1  0
 11 13  1  0
 11 14  1  0
 14 15  1  0
 15 16  1  0
 16 17  2  0
 17 18  1  0
 18 19  1  0
 19 20  1  0
 19 21  1  0
 19 22  1  0
 22 23  1  0
 22 24  1  0
 22 25  1  0
 25 26  1  0
 26 27  1  0
 26 28  1  0
 26 29  1  0
 29 30  1  0
 29 31  1  0
 17 32  1  0
 32 33  1  0
 32 34  1  0
 34 35  2  0
 35 36  1  0
 36 37  1  0
 36 38  1  0
 36 39  1  0
 39 40  1  0
 39 41  1  0
 39 42  1  0
 42 43  1  6
 42 44  1  0
 44 45  1  0
 44 46  1  0
 44 47  1  0
 47 48  1  0
 47 49  1  0
 47 50  1  0
 50 51  1  0
 50 52  1  0
 50 53  1  0
 53 54  1  0
 53 55  1  0
 53 56  1  0
 56 57  1  0
 56 58  1  0
 34 59  1  0
 14 60  1  0
 60 61  1  0
 60 62  1  0
 60 63  1  0
 63 64  1  0
 63 65  1  0
  9  2  1  0
 59 15  2  0
 63  7  1  0
 29 18  1  0
 56 42  1  0
M  CHG  1  56   1
M  END
>  <UniqueID>  (9) 
487

>  <SMILES>  (9) 
c1ccc2c(c1)CCN(c1nc(N3CCOCC3)[nH]/c(=N/CC[C@H]3CCCC[NH2+]3)n1)C2

>  <Energy>  (9) 
76.1538113849742

>  <Genealogy>  (9) 
c1ccc2c(c1)CCN(c1nc(NCCC3CCCC[NH2+]3)nc(N3CCOCC3)n1)C2 (protonated)
c1ccc2c(c1)CCN(c1nc(N3CCOCC3)[nH]c(=NCCC3CCCC[NH2+]3)n1)C2 (tautomer)
c1ccc2c(c1)CCN(c1nc(N3CCOCC3)[nH]c(=NCC[C@H]3CCCC[NH2+]3)n1)C2 (chirality)
c1ccc2c(c1)CCN(c1nc(N3CCOCC3)[nH]/c(=N/CC[C@H]3CCCC[NH2+]3)n1)C2 (cis-trans isomerization)
c1ccc2c(c1)CCN(c1nc(N3CCOCC3)[nH]/c(=N/CC[C@H]3CCCC[NH2+]3)n1)C2 (3D coordinates assigned)
c1ccc2c(c1)CCN(c1nc(N3CCOCC3)[nH]/c(=N/CC[C@H]3CCCC[NH2+]3)n1)C2 (nonaromatic ring conformer: 76.1538113849742 kcal/mol)

>  <smiles>  (9) 
c1ccc2c(c1)CCN(c1nc(NCCC3CCCCN3)nc(N3CCOCC3)n1)C2

>  <score_type>  (9) 
oracle

>  <origin>  (9) 
autodockgpu

>  <m_score__min__energy>  (9) 
-10.529999999999999

>  <m_primary>  (9) 
energy

>  <meeko>  (9) 
{"free_energy": -9.25, "intermolecular_energy": -11.04, "internal_energy": -1.59, "cluster_size": 11, "cluster_id": 1, "rank_in_cluster": 5}

>  <energy>  (9) 
-8.98

>  <cluster_rmsd>  (9) 
1.09

>  <rmsd>  (9) 
271.68

>  <cluster>  (9) 
1

$$$$
MXRVYNFLTYDQGX-PQYUSCEXNA-O
     RDKit          3D

 65 69  0  0  0  0  0  0  0  0999 V2000
  143.2518   81.3754  223.4284 H   0  0  0  0  0  0  0  0  0  0  0  0
  142.3690   80.7450  223.2460 C   0  0  0  0  0  0  0  0  0  0  0  0
  141.1350   81.0930  223.8040 C   0  0  0  0  0  0  0  0  0  0  0  0
  141.0479   81.9976  224.4237 H   0  0  0  0  0  0  0  0  0  0  0  0
  140.0110   80.2920  223.5750 C   0  0  0  0  0  0  0  0  0  0  0  0
  139.0380   80.5751  224.0029 H   0  0  0  0  0  0  0  0  0  0  0  0
  140.1240   79.1280  222.8000 C   0  0  0  0  0  0  0  0  0  0  0  0
  141.3610   78.7790  222.2380 C   0  0  0  0  0  0  0  0  0  0  0  0
  142.4820   79.5960  222.4560 C   0  0  0  0  0  0  0  0  0  0  0  0
  143.4501   79.3323  222.0051 H   0  0  0  0  0  0  0  0  0  0  0  0
  141.4480   77.5590  221.3590 C   0  0  0  0  0  0  0  0  0  0  0  0
  142.4863   77.1958  221.3502 H   0  0  0  0  0  0  0  0  0  0  0  0
  141.1268   77.8359  220.3440 H   0  0  0  0  0  0  0  0  0  0  0  0
  140.5660   76.4850  221.8530 N   0  0  0  0  0  0  0  0  0  0  0  0
  140.9240   75.1060  221.6200 C   0  0  0  0  0  0  0  0  0  0  0  0
  142.1240   74.7930  221.0660 N   0  0  0  0  0  0  0  0  0  0  0  0
  142.4870   73.5000  220.8670 C   0  0  0  0  0  0  0  0  0  0  0  0
  143.7720   73.2040  220.2810 N   0  0  0  0  0  0  0  0  0  0  0  0
  143.9110   72.1720  219.2470 C   0  0  0  0  0  0  0  0  0  0  0  0
  143.1849   71.3677  219.4364 H   0  0  0  0  0  0  0  0  0  0  0  0
  143.7227   72.6233  218.2617 H   0  0  0  0  0  0  0  0  0  0  0  0
  145.3280   71.5900  219.2680 C   0  0  0  0  0  0  0  0  0  0  0  0
  145.4638   71.0070  220.1909 H   0  0  0  0  0  0  0  0  0  0  0  0
  145.4563   70.9478  218.3842 H   0  0  0  0  0  0  0  0  0  0  0  0
  146.2990   72.6180  219.2230 O   0  0  0  0  0  0  0  0  0  0  0  0
  146.2180   73.3990  220.4010 C   0  0  0  0  0  0  0  0  0  0  0  0
  146.3054   72.7403  221.2776 H   0  0  0  0  0  0  0  0  0  0  0  0
  147.0351   74.1354  220.3937 H   0  0  0  0  0  0  0  0  0  0  0  0
  144.8830   74.1460  220.4650 C   0  0  0  0  0  0  0  0  0  0  0  0
  144.7864   74.6364  221.4449 H   0  0  0  0  0  0  0  0  0  0  0  0
  144.8527   74.9011  219.6657 H   0  0  0  0  0  0  0  0  0  0  0  0
  141.6290   72.5030  221.2260 N   0  0  0  0  0  0  0  0  0  0  0  0
  141.8760   71.5020  221.0590 H   0  0  0  0  0  0  0  0  0  0  0  0
  140.4190   72.8030  221.7730 C   0  0  0  0  0  0  0  0  0  0  0  0
  139.6110   71.8370  222.1040 N   0  0  0  0  0  0  0  0  0  0  0  0
  139.1420   71.5260  223.4560 C   0  0  0  0  0  0  0  0  0  0  0  0
  139.7298   70.6887  223.8603 H   0  0  0  0  0  0  0  0  0  0  0  0
  139.2665   72.4155  224.0911 H   0  0  0  0  0  0  0  0  0  0  0  0
  137.6580   71.1360  223.4290 C   0  0  0  0  0  0  0  0  0  0  0  0
  137.5544   70.1906  222.8762 H   0  0  0  0  0  0  0  0  0  0  0  0
  137.3246   71.0412  224.4730 H   0  0  0  0  0  0  0  0  0  0  0  0
  136.7620   72.2030  222.7530 C   0  0  1  0  0  0  0  0  0  0  0  0
  136.3330   71.7620  221.8412 H   0  0  0  0  0  0  0  0  0  0  0  0
  135.6060   72.6040  223.6890 C   0  0  0  0  0  0  0  0  0  0  0  0
  135.0653   71.6984  224.0012 H   0  0  0  0  0  0  0  0  0  0  0  0
  136.0267   73.1223  224.5633 H   0  0  0  0  0  0  0  0  0  0  0  0
  134.6260   73.5560  222.9790 C   0  0  0  0  0  0  0  0  0  0  0  0
  133.8119   72.9601  222.5407 H   0  0  0  0  0  0  0  0  0  0  0  0
  134.2512   74.2672  223.7298 H   0  0  0  0  0  0  0  0  0  0  0  0
  135.2960   74.3720  221.8600 C   0  0  0  0  0  0  0  0  0  0  0  0
  135.2304   73.8104  220.9165 H   0  0  0  0  0  0  0  0  0  0  0  0
  134.7762   75.3373  221.7705 H   0  0  0  0  0  0  0  0  0  0  0  0
  136.7700   74.6390  222.1830 C   0  0  0  0  0  0  0  0  0  0  0  0
  137.2085   75.2294  221.3650 H   0  0  0  0  0  0  0  0  0  0  0  0
  136.8085   75.1800  223.1400 H   0  0  0  0  0  0  0  0  0  0  0  0
  137.5540   73.3920  222.3410 N   0  0  0  0  0  0  0  0  0  0  0  0
  138.3150   73.5780  223.0360 H   0  0  0  0  0  0  0  0  0  0  0  0
  138.0120   73.1730  221.4280 H   0  0  0  0  0  0  0  0  0  0  0  0
  140.0740   74.1050  221.9670 N   0  0  0  0  0  0  0  0  0  0  0  0
  139.2970   76.7870  222.5440 C   0  0  0  0  0  0  0  0  0  0  0  0
  139.3899   76.4819  223.5968 H   0  0  0  0  0  0  0  0  0  0  0  0
  138.5001   76.2341  222.0251 H   0  0  0  0  0  0  0  0  0  0  0  0
  138.9280   78.2770  222.4970 C   0  0  0  0  0  0  0  0  0  0  0  0
  138.1434   78.4785  223.2412 H   0  0  0  0  0  0  0  0  0  0  0  0
  138.5670   78.5206  221.4869 H   0  0  0  0  0  0  0  0  0  0  0  0
  1  2  1  0
  2  3  2  0
  3  4  1  0
  3  5  1  0
  5  6  1  0
  5  7  2  0
  7  8  1  0
  8  9  2  0
  9 10  1  0
  8 11  1  0
 11 12  1  0
 11 13  1  0
 11 14  1  0
 14 15  1  0
 15 16  1  0
 16 17  2  0
 17 18  1  0
 18 19  1  0
 19 20  1  0
 19 21  1  0
 19 22  1  0
 22 23  1  0
 22 24  1  0
 22 25  1  0
 25 26  1  0
 26 27  1  0
 26 28  1  0
 26 29  1  0
 29 30  1  0
 29 31  1  0
 17 32  1  0
 32 33  1  0
 32 34  1  0
 34 35  2  0
 35 36  1  0
 36 37  1  0
 36 38  1  0
 36 39  1  0
 39 40  1  0
 39 41  1  0
 39 42  1  0
 42 43  1  6
 42 44  1  0
 44 45  1  0
 44 46  1  0
 44 47  1  0
 47 48  1  0
 47 49  1  0
 47 50  1  0
 50 51  1  0
 50 52  1  0
 50 53  1  0
 53 54  1  0
 53 55  1  0
 53 56  1  0
 56 57  1  0
 56 58  1  0
 34 59  1  0
 14 60  1  0
 60 61  1  0
 60 62  1  0
 60 63  1  0
 63 64  1  0
 63 65  1  0
  9  2  1  0
 59 15  2  0
 63  7  1  0
 29 18  1  0
 56 42  1  0
M  CHG  1  56   1
M  END
>  <UniqueID>  (10) 
487

>  <SMILES>  (10) 
c1ccc2c(c1)CCN(c1nc(N3CCOCC3)[nH]/c(=N/CC[C@H]3CCCC[NH2+]3)n1)C2

>  <Energy>  (10) 
76.1538113849742

>  <Genealogy>  (10) 
c1ccc2c(c1)CCN(c1nc(NCCC3CCCC[NH2+]3)nc(N3CCOCC3)n1)C2 (protonated)
c1ccc2c(c1)CCN(c1nc(N3CCOCC3)[nH]c(=NCCC3CCCC[NH2+]3)n1)C2 (tautomer)
c1ccc2c(c1)CCN(c1nc(N3CCOCC3)[nH]c(=NCC[C@H]3CCCC[NH2+]3)n1)C2 (chirality)
c1ccc2c(c1)CCN(c1nc(N3CCOCC3)[nH]/c(=N/CC[C@H]3CCCC[NH2+]3)n1)C2 (cis-trans isomerization)
c1ccc2c(c1)CCN(c1nc(N3CCOCC3)[nH]/c(=N/CC[C@H]3CCCC[NH2+]3)n1)C2 (3D coordinates assigned)
c1ccc2c(c1)CCN(c1nc(N3CCOCC3)[nH]/c(=N/CC[C@H]3CCCC[NH2+]3)n1)C2 (nonaromatic ring conformer: 76.1538113849742 kcal/mol)

>  <smiles>  (10) 
c1ccc2c(c1)CCN(c1nc(NCCC3CCCCN3)nc(N3CCOCC3)n1)C2

>  <score_type>  (10) 
oracle

>  <origin>  (10) 
autodockgpu

>  <m_score__min__energy>  (10) 
-10.529999999999999

>  <m_primary>  (10) 
energy

>  <meeko>  (10) 
{"free_energy": -8.04, "intermolecular_energy": -9.83, "internal_energy": -2.64, "cluster_size": 6, "cluster_id": 3, "rank_in_cluster": 2}

>  <energy>  (10) 
-8.91

>  <cluster_rmsd>  (10) 
0.95

>  <rmsd>  (10) 
271.67

>  <cluster>  (10) 
1

$$$$
MXRVYNFLTYDQGX-PQYUSCEXNA-O
     RDKit          3D

 65 69  0  0  0  0  0  0  0  0999 V2000
  141.3959   68.4933  227.9850 H   0  0  0  0  0  0  0  0  0  0  0  0
  140.8430   68.6720  227.0510 C   0  0  0  0  0  0  0  0  0  0  0  0
  140.1300   67.6290  226.4510 C   0  0  0  0  0  0  0  0  0  0  0  0
  140.1231   66.6309  226.9133 H   0  0  0  0  0  0  0  0  0  0  0  0
  139.4260   67.8540  225.2640 C   0  0  0  0  0  0  0  0  0  0  0  0
  138.8535   67.0365  224.8014 H   0  0  0  0  0  0  0  0  0  0  0  0
  139.4490   69.1220  224.6620 C   0  0  0  0  0  0  0  0  0  0  0  0
  140.1640   70.1680  225.2640 C   0  0  0  0  0  0  0  0  0  0  0  0
  140.8540   69.9420  226.4650 C   0  0  0  0  0  0  0  0  0  0  0  0
  141.4040   70.7644  226.9459 H   0  0  0  0  0  0  0  0  0  0  0  0
  140.1260   71.5360  224.6350 C   0  0  0  0  0  0  0  0  0  0  0  0
  141.0154   72.1013  224.9503 H   0  0  0  0  0  0  0  0  0  0  0  0
  139.2079   72.0459  224.9624 H   0  0  0  0  0  0  0  0  0  0  0  0
  140.1110   71.4430  223.1620 N   0  0  0  0  0  0  0  0  0  0  0  0
  140.7020   72.5000  222.3760 C   0  0  0  0  0  0  0  0  0  0  0  0
  141.8280   72.2700  221.6540 N   0  0  0  0  0  0  0  0  0  0  0  0
  142.3790   73.2460  220.8870 C   0  0  0  0  0  0  0  0  0  0  0  0
  143.5740   72.9640  220.1280 N   0  0  0  0  0  0  0  0  0  0  0  0
  143.6010   71.8810  219.1380 C   0  0  0  0  0  0  0  0  0  0  0  0
  142.9473   71.0633  219.4757 H   0  0  0  0  0  0  0  0  0  0  0  0
  143.2474   72.2688  218.1713 H   0  0  0  0  0  0  0  0  0  0  0  0
  145.0300   71.3520  218.9730 C   0  0  0  0  0  0  0  0  0  0  0  0
  145.3280   70.8276  219.8929 H   0  0  0  0  0  0  0  0  0  0  0  0
  145.0527   70.6656  218.1137 H   0  0  0  0  0  0  0  0  0  0  0  0
  145.9370   72.4100  218.7290 O   0  0  0  0  0  0  0  0  0  0  0  0
  145.9990   73.2530  219.8640 C   0  0  0  0  0  0  0  0  0  0  0  0
  146.2460   72.6486  220.7493 H   0  0  0  0  0  0  0  0  0  0  0  0
  146.7722   74.0168  219.6946 H   0  0  0  0  0  0  0  0  0  0  0  0
  144.6580   73.9540  220.0930 C   0  0  0  0  0  0  0  0  0  0  0  0
  144.6884   74.4950  221.0503 H   0  0  0  0  0  0  0  0  0  0  0  0
  144.4750   74.6614  219.2707 H   0  0  0  0  0  0  0  0  0  0  0  0
  141.7930   74.4750  220.8480 N   0  0  0  0  0  0  0  0  0  0  0  0
  142.2130   75.2490  220.2860 H   0  0  0  0  0  0  0  0  0  0  0  0
  140.6690   74.7230  221.5750 C   0  0  0  0  0  0  0  0  0  0  0  0
  140.1270   75.9050  221.5300 N   0  0  0  0  0  0  0  0  0  0  0  0
  139.7800   76.6530  220.3190 C   0  0  0  0  0  0  0  0  0  0  0  0
  140.5905   76.5477  219.5828 H   0  0  0  0  0  0  0  0  0  0  0  0
  138.8422   76.2518  219.9072 H   0  0  0  0  0  0  0  0  0  0  0  0
  139.5850   78.1390  220.6480 C   0  0  0  0  0  0  0  0  0  0  0  0
  139.4331   78.6885  219.7073 H   0  0  0  0  0  0  0  0  0  0  0  0
  138.7140   78.2149  221.3156 H   0  0  0  0  0  0  0  0  0  0  0  0
  140.7910   78.7610  221.3920 C   0  0  1  0  0  0  0  0  0  0  0  0
  141.6436   78.7907  220.6975 H   0  0  0  0  0  0  0  0  0  0  0  0
  140.4690   80.2030  221.8260 C   0  0  0  0  0  0  0  0  0  0  0  0
  140.1412   80.7783  220.9476 H   0  0  0  0  0  0  0  0  0  0  0  0
  139.6732   80.1710  222.5848 H   0  0  0  0  0  0  0  0  0  0  0  0
  141.7060   80.8840  222.4410 C   0  0  0  0  0  0  0  0  0  0  0  0
  142.2297   81.4420  221.6508 H   0  0  0  0  0  0  0  0  0  0  0  0
  141.3543   81.5486  223.2439 H   0  0  0  0  0  0  0  0  0  0  0  0
  142.6880   79.8790  223.0670 C   0  0  0  0  0  0  0  0  0  0  0  0
  143.4081   79.5547  222.3013 H   0  0  0  0  0  0  0  0  0  0  0  0
  143.2094   80.3707  223.9015 H   0  0  0  0  0  0  0  0  0  0  0  0
  141.9450   78.6520  223.6090 C   0  0  0  0  0  0  0  0  0  0  0  0
  142.6791   77.9639  224.0536 H   0  0  0  0  0  0  0  0  0  0  0  0
  141.2170   79.0061  224.3537 H   0  0  0  0  0  0  0  0  0  0  0  0
  141.1940   77.9290  222.5570 N   0  0  0  0  0  0  0  0  0  0  0  0
  140.3510   77.5000  223.0040 H   0  0  0  0  0  0  0  0  0  0  0  0
  141.7920   77.1490  222.2050 H   0  0  0  0  0  0  0  0  0  0  0  0
  140.1290   73.7310  222.3360 N   0  0  0  0  0  0  0  0  0  0  0  0
  139.4630   70.3130  222.4680 C   0  0  0  0  0  0  0  0  0  0  0  0
  140.2412   69.7103  221.9769 H   0  0  0  0  0  0  0  0  0  0  0  0
  138.7527   70.7359  221.7423 H   0  0  0  0  0  0  0  0  0  0  0  0
  138.6660   69.4050  223.4160 C   0  0  0  0  0  0  0  0  0  0  0  0
  138.4443   68.4561  222.9056 H   0  0  0  0  0  0  0  0  0  0  0  0
  137.7325   69.9164  223.6937 H   0  0  0  0  0  0  0  0  0  0  0  0
  1  2  1  0
  2  3  2  0
  3  4  1  0
  3  5  1  0
  5  6  1  0
  5  7  2  0
  7  8  1  0
  8  9  2  0
  9 10  1  0
  8 11  1  0
 11 12  1  0
 11 13  1  0
 11 14  1  0
 14 15  1  0
 15 16  1  0
 16 17  2  0
 17 18  1  0
 18 19  1  0
 19 20  1  0
 19 21  1  0
 19 22  1  0
 22 23  1  0
 22 24  1  0
 22 25  1  0
 25 26  1  0
 26 27  1  0
 26 28  1  0
 26 29  1  0
 29 30  1  0
 29 31  1  0
 17 32  1  0
 32 33  1  0
 32 34  1  0
 34 35  2  0
 35 36  1  0
 36 37  1  0
 36 38  1  0
 36 39  1  0
 39 40  1  0
 39 41  1  0
 39 42  1  0
 42 43  1  6
 42 44  1  0
 44 45  1  0
 44 46  1  0
 44 47  1  0
 47 48  1  0
 47 49  1  0
 47 50  1  0
 50 51  1  0
 50 52  1  0
 50 53  1  0
 53 54  1  0
 53 55  1  0
 53 56  1  0
 56 57  1  0
 56 58  1  0
 34 59  1  0
 14 60  1  0
 60 61  1  0
 60 62  1  0
 60 63  1  0
 63 64  1  0
 63 65  1  0
  9  2  1  0
 59 15  2  0
 63  7  1  0
 29 18  1  0
 56 42  1  0
M  CHG  1  56   1
M  END
>  <UniqueID>  (11) 
487

>  <SMILES>  (11) 
c1ccc2c(c1)CCN(c1nc(N3CCOCC3)[nH]/c(=N/CC[C@H]3CCCC[NH2+]3)n1)C2

>  <Energy>  (11) 
76.1538113849742

>  <Genealogy>  (11) 
c1ccc2c(c1)CCN(c1nc(NCCC3CCCC[NH2+]3)nc(N3CCOCC3)n1)C2 (protonated)
c1ccc2c(c1)CCN(c1nc(N3CCOCC3)[nH]c(=NCCC3CCCC[NH2+]3)n1)C2 (tautomer)
c1ccc2c(c1)CCN(c1nc(N3CCOCC3)[nH]c(=NCC[C@H]3CCCC[NH2+]3)n1)C2 (chirality)
c1ccc2c(c1)CCN(c1nc(N3CCOCC3)[nH]/c(=N/CC[C@H]3CCCC[NH2+]3)n1)C2 (cis-trans isomerization)
c1ccc2c(c1)CCN(c1nc(N3CCOCC3)[nH]/c(=N/CC[C@H]3CCCC[NH2+]3)n1)C2 (3D coordinates assigned)
c1ccc2c(c1)CCN(c1nc(N3CCOCC3)[nH]/c(=N/CC[C@H]3CCCC[NH2+]3)n1)C2 (nonaromatic ring conformer: 76.1538113849742 kcal/mol)

>  <smiles>  (11) 
c1ccc2c(c1)CCN(c1nc(NCCC3CCCCN3)nc(N3CCOCC3)n1)C2

>  <score_type>  (11) 
oracle

>  <origin>  (11) 
autodockgpu

>  <m_score__min__energy>  (11) 
-10.529999999999999

>  <m_primary>  (11) 
energy

>  <meeko>  (11) 
{"free_energy": -9.23, "intermolecular_energy": -11.02, "internal_energy": -1.58, "cluster_size": 11, "cluster_id": 1, "rank_in_cluster": 6}

>  <energy>  (11) 
-8.62

>  <cluster_rmsd>  (11) 
1.16

>  <rmsd>  (11) 
271.61

>  <cluster>  (11) 
1

$$$$
MXRVYNFLTYDQGX-PQYUSCEXNA-O
     RDKit          3D

 65 69  0  0  0  0  0  0  0  0999 V2000
  143.4124   81.4200  223.3377 H   0  0  0  0  0  0  0  0  0  0  0  0
  142.5130   80.8020  223.1990 C   0  0  0  0  0  0  0  0  0  0  0  0
  141.3160   81.1610  223.8270 C   0  0  0  0  0  0  0  0  0  0  0  0
  141.2745   82.0611  224.4579 H   0  0  0  0  0  0  0  0  0  0  0  0
  140.1720   80.3760  223.6530 C   0  0  0  0  0  0  0  0  0  0  0  0
  139.2274   80.6675  224.1354 H   0  0  0  0  0  0  0  0  0  0  0  0
  140.2270   79.2170  222.8640 C   0  0  0  0  0  0  0  0  0  0  0  0
  141.4270   78.8580  222.2320 C   0  0  0  0  0  0  0  0  0  0  0  0
  142.5690   79.6590  222.3950 C   0  0  0  0  0  0  0  0  0  0  0  0
  143.5078   79.3873  221.8902 H   0  0  0  0  0  0  0  0  0  0  0  0
  141.4500   77.6450  221.3400 C   0  0  0  0  0  0  0  0  0  0  0  0
  142.4816   77.2693  221.2710 H   0  0  0  0  0  0  0  0  0  0  0  0
  141.0767   77.9348  220.3467 H   0  0  0  0  0  0  0  0  0  0  0  0
  140.5830   76.5770  221.8730 N   0  0  0  0  0  0  0  0  0  0  0  0
  140.9100   75.1960  221.6100 C   0  0  0  0  0  0  0  0  0  0  0  0
  142.1170   74.8650  221.0820 N   0  0  0  0  0  0  0  0  0  0  0  0
  142.4500   73.5690  220.8550 C   0  0  0  0  0  0  0  0  0  0  0  0
  143.7440   73.2550  220.2980 N   0  0  0  0  0  0  0  0  0  0  0  0
  143.8930   72.2050  219.2830 C   0  0  0  0  0  0  0  0  0  0  0  0
  143.1572   71.4095  219.4720 H   0  0  0  0  0  0  0  0  0  0  0  0
  143.7258   72.6411  218.2871 H   0  0  0  0  0  0  0  0  0  0  0  0
  145.3050   71.6130  219.3400 C   0  0  0  0  0  0  0  0  0  0  0  0
  145.4192   71.0446  220.2748 H   0  0  0  0  0  0  0  0  0  0  0  0
  145.4445   70.9553  218.4694 H   0  0  0  0  0  0  0  0  0  0  0  0
  146.2850   72.6330  219.2960 O   0  0  0  0  0  0  0  0  0  0  0  0
  146.1890   73.4330  220.4600 C   0  0  0  0  0  0  0  0  0  0  0  0
  146.2554   72.7875  221.3482 H   0  0  0  0  0  0  0  0  0  0  0  0
  147.0119   74.1630  220.4561 H   0  0  0  0  0  0  0  0  0  0  0  0
  144.8590   74.1910  220.4880 C   0  0  0  0  0  0  0  0  0  0  0  0
  144.7485   74.6972  221.4583 H   0  0  0  0  0  0  0  0  0  0  0  0
  144.8494   74.9338  219.6767 H   0  0  0  0  0  0  0  0  0  0  0  0
  141.5560   72.5870  221.1590 N   0  0  0  0  0  0  0  0  0  0  0  0
  141.7800   71.5840  220.9700 H   0  0  0  0  0  0  0  0  0  0  0  0
  140.3390   72.9050  221.6810 C   0  0  0  0  0  0  0  0  0  0  0  0
  139.4950   71.9530  221.9590 N   0  0  0  0  0  0  0  0  0  0  0  0
  139.0790   71.5300  223.2980 C   0  0  0  0  0  0  0  0  0  0  0  0
  139.6466   70.6335  223.5881 H   0  0  0  0  0  0  0  0  0  0  0  0
  139.2754   72.3465  224.0084 H   0  0  0  0  0  0  0  0  0  0  0  0
  137.5790   71.2060  223.3120 C   0  0  0  0  0  0  0  0  0  0  0  0
  137.4114   70.2986  222.7132 H   0  0  0  0  0  0  0  0  0  0  0  0
  137.2836   71.0672  224.3625 H   0  0  0  0  0  0  0  0  0  0  0  0
  136.7050   72.3460  222.7340 C   0  0  1  0  0  0  0  0  0  0  0  0
  136.2129   71.9729  221.8237 H   0  0  0  0  0  0  0  0  0  0  0  0
  135.6140   72.7510  223.7430 C   0  0  0  0  0  0  0  0  0  0  0  0
  135.0446   71.8564  224.0355 H   0  0  0  0  0  0  0  0  0  0  0  0
  136.0989   73.2033  224.6207 H   0  0  0  0  0  0  0  0  0  0  0  0
  134.6500   73.7830  223.1290 C   0  0  0  0  0  0  0  0  0  0  0  0
  133.7886   73.2490  222.7014 H   0  0  0  0  0  0  0  0  0  0  0  0
  134.3450   74.4709  223.9313 H   0  0  0  0  0  0  0  0  0  0  0  0
  135.3070   74.6240  222.0210 C   0  0  0  0  0  0  0  0  0  0  0  0
  135.1715   74.1155  221.0551 H   0  0  0  0  0  0  0  0  0  0  0  0
  134.8309   75.6155  222.0043 H   0  0  0  0  0  0  0  0  0  0  0  0
  136.8060   74.8060  222.2860 C   0  0  0  0  0  0  0  0  0  0  0  0
  137.2349   75.4173  221.4783 H   0  0  0  0  0  0  0  0  0  0  0  0
  136.9143   75.2944  223.2656 H   0  0  0  0  0  0  0  0  0  0  0  0
  137.5350   73.5170  222.3440 N   0  0  0  0  0  0  0  0  0  0  0  0
  138.3340   73.6320  223.0100 H   0  0  0  0  0  0  0  0  0  0  0  0
  137.9390   73.3260  221.4000 H   0  0  0  0  0  0  0  0  0  0  0  0
  140.0230   74.2100  221.9030 N   0  0  0  0  0  0  0  0  0  0  0  0
  139.3570   76.8880  222.6350 C   0  0  0  0  0  0  0  0  0  0  0  0
  139.5029   76.5718  223.6784 H   0  0  0  0  0  0  0  0  0  0  0  0
  138.5258   76.3499  222.1558 H   0  0  0  0  0  0  0  0  0  0  0  0
  139.0060   78.3830  222.6210 C   0  0  0  0  0  0  0  0  0  0  0  0
  138.2665   78.5875  223.4093 H   0  0  0  0  0  0  0  0  0  0  0  0
  138.5935   78.6398  221.6341 H   0  0  0  0  0  0  0  0  0  0  0  0
  1  2  1  0
  2  3  2  0
  3  4  1  0
  3  5  1  0
  5  6  1  0
  5  7  2  0
  7  8  1  0
  8  9  2  0
  9 10  1  0
  8 11  1  0
 11 12  1  0
 11 13  1  0
 11 14  1  0
 14 15  1  0
 15 16  1  0
 16 17  2  0
 17 18  1  0
 18 19  1  0
 19 20  1  0
 19 21  1  0
 19 22  1  0
 22 23  1  0
 22 24  1  0
 22 25  1  0
 25 26  1  0
 26 27  1  0
 26 28  1  0
 26 29  1  0
 29 30  1  0
 29 31  1  0
 17 32  1  0
 32 33  1  0
 32 34  1  0
 34 35  2  0
 35 36  1  0
 36 37  1  0
 36 38  1  0
 36 39  1  0
 39 40  1  0
 39 41  1  0
 39 42  1  0
 42 43  1  6
 42 44  1  0
 44 45  1  0
 44 46  1  0
 44 47  1  0
 47 48  1  0
 47 49  1  0
 47 50  1  0
 50 51  1  0
 50 52  1  0
 50 53  1  0
 53 54  1  0
 53 55  1  0
 53 56  1  0
 56 57  1  0
 56 58  1  0
 34 59  1  0
 14 60  1  0
 60 61  1  0
 60 62  1  0
 60 63  1  0
 63 64  1  0
 63 65  1  0
  9  2  1  0
 59 15  2  0
 63  7  1  0
 29 18  1  0
 56 42  1  0
M  CHG  1  56   1
M  END
>  <UniqueID>  (12) 
487

>  <SMILES>  (12) 
c1ccc2c(c1)CCN(c1nc(N3CCOCC3)[nH]/c(=N/CC[C@H]3CCCC[NH2+]3)n1)C2

>  <Energy>  (12) 
76.1538113849742

>  <Genealogy>  (12) 
c1ccc2c(c1)CCN(c1nc(NCCC3CCCC[NH2+]3)nc(N3CCOCC3)n1)C2 (protonated)
c1ccc2c(c1)CCN(c1nc(N3CCOCC3)[nH]c(=NCCC3CCCC[NH2+]3)n1)C2 (tautomer)
c1ccc2c(c1)CCN(c1nc(N3CCOCC3)[nH]c(=NCC[C@H]3CCCC[NH2+]3)n1)C2 (chirality)
c1ccc2c(c1)CCN(c1nc(N3CCOCC3)[nH]/c(=N/CC[C@H]3CCCC[NH2+]3)n1)C2 (cis-trans isomerization)
c1ccc2c(c1)CCN(c1nc(N3CCOCC3)[nH]/c(=N/CC[C@H]3CCCC[NH2+]3)n1)C2 (3D coordinates assigned)
c1ccc2c(c1)CCN(c1nc(N3CCOCC3)[nH]/c(=N/CC[C@H]3CCCC[NH2+]3)n1)C2 (nonaromatic ring conformer: 76.1538113849742 kcal/mol)

>  <smiles>  (12) 
c1ccc2c(c1)CCN(c1nc(NCCC3CCCCN3)nc(N3CCOCC3)n1)C2

>  <score_type>  (12) 
oracle

>  <origin>  (12) 
autodockgpu

>  <m_score__min__energy>  (12) 
-10.529999999999999

>  <m_primary>  (12) 
energy

>  <meeko>  (12) 
{"free_energy": -8.05, "intermolecular_energy": -9.84, "internal_energy": -2.66, "cluster_size": 6, "cluster_id": 3, "rank_in_cluster": 1}

>  <energy>  (12) 
-8.74

>  <cluster_rmsd>  (12) 
0.0

>  <rmsd>  (12) 
271.17

>  <cluster>  (12) 
2

$$$$
MXRVYNFLTYDQGX-PQYUSCEXNA-O
     RDKit          3D

 65 69  0  0  0  0  0  0  0  0999 V2000
  141.8730   68.3958  227.4937 H   0  0  0  0  0  0  0  0  0  0  0  0
  141.1290   68.7700  226.7750 C   0  0  0  0  0  0  0  0  0  0  0  0
  140.0220   67.9830  226.4430 C   0  0  0  0  0  0  0  0  0  0  0  0
  139.8954   66.9910  226.9011 H   0  0  0  0  0  0  0  0  0  0  0  0
  139.0750   68.4570  225.5280 C   0  0  0  0  0  0  0  0  0  0  0  0
  138.1966   67.8436  225.2790 H   0  0  0  0  0  0  0  0  0  0  0  0
  139.2450   69.7140  224.9280 C   0  0  0  0  0  0  0  0  0  0  0  0
  140.3550   70.5040  225.2620 C   0  0  0  0  0  0  0  0  0  0  0  0
  141.2920   70.0320  226.1950 C   0  0  0  0  0  0  0  0  0  0  0  0
  142.1554   70.6556  226.4701 H   0  0  0  0  0  0  0  0  0  0  0  0
  140.4860   71.8750  224.6530 C   0  0  0  0  0  0  0  0  0  0  0  0
  141.5441   72.1754  224.6689 H   0  0  0  0  0  0  0  0  0  0  0  0
  139.8755   72.5773  225.2395 H   0  0  0  0  0  0  0  0  0  0  0  0
  140.0030   71.8860  223.2590 N   0  0  0  0  0  0  0  0  0  0  0  0
  140.5820   72.8090  222.3120 C   0  0  0  0  0  0  0  0  0  0  0  0
  141.8090   72.5690  221.7830 N   0  0  0  0  0  0  0  0  0  0  0  0
  142.3550   73.4120  220.8690 C   0  0  0  0  0  0  0  0  0  0  0  0
  143.6590   73.1220  220.3250 N   0  0  0  0  0  0  0  0  0  0  0  0
  143.8490   72.0340  219.3590 C   0  0  0  0  0  0  0  0  0  0  0  0
  143.1446   71.2199  219.5852 H   0  0  0  0  0  0  0  0  0  0  0  0
  143.6653   72.4180  218.3447 H   0  0  0  0  0  0  0  0  0  0  0  0
  145.2830   71.5000  219.4400 C   0  0  0  0  0  0  0  0  0  0  0  0
  145.4191   70.9793  220.3994 H   0  0  0  0  0  0  0  0  0  0  0  0
  145.4474   70.8096  218.5996 H   0  0  0  0  0  0  0  0  0  0  0  0
  146.2230   72.5530  219.3480 O   0  0  0  0  0  0  0  0  0  0  0  0
  146.0960   73.4020  220.4740 C   0  0  0  0  0  0  0  0  0  0  0  0
  146.1876   72.8016  221.3911 H   0  0  0  0  0  0  0  0  0  0  0  0
  146.8898   74.1625  220.4349 H   0  0  0  0  0  0  0  0  0  0  0  0
  144.7370   74.1080  220.4690 C   0  0  0  0  0  0  0  0  0  0  0  0
  144.6069   74.6543  221.4148 H   0  0  0  0  0  0  0  0  0  0  0  0
  144.6985   74.8108  219.6236 H   0  0  0  0  0  0  0  0  0  0  0  0
  141.6580   74.5170  220.4830 N   0  0  0  0  0  0  0  0  0  0  0  0
  142.0690   75.1940  219.8000 H   0  0  0  0  0  0  0  0  0  0  0  0
  140.4310   74.7750  221.0110 C   0  0  0  0  0  0  0  0  0  0  0  0
  139.7840   75.8400  220.6340 N   0  0  0  0  0  0  0  0  0  0  0  0
  138.8020   76.5830  221.4280 C   0  0  0  0  0  0  0  0  0  0  0  0
  138.4265   77.4322  220.8382 H   0  0  0  0  0  0  0  0  0  0  0  0
  137.9725   75.9103  221.6912 H   0  0  0  0  0  0  0  0  0  0  0  0
  139.4460   77.1080  222.7170 C   0  0  0  0  0  0  0  0  0  0  0  0
  138.6511   77.2970  223.4535 H   0  0  0  0  0  0  0  0  0  0  0  0
  140.1559   76.3427  223.0638 H   0  0  0  0  0  0  0  0  0  0  0  0
  140.2450   78.4170  222.5080 C   0  0  1  0  0  0  0  0  0  0  0  0
  139.5921   79.2627  222.7699 H   0  0  0  0  0  0  0  0  0  0  0  0
  141.4760   78.4480  223.4350 C   0  0  0  0  0  0  0  0  0  0  0  0
  141.1494   78.2844  224.4726 H   0  0  0  0  0  0  0  0  0  0  0  0
  142.1717   77.6559  223.1209 H   0  0  0  0  0  0  0  0  0  0  0  0
  142.2010   79.8030  223.3430 C   0  0  0  0  0  0  0  0  0  0  0  0
  141.8215   80.4598  224.1396 H   0  0  0  0  0  0  0  0  0  0  0  0
  143.2786   79.6109  223.4524 H   0  0  0  0  0  0  0  0  0  0  0  0
  141.9890   80.5000  221.9880 C   0  0  0  0  0  0  0  0  0  0  0  0
  141.0908   81.1325  222.0454 H   0  0  0  0  0  0  0  0  0  0  0  0
  142.8764   81.1106  221.7651 H   0  0  0  0  0  0  0  0  0  0  0  0
  141.8080   79.4730  220.8650 C   0  0  0  0  0  0  0  0  0  0  0  0
  141.6668   80.0104  219.9156 H   0  0  0  0  0  0  0  0  0  0  0  0
  142.7080   78.8408  220.8437 H   0  0  0  0  0  0  0  0  0  0  0  0
  140.6420   78.5860  221.0860 N   0  0  0  0  0  0  0  0  0  0  0  0
  140.8630   77.6560  220.6580 H   0  0  0  0  0  0  0  0  0  0  0  0
  139.8260   78.9820  220.5680 H   0  0  0  0  0  0  0  0  0  0  0  0
  139.8990   73.9170  221.9250 N   0  0  0  0  0  0  0  0  0  0  0  0
  138.9040   71.0040  222.8190 C   0  0  0  0  0  0  0  0  0  0  0  0
  139.3118   70.2574  222.1216 H   0  0  0  0  0  0  0  0  0  0  0  0
  138.1433   71.6397  222.3423 H   0  0  0  0  0  0  0  0  0  0  0  0
  138.2230   70.2670  223.9810 C   0  0  0  0  0  0  0  0  0  0  0  0
  137.6179   69.4407  223.5796 H   0  0  0  0  0  0  0  0  0  0  0  0
  137.5840   70.9780  224.5253 H   0  0  0  0  0  0  0  0  0  0  0  0
  1  2  1  0
  2  3  2  0
  3  4  1  0
  3  5  1  0
  5  6  1  0
  5  7  2  0
  7  8  1  0
  8  9  2  0
  9 10  1  0
  8 11  1  0
 11 12  1  0
 11 13  1  0
 11 14  1  0
 14 15  1  0
 15 16  1  0
 16 17  2  0
 17 18  1  0
 18 19  1  0
 19 20  1  0
 19 21  1  0
 19 22  1  0
 22 23  1  0
 22 24  1  0
 22 25  1  0
 25 26  1  0
 26 27  1  0
 26 28  1  0
 26 29  1  0
 29 30  1  0
 29 31  1  0
 17 32  1  0
 32 33  1  0
 32 34  1  0
 34 35  2  0
 35 36  1  0
 36 37  1  0
 36 38  1  0
 36 39  1  0
 39 40  1  0
 39 41  1  0
 39 42  1  0
 42 43  1  1
 42 44  1  0
 44 45  1  0
 44 46  1  0
 44 47  1  0
 47 48  1  0
 47 49  1  0
 47 50  1  0
 50 51  1  0
 50 52  1  0
 50 53  1  0
 53 54  1  0
 53 55  1  0
 53 56  1  0
 56 57  1  0
 56 58  1  0
 34 59  1  0
 14 60  1  0
 60 61  1  0
 60 62  1  0
 60 63  1  0
 63 64  1  0
 63 65  1  0
  9  2  1  0
 59 15  2  0
 63  7  1  0
 29 18  1  0
 56 42  1  0
M  CHG  1  56   1
M  END
>  <UniqueID>  (13) 
487

>  <SMILES>  (13) 
c1ccc2c(c1)CCN(c1nc(N3CCOCC3)[nH]/c(=N/CC[C@H]3CCCC[NH2+]3)n1)C2

>  <Energy>  (13) 
76.1538113849742

>  <Genealogy>  (13) 
c1ccc2c(c1)CCN(c1nc(NCCC3CCCC[NH2+]3)nc(N3CCOCC3)n1)C2 (protonated)
c1ccc2c(c1)CCN(c1nc(N3CCOCC3)[nH]c(=NCCC3CCCC[NH2+]3)n1)C2 (tautomer)
c1ccc2c(c1)CCN(c1nc(N3CCOCC3)[nH]c(=NCC[C@H]3CCCC[NH2+]3)n1)C2 (chirality)
c1ccc2c(c1)CCN(c1nc(N3CCOCC3)[nH]/c(=N/CC[C@H]3CCCC[NH2+]3)n1)C2 (cis-trans isomerization)
c1ccc2c(c1)CCN(c1nc(N3CCOCC3)[nH]/c(=N/CC[C@H]3CCCC[NH2+]3)n1)C2 (3D coordinates assigned)
c1ccc2c(c1)CCN(c1nc(N3CCOCC3)[nH]/c(=N/CC[C@H]3CCCC[NH2+]3)n1)C2 (nonaromatic ring conformer: 76.1538113849742 kcal/mol)

>  <smiles>  (13) 
c1ccc2c(c1)CCN(c1nc(NCCC3CCCCN3)nc(N3CCOCC3)n1)C2

>  <score_type>  (13) 
oracle

>  <origin>  (13) 
autodockgpu

>  <m_score__min__energy>  (13) 
-10.529999999999999

>  <m_primary>  (13) 
energy

>  <meeko>  (13) 
{"free_energy": -8.62, "intermolecular_energy": -10.41, "internal_energy": -1.37, "cluster_size": 11, "cluster_id": 1, "rank_in_cluster": 11}

>  <energy>  (13) 
-8.25

>  <cluster_rmsd>  (13) 
0.67

>  <rmsd>  (13) 
270.91

>  <cluster>  (13) 
2

$$$$
MXRVYNFLTYDQGX-PQYUSCEXNA-O
     RDKit          3D

 65 69  0  0  0  0  0  0  0  0999 V2000
  141.5719   68.1570  227.6663 H   0  0  0  0  0  0  0  0  0  0  0  0
  140.9320   68.4560  226.8230 C   0  0  0  0  0  0  0  0  0  0  0  0
  140.0410   67.5350  226.2610 C   0  0  0  0  0  0  0  0  0  0  0  0
  139.9800   66.5130  226.6631 H   0  0  0  0  0  0  0  0  0  0  0  0
  139.2280   67.9140  225.1880 C   0  0  0  0  0  0  0  0  0  0  0  0
  138.5174   67.1937  224.7565 H   0  0  0  0  0  0  0  0  0  0  0  0
  139.3170   69.2110  224.6610 C   0  0  0  0  0  0  0  0  0  0  0  0
  140.2090   70.1350  225.2250 C   0  0  0  0  0  0  0  0  0  0  0  0
  141.0100   69.7560  226.3140 C   0  0  0  0  0  0  0  0  0  0  0  0
  141.7000   70.4828  226.7675 H   0  0  0  0  0  0  0  0  0  0  0  0
  140.2460   71.5400  224.6850 C   0  0  0  0  0  0  0  0  0  0  0  0
  141.2238   71.9878  224.9160 H   0  0  0  0  0  0  0  0  0  0  0  0
  139.4355   72.1161  225.1554 H   0  0  0  0  0  0  0  0  0  0  0  0
  140.0430   71.5540  223.2240 N   0  0  0  0  0  0  0  0  0  0  0  0
  140.6460   72.5980  222.4310 C   0  0  0  0  0  0  0  0  0  0  0  0
  141.8040   72.3670  221.7590 N   0  0  0  0  0  0  0  0  0  0  0  0
  142.3680   73.3300  220.9860 C   0  0  0  0  0  0  0  0  0  0  0  0
  143.5960   73.0470  220.2820 N   0  0  0  0  0  0  0  0  0  0  0  0
  143.6530   72.0020  219.2540 C   0  0  0  0  0  0  0  0  0  0  0  0
  142.9635   71.1886  219.5241 H   0  0  0  0  0  0  0  0  0  0  0  0
  143.3621   72.4349  218.2855 H   0  0  0  0  0  0  0  0  0  0  0  0
  145.0760   71.4440  219.1450 C   0  0  0  0  0  0  0  0  0  0  0  0
  145.3113   70.8775  220.0581 H   0  0  0  0  0  0  0  0  0  0  0  0
  145.1298   70.7905  218.2618 H   0  0  0  0  0  0  0  0  0  0  0  0
  146.0190   72.4880  218.9920 O   0  0  0  0  0  0  0  0  0  0  0  0
  146.0380   73.2850  220.1620 C   0  0  0  0  0  0  0  0  0  0  0  0
  146.2218   72.6410  221.0346 H   0  0  0  0  0  0  0  0  0  0  0  0
  146.8370   74.0350  220.0660 H   0  0  0  0  0  0  0  0  0  0  0  0
  144.7020   74.0100  220.3450 C   0  0  0  0  0  0  0  0  0  0  0  0
  144.6916   74.5134  221.3230 H   0  0  0  0  0  0  0  0  0  0  0  0
  144.5809   74.7523  219.5423 H   0  0  0  0  0  0  0  0  0  0  0  0
  141.7630   74.5470  220.8880 N   0  0  0  0  0  0  0  0  0  0  0  0
  142.1930   75.3110  220.3200 H   0  0  0  0  0  0  0  0  0  0  0  0
  140.6080   74.7950  221.5640 C   0  0  0  0  0  0  0  0  0  0  0  0
  140.0480   75.9660  221.4630 N   0  0  0  0  0  0  0  0  0  0  0  0
  139.9290   76.7660  220.2420 C   0  0  0  0  0  0  0  0  0  0  0  0
  140.8368   76.6373  219.6342 H   0  0  0  0  0  0  0  0  0  0  0  0
  139.0466   76.4287  219.6785 H   0  0  0  0  0  0  0  0  0  0  0  0
  139.7600   78.2510  220.5910 C   0  0  0  0  0  0  0  0  0  0  0  0
  139.7280   78.8291  219.6557 H   0  0  0  0  0  0  0  0  0  0  0  0
  138.8282   78.3487  221.1674 H   0  0  0  0  0  0  0  0  0  0  0  0
  140.9080   78.8020  221.4720 C   0  0  1  0  0  0  0  0  0  0  0  0
  141.8252   78.8250  220.8652 H   0  0  0  0  0  0  0  0  0  0  0  0
  140.5900   80.2390  221.9290 C   0  0  0  0  0  0  0  0  0  0  0  0
  140.3683   80.8566  221.0462 H   0  0  0  0  0  0  0  0  0  0  0  0
  139.7228   80.2082  222.6050 H   0  0  0  0  0  0  0  0  0  0  0  0
  141.7820   80.8530  222.6870 C   0  0  0  0  0  0  0  0  0  0  0  0
  142.3976   81.4207  221.9738 H   0  0  0  0  0  0  0  0  0  0  0  0
  141.3747   81.4996  223.4782 H   0  0  0  0  0  0  0  0  0  0  0  0
  142.6660   79.7920  223.3640 C   0  0  0  0  0  0  0  0  0  0  0  0
  143.4461   79.4700  222.6585 H   0  0  0  0  0  0  0  0  0  0  0  0
  143.1194   80.2347  224.2632 H   0  0  0  0  0  0  0  0  0  0  0  0
  141.8360   78.5740  223.7840 C   0  0  0  0  0  0  0  0  0  0  0  0
  142.5013   77.8449  224.2696 H   0  0  0  0  0  0  0  0  0  0  0  0
  141.0508   78.9264  224.4690 H   0  0  0  0  0  0  0  0  0  0  0  0
  141.1680   77.9160  222.6370 N   0  0  0  0  0  0  0  0  0  0  0  0
  140.2730   77.5000  222.9840 H   0  0  0  0  0  0  0  0  0  0  0  0
  141.7740   77.1280  222.3130 H   0  0  0  0  0  0  0  0  0  0  0  0
  140.0550   73.8170  222.3320 N   0  0  0  0  0  0  0  0  0  0  0  0
  139.1960   70.5470  222.5550 C   0  0  0  0  0  0  0  0  0  0  0  0
  139.8387   69.9047  221.9350 H   0  0  0  0  0  0  0  0  0  0  0  0
  138.4536   71.0902  221.9519 H   0  0  0  0  0  0  0  0  0  0  0  0
  138.4240   69.6590  223.5430 C   0  0  0  0  0  0  0  0  0  0  0  0
  138.0402   68.7759  223.0112 H   0  0  0  0  0  0  0  0  0  0  0  0
  137.5918   70.2407  223.9661 H   0  0  0  0  0  0  0  0  0  0  0  0
  1  2  1  0
  2  3  2  0
  3  4  1  0
  3  5  1  0
  5  6  1  0
  5  7  2  0
  7  8  1  0
  8  9  2  0
  9 10  1  0
  8 11  1  0
 11 12  1  0
 11 13  1  0
 11 14  1  0
 14 15  1  0
 15 16  1  0
 16 17  2  0
 17 18  1  0
 18 19  1  0
 19 20  1  0
 19 21  1  0
 19 22  1  0
 22 23  1  0
 22 24  1  0
 22 25  1  0
 25 26  1  0
 26 27  1  0
 26 28  1  0
 26 29  1  0
 29 30  1  0
 29 31  1  0
 17 32  1  0
 32 33  1  0
 32 34  1  0
 34 35  2  0
 35 36  1  0
 36 37  1  0
 36 38  1  0
 36 39  1  0
 39 40  1  0
 39 41  1  0
 39 42  1  0
 42 43  1  6
 42 44  1  0
 44 45  1  0
 44 46  1  0
 44 47  1  0
 47 48  1  0
 47 49  1  0
 47 50  1  0
 50 51  1  0
 50 52  1  0
 50 53  1  0
 53 54  1  0
 53 55  1  0
 53 56  1  0
 56 57  1  0
 56 58  1  0
 34 59  1  0
 14 60  1  0
 60 61  1  0
 60 62  1  0
 60 63  1  0
 63 64  1  0
 63 65  1  0
  9  2  1  0
 59 15  2  0
 63  7  1  0
 29 18  1  0
 56 42  1  0
M  CHG  1  56   1
M  END
>  <UniqueID>  (14) 
487

>  <SMILES>  (14) 
c1ccc2c(c1)CCN(c1nc(N3CCOCC3)[nH]/c(=N/CC[C@H]3CCCC[NH2+]3)n1)C2

>  <Energy>  (14) 
76.1538113849742

>  <Genealogy>  (14) 
c1ccc2c(c1)CCN(c1nc(NCCC3CCCC[NH2+]3)nc(N3CCOCC3)n1)C2 (protonated)
c1ccc2c(c1)CCN(c1nc(N3CCOCC3)[nH]c(=NCCC3CCCC[NH2+]3)n1)C2 (tautomer)
c1ccc2c(c1)CCN(c1nc(N3CCOCC3)[nH]c(=NCC[C@H]3CCCC[NH2+]3)n1)C2 (chirality)
c1ccc2c(c1)CCN(c1nc(N3CCOCC3)[nH]/c(=N/CC[C@H]3CCCC[NH2+]3)n1)C2 (cis-trans isomerization)
c1ccc2c(c1)CCN(c1nc(N3CCOCC3)[nH]/c(=N/CC[C@H]3CCCC[NH2+]3)n1)C2 (3D coordinates assigned)
c1ccc2c(c1)CCN(c1nc(N3CCOCC3)[nH]/c(=N/CC[C@H]3CCCC[NH2+]3)n1)C2 (nonaromatic ring conformer: 76.1538113849742 kcal/mol)

>  <smiles>  (14) 
c1ccc2c(c1)CCN(c1nc(NCCC3CCCCN3)nc(N3CCOCC3)n1)C2

>  <score_type>  (14) 
oracle

>  <origin>  (14) 
autodockgpu

>  <m_score__min__energy>  (14) 
-10.529999999999999

>  <m_primary>  (14) 
energy

>  <meeko>  (14) 
{"free_energy": -9.28, "intermolecular_energy": -11.07, "internal_energy": -1.58, "cluster_size": 11, "cluster_id": 1, "rank_in_cluster": 4}

>  <energy>  (14) 
-7.7

>  <cluster_rmsd>  (14) 
0.92

>  <rmsd>  (14) 
270.74

>  <cluster>  (14) 
2

$$$$
MXRVYNFLTYDQGX-PQYUSCEXNA-O
     RDKit          3D

 65 69  0  0  0  0  0  0  0  0999 V2000
  141.5547   68.3552  227.8882 H   0  0  0  0  0  0  0  0  0  0  0  0
  140.9250   68.6230  227.0270 C   0  0  0  0  0  0  0  0  0  0  0  0
  140.0050   67.6990  226.5200 C   0  0  0  0  0  0  0  0  0  0  0  0
  139.9122   66.7053  226.9826 H   0  0  0  0  0  0  0  0  0  0  0  0
  139.2030   68.0380  225.4250 C   0  0  0  0  0  0  0  0  0  0  0  0
  138.4691   67.3163  225.0371 H   0  0  0  0  0  0  0  0  0  0  0  0
  139.3340   69.2980  224.8210 C   0  0  0  0  0  0  0  0  0  0  0  0
  140.2550   70.2250  225.3300 C   0  0  0  0  0  0  0  0  0  0  0  0
  141.0450   69.8870  226.4400 C   0  0  0  0  0  0  0  0  0  0  0  0
  141.7592   70.6170  226.8487 H   0  0  0  0  0  0  0  0  0  0  0  0
  140.3360   71.5940  224.7060 C   0  0  0  0  0  0  0  0  0  0  0  0
  141.3277   72.0239  224.9103 H   0  0  0  0  0  0  0  0  0  0  0  0
  139.5451   72.2233  225.1401 H   0  0  0  0  0  0  0  0  0  0  0  0
  140.1320   71.5250  223.2460 N   0  0  0  0  0  0  0  0  0  0  0  0
  140.7680   72.5000  222.3920 C   0  0  0  0  0  0  0  0  0  0  0  0
  141.8880   72.1750  221.6970 N   0  0  0  0  0  0  0  0  0  0  0  0
  142.4810   73.0720  220.8670 C   0  0  0  0  0  0  0  0  0  0  0  0
  143.6680   72.6910  220.1400 N   0  0  0  0  0  0  0  0  0  0  0  0
  145.0020   73.0640  220.6230 C   0  0  0  0  0  0  0  0  0  0  0  0
  144.9459   74.0393  221.1286 H   0  0  0  0  0  0  0  0  0  0  0  0
  145.3569   72.2965  221.3265 H   0  0  0  0  0  0  0  0  0  0  0  0
  145.9820   73.1580  219.4490 C   0  0  0  0  0  0  0  0  0  0  0  0
  145.7148   74.0243  218.8260 H   0  0  0  0  0  0  0  0  0  0  0  0
  146.9998   73.2711  219.8506 H   0  0  0  0  0  0  0  0  0  0  0  0
  145.9380   71.9880  218.6570 O   0  0  0  0  0  0  0  0  0  0  0  0
  144.6650   71.8740  218.0480 C   0  0  0  0  0  0  0  0  0  0  0  0
  144.4468   72.7977  217.4919 H   0  0  0  0  0  0  0  0  0  0  0  0
  144.6754   71.0111  217.3658 H   0  0  0  0  0  0  0  0  0  0  0  0
  143.5780   71.6540  219.1030 C   0  0  0  0  0  0  0  0  0  0  0  0
  142.5893   71.7032  218.6233 H   0  0  0  0  0  0  0  0  0  0  0  0
  143.7187   70.6663  219.5664 H   0  0  0  0  0  0  0  0  0  0  0  0
  141.9430   74.3170  220.7360 N   0  0  0  0  0  0  0  0  0  0  0  0
  142.3960   75.0320  220.1240 H   0  0  0  0  0  0  0  0  0  0  0  0
  140.8250   74.6590  221.4350 C   0  0  0  0  0  0  0  0  0  0  0  0
  140.3300   75.8550  221.3010 N   0  0  0  0  0  0  0  0  0  0  0  0
  138.9540   76.2600  221.5970 C   0  0  0  0  0  0  0  0  0  0  0  0
  138.5060   76.7072  220.6974 H   0  0  0  0  0  0  0  0  0  0  0  0
  138.3788   75.3741  221.9042 H   0  0  0  0  0  0  0  0  0  0  0  0
  138.9340   77.2870  222.7360 C   0  0  0  0  0  0  0  0  0  0  0  0
  137.9068   77.6639  222.8492 H   0  0  0  0  0  0  0  0  0  0  0  0
  139.2885   76.7764  223.6435 H   0  0  0  0  0  0  0  0  0  0  0  0
  139.8750   78.4900  222.4870 C   0  0  1  0  0  0  0  0  0  0  0  0
  139.4779   79.0656  221.6379 H   0  0  0  0  0  0  0  0  0  0  0  0
  139.9100   79.4090  223.7230 C   0  0  0  0  0  0  0  0  0  0  0  0
  138.8814   79.6950  223.9879 H   0  0  0  0  0  0  0  0  0  0  0  0
  140.3839   78.8633  224.5523 H   0  0  0  0  0  0  0  0  0  0  0  0
  140.7300   80.6820  223.4410 C   0  0  0  0  0  0  0  0  0  0  0  0
  140.0444   81.4755  223.1089 H   0  0  0  0  0  0  0  0  0  0  0  0
  141.2491   80.9550  224.3716 H   0  0  0  0  0  0  0  0  0  0  0  0
  141.8010   80.4720  222.3570 C   0  0  0  0  0  0  0  0  0  0  0  0
  141.3636   80.6907  221.3717 H   0  0  0  0  0  0  0  0  0  0  0  0
  142.6449   81.1473  222.5617 H   0  0  0  0  0  0  0  0  0  0  0  0
  142.3160   79.0280  222.3680 C   0  0  0  0  0  0  0  0  0  0  0  0
  143.0825   78.9215  221.5863 H   0  0  0  0  0  0  0  0  0  0  0  0
  142.7263   78.8285  223.3689 H   0  0  0  0  0  0  0  0  0  0  0  0
  141.2430   78.0380  222.1180 N   0  0  0  0  0  0  0  0  0  0  0  0
  141.4880   77.1630  222.6370 H   0  0  0  0  0  0  0  0  0  0  0  0
  141.2410   77.8070  221.0990 H   0  0  0  0  0  0  0  0  0  0  0  0
  140.2440   73.7460  222.2600 N   0  0  0  0  0  0  0  0  0  0  0  0
  139.2530   70.5070  222.6390 C   0  0  0  0  0  0  0  0  0  0  0  0
  139.8742   69.8082  222.0595 H   0  0  0  0  0  0  0  0  0  0  0  0
  138.5274   71.0359  222.0035 H   0  0  0  0  0  0  0  0  0  0  0  0
  138.4550   69.7060  223.6780 C   0  0  0  0  0  0  0  0  0  0  0  0
  138.0424   68.8052  223.2003 H   0  0  0  0  0  0  0  0  0  0  0  0
  137.6427   70.3388  224.0648 H   0  0  0  0  0  0  0  0  0  0  0  0
  1  2  1  0
  2  3  2  0
  3  4  1  0
  3  5  1  0
  5  6  1  0
  5  7  2  0
  7  8  1  0
  8  9  2  0
  9 10  1  0
  8 11  1  0
 11 12  1  0
 11 13  1  0
 11 14  1  0
 14 15  1  0
 15 16  1  0
 16 17  2  0
 17 18  1  0
 18 19  1  0
 19 20  1  0
 19 21  1  0
 19 22  1  0
 22 23  1  0
 22 24  1  0
 22 25  1  0
 25 26  1  0
 26 27  1  0
 26 28  1  0
 26 29  1  0
 29 30  1  0
 29 31  1  0
 17 32  1  0
 32 33  1  0
 32 34  1  0
 34 35  2  0
 35 36  1  0
 36 37  1  0
 36 38  1  0
 36 39  1  0
 39 40  1  0
 39 41  1  0
 39 42  1  0
 42 43  1  6
 42 44  1  0
 44 45  1  0
 44 46  1  0
 44 47  1  0
 47 48  1  0
 47 49  1  0
 47 50  1  0
 50 51  1  0
 50 52  1  0
 50 53  1  0
 53 54  1  0
 53 55  1  0
 53 56  1  0
 56 57  1  0
 56 58  1  0
 34 59  1  0
 14 60  1  0
 60 61  1  0
 60 62  1  0
 60 63  1  0
 63 64  1  0
 63 65  1  0
  9  2  1  0
 59 15  2  0
 63  7  1  0
 29 18  1  0
 56 42  1  0
M  CHG  1  56   1
M  END
>  <UniqueID>  (15) 
487

>  <SMILES>  (15) 
c1ccc2c(c1)CCN(c1nc(N3CCOCC3)[nH]/c(=N/CC[C@H]3CCCC[NH2+]3)n1)C2

>  <Energy>  (15) 
76.1538113849742

>  <Genealogy>  (15) 
c1ccc2c(c1)CCN(c1nc(NCCC3CCCC[NH2+]3)nc(N3CCOCC3)n1)C2 (protonated)
c1ccc2c(c1)CCN(c1nc(N3CCOCC3)[nH]c(=NCCC3CCCC[NH2+]3)n1)C2 (tautomer)
c1ccc2c(c1)CCN(c1nc(N3CCOCC3)[nH]c(=NCC[C@H]3CCCC[NH2+]3)n1)C2 (chirality)
c1ccc2c(c1)CCN(c1nc(N3CCOCC3)[nH]/c(=N/CC[C@H]3CCCC[NH2+]3)n1)C2 (cis-trans isomerization)
c1ccc2c(c1)CCN(c1nc(N3CCOCC3)[nH]/c(=N/CC[C@H]3CCCC[NH2+]3)n1)C2 (3D coordinates assigned)
c1ccc2c(c1)CCN(c1nc(N3CCOCC3)[nH]/c(=N/CC[C@H]3CCCC[NH2+]3)n1)C2 (nonaromatic ring conformer: 76.1538113849742 kcal/mol)

>  <smiles>  (15) 
c1ccc2c(c1)CCN(c1nc(NCCC3CCCCN3)nc(N3CCOCC3)n1)C2

>  <score_type>  (15) 
oracle

>  <origin>  (15) 
autodockgpu

>  <m_score__min__energy>  (15) 
-10.529999999999999

>  <m_primary>  (15) 
energy

>  <meeko>  (15) 
{"free_energy": -8.91, "intermolecular_energy": -10.7, "internal_energy": -1.61, "cluster_size": 11, "cluster_id": 1, "rank_in_cluster": 10}

>  <energy>  (15) 
-8.05

>  <cluster_rmsd>  (15) 
0.0

>  <rmsd>  (15) 
271.15

>  <cluster>  (15) 
3

$$$$
MXRVYNFLTYDQGX-PQYUSCEXNA-O
     RDKit          3D

 65 69  0  0  0  0  0  0  0  0999 V2000
  141.6963   68.2072  227.8268 H   0  0  0  0  0  0  0  0  0  0  0  0
  141.0260   68.5020  227.0060 C   0  0  0  0  0  0  0  0  0  0  0  0
  140.0840   67.5930  226.5130 C   0  0  0  0  0  0  0  0  0  0  0  0
  140.0144   66.5841  226.9458 H   0  0  0  0  0  0  0  0  0  0  0  0
  139.2300   67.9670  225.4690 C   0  0  0  0  0  0  0  0  0  0  0  0
  138.4792   67.2570  225.0920 H   0  0  0  0  0  0  0  0  0  0  0  0
  139.3310   69.2470  224.9030 C   0  0  0  0  0  0  0  0  0  0  0  0
  140.2750   70.1580  225.3980 C   0  0  0  0  0  0  0  0  0  0  0  0
  141.1170   69.7850  226.4570 C   0  0  0  0  0  0  0  0  0  0  0  0
  141.8493   70.5025  226.8556 H   0  0  0  0  0  0  0  0  0  0  0  0
  140.3250   71.5470  224.8170 C   0  0  0  0  0  0  0  0  0  0  0  0
  141.3249   71.9722  224.9884 H   0  0  0  0  0  0  0  0  0  0  0  0
  139.5547   72.1592  225.3089 H   0  0  0  0  0  0  0  0  0  0  0  0
  140.0520   71.5270  223.3670 N   0  0  0  0  0  0  0  0  0  0  0  0
  140.6460   72.5310  222.5170 C   0  0  0  0  0  0  0  0  0  0  0  0
  141.7910   72.2640  221.8370 N   0  0  0  0  0  0  0  0  0  0  0  0
  142.3460   73.1880  221.0110 C   0  0  0  0  0  0  0  0  0  0  0  0
  143.5600   72.8680  220.3000 N   0  0  0  0  0  0  0  0  0  0  0  0
  143.5940   71.7810  219.3150 C   0  0  0  0  0  0  0  0  0  0  0  0
  142.9035   70.9844  219.6291 H   0  0  0  0  0  0  0  0  0  0  0  0
  143.2906   72.1758  218.3342 H   0  0  0  0  0  0  0  0  0  0  0  0
  145.0110   71.2090  219.2070 C   0  0  0  0  0  0  0  0  0  0  0  0
  145.2572   70.6791  220.1390 H   0  0  0  0  0  0  0  0  0  0  0  0
  145.0465   70.5190  218.3510 H   0  0  0  0  0  0  0  0  0  0  0  0
  145.9580   72.2390  218.9960 O   0  0  0  0  0  0  0  0  0  0  0  0
  146.0010   73.0840  220.1310 C   0  0  0  0  0  0  0  0  0  0  0  0
  146.1951   72.4758  221.0268 H   0  0  0  0  0  0  0  0  0  0  0  0
  146.8029   73.8238  219.9907 H   0  0  0  0  0  0  0  0  0  0  0  0
  144.6730   73.8250  220.3050 C   0  0  0  0  0  0  0  0  0  0  0  0
  144.6817   74.3687  221.2612 H   0  0  0  0  0  0  0  0  0  0  0  0
  144.5434   74.5340  219.4740 H   0  0  0  0  0  0  0  0  0  0  0  0
  141.7440   74.4020  220.8680 N   0  0  0  0  0  0  0  0  0  0  0  0
  142.1660   75.1380  220.2580 H   0  0  0  0  0  0  0  0  0  0  0  0
  140.6010   74.6860  221.5510 C   0  0  0  0  0  0  0  0  0  0  0  0
  140.0440   75.8540  221.4060 N   0  0  0  0  0  0  0  0  0  0  0  0
  140.0970   76.6960  220.2080 C   0  0  0  0  0  0  0  0  0  0  0  0
  141.0865   76.5961  219.7379 H   0  0  0  0  0  0  0  0  0  0  0  0
  139.3125   76.3720  219.5083 H   0  0  0  0  0  0  0  0  0  0  0  0
  139.8590   78.1650  220.5780 C   0  0  0  0  0  0  0  0  0  0  0  0
  139.8423   78.7604  219.6532 H   0  0  0  0  0  0  0  0  0  0  0  0
  138.9023   78.2157  221.1186 H   0  0  0  0  0  0  0  0  0  0  0  0
  140.9490   78.7410  221.5150 C   0  0  1  0  0  0  0  0  0  0  0  0
  141.8819   78.8335  220.9396 H   0  0  0  0  0  0  0  0  0  0  0  0
  140.5440   80.1420  222.0120 C   0  0  0  0  0  0  0  0  0  0  0  0
  140.3179   80.7800  221.1449 H   0  0  0  0  0  0  0  0  0  0  0  0
  139.6592   80.0429  222.6580 H   0  0  0  0  0  0  0  0  0  0  0  0
  141.6790   80.7860  222.8290 C   0  0  0  0  0  0  0  0  0  0  0  0
  142.2867   81.4090  222.1562 H   0  0  0  0  0  0  0  0  0  0  0  0
  141.2148   81.3821  223.6285 H   0  0  0  0  0  0  0  0  0  0  0  0
  142.5950   79.7470  223.4980 C   0  0  0  0  0  0  0  0  0  0  0  0
  143.4128   79.4909  222.8083 H   0  0  0  0  0  0  0  0  0  0  0  0
  142.9961   80.1789  224.4267 H   0  0  0  0  0  0  0  0  0  0  0  0
  141.8160   78.4740  223.8470 C   0  0  0  0  0  0  0  0  0  0  0  0
  142.5026   77.7617  224.3279 H   0  0  0  0  0  0  0  0  0  0  0  0
  140.9930   78.7611  224.5180 H   0  0  0  0  0  0  0  0  0  0  0  0
  141.2180   77.8260  222.6560 N   0  0  0  0  0  0  0  0  0  0  0  0
  140.3350   77.3540  222.9580 H   0  0  0  0  0  0  0  0  0  0  0  0
  141.8730   77.0820  222.3240 H   0  0  0  0  0  0  0  0  0  0  0  0
  140.0580   73.7470  222.3730 N   0  0  0  0  0  0  0  0  0  0  0  0
  139.1460   70.5280  222.7680 C   0  0  0  0  0  0  0  0  0  0  0  0
  139.7396   69.8502  222.1370 H   0  0  0  0  0  0  0  0  0  0  0  0
  138.3912   71.0760  222.1849 H   0  0  0  0  0  0  0  0  0  0  0  0
  138.3980   69.6910  223.8170 C   0  0  0  0  0  0  0  0  0  0  0  0
  137.9634   68.8057  223.3298 H   0  0  0  0  0  0  0  0  0  0  0  0
  137.6046   70.3089  224.2627 H   0  0  0  0  0  0  0  0  0  0  0  0
  1  2  1  0
  2  3  2  0
  3  4  1  0
  3  5  1  0
  5  6  1  0
  5  7  2  0
  7  8  1  0
  8  9  2  0
  9 10  1  0
  8 11  1  0
 11 12  1  0
 11 13  1  0
 11 14  1  0
 14 15  1  0
 15 16  1  0
 16 17  2  0
 17 18  1  0
 18 19  1  0
 19 20  1  0
 19 21  1  0
 19 22  1  0
 22 23  1  0
 22 24  1  0
 22 25  1  0
 25 26  1  0
 26 27  1  0
 26 28  1  0
 26 29  1  0
 29 30  1  0
 29 31  1  0
 17 32  1  0
 32 33  1  0
 32 34  1  0
 34 35  2  0
 35 36  1  0
 36 37  1  0
 36 38  1  0
 36 39  1  0
 39 40  1  0
 39 41  1  0
 39 42  1  0
 42 43  1  6
 42 44  1  0
 44 45  1  0
 44 46  1  0
 44 47  1  0
 47 48  1  0
 47 49  1  0
 47 50  1  0
 50 51  1  0
 50 52  1  0
 50 53  1  0
 53 54  1  0
 53 55  1  0
 53 56  1  0
 56 57  1  0
 56 58  1  0
 34 59  1  0
 14 60  1  0
 60 61  1  0
 60 62  1  0
 60 63  1  0
 63 64  1  0
 63 65  1  0
  9  2  1  0
 59 15  2  0
 63  7  1  0
 29 18  1  0
 56 42  1  0
M  CHG  1  56   1
M  END
>  <UniqueID>  (16) 
487

>  <SMILES>  (16) 
c1ccc2c(c1)CCN(c1nc(N3CCOCC3)[nH]/c(=N/CC[C@H]3CCCC[NH2+]3)n1)C2

>  <Energy>  (16) 
76.1538113849742

>  <Genealogy>  (16) 
c1ccc2c(c1)CCN(c1nc(NCCC3CCCC[NH2+]3)nc(N3CCOCC3)n1)C2 (protonated)
c1ccc2c(c1)CCN(c1nc(N3CCOCC3)[nH]c(=NCCC3CCCC[NH2+]3)n1)C2 (tautomer)
c1ccc2c(c1)CCN(c1nc(N3CCOCC3)[nH]c(=NCC[C@H]3CCCC[NH2+]3)n1)C2 (chirality)
c1ccc2c(c1)CCN(c1nc(N3CCOCC3)[nH]/c(=N/CC[C@H]3CCCC[NH2+]3)n1)C2 (cis-trans isomerization)
c1ccc2c(c1)CCN(c1nc(N3CCOCC3)[nH]/c(=N/CC[C@H]3CCCC[NH2+]3)n1)C2 (3D coordinates assigned)
c1ccc2c(c1)CCN(c1nc(N3CCOCC3)[nH]/c(=N/CC[C@H]3CCCC[NH2+]3)n1)C2 (nonaromatic ring conformer: 76.1538113849742 kcal/mol)

>  <smiles>  (16) 
c1ccc2c(c1)CCN(c1nc(NCCC3CCCCN3)nc(N3CCOCC3)n1)C2

>  <score_type>  (16) 
oracle

>  <origin>  (16) 
autodockgpu

>  <m_score__min__energy>  (16) 
-10.529999999999999

>  <m_primary>  (16) 
energy

>  <meeko>  (16) 
{"free_energy": -9.36, "intermolecular_energy": -11.15, "internal_energy": -1.47, "cluster_size": 11, "cluster_id": 1, "rank_in_cluster": 3}

>  <energy>  (16) 
-8.04

>  <cluster_rmsd>  (16) 
0.15

>  <rmsd>  (16) 
271.12

>  <cluster>  (16) 
3

$$$$
MXRVYNFLTYDQGX-PQYUSCEXNA-O
     RDKit          3D

 65 69  0  0  0  0  0  0  0  0999 V2000
  143.3567   81.4687  223.5494 H   0  0  0  0  0  0  0  0  0  0  0  0
  142.4520   80.8830  223.3290 C   0  0  0  0  0  0  0  0  0  0  0  0
  141.2080   81.3150  223.8010 C   0  0  0  0  0  0  0  0  0  0  0  0
  141.1351   82.2404  224.3911 H   0  0  0  0  0  0  0  0  0  0  0  0
  140.0570   80.5710  223.5230 C   0  0  0  0  0  0  0  0  0  0  0  0
  139.0775   80.9195  223.8823 H   0  0  0  0  0  0  0  0  0  0  0  0
  140.1500   79.3800  222.7860 C   0  0  0  0  0  0  0  0  0  0  0  0
  141.3970   78.9480  222.3110 C   0  0  0  0  0  0  0  0  0  0  0  0
  142.5470   79.7070  222.5770 C   0  0  0  0  0  0  0  0  0  0  0  0
  143.5239   79.3771  222.1939 H   0  0  0  0  0  0  0  0  0  0  0  0
  141.4660   77.7000  221.4700 C   0  0  0  0  0  0  0  0  0  0  0  0
  142.4804   77.2794  221.5338 H   0  0  0  0  0  0  0  0  0  0  0  0
  141.2220   77.9652  220.4307 H   0  0  0  0  0  0  0  0  0  0  0  0
  140.4960   76.6910  221.9360 N   0  0  0  0  0  0  0  0  0  0  0  0
  140.7890   75.2880  221.7600 C   0  0  0  0  0  0  0  0  0  0  0  0
  141.9300   74.8980  221.1370 N   0  0  0  0  0  0  0  0  0  0  0  0
  142.2320   73.5830  220.9900 C   0  0  0  0  0  0  0  0  0  0  0  0
  143.4570   73.2050  220.3260 N   0  0  0  0  0  0  0  0  0  0  0  0
  143.4840   72.0940  219.3680 C   0  0  0  0  0  0  0  0  0  0  0  0
  142.7570   71.3289  219.6781 H   0  0  0  0  0  0  0  0  0  0  0  0
  143.2250   72.4748  218.3690 H   0  0  0  0  0  0  0  0  0  0  0  0
  144.8840   71.4720  219.3190 C   0  0  0  0  0  0  0  0  0  0  0  0
  145.0821   70.9562  220.2702 H   0  0  0  0  0  0  0  0  0  0  0  0
  144.9229   70.7614  218.4802 H   0  0  0  0  0  0  0  0  0  0  0  0
  145.8720   72.4640  219.1160 O   0  0  0  0  0  0  0  0  0  0  0  0
  145.9090   73.3330  220.2320 C   0  0  0  0  0  0  0  0  0  0  0  0
  146.0534   72.7398  221.1470 H   0  0  0  0  0  0  0  0  0  0  0  0
  146.7404   74.0414  220.1014 H   0  0  0  0  0  0  0  0  0  0  0  0
  144.6020   74.1230  220.3460 C   0  0  0  0  0  0  0  0  0  0  0  0
  144.5992   74.6883  221.2896 H   0  0  0  0  0  0  0  0  0  0  0  0
  144.5238   74.8162  219.4955 H   0  0  0  0  0  0  0  0  0  0  0  0
  141.3730   72.6420  221.4730 N   0  0  0  0  0  0  0  0  0  0  0  0
  141.5720   71.6240  221.3490 H   0  0  0  0  0  0  0  0  0  0  0  0
  140.2200   73.0190  222.0920 C   0  0  0  0  0  0  0  0  0  0  0  0
  139.4090   72.1060  222.5410 N   0  0  0  0  0  0  0  0  0  0  0  0
  138.5920   71.2000  221.7310 C   0  0  0  0  0  0  0  0  0  0  0  0
  139.2300   70.4011  221.3252 H   0  0  0  0  0  0  0  0  0  0  0  0
  137.8030   70.7675  222.3639 H   0  0  0  0  0  0  0  0  0  0  0  0
  137.9390   71.9640  220.5720 C   0  0  0  0  0  0  0  0  0  0  0  0
  138.7291   72.2954  219.8822 H   0  0  0  0  0  0  0  0  0  0  0  0
  137.2287   71.2784  220.0868 H   0  0  0  0  0  0  0  0  0  0  0  0
  137.1380   73.2050  221.0360 C   0  0  1  0  0  0  0  0  0  0  0  0
  137.5788   74.0948  220.5628 H   0  0  0  0  0  0  0  0  0  0  0  0
  135.6680   73.0940  220.5860 C   0  0  0  0  0  0  0  0  0  0  0  0
  135.6360   72.9227  219.4999 H   0  0  0  0  0  0  0  0  0  0  0  0
  135.1994   72.2554  221.1218 H   0  0  0  0  0  0  0  0  0  0  0  0
  134.8920   74.3830  220.9160 C   0  0  0  0  0  0  0  0  0  0  0  0
  134.9125   75.0412  220.0349 H   0  0  0  0  0  0  0  0  0  0  0  0
  133.8654   74.0928  221.1839 H   0  0  0  0  0  0  0  0  0  0  0  0
  135.4860   75.1450  222.1130 C   0  0  0  0  0  0  0  0  0  0  0  0
  136.2467   75.8510  221.7486 H   0  0  0  0  0  0  0  0  0  0  0  0
  134.6744   75.6838  222.6239 H   0  0  0  0  0  0  0  0  0  0  0  0
  136.1350   74.1790  223.1100 C   0  0  0  0  0  0  0  0  0  0  0  0
  136.5389   74.7607  223.9517 H   0  0  0  0  0  0  0  0  0  0  0  0
  135.3601   73.4712  223.4395 H   0  0  0  0  0  0  0  0  0  0  0  0
  137.2350   73.3900  222.5080 N   0  0  0  0  0  0  0  0  0  0  0  0
  137.2620   72.4610  222.9890 H   0  0  0  0  0  0  0  0  0  0  0  0
  138.1370   73.8760  222.7130 H   0  0  0  0  0  0  0  0  0  0  0  0
  139.9350   74.3420  222.2320 N   0  0  0  0  0  0  0  0  0  0  0  0
  139.2070   77.0820  222.5390 C   0  0  0  0  0  0  0  0  0  0  0  0
  139.2181   76.8020  223.6027 H   0  0  0  0  0  0  0  0  0  0  0  0
  138.4125   76.5597  221.9858 H   0  0  0  0  0  0  0  0  0  0  0  0
  138.9280   78.5890  222.4320 C   0  0  0  0  0  0  0  0  0  0  0  0
  138.1132   78.8553  223.1214 H   0  0  0  0  0  0  0  0  0  0  0  0
  138.6429   78.8233  221.3958 H   0  0  0  0  0  0  0  0  0  0  0  0
  1  2  1  0
  2  3  2  0
  3  4  1  0
  3  5  1  0
  5  6  1  0
  5  7  2  0
  7  8  1  0
  8  9  2  0
  9 10  1  0
  8 11  1  0
 11 12  1  0
 11 13  1  0
 11 14  1  0
 14 15  1  0
 15 16  1  0
 16 17  2  0
 17 18  1  0
 18 19  1  0
 19 20  1  0
 19 21  1  0
 19 22  1  0
 22 23  1  0
 22 24  1  0
 22 25  1  0
 25 26  1  0
 26 27  1  0
 26 28  1  0
 26 29  1  0
 29 30  1  0
 29 31  1  0
 17 32  1  0
 32 33  1  0
 32 34  1  0
 34 35  2  0
 35 36  1  0
 36 37  1  0
 36 38  1  0
 36 39  1  0
 39 40  1  0
 39 41  1  0
 39 42  1  0
 42 43  1  6
 42 44  1  0
 44 45  1  0
 44 46  1  0
 44 47  1  0
 47 48  1  0
 47 49  1  0
 47 50  1  0
 50 51  1  0
 50 52  1  0
 50 53  1  0
 53 54  1  0
 53 55  1  0
 53 56  1  0
 56 57  1  0
 56 58  1  0
 34 59  1  0
 14 60  1  0
 60 61  1  0
 60 62  1  0
 60 63  1  0
 63 64  1  0
 63 65  1  0
  9  2  1  0
 59 15  2  0
 63  7  1  0
 29 18  1  0
 56 42  1  0
M  CHG  1  56   1
M  END
>  <UniqueID>  (17) 
487

>  <SMILES>  (17) 
c1ccc2c(c1)CCN(c1nc(N3CCOCC3)[nH]/c(=N/CC[C@H]3CCCC[NH2+]3)n1)C2

>  <Energy>  (17) 
76.1538113849742

>  <Genealogy>  (17) 
c1ccc2c(c1)CCN(c1nc(NCCC3CCCC[NH2+]3)nc(N3CCOCC3)n1)C2 (protonated)
c1ccc2c(c1)CCN(c1nc(N3CCOCC3)[nH]c(=NCCC3CCCC[NH2+]3)n1)C2 (tautomer)
c1ccc2c(c1)CCN(c1nc(N3CCOCC3)[nH]c(=NCC[C@H]3CCCC[NH2+]3)n1)C2 (chirality)
c1ccc2c(c1)CCN(c1nc(N3CCOCC3)[nH]/c(=N/CC[C@H]3CCCC[NH2+]3)n1)C2 (cis-trans isomerization)
c1ccc2c(c1)CCN(c1nc(N3CCOCC3)[nH]/c(=N/CC[C@H]3CCCC[NH2+]3)n1)C2 (3D coordinates assigned)
c1ccc2c(c1)CCN(c1nc(N3CCOCC3)[nH]/c(=N/CC[C@H]3CCCC[NH2+]3)n1)C2 (nonaromatic ring conformer: 76.1538113849742 kcal/mol)

>  <smiles>  (17) 
c1ccc2c(c1)CCN(c1nc(NCCC3CCCCN3)nc(N3CCOCC3)n1)C2

>  <score_type>  (17) 
oracle

>  <origin>  (17) 
autodockgpu

>  <m_score__min__energy>  (17) 
-10.529999999999999

>  <m_primary>  (17) 
energy

>  <meeko>  (17) 
{"free_energy": -7.39, "intermolecular_energy": -9.18, "internal_energy": -2.54, "cluster_size": 6, "cluster_id": 3, "rank_in_cluster": 6}

>  <energy>  (17) 
-8.02

>  <cluster_rmsd>  (17) 
0.07

>  <rmsd>  (17) 
271.15

>  <cluster>  (17) 
3

$$$$
MXRVYNFLTYDQGX-PQYUSCEXNA-O
     RDKit          3D

 65 69  0  0  0  0  0  0  0  0999 V2000
  143.2009   81.3514  223.4665 H   0  0  0  0  0  0  0  0  0  0  0  0
  142.3250   80.7160  223.2690 C   0  0  0  0  0  0  0  0  0  0  0  0
  141.0800   81.0560  223.8080 C   0  0  0  0  0  0  0  0  0  0  0  0
  140.9774   81.9593  224.4273 H   0  0  0  0  0  0  0  0  0  0  0  0
  139.9650   80.2480  223.5600 C   0  0  0  0  0  0  0  0  0  0  0  0
  138.9834   80.5242  223.9726 H   0  0  0  0  0  0  0  0  0  0  0  0
  140.0980   79.0850  222.7850 C   0  0  0  0  0  0  0  0  0  0  0  0
  141.3450   78.7450  222.2420 C   0  0  0  0  0  0  0  0  0  0  0  0
  142.4580   79.5690  222.4790 C   0  0  0  0  0  0  0  0  0  0  0  0
  143.4347   79.3121  222.0431 H   0  0  0  0  0  0  0  0  0  0  0  0
  141.4530   77.5280  221.3630 C   0  0  0  0  0  0  0  0  0  0  0  0
  142.4937   77.1716  221.3693 H   0  0  0  0  0  0  0  0  0  0  0  0
  141.1450   77.8050  220.3440 H   0  0  0  0  0  0  0  0  0  0  0  0
  140.5710   76.4470  221.8410 N   0  0  0  0  0  0  0  0  0  0  0  0
  140.9410   75.0700  221.6110 C   0  0  0  0  0  0  0  0  0  0  0  0
  142.1370   74.7670  221.0440 N   0  0  0  0  0  0  0  0  0  0  0  0
  142.5120   73.4770  220.8480 C   0  0  0  0  0  0  0  0  0  0  0  0
  143.7930   73.1920  220.2470 N   0  0  0  0  0  0  0  0  0  0  0  0
  143.9190   72.2000  219.1740 C   0  0  0  0  0  0  0  0  0  0  0  0
  143.1856   71.3960  219.3344 H   0  0  0  0  0  0  0  0  0  0  0  0
  143.7325   72.6909  218.2074 H   0  0  0  0  0  0  0  0  0  0  0  0
  145.3300   71.6040  219.1680 C   0  0  0  0  0  0  0  0  0  0  0  0
  145.4626   70.9843  220.0671 H   0  0  0  0  0  0  0  0  0  0  0  0
  145.4497   70.9953  218.2596 H   0  0  0  0  0  0  0  0  0  0  0  0
  146.3110   72.6240  219.1600 O   0  0  0  0  0  0  0  0  0  0  0  0
  146.2410   73.3590  220.3670 C   0  0  0  0  0  0  0  0  0  0  0  0
  146.3244   72.6659  221.2171 H   0  0  0  0  0  0  0  0  0  0  0  0
  147.0652   74.0872  220.3858 H   0  0  0  0  0  0  0  0  0  0  0  0
  144.9130   74.1160  220.4640 C   0  0  0  0  0  0  0  0  0  0  0  0
  144.8237   74.5690  221.4624 H   0  0  0  0  0  0  0  0  0  0  0  0
  144.8877   74.9020  219.6949 H   0  0  0  0  0  0  0  0  0  0  0  0
  141.6700   72.4740  221.2240 N   0  0  0  0  0  0  0  0  0  0  0  0
  141.9260   71.4740  221.0600 H   0  0  0  0  0  0  0  0  0  0  0  0
  140.4640   72.7630  221.7850 C   0  0  0  0  0  0  0  0  0  0  0  0
  139.6710   71.7910  222.1320 N   0  0  0  0  0  0  0  0  0  0  0  0
  139.1760   71.5170  223.4830 C   0  0  0  0  0  0  0  0  0  0  0  0
  139.7582   70.6939  223.9228 H   0  0  0  0  0  0  0  0  0  0  0  0
  139.2849   72.4245  224.0950 H   0  0  0  0  0  0  0  0  0  0  0  0
  137.6950   71.1210  223.4370 C   0  0  0  0  0  0  0  0  0  0  0  0
  137.6059   70.1609  222.9076 H   0  0  0  0  0  0  0  0  0  0  0  0
  137.3417   71.0533  224.4765 H   0  0  0  0  0  0  0  0  0  0  0  0
  136.8080   72.1650  222.7160 C   0  0  1  0  0  0  0  0  0  0  0  0
  136.4310   71.7110  221.7877 H   0  0  0  0  0  0  0  0  0  0  0  0
  135.6010   72.5440  223.5950 C   0  0  0  0  0  0  0  0  0  0  0  0
  135.0659   71.6279  223.8855 H   0  0  0  0  0  0  0  0  0  0  0  0
  135.9691   73.0744  224.4856 H   0  0  0  0  0  0  0  0  0  0  0  0
  134.6350   73.4720  222.8360 C   0  0  0  0  0  0  0  0  0  0  0  0
  133.8548   72.8571  222.3637 H   0  0  0  0  0  0  0  0  0  0  0  0
  134.2112   74.1780  223.5654 H   0  0  0  0  0  0  0  0  0  0  0  0
  135.3380   74.2980  221.7450 C   0  0  0  0  0  0  0  0  0  0  0  0
  135.3282   73.7315  220.8022 H   0  0  0  0  0  0  0  0  0  0  0  0
  134.8022   75.2513  221.6265 H   0  0  0  0  0  0  0  0  0  0  0  0
  136.7900   74.5980  222.1350 C   0  0  0  0  0  0  0  0  0  0  0  0
  137.2535   75.1941  221.3351 H   0  0  0  0  0  0  0  0  0  0  0  0
  136.7722   75.1438  223.0899 H   0  0  0  0  0  0  0  0  0  0  0  0
  137.5920   73.3690  222.3360 N   0  0  0  0  0  0  0  0  0  0  0  0
  138.3150   73.5750  223.0640 H   0  0  0  0  0  0  0  0  0  0  0  0
  138.0970   73.1580  221.4450 H   0  0  0  0  0  0  0  0  0  0  0  0
  140.1070   74.0630  221.9760 N   0  0  0  0  0  0  0  0  0  0  0  0
  139.2890   76.7400  222.5120 C   0  0  0  0  0  0  0  0  0  0  0  0
  139.3667   76.4333  223.5655 H   0  0  0  0  0  0  0  0  0  0  0  0
  138.5040   76.1835  221.9791 H   0  0  0  0  0  0  0  0  0  0  0  0
  138.9120   78.2270  222.4620 C   0  0  0  0  0  0  0  0  0  0  0  0
  138.1148   78.4223  223.1943 H   0  0  0  0  0  0  0  0  0  0  0  0
  138.5653   78.4702  221.4468 H   0  0  0  0  0  0  0  0  0  0  0  0
  1  2  1  0
  2  3  2  0
  3  4  1  0
  3  5  1  0
  5  6  1  0
  5  7  2  0
  7  8  1  0
  8  9  2  0
  9 10  1  0
  8 11  1  0
 11 12  1  0
 11 13  1  0
 11 14  1  0
 14 15  1  0
 15 16  1  0
 16 17  2  0
 17 18  1  0
 18 19  1  0
 19 20  1  0
 19 21  1  0
 19 22  1  0
 22 23  1  0
 22 24  1  0
 22 25  1  0
 25 26  1  0
 26 27  1  0
 26 28  1  0
 26 29  1  0
 29 30  1  0
 29 31  1  0
 17 32  1  0
 32 33  1  0
 32 34  1  0
 34 35  2  0
 35 36  1  0
 36 37  1  0
 36 38  1  0
 36 39  1  0
 39 40  1  0
 39 41  1  0
 39 42  1  0
 42 43  1  6
 42 44  1  0
 44 45  1  0
 44 46  1  0
 44 47  1  0
 47 48  1  0
 47 49  1  0
 47 50  1  0
 50 51  1  0
 50 52  1  0
 50 53  1  0
 53 54  1  0
 53 55  1  0
 53 56  1  0
 56 57  1  0
 56 58  1  0
 34 59  1  0
 14 60  1  0
 60 61  1  0
 60 62  1  0
 60 63  1  0
 63 64  1  0
 63 65  1  0
  9  2  1  0
 59 15  2  0
 63  7  1  0
 29 18  1  0
 56 42  1  0
M  CHG  1  56   1
M  END
>  <UniqueID>  (18) 
487

>  <SMILES>  (18) 
c1ccc2c(c1)CCN(c1nc(N3CCOCC3)[nH]/c(=N/CC[C@H]3CCCC[NH2+]3)n1)C2

>  <Energy>  (18) 
76.1538113849742

>  <Genealogy>  (18) 
c1ccc2c(c1)CCN(c1nc(NCCC3CCCC[NH2+]3)nc(N3CCOCC3)n1)C2 (protonated)
c1ccc2c(c1)CCN(c1nc(N3CCOCC3)[nH]c(=NCCC3CCCC[NH2+]3)n1)C2 (tautomer)
c1ccc2c(c1)CCN(c1nc(N3CCOCC3)[nH]c(=NCC[C@H]3CCCC[NH2+]3)n1)C2 (chirality)
c1ccc2c(c1)CCN(c1nc(N3CCOCC3)[nH]/c(=N/CC[C@H]3CCCC[NH2+]3)n1)C2 (cis-trans isomerization)
c1ccc2c(c1)CCN(c1nc(N3CCOCC3)[nH]/c(=N/CC[C@H]3CCCC[NH2+]3)n1)C2 (3D coordinates assigned)
c1ccc2c(c1)CCN(c1nc(N3CCOCC3)[nH]/c(=N/CC[C@H]3CCCC[NH2+]3)n1)C2 (nonaromatic ring conformer: 76.1538113849742 kcal/mol)

>  <smiles>  (18) 
c1ccc2c(c1)CCN(c1nc(NCCC3CCCCN3)nc(N3CCOCC3)n1)C2

>  <score_type>  (18) 
oracle

>  <origin>  (18) 
autodockgpu

>  <m_score__min__energy>  (18) 
-10.529999999999999

>  <m_primary>  (18) 
energy

>  <meeko>  (18) 
{"free_energy": -8.0, "intermolecular_energy": -9.79, "internal_energy": -2.64, "cluster_size": 6, "cluster_id": 3, "rank_in_cluster": 4}

>  <energy>  (18) 
-8.0

>  <cluster_rmsd>  (18) 
0.21

>  <rmsd>  (18) 
271.1

>  <cluster>  (18) 
3

$$$$
MXRVYNFLTYDQGX-PQYUSCEXNA-O
     RDKit          3D

 65 69  0  0  0  0  0  0  0  0999 V2000
  143.4675   81.4660  223.3155 H   0  0  0  0  0  0  0  0  0  0  0  0
  142.5570   80.8650  223.1750 C   0  0  0  0  0  0  0  0  0  0  0  0
  141.3700   81.2370  223.8140 C   0  0  0  0  0  0  0  0  0  0  0  0
  141.3471   82.1302  224.4556 H   0  0  0  0  0  0  0  0  0  0  0  0
  140.2120   80.4730  223.6370 C   0  0  0  0  0  0  0  0  0  0  0  0
  139.2749   80.7750  224.1275 H   0  0  0  0  0  0  0  0  0  0  0  0
  140.2430   79.3220  222.8350 C   0  0  0  0  0  0  0  0  0  0  0  0
  141.4340   78.9500  222.1920 C   0  0  0  0  0  0  0  0  0  0  0  0
  142.5890   79.7310  222.3580 C   0  0  0  0  0  0  0  0  0  0  0  0
  143.5204   79.4502  221.8445 H   0  0  0  0  0  0  0  0  0  0  0  0
  141.4310   77.7470  221.2870 C   0  0  0  0  0  0  0  0  0  0  0  0
  142.4556   77.3546  221.2079 H   0  0  0  0  0  0  0  0  0  0  0  0
  141.0569   78.0542  220.2993 H   0  0  0  0  0  0  0  0  0  0  0  0
  140.5490   76.6880  221.8130 N   0  0  0  0  0  0  0  0  0  0  0  0
  140.8520   75.3050  221.5320 C   0  0  0  0  0  0  0  0  0  0  0  0
  142.0660   74.9560  221.0330 N   0  0  0  0  0  0  0  0  0  0  0  0
  142.3750   73.6560  220.7910 C   0  0  0  0  0  0  0  0  0  0  0  0
  143.6770   73.3210  220.2660 N   0  0  0  0  0  0  0  0  0  0  0  0
  143.8400   72.2500  219.2770 C   0  0  0  0  0  0  0  0  0  0  0  0
  143.0952   71.4632  219.4674 H   0  0  0  0  0  0  0  0  0  0  0  0
  143.6964   72.6671  218.2693 H   0  0  0  0  0  0  0  0  0  0  0  0
  145.2460   71.6500  219.3740 C   0  0  0  0  0  0  0  0  0  0  0  0
  145.3380   71.1006  220.3225 H   0  0  0  0  0  0  0  0  0  0  0  0
  145.3979   70.9731  218.5203 H   0  0  0  0  0  0  0  0  0  0  0  0
  146.2330   72.6620  219.3280 O   0  0  0  0  0  0  0  0  0  0  0  0
  146.1200   73.4870  220.4720 C   0  0  0  0  0  0  0  0  0  0  0  0
  146.1648   72.8603  221.3749 H   0  0  0  0  0  0  0  0  0  0  0  0
  146.9478   74.2114  220.4685 H   0  0  0  0  0  0  0  0  0  0  0  0
  144.7950   74.2540  220.4580 C   0  0  0  0  0  0  0  0  0  0  0  0
  144.6692   74.7814  221.4151 H   0  0  0  0  0  0  0  0  0  0  0  0
  144.8062   74.9794  219.6312 H   0  0  0  0  0  0  0  0  0  0  0  0
  141.4500   72.6900  221.0500 N   0  0  0  0  0  0  0  0  0  0  0  0
  141.6560   71.6860  220.8470 H   0  0  0  0  0  0  0  0  0  0  0  0
  140.2250   73.0270  221.5410 C   0  0  0  0  0  0  0  0  0  0  0  0
  139.3520   72.0910  221.7750 N   0  0  0  0  0  0  0  0  0  0  0  0
  139.0010   71.5430  223.0880 C   0  0  0  0  0  0  0  0  0  0  0  0
  139.5650   70.6136  223.2557 H   0  0  0  0  0  0  0  0  0  0  0  0
  139.2529   72.2822  223.8627 H   0  0  0  0  0  0  0  0  0  0  0  0
  137.4980   71.2420  223.1560 C   0  0  0  0  0  0  0  0  0  0  0  0
  137.2817   70.3885  222.4966 H   0  0  0  0  0  0  0  0  0  0  0  0
  137.2545   71.0232  224.2062 H   0  0  0  0  0  0  0  0  0  0  0  0
  136.6190   72.4380  222.7180 C   0  0  1  0  0  0  0  0  0  0  0  0
  136.0597   72.1403  221.8188 H   0  0  0  0  0  0  0  0  0  0  0  0
  135.6070   72.7940  223.8250 C   0  0  0  0  0  0  0  0  0  0  0  0
  135.0347   71.8935  224.0925 H   0  0  0  0  0  0  0  0  0  0  0  0
  136.1602   73.1720  224.6974 H   0  0  0  0  0  0  0  0  0  0  0  0
  134.6320   73.8880  223.3500 C   0  0  0  0  0  0  0  0  0  0  0  0
  133.7301   73.4043  222.9469 H   0  0  0  0  0  0  0  0  0  0  0  0
  134.4003   74.5247  224.2166 H   0  0  0  0  0  0  0  0  0  0  0  0
  135.2350   74.7900  222.2600 C   0  0  0  0  0  0  0  0  0  0  0  0
  135.0219   74.3536  221.2730 H   0  0  0  0  0  0  0  0  0  0  0  0
  134.7851   75.7903  222.3435 H   0  0  0  0  0  0  0  0  0  0  0  0
  136.7530   74.9200  222.4340 C   0  0  0  0  0  0  0  0  0  0  0  0
  137.1432   75.5769  221.6427 H   0  0  0  0  0  0  0  0  0  0  0  0
  136.9388   75.3357  223.4353 H   0  0  0  0  0  0  0  0  0  0  0  0
  137.4500   73.6160  222.3540 N   0  0  0  0  0  0  0  0  0  0  0  0
  138.2950   73.6670  222.9700 H   0  0  0  0  0  0  0  0  0  0  0  0
  137.7860   73.4830  221.3740 H   0  0  0  0  0  0  0  0  0  0  0  0
  139.9340   74.3350  221.7790 N   0  0  0  0  0  0  0  0  0  0  0  0
  139.3340   77.0110  222.5850 C   0  0  0  0  0  0  0  0  0  0  0  0
  139.4810   76.6815  223.6241 H   0  0  0  0  0  0  0  0  0  0  0  0
  138.4913   76.4919  222.1050 H   0  0  0  0  0  0  0  0  0  0  0  0
  139.0070   78.5120  222.5890 C   0  0  0  0  0  0  0  0  0  0  0  0
  138.2748   78.7200  223.3831 H   0  0  0  0  0  0  0  0  0  0  0  0
  138.5934   78.7867  221.6074 H   0  0  0  0  0  0  0  0  0  0  0  0
  1  2  1  0
  2  3  2  0
  3  4  1  0
  3  5  1  0
  5  6  1  0
  5  7  2  0
  7  8  1  0
  8  9  2  0
  9 10  1  0
  8 11  1  0
 11 12  1  0
 11 13  1  0
 11 14  1  0
 14 15  1  0
 15 16  1  0
 16 17  2  0
 17 18  1  0
 18 19  1  0
 19 20  1  0
 19 21  1  0
 19 22  1  0
 22 23  1  0
 22 24  1  0
 22 25  1  0
 25 26  1  0
 26 27  1  0
 26 28  1  0
 26 29  1  0
 29 30  1  0
 29 31  1  0
 17 32  1  0
 32 33  1  0
 32 34  1  0
 34 35  2  0
 35 36  1  0
 36 37  1  0
 36 38  1  0
 36 39  1  0
 39 40  1  0
 39 41  1  0
 39 42  1  0
 42 43  1  6
 42 44  1  0
 44 45  1  0
 44 46  1  0
 44 47  1  0
 47 48  1  0
 47 49  1  0
 47 50  1  0
 50 51  1  0
 50 52  1  0
 50 53  1  0
 53 54  1  0
 53 55  1  0
 53 56  1  0
 56 57  1  0
 56 58  1  0
 34 59  1  0
 14 60  1  0
 60 61  1  0
 60 62  1  0
 60 63  1  0
 63 64  1  0
 63 65  1  0
  9  2  1  0
 59 15  2  0
 63  7  1  0
 29 18  1  0
 56 42  1  0
M  CHG  1  56   1
M  END
>  <UniqueID>  (19) 
487

>  <SMILES>  (19) 
c1ccc2c(c1)CCN(c1nc(N3CCOCC3)[nH]/c(=N/CC[C@H]3CCCC[NH2+]3)n1)C2

>  <Energy>  (19) 
76.1538113849742

>  <Genealogy>  (19) 
c1ccc2c(c1)CCN(c1nc(NCCC3CCCC[NH2+]3)nc(N3CCOCC3)n1)C2 (protonated)
c1ccc2c(c1)CCN(c1nc(N3CCOCC3)[nH]c(=NCCC3CCCC[NH2+]3)n1)C2 (tautomer)
c1ccc2c(c1)CCN(c1nc(N3CCOCC3)[nH]c(=NCC[C@H]3CCCC[NH2+]3)n1)C2 (chirality)
c1ccc2c(c1)CCN(c1nc(N3CCOCC3)[nH]/c(=N/CC[C@H]3CCCC[NH2+]3)n1)C2 (cis-trans isomerization)
c1ccc2c(c1)CCN(c1nc(N3CCOCC3)[nH]/c(=N/CC[C@H]3CCCC[NH2+]3)n1)C2 (3D coordinates assigned)
c1ccc2c(c1)CCN(c1nc(N3CCOCC3)[nH]/c(=N/CC[C@H]3CCCC[NH2+]3)n1)C2 (nonaromatic ring conformer: 76.1538113849742 kcal/mol)

>  <smiles>  (19) 
c1ccc2c(c1)CCN(c1nc(NCCC3CCCCN3)nc(N3CCOCC3)n1)C2

>  <score_type>  (19) 
oracle

>  <origin>  (19) 
autodockgpu

>  <m_score__min__energy>  (19) 
-10.529999999999999

>  <m_primary>  (19) 
energy

>  <meeko>  (19) 
{"free_energy": -7.92, "intermolecular_energy": -9.71, "internal_energy": -2.67, "cluster_size": 6, "cluster_id": 3, "rank_in_cluster": 5}

>  <energy>  (19) 
-7.92

>  <cluster_rmsd>  (19) 
0.15

>  <rmsd>  (19) 
271.13

>  <cluster>  (19) 
3

$$$$
MXRVYNFLTYDQGX-PQYUSCEXNA-O
     RDKit          3D

 65 69  0  0  0  0  0  0  0  0999 V2000
  141.1600   68.6033  228.0735 H   0  0  0  0  0  0  0  0  0  0  0  0
  140.6730   68.7350  227.0960 C   0  0  0  0  0  0  0  0  0  0  0  0
  140.0640   67.6450  226.4670 C   0  0  0  0  0  0  0  0  0  0  0  0
  140.0705   66.6571  226.9508 H   0  0  0  0  0  0  0  0  0  0  0  0
  139.4460   67.8100  225.2220 C   0  0  0  0  0  0  0  0  0  0  0  0
  138.9545   66.9550  224.7348 H   0  0  0  0  0  0  0  0  0  0  0  0
  139.4530   69.0650  224.5950 C   0  0  0  0  0  0  0  0  0  0  0  0
  140.0610   70.1600  225.2270 C   0  0  0  0  0  0  0  0  0  0  0  0
  140.6640   69.9930  226.4840 C   0  0  0  0  0  0  0  0  0  0  0  0
  141.1299   70.8525  226.9882 H   0  0  0  0  0  0  0  0  0  0  0  0
  140.0030   71.5110  224.5660 C   0  0  0  0  0  0  0  0  0  0  0  0
  140.8338   72.1287  224.9376 H   0  0  0  0  0  0  0  0  0  0  0  0
  139.0364   71.9770  224.8078 H   0  0  0  0  0  0  0  0  0  0  0  0
  140.1110   71.3900  223.1000 N   0  0  0  0  0  0  0  0  0  0  0  0
  140.7070   72.4620  222.3380 C   0  0  0  0  0  0  0  0  0  0  0  0
  141.8330   72.2440  221.6110 N   0  0  0  0  0  0  0  0  0  0  0  0
  142.3890   73.2340  220.8680 C   0  0  0  0  0  0  0  0  0  0  0  0
  143.5830   72.9640  220.1030 N   0  0  0  0  0  0  0  0  0  0  0  0
  143.5650   72.0140  218.9850 C   0  0  0  0  0  0  0  0  0  0  0  0
  142.8475   71.2094  219.2033 H   0  0  0  0  0  0  0  0  0  0  0  0
  143.2672   72.5439  218.0682 H   0  0  0  0  0  0  0  0  0  0  0  0
  144.9580   71.4090  218.7830 C   0  0  0  0  0  0  0  0  0  0  0  0
  145.1926   70.7539  219.6349 H   0  0  0  0  0  0  0  0  0  0  0  0
  144.9582   70.8355  217.8443 H   0  0  0  0  0  0  0  0  0  0  0  0
  145.9420   72.4210  218.6930 O   0  0  0  0  0  0  0  0  0  0  0  0
  146.0300   73.1080  219.9270 C   0  0  0  0  0  0  0  0  0  0  0  0
  146.2090   72.3811  220.7330 H   0  0  0  0  0  0  0  0  0  0  0  0
  146.8590   73.8289  219.8722 H   0  0  0  0  0  0  0  0  0  0  0  0
  144.7330   73.8700  220.2160 C   0  0  0  0  0  0  0  0  0  0  0  0
  144.7725   74.2834  221.2346 H   0  0  0  0  0  0  0  0  0  0  0  0
  144.6232   74.6860  219.4865 H   0  0  0  0  0  0  0  0  0  0  0  0
  141.8080   74.4670  220.8570 N   0  0  0  0  0  0  0  0  0  0  0  0
  142.2330   75.2510  220.3130 H   0  0  0  0  0  0  0  0  0  0  0  0
  140.6850   74.7030  221.5880 C   0  0  0  0  0  0  0  0  0  0  0  0
  140.1480   75.8880  221.5700 N   0  0  0  0  0  0  0  0  0  0  0  0
  139.7560   76.6430  220.3770 C   0  0  0  0  0  0  0  0  0  0  0  0
  140.5410   76.5467  219.6125 H   0  0  0  0  0  0  0  0  0  0  0  0
  138.8063   76.2403  219.9950 H   0  0  0  0  0  0  0  0  0  0  0  0
  139.5660   78.1250  220.7230 C   0  0  0  0  0  0  0  0  0  0  0  0
  139.3697   78.6789  219.7932 H   0  0  0  0  0  0  0  0  0  0  0  0
  138.7244   78.1913  221.4282 H   0  0  0  0  0  0  0  0  0  0  0  0
  140.8000   78.7510  221.4180 C   0  0  1  0  0  0  0  0  0  0  0  0
  141.6239   78.7840  220.6899 H   0  0  0  0  0  0  0  0  0  0  0  0
  140.4900   80.1920  221.8660 C   0  0  0  0  0  0  0  0  0  0  0  0
  140.1248   80.7667  221.0021 H   0  0  0  0  0  0  0  0  0  0  0  0
  139.7255   80.1567  222.6562 H   0  0  0  0  0  0  0  0  0  0  0  0
  141.7490   80.8770  222.4310 C   0  0  0  0  0  0  0  0  0  0  0  0
  142.2380   81.4377  221.6208 H   0  0  0  0  0  0  0  0  0  0  0  0
  141.4280   81.5395  223.2484 H   0  0  0  0  0  0  0  0  0  0  0  0
  142.7590   79.8750  223.0150 C   0  0  0  0  0  0  0  0  0  0  0  0
  143.4481   79.5537  222.2200 H   0  0  0  0  0  0  0  0  0  0  0  0
  143.3126   80.3678  223.8278 H   0  0  0  0  0  0  0  0  0  0  0  0
  142.0430   78.6450  223.5860 C   0  0  0  0  0  0  0  0  0  0  0  0
  142.7970   77.9591  223.9996 H   0  0  0  0  0  0  0  0  0  0  0  0
  141.3449   78.9960  224.3602 H   0  0  0  0  0  0  0  0  0  0  0  0
  141.2520   77.9200  222.5650 N   0  0  0  0  0  0  0  0  0  0  0  0
  140.4300   77.4870  223.0460 H   0  0  0  0  0  0  0  0  0  0  0  0
  141.8390   77.1420  222.1870 H   0  0  0  0  0  0  0  0  0  0  0  0
  140.1400   73.6970  222.3260 N   0  0  0  0  0  0  0  0  0  0  0  0
  139.5800   70.2140  222.3830 C   0  0  0  0  0  0  0  0  0  0  0  0
  140.4253   69.6444  221.9695 H   0  0  0  0  0  0  0  0  0  0  0  0
  138.9096   70.5848  221.5936 H   0  0  0  0  0  0  0  0  0  0  0  0
  138.7570   69.2830  223.2850 C   0  0  0  0  0  0  0  0  0  0  0  0
  138.6252   68.3145  222.7803 H   0  0  0  0  0  0  0  0  0  0  0  0
  137.7792   69.7489  223.4767 H   0  0  0  0  0  0  0  0  0  0  0  0
  1  2  1  0
  2  3  2  0
  3  4  1  0
  3  5  1  0
  5  6  1  0
  5  7  2  0
  7  8  1  0
  8  9  2  0
  9 10  1  0
  8 11  1  0
 11 12  1  0
 11 13  1  0
 11 14  1  0
 14 15  1  0
 15 16  1  0
 16 17  2  0
 17 18  1  0
 18 19  1  0
 19 20  1  0
 19 21  1  0
 19 22  1  0
 22 23  1  0
 22 24  1  0
 22 25  1  0
 25 26  1  0
 26 27  1  0
 26 28  1  0
 26 29  1  0
 29 30  1  0
 29 31  1  0
 17 32  1  0
 32 33  1  0
 32 34  1  0
 34 35  2  0
 35 36  1  0
 36 37  1  0
 36 38  1  0
 36 39  1  0
 39 40  1  0
 39 41  1  0
 39 42  1  0
 42 43  1  6
 42 44  1  0
 44 45  1  0
 44 46  1  0
 44 47  1  0
 47 48  1  0
 47 49  1  0
 47 50  1  0
 50 51  1  0
 50 52  1  0
 50 53  1  0
 53 54  1  0
 53 55  1  0
 53 56  1  0
 56 57  1  0
 56 58  1  0
 34 59  1  0
 14 60  1  0
 60 61  1  0
 60 62  1  0
 60 63  1  0
 63 64  1  0
 63 65  1  0
  9  2  1  0
 59 15  2  0
 63  7  1  0
 29 18  1  0
 56 42  1  0
M  CHG  1  56   1
M  END
>  <UniqueID>  (20) 
487

>  <SMILES>  (20) 
c1ccc2c(c1)CCN(c1nc(N3CCOCC3)[nH]/c(=N/CC[C@H]3CCCC[NH2+]3)n1)C2

>  <Energy>  (20) 
76.1538113849742

>  <Genealogy>  (20) 
c1ccc2c(c1)CCN(c1nc(NCCC3CCCC[NH2+]3)nc(N3CCOCC3)n1)C2 (protonated)
c1ccc2c(c1)CCN(c1nc(N3CCOCC3)[nH]c(=NCCC3CCCC[NH2+]3)n1)C2 (tautomer)
c1ccc2c(c1)CCN(c1nc(N3CCOCC3)[nH]c(=NCC[C@H]3CCCC[NH2+]3)n1)C2 (chirality)
c1ccc2c(c1)CCN(c1nc(N3CCOCC3)[nH]/c(=N/CC[C@H]3CCCC[NH2+]3)n1)C2 (cis-trans isomerization)
c1ccc2c(c1)CCN(c1nc(N3CCOCC3)[nH]/c(=N/CC[C@H]3CCCC[NH2+]3)n1)C2 (3D coordinates assigned)
c1ccc2c(c1)CCN(c1nc(N3CCOCC3)[nH]/c(=N/CC[C@H]3CCCC[NH2+]3)n1)C2 (nonaromatic ring conformer: 76.1538113849742 kcal/mol)

>  <smiles>  (20) 
c1ccc2c(c1)CCN(c1nc(NCCC3CCCCN3)nc(N3CCOCC3)n1)C2

>  <score_type>  (20) 
oracle

>  <origin>  (20) 
autodockgpu

>  <m_score__min__energy>  (20) 
-10.529999999999999

>  <m_primary>  (20) 
energy

>  <meeko>  (20) 
{"free_energy": -9.2, "intermolecular_energy": -10.99, "internal_energy": -1.59, "cluster_size": 11, "cluster_id": 1, "rank_in_cluster": 7}

>  <energy>  (20) 
-7.39

>  <cluster_rmsd>  (20) 
0.88

>  <rmsd>  (20) 
270.93

>  <cluster>  (20) 
3

$$$$
MXRVYNFLTYDQGX-OFNDVBAVNA-P
     RDKit          3D

 66 70  0  0  0  0  0  0  0  0999 V2000
  141.7970   81.6580  222.7070 C   0  0  0  0  0  0  0  0  0  0  0  0
  142.4740   80.9160  223.6780 C   0  0  0  0  0  0  0  0  0  0  0  0
  142.2340   79.5440  223.8040 C   0  0  0  0  0  0  0  0  0  0  0  0
  141.3280   78.9040  222.9430 C   0  0  0  0  0  0  0  0  0  0  0  0
  140.6500   79.6500  221.9670 C   0  0  0  0  0  0  0  0  0  0  0  0
  140.8800   81.0310  221.8570 C   0  0  0  0  0  0  0  0  0  0  0  0
  139.6290   78.9620  221.1100 C   0  0  0  0  0  0  0  0  0  0  0  0
  140.1280   77.5760  220.6820 C   0  0  0  0  0  0  0  0  0  0  0  0
  140.7230   76.8090  221.7940 N   0  0  0  0  0  0  0  0  0  0  0  0
  141.0120   75.4100  221.5940 C   0  0  0  0  0  0  0  0  0  0  0  0
  140.0620   74.4710  221.8380 N   0  0  0  0  0  0  0  0  0  0  0  0
  140.3010   73.1590  221.5790 C   0  0  0  0  0  0  0  0  0  0  0  0
  139.2690   72.1810  221.7940 N   0  0  0  0  0  0  0  0  0  0  0  0
  139.0940   71.8660  223.2280 C   0  0  0  0  0  0  0  0  0  0  0  0
  140.3060   71.1380  223.8550 C   0  0  0  0  0  0  0  0  0  0  0  0
  140.1210   70.7350  225.3390 C   0  0  2  0  0  0  0  0  0  0  0  0
  141.0690   71.5450  226.2440 C   0  0  0  0  0  0  0  0  0  0  0  0
  140.7520   71.2780  227.7280 C   0  0  0  0  0  0  0  0  0  0  0  0
  140.2000   69.8600  227.9720 C   0  0  0  0  0  0  0  0  0  0  0  0
  140.7110   68.8820  226.9080 C   0  0  0  0  0  0  0  0  0  0  0  0
  140.2950   69.2710  225.5420 N   0  0  0  0  0  0  0  0  0  0  0  0
  141.5180   72.7810  221.1060 N   0  0  0  0  0  0  0  0  0  0  0  0
  142.4870   73.7070  220.8740 C   0  0  0  0  0  0  0  0  0  0  0  0
  143.7730   73.3060  220.3590 N   0  0  0  0  0  0  0  0  0  0  0  0
  144.9330   74.1950  220.5250 C   0  0  0  0  0  0  0  0  0  0  0  0
  146.2420   73.4110  220.3980 C   0  0  0  0  0  0  0  0  0  0  0  0
  146.2420   72.6150  219.2300 O   0  0  0  0  0  0  0  0  0  0  0  0
  145.2580   71.6080  219.3510 C   0  0  0  0  0  0  0  0  0  0  0  0
  143.8530   72.2190  219.3730 C   0  0  0  0  0  0  0  0  0  0  0  0
  142.2230   75.0180  221.1140 N   0  0  0  0  0  0  0  0  0  0  0  0
  141.0260   77.4370  223.0950 C   0  0  0  0  0  0  0  0  0  0  0  0
  141.9854   82.7374  222.6107 H   0  0  0  0  0  0  0  0  0  0  0  0
  143.1962   81.4112  224.3438 H   0  0  0  0  0  0  0  0  0  0  0  0
  142.7563   78.9647  224.5796 H   0  0  0  0  0  0  0  0  0  0  0  0
  140.3387   81.6200  221.1019 H   0  0  0  0  0  0  0  0  0  0  0  0
  138.6951   78.8496  221.6803 H   0  0  0  0  0  0  0  0  0  0  0  0
  139.4547   79.5695  220.2097 H   0  0  0  0  0  0  0  0  0  0  0  0
  139.2778   77.0064  220.2786 H   0  0  0  0  0  0  0  0  0  0  0  0
  140.9149   77.7276  219.9285 H   0  0  0  0  0  0  0  0  0  0  0  0
  139.4720   71.3120  221.2470 H   0  0  0  0  0  0  0  0  0  0  0  0
  138.3730   72.5810  221.4300 H   0  0  0  0  0  0  0  0  0  0  0  0
  138.9336   72.8075  223.7737 H   0  0  0  0  0  0  0  0  0  0  0  0
  138.2335   71.1852  223.3058 H   0  0  0  0  0  0  0  0  0  0  0  0
  140.4958   70.2242  223.2727 H   0  0  0  0  0  0  0  0  0  0  0  0
  141.1443   71.8497  223.8281 H   0  0  0  0  0  0  0  0  0  0  0  0
  139.0861   70.9754  225.6238 H   0  0  0  0  0  0  0  0  0  0  0  0
  142.1083   71.2502  226.0365 H   0  0  0  0  0  0  0  0  0  0  0  0
  140.9319   72.6165  226.0367 H   0  0  0  0  0  0  0  0  0  0  0  0
  141.6753   71.4018  228.3130 H   0  0  0  0  0  0  0  0  0  0  0  0
  139.9762   71.9943  228.0363 H   0  0  0  0  0  0  0  0  0  0  0  0
  140.5239   69.5136  228.9645 H   0  0  0  0  0  0  0  0  0  0  0  0
  139.1020   69.8966  227.9165 H   0  0  0  0  0  0  0  0  0  0  0  0
  141.8099   68.8566  226.9494 H   0  0  0  0  0  0  0  0  0  0  0  0
  140.2781   67.8939  227.1232 H   0  0  0  0  0  0  0  0  0  0  0  0
  141.0080   68.8960  224.8730 H   0  0  0  0  0  0  0  0  0  0  0  0
  139.3870   68.7940  225.3310 H   0  0  0  0  0  0  0  0  0  0  0  0
  144.9033   74.9750  219.7500 H   0  0  0  0  0  0  0  0  0  0  0  0
  144.8893   74.6480  221.5264 H   0  0  0  0  0  0  0  0  0  0  0  0
  147.0827   74.1189  220.3514 H   0  0  0  0  0  0  0  0  0  0  0  0
  146.3430   72.7516  221.2726 H   0  0  0  0  0  0  0  0  0  0  0  0
  145.3388   70.9205  218.4962 H   0  0  0  0  0  0  0  0  0  0  0  0
  145.4217   71.0671  220.2947 H   0  0  0  0  0  0  0  0  0  0  0  0
  143.6177   72.6186  218.3755 H   0  0  0  0  0  0  0  0  0  0  0  0
  143.1320   71.4362  219.6512 H   0  0  0  0  0  0  0  0  0  0  0  0
  140.1580   77.3179  223.7601 H   0  0  0  0  0  0  0  0  0  0  0  0
  141.9139   76.9440  223.5175 H   0  0  0  0  0  0  0  0  0  0  0  0
  1  2  2  0
  2  3  1  0
  3  4  2  0
  4  5  1  0
  5  6  2  0
  5  7  1  0
  7  8  1  0
  8  9  1  0
  9 10  1  0
 10 11  2  0
 11 12  1  0
 12 13  1  0
 13 14  1  0
 14 15  1  0
 15 16  1  0
 16 17  1  0
 17 18  1  0
 18 19  1  0
 19 20  1  0
 20 21  1  0
 12 22  2  0
 22 23  1  0
 23 24  1  0
 24 25  1  0
 25 26  1  0
 26 27  1  0
 27 28  1  0
 28 29  1  0
 23 30  2  0
  9 31  1  0
  6  1  1  0
 30 10  1  0
 31  4  1  0
 21 16  1  0
 29 24  1  0
  1 32  1  0
  2 33  1  0
  3 34  1  0
  6 35  1  0
  7 36  1  0
  7 37  1  0
  8 38  1  0
  8 39  1  0
 13 40  1  0
 13 41  1  0
 14 42  1  0
 14 43  1  0
 15 44  1  0
 15 45  1  0
 16 46  1  1
 17 47  1  0
 17 48  1  0
 18 49  1  0
 18 50  1  0
 19 51  1  0
 19 52  1  0
 20 53  1  0
 20 54  1  0
 21 55  1  0
 21 56  1  0
 25 57  1  0
 25 58  1  0
 26 59  1  0
 26 60  1  0
 28 61  1  0
 28 62  1  0
 29 63  1  0
 29 64  1  0
 31 65  1  0
 31 66  1  0
M  CHG  2  13   1  21   1
M  END
>  <UniqueID>  (21) 
488

>  <SMILES>  (21) 
c1ccc2c(c1)CCN(c1nc([NH2+]CC[C@@H]3CCCC[NH2+]3)nc(N3CCOCC3)n1)C2

>  <Energy>  (21) 
77.09151523306082

>  <Genealogy>  (21) 
c1ccc2c(c1)CCN(c1nc([NH2+]CCC3CCCC[NH2+]3)nc(N3CCOCC3)n1)C2 (protonated)
c1ccc2c(c1)CCN(c1nc([NH2+]CC[C@@H]3CCCC[NH2+]3)nc(N3CCOCC3)n1)C2 (chirality)
c1ccc2c(c1)CCN(c1nc([NH2+]CC[C@@H]3CCCC[NH2+]3)nc(N3CCOCC3)n1)C2 (3D coordinates assigned)
c1ccc2c(c1)CCN(c1nc([NH2+]CC[C@@H]3CCCC[NH2+]3)nc(N3CCOCC3)n1)C2 (nonaromatic ring conformer: 77.09151523306082 kcal/mol)

>  <smiles>  (21) 
c1ccc2c(c1)CCN(c1nc(NCCC3CCCCN3)nc(N3CCOCC3)n1)C2

>  <score_type>  (21) 
oracle

>  <origin>  (21) 
autodockgpu

>  <m_score__min__energy>  (21) 
-9.6600000000000001

>  <m_primary>  (21) 
energy

>  <meeko>  (21) 
{"free_energy": -9.01, "intermolecular_energy": -10.8, "internal_energy": -0.03, "cluster_size": 11, "cluster_id": 1, "rank_in_cluster": 8}

>  <energy>  (21) 
-9.66

>  <cluster_rmsd>  (21) 
0.0

>  <rmsd>  (21) 
272.6

>  <cluster>  (21) 
1

$$$$
MXRVYNFLTYDQGX-OFNDVBAVNA-P
     RDKit          3D

 66 70  0  0  0  0  0  0  0  0999 V2000
  142.1950   81.6450  222.6040 C   0  0  0  0  0  0  0  0  0  0  0  0
  142.3150   80.9170  223.7910 C   0  0  0  0  0  0  0  0  0  0  0  0
  141.8650   79.5940  223.8490 C   0  0  0  0  0  0  0  0  0  0  0  0
  141.3110   78.9870  222.7100 C   0  0  0  0  0  0  0  0  0  0  0  0
  141.1930   79.7180  221.5180 C   0  0  0  0  0  0  0  0  0  0  0  0
  141.6280   81.0520  221.4710 C   0  0  0  0  0  0  0  0  0  0  0  0
  140.5270   79.0750  220.3380 C   0  0  0  0  0  0  0  0  0  0  0  0
  140.9690   77.6130  220.1970 C   0  0  0  0  0  0  0  0  0  0  0  0
  140.9530   76.8810  221.4800 N   0  0  0  0  0  0  0  0  0  0  0  0
  141.1120   75.4470  221.4600 C   0  0  0  0  0  0  0  0  0  0  0  0
  140.1340   74.6420  221.9500 N   0  0  0  0  0  0  0  0  0  0  0  0
  140.2410   73.2900  221.8650 C   0  0  0  0  0  0  0  0  0  0  0  0
  139.1750   72.4500  222.3410 N   0  0  0  0  0  0  0  0  0  0  0  0
  139.6840   71.2180  222.9800 C   0  0  0  0  0  0  0  0  0  0  0  0
  140.7070   71.4830  224.1100 C   0  0  0  0  0  0  0  0  0  0  0  0
  140.2960   70.9310  225.4970 C   0  0  2  0  0  0  0  0  0  0  0  0
  141.0460   71.6720  226.6210 C   0  0  0  0  0  0  0  0  0  0  0  0
  140.4990   71.2520  227.9980 C   0  0  0  0  0  0  0  0  0  0  0  0
  139.9720   69.8040  228.0120 C   0  0  0  0  0  0  0  0  0  0  0  0
  140.6910   68.9480  226.9640 C   0  0  0  0  0  0  0  0  0  0  0  0
  140.4920   69.4590  225.5890 N   0  0  0  0  0  0  0  0  0  0  0  0
  141.3570   72.7410  221.3190 N   0  0  0  0  0  0  0  0  0  0  0  0
  142.3550   73.5320  220.8420 C   0  0  0  0  0  0  0  0  0  0  0  0
  143.5330   72.9480  220.2500 N   0  0  0  0  0  0  0  0  0  0  0  0
  144.8170   73.6610  220.3270 C   0  0  0  0  0  0  0  0  0  0  0  0
  145.9890   72.6960  220.1270 C   0  0  0  0  0  0  0  0  0  0  0  0
  145.7970   71.9030  218.9730 O   0  0  0  0  0  0  0  0  0  0  0  0
  144.6880   71.0490  219.1720 C   0  0  0  0  0  0  0  0  0  0  0  0
  143.3910   71.8560  219.2760 C   0  0  0  0  0  0  0  0  0  0  0  0
  142.2200   74.8840  220.9110 N   0  0  0  0  0  0  0  0  0  0  0  0
  140.7830   77.5780  222.7690 C   0  0  0  0  0  0  0  0  0  0  0  0
  142.5471   82.6862  222.5606 H   0  0  0  0  0  0  0  0  0  0  0  0
  142.7635   81.3847  224.6799 H   0  0  0  0  0  0  0  0  0  0  0  0
  141.9451   79.0277  224.7886 H   0  0  0  0  0  0  0  0  0  0  0  0
  141.5229   81.6316  220.5420 H   0  0  0  0  0  0  0  0  0  0  0  0
  139.4361   79.1110  220.4750 H   0  0  0  0  0  0  0  0  0  0  0  0
  140.8152   79.6213  219.4278 H   0  0  0  0  0  0  0  0  0  0  0  0
  140.2892   77.1069  219.4958 H   0  0  0  0  0  0  0  0  0  0  0  0
  142.0065   77.6158  219.8316 H   0  0  0  0  0  0  0  0  0  0  0  0
  138.5190   72.2180  221.5590 H   0  0  0  0  0  0  0  0  0  0  0  0
  138.6360   72.9960  223.0530 H   0  0  0  0  0  0  0  0  0  0  0  0
  138.8309   70.6689  223.4051 H   0  0  0  0  0  0  0  0  0  0  0  0
  140.2059   70.6428  222.2010 H   0  0  0  0  0  0  0  0  0  0  0  0
  141.6614   71.0165  223.8246 H   0  0  0  0  0  0  0  0  0  0  0  0
  140.7747   72.5756  224.2180 H   0  0  0  0  0  0  0  0  0  0  0  0
  139.2192   71.1162  225.6244 H   0  0  0  0  0  0  0  0  0  0  0  0
  142.1167   71.4260  226.5658 H   0  0  0  0  0  0  0  0  0  0  0  0
  140.9002   72.7549  226.4940 H   0  0  0  0  0  0  0  0  0  0  0  0
  141.3070   71.3396  228.7393 H   0  0  0  0  0  0  0  0  0  0  0  0
  139.6545   71.9153  228.2365 H   0  0  0  0  0  0  0  0  0  0  0  0
  140.1404   69.3695  229.0084 H   0  0  0  0  0  0  0  0  0  0  0  0
  138.8980   69.8196  227.7749 H   0  0  0  0  0  0  0  0  0  0  0  0
  141.7680   68.9451  227.1880 H   0  0  0  0  0  0  0  0  0  0  0  0
  140.2684   67.9335  227.0105 H   0  0  0  0  0  0  0  0  0  0  0  0
  141.3210   69.1690  225.0190 H   0  0  0  0  0  0  0  0  0  0  0  0
  139.6520   68.9840  225.1840 H   0  0  0  0  0  0  0  0  0  0  0  0
  144.8481   74.4330  219.5440 H   0  0  0  0  0  0  0  0  0  0  0  0
  144.9053   74.1207  221.3224 H   0  0  0  0  0  0  0  0  0  0  0  0
  146.9176   73.2751  220.0158 H   0  0  0  0  0  0  0  0  0  0  0  0
  146.0525   72.0333  221.0027 H   0  0  0  0  0  0  0  0  0  0  0  0
  144.6124   70.3528  218.3237 H   0  0  0  0  0  0  0  0  0  0  0  0
  144.8342   70.4948  220.1109 H   0  0  0  0  0  0  0  0  0  0  0  0
  143.1504   72.2808  218.2903 H   0  0  0  0  0  0  0  0  0  0  0  0
  142.5849   71.1868  219.6112 H   0  0  0  0  0  0  0  0  0  0  0  0
  139.7125   77.6080  223.0204 H   0  0  0  0  0  0  0  0  0  0  0  0
  141.3507   77.0292  223.5349 H   0  0  0  0  0  0  0  0  0  0  0  0
  1  2  2  0
  2  3  1  0
  3  4  2  0
  4  5  1  0
  5  6  2  0
  5  7  1  0
  7  8  1  0
  8  9  1  0
  9 10  1  0
 10 11  2  0
 11 12  1  0
 12 13  1  0
 13 14  1  0
 14 15  1  0
 15 16  1  0
 16 17  1  0
 17 18  1  0
 18 19  1  0
 19 20  1  0
 20 21  1  0
 12 22  2  0
 22 23  1  0
 23 24  1  0
 24 25  1  0
 25 26  1  0
 26 27  1  0
 27 28  1  0
 28 29  1  0
 23 30  2  0
  9 31  1  0
  6  1  1  0
 30 10  1  0
 31  4  1  0
 21 16  1  0
 29 24  1  0
  1 32  1  0
  2 33  1  0
  3 34  1  0
  6 35  1  0
  7 36  1  0
  7 37  1  0
  8 38  1  0
  8 39  1  0
 13 40  1  0
 13 41  1  0
 14 42  1  0
 14 43  1  0
 15 44  1  0
 15 45  1  0
 16 46  1  1
 17 47  1  0
 17 48  1  0
 18 49  1  0
 18 50  1  0
 19 51  1  0
 19 52  1  0
 20 53  1  0
 20 54  1  0
 21 55  1  0
 21 56  1  0
 25 57  1  0
 25 58  1  0
 26 59  1  0
 26 60  1  0
 28 61  1  0
 28 62  1  0
 29 63  1  0
 29 64  1  0
 31 65  1  0
 31 66  1  0
M  CHG  2  13   1  21   1
M  END
>  <UniqueID>  (22) 
488

>  <SMILES>  (22) 
c1ccc2c(c1)CCN(c1nc([NH2+]CC[C@@H]3CCCC[NH2+]3)nc(N3CCOCC3)n1)C2

>  <Energy>  (22) 
77.09151523306082

>  <Genealogy>  (22) 
c1ccc2c(c1)CCN(c1nc([NH2+]CCC3CCCC[NH2+]3)nc(N3CCOCC3)n1)C2 (protonated)
c1ccc2c(c1)CCN(c1nc([NH2+]CC[C@@H]3CCCC[NH2+]3)nc(N3CCOCC3)n1)C2 (chirality)
c1ccc2c(c1)CCN(c1nc([NH2+]CC[C@@H]3CCCC[NH2+]3)nc(N3CCOCC3)n1)C2 (3D coordinates assigned)
c1ccc2c(c1)CCN(c1nc([NH2+]CC[C@@H]3CCCC[NH2+]3)nc(N3CCOCC3)n1)C2 (nonaromatic ring conformer: 77.09151523306082 kcal/mol)

>  <smiles>  (22) 
c1ccc2c(c1)CCN(c1nc(NCCC3CCCCN3)nc(N3CCOCC3)n1)C2

>  <score_type>  (22) 
oracle

>  <origin>  (22) 
autodockgpu

>  <m_score__min__energy>  (22) 
-9.6600000000000001

>  <m_primary>  (22) 
energy

>  <meeko>  (22) 
{"free_energy": -9.66, "intermolecular_energy": -11.45, "internal_energy": 0.07, "cluster_size": 11, "cluster_id": 1, "rank_in_cluster": 1}

>  <energy>  (22) 
-9.63

>  <cluster_rmsd>  (22) 
0.14

>  <rmsd>  (22) 
272.56

>  <cluster>  (22) 
1

$$$$
MXRVYNFLTYDQGX-OFNDVBAVNA-P
     RDKit          3D

 66 70  0  0  0  0  0  0  0  0999 V2000
  141.9140   81.6360  222.6300 C   0  0  0  0  0  0  0  0  0  0  0  0
  141.8900   80.9330  223.8370 C   0  0  0  0  0  0  0  0  0  0  0  0
  141.4940   79.5920  223.8580 C   0  0  0  0  0  0  0  0  0  0  0  0
  141.1390   78.9420  222.6650 C   0  0  0  0  0  0  0  0  0  0  0  0
  141.1640   79.6490  221.4530 C   0  0  0  0  0  0  0  0  0  0  0  0
  141.5440   81.0010  221.4400 C   0  0  0  0  0  0  0  0  0  0  0  0
  140.7070   78.9580  220.2020 C   0  0  0  0  0  0  0  0  0  0  0  0
  141.2270   77.5160  220.1600 C   0  0  0  0  0  0  0  0  0  0  0  0
  141.0570   76.8040  221.4420 N   0  0  0  0  0  0  0  0  0  0  0  0
  141.2790   75.3790  221.4770 C   0  0  0  0  0  0  0  0  0  0  0  0
  140.3970   74.5630  222.1110 N   0  0  0  0  0  0  0  0  0  0  0  0
  140.5580   73.2140  222.0830 C   0  0  0  0  0  0  0  0  0  0  0  0
  139.5890   72.3580  222.7140 N   0  0  0  0  0  0  0  0  0  0  0  0
  140.2000   71.5020  223.7530 C   0  0  0  0  0  0  0  0  0  0  0  0
  139.2510   70.4040  224.2880 C   0  0  0  0  0  0  0  0  0  0  0  0
  139.5140   69.9770  225.7530 C   0  0  2  0  0  0  0  0  0  0  0  0
  140.5770   70.8860  226.4000 C   0  0  0  0  0  0  0  0  0  0  0  0
  140.6990   70.5800  227.9060 C   0  0  0  0  0  0  0  0  0  0  0  0
  140.3880   69.1080  228.2400 C   0  0  0  0  0  0  0  0  0  0  0  0
  140.6960   68.1970  227.0470 C   0  0  0  0  0  0  0  0  0  0  0  0
  139.8910   68.5410  225.8540 N   0  0  0  0  0  0  0  0  0  0  0  0
  141.6330   72.6810  221.4450 N   0  0  0  0  0  0  0  0  0  0  0  0
  142.5350   73.4850  220.8220 C   0  0  0  0  0  0  0  0  0  0  0  0
  143.6690   72.9180  220.1340 N   0  0  0  0  0  0  0  0  0  0  0  0
  143.9120   71.4690  220.2020 C   0  0  0  0  0  0  0  0  0  0  0  0
  144.7990   71.0110  219.0390 C   0  0  0  0  0  0  0  0  0  0  0  0
  145.9510   71.8220  218.9350 O   0  0  0  0  0  0  0  0  0  0  0  0
  145.5700   73.1330  218.5700 C   0  0  0  0  0  0  0  0  0  0  0  0
  144.7610   73.7960  219.6890 C   0  0  0  0  0  0  0  0  0  0  0  0
  142.3470   74.8310  220.8380 N   0  0  0  0  0  0  0  0  0  0  0  0
  140.6700   77.5120  222.6770 C   0  0  0  0  0  0  0  0  0  0  0  0
  142.2245   82.6912  222.6155 H   0  0  0  0  0  0  0  0  0  0  0  0
  142.1827   81.4345  224.7712 H   0  0  0  0  0  0  0  0  0  0  0  0
  141.4605   79.0448  224.8117 H   0  0  0  0  0  0  0  0  0  0  0  0
  141.5507   81.5609  220.4932 H   0  0  0  0  0  0  0  0  0  0  0  0
  139.6074   78.9464  220.1767 H   0  0  0  0  0  0  0  0  0  0  0  0
  141.1024   79.5026  219.3319 H   0  0  0  0  0  0  0  0  0  0  0  0
  140.6787   76.9682  219.3794 H   0  0  0  0  0  0  0  0  0  0  0  0
  142.3057   77.5612  219.9492 H   0  0  0  0  0  0  0  0  0  0  0  0
  139.0970   71.7760  221.9980 H   0  0  0  0  0  0  0  0  0  0  0  0
  138.8730   72.9720  223.1680 H   0  0  0  0  0  0  0  0  0  0  0  0
  141.0883   71.0151  223.3242 H   0  0  0  0  0  0  0  0  0  0  0  0
  140.4495   72.1545  224.6027 H   0  0  0  0  0  0  0  0  0  0  0  0
  138.2196   70.7805  224.2210 H   0  0  0  0  0  0  0  0  0  0  0  0
  139.4281   69.5124  223.6686 H   0  0  0  0  0  0  0  0  0  0  0  0
  138.5735   70.0979  226.3105 H   0  0  0  0  0  0  0  0  0  0  0  0
  141.5483   70.7107  225.9144 H   0  0  0  0  0  0  0  0  0  0  0  0
  140.2752   71.9360  226.2719 H   0  0  0  0  0  0  0  0  0  0  0  0
  141.7262   70.8048  228.2289 H   0  0  0  0  0  0  0  0  0  0  0  0
  139.9618   71.2036  228.4329 H   0  0  0  0  0  0  0  0  0  0  0  0
  141.0016   68.7965  229.0982 H   0  0  0  0  0  0  0  0  0  0  0  0
  139.3179   69.0217  228.4796 H   0  0  0  0  0  0  0  0  0  0  0  0
  141.7621   68.2939  226.7941 H   0  0  0  0  0  0  0  0  0  0  0  0
  140.4435   67.1664  227.3371 H   0  0  0  0  0  0  0  0  0  0  0  0
  140.4350   68.2510  225.0080 H   0  0  0  0  0  0  0  0  0  0  0  0
  139.0160   67.9670  225.8750 H   0  0  0  0  0  0  0  0  0  0  0  0
  144.4122   71.2314  221.1524 H   0  0  0  0  0  0  0  0  0  0  0  0
  142.9465   70.9460  220.1364 H   0  0  0  0  0  0  0  0  0  0  0  0
  145.1063   69.9686  219.2091 H   0  0  0  0  0  0  0  0  0  0  0  0
  144.2247   71.0942  218.1045 H   0  0  0  0  0  0  0  0  0  0  0  0
  146.4732   73.7301  218.3756 H   0  0  0  0  0  0  0  0  0  0  0  0
  144.9444   73.0797  217.6668 H   0  0  0  0  0  0  0  0  0  0  0  0
  145.4260   74.0042  220.5401 H   0  0  0  0  0  0  0  0  0  0  0  0
  144.3274   74.7309  219.3044 H   0  0  0  0  0  0  0  0  0  0  0  0
  139.5740   77.4964  222.7691 H   0  0  0  0  0  0  0  0  0  0  0  0
  141.1427   77.0016  223.5291 H   0  0  0  0  0  0  0  0  0  0  0  0
  1  2  2  0
  2  3  1  0
  3  4  2  0
  4  5  1  0
  5  6  2  0
  5  7  1  0
  7  8  1  0
  8  9  1  0
  9 10  1  0
 10 11  2  0
 11 12  1  0
 12 13  1  0
 13 14  1  0
 14 15  1  0
 15 16  1  0
 16 17  1  0
 17 18  1  0
 18 19  1  0
 19 20  1  0
 20 21  1  0
 12 22  2  0
 22 23  1  0
 23 24  1  0
 24 25  1  0
 25 26  1  0
 26 27  1  0
 27 28  1  0
 28 29  1  0
 23 30  2  0
  9 31  1  0
  6  1  1  0
 30 10  1  0
 31  4  1  0
 21 16  1  0
 29 24  1  0
  1 32  1  0
  2 33  1  0
  3 34  1  0
  6 35  1  0
  7 36  1  0
  7 37  1  0
  8 38  1  0
  8 39  1  0
 13 40  1  0
 13 41  1  0
 14 42  1  0
 14 43  1  0
 15 44  1  0
 15 45  1  0
 16 46  1  1
 17 47  1  0
 17 48  1  0
 18 49  1  0
 18 50  1  0
 19 51  1  0
 19 52  1  0
 20 53  1  0
 20 54  1  0
 21 55  1  0
 21 56  1  0
 25 57  1  0
 25 58  1  0
 26 59  1  0
 26 60  1  0
 28 61  1  0
 28 62  1  0
 29 63  1  0
 29 64  1  0
 31 65  1  0
 31 66  1  0
M  CHG  2  13   1  21   1
M  END
>  <UniqueID>  (23) 
488

>  <SMILES>  (23) 
c1ccc2c(c1)CCN(c1nc([NH2+]CC[C@@H]3CCCC[NH2+]3)nc(N3CCOCC3)n1)C2

>  <Energy>  (23) 
77.09151523306082

>  <Genealogy>  (23) 
c1ccc2c(c1)CCN(c1nc([NH2+]CCC3CCCC[NH2+]3)nc(N3CCOCC3)n1)C2 (protonated)
c1ccc2c(c1)CCN(c1nc([NH2+]CC[C@@H]3CCCC[NH2+]3)nc(N3CCOCC3)n1)C2 (chirality)
c1ccc2c(c1)CCN(c1nc([NH2+]CC[C@@H]3CCCC[NH2+]3)nc(N3CCOCC3)n1)C2 (3D coordinates assigned)
c1ccc2c(c1)CCN(c1nc([NH2+]CC[C@@H]3CCCC[NH2+]3)nc(N3CCOCC3)n1)C2 (nonaromatic ring conformer: 77.09151523306082 kcal/mol)

>  <smiles>  (23) 
c1ccc2c(c1)CCN(c1nc(NCCC3CCCCN3)nc(N3CCOCC3)n1)C2

>  <score_type>  (23) 
oracle

>  <origin>  (23) 
autodockgpu

>  <m_score__min__energy>  (23) 
-9.6600000000000001

>  <m_primary>  (23) 
energy

>  <meeko>  (23) 
{"free_energy": -9.34, "intermolecular_energy": -11.13, "internal_energy": 0.06, "cluster_size": 11, "cluster_id": 1, "rank_in_cluster": 5}

>  <energy>  (23) 
-9.54

>  <cluster_rmsd>  (23) 
0.26

>  <rmsd>  (23) 
272.67

>  <cluster>  (23) 
1

$$$$
MXRVYNFLTYDQGX-OFNDVBAVNA-P
     RDKit          3D

 66 70  0  0  0  0  0  0  0  0999 V2000
  142.1310   81.6440  222.6170 C   0  0  0  0  0  0  0  0  0  0  0  0
  142.5300   80.9000  223.7300 C   0  0  0  0  0  0  0  0  0  0  0  0
  142.1600   79.5560  223.8440 C   0  0  0  0  0  0  0  0  0  0  0  0
  141.4030   78.9450  222.8310 C   0  0  0  0  0  0  0  0  0  0  0  0
  141.0040   79.6920  221.7130 C   0  0  0  0  0  0  0  0  0  0  0  0
  141.3620   81.0460  221.6130 C   0  0  0  0  0  0  0  0  0  0  0  0
  140.1310   79.0410  220.6810 C   0  0  0  0  0  0  0  0  0  0  0  0
  140.5950   77.6040  220.4090 C   0  0  0  0  0  0  0  0  0  0  0  0
  140.8840   76.8480  221.6440 N   0  0  0  0  0  0  0  0  0  0  0  0
  141.0960   75.4250  221.5490 C   0  0  0  0  0  0  0  0  0  0  0  0
  140.1420   74.5590  221.9820 N   0  0  0  0  0  0  0  0  0  0  0  0
  140.3010   73.2190  221.8270 C   0  0  0  0  0  0  0  0  0  0  0  0
  139.2610   72.3150  222.2420 N   0  0  0  0  0  0  0  0  0  0  0  0
  138.1140   72.3250  221.3100 C   0  0  0  0  0  0  0  0  0  0  0  0
  136.8400   72.9730  221.9020 C   0  0  0  0  0  0  0  0  0  0  0  0
  136.7240   74.5000  221.6730 C   0  0  2  0  0  0  0  0  0  0  0  0
  137.2400   74.8800  220.2720 C   0  0  0  0  0  0  0  0  0  0  0  0
  136.9500   76.3650  219.9780 C   0  0  0  0  0  0  0  0  0  0  0  0
  136.9530   77.2330  221.2510 C   0  0  0  0  0  0  0  0  0  0  0  0
  137.8590   76.6280  222.3280 C   0  0  0  0  0  0  0  0  0  0  0  0
  137.4170   75.2750  222.7380 N   0  0  0  0  0  0  0  0  0  0  0  0
  141.4430   72.7400  221.2670 N   0  0  0  0  0  0  0  0  0  0  0  0
  142.4160   73.5920  220.8470 C   0  0  0  0  0  0  0  0  0  0  0  0
  143.6230   73.0850  220.2410 N   0  0  0  0  0  0  0  0  0  0  0  0
  144.8660   73.8650  220.3290 C   0  0  0  0  0  0  0  0  0  0  0  0
  146.0880   72.9680  220.1070 C   0  0  0  0  0  0  0  0  0  0  0  0
  145.9350   72.1880  218.9390 O   0  0  0  0  0  0  0  0  0  0  0  0
  144.8750   71.2720  219.1240 C   0  0  0  0  0  0  0  0  0  0  0  0
  143.5360   72.0050  219.2470 C   0  0  0  0  0  0  0  0  0  0  0  0
  142.2310   74.9320  220.9860 N   0  0  0  0  0  0  0  0  0  0  0  0
  140.9610   77.5120  222.9590 C   0  0  0  0  0  0  0  0  0  0  0  0
  142.4218   82.7013  222.5300 H   0  0  0  0  0  0  0  0  0  0  0  0
  143.1359   81.3717  224.5176 H   0  0  0  0  0  0  0  0  0  0  0  0
  142.4625   78.9765  224.7287 H   0  0  0  0  0  0  0  0  0  0  0  0
  141.0374   81.6373  220.7441 H   0  0  0  0  0  0  0  0  0  0  0  0
  139.0931   79.0229  221.0450 H   0  0  0  0  0  0  0  0  0  0  0  0
  140.1968   79.6175  219.7465 H   0  0  0  0  0  0  0  0  0  0  0  0
  139.8036   77.0792  219.8537 H   0  0  0  0  0  0  0  0  0  0  0  0
  141.5302   77.6635  219.8329 H   0  0  0  0  0  0  0  0  0  0  0  0
  138.9490   72.5420  223.2150 H   0  0  0  0  0  0  0  0  0  0  0  0
  139.6680   71.3510  222.2580 H   0  0  0  0  0  0  0  0  0  0  0  0
  138.4030   72.8861  220.4091 H   0  0  0  0  0  0  0  0  0  0  0  0
  137.8690   71.2756  221.0890 H   0  0  0  0  0  0  0  0  0  0  0  0
  135.9649   72.4903  221.4424 H   0  0  0  0  0  0  0  0  0  0  0  0
  136.8939   72.8255  222.9907 H   0  0  0  0  0  0  0  0  0  0  0  0
  135.6582   74.7664  221.7289 H   0  0  0  0  0  0  0  0  0  0  0  0
  138.3253   74.7065  220.2259 H   0  0  0  0  0  0  0  0  0  0  0  0
  136.7264   74.2605  219.5221 H   0  0  0  0  0  0  0  0  0  0  0  0
  137.7203   76.7450  219.2908 H   0  0  0  0  0  0  0  0  0  0  0  0
  135.9449   76.4267  219.5353 H   0  0  0  0  0  0  0  0  0  0  0  0
  137.3175   78.2397  220.9987 H   0  0  0  0  0  0  0  0  0  0  0  0
  135.9267   77.2810  221.6439 H   0  0  0  0  0  0  0  0  0  0  0  0
  138.8831   76.5610  221.9322 H   0  0  0  0  0  0  0  0  0  0  0  0
  137.8126   77.2801  223.2126 H   0  0  0  0  0  0  0  0  0  0  0  0
  138.2600   74.7530  223.0730 H   0  0  0  0  0  0  0  0  0  0  0  0
  136.7680   75.3780  223.5520 H   0  0  0  0  0  0  0  0  0  0  0  0
  144.8526   74.6527  219.5613 H   0  0  0  0  0  0  0  0  0  0  0  0
  144.9328   74.3098  221.3328 H   0  0  0  0  0  0  0  0  0  0  0  0
  146.9836   73.5983  220.0044 H   0  0  0  0  0  0  0  0  0  0  0  0
  146.1901   72.2931  220.9696 H   0  0  0  0  0  0  0  0  0  0  0  0
  144.8343   70.5893  218.2625 H   0  0  0  0  0  0  0  0  0  0  0  0
  145.0544   70.7088  220.0517 H   0  0  0  0  0  0  0  0  0  0  0  0
  143.2685   72.4342  218.2702 H   0  0  0  0  0  0  0  0  0  0  0  0
  142.7687   71.2869  219.5719 H   0  0  0  0  0  0  0  0  0  0  0  0
  139.9677   77.4856  223.4310 H   0  0  0  0  0  0  0  0  0  0  0  0
  141.7014   76.9770  223.5718 H   0  0  0  0  0  0  0  0  0  0  0  0
  1  2  2  0
  2  3  1  0
  3  4  2  0
  4  5  1  0
  5  6  2  0
  5  7  1  0
  7  8  1  0
  8  9  1  0
  9 10  1  0
 10 11  2  0
 11 12  1  0
 12 13  1  0
 13 14  1  0
 14 15  1  0
 15 16  1  0
 16 17  1  0
 17 18  1  0
 18 19  1  0
 19 20  1  0
 20 21  1  0
 12 22  2  0
 22 23  1  0
 23 24  1  0
 24 25  1  0
 25 26  1  0
 26 27  1  0
 27 28  1  0
 28 29  1  0
 23 30  2  0
  9 31  1  0
  6  1  1  0
 30 10  1  0
 31  4  1  0
 21 16  1  0
 29 24  1  0
  1 32  1  0
  2 33  1  0
  3 34  1  0
  6 35  1  0
  7 36  1  0
  7 37  1  0
  8 38  1  0
  8 39  1  0
 13 40  1  0
 13 41  1  0
 14 42  1  0
 14 43  1  0
 15 44  1  0
 15 45  1  0
 16 46  1  6
 17 47  1  0
 17 48  1  0
 18 49  1  0
 18 50  1  0
 19 51  1  0
 19 52  1  0
 20 53  1  0
 20 54  1  0
 21 55  1  0
 21 56  1  0
 25 57  1  0
 25 58  1  0
 26 59  1  0
 26 60  1  0
 28 61  1  0
 28 62  1  0
 29 63  1  0
 29 64  1  0
 31 65  1  0
 31 66  1  0
M  CHG  2  13   1  21   1
M  END
>  <UniqueID>  (24) 
488

>  <SMILES>  (24) 
c1ccc2c(c1)CCN(c1nc([NH2+]CC[C@@H]3CCCC[NH2+]3)nc(N3CCOCC3)n1)C2

>  <Energy>  (24) 
77.09151523306082

>  <Genealogy>  (24) 
c1ccc2c(c1)CCN(c1nc([NH2+]CCC3CCCC[NH2+]3)nc(N3CCOCC3)n1)C2 (protonated)
c1ccc2c(c1)CCN(c1nc([NH2+]CC[C@@H]3CCCC[NH2+]3)nc(N3CCOCC3)n1)C2 (chirality)
c1ccc2c(c1)CCN(c1nc([NH2+]CC[C@@H]3CCCC[NH2+]3)nc(N3CCOCC3)n1)C2 (3D coordinates assigned)
c1ccc2c(c1)CCN(c1nc([NH2+]CC[C@@H]3CCCC[NH2+]3)nc(N3CCOCC3)n1)C2 (nonaromatic ring conformer: 77.09151523306082 kcal/mol)

>  <smiles>  (24) 
c1ccc2c(c1)CCN(c1nc(NCCC3CCCCN3)nc(N3CCOCC3)n1)C2

>  <score_type>  (24) 
oracle

>  <origin>  (24) 
autodockgpu

>  <m_score__min__energy>  (24) 
-9.6600000000000001

>  <m_primary>  (24) 
energy

>  <meeko>  (24) 
{"free_energy": -7.72, "intermolecular_energy": -9.51, "internal_energy": -1.14, "cluster_size": 11, "cluster_id": 1, "rank_in_cluster": 11}

>  <energy>  (24) 
-9.36

>  <cluster_rmsd>  (24) 
0.53

>  <rmsd>  (24) 
272.52

>  <cluster>  (24) 
1

$$$$
MXRVYNFLTYDQGX-OFNDVBAVNA-P
     RDKit          3D

 66 70  0  0  0  0  0  0  0  0999 V2000
  137.7510   81.2960  223.8600 C   0  0  0  0  0  0  0  0  0  0  0  0
  137.6900   81.7560  222.5410 C   0  0  0  0  0  0  0  0  0  0  0  0
  138.6920   81.4040  221.6310 C   0  0  0  0  0  0  0  0  0  0  0  0
  139.7500   80.5730  222.0330 C   0  0  0  0  0  0  0  0  0  0  0  0
  139.8090   80.1110  223.3560 C   0  0  0  0  0  0  0  0  0  0  0  0
  138.8110   80.4830  224.2710 C   0  0  0  0  0  0  0  0  0  0  0  0
  140.9890   79.2890  223.7840 C   0  0  0  0  0  0  0  0  0  0  0  0
  141.3680   78.2790  222.6940 C   0  0  0  0  0  0  0  0  0  0  0  0
  141.3970   78.8740  221.3430 N   0  0  0  0  0  0  0  0  0  0  0  0
  141.9660   78.1070  220.2610 C   0  0  0  0  0  0  0  0  0  0  0  0
  142.1310   78.6690  219.0360 N   0  0  0  0  0  0  0  0  0  0  0  0
  142.7370   77.9790  218.0330 C   0  0  0  0  0  0  0  0  0  0  0  0
  142.9520   78.6030  216.7550 N   0  0  0  0  0  0  0  0  0  0  0  0
  141.8080   78.4040  215.8410 C   0  0  0  0  0  0  0  0  0  0  0  0
  141.0160   77.1030  216.1140 C   0  0  0  0  0  0  0  0  0  0  0  0
  139.7730   77.2790  217.0200 C   0  0  2  0  0  0  0  0  0  0  0  0
  139.3620   78.7620  217.0960 C   0  0  0  0  0  0  0  0  0  0  0  0
  138.0210   78.9090  217.8420 C   0  0  0  0  0  0  0  0  0  0  0  0
  137.8130   77.8180  218.9100 C   0  0  0  0  0  0  0  0  0  0  0  0
  139.1560   77.3060  219.4420 C   0  0  0  0  0  0  0  0  0  0  0  0
  139.9890   76.7040  218.3760 N   0  0  0  0  0  0  0  0  0  0  0  0
  143.1460   76.7020  218.2520 N   0  0  0  0  0  0  0  0  0  0  0  0
  142.9700   76.1190  219.4670 C   0  0  0  0  0  0  0  0  0  0  0  0
  143.4170   74.7670  219.7020 N   0  0  0  0  0  0  0  0  0  0  0  0
  142.4830   73.6480  219.5080 C   0  0  0  0  0  0  0  0  0  0  0  0
  143.2440   72.3350  219.2980 C   0  0  0  0  0  0  0  0  0  0  0  0
  144.2200   72.1520  220.3030 O   0  0  0  0  0  0  0  0  0  0  0  0
  145.2180   73.1440  220.1720 C   0  0  0  0  0  0  0  0  0  0  0  0
  144.6490   74.5330  220.4700 C   0  0  0  0  0  0  0  0  0  0  0  0
  142.3860   76.8310  220.4670 N   0  0  0  0  0  0  0  0  0  0  0  0
  140.8590   80.2220  221.0770 C   0  0  0  0  0  0  0  0  0  0  0  0
  136.9633   81.5745  224.5755 H   0  0  0  0  0  0  0  0  0  0  0  0
  136.8541   82.3946  222.2192 H   0  0  0  0  0  0  0  0  0  0  0  0
  138.6511   81.7791  220.5977 H   0  0  0  0  0  0  0  0  0  0  0  0
  138.8635   80.1340  225.3129 H   0  0  0  0  0  0  0  0  0  0  0  0
  141.8440   79.9549  223.9727 H   0  0  0  0  0  0  0  0  0  0  0  0
  140.7248   78.7397  224.6997 H   0  0  0  0  0  0  0  0  0  0  0  0
  142.3658   77.8756  222.9212 H   0  0  0  0  0  0  0  0  0  0  0  0
  140.5989   77.4926  222.6914 H   0  0  0  0  0  0  0  0  0  0  0  0
  143.8370   78.2490  216.3220 H   0  0  0  0  0  0  0  0  0  0  0  0
  143.0710   79.6300  216.9210 H   0  0  0  0  0  0  0  0  0  0  0  0
  141.1229   79.2576  215.9504 H   0  0  0  0  0  0  0  0  0  0  0  0
  142.2181   78.3245  214.8234 H   0  0  0  0  0  0  0  0  0  0  0  0
  140.6810   76.6970  215.1481 H   0  0  0  0  0  0  0  0  0  0  0  0
  141.6999   76.4308  216.6529 H   0  0  0  0  0  0  0  0  0  0  0  0
  138.9448   76.7167  216.5641 H   0  0  0  0  0  0  0  0  0  0  0  0
  140.1390   79.3267  217.6320 H   0  0  0  0  0  0  0  0  0  0  0  0
  139.2476   79.1540  216.0746 H   0  0  0  0  0  0  0  0  0  0  0  0
  137.9979   79.8925  218.3342 H   0  0  0  0  0  0  0  0  0  0  0  0
  137.2149   78.8066  217.1005 H   0  0  0  0  0  0  0  0  0  0  0  0
  137.2321   78.2378  219.7445 H   0  0  0  0  0  0  0  0  0  0  0  0
  137.2746   76.9761  218.4503 H   0  0  0  0  0  0  0  0  0  0  0  0
  139.7052   78.1490  219.8866 H   0  0  0  0  0  0  0  0  0  0  0  0
  138.9473   76.5250  220.1880 H   0  0  0  0  0  0  0  0  0  0  0  0
  140.9920   76.8100  218.6580 H   0  0  0  0  0  0  0  0  0  0  0  0
  139.7810   75.6790  218.3410 H   0  0  0  0  0  0  0  0  0  0  0  0
  141.8418   73.5551  220.3969 H   0  0  0  0  0  0  0  0  0  0  0  0
  141.8726   73.8487  218.6152 H   0  0  0  0  0  0  0  0  0  0  0  0
  142.5322   71.4970  219.3303 H   0  0  0  0  0  0  0  0  0  0  0  0
  143.7482   72.3732  218.3211 H   0  0  0  0  0  0  0  0  0  0  0  0
  146.0338   72.9298  220.8782 H   0  0  0  0  0  0  0  0  0  0  0  0
  145.5924   73.1318  219.1377 H   0  0  0  0  0  0  0  0  0  0  0  0
  144.4244   74.6081  221.5442 H   0  0  0  0  0  0  0  0  0  0  0  0
  145.3940   75.2892  220.1815 H   0  0  0  0  0  0  0  0  0  0  0  0
  141.6696   80.9578  221.1845 H   0  0  0  0  0  0  0  0  0  0  0  0
  140.4507   80.2349  220.0557 H   0  0  0  0  0  0  0  0  0  0  0  0
  1  2  2  0
  2  3  1  0
  3  4  2  0
  4  5  1  0
  5  6  2  0
  5  7  1  0
  7  8  1  0
  8  9  1  0
  9 10  1  0
 10 11  2  0
 11 12  1  0
 12 13  1  0
 13 14  1  0
 14 15  1  0
 15 16  1  0
 16 17  1  0
 17 18  1  0
 18 19  1  0
 19 20  1  0
 20 21  1  0
 12 22  2  0
 22 23  1  0
 23 24  1  0
 24 25  1  0
 25 26  1  0
 26 27  1  0
 27 28  1  0
 28 29  1  0
 23 30  2  0
  9 31  1  0
  6  1  1  0
 30 10  1  0
 31  4  1  0
 21 16  1  0
 29 24  1  0
  1 32  1  0
  2 33  1  0
  3 34  1  0
  6 35  1  0
  7 36  1  0
  7 37  1  0
  8 38  1  0
  8 39  1  0
 13 40  1  0
 13 41  1  0
 14 42  1  0
 14 43  1  0
 15 44  1  0
 15 45  1  0
 16 46  1  6
 17 47  1  0
 17 48  1  0
 18 49  1  0
 18 50  1  0
 19 51  1  0
 19 52  1  0
 20 53  1  0
 20 54  1  0
 21 55  1  0
 21 56  1  0
 25 57  1  0
 25 58  1  0
 26 59  1  0
 26 60  1  0
 28 61  1  0
 28 62  1  0
 29 63  1  0
 29 64  1  0
 31 65  1  0
 31 66  1  0
M  CHG  2  13   1  21   1
M  END
>  <UniqueID>  (25) 
488

>  <SMILES>  (25) 
c1ccc2c(c1)CCN(c1nc([NH2+]CC[C@@H]3CCCC[NH2+]3)nc(N3CCOCC3)n1)C2

>  <Energy>  (25) 
77.09151523306082

>  <Genealogy>  (25) 
c1ccc2c(c1)CCN(c1nc([NH2+]CCC3CCCC[NH2+]3)nc(N3CCOCC3)n1)C2 (protonated)
c1ccc2c(c1)CCN(c1nc([NH2+]CC[C@@H]3CCCC[NH2+]3)nc(N3CCOCC3)n1)C2 (chirality)
c1ccc2c(c1)CCN(c1nc([NH2+]CC[C@@H]3CCCC[NH2+]3)nc(N3CCOCC3)n1)C2 (3D coordinates assigned)
c1ccc2c(c1)CCN(c1nc([NH2+]CC[C@@H]3CCCC[NH2+]3)nc(N3CCOCC3)n1)C2 (nonaromatic ring conformer: 77.09151523306082 kcal/mol)

>  <smiles>  (25) 
c1ccc2c(c1)CCN(c1nc(NCCC3CCCCN3)nc(N3CCOCC3)n1)C2

>  <score_type>  (25) 
oracle

>  <origin>  (25) 
autodockgpu

>  <m_score__min__energy>  (25) 
-9.6600000000000001

>  <m_primary>  (25) 
energy

>  <meeko>  (25) 
{"free_energy": -5.98, "intermolecular_energy": -7.77, "internal_energy": -2.21, "cluster_size": 1, "cluster_id": 7, "rank_in_cluster": 1}

>  <energy>  (25) 
-9.34

>  <cluster_rmsd>  (25) 
0.72

>  <rmsd>  (25) 
272.55

>  <cluster>  (25) 
1

$$$$
MXRVYNFLTYDQGX-OFNDVBAVNA-P
     RDKit          3D

 66 70  0  0  0  0  0  0  0  0999 V2000
  141.5860   81.6260  222.4350 C   0  0  0  0  0  0  0  0  0  0  0  0
  142.4550   80.9460  223.2930 C   0  0  0  0  0  0  0  0  0  0  0  0
  142.2980   79.5720  223.5010 C   0  0  0  0  0  0  0  0  0  0  0  0
  141.2810   78.8690  222.8360 C   0  0  0  0  0  0  0  0  0  0  0  0
  140.4100   79.5520  221.9740 C   0  0  0  0  0  0  0  0  0  0  0  0
  140.5600   80.9350  221.7830 C   0  0  0  0  0  0  0  0  0  0  0  0
  139.2840   78.7970  221.3340 C   0  0  0  0  0  0  0  0  0  0  0  0
  139.7560   77.4140  220.8660 C   0  0  0  0  0  0  0  0  0  0  0  0
  140.5710   76.7120  221.8780 N   0  0  0  0  0  0  0  0  0  0  0  0
  140.8780   75.3180  221.6710 C   0  0  0  0  0  0  0  0  0  0  0  0
  139.9680   74.3600  221.9860 N   0  0  0  0  0  0  0  0  0  0  0  0
  140.2190   73.0510  221.7240 C   0  0  0  0  0  0  0  0  0  0  0  0
  139.2260   72.0520  222.0150 N   0  0  0  0  0  0  0  0  0  0  0  0
  139.2760   71.6160  223.4260 C   0  0  0  0  0  0  0  0  0  0  0  0
  140.7130   71.4930  223.9860 C   0  0  0  0  0  0  0  0  0  0  0  0
  140.8140   70.7870  225.3610 C   0  0  2  0  0  0  0  0  0  0  0  0
  139.5230   70.0020  225.6650 C   0  0  0  0  0  0  0  0  0  0  0  0
  139.6990   69.1540  226.9390 C   0  0  0  0  0  0  0  0  0  0  0  0
  140.6720   69.7930  227.9480 C   0  0  0  0  0  0  0  0  0  0  0  0
  140.6950   71.3180  227.8000 C   0  0  0  0  0  0  0  0  0  0  0  0
  141.1390   71.7440  226.4530 N   0  0  0  0  0  0  0  0  0  0  0  0
  141.4100   72.6950  221.1750 N   0  0  0  0  0  0  0  0  0  0  0  0
  142.3410   73.6390  220.8720 C   0  0  0  0  0  0  0  0  0  0  0  0
  143.6000   73.2620  220.2770 N   0  0  0  0  0  0  0  0  0  0  0  0
  144.7620   74.1540  220.4050 C   0  0  0  0  0  0  0  0  0  0  0  0
  146.0670   73.3820  220.1860 C   0  0  0  0  0  0  0  0  0  0  0  0
  146.0080   72.6190  218.9980 O   0  0  0  0  0  0  0  0  0  0  0  0
  145.0370   71.6030  219.1440 C   0  0  0  0  0  0  0  0  0  0  0  0
  143.6320   72.2030  219.2580 C   0  0  0  0  0  0  0  0  0  0  0  0
  142.0640   74.9480  221.1170 N   0  0  0  0  0  0  0  0  0  0  0  0
  141.0730   77.3980  223.0830 C   0  0  0  0  0  0  0  0  0  0  0  0
  141.7095   82.7069  222.2724 H   0  0  0  0  0  0  0  0  0  0  0  0
  143.2620   81.4913  223.8043 H   0  0  0  0  0  0  0  0  0  0  0  0
  142.9733   79.0406  224.1877 H   0  0  0  0  0  0  0  0  0  0  0  0
  139.8692   81.4757  221.1194 H   0  0  0  0  0  0  0  0  0  0  0  0
  138.4710   78.6731  222.0645 H   0  0  0  0  0  0  0  0  0  0  0  0
  138.9290   79.3640  220.4608 H   0  0  0  0  0  0  0  0  0  0  0  0
  138.8721   76.7996  220.6394 H   0  0  0  0  0  0  0  0  0  0  0  0
  140.3887   77.5640  219.9788 H   0  0  0  0  0  0  0  0  0  0  0  0
  139.3330   71.2340  221.3710 H   0  0  0  0  0  0  0  0  0  0  0  0
  138.2870   72.4780  221.8320 H   0  0  0  0  0  0  0  0  0  0  0  0
  138.7267   72.3483  224.0359 H   0  0  0  0  0  0  0  0  0  0  0  0
  138.8259   70.6132  223.4698 H   0  0  0  0  0  0  0  0  0  0  0  0
  141.3147   70.9227  223.2631 H   0  0  0  0  0  0  0  0  0  0  0  0
  141.0764   72.5202  224.1369 H   0  0  0  0  0  0  0  0  0  0  0  0
  141.6464   70.0699  225.3081 H   0  0  0  0  0  0  0  0  0  0  0  0
  138.6942   70.7101  225.8123 H   0  0  0  0  0  0  0  0  0  0  0  0
  139.3031   69.3343  224.8189 H   0  0  0  0  0  0  0  0  0  0  0  0
  138.7178   69.0366  227.4221 H   0  0  0  0  0  0  0  0  0  0  0  0
  140.1221   68.1845  226.6373 H   0  0  0  0  0  0  0  0  0  0  0  0
  140.3520   69.5356  228.9685 H   0  0  0  0  0  0  0  0  0  0  0  0
  141.6832   69.4070  227.7517 H   0  0  0  0  0  0  0  0  0  0  0  0
  139.6813   71.7062  227.9778 H   0  0  0  0  0  0  0  0  0  0  0  0
  141.4116   71.7170  228.5330 H   0  0  0  0  0  0  0  0  0  0  0  0
  140.7060   72.6770  226.2560 H   0  0  0  0  0  0  0  0  0  0  0  0
  142.1760   71.8800  226.4810 H   0  0  0  0  0  0  0  0  0  0  0  0
  144.6864   74.9547  219.6546 H   0  0  0  0  0  0  0  0  0  0  0  0
  144.7699   74.5794  221.4194 H   0  0  0  0  0  0  0  0  0  0  0  0
  146.9004   74.0964  220.1143 H   0  0  0  0  0  0  0  0  0  0  0  0
  146.2183   72.6993  221.0351 H   0  0  0  0  0  0  0  0  0  0  0  0
  145.0753   70.9394  218.2676 H   0  0  0  0  0  0  0  0  0  0  0  0
  145.2540   71.0384  220.0627 H   0  0  0  0  0  0  0  0  0  0  0  0
  143.3411   72.6282  218.2861 H   0  0  0  0  0  0  0  0  0  0  0  0
  142.9309   71.4080  219.5522 H   0  0  0  0  0  0  0  0  0  0  0  0
  140.3428   77.2721  223.8960 H   0  0  0  0  0  0  0  0  0  0  0  0
  142.0421   76.9537  223.3538 H   0  0  0  0  0  0  0  0  0  0  0  0
  1  2  2  0
  2  3  1  0
  3  4  2  0
  4  5  1  0
  5  6  2  0
  5  7  1  0
  7  8  1  0
  8  9  1  0
  9 10  1  0
 10 11  2  0
 11 12  1  0
 12 13  1  0
 13 14  1  0
 14 15  1  0
 15 16  1  0
 16 17  1  0
 17 18  1  0
 18 19  1  0
 19 20  1  0
 20 21  1  0
 12 22  2  0
 22 23  1  0
 23 24  1  0
 24 25  1  0
 25 26  1  0
 26 27  1  0
 27 28  1  0
 28 29  1  0
 23 30  2  0
  9 31  1  0
  6  1  1  0
 30 10  1  0
 31  4  1  0
 21 16  1  0
 29 24  1  0
  1 32  1  0
  2 33  1  0
  3 34  1  0
  6 35  1  0
  7 36  1  0
  7 37  1  0
  8 38  1  0
  8 39  1  0
 13 40  1  0
 13 41  1  0
 14 42  1  0
 14 43  1  0
 15 44  1  0
 15 45  1  0
 16 46  1  6
 17 47  1  0
 17 48  1  0
 18 49  1  0
 18 50  1  0
 19 51  1  0
 19 52  1  0
 20 53  1  0
 20 54  1  0
 21 55  1  0
 21 56  1  0
 25 57  1  0
 25 58  1  0
 26 59  1  0
 26 60  1  0
 28 61  1  0
 28 62  1  0
 29 63  1  0
 29 64  1  0
 31 65  1  0
 31 66  1  0
M  CHG  2  13   1  21   1
M  END
>  <UniqueID>  (26) 
488

>  <SMILES>  (26) 
c1ccc2c(c1)CCN(c1nc([NH2+]CC[C@@H]3CCCC[NH2+]3)nc(N3CCOCC3)n1)C2

>  <Energy>  (26) 
77.09151523306082

>  <Genealogy>  (26) 
c1ccc2c(c1)CCN(c1nc([NH2+]CCC3CCCC[NH2+]3)nc(N3CCOCC3)n1)C2 (protonated)
c1ccc2c(c1)CCN(c1nc([NH2+]CC[C@@H]3CCCC[NH2+]3)nc(N3CCOCC3)n1)C2 (chirality)
c1ccc2c(c1)CCN(c1nc([NH2+]CC[C@@H]3CCCC[NH2+]3)nc(N3CCOCC3)n1)C2 (3D coordinates assigned)
c1ccc2c(c1)CCN(c1nc([NH2+]CC[C@@H]3CCCC[NH2+]3)nc(N3CCOCC3)n1)C2 (nonaromatic ring conformer: 77.09151523306082 kcal/mol)

>  <smiles>  (26) 
c1ccc2c(c1)CCN(c1nc(NCCC3CCCCN3)nc(N3CCOCC3)n1)C2

>  <score_type>  (26) 
oracle

>  <origin>  (26) 
autodockgpu

>  <m_score__min__energy>  (26) 
-9.6600000000000001

>  <m_primary>  (26) 
energy

>  <meeko>  (26) 
{"free_energy": -8.77, "intermolecular_energy": -10.56, "internal_energy": -0.0, "cluster_size": 11, "cluster_id": 1, "rank_in_cluster": 9}

>  <energy>  (26) 
-9.03

>  <cluster_rmsd>  (26) 
0.72

>  <rmsd>  (26) 
272.56

>  <cluster>  (26) 
1

$$$$
MXRVYNFLTYDQGX-OFNDVBAVNA-P
     RDKit          3D

 66 70  0  0  0  0  0  0  0  0999 V2000
  142.0640   81.6980  222.5740 C   0  0  0  0  0  0  0  0  0  0  0  0
  142.2280   80.9740  223.7580 C   0  0  0  0  0  0  0  0  0  0  0  0
  141.8070   79.6420  223.8280 C   0  0  0  0  0  0  0  0  0  0  0  0
  141.2370   79.0220  222.7040 C   0  0  0  0  0  0  0  0  0  0  0  0
  141.0750   79.7500  221.5150 C   0  0  0  0  0  0  0  0  0  0  0  0
  141.4820   81.0920  221.4560 C   0  0  0  0  0  0  0  0  0  0  0  0
  140.3930   79.0920  220.3510 C   0  0  0  0  0  0  0  0  0  0  0  0
  140.8610   77.6390  220.2010 C   0  0  0  0  0  0  0  0  0  0  0  0
  140.8920   76.9090  221.4840 N   0  0  0  0  0  0  0  0  0  0  0  0
  141.0800   75.4780  221.4610 C   0  0  0  0  0  0  0  0  0  0  0  0
  140.1160   74.6530  221.9470 N   0  0  0  0  0  0  0  0  0  0  0  0
  140.2510   73.3040  221.8600 C   0  0  0  0  0  0  0  0  0  0  0  0
  139.2010   72.4410  222.3310 N   0  0  0  0  0  0  0  0  0  0  0  0
  139.7330   71.2140  222.9610 C   0  0  0  0  0  0  0  0  0  0  0  0
  140.6880   71.4910  224.1470 C   0  0  0  0  0  0  0  0  0  0  0  0
  140.2450   70.8670  225.4930 C   0  0  2  0  0  0  0  0  0  0  0  0
  141.0500   71.4680  226.6620 C   0  0  0  0  0  0  0  0  0  0  0  0
  140.4800   70.9860  228.0100 C   0  0  0  0  0  0  0  0  0  0  0  0
  139.8550   69.5800  227.9210 C   0  0  0  0  0  0  0  0  0  0  0  0
  140.5090   68.7570  226.8060 C   0  0  0  0  0  0  0  0  0  0  0  0
  140.3390   69.3820  225.4740 N   0  0  0  0  0  0  0  0  0  0  0  0
  141.3790   72.7780  221.3140 N   0  0  0  0  0  0  0  0  0  0  0  0
  142.3620   73.5900  220.8410 C   0  0  0  0  0  0  0  0  0  0  0  0
  143.5530   73.0310  220.2510 N   0  0  0  0  0  0  0  0  0  0  0  0
  144.8380   73.7310  220.3990 C   0  0  0  0  0  0  0  0  0  0  0  0
  146.0100   72.7710  220.1790 C   0  0  0  0  0  0  0  0  0  0  0  0
  145.8450   72.0410  218.9800 O   0  0  0  0  0  0  0  0  0  0  0  0
  144.7280   71.1850  219.1040 C   0  0  0  0  0  0  0  0  0  0  0  0
  143.4320   71.9930  219.2170 C   0  0  0  0  0  0  0  0  0  0  0  0
  142.2000   74.9380  220.9130 N   0  0  0  0  0  0  0  0  0  0  0  0
  140.7390   77.6030  222.7770 C   0  0  0  0  0  0  0  0  0  0  0  0
  142.3932   82.7463  222.5213 H   0  0  0  0  0  0  0  0  0  0  0  0
  142.6884   81.4519  224.6353 H   0  0  0  0  0  0  0  0  0  0  0  0
  141.9226   79.0786  224.7657 H   0  0  0  0  0  0  0  0  0  0  0  0
  141.3430   81.6679  220.5291 H   0  0  0  0  0  0  0  0  0  0  0  0
  139.3053   79.1063  220.5142 H   0  0  0  0  0  0  0  0  0  0  0  0
  140.6478   79.6428  219.4335 H   0  0  0  0  0  0  0  0  0  0  0  0
  140.1743   77.1181  219.5175 H   0  0  0  0  0  0  0  0  0  0  0  0
  141.8889   77.6624  219.8101 H   0  0  0  0  0  0  0  0  0  0  0  0
  138.5490   72.2020  221.5480 H   0  0  0  0  0  0  0  0  0  0  0  0
  138.6530   72.9730  223.0470 H   0  0  0  0  0  0  0  0  0  0  0  0
  138.8858   70.6165  223.3288 H   0  0  0  0  0  0  0  0  0  0  0  0
  140.3165   70.6842  222.1937 H   0  0  0  0  0  0  0  0  0  0  0  0
  141.6784   71.0865  223.8912 H   0  0  0  0  0  0  0  0  0  0  0  0
  140.6912   72.5809  224.2957 H   0  0  0  0  0  0  0  0  0  0  0  0
  139.1843   71.1165  225.6435 H   0  0  0  0  0  0  0  0  0  0  0  0
  142.1005   71.1523  226.5789 H   0  0  0  0  0  0  0  0  0  0  0  0
  140.9804   72.5649  226.6167 H   0  0  0  0  0  0  0  0  0  0  0  0
  141.2945   70.9632  228.7489 H   0  0  0  0  0  0  0  0  0  0  0  0
  139.6843   71.6861  228.3044 H   0  0  0  0  0  0  0  0  0  0  0  0
  139.9971   69.0619  228.8809 H   0  0  0  0  0  0  0  0  0  0  0  0
  138.7837   69.6867  227.6951 H   0  0  0  0  0  0  0  0  0  0  0  0
  141.5842   68.6641  227.0188 H   0  0  0  0  0  0  0  0  0  0  0  0
  140.0184   67.7728  226.7815 H   0  0  0  0  0  0  0  0  0  0  0  0
  141.1440   69.0790  224.8760 H   0  0  0  0  0  0  0  0  0  0  0  0
  139.4670   68.9970  225.0430 H   0  0  0  0  0  0  0  0  0  0  0  0
  144.8934   74.5430  219.6590 H   0  0  0  0  0  0  0  0  0  0  0  0
  144.9022   74.1370  221.4193 H   0  0  0  0  0  0  0  0  0  0  0  0
  146.9439   73.3495  220.1230 H   0  0  0  0  0  0  0  0  0  0  0  0
  146.0470   72.0627  221.0198 H   0  0  0  0  0  0  0  0  0  0  0  0
  144.6716   70.5354  218.2181 H   0  0  0  0  0  0  0  0  0  0  0  0
  144.8469   70.5809  220.0156 H   0  0  0  0  0  0  0  0  0  0  0  0
  143.2193   72.4709  218.2493 H   0  0  0  0  0  0  0  0  0  0  0  0
  142.6145   71.3116  219.4951 H   0  0  0  0  0  0  0  0  0  0  0  0
  139.6746   77.6116  223.0543 H   0  0  0  0  0  0  0  0  0  0  0  0
  141.3354   77.0662  223.5295 H   0  0  0  0  0  0  0  0  0  0  0  0
  1  2  2  0
  2  3  1  0
  3  4  2  0
  4  5  1  0
  5  6  2  0
  5  7  1  0
  7  8  1  0
  8  9  1  0
  9 10  1  0
 10 11  2  0
 11 12  1  0
 12 13  1  0
 13 14  1  0
 14 15  1  0
 15 16  1  0
 16 17  1  0
 17 18  1  0
 18 19  1  0
 19 20  1  0
 20 21  1  0
 12 22  2  0
 22 23  1  0
 23 24  1  0
 24 25  1  0
 25 26  1  0
 26 27  1  0
 27 28  1  0
 28 29  1  0
 23 30  2  0
  9 31  1  0
  6  1  1  0
 30 10  1  0
 31  4  1  0
 21 16  1  0
 29 24  1  0
  1 32  1  0
  2 33  1  0
  3 34  1  0
  6 35  1  0
  7 36  1  0
  7 37  1  0
  8 38  1  0
  8 39  1  0
 13 40  1  0
 13 41  1  0
 14 42  1  0
 14 43  1  0
 15 44  1  0
 15 45  1  0
 16 46  1  1
 17 47  1  0
 17 48  1  0
 18 49  1  0
 18 50  1  0
 19 51  1  0
 19 52  1  0
 20 53  1  0
 20 54  1  0
 21 55  1  0
 21 56  1  0
 25 57  1  0
 25 58  1  0
 26 59  1  0
 26 60  1  0
 28 61  1  0
 28 62  1  0
 29 63  1  0
 29 64  1  0
 31 65  1  0
 31 66  1  0
M  CHG  2  13   1  21   1
M  END
>  <UniqueID>  (27) 
488

>  <SMILES>  (27) 
c1ccc2c(c1)CCN(c1nc([NH2+]CC[C@@H]3CCCC[NH2+]3)nc(N3CCOCC3)n1)C2

>  <Energy>  (27) 
77.09151523306082

>  <Genealogy>  (27) 
c1ccc2c(c1)CCN(c1nc([NH2+]CCC3CCCC[NH2+]3)nc(N3CCOCC3)n1)C2 (protonated)
c1ccc2c(c1)CCN(c1nc([NH2+]CC[C@@H]3CCCC[NH2+]3)nc(N3CCOCC3)n1)C2 (chirality)
c1ccc2c(c1)CCN(c1nc([NH2+]CC[C@@H]3CCCC[NH2+]3)nc(N3CCOCC3)n1)C2 (3D coordinates assigned)
c1ccc2c(c1)CCN(c1nc([NH2+]CC[C@@H]3CCCC[NH2+]3)nc(N3CCOCC3)n1)C2 (nonaromatic ring conformer: 77.09151523306082 kcal/mol)

>  <smiles>  (27) 
c1ccc2c(c1)CCN(c1nc(NCCC3CCCCN3)nc(N3CCOCC3)n1)C2

>  <score_type>  (27) 
oracle

>  <origin>  (27) 
autodockgpu

>  <m_score__min__energy>  (27) 
-9.6600000000000001

>  <m_primary>  (27) 
energy

>  <meeko>  (27) 
{"free_energy": -9.63, "intermolecular_energy": -11.42, "internal_energy": 0.1, "cluster_size": 11, "cluster_id": 1, "rank_in_cluster": 2}

>  <energy>  (27) 
-9.01

>  <cluster_rmsd>  (27) 
0.58

>  <rmsd>  (27) 
272.59

>  <cluster>  (27) 
1

$$$$
MXRVYNFLTYDQGX-OFNDVBAVNA-P
     RDKit          3D

 66 70  0  0  0  0  0  0  0  0999 V2000
  141.9160   81.6510  222.5580 C   0  0  0  0  0  0  0  0  0  0  0  0
  142.1470   80.9320  223.7350 C   0  0  0  0  0  0  0  0  0  0  0  0
  141.7740   79.5880  223.8180 C   0  0  0  0  0  0  0  0  0  0  0  0
  141.1850   78.9490  222.7150 C   0  0  0  0  0  0  0  0  0  0  0  0
  140.9550   79.6700  221.5330 C   0  0  0  0  0  0  0  0  0  0  0  0
  141.3140   81.0260  221.4620 C   0  0  0  0  0  0  0  0  0  0  0  0
  140.2550   78.9910  220.3940 C   0  0  0  0  0  0  0  0  0  0  0  0
  140.7650   77.5540  220.2250 C   0  0  0  0  0  0  0  0  0  0  0  0
  140.8680   76.8250  221.5050 N   0  0  0  0  0  0  0  0  0  0  0  0
  141.1030   75.4020  221.4730 C   0  0  0  0  0  0  0  0  0  0  0  0
  140.1750   74.5430  221.9690 N   0  0  0  0  0  0  0  0  0  0  0  0
  140.3530   73.1990  221.8740 C   0  0  0  0  0  0  0  0  0  0  0  0
  139.3390   72.3000  222.3560 N   0  0  0  0  0  0  0  0  0  0  0  0
  138.2910   72.0540  221.3440 C   0  0  0  0  0  0  0  0  0  0  0  0
  137.6400   73.3470  220.7990 C   0  0  0  0  0  0  0  0  0  0  0  0
  136.9140   74.2060  221.8640 C   0  0  2  0  0  0  0  0  0  0  0  0
  135.5570   74.7010  221.3290 C   0  0  0  0  0  0  0  0  0  0  0  0
  134.7590   75.3940  222.4510 C   0  0  0  0  0  0  0  0  0  0  0  0
  135.6680   76.0760  223.4920 C   0  0  0  0  0  0  0  0  0  0  0  0
  137.0040   76.4930  222.8660 C   0  0  0  0  0  0  0  0  0  0  0  0
  137.7600   75.3360  222.3350 N   0  0  0  0  0  0  0  0  0  0  0  0
  141.4900   72.7130  221.3100 N   0  0  0  0  0  0  0  0  0  0  0  0
  142.4380   73.5600  220.8270 C   0  0  0  0  0  0  0  0  0  0  0  0
  143.6390   73.0440  220.2180 N   0  0  0  0  0  0  0  0  0  0  0  0
  144.8960   73.7980  220.3310 C   0  0  0  0  0  0  0  0  0  0  0  0
  146.1030   72.8840  220.0960 C   0  0  0  0  0  0  0  0  0  0  0  0
  145.9430   72.1340  218.9090 O   0  0  0  0  0  0  0  0  0  0  0  0
  144.8650   71.2330  219.0670 C   0  0  0  0  0  0  0  0  0  0  0  0
  143.5390   71.9890  219.1980 C   0  0  0  0  0  0  0  0  0  0  0  0
  142.2330   74.9020  220.9070 N   0  0  0  0  0  0  0  0  0  0  0  0
  140.7390   77.5140  222.8030 C   0  0  0  0  0  0  0  0  0  0  0  0
  142.2083   82.7095  222.4945 H   0  0  0  0  0  0  0  0  0  0  0  0
  142.6226   81.4247  224.5959 H   0  0  0  0  0  0  0  0  0  0  0  0
  141.9423   79.0288  224.7502 H   0  0  0  0  0  0  0  0  0  0  0  0
  141.1211   81.5974  220.5421 H   0  0  0  0  0  0  0  0  0  0  0  0
  139.1739   78.9693  220.5957 H   0  0  0  0  0  0  0  0  0  0  0  0
  140.4589   79.5503  219.4690 H   0  0  0  0  0  0  0  0  0  0  0  0
  140.0710   77.0107  219.5668 H   0  0  0  0  0  0  0  0  0  0  0  0
  141.7764   77.6117  219.7964 H   0  0  0  0  0  0  0  0  0  0  0  0
  138.9200   72.6670  223.2420 H   0  0  0  0  0  0  0  0  0  0  0  0
  139.8050   71.3900  222.5810 H   0  0  0  0  0  0  0  0  0  0  0  0
  138.7424   71.5101  220.5011 H   0  0  0  0  0  0  0  0  0  0  0  0
  137.4958   71.4760  221.8374 H   0  0  0  0  0  0  0  0  0  0  0  0
  138.4298   73.9622  220.3432 H   0  0  0  0  0  0  0  0  0  0  0  0
  136.8705   73.0279  220.0807 H   0  0  0  0  0  0  0  0  0  0  0  0
  136.7239   73.5658  222.7381 H   0  0  0  0  0  0  0  0  0  0  0  0
  135.7287   75.4162  220.5111 H   0  0  0  0  0  0  0  0  0  0  0  0
  134.9816   73.8385  220.9615 H   0  0  0  0  0  0  0  0  0  0  0  0
  134.1067   76.1563  222.0000 H   0  0  0  0  0  0  0  0  0  0  0  0
  134.1780   74.6195  222.9732 H   0  0  0  0  0  0  0  0  0  0  0  0
  135.1595   76.9696  223.8830 H   0  0  0  0  0  0  0  0  0  0  0  0
  135.8693   75.3610  224.3033 H   0  0  0  0  0  0  0  0  0  0  0  0
  136.8053   77.1942  222.0421 H   0  0  0  0  0  0  0  0  0  0  0  0
  137.6134   76.9612  223.6531 H   0  0  0  0  0  0  0  0  0  0  0  0
  138.3660   75.6830  221.5550 H   0  0  0  0  0  0  0  0  0  0  0  0
  138.3930   74.9860  223.0910 H   0  0  0  0  0  0  0  0  0  0  0  0
  144.9021   74.6030  219.5813 H   0  0  0  0  0  0  0  0  0  0  0  0
  144.9646   74.2181  221.3453 H   0  0  0  0  0  0  0  0  0  0  0  0
  147.0107   73.4999  220.0135 H   0  0  0  0  0  0  0  0  0  0  0  0
  146.1874   72.1878  220.9434 H   0  0  0  0  0  0  0  0  0  0  0  0
  144.8173   70.5704  218.1902 H   0  0  0  0  0  0  0  0  0  0  0  0
  145.0278   70.6454  219.9825 H   0  0  0  0  0  0  0  0  0  0  0  0
  143.2870   72.4460  218.2297 H   0  0  0  0  0  0  0  0  0  0  0  0
  142.7559   71.2783  219.5007 H   0  0  0  0  0  0  0  0  0  0  0  0
  139.6857   77.4862  223.1188 H   0  0  0  0  0  0  0  0  0  0  0  0
  141.3813   76.9980  223.5319 H   0  0  0  0  0  0  0  0  0  0  0  0
  1  2  2  0
  2  3  1  0
  3  4  2  0
  4  5  1  0
  5  6  2  0
  5  7  1  0
  7  8  1  0
  8  9  1  0
  9 10  1  0
 10 11  2  0
 11 12  1  0
 12 13  1  0
 13 14  1  0
 14 15  1  0
 15 16  1  0
 16 17  1  0
 17 18  1  0
 18 19  1  0
 19 20  1  0
 20 21  1  0
 12 22  2  0
 22 23  1  0
 23 24  1  0
 24 25  1  0
 25 26  1  0
 26 27  1  0
 27 28  1  0
 28 29  1  0
 23 30  2  0
  9 31  1  0
  6  1  1  0
 30 10  1  0
 31  4  1  0
 21 16  1  0
 29 24  1  0
  1 32  1  0
  2 33  1  0
  3 34  1  0
  6 35  1  0
  7 36  1  0
  7 37  1  0
  8 38  1  0
  8 39  1  0
 13 40  1  0
 13 41  1  0
 14 42  1  0
 14 43  1  0
 15 44  1  0
 15 45  1  0
 16 46  1  1
 17 47  1  0
 17 48  1  0
 18 49  1  0
 18 50  1  0
 19 51  1  0
 19 52  1  0
 20 53  1  0
 20 54  1  0
 21 55  1  0
 21 56  1  0
 25 57  1  0
 25 58  1  0
 26 59  1  0
 26 60  1  0
 28 61  1  0
 28 62  1  0
 29 63  1  0
 29 64  1  0
 31 65  1  0
 31 66  1  0
M  CHG  2  13   1  21   1
M  END
>  <UniqueID>  (28) 
488

>  <SMILES>  (28) 
c1ccc2c(c1)CCN(c1nc([NH2+]CC[C@@H]3CCCC[NH2+]3)nc(N3CCOCC3)n1)C2

>  <Energy>  (28) 
77.09151523306082

>  <Genealogy>  (28) 
c1ccc2c(c1)CCN(c1nc([NH2+]CCC3CCCC[NH2+]3)nc(N3CCOCC3)n1)C2 (protonated)
c1ccc2c(c1)CCN(c1nc([NH2+]CC[C@@H]3CCCC[NH2+]3)nc(N3CCOCC3)n1)C2 (chirality)
c1ccc2c(c1)CCN(c1nc([NH2+]CC[C@@H]3CCCC[NH2+]3)nc(N3CCOCC3)n1)C2 (3D coordinates assigned)
c1ccc2c(c1)CCN(c1nc([NH2+]CC[C@@H]3CCCC[NH2+]3)nc(N3CCOCC3)n1)C2 (nonaromatic ring conformer: 77.09151523306082 kcal/mol)

>  <smiles>  (28) 
c1ccc2c(c1)CCN(c1nc(NCCC3CCCCN3)nc(N3CCOCC3)n1)C2

>  <score_type>  (28) 
oracle

>  <origin>  (28) 
autodockgpu

>  <m_score__min__energy>  (28) 
-9.6600000000000001

>  <m_primary>  (28) 
energy

>  <meeko>  (28) 
{"free_energy": -7.82, "intermolecular_energy": -9.61, "internal_energy": -1.18, "cluster_size": 4, "cluster_id": 4, "rank_in_cluster": 1}

>  <energy>  (28) 
-9.01

>  <cluster_rmsd>  (28) 
0.59

>  <rmsd>  (28) 
272.59

>  <cluster>  (28) 
1

$$$$
MXRVYNFLTYDQGX-OFNDVBAVNA-P
     RDKit          3D

 66 70  0  0  0  0  0  0  0  0999 V2000
  141.8360   81.9670  222.5780 C   0  0  0  0  0  0  0  0  0  0  0  0
  142.2250   81.2420  223.7080 C   0  0  0  0  0  0  0  0  0  0  0  0
  141.8870   79.8900  223.8230 C   0  0  0  0  0  0  0  0  0  0  0  0
  141.1730   79.2520  222.7960 C   0  0  0  0  0  0  0  0  0  0  0  0
  140.7840   79.9790  221.6610 C   0  0  0  0  0  0  0  0  0  0  0  0
  141.1100   81.3410  221.5590 C   0  0  0  0  0  0  0  0  0  0  0  0
  139.9560   79.2980  220.6120 C   0  0  0  0  0  0  0  0  0  0  0  0
  140.4640   77.8720  220.3640 C   0  0  0  0  0  0  0  0  0  0  0  0
  140.7390   77.1330  221.6130 N   0  0  0  0  0  0  0  0  0  0  0  0
  140.9900   75.7150  221.5360 C   0  0  0  0  0  0  0  0  0  0  0  0
  140.0560   74.8290  221.9680 N   0  0  0  0  0  0  0  0  0  0  0  0
  140.2520   73.4910  221.8300 C   0  0  0  0  0  0  0  0  0  0  0  0
  139.2320   72.5650  222.2440 N   0  0  0  0  0  0  0  0  0  0  0  0
  138.0160   72.6710  221.4120 C   0  0  0  0  0  0  0  0  0  0  0  0
  136.8010   73.2670  222.1620 C   0  0  0  0  0  0  0  0  0  0  0  0
  136.5870   74.7850  221.9460 C   0  0  2  0  0  0  0  0  0  0  0  0
  136.9080   75.1780  220.4910 C   0  0  0  0  0  0  0  0  0  0  0  0
  136.5160   76.6450  220.2330 C   0  0  0  0  0  0  0  0  0  0  0  0
  136.6360   77.5220  221.4930 C   0  0  0  0  0  0  0  0  0  0  0  0
  137.6950   76.9670  222.4520 C   0  0  0  0  0  0  0  0  0  0  0  0
  137.3700   75.5990  222.9150 N   0  0  0  0  0  0  0  0  0  0  0  0
  141.4120   73.0380  221.2870 N   0  0  0  0  0  0  0  0  0  0  0  0
  142.3670   73.9110  220.8680 C   0  0  0  0  0  0  0  0  0  0  0  0
  143.5930   73.4300  220.2800 N   0  0  0  0  0  0  0  0  0  0  0  0
  144.8330   74.2010  220.4480 C   0  0  0  0  0  0  0  0  0  0  0  0
  146.0610   73.3120  220.2260 C   0  0  0  0  0  0  0  0  0  0  0  0
  145.9470   72.5900  219.0160 O   0  0  0  0  0  0  0  0  0  0  0  0
  144.8810   71.6690  219.1210 C   0  0  0  0  0  0  0  0  0  0  0  0
  143.5390   72.3990  219.2330 C   0  0  0  0  0  0  0  0  0  0  0  0
  142.1440   75.2470  220.9900 N   0  0  0  0  0  0  0  0  0  0  0  0
  140.7640   77.8090  222.9240 C   0  0  0  0  0  0  0  0  0  0  0  0
  142.1010   83.0310  222.4898 H   0  0  0  0  0  0  0  0  0  0  0  0
  142.7974   81.7353  224.5073 H   0  0  0  0  0  0  0  0  0  0  0  0
  142.1811   79.3251  224.7199 H   0  0  0  0  0  0  0  0  0  0  0  0
  140.7941   81.9167  220.6765 H   0  0  0  0  0  0  0  0  0  0  0  0
  138.9097   79.2555  220.9487 H   0  0  0  0  0  0  0  0  0  0  0  0
  140.0315   79.8691  219.6749 H   0  0  0  0  0  0  0  0  0  0  0  0
  139.7017   77.3226  219.7920 H   0  0  0  0  0  0  0  0  0  0  0  0
  141.4124   77.9514  219.8125 H   0  0  0  0  0  0  0  0  0  0  0  0
  139.0020   72.7060  223.2550 H   0  0  0  0  0  0  0  0  0  0  0  0
  139.6230   71.5990  222.1410 H   0  0  0  0  0  0  0  0  0  0  0  0
  138.2408   73.3140  220.5483 H   0  0  0  0  0  0  0  0  0  0  0  0
  137.7402   71.6490  221.1130 H   0  0  0  0  0  0  0  0  0  0  0  0
  135.8967   72.7418  221.8208 H   0  0  0  0  0  0  0  0  0  0  0  0
  137.0020   73.1317  223.2350 H   0  0  0  0  0  0  0  0  0  0  0  0
  135.5250   75.0022  222.1329 H   0  0  0  0  0  0  0  0  0  0  0  0
  137.9861   75.0538  220.3113 H   0  0  0  0  0  0  0  0  0  0  0  0
  136.3348   74.5303  219.8113 H   0  0  0  0  0  0  0  0  0  0  0  0
  137.1770   77.0544  219.4549 H   0  0  0  0  0  0  0  0  0  0  0  0
  135.4620   76.6571  219.9186 H   0  0  0  0  0  0  0  0  0  0  0  0
  136.9202   78.5421  221.1951 H   0  0  0  0  0  0  0  0  0  0  0  0
  135.6648   77.5268  222.0094 H   0  0  0  0  0  0  0  0  0  0  0  0
  138.6649   76.9442  221.9335 H   0  0  0  0  0  0  0  0  0  0  0  0
  137.7274   77.6228  223.3345 H   0  0  0  0  0  0  0  0  0  0  0  0
  138.2720   75.1180  223.1450 H   0  0  0  0  0  0  0  0  0  0  0  0
  136.8220   75.6780  223.8040 H   0  0  0  0  0  0  0  0  0  0  0  0
  144.8473   75.0243  219.7187 H   0  0  0  0  0  0  0  0  0  0  0  0
  144.8655   74.5972  221.4736 H   0  0  0  0  0  0  0  0  0  0  0  0
  146.9607   73.9436  220.1855 H   0  0  0  0  0  0  0  0  0  0  0  0
  146.1325   72.5960  221.0580 H   0  0  0  0  0  0  0  0  0  0  0  0
  144.8691   71.0280  218.2271 H   0  0  0  0  0  0  0  0  0  0  0  0
  145.0282   71.0618  220.0264 H   0  0  0  0  0  0  0  0  0  0  0  0
  143.3056   72.8752  218.2693 H   0  0  0  0  0  0  0  0  0  0  0  0
  142.7602   71.6682  219.4966 H   0  0  0  0  0  0  0  0  0  0  0  0
  139.7594   77.7609  223.3696 H   0  0  0  0  0  0  0  0  0  0  0  0
  141.5012   77.2978  223.5606 H   0  0  0  0  0  0  0  0  0  0  0  0
  1  2  2  0
  2  3  1  0
  3  4  2  0
  4  5  1  0
  5  6  2  0
  5  7  1  0
  7  8  1  0
  8  9  1  0
  9 10  1  0
 10 11  2  0
 11 12  1  0
 12 13  1  0
 13 14  1  0
 14 15  1  0
 15 16  1  0
 16 17  1  0
 17 18  1  0
 18 19  1  0
 19 20  1  0
 20 21  1  0
 12 22  2  0
 22 23  1  0
 23 24  1  0
 24 25  1  0
 25 26  1  0
 26 27  1  0
 27 28  1  0
 28 29  1  0
 23 30  2  0
  9 31  1  0
  6  1  1  0
 30 10  1  0
 31  4  1  0
 21 16  1  0
 29 24  1  0
  1 32  1  0
  2 33  1  0
  3 34  1  0
  6 35  1  0
  7 36  1  0
  7 37  1  0
  8 38  1  0
  8 39  1  0
 13 40  1  0
 13 41  1  0
 14 42  1  0
 14 43  1  0
 15 44  1  0
 15 45  1  0
 16 46  1  1
 17 47  1  0
 17 48  1  0
 18 49  1  0
 18 50  1  0
 19 51  1  0
 19 52  1  0
 20 53  1  0
 20 54  1  0
 21 55  1  0
 21 56  1  0
 25 57  1  0
 25 58  1  0
 26 59  1  0
 26 60  1  0
 28 61  1  0
 28 62  1  0
 29 63  1  0
 29 64  1  0
 31 65  1  0
 31 66  1  0
M  CHG  2  13   1  21   1
M  END
>  <UniqueID>  (29) 
488

>  <SMILES>  (29) 
c1ccc2c(c1)CCN(c1nc([NH2+]CC[C@@H]3CCCC[NH2+]3)nc(N3CCOCC3)n1)C2

>  <Energy>  (29) 
77.09151523306082

>  <Genealogy>  (29) 
c1ccc2c(c1)CCN(c1nc([NH2+]CCC3CCCC[NH2+]3)nc(N3CCOCC3)n1)C2 (protonated)
c1ccc2c(c1)CCN(c1nc([NH2+]CC[C@@H]3CCCC[NH2+]3)nc(N3CCOCC3)n1)C2 (chirality)
c1ccc2c(c1)CCN(c1nc([NH2+]CC[C@@H]3CCCC[NH2+]3)nc(N3CCOCC3)n1)C2 (3D coordinates assigned)
c1ccc2c(c1)CCN(c1nc([NH2+]CC[C@@H]3CCCC[NH2+]3)nc(N3CCOCC3)n1)C2 (nonaromatic ring conformer: 77.09151523306082 kcal/mol)

>  <smiles>  (29) 
c1ccc2c(c1)CCN(c1nc(NCCC3CCCCN3)nc(N3CCOCC3)n1)C2

>  <score_type>  (29) 
oracle

>  <origin>  (29) 
autodockgpu

>  <m_score__min__energy>  (29) 
-9.6600000000000001

>  <m_primary>  (29) 
energy

>  <meeko>  (29) 
{"free_energy": -7.68, "intermolecular_energy": -9.47, "internal_energy": -1.17, "cluster_size": 4, "cluster_id": 4, "rank_in_cluster": 3}

>  <energy>  (29) 
-8.77

>  <cluster_rmsd>  (29) 
1.17

>  <rmsd>  (29) 
272.69

>  <cluster>  (29) 
1

$$$$
MXRVYNFLTYDQGX-OFNDVBAVNA-P
     RDKit          3D

 66 70  0  0  0  0  0  0  0  0999 V2000
  140.3500   67.7580  227.6950 C   0  0  0  0  0  0  0  0  0  0  0  0
  139.4530   67.2880  226.7330 C   0  0  0  0  0  0  0  0  0  0  0  0
  138.9690   68.1520  225.7460 C   0  0  0  0  0  0  0  0  0  0  0  0
  139.3960   69.4890  225.7070 C   0  0  0  0  0  0  0  0  0  0  0  0
  140.2980   69.9600  226.6730 C   0  0  0  0  0  0  0  0  0  0  0  0
  140.7670   69.0930  227.6730 C   0  0  0  0  0  0  0  0  0  0  0  0
  140.6820   71.4100  226.6590 C   0  0  0  0  0  0  0  0  0  0  0  0
  140.9100   71.8960  225.2220 C   0  0  0  0  0  0  0  0  0  0  0  0
  139.8530   71.4540  224.2900 N   0  0  0  0  0  0  0  0  0  0  0  0
  139.8100   72.0310  222.9690 C   0  0  0  0  0  0  0  0  0  0  0  0
  138.6430   72.0650  222.2740 N   0  0  0  0  0  0  0  0  0  0  0  0
  138.5770   72.6750  221.0610 C   0  0  0  0  0  0  0  0  0  0  0  0
  137.3240   72.7500  220.3580 N   0  0  0  0  0  0  0  0  0  0  0  0
  136.6300   74.0320  220.5970 C   0  0  0  0  0  0  0  0  0  0  0  0
  136.8500   74.6000  222.0200 C   0  0  0  0  0  0  0  0  0  0  0  0
  137.9100   75.7250  222.1110 C   0  0  2  0  0  0  0  0  0  0  0  0
  138.1420   76.3670  220.7300 C   0  0  0  0  0  0  0  0  0  0  0  0
  139.0540   77.6030  220.8590 C   0  0  0  0  0  0  0  0  0  0  0  0
  140.0570   77.4820  222.0220 C   0  0  0  0  0  0  0  0  0  0  0  0
  140.3840   76.0140  222.3160 C   0  0  0  0  0  0  0  0  0  0  0  0
  139.1840   75.2390  222.7070 N   0  0  0  0  0  0  0  0  0  0  0  0
  139.6990   73.2230  220.5250 N   0  0  0  0  0  0  0  0  0  0  0  0
  140.8790   73.1800  221.2000 C   0  0  0  0  0  0  0  0  0  0  0  0
  142.0670   73.7730  220.6360 N   0  0  0  0  0  0  0  0  0  0  0  0
  141.9480   74.9410  219.7500 C   0  0  0  0  0  0  0  0  0  0  0  0
  143.2700   75.7120  219.6850 C   0  0  0  0  0  0  0  0  0  0  0  0
  144.3480   74.8400  219.4100 O   0  0  0  0  0  0  0  0  0  0  0  0
  144.5270   73.9590  220.5000 C   0  0  0  0  0  0  0  0  0  0  0  0
  143.3270   73.0170  220.6410 C   0  0  0  0  0  0  0  0  0  0  0  0
  140.9230   72.5880  222.4230 N   0  0  0  0  0  0  0  0  0  0  0  0
  138.8510   70.4420  224.6770 C   0  0  0  0  0  0  0  0  0  0  0  0
  140.7292   67.0771  228.4713 H   0  0  0  0  0  0  0  0  0  0  0  0
  139.1272   66.2375  226.7519 H   0  0  0  0  0  0  0  0  0  0  0  0
  138.2517   67.7833  224.9980 H   0  0  0  0  0  0  0  0  0  0  0  0
  141.4630   69.4640  228.4398 H   0  0  0  0  0  0  0  0  0  0  0  0
  139.8755   72.0017  227.1167 H   0  0  0  0  0  0  0  0  0  0  0  0
  141.6158   71.5343  227.2270 H   0  0  0  0  0  0  0  0  0  0  0  0
  140.9385   72.9956  225.2240 H   0  0  0  0  0  0  0  0  0  0  0  0
  141.8589   71.4619  224.8739 H   0  0  0  0  0  0  0  0  0  0  0  0
  136.7120   71.9430  220.6200 H   0  0  0  0  0  0  0  0  0  0  0  0
  137.5310   72.6690  219.3350 H   0  0  0  0  0  0  0  0  0  0  0  0
  136.9989   74.7683  219.8678 H   0  0  0  0  0  0  0  0  0  0  0  0
  135.5522   73.8403  220.4893 H   0  0  0  0  0  0  0  0  0  0  0  0
  135.8917   75.0023  222.3803 H   0  0  0  0  0  0  0  0  0  0  0  0
  137.2274   73.7674  222.6319 H   0  0  0  0  0  0  0  0  0  0  0  0
  137.5179   76.4997  222.7863 H   0  0  0  0  0  0  0  0  0  0  0  0
  138.6188   75.6325  220.0642 H   0  0  0  0  0  0  0  0  0  0  0  0
  137.1728   76.6802  220.3145 H   0  0  0  0  0  0  0  0  0  0  0  0
  139.6156   77.7256  219.9211 H   0  0  0  0  0  0  0  0  0  0  0  0
  138.4104   78.4713  221.0638 H   0  0  0  0  0  0  0  0  0  0  0  0
  140.9839   78.0101  221.7538 H   0  0  0  0  0  0  0  0  0  0  0  0
  139.6058   77.9270  222.9211 H   0  0  0  0  0  0  0  0  0  0  0  0
  140.8193   75.5608  221.4132 H   0  0  0  0  0  0  0  0  0  0  0  0
  141.0907   75.9885  223.1586 H   0  0  0  0  0  0  0  0  0  0  0  0
  139.3500   74.2400  222.4400 H   0  0  0  0  0  0  0  0  0  0  0  0
  139.1000   75.2740  223.7500 H   0  0  0  0  0  0  0  0  0  0  0  0
  141.6790   74.6008  218.7391 H   0  0  0  0  0  0  0  0  0  0  0  0
  141.1701   75.6084  220.1493 H   0  0  0  0  0  0  0  0  0  0  0  0
  143.2069   76.4691  218.8895 H   0  0  0  0  0  0  0  0  0  0  0  0
  143.4455   76.1926  220.6588 H   0  0  0  0  0  0  0  0  0  0  0  0
  145.4365   73.3624  220.3359 H   0  0  0  0  0  0  0  0  0  0  0  0
  144.6195   74.5525  221.4215 H   0  0  0  0  0  0  0  0  0  0  0  0
  143.3250   72.3071  219.8007 H   0  0  0  0  0  0  0  0  0  0  0  0
  143.4115   72.4788  221.5966 H   0  0  0  0  0  0  0  0  0  0  0  0
  137.9703   70.9526  225.0936 H   0  0  0  0  0  0  0  0  0  0  0  0
  138.5820   69.8635  223.7809 H   0  0  0  0  0  0  0  0  0  0  0  0
  1  2  2  0
  2  3  1  0
  3  4  2  0
  4  5  1  0
  5  6  2  0
  5  7  1  0
  7  8  1  0
  8  9  1  0
  9 10  1  0
 10 11  2  0
 11 12  1  0
 12 13  1  0
 13 14  1  0
 14 15  1  0
 15 16  1  0
 16 17  1  0
 17 18  1  0
 18 19  1  0
 19 20  1  0
 20 21  1  0
 12 22  2  0
 22 23  1  0
 23 24  1  0
 24 25  1  0
 25 26  1  0
 26 27  1  0
 27 28  1  0
 28 29  1  0
 23 30  2  0
  9 31  1  0
  6  1  1  0
 30 10  1  0
 31  4  1  0
 21 16  1  0
 29 24  1  0
  1 32  1  0
  2 33  1  0
  3 34  1  0
  6 35  1  0
  7 36  1  0
  7 37  1  0
  8 38  1  0
  8 39  1  0
 13 40  1  0
 13 41  1  0
 14 42  1  0
 14 43  1  0
 15 44  1  0
 15 45  1  0
 16 46  1  1
 17 47  1  0
 17 48  1  0
 18 49  1  0
 18 50  1  0
 19 51  1  0
 19 52  1  0
 20 53  1  0
 20 54  1  0
 21 55  1  0
 21 56  1  0
 25 57  1  0
 25 58  1  0
 26 59  1  0
 26 60  1  0
 28 61  1  0
 28 62  1  0
 29 63  1  0
 29 64  1  0
 31 65  1  0
 31 66  1  0
M  CHG  2  13   1  21   1
M  END
>  <UniqueID>  (30) 
488

>  <SMILES>  (30) 
c1ccc2c(c1)CCN(c1nc([NH2+]CC[C@@H]3CCCC[NH2+]3)nc(N3CCOCC3)n1)C2

>  <Energy>  (30) 
77.09151523306082

>  <Genealogy>  (30) 
c1ccc2c(c1)CCN(c1nc([NH2+]CCC3CCCC[NH2+]3)nc(N3CCOCC3)n1)C2 (protonated)
c1ccc2c(c1)CCN(c1nc([NH2+]CC[C@@H]3CCCC[NH2+]3)nc(N3CCOCC3)n1)C2 (chirality)
c1ccc2c(c1)CCN(c1nc([NH2+]CC[C@@H]3CCCC[NH2+]3)nc(N3CCOCC3)n1)C2 (3D coordinates assigned)
c1ccc2c(c1)CCN(c1nc([NH2+]CC[C@@H]3CCCC[NH2+]3)nc(N3CCOCC3)n1)C2 (nonaromatic ring conformer: 77.09151523306082 kcal/mol)

>  <smiles>  (30) 
c1ccc2c(c1)CCN(c1nc(NCCC3CCCCN3)nc(N3CCOCC3)n1)C2

>  <score_type>  (30) 
oracle

>  <origin>  (30) 
autodockgpu

>  <m_score__min__energy>  (30) 
-9.6600000000000001

>  <m_primary>  (30) 
energy

>  <meeko>  (30) 
{"free_energy": -6.75, "intermolecular_energy": -8.54, "internal_energy": -1.96, "cluster_size": 1, "cluster_id": 5, "rank_in_cluster": 1}

>  <energy>  (30) 
-7.76

>  <cluster_rmsd>  (30) 
1.92

>  <rmsd>  (30) 
271.66

>  <cluster>  (30) 
1

$$$$
MXRVYNFLTYDQGX-OFNDVBAVNA-P
     RDKit          3D

 66 70  0  0  0  0  0  0  0  0999 V2000
  141.8620   81.6400  222.6860 C   0  0  0  0  0  0  0  0  0  0  0  0
  142.5670   80.8900  223.6310 C   0  0  0  0  0  0  0  0  0  0  0  0
  142.3220   79.5190  223.7600 C   0  0  0  0  0  0  0  0  0  0  0  0
  141.3820   78.8890  222.9290 C   0  0  0  0  0  0  0  0  0  0  0  0
  140.6750   79.6430  221.9790 C   0  0  0  0  0  0  0  0  0  0  0  0
  140.9120   81.0230  221.8670 C   0  0  0  0  0  0  0  0  0  0  0  0
  139.6210   78.9660  221.1550 C   0  0  0  0  0  0  0  0  0  0  0  0
  140.0950   77.5780  220.7050 C   0  0  0  0  0  0  0  0  0  0  0  0
  140.7230   76.8030  221.7940 N   0  0  0  0  0  0  0  0  0  0  0  0
  140.9960   75.4030  221.5780 C   0  0  0  0  0  0  0  0  0  0  0  0
  140.0340   74.4730  221.8130 N   0  0  0  0  0  0  0  0  0  0  0  0
  140.2570   73.1600  221.5400 C   0  0  0  0  0  0  0  0  0  0  0  0
  139.2140   72.1920  221.7450 N   0  0  0  0  0  0  0  0  0  0  0  0
  139.0180   71.8830  223.1760 C   0  0  0  0  0  0  0  0  0  0  0  0
  140.3240   71.4990  223.9120 C   0  0  0  0  0  0  0  0  0  0  0  0
  140.1310   71.0420  225.3780 C   0  0  2  0  0  0  0  0  0  0  0  0
  141.0810   71.8100  226.3170 C   0  0  0  0  0  0  0  0  0  0  0  0
  140.7560   71.4890  227.7890 C   0  0  0  0  0  0  0  0  0  0  0  0
  140.1930   70.0670  227.9760 C   0  0  0  0  0  0  0  0  0  0  0  0
  140.7000   69.1260  226.8780 C   0  0  0  0  0  0  0  0  0  0  0  0
  140.2930   69.5700  225.5260 N   0  0  0  0  0  0  0  0  0  0  0  0
  141.4690   72.7730  221.0620 N   0  0  0  0  0  0  0  0  0  0  0  0
  142.4490   73.6890  220.8390 C   0  0  0  0  0  0  0  0  0  0  0  0
  143.7310   73.2790  220.3200 N   0  0  0  0  0  0  0  0  0  0  0  0
  144.8950   74.1640  220.4710 C   0  0  0  0  0  0  0  0  0  0  0  0
  146.2000   73.3740  220.3420 C   0  0  0  0  0  0  0  0  0  0  0  0
  146.1890   72.5680  219.1810 O   0  0  0  0  0  0  0  0  0  0  0  0
  145.2020   71.5660  219.3170 C   0  0  0  0  0  0  0  0  0  0  0  0
  143.8000   72.1830  219.3430 C   0  0  0  0  0  0  0  0  0  0  0  0
  142.2010   75.0020  221.0940 N   0  0  0  0  0  0  0  0  0  0  0  0
  141.0750   77.4240  223.0850 C   0  0  0  0  0  0  0  0  0  0  0  0
  142.0550   82.7183  222.5864 H   0  0  0  0  0  0  0  0  0  0  0  0
  143.3148   81.3779  224.2735 H   0  0  0  0  0  0  0  0  0  0  0  0
  142.8672   78.9329  224.5145 H   0  0  0  0  0  0  0  0  0  0  0  0
  140.3491   81.6191  221.1336 H   0  0  0  0  0  0  0  0  0  0  0  0
  138.7062   78.8581  221.7562 H   0  0  0  0  0  0  0  0  0  0  0  0
  139.4208   79.5783  220.2634 H   0  0  0  0  0  0  0  0  0  0  0  0
  139.2273   77.0157  220.3295 H   0  0  0  0  0  0  0  0  0  0  0  0
  140.8561   77.7265  219.9248 H   0  0  0  0  0  0  0  0  0  0  0  0
  139.4150   71.3200  221.2020 H   0  0  0  0  0  0  0  0  0  0  0  0
  138.3260   72.6010  221.3680 H   0  0  0  0  0  0  0  0  0  0  0  0
  138.5896   72.7690  223.6675 H   0  0  0  0  0  0  0  0  0  0  0  0
  138.3498   71.0108  223.2288 H   0  0  0  0  0  0  0  0  0  0  0  0
  140.8009   70.6776  223.3572 H   0  0  0  0  0  0  0  0  0  0  0  0
  140.9384   72.4106  223.9496 H   0  0  0  0  0  0  0  0  0  0  0  0
  139.0969   71.2796  225.6680 H   0  0  0  0  0  0  0  0  0  0  0  0
  142.1190   71.5158  226.1024 H   0  0  0  0  0  0  0  0  0  0  0  0
  140.9522   72.8896  226.1501 H   0  0  0  0  0  0  0  0  0  0  0  0
  141.6778   71.5835  228.3818 H   0  0  0  0  0  0  0  0  0  0  0  0
  139.9844   72.1988  228.1218 H   0  0  0  0  0  0  0  0  0  0  0  0
  140.5105   69.6805  228.9557 H   0  0  0  0  0  0  0  0  0  0  0  0
  139.0956   70.1144  227.9173 H   0  0  0  0  0  0  0  0  0  0  0  0
  141.7985   69.0896  226.9227 H   0  0  0  0  0  0  0  0  0  0  0  0
  140.2578   68.1343  227.0540 H   0  0  0  0  0  0  0  0  0  0  0  0
  141.0060   69.2150  224.8460 H   0  0  0  0  0  0  0  0  0  0  0  0
  139.3820   69.1090  225.2930 H   0  0  0  0  0  0  0  0  0  0  0  0
  144.8633   74.9378  219.6898 H   0  0  0  0  0  0  0  0  0  0  0  0
  144.8597   74.6253  221.4690 H   0  0  0  0  0  0  0  0  0  0  0  0
  147.0430   74.0782  220.2836 H   0  0  0  0  0  0  0  0  0  0  0  0
  146.3044   72.7218  221.2216 H   0  0  0  0  0  0  0  0  0  0  0  0
  145.2744   70.8709  218.4675 H   0  0  0  0  0  0  0  0  0  0  0  0
  145.3698   71.0322  220.2641 H   0  0  0  0  0  0  0  0  0  0  0  0
  143.5597   72.5749  218.3437 H   0  0  0  0  0  0  0  0  0  0  0  0
  143.0776   71.4057  219.6329 H   0  0  0  0  0  0  0  0  0  0  0  0
  140.2296   77.3083  223.7792 H   0  0  0  0  0  0  0  0  0  0  0  0
  141.9739   76.9234  223.4742 H   0  0  0  0  0  0  0  0  0  0  0  0
  1  2  2  0
  2  3  1  0
  3  4  2  0
  4  5  1  0
  5  6  2  0
  5  7  1  0
  7  8  1  0
  8  9  1  0
  9 10  1  0
 10 11  2  0
 11 12  1  0
 12 13  1  0
 13 14  1  0
 14 15  1  0
 15 16  1  0
 16 17  1  0
 17 18  1  0
 18 19  1  0
 19 20  1  0
 20 21  1  0
 12 22  2  0
 22 23  1  0
 23 24  1  0
 24 25  1  0
 25 26  1  0
 26 27  1  0
 27 28  1  0
 28 29  1  0
 23 30  2  0
  9 31  1  0
  6  1  1  0
 30 10  1  0
 31  4  1  0
 21 16  1  0
 29 24  1  0
  1 32  1  0
  2 33  1  0
  3 34  1  0
  6 35  1  0
  7 36  1  0
  7 37  1  0
  8 38  1  0
  8 39  1  0
 13 40  1  0
 13 41  1  0
 14 42  1  0
 14 43  1  0
 15 44  1  0
 15 45  1  0
 16 46  1  1
 17 47  1  0
 17 48  1  0
 18 49  1  0
 18 50  1  0
 19 51  1  0
 19 52  1  0
 20 53  1  0
 20 54  1  0
 21 55  1  0
 21 56  1  0
 25 57  1  0
 25 58  1  0
 26 59  1  0
 26 60  1  0
 28 61  1  0
 28 62  1  0
 29 63  1  0
 29 64  1  0
 31 65  1  0
 31 66  1  0
M  CHG  2  13   1  21   1
M  END
>  <UniqueID>  (31) 
488

>  <SMILES>  (31) 
c1ccc2c(c1)CCN(c1nc([NH2+]CC[C@@H]3CCCC[NH2+]3)nc(N3CCOCC3)n1)C2

>  <Energy>  (31) 
77.09151523306082

>  <Genealogy>  (31) 
c1ccc2c(c1)CCN(c1nc([NH2+]CCC3CCCC[NH2+]3)nc(N3CCOCC3)n1)C2 (protonated)
c1ccc2c(c1)CCN(c1nc([NH2+]CC[C@@H]3CCCC[NH2+]3)nc(N3CCOCC3)n1)C2 (chirality)
c1ccc2c(c1)CCN(c1nc([NH2+]CC[C@@H]3CCCC[NH2+]3)nc(N3CCOCC3)n1)C2 (3D coordinates assigned)
c1ccc2c(c1)CCN(c1nc([NH2+]CC[C@@H]3CCCC[NH2+]3)nc(N3CCOCC3)n1)C2 (nonaromatic ring conformer: 77.09151523306082 kcal/mol)

>  <smiles>  (31) 
c1ccc2c(c1)CCN(c1nc(NCCC3CCCCN3)nc(N3CCOCC3)n1)C2

>  <score_type>  (31) 
oracle

>  <origin>  (31) 
autodockgpu

>  <m_score__min__energy>  (31) 
-9.6600000000000001

>  <m_primary>  (31) 
energy

>  <meeko>  (31) 
{"free_energy": -9.01, "intermolecular_energy": -10.8, "internal_energy": -0.02, "cluster_size": 11, "cluster_id": 1, "rank_in_cluster": 7}

>  <energy>  (31) 
-7.72

>  <cluster_rmsd>  (31) 
1.96

>  <rmsd>  (31) 
271.65

>  <cluster>  (31) 
1

$$$$
MXRVYNFLTYDQGX-OFNDVBAVNA-P
     RDKit          3D

 66 70  0  0  0  0  0  0  0  0999 V2000
  141.4480   81.5590  222.4130 C   0  0  0  0  0  0  0  0  0  0  0  0
  142.3770   80.9040  223.2250 C   0  0  0  0  0  0  0  0  0  0  0  0
  142.2710   79.5260  223.4410 C   0  0  0  0  0  0  0  0  0  0  0  0
  141.2410   78.7940  222.8280 C   0  0  0  0  0  0  0  0  0  0  0  0
  140.3090   79.4520  222.0110 C   0  0  0  0  0  0  0  0  0  0  0  0
  140.4100   80.8380  221.8130 C   0  0  0  0  0  0  0  0  0  0  0  0
  139.1730   78.6640  221.4290 C   0  0  0  0  0  0  0  0  0  0  0  0
  139.6590   77.2950  220.9380 C   0  0  0  0  0  0  0  0  0  0  0  0
  140.5440   76.6170  221.9070 N   0  0  0  0  0  0  0  0  0  0  0  0
  140.8790   75.2320  221.6840 C   0  0  0  0  0  0  0  0  0  0  0  0
  139.9740   74.2550  221.9520 N   0  0  0  0  0  0  0  0  0  0  0  0
  140.2540   72.9550  221.6740 C   0  0  0  0  0  0  0  0  0  0  0  0
  139.2680   71.9360  221.9150 N   0  0  0  0  0  0  0  0  0  0  0  0
  139.0760   71.6810  223.3580 C   0  0  0  0  0  0  0  0  0  0  0  0
  140.3370   71.1260  224.0630 C   0  0  0  0  0  0  0  0  0  0  0  0
  140.1280   70.7310  225.5460 C   0  0  2  0  0  0  0  0  0  0  0  0
  141.0660   71.5410  226.4610 C   0  0  0  0  0  0  0  0  0  0  0  0
  140.7260   71.2830  227.9410 C   0  0  0  0  0  0  0  0  0  0  0  0
  140.1640   69.8690  228.1830 C   0  0  0  0  0  0  0  0  0  0  0  0
  140.6850   68.8830  227.1320 C   0  0  0  0  0  0  0  0  0  0  0  0
  140.2910   69.2670  225.7580 N   0  0  0  0  0  0  0  0  0  0  0  0
  141.4680   72.6270  221.1570 N   0  0  0  0  0  0  0  0  0  0  0  0
  142.3920   73.5910  220.9010 C   0  0  0  0  0  0  0  0  0  0  0  0
  143.6750   73.2440  220.3410 N   0  0  0  0  0  0  0  0  0  0  0  0
  144.8040   74.1770  220.4720 C   0  0  0  0  0  0  0  0  0  0  0  0
  146.1380   73.4450  220.2960 C   0  0  0  0  0  0  0  0  0  0  0  0
  146.1290   72.6550  219.1240 O   0  0  0  0  0  0  0  0  0  0  0  0
  145.1900   71.6100  219.2730 C   0  0  0  0  0  0  0  0  0  0  0  0
  143.7640   72.1650  219.3460 C   0  0  0  0  0  0  0  0  0  0  0  0
  142.0870   74.8900  221.1620 N   0  0  0  0  0  0  0  0  0  0  0  0
  141.0870   77.3190  223.0850 C   0  0  0  0  0  0  0  0  0  0  0  0
  141.5327   82.6428  222.2452 H   0  0  0  0  0  0  0  0  0  0  0  0
  143.1929   81.4725  223.6952 H   0  0  0  0  0  0  0  0  0  0  0  0
  142.9955   79.0149  224.0920 H   0  0  0  0  0  0  0  0  0  0  0  0
  139.6717   81.3581  221.1850 H   0  0  0  0  0  0  0  0  0  0  0  0
  138.4021   78.5183  222.2000 H   0  0  0  0  0  0  0  0  0  0  0  0
  138.7581   79.2194  220.5749 H   0  0  0  0  0  0  0  0  0  0  0  0
  138.7823   76.6558  220.7567 H   0  0  0  0  0  0  0  0  0  0  0  0
  140.2415   77.4617  220.0199 H   0  0  0  0  0  0  0  0  0  0  0  0
  139.5260   71.0540  221.4150 H   0  0  0  0  0  0  0  0  0  0  0  0
  138.3620   72.2730  221.5130 H   0  0  0  0  0  0  0  0  0  0  0  0
  138.7941   72.6269  223.8437 H   0  0  0  0  0  0  0  0  0  0  0  0
  138.2925   70.9142  223.4483 H   0  0  0  0  0  0  0  0  0  0  0  0
  140.6713   70.2331  223.5144 H   0  0  0  0  0  0  0  0  0  0  0  0
  141.0782   71.9388  224.0593 H   0  0  0  0  0  0  0  0  0  0  0  0
  139.0903   70.9777  225.8148 H   0  0  0  0  0  0  0  0  0  0  0  0
  142.1068   71.2405  226.2704 H   0  0  0  0  0  0  0  0  0  0  0  0
  140.9368   72.6121  226.2464 H   0  0  0  0  0  0  0  0  0  0  0  0
  141.6411   71.4053  228.5390 H   0  0  0  0  0  0  0  0  0  0  0  0
  139.9494   72.0045  228.2347 H   0  0  0  0  0  0  0  0  0  0  0  0
  140.4717   69.5258  229.1818 H   0  0  0  0  0  0  0  0  0  0  0  0
  139.0672   69.9110  228.1105 H   0  0  0  0  0  0  0  0  0  0  0  0
  141.7831   68.8520  227.1896 H   0  0  0  0  0  0  0  0  0  0  0  0
  140.2437   67.8984  227.3461 H   0  0  0  0  0  0  0  0  0  0  0  0
  141.0120   68.8850  225.1010 H   0  0  0  0  0  0  0  0  0  0  0  0
  139.3840   68.7950  225.5350 H   0  0  0  0  0  0  0  0  0  0  0  0
  144.7172   74.9584  219.7027 H   0  0  0  0  0  0  0  0  0  0  0  0
  144.7771   74.6241  221.4767 H   0  0  0  0  0  0  0  0  0  0  0  0
  146.9484   74.1854  220.2251 H   0  0  0  0  0  0  0  0  0  0  0  0
  146.2944   72.7861  221.1628 H   0  0  0  0  0  0  0  0  0  0  0  0
  145.2683   70.9296  218.4123 H   0  0  0  0  0  0  0  0  0  0  0  0
  145.4069   71.0723  220.2078 H   0  0  0  0  0  0  0  0  0  0  0  0
  143.4795   72.5596  218.3594 H   0  0  0  0  0  0  0  0  0  0  0  0
  143.0841   71.3532  219.6438 H   0  0  0  0  0  0  0  0  0  0  0  0
  140.4027   77.1740  223.9339 H   0  0  0  0  0  0  0  0  0  0  0  0
  142.0808   76.9025  223.3063 H   0  0  0  0  0  0  0  0  0  0  0  0
  1  2  2  0
  2  3  1  0
  3  4  2  0
  4  5  1  0
  5  6  2  0
  5  7  1  0
  7  8  1  0
  8  9  1  0
  9 10  1  0
 10 11  2  0
 11 12  1  0
 12 13  1  0
 13 14  1  0
 14 15  1  0
 15 16  1  0
 16 17  1  0
 17 18  1  0
 18 19  1  0
 19 20  1  0
 20 21  1  0
 12 22  2  0
 22 23  1  0
 23 24  1  0
 24 25  1  0
 25 26  1  0
 26 27  1  0
 27 28  1  0
 28 29  1  0
 23 30  2  0
  9 31  1  0
  6  1  1  0
 30 10  1  0
 31  4  1  0
 21 16  1  0
 29 24  1  0
  1 32  1  0
  2 33  1  0
  3 34  1  0
  6 35  1  0
  7 36  1  0
  7 37  1  0
  8 38  1  0
  8 39  1  0
 13 40  1  0
 13 41  1  0
 14 42  1  0
 14 43  1  0
 15 44  1  0
 15 45  1  0
 16 46  1  1
 17 47  1  0
 17 48  1  0
 18 49  1  0
 18 50  1  0
 19 51  1  0
 19 52  1  0
 20 53  1  0
 20 54  1  0
 21 55  1  0
 21 56  1  0
 25 57  1  0
 25 58  1  0
 26 59  1  0
 26 60  1  0
 28 61  1  0
 28 62  1  0
 29 63  1  0
 29 64  1  0
 31 65  1  0
 31 66  1  0
M  CHG  2  13   1  21   1
M  END
>  <UniqueID>  (32) 
488

>  <SMILES>  (32) 
c1ccc2c(c1)CCN(c1nc([NH2+]CC[C@@H]3CCCC[NH2+]3)nc(N3CCOCC3)n1)C2

>  <Energy>  (32) 
77.09151523306082

>  <Genealogy>  (32) 
c1ccc2c(c1)CCN(c1nc([NH2+]CCC3CCCC[NH2+]3)nc(N3CCOCC3)n1)C2 (protonated)
c1ccc2c(c1)CCN(c1nc([NH2+]CC[C@@H]3CCCC[NH2+]3)nc(N3CCOCC3)n1)C2 (chirality)
c1ccc2c(c1)CCN(c1nc([NH2+]CC[C@@H]3CCCC[NH2+]3)nc(N3CCOCC3)n1)C2 (3D coordinates assigned)
c1ccc2c(c1)CCN(c1nc([NH2+]CC[C@@H]3CCCC[NH2+]3)nc(N3CCOCC3)n1)C2 (nonaromatic ring conformer: 77.09151523306082 kcal/mol)

>  <smiles>  (32) 
c1ccc2c(c1)CCN(c1nc(NCCC3CCCCN3)nc(N3CCOCC3)n1)C2

>  <score_type>  (32) 
oracle

>  <origin>  (32) 
autodockgpu

>  <m_score__min__energy>  (32) 
-9.6600000000000001

>  <m_primary>  (32) 
energy

>  <meeko>  (32) 
{"free_energy": -9.03, "intermolecular_energy": -10.82, "internal_energy": -0.02, "cluster_size": 11, "cluster_id": 1, "rank_in_cluster": 6}

>  <energy>  (32) 
-8.7

>  <cluster_rmsd>  (32) 
0.0

>  <rmsd>  (32) 
271.03

>  <cluster>  (32) 
2

$$$$
MXRVYNFLTYDQGX-OFNDVBAVNA-P
     RDKit          3D

 66 70  0  0  0  0  0  0  0  0999 V2000
  141.8300   81.6990  222.5460 C   0  0  0  0  0  0  0  0  0  0  0  0
  142.0710   80.9860  223.7230 C   0  0  0  0  0  0  0  0  0  0  0  0
  141.7110   79.6380  223.8100 C   0  0  0  0  0  0  0  0  0  0  0  0
  141.1250   78.9910  222.7100 C   0  0  0  0  0  0  0  0  0  0  0  0
  140.8850   79.7080  221.5280 C   0  0  0  0  0  0  0  0  0  0  0  0
  141.2310   81.0660  221.4520 C   0  0  0  0  0  0  0  0  0  0  0  0
  140.1880   79.0190  220.3920 C   0  0  0  0  0  0  0  0  0  0  0  0
  140.7120   77.5870  220.2250 C   0  0  0  0  0  0  0  0  0  0  0  0
  140.8250   76.8620  221.5060 N   0  0  0  0  0  0  0  0  0  0  0  0
  141.0720   75.4410  221.4770 C   0  0  0  0  0  0  0  0  0  0  0  0
  140.1520   74.5740  221.9740 N   0  0  0  0  0  0  0  0  0  0  0  0
  140.3430   73.2320  221.8810 C   0  0  0  0  0  0  0  0  0  0  0  0
  139.3380   72.3240  222.3650 N   0  0  0  0  0  0  0  0  0  0  0  0
  138.2360   72.1500  221.3960 C   0  0  0  0  0  0  0  0  0  0  0  0
  137.6970   73.4820  220.8230 C   0  0  0  0  0  0  0  0  0  0  0  0
  136.9540   74.3740  221.8480 C   0  0  2  0  0  0  0  0  0  0  0  0
  135.6190   74.8760  221.2650 C   0  0  0  0  0  0  0  0  0  0  0  0
  134.8000   75.6030  222.3480 C   0  0  0  0  0  0  0  0  0  0  0  0
  135.6880   76.2950  223.3990 C   0  0  0  0  0  0  0  0  0  0  0  0
  137.0460   76.6800  222.8040 C   0  0  0  0  0  0  0  0  0  0  0  0
  137.8010   75.5020  222.3190 N   0  0  0  0  0  0  0  0  0  0  0  0
  141.4850   72.7550  221.3180 N   0  0  0  0  0  0  0  0  0  0  0  0
  142.4250   73.6100  220.8330 C   0  0  0  0  0  0  0  0  0  0  0  0
  143.6310   73.1040  220.2250 N   0  0  0  0  0  0  0  0  0  0  0  0
  144.8820   73.8670  220.3410 C   0  0  0  0  0  0  0  0  0  0  0  0
  146.0950   72.9630  220.1070 C   0  0  0  0  0  0  0  0  0  0  0  0
  145.9430   72.2130  218.9180 O   0  0  0  0  0  0  0  0  0  0  0  0
  144.8720   71.3050  219.0730 C   0  0  0  0  0  0  0  0  0  0  0  0
  143.5400   72.0500  219.2040 C   0  0  0  0  0  0  0  0  0  0  0  0
  142.2070   74.9500  220.9110 N   0  0  0  0  0  0  0  0  0  0  0  0
  140.6920   77.5520  222.8030 C   0  0  0  0  0  0  0  0  0  0  0  0
  142.1119   82.7602  222.4795 H   0  0  0  0  0  0  0  0  0  0  0  0
  142.5441   81.4854  224.5814 H   0  0  0  0  0  0  0  0  0  0  0  0
  141.8873   79.0825  224.7429 H   0  0  0  0  0  0  0  0  0  0  0  0
  141.0309   81.6332  220.5310 H   0  0  0  0  0  0  0  0  0  0  0  0
  139.1077   78.9869  220.5970 H   0  0  0  0  0  0  0  0  0  0  0  0
  140.3834   79.5781  219.4651 H   0  0  0  0  0  0  0  0  0  0  0  0
  140.0221   77.0353  219.5695 H   0  0  0  0  0  0  0  0  0  0  0  0
  141.7219   77.6539  219.7941 H   0  0  0  0  0  0  0  0  0  0  0  0
  138.9690   72.6490  223.2890 H   0  0  0  0  0  0  0  0  0  0  0  0
  139.7970   71.3960  222.5170 H   0  0  0  0  0  0  0  0  0  0  0  0
  138.6018   71.5351  220.5605 H   0  0  0  0  0  0  0  0  0  0  0  0
  137.4051   71.6722  221.9358 H   0  0  0  0  0  0  0  0  0  0  0  0
  138.5487   74.0535  220.4254 H   0  0  0  0  0  0  0  0  0  0  0  0
  136.9590   73.2129  220.0530 H   0  0  0  0  0  0  0  0  0  0  0  0
  136.7312   73.7548  222.7294 H   0  0  0  0  0  0  0  0  0  0  0  0
  135.8235   75.5712  220.4374 H   0  0  0  0  0  0  0  0  0  0  0  0
  135.0421   74.0134  220.9001 H   0  0  0  0  0  0  0  0  0  0  0  0
  134.1712   76.3638  221.8625 H   0  0  0  0  0  0  0  0  0  0  0  0
  134.1940   74.8477  222.8699 H   0  0  0  0  0  0  0  0  0  0  0  0
  135.1811   77.2037  223.7558 H   0  0  0  0  0  0  0  0  0  0  0  0
  135.8561   75.5951  224.2308 H   0  0  0  0  0  0  0  0  0  0  0  0
  136.8809   77.3663  221.9604 H   0  0  0  0  0  0  0  0  0  0  0  0
  137.6390   77.1561  223.5988 H   0  0  0  0  0  0  0  0  0  0  0  0
  138.4340   75.8250  221.5490 H   0  0  0  0  0  0  0  0  0  0  0  0
  138.4080   75.1610  223.1010 H   0  0  0  0  0  0  0  0  0  0  0  0
  144.8834   74.6730  219.5924 H   0  0  0  0  0  0  0  0  0  0  0  0
  144.9459   74.2863  221.3559 H   0  0  0  0  0  0  0  0  0  0  0  0
  146.9983   73.5857  220.0271 H   0  0  0  0  0  0  0  0  0  0  0  0
  146.1827   72.2661  220.9535 H   0  0  0  0  0  0  0  0  0  0  0  0
  144.8302   70.6437  218.1949 H   0  0  0  0  0  0  0  0  0  0  0  0
  145.0382   70.7176  219.9880 H   0  0  0  0  0  0  0  0  0  0  0  0
  143.2850   72.5062  218.2361 H   0  0  0  0  0  0  0  0  0  0  0  0
  142.7623   71.3327  219.5052 H   0  0  0  0  0  0  0  0  0  0  0  0
  139.6396   77.5153  223.1210 H   0  0  0  0  0  0  0  0  0  0  0  0
  141.3397   77.0434  223.5323 H   0  0  0  0  0  0  0  0  0  0  0  0
  1  2  2  0
  2  3  1  0
  3  4  2  0
  4  5  1  0
  5  6  2  0
  5  7  1  0
  7  8  1  0
  8  9  1  0
  9 10  1  0
 10 11  2  0
 11 12  1  0
 12 13  1  0
 13 14  1  0
 14 15  1  0
 15 16  1  0
 16 17  1  0
 17 18  1  0
 18 19  1  0
 19 20  1  0
 20 21  1  0
 12 22  2  0
 22 23  1  0
 23 24  1  0
 24 25  1  0
 25 26  1  0
 26 27  1  0
 27 28  1  0
 28 29  1  0
 23 30  2  0
  9 31  1  0
  6  1  1  0
 30 10  1  0
 31  4  1  0
 21 16  1  0
 29 24  1  0
  1 32  1  0
  2 33  1  0
  3 34  1  0
  6 35  1  0
  7 36  1  0
  7 37  1  0
  8 38  1  0
  8 39  1  0
 13 40  1  0
 13 41  1  0
 14 42  1  0
 14 43  1  0
 15 44  1  0
 15 45  1  0
 16 46  1  1
 17 47  1  0
 17 48  1  0
 18 49  1  0
 18 50  1  0
 19 51  1  0
 19 52  1  0
 20 53  1  0
 20 54  1  0
 21 55  1  0
 21 56  1  0
 25 57  1  0
 25 58  1  0
 26 59  1  0
 26 60  1  0
 28 61  1  0
 28 62  1  0
 29 63  1  0
 29 64  1  0
 31 65  1  0
 31 66  1  0
M  CHG  2  13   1  21   1
M  END
>  <UniqueID>  (33) 
488

>  <SMILES>  (33) 
c1ccc2c(c1)CCN(c1nc([NH2+]CC[C@@H]3CCCC[NH2+]3)nc(N3CCOCC3)n1)C2

>  <Energy>  (33) 
77.09151523306082

>  <Genealogy>  (33) 
c1ccc2c(c1)CCN(c1nc([NH2+]CCC3CCCC[NH2+]3)nc(N3CCOCC3)n1)C2 (protonated)
c1ccc2c(c1)CCN(c1nc([NH2+]CC[C@@H]3CCCC[NH2+]3)nc(N3CCOCC3)n1)C2 (chirality)
c1ccc2c(c1)CCN(c1nc([NH2+]CC[C@@H]3CCCC[NH2+]3)nc(N3CCOCC3)n1)C2 (3D coordinates assigned)
c1ccc2c(c1)CCN(c1nc([NH2+]CC[C@@H]3CCCC[NH2+]3)nc(N3CCOCC3)n1)C2 (nonaromatic ring conformer: 77.09151523306082 kcal/mol)

>  <smiles>  (33) 
c1ccc2c(c1)CCN(c1nc(NCCC3CCCCN3)nc(N3CCOCC3)n1)C2

>  <score_type>  (33) 
oracle

>  <origin>  (33) 
autodockgpu

>  <m_score__min__energy>  (33) 
-9.6600000000000001

>  <m_primary>  (33) 
energy

>  <meeko>  (33) 
{"free_energy": -7.77, "intermolecular_energy": -9.56, "internal_energy": -1.22, "cluster_size": 4, "cluster_id": 4, "rank_in_cluster": 2}

>  <energy>  (33) 
-8.0

>  <cluster_rmsd>  (33) 
0.0

>  <rmsd>  (33) 
271.86

>  <cluster>  (33) 
3

$$$$
MXRVYNFLTYDQGX-OFNDVBAVNA-P
     RDKit          3D

 66 70  0  0  0  0  0  0  0  0999 V2000
  141.8280   81.9590  222.5270 C   0  0  0  0  0  0  0  0  0  0  0  0
  142.2440   81.2430  223.6520 C   0  0  0  0  0  0  0  0  0  0  0  0
  141.9150   79.8900  223.7830 C   0  0  0  0  0  0  0  0  0  0  0  0
  141.1830   79.2420  222.7750 C   0  0  0  0  0  0  0  0  0  0  0  0
  140.7660   79.9610  221.6440 C   0  0  0  0  0  0  0  0  0  0  0  0
  141.0840   81.3240  221.5270 C   0  0  0  0  0  0  0  0  0  0  0  0
  139.9200   79.2700  220.6170 C   0  0  0  0  0  0  0  0  0  0  0  0
  140.4290   77.8440  220.3670 C   0  0  0  0  0  0  0  0  0  0  0  0
  140.7340   77.1150  221.6140 N   0  0  0  0  0  0  0  0  0  0  0  0
  140.9900   75.6970  221.5400 C   0  0  0  0  0  0  0  0  0  0  0  0
  140.0620   74.8090  221.9810 N   0  0  0  0  0  0  0  0  0  0  0  0
  140.2620   73.4720  221.8450 C   0  0  0  0  0  0  0  0  0  0  0  0
  139.2490   72.5430  222.2690 N   0  0  0  0  0  0  0  0  0  0  0  0
  138.0290   72.6390  221.4410 C   0  0  0  0  0  0  0  0  0  0  0  0
  136.8270   73.2740  222.1790 C   0  0  0  0  0  0  0  0  0  0  0  0
  136.6270   74.7860  221.9080 C   0  0  2  0  0  0  0  0  0  0  0  0
  136.9950   75.1310  220.4520 C   0  0  0  0  0  0  0  0  0  0  0  0
  136.6190   76.5910  220.1350 C   0  0  0  0  0  0  0  0  0  0  0  0
  136.7030   77.5080  221.3710 C   0  0  0  0  0  0  0  0  0  0  0  0
  137.7290   76.9790  222.3790 C   0  0  0  0  0  0  0  0  0  0  0  0
  137.3830   75.6270  222.8750 N   0  0  0  0  0  0  0  0  0  0  0  0
  141.4210   73.0210  221.2970 N   0  0  0  0  0  0  0  0  0  0  0  0
  142.3690   73.8970  220.8690 C   0  0  0  0  0  0  0  0  0  0  0  0
  143.5940   73.4180  220.2750 N   0  0  0  0  0  0  0  0  0  0  0  0
  144.8350   74.1870  220.4450 C   0  0  0  0  0  0  0  0  0  0  0  0
  146.0620   73.3000  220.2140 C   0  0  0  0  0  0  0  0  0  0  0  0
  145.9440   72.5840  219.0000 O   0  0  0  0  0  0  0  0  0  0  0  0
  144.8770   71.6640  219.1020 C   0  0  0  0  0  0  0  0  0  0  0  0
  143.5370   72.3940  219.2220 C   0  0  0  0  0  0  0  0  0  0  0  0
  142.1420   75.2320  220.9890 N   0  0  0  0  0  0  0  0  0  0  0  0
  140.7830   77.7980  222.9210 C   0  0  0  0  0  0  0  0  0  0  0  0
  142.0858   83.0237  222.4273 H   0  0  0  0  0  0  0  0  0  0  0  0
  142.8311   81.7440  224.4358 H   0  0  0  0  0  0  0  0  0  0  0  0
  142.2302   79.3325  224.6773 H   0  0  0  0  0  0  0  0  0  0  0  0
  140.7475   81.8930  220.6478 H   0  0  0  0  0  0  0  0  0  0  0  0
  138.8811   79.2251  220.9756 H   0  0  0  0  0  0  0  0  0  0  0  0
  139.9739   79.8355  219.6750 H   0  0  0  0  0  0  0  0  0  0  0  0
  139.6570   77.2876  219.8153 H   0  0  0  0  0  0  0  0  0  0  0  0
  141.3648   77.9236  219.7944 H   0  0  0  0  0  0  0  0  0  0  0  0
  139.0220   72.6880  223.2800 H   0  0  0  0  0  0  0  0  0  0  0  0
  139.6430   71.5780  222.1690 H   0  0  0  0  0  0  0  0  0  0  0  0
  138.2567   73.2516  220.5562 H   0  0  0  0  0  0  0  0  0  0  0  0
  137.7381   71.6119  221.1756 H   0  0  0  0  0  0  0  0  0  0  0  0
  135.9144   72.7460  221.8654 H   0  0  0  0  0  0  0  0  0  0  0  0
  137.0355   73.1759  223.2546 H   0  0  0  0  0  0  0  0  0  0  0  0
  135.5608   75.0136  222.0541 H   0  0  0  0  0  0  0  0  0  0  0  0
  138.0775   74.9964  220.3100 H   0  0  0  0  0  0  0  0  0  0  0  0
  136.4395   74.4644  219.7759 H   0  0  0  0  0  0  0  0  0  0  0  0
  137.3069   76.9727  219.3661 H   0  0  0  0  0  0  0  0  0  0  0  0
  135.5757   76.5975  219.7864 H   0  0  0  0  0  0  0  0  0  0  0  0
  137.0010   78.5172  221.0505 H   0  0  0  0  0  0  0  0  0  0  0  0
  135.7161   77.5333  221.8562 H   0  0  0  0  0  0  0  0  0  0  0  0
  138.7142   76.9357  221.8916 H   0  0  0  0  0  0  0  0  0  0  0  0
  137.7374   77.6622  223.2411 H   0  0  0  0  0  0  0  0  0  0  0  0
  138.2740   75.1510  223.1480 H   0  0  0  0  0  0  0  0  0  0  0  0
  136.8080   75.7370  223.7430 H   0  0  0  0  0  0  0  0  0  0  0  0
  144.8477   75.0153  219.7213 H   0  0  0  0  0  0  0  0  0  0  0  0
  144.8702   74.5756  221.4735 H   0  0  0  0  0  0  0  0  0  0  0  0
  146.9613   73.9322  220.1737 H   0  0  0  0  0  0  0  0  0  0  0  0
  146.1366   72.5796  221.0419 H   0  0  0  0  0  0  0  0  0  0  0  0
  144.8620   71.0286  218.2042 H   0  0  0  0  0  0  0  0  0  0  0  0
  145.0258   71.0513  220.0034 H   0  0  0  0  0  0  0  0  0  0  0  0
  143.3017   72.8765  218.2619 H   0  0  0  0  0  0  0  0  0  0  0  0
  142.7584   71.6621  219.4831 H   0  0  0  0  0  0  0  0  0  0  0  0
  139.7882   77.7482  223.3877 H   0  0  0  0  0  0  0  0  0  0  0  0
  141.5347   77.2934  223.5458 H   0  0  0  0  0  0  0  0  0  0  0  0
  1  2  2  0
  2  3  1  0
  3  4  2  0
  4  5  1  0
  5  6  2  0
  5  7  1  0
  7  8  1  0
  8  9  1  0
  9 10  1  0
 10 11  2  0
 11 12  1  0
 12 13  1  0
 13 14  1  0
 14 15  1  0
 15 16  1  0
 16 17  1  0
 17 18  1  0
 18 19  1  0
 19 20  1  0
 20 21  1  0
 12 22  2  0
 22 23  1  0
 23 24  1  0
 24 25  1  0
 25 26  1  0
 26 27  1  0
 27 28  1  0
 28 29  1  0
 23 30  2  0
  9 31  1  0
  6  1  1  0
 30 10  1  0
 31  4  1  0
 21 16  1  0
 29 24  1  0
  1 32  1  0
  2 33  1  0
  3 34  1  0
  6 35  1  0
  7 36  1  0
  7 37  1  0
  8 38  1  0
  8 39  1  0
 13 40  1  0
 13 41  1  0
 14 42  1  0
 14 43  1  0
 15 44  1  0
 15 45  1  0
 16 46  1  6
 17 47  1  0
 17 48  1  0
 18 49  1  0
 18 50  1  0
 19 51  1  0
 19 52  1  0
 20 53  1  0
 20 54  1  0
 21 55  1  0
 21 56  1  0
 25 57  1  0
 25 58  1  0
 26 59  1  0
 26 60  1  0
 28 61  1  0
 28 62  1  0
 29 63  1  0
 29 64  1  0
 31 65  1  0
 31 66  1  0
M  CHG  2  13   1  21   1
M  END
>  <UniqueID>  (34) 
488

>  <SMILES>  (34) 
c1ccc2c(c1)CCN(c1nc([NH2+]CC[C@@H]3CCCC[NH2+]3)nc(N3CCOCC3)n1)C2

>  <Energy>  (34) 
77.09151523306082

>  <Genealogy>  (34) 
c1ccc2c(c1)CCN(c1nc([NH2+]CCC3CCCC[NH2+]3)nc(N3CCOCC3)n1)C2 (protonated)
c1ccc2c(c1)CCN(c1nc([NH2+]CC[C@@H]3CCCC[NH2+]3)nc(N3CCOCC3)n1)C2 (chirality)
c1ccc2c(c1)CCN(c1nc([NH2+]CC[C@@H]3CCCC[NH2+]3)nc(N3CCOCC3)n1)C2 (3D coordinates assigned)
c1ccc2c(c1)CCN(c1nc([NH2+]CC[C@@H]3CCCC[NH2+]3)nc(N3CCOCC3)n1)C2 (nonaromatic ring conformer: 77.09151523306082 kcal/mol)

>  <smiles>  (34) 
c1ccc2c(c1)CCN(c1nc(NCCC3CCCCN3)nc(N3CCOCC3)n1)C2

>  <score_type>  (34) 
oracle

>  <origin>  (34) 
autodockgpu

>  <m_score__min__energy>  (34) 
-9.6600000000000001

>  <m_primary>  (34) 
energy

>  <meeko>  (34) 
{"free_energy": -7.66, "intermolecular_energy": -9.45, "internal_energy": -1.19, "cluster_size": 4, "cluster_id": 4, "rank_in_cluster": 4}

>  <energy>  (34) 
-7.82

>  <cluster_rmsd>  (34) 
0.0

>  <rmsd>  (34) 
271.62

>  <cluster>  (34) 
4

$$$$
MXRVYNFLTYDQGX-OFNDVBAVNA-P
     RDKit          3D

 66 70  0  0  0  0  0  0  0  0999 V2000
  141.8180   81.8880  222.5940 C   0  0  0  0  0  0  0  0  0  0  0  0
  141.8780   81.1850  223.8000 C   0  0  0  0  0  0  0  0  0  0  0  0
  141.4930   79.8410  223.8470 C   0  0  0  0  0  0  0  0  0  0  0  0
  141.0650   79.1890  222.6790 C   0  0  0  0  0  0  0  0  0  0  0  0
  141.0070   79.8950  221.4680 C   0  0  0  0  0  0  0  0  0  0  0  0
  141.3760   81.2490  221.4310 C   0  0  0  0  0  0  0  0  0  0  0  0
  140.4730   79.2010  220.2500 C   0  0  0  0  0  0  0  0  0  0  0  0
  140.9990   77.7620  220.1740 C   0  0  0  0  0  0  0  0  0  0  0  0
  140.9170   77.0500  221.4640 N   0  0  0  0  0  0  0  0  0  0  0  0
  141.1500   75.6260  221.4840 C   0  0  0  0  0  0  0  0  0  0  0  0
  140.2280   74.7880  222.0260 N   0  0  0  0  0  0  0  0  0  0  0  0
  140.4040   73.4410  221.9800 C   0  0  0  0  0  0  0  0  0  0  0  0
  139.3960   72.5630  222.5110 N   0  0  0  0  0  0  0  0  0  0  0  0
  139.9400   71.2280  222.8350 C   0  0  0  0  0  0  0  0  0  0  0  0
  139.0140   70.3850  223.7440 C   0  0  0  0  0  0  0  0  0  0  0  0
  139.4240   70.3560  225.2370 C   0  0  2  0  0  0  0  0  0  0  0  0
  140.6820   71.2130  225.4720 C   0  0  0  0  0  0  0  0  0  0  0  0
  140.9750   71.3330  226.9800 C   0  0  0  0  0  0  0  0  0  0  0  0
  140.5170   70.0960  227.7740 C   0  0  0  0  0  0  0  0  0  0  0  0
  140.5240   68.8420  226.8920 C   0  0  0  0  0  0  0  0  0  0  0  0
  139.6110   68.9660  225.7340 N   0  0  0  0  0  0  0  0  0  0  0  0
  141.5330   72.9330  221.4200 N   0  0  0  0  0  0  0  0  0  0  0  0
  142.4750   73.7590  220.8910 C   0  0  0  0  0  0  0  0  0  0  0  0
  143.6660   73.2180  220.2850 N   0  0  0  0  0  0  0  0  0  0  0  0
  144.9460   73.9260  220.4350 C   0  0  0  0  0  0  0  0  0  0  0  0
  146.1250   72.9770  220.1940 C   0  0  0  0  0  0  0  0  0  0  0  0
  145.9570   72.2630  218.9860 O   0  0  0  0  0  0  0  0  0  0  0  0
  144.8480   71.3970  219.1050 C   0  0  0  0  0  0  0  0  0  0  0  0
  143.5460   72.1930  219.2380 C   0  0  0  0  0  0  0  0  0  0  0  0
  142.2720   75.1030  220.9220 N   0  0  0  0  0  0  0  0  0  0  0  0
  140.6070   77.7560  222.7220 C   0  0  0  0  0  0  0  0  0  0  0  0
  142.1188   82.9455  222.5592 H   0  0  0  0  0  0  0  0  0  0  0  0
  142.2282   81.6887  224.7130 H   0  0  0  0  0  0  0  0  0  0  0  0
  141.5255   79.2937  224.8006 H   0  0  0  0  0  0  0  0  0  0  0  0
  141.3174   81.8084  220.4857 H   0  0  0  0  0  0  0  0  0  0  0  0
  139.3742   79.1822  220.2973 H   0  0  0  0  0  0  0  0  0  0  0  0
  140.8062   79.7479  219.3557 H   0  0  0  0  0  0  0  0  0  0  0  0
  140.4049   77.2103  219.4306 H   0  0  0  0  0  0  0  0  0  0  0  0
  142.0613   77.8140  219.8934 H   0  0  0  0  0  0  0  0  0  0  0  0
  138.5950   72.4840  221.8430 H   0  0  0  0  0  0  0  0  0  0  0  0
  139.0320   72.9960  223.3910 H   0  0  0  0  0  0  0  0  0  0  0  0
  140.0975   70.6792  221.8948 H   0  0  0  0  0  0  0  0  0  0  0  0
  140.8770   71.3875  223.3887 H   0  0  0  0  0  0  0  0  0  0  0  0
  137.9974   70.7995  223.6759 H   0  0  0  0  0  0  0  0  0  0  0  0
  139.0841   69.3484  223.3826 H   0  0  0  0  0  0  0  0  0  0  0  0
  138.5989   70.7931  225.8184 H   0  0  0  0  0  0  0  0  0  0  0  0
  141.5408   70.7411  224.9722 H   0  0  0  0  0  0  0  0  0  0  0  0
  140.5113   72.2186  225.0601 H   0  0  0  0  0  0  0  0  0  0  0  0
  142.0589   71.4591  227.1191 H   0  0  0  0  0  0  0  0  0  0  0  0
  140.4130   72.1988  227.3600 H   0  0  0  0  0  0  0  0  0  0  0  0
  141.1983   69.9417  228.6237 H   0  0  0  0  0  0  0  0  0  0  0  0
  139.4902   70.2685  228.1290 H   0  0  0  0  0  0  0  0  0  0  0  0
  141.5461   68.6761  226.5207 H   0  0  0  0  0  0  0  0  0  0  0  0
  140.1778   67.9969  227.5051 H   0  0  0  0  0  0  0  0  0  0  0  0
  139.9840   68.3560  224.9690 H   0  0  0  0  0  0  0  0  0  0  0  0
  138.6780   68.5820  226.0130 H   0  0  0  0  0  0  0  0  0  0  0  0
  144.9905   74.7487  219.7061 H   0  0  0  0  0  0  0  0  0  0  0  0
  145.0135   74.3185  221.4604 H   0  0  0  0  0  0  0  0  0  0  0  0
  147.0543   73.5631  220.1400 H   0  0  0  0  0  0  0  0  0  0  0  0
  146.1733   72.2574  221.0246 H   0  0  0  0  0  0  0  0  0  0  0  0
  144.7909   70.7596  218.2103 H   0  0  0  0  0  0  0  0  0  0  0  0
  144.9777   70.7811  220.0072 H   0  0  0  0  0  0  0  0  0  0  0  0
  143.3225   72.6820  218.2784 H   0  0  0  0  0  0  0  0  0  0  0  0
  142.7361   71.5012  219.5127 H   0  0  0  0  0  0  0  0  0  0  0  0
  139.5195   77.7333  222.8857 H   0  0  0  0  0  0  0  0  0  0  0  0
  141.1376   77.2491  223.5414 H   0  0  0  0  0  0  0  0  0  0  0  0
  1  2  2  0
  2  3  1  0
  3  4  2  0
  4  5  1  0
  5  6  2  0
  5  7  1  0
  7  8  1  0
  8  9  1  0
  9 10  1  0
 10 11  2  0
 11 12  1  0
 12 13  1  0
 13 14  1  0
 14 15  1  0
 15 16  1  0
 16 17  1  0
 17 18  1  0
 18 19  1  0
 19 20  1  0
 20 21  1  0
 12 22  2  0
 22 23  1  0
 23 24  1  0
 24 25  1  0
 25 26  1  0
 26 27  1  0
 27 28  1  0
 28 29  1  0
 23 30  2  0
  9 31  1  0
  6  1  1  0
 30 10  1  0
 31  4  1  0
 21 16  1  0
 29 24  1  0
  1 32  1  0
  2 33  1  0
  3 34  1  0
  6 35  1  0
  7 36  1  0
  7 37  1  0
  8 38  1  0
  8 39  1  0
 13 40  1  0
 13 41  1  0
 14 42  1  0
 14 43  1  0
 15 44  1  0
 15 45  1  0
 16 46  1  1
 17 47  1  0
 17 48  1  0
 18 49  1  0
 18 50  1  0
 19 51  1  0
 19 52  1  0
 20 53  1  0
 20 54  1  0
 21 55  1  0
 21 56  1  0
 25 57  1  0
 25 58  1  0
 26 59  1  0
 26 60  1  0
 28 61  1  0
 28 62  1  0
 29 63  1  0
 29 64  1  0
 31 65  1  0
 31 66  1  0
M  CHG  2  13   1  21   1
M  END
>  <UniqueID>  (35) 
488

>  <SMILES>  (35) 
c1ccc2c(c1)CCN(c1nc([NH2+]CC[C@@H]3CCCC[NH2+]3)nc(N3CCOCC3)n1)C2

>  <Energy>  (35) 
77.09151523306082

>  <Genealogy>  (35) 
c1ccc2c(c1)CCN(c1nc([NH2+]CCC3CCCC[NH2+]3)nc(N3CCOCC3)n1)C2 (protonated)
c1ccc2c(c1)CCN(c1nc([NH2+]CC[C@@H]3CCCC[NH2+]3)nc(N3CCOCC3)n1)C2 (chirality)
c1ccc2c(c1)CCN(c1nc([NH2+]CC[C@@H]3CCCC[NH2+]3)nc(N3CCOCC3)n1)C2 (3D coordinates assigned)
c1ccc2c(c1)CCN(c1nc([NH2+]CC[C@@H]3CCCC[NH2+]3)nc(N3CCOCC3)n1)C2 (nonaromatic ring conformer: 77.09151523306082 kcal/mol)

>  <smiles>  (35) 
c1ccc2c(c1)CCN(c1nc(NCCC3CCCCN3)nc(N3CCOCC3)n1)C2

>  <score_type>  (35) 
oracle

>  <origin>  (35) 
autodockgpu

>  <m_score__min__energy>  (35) 
-9.6600000000000001

>  <m_primary>  (35) 
energy

>  <meeko>  (35) 
{"free_energy": -9.36, "intermolecular_energy": -11.15, "internal_energy": 0.01, "cluster_size": 11, "cluster_id": 1, "rank_in_cluster": 4}

>  <energy>  (35) 
-7.77

>  <cluster_rmsd>  (35) 
0.11

>  <rmsd>  (35) 
271.63

>  <cluster>  (35) 
4

$$$$
MXRVYNFLTYDQGX-OFNDVBAVNA-P
     RDKit          3D

 66 70  0  0  0  0  0  0  0  0999 V2000
  142.1960   81.6250  222.6220 C   0  0  0  0  0  0  0  0  0  0  0  0
  142.5730   80.8800  223.7430 C   0  0  0  0  0  0  0  0  0  0  0  0
  142.1880   79.5410  223.8550 C   0  0  0  0  0  0  0  0  0  0  0  0
  141.4400   78.9340  222.8330 C   0  0  0  0  0  0  0  0  0  0  0  0
  141.0630   79.6820  221.7070 C   0  0  0  0  0  0  0  0  0  0  0  0
  141.4360   81.0320  221.6090 C   0  0  0  0  0  0  0  0  0  0  0  0
  140.1990   79.0370  220.6650 C   0  0  0  0  0  0  0  0  0  0  0  0
  140.6520   77.5950  220.4030 C   0  0  0  0  0  0  0  0  0  0  0  0
  140.9160   76.8400  221.6440 N   0  0  0  0  0  0  0  0  0  0  0  0
  141.1160   75.4140  221.5560 C   0  0  0  0  0  0  0  0  0  0  0  0
  140.1570   74.5590  221.9970 N   0  0  0  0  0  0  0  0  0  0  0  0
  140.3030   73.2160  221.8480 C   0  0  0  0  0  0  0  0  0  0  0  0
  139.2580   72.3240  222.2720 N   0  0  0  0  0  0  0  0  0  0  0  0
  138.1410   72.2800  221.3050 C   0  0  0  0  0  0  0  0  0  0  0  0
  136.8410   72.9360  221.8280 C   0  0  0  0  0  0  0  0  0  0  0  0
  136.7630   74.4690  221.6230 C   0  0  2  0  0  0  0  0  0  0  0  0
  137.3280   74.8640  220.2460 C   0  0  0  0  0  0  0  0  0  0  0  0
  137.0770   76.3590  219.9710 C   0  0  0  0  0  0  0  0  0  0  0  0
  137.0600   77.2040  221.2590 C   0  0  0  0  0  0  0  0  0  0  0  0
  137.9210   76.5600  222.3510 C   0  0  0  0  0  0  0  0  0  0  0  0
  137.4390   75.2100  222.7220 N   0  0  0  0  0  0  0  0  0  0  0  0
  141.4390   72.7250  221.2860 N   0  0  0  0  0  0  0  0  0  0  0  0
  142.4180   73.5670  220.8580 C   0  0  0  0  0  0  0  0  0  0  0  0
  143.6180   73.0450  220.2500 N   0  0  0  0  0  0  0  0  0  0  0  0
  144.8730   73.8040  220.3490 C   0  0  0  0  0  0  0  0  0  0  0  0
  146.0810   72.8900  220.1210 C   0  0  0  0  0  0  0  0  0  0  0  0
  145.9180   72.1240  218.9450 O   0  0  0  0  0  0  0  0  0  0  0  0
  144.8430   71.2240  219.1180 C   0  0  0  0  0  0  0  0  0  0  0  0
  143.5160   71.9770  219.2450 C   0  0  0  0  0  0  0  0  0  0  0  0
  142.2440   74.9080  220.9910 N   0  0  0  0  0  0  0  0  0  0  0  0
  140.9810   77.5050  222.9590 C   0  0  0  0  0  0  0  0  0  0  0  0
  142.4976   82.6794  222.5365 H   0  0  0  0  0  0  0  0  0  0  0  0
  143.1730   81.3477  224.5375 H   0  0  0  0  0  0  0  0  0  0  0  0
  142.4716   78.9612  224.7458 H   0  0  0  0  0  0  0  0  0  0  0  0
  141.1299   81.6241  220.7340 H   0  0  0  0  0  0  0  0  0  0  0  0
  139.1559   79.0302  221.0143 H   0  0  0  0  0  0  0  0  0  0  0  0
  140.2842   79.6103  219.7301 H   0  0  0  0  0  0  0  0  0  0  0  0
  139.8631   77.0767  219.8382 H   0  0  0  0  0  0  0  0  0  0  0  0
  141.5955   77.6432  219.8395 H   0  0  0  0  0  0  0  0  0  0  0  0
  138.9130   72.5930  223.2230 H   0  0  0  0  0  0  0  0  0  0  0  0
  139.6710   71.3650  222.3460 H   0  0  0  0  0  0  0  0  0  0  0  0
  138.4522   72.8061  220.3905 H   0  0  0  0  0  0  0  0  0  0  0  0
  137.9152   71.2191  221.1219 H   0  0  0  0  0  0  0  0  0  0  0  0
  135.9902   72.4763  221.3038 H   0  0  0  0  0  0  0  0  0  0  0  0
  136.8222   72.7661  222.9146 H   0  0  0  0  0  0  0  0  0  0  0  0
  135.7014   74.7557  221.6513 H   0  0  0  0  0  0  0  0  0  0  0  0
  138.4105   74.6691  220.2290 H   0  0  0  0  0  0  0  0  0  0  0  0
  136.8245   74.2691  219.4698 H   0  0  0  0  0  0  0  0  0  0  0  0
  137.8748   76.7350  219.3136 H   0  0  0  0  0  0  0  0  0  0  0  0
  136.0869   76.4494  219.5004 H   0  0  0  0  0  0  0  0  0  0  0  0
  137.4529   78.2070  221.0362 H   0  0  0  0  0  0  0  0  0  0  0  0
  136.0237   77.2674  221.6223 H   0  0  0  0  0  0  0  0  0  0  0  0
  138.9549   76.4783  221.9844 H   0  0  0  0  0  0  0  0  0  0  0  0
  137.8619   77.1967  223.2460 H   0  0  0  0  0  0  0  0  0  0  0  0
  138.2620   74.6650  223.0730 H   0  0  0  0  0  0  0  0  0  0  0  0
  136.7690   75.3120  223.5190 H   0  0  0  0  0  0  0  0  0  0  0  0
  144.8742   74.5995  219.5893 H   0  0  0  0  0  0  0  0  0  0  0  0
  144.9442   74.2375  221.3575 H   0  0  0  0  0  0  0  0  0  0  0  0
  146.9868   73.5069  220.0265 H   0  0  0  0  0  0  0  0  0  0  0  0
  146.1705   72.2053  220.9772 H   0  0  0  0  0  0  0  0  0  0  0  0
  144.7935   70.5507  218.2495 H   0  0  0  0  0  0  0  0  0  0  0  0
  145.0108   70.6488  220.0405 H   0  0  0  0  0  0  0  0  0  0  0  0
  143.2580   72.4204  218.2719 H   0  0  0  0  0  0  0  0  0  0  0  0
  142.7363   71.2682  219.5605 H   0  0  0  0  0  0  0  0  0  0  0  0
  139.9810   77.4899  223.4170 H   0  0  0  0  0  0  0  0  0  0  0  0
  141.7063   76.9635  223.5841 H   0  0  0  0  0  0  0  0  0  0  0  0
  1  2  2  0
  2  3  1  0
  3  4  2  0
  4  5  1  0
  5  6  2  0
  5  7  1  0
  7  8  1  0
  8  9  1  0
  9 10  1  0
 10 11  2  0
 11 12  1  0
 12 13  1  0
 13 14  1  0
 14 15  1  0
 15 16  1  0
 16 17  1  0
 17 18  1  0
 18 19  1  0
 19 20  1  0
 20 21  1  0
 12 22  2  0
 22 23  1  0
 23 24  1  0
 24 25  1  0
 25 26  1  0
 26 27  1  0
 27 28  1  0
 28 29  1  0
 23 30  2  0
  9 31  1  0
  6  1  1  0
 30 10  1  0
 31  4  1  0
 21 16  1  0
 29 24  1  0
  1 32  1  0
  2 33  1  0
  3 34  1  0
  6 35  1  0
  7 36  1  0
  7 37  1  0
  8 38  1  0
  8 39  1  0
 13 40  1  0
 13 41  1  0
 14 42  1  0
 14 43  1  0
 15 44  1  0
 15 45  1  0
 16 46  1  6
 17 47  1  0
 17 48  1  0
 18 49  1  0
 18 50  1  0
 19 51  1  0
 19 52  1  0
 20 53  1  0
 20 54  1  0
 21 55  1  0
 21 56  1  0
 25 57  1  0
 25 58  1  0
 26 59  1  0
 26 60  1  0
 28 61  1  0
 28 62  1  0
 29 63  1  0
 29 64  1  0
 31 65  1  0
 31 66  1  0
M  CHG  2  13   1  21   1
M  END
>  <UniqueID>  (36) 
488

>  <SMILES>  (36) 
c1ccc2c(c1)CCN(c1nc([NH2+]CC[C@@H]3CCCC[NH2+]3)nc(N3CCOCC3)n1)C2

>  <Energy>  (36) 
77.09151523306082

>  <Genealogy>  (36) 
c1ccc2c(c1)CCN(c1nc([NH2+]CCC3CCCC[NH2+]3)nc(N3CCOCC3)n1)C2 (protonated)
c1ccc2c(c1)CCN(c1nc([NH2+]CC[C@@H]3CCCC[NH2+]3)nc(N3CCOCC3)n1)C2 (chirality)
c1ccc2c(c1)CCN(c1nc([NH2+]CC[C@@H]3CCCC[NH2+]3)nc(N3CCOCC3)n1)C2 (3D coordinates assigned)
c1ccc2c(c1)CCN(c1nc([NH2+]CC[C@@H]3CCCC[NH2+]3)nc(N3CCOCC3)n1)C2 (nonaromatic ring conformer: 77.09151523306082 kcal/mol)

>  <smiles>  (36) 
c1ccc2c(c1)CCN(c1nc(NCCC3CCCCN3)nc(N3CCOCC3)n1)C2

>  <score_type>  (36) 
oracle

>  <origin>  (36) 
autodockgpu

>  <m_score__min__energy>  (36) 
-9.6600000000000001

>  <m_primary>  (36) 
energy

>  <meeko>  (36) 
{"free_energy": -7.76, "intermolecular_energy": -9.55, "internal_energy": -1.08, "cluster_size": 11, "cluster_id": 1, "rank_in_cluster": 10}

>  <energy>  (36) 
-7.68

>  <cluster_rmsd>  (36) 
0.79

>  <rmsd>  (36) 
271.71

>  <cluster>  (36) 
4

$$$$
MXRVYNFLTYDQGX-OFNDVBAVNA-P
     RDKit          3D

 66 70  0  0  0  0  0  0  0  0999 V2000
  142.1560   81.6300  222.6710 C   0  0  0  0  0  0  0  0  0  0  0  0
  142.5780   80.8770  223.7710 C   0  0  0  0  0  0  0  0  0  0  0  0
  142.2020   79.5360  223.8860 C   0  0  0  0  0  0  0  0  0  0  0  0
  141.4170   78.9340  222.8890 C   0  0  0  0  0  0  0  0  0  0  0  0
  140.9940   79.6900  221.7850 C   0  0  0  0  0  0  0  0  0  0  0  0
  141.3590   81.0420  221.6830 C   0  0  0  0  0  0  0  0  0  0  0  0
  140.0920   79.0500  220.7710 C   0  0  0  0  0  0  0  0  0  0  0  0
  140.5400   77.6120  220.4800 C   0  0  0  0  0  0  0  0  0  0  0  0
  140.8550   76.8480  221.7030 N   0  0  0  0  0  0  0  0  0  0  0  0
  141.0550   75.4230  221.5960 C   0  0  0  0  0  0  0  0  0  0  0  0
  140.0800   74.5620  221.9870 N   0  0  0  0  0  0  0  0  0  0  0  0
  140.2300   73.2220  221.8190 C   0  0  0  0  0  0  0  0  0  0  0  0
  139.1690   72.3250  222.1890 N   0  0  0  0  0  0  0  0  0  0  0  0
  139.6600   71.1910  223.0010 C   0  0  0  0  0  0  0  0  0  0  0  0
  140.6660   71.6060  224.1000 C   0  0  0  0  0  0  0  0  0  0  0  0
  140.3200   71.0950  225.5210 C   0  0  2  0  0  0  0  0  0  0  0  0
  141.1700   71.8200  226.5810 C   0  0  0  0  0  0  0  0  0  0  0  0
  140.6930   71.4470  227.9980 C   0  0  0  0  0  0  0  0  0  0  0  0
  140.1080   70.0240  228.0720 C   0  0  0  0  0  0  0  0  0  0  0  0
  140.7230   69.1200  226.9970 C   0  0  0  0  0  0  0  0  0  0  0  0
  140.4590   69.6180  225.6280 N   0  0  0  0  0  0  0  0  0  0  0  0
  141.3840   72.7390  221.2890 N   0  0  0  0  0  0  0  0  0  0  0  0
  142.3780   73.5870  220.9110 C   0  0  0  0  0  0  0  0  0  0  0  0
  143.5980   73.0740  220.3360 N   0  0  0  0  0  0  0  0  0  0  0  0
  144.8360   73.8620  220.4320 C   0  0  0  0  0  0  0  0  0  0  0  0
  146.0660   72.9690  220.2480 C   0  0  0  0  0  0  0  0  0  0  0  0
  145.9380   72.1660  219.0920 O   0  0  0  0  0  0  0  0  0  0  0  0
  144.8790   71.2480  219.2750 C   0  0  0  0  0  0  0  0  0  0  0  0
  143.5350   71.9760  219.3600 C   0  0  0  0  0  0  0  0  0  0  0  0
  142.2020   74.9260  221.0620 N   0  0  0  0  0  0  0  0  0  0  0  0
  140.9680   77.5030  223.0200 C   0  0  0  0  0  0  0  0  0  0  0  0
  142.4511   82.6860  222.5824 H   0  0  0  0  0  0  0  0  0  0  0  0
  143.2062   81.3403  224.5461 H   0  0  0  0  0  0  0  0  0  0  0  0
  142.5219   78.9500  224.7602 H   0  0  0  0  0  0  0  0  0  0  0  0
  141.0177   81.6397  220.8249 H   0  0  0  0  0  0  0  0  0  0  0  0
  139.0632   79.0362  221.1601 H   0  0  0  0  0  0  0  0  0  0  0  0
  140.1387   79.6313  219.8383 H   0  0  0  0  0  0  0  0  0  0  0  0
  139.7317   77.0950  219.9420 H   0  0  0  0  0  0  0  0  0  0  0  0
  141.4608   77.6688  219.8809 H   0  0  0  0  0  0  0  0  0  0  0  0
  138.6700   71.9800  221.3360 H   0  0  0  0  0  0  0  0  0  0  0  0
  138.4800   72.8680  222.7590 H   0  0  0  0  0  0  0  0  0  0  0  0
  138.7968   70.7094  223.4837 H   0  0  0  0  0  0  0  0  0  0  0  0
  140.1906   70.5112  222.3181 H   0  0  0  0  0  0  0  0  0  0  0  0
  141.6554   71.2114  223.8255 H   0  0  0  0  0  0  0  0  0  0  0  0
  140.6365   72.7045  224.1493 H   0  0  0  0  0  0  0  0  0  0  0  0
  139.2624   71.3293  225.7121 H   0  0  0  0  0  0  0  0  0  0  0  0
  142.2235   71.5261  226.4640 H   0  0  0  0  0  0  0  0  0  0  0  0
  141.0633   72.9060  226.4426 H   0  0  0  0  0  0  0  0  0  0  0  0
  141.5488   71.5121  228.6861 H   0  0  0  0  0  0  0  0  0  0  0  0
  139.8939   72.1500  228.2758 H   0  0  0  0  0  0  0  0  0  0  0  0
  140.3206   69.5989  229.0640 H   0  0  0  0  0  0  0  0  0  0  0  0
  139.0228   70.0821  227.9019 H   0  0  0  0  0  0  0  0  0  0  0  0
  141.8109   69.0738  227.1533 H   0  0  0  0  0  0  0  0  0  0  0  0
  140.2622   68.1254  227.0887 H   0  0  0  0  0  0  0  0  0  0  0  0
  141.2380   69.2830  225.0130 H   0  0  0  0  0  0  0  0  0  0  0  0
  139.5760   69.1730  225.2850 H   0  0  0  0  0  0  0  0  0  0  0  0
  144.8322   74.6358  219.6502 H   0  0  0  0  0  0  0  0  0  0  0  0
  144.8826   74.3244  221.4290 H   0  0  0  0  0  0  0  0  0  0  0  0
  146.9596   73.6028  220.1491 H   0  0  0  0  0  0  0  0  0  0  0  0
  146.1568   72.3109  221.1247 H   0  0  0  0  0  0  0  0  0  0  0  0
  144.8572   70.5491  218.4258 H   0  0  0  0  0  0  0  0  0  0  0  0
  145.0442   70.7032  220.2162 H   0  0  0  0  0  0  0  0  0  0  0  0
  143.2837   72.3864  218.3709 H   0  0  0  0  0  0  0  0  0  0  0  0
  142.7653   71.2598  219.6835 H   0  0  0  0  0  0  0  0  0  0  0  0
  139.9862   77.4806  223.5155 H   0  0  0  0  0  0  0  0  0  0  0  0
  141.7187   76.9591  223.6122 H   0  0  0  0  0  0  0  0  0  0  0  0
  1  2  2  0
  2  3  1  0
  3  4  2  0
  4  5  1  0
  5  6  2  0
  5  7  1  0
  7  8  1  0
  8  9  1  0
  9 10  1  0
 10 11  2  0
 11 12  1  0
 12 13  1  0
 13 14  1  0
 14 15  1  0
 15 16  1  0
 16 17  1  0
 17 18  1  0
 18 19  1  0
 19 20  1  0
 20 21  1  0
 12 22  2  0
 22 23  1  0
 23 24  1  0
 24 25  1  0
 25 26  1  0
 26 27  1  0
 27 28  1  0
 28 29  1  0
 23 30  2  0
  9 31  1  0
  6  1  1  0
 30 10  1  0
 31  4  1  0
 21 16  1  0
 29 24  1  0
  1 32  1  0
  2 33  1  0
  3 34  1  0
  6 35  1  0
  7 36  1  0
  7 37  1  0
  8 38  1  0
  8 39  1  0
 13 40  1  0
 13 41  1  0
 14 42  1  0
 14 43  1  0
 15 44  1  0
 15 45  1  0
 16 46  1  1
 17 47  1  0
 17 48  1  0
 18 49  1  0
 18 50  1  0
 19 51  1  0
 19 52  1  0
 20 53  1  0
 20 54  1  0
 21 55  1  0
 21 56  1  0
 25 57  1  0
 25 58  1  0
 26 59  1  0
 26 60  1  0
 28 61  1  0
 28 62  1  0
 29 63  1  0
 29 64  1  0
 31 65  1  0
 31 66  1  0
M  CHG  2  13   1  21   1
M  END
>  <UniqueID>  (37) 
488

>  <SMILES>  (37) 
c1ccc2c(c1)CCN(c1nc([NH2+]CC[C@@H]3CCCC[NH2+]3)nc(N3CCOCC3)n1)C2

>  <Energy>  (37) 
77.09151523306082

>  <Genealogy>  (37) 
c1ccc2c(c1)CCN(c1nc([NH2+]CCC3CCCC[NH2+]3)nc(N3CCOCC3)n1)C2 (protonated)
c1ccc2c(c1)CCN(c1nc([NH2+]CC[C@@H]3CCCC[NH2+]3)nc(N3CCOCC3)n1)C2 (chirality)
c1ccc2c(c1)CCN(c1nc([NH2+]CC[C@@H]3CCCC[NH2+]3)nc(N3CCOCC3)n1)C2 (3D coordinates assigned)
c1ccc2c(c1)CCN(c1nc([NH2+]CC[C@@H]3CCCC[NH2+]3)nc(N3CCOCC3)n1)C2 (nonaromatic ring conformer: 77.09151523306082 kcal/mol)

>  <smiles>  (37) 
c1ccc2c(c1)CCN(c1nc(NCCC3CCCCN3)nc(N3CCOCC3)n1)C2

>  <score_type>  (37) 
oracle

>  <origin>  (37) 
autodockgpu

>  <m_score__min__energy>  (37) 
-9.6600000000000001

>  <m_primary>  (37) 
energy

>  <meeko>  (37) 
{"free_energy": -9.54, "intermolecular_energy": -11.33, "internal_energy": 0.07, "cluster_size": 11, "cluster_id": 1, "rank_in_cluster": 3}

>  <energy>  (37) 
-7.66

>  <cluster_rmsd>  (37) 
0.8

>  <rmsd>  (37) 
271.7

>  <cluster>  (37) 
4

$$$$
MXRVYNFLTYDQGX-OFNDVBAVNA-P
     RDKit          3D

 66 70  0  0  0  0  0  0  0  0999 V2000
  141.9830   81.5340  223.9280 C   0  0  0  0  0  0  0  0  0  0  0  0
  142.5940   80.3080  224.2060 C   0  0  0  0  0  0  0  0  0  0  0  0
  142.5530   79.2760  223.2630 C   0  0  0  0  0  0  0  0  0  0  0  0
  141.9160   79.4740  222.0270 C   0  0  0  0  0  0  0  0  0  0  0  0
  141.3040   80.7060  221.7490 C   0  0  0  0  0  0  0  0  0  0  0  0
  141.3310   81.7320  222.7070 C   0  0  0  0  0  0  0  0  0  0  0  0
  140.5620   80.8690  220.4550 C   0  0  0  0  0  0  0  0  0  0  0  0
  141.3370   80.2180  219.3020 C   0  0  0  0  0  0  0  0  0  0  0  0
  141.8480   78.8750  219.6380 N   0  0  0  0  0  0  0  0  0  0  0  0
  142.3830   78.0540  218.5790 C   0  0  0  0  0  0  0  0  0  0  0  0
  142.3510   78.4870  217.2920 N   0  0  0  0  0  0  0  0  0  0  0  0
  142.9200   77.7550  216.2990 C   0  0  0  0  0  0  0  0  0  0  0  0
  142.9240   78.2490  214.9480 N   0  0  0  0  0  0  0  0  0  0  0  0
  141.6050   78.7820  214.5490 C   0  0  0  0  0  0  0  0  0  0  0  0
  141.5990   80.3110  214.3150 C   0  0  0  0  0  0  0  0  0  0  0  0
  141.5810   81.1640  215.6080 C   0  0  2  0  0  0  0  0  0  0  0  0
  140.9570   82.5470  215.3380 C   0  0  0  0  0  0  0  0  0  0  0  0
  140.7700   83.3170  216.6590 C   0  0  0  0  0  0  0  0  0  0  0  0
  141.8310   82.9520  217.7150 C   0  0  0  0  0  0  0  0  0  0  0  0
  143.1320   82.4900  217.0500 C   0  0  0  0  0  0  0  0  0  0  0  0
  142.9360   81.2860  216.2100 N   0  0  0  0  0  0  0  0  0  0  0  0
  143.4930   76.5590  216.5940 N   0  0  0  0  0  0  0  0  0  0  0  0
  143.5160   76.1010  217.8750 C   0  0  0  0  0  0  0  0  0  0  0  0
  144.1370   74.8370  218.1900 N   0  0  0  0  0  0  0  0  0  0  0  0
  144.3900   74.4790  219.5930 C   0  0  0  0  0  0  0  0  0  0  0  0
  144.5520   72.9640  219.7480 C   0  0  0  0  0  0  0  0  0  0  0  0
  145.4800   72.4580  218.8090 O   0  0  0  0  0  0  0  0  0  0  0  0
  144.9550   72.6090  217.5060 C   0  0  0  0  0  0  0  0  0  0  0  0
  144.8350   74.0890  217.1340 C   0  0  0  0  0  0  0  0  0  0  0  0
  142.9650   76.8580  218.8600 N   0  0  0  0  0  0  0  0  0  0  0  0
  141.8270   78.3590  221.0200 C   0  0  0  0  0  0  0  0  0  0  0  0
  142.0151   82.3445  224.6710 H   0  0  0  0  0  0  0  0  0  0  0  0
  143.1072   80.1548  225.1668 H   0  0  0  0  0  0  0  0  0  0  0  0
  143.0209   78.3067  223.4899 H   0  0  0  0  0  0  0  0  0  0  0  0
  140.8386   82.6929  222.4968 H   0  0  0  0  0  0  0  0  0  0  0  0
  139.5748   80.3917  220.5419 H   0  0  0  0  0  0  0  0  0  0  0  0
  140.4486   81.9426  220.2442 H   0  0  0  0  0  0  0  0  0  0  0  0
  140.6670   80.1313  218.4339 H   0  0  0  0  0  0  0  0  0  0  0  0
  142.2062   80.8570  219.0869 H   0  0  0  0  0  0  0  0  0  0  0  0
  143.2360   77.5000  214.2880 H   0  0  0  0  0  0  0  0  0  0  0  0
  143.6250   79.0250  214.8990 H   0  0  0  0  0  0  0  0  0  0  0  0
  141.2975   78.2864  213.6163 H   0  0  0  0  0  0  0  0  0  0  0  0
  140.9116   78.5803  215.3787 H   0  0  0  0  0  0  0  0  0  0  0  0
  142.5016   80.5737  213.7438 H   0  0  0  0  0  0  0  0  0  0  0  0
  140.6659   80.5395  213.7792 H   0  0  0  0  0  0  0  0  0  0  0  0
  140.9516   80.6425  216.3441 H   0  0  0  0  0  0  0  0  0  0  0  0
  141.6204   83.1210  214.6743 H   0  0  0  0  0  0  0  0  0  0  0  0
  139.9748   82.4094  214.8623 H   0  0  0  0  0  0  0  0  0  0  0  0
  140.8372   84.3950  216.4506 H   0  0  0  0  0  0  0  0  0  0  0  0
  139.7863   83.0423  217.0675 H   0  0  0  0  0  0  0  0  0  0  0  0
  142.0388   83.8356  218.3364 H   0  0  0  0  0  0  0  0  0  0  0  0
  141.4419   82.1291  218.3326 H   0  0  0  0  0  0  0  0  0  0  0  0
  143.5147   83.3044  216.4174 H   0  0  0  0  0  0  0  0  0  0  0  0
  143.8448   82.2323  217.8472 H   0  0  0  0  0  0  0  0  0  0  0  0
  143.6650   81.3000  215.4590 H   0  0  0  0  0  0  0  0  0  0  0  0
  143.1150   80.4430  216.8040 H   0  0  0  0  0  0  0  0  0  0  0  0
  145.3108   74.9765  219.9315 H   0  0  0  0  0  0  0  0  0  0  0  0
  143.5326   74.8054  220.1999 H   0  0  0  0  0  0  0  0  0  0  0  0
  144.9102   72.7420  220.7641 H   0  0  0  0  0  0  0  0  0  0  0  0
  143.5771   72.4860  219.5718 H   0  0  0  0  0  0  0  0  0  0  0  0
  145.6231   72.1102  216.7884 H   0  0  0  0  0  0  0  0  0  0  0  0
  143.9528   72.1565  217.4761 H   0  0  0  0  0  0  0  0  0  0  0  0
  145.8423   74.5100  216.9993 H   0  0  0  0  0  0  0  0  0  0  0  0
  144.2576   74.1728  216.2015 H   0  0  0  0  0  0  0  0  0  0  0  0
  140.8897   77.8062  221.1808 H   0  0  0  0  0  0  0  0  0  0  0  0
  142.6981   77.7012  221.1559 H   0  0  0  0  0  0  0  0  0  0  0  0
  1  2  2  0
  2  3  1  0
  3  4  2  0
  4  5  1  0
  5  6  2  0
  5  7  1  0
  7  8  1  0
  8  9  1  0
  9 10  1  0
 10 11  2  0
 11 12  1  0
 12 13  1  0
 13 14  1  0
 14 15  1  0
 15 16  1  0
 16 17  1  0
 17 18  1  0
 18 19  1  0
 19 20  1  0
 20 21  1  0
 12 22  2  0
 22 23  1  0
 23 24  1  0
 24 25  1  0
 25 26  1  0
 26 27  1  0
 27 28  1  0
 28 29  1  0
 23 30  2  0
  9 31  1  0
  6  1  1  0
 30 10  1  0
 31  4  1  0
 21 16  1  0
 29 24  1  0
  1 32  1  0
  2 33  1  0
  3 34  1  0
  6 35  1  0
  7 36  1  0
  7 37  1  0
  8 38  1  0
  8 39  1  0
 13 40  1  0
 13 41  1  0
 14 42  1  0
 14 43  1  0
 15 44  1  0
 15 45  1  0
 16 46  1  1
 17 47  1  0
 17 48  1  0
 18 49  1  0
 18 50  1  0
 19 51  1  0
 19 52  1  0
 20 53  1  0
 20 54  1  0
 21 55  1  0
 21 56  1  0
 25 57  1  0
 25 58  1  0
 26 59  1  0
 26 60  1  0
 28 61  1  0
 28 62  1  0
 29 63  1  0
 29 64  1  0
 31 65  1  0
 31 66  1  0
M  CHG  2  13   1  21   1
M  END
>  <UniqueID>  (38) 
488

>  <SMILES>  (38) 
c1ccc2c(c1)CCN(c1nc([NH2+]CC[C@@H]3CCCC[NH2+]3)nc(N3CCOCC3)n1)C2

>  <Energy>  (38) 
77.09151523306082

>  <Genealogy>  (38) 
c1ccc2c(c1)CCN(c1nc([NH2+]CCC3CCCC[NH2+]3)nc(N3CCOCC3)n1)C2 (protonated)
c1ccc2c(c1)CCN(c1nc([NH2+]CC[C@@H]3CCCC[NH2+]3)nc(N3CCOCC3)n1)C2 (chirality)
c1ccc2c(c1)CCN(c1nc([NH2+]CC[C@@H]3CCCC[NH2+]3)nc(N3CCOCC3)n1)C2 (3D coordinates assigned)
c1ccc2c(c1)CCN(c1nc([NH2+]CC[C@@H]3CCCC[NH2+]3)nc(N3CCOCC3)n1)C2 (nonaromatic ring conformer: 77.09151523306082 kcal/mol)

>  <smiles>  (38) 
c1ccc2c(c1)CCN(c1nc(NCCC3CCCCN3)nc(N3CCOCC3)n1)C2

>  <score_type>  (38) 
oracle

>  <origin>  (38) 
autodockgpu

>  <m_score__min__energy>  (38) 
-9.6600000000000001

>  <m_primary>  (38) 
energy

>  <meeko>  (38) 
{"free_energy": -8.7, "intermolecular_energy": -10.49, "internal_energy": -0.73, "cluster_size": 1, "cluster_id": 2, "rank_in_cluster": 1}

>  <energy>  (38) 
-6.75

>  <cluster_rmsd>  (38) 
0.0

>  <rmsd>  (38) 
271.45

>  <cluster>  (38) 
5

$$$$
MXRVYNFLTYDQGX-OFNDVBAVNA-P
     RDKit          3D

 66 70  0  0  0  0  0  0  0  0999 V2000
  141.9750   81.2030  223.8690 C   0  0  0  0  0  0  0  0  0  0  0  0
  142.2140   79.8570  224.1570 C   0  0  0  0  0  0  0  0  0  0  0  0
  142.1330   78.8990  223.1420 C   0  0  0  0  0  0  0  0  0  0  0  0
  141.8300   79.2880  221.8270 C   0  0  0  0  0  0  0  0  0  0  0  0
  141.5920   80.6400  221.5380 C   0  0  0  0  0  0  0  0  0  0  0  0
  141.6560   81.5960  222.5650 C   0  0  0  0  0  0  0  0  0  0  0  0
  141.1940   81.0240  220.1440 C   0  0  0  0  0  0  0  0  0  0  0  0
  142.0190   80.2440  219.1120 C   0  0  0  0  0  0  0  0  0  0  0  0
  142.1250   78.8060  219.4280 N   0  0  0  0  0  0  0  0  0  0  0  0
  142.6630   77.9160  218.4280 C   0  0  0  0  0  0  0  0  0  0  0  0
  142.7220   78.3020  217.1270 N   0  0  0  0  0  0  0  0  0  0  0  0
  143.2970   77.5010  216.1920 C   0  0  0  0  0  0  0  0  0  0  0  0
  143.4000   77.9430  214.8270 N   0  0  0  0  0  0  0  0  0  0  0  0
  142.2190   77.5560  214.0280 C   0  0  0  0  0  0  0  0  0  0  0  0
  140.8770   77.7380  214.7770 C   0  0  0  0  0  0  0  0  0  0  0  0
  140.4030   76.4950  215.5690 C   0  0  2  0  0  0  0  0  0  0  0  0
  138.9070   76.2270  215.3170 C   0  0  0  0  0  0  0  0  0  0  0  0
  138.4870   74.8890  215.9540 C   0  0  0  0  0  0  0  0  0  0  0  0
  139.3060   74.5480  217.2140 C   0  0  0  0  0  0  0  0  0  0  0  0
  139.8130   75.8200  217.9010 C   0  0  0  0  0  0  0  0  0  0  0  0
  140.6980   76.6180  217.0220 N   0  0  0  0  0  0  0  0  0  0  0  0
  143.7830   76.2860  216.5580 N   0  0  0  0  0  0  0  0  0  0  0  0
  143.7130   75.8760  217.8530 C   0  0  0  0  0  0  0  0  0  0  0  0
  144.2400   74.5920  218.2440 N   0  0  0  0  0  0  0  0  0  0  0  0
  144.3540   74.2540  219.6710 C   0  0  0  0  0  0  0  0  0  0  0  0
  144.4260   72.7370  219.8670 C   0  0  0  0  0  0  0  0  0  0  0  0
  145.4050   72.1660  219.0220 O   0  0  0  0  0  0  0  0  0  0  0  0
  145.0020   72.3110  217.6750 C   0  0  0  0  0  0  0  0  0  0  0  0
  144.9890   73.7870  217.2670 C   0  0  0  0  0  0  0  0  0  0  0  0
  143.1580   76.7000  218.7810 N   0  0  0  0  0  0  0  0  0  0  0  0
  141.6970   78.2640  220.7320 C   0  0  0  0  0  0  0  0  0  0  0  0
  142.0378   81.9552  224.6692 H   0  0  0  0  0  0  0  0  0  0  0  0
  142.4661   79.5508  225.1830 H   0  0  0  0  0  0  0  0  0  0  0  0
  142.3070   77.8379  223.3739 H   0  0  0  0  0  0  0  0  0  0  0  0
  141.4551   82.6546  222.3437 H   0  0  0  0  0  0  0  0  0  0  0  0
  140.1271   80.7996  219.9980 H   0  0  0  0  0  0  0  0  0  0  0  0
  141.3793   82.0995  220.0061 H   0  0  0  0  0  0  0  0  0  0  0  0
  141.5416   80.3524  218.1269 H   0  0  0  0  0  0  0  0  0  0  0  0
  143.0374   80.6596  219.1220 H   0  0  0  0  0  0  0  0  0  0  0  0
  144.2780   77.5760  214.3910 H   0  0  0  0  0  0  0  0  0  0  0  0
  143.4660   78.9880  214.8380 H   0  0  0  0  0  0  0  0  0  0  0  0
  142.1964   78.1747  213.1188 H   0  0  0  0  0  0  0  0  0  0  0  0
  142.3195   76.4841  213.8025 H   0  0  0  0  0  0  0  0  0  0  0  0
  140.9904   78.5723  215.4849 H   0  0  0  0  0  0  0  0  0  0  0  0
  140.1145   77.9240  214.0063 H   0  0  0  0  0  0  0  0  0  0  0  0
  140.9716   75.6280  215.2016 H   0  0  0  0  0  0  0  0  0  0  0  0
  138.3134   77.0410  215.7587 H   0  0  0  0  0  0  0  0  0  0  0  0
  138.7310   76.1768  214.2323 H   0  0  0  0  0  0  0  0  0  0  0  0
  137.4240   74.9491  216.2306 H   0  0  0  0  0  0  0  0  0  0  0  0
  138.6701   74.0963  215.2137 H   0  0  0  0  0  0  0  0  0  0  0  0
  138.6697   73.9893  217.9162 H   0  0  0  0  0  0  0  0  0  0  0  0
  140.1739   73.9423  216.9142 H   0  0  0  0  0  0  0  0  0  0  0  0
  138.9481   76.4369  218.1863 H   0  0  0  0  0  0  0  0  0  0  0  0
  140.3978   75.5168  218.7819 H   0  0  0  0  0  0  0  0  0  0  0  0
  140.6240   77.6190  217.3220 H   0  0  0  0  0  0  0  0  0  0  0  0
  141.6850   76.3130  217.1910 H   0  0  0  0  0  0  0  0  0  0  0  0
  145.2663   74.7139  220.0787 H   0  0  0  0  0  0  0  0  0  0  0  0
  143.4654   74.6353  220.1955 H   0  0  0  0  0  0  0  0  0  0  0  0
  144.6836   72.5208  220.9143 H   0  0  0  0  0  0  0  0  0  0  0  0
  143.4472   72.3028  219.6151 H   0  0  0  0  0  0  0  0  0  0  0  0
  145.7035   71.7641  217.0279 H   0  0  0  0  0  0  0  0  0  0  0  0
  143.9851   71.9061  217.5657 H   0  0  0  0  0  0  0  0  0  0  0  0
  146.0240   74.1556  217.2137 H   0  0  0  0  0  0  0  0  0  0  0  0
  144.4995   73.8775  216.2861 H   0  0  0  0  0  0  0  0  0  0  0  0
  140.6447   77.9517  220.6610 H   0  0  0  0  0  0  0  0  0  0  0  0
  142.3440   77.4094  220.9790 H   0  0  0  0  0  0  0  0  0  0  0  0
  1  2  2  0
  2  3  1  0
  3  4  2  0
  4  5  1  0
  5  6  2  0
  5  7  1  0
  7  8  1  0
  8  9  1  0
  9 10  1  0
 10 11  2  0
 11 12  1  0
 12 13  1  0
 13 14  1  0
 14 15  1  0
 15 16  1  0
 16 17  1  0
 17 18  1  0
 18 19  1  0
 19 20  1  0
 20 21  1  0
 12 22  2  0
 22 23  1  0
 23 24  1  0
 24 25  1  0
 25 26  1  0
 26 27  1  0
 27 28  1  0
 28 29  1  0
 23 30  2  0
  9 31  1  0
  6  1  1  0
 30 10  1  0
 31  4  1  0
 21 16  1  0
 29 24  1  0
  1 32  1  0
  2 33  1  0
  3 34  1  0
  6 35  1  0
  7 36  1  0
  7 37  1  0
  8 38  1  0
  8 39  1  0
 13 40  1  0
 13 41  1  0
 14 42  1  0
 14 43  1  0
 15 44  1  0
 15 45  1  0
 16 46  1  6
 17 47  1  0
 17 48  1  0
 18 49  1  0
 18 50  1  0
 19 51  1  0
 19 52  1  0
 20 53  1  0
 20 54  1  0
 21 55  1  0
 21 56  1  0
 25 57  1  0
 25 58  1  0
 26 59  1  0
 26 60  1  0
 28 61  1  0
 28 62  1  0
 29 63  1  0
 29 64  1  0
 31 65  1  0
 31 66  1  0
M  CHG  2  13   1  21   1
M  END
>  <UniqueID>  (39) 
488

>  <SMILES>  (39) 
c1ccc2c(c1)CCN(c1nc([NH2+]CC[C@@H]3CCCC[NH2+]3)nc(N3CCOCC3)n1)C2

>  <Energy>  (39) 
77.09151523306082

>  <Genealogy>  (39) 
c1ccc2c(c1)CCN(c1nc([NH2+]CCC3CCCC[NH2+]3)nc(N3CCOCC3)n1)C2 (protonated)
c1ccc2c(c1)CCN(c1nc([NH2+]CC[C@@H]3CCCC[NH2+]3)nc(N3CCOCC3)n1)C2 (chirality)
c1ccc2c(c1)CCN(c1nc([NH2+]CC[C@@H]3CCCC[NH2+]3)nc(N3CCOCC3)n1)C2 (3D coordinates assigned)
c1ccc2c(c1)CCN(c1nc([NH2+]CC[C@@H]3CCCC[NH2+]3)nc(N3CCOCC3)n1)C2 (nonaromatic ring conformer: 77.09151523306082 kcal/mol)

>  <smiles>  (39) 
c1ccc2c(c1)CCN(c1nc(NCCC3CCCCN3)nc(N3CCOCC3)n1)C2

>  <score_type>  (39) 
oracle

>  <origin>  (39) 
autodockgpu

>  <m_score__min__energy>  (39) 
-9.6600000000000001

>  <m_primary>  (39) 
energy

>  <meeko>  (39) 
{"free_energy": -6.18, "intermolecular_energy": -7.97, "internal_energy": -2.13, "cluster_size": 1, "cluster_id": 6, "rank_in_cluster": 1}

>  <energy>  (39) 
-6.18

>  <cluster_rmsd>  (39) 
0.0

>  <rmsd>  (39) 
270.39

>  <cluster>  (39) 
6

$$$$
MXRVYNFLTYDQGX-OFNDVBAVNA-P
     RDKit          3D

 66 70  0  0  0  0  0  0  0  0999 V2000
  135.8070   77.9720  223.3080 C   0  0  0  0  0  0  0  0  0  0  0  0
  136.7330   79.0140  223.4160 C   0  0  0  0  0  0  0  0  0  0  0  0
  138.0650   78.8070  223.0450 C   0  0  0  0  0  0  0  0  0  0  0  0
  138.4730   77.5600  222.5460 C   0  0  0  0  0  0  0  0  0  0  0  0
  137.5430   76.5150  222.4360 C   0  0  0  0  0  0  0  0  0  0  0  0
  136.2100   76.7220  222.8270 C   0  0  0  0  0  0  0  0  0  0  0  0
  138.0170   75.1690  221.9730 C   0  0  0  0  0  0  0  0  0  0  0  0
  139.0150   75.3150  220.8170 C   0  0  0  0  0  0  0  0  0  0  0  0
  140.0320   76.3570  221.0630 N   0  0  0  0  0  0  0  0  0  0  0  0
  141.1670   76.4380  220.1760 C   0  0  0  0  0  0  0  0  0  0  0  0
  141.3300   77.5180  219.3680 N   0  0  0  0  0  0  0  0  0  0  0  0
  142.4350   77.6380  218.5860 C   0  0  0  0  0  0  0  0  0  0  0  0
  142.6210   78.8100  217.7740 N   0  0  0  0  0  0  0  0  0  0  0  0
  142.6340   80.0480  218.5810 C   0  0  0  0  0  0  0  0  0  0  0  0
  141.2700   80.3780  219.2320 C   0  0  0  0  0  0  0  0  0  0  0  0
  141.2560   80.3070  220.7790 C   0  0  2  0  0  0  0  0  0  0  0  0
  141.6480   81.6660  221.3890 C   0  0  0  0  0  0  0  0  0  0  0  0
  141.4520   81.6440  222.9170 C   0  0  0  0  0  0  0  0  0  0  0  0
  141.6630   80.2430  223.5230 C   0  0  0  0  0  0  0  0  0  0  0  0
  142.6260   79.4140  222.6670 C   0  0  0  0  0  0  0  0  0  0  0  0
  142.1210   79.2100  221.2910 N   0  0  0  0  0  0  0  0  0  0  0  0
  143.3670   76.6480  218.5880 N   0  0  0  0  0  0  0  0  0  0  0  0
  143.2090   75.5520  219.3760 C   0  0  0  0  0  0  0  0  0  0  0  0
  144.2040   74.5080  219.3870 N   0  0  0  0  0  0  0  0  0  0  0  0
  145.1790   74.4410  220.4850 C   0  0  0  0  0  0  0  0  0  0  0  0
  145.7770   73.0360  220.5980 C   0  0  0  0  0  0  0  0  0  0  0  0
  146.2380   72.5820  219.3410 O   0  0  0  0  0  0  0  0  0  0  0  0
  145.1360   72.4100  218.4740 C   0  0  0  0  0  0  0  0  0  0  0  0
  144.4780   73.7550  218.1540 C   0  0  0  0  0  0  0  0  0  0  0  0
  142.1100   75.4590  220.1710 N   0  0  0  0  0  0  0  0  0  0  0  0
  139.9130   77.3090  222.1840 C   0  0  0  0  0  0  0  0  0  0  0  0
  134.7597   78.1356  223.6018 H   0  0  0  0  0  0  0  0  0  0  0  0
  136.4135   79.9968  223.7929 H   0  0  0  0  0  0  0  0  0  0  0  0
  138.7953   79.6236  223.1444 H   0  0  0  0  0  0  0  0  0  0  0  0
  135.4823   75.9003  222.7549 H   0  0  0  0  0  0  0  0  0  0  0  0
  138.5073   74.6509  222.8104 H   0  0  0  0  0  0  0  0  0  0  0  0
  137.1503   74.5899  221.6216 H   0  0  0  0  0  0  0  0  0  0  0  0
  139.5270   74.3523  220.6719 H   0  0  0  0  0  0  0  0  0  0  0  0
  138.4450   75.6145  219.9251 H   0  0  0  0  0  0  0  0  0  0  0  0
  141.8840   78.8600  217.0330 H   0  0  0  0  0  0  0  0  0  0  0  0
  143.5460   78.7170  217.2920 H   0  0  0  0  0  0  0  0  0  0  0  0
  143.3820   79.9346  219.3795 H   0  0  0  0  0  0  0  0  0  0  0  0
  142.8736   80.8758  217.8974 H   0  0  0  0  0  0  0  0  0  0  0  0
  140.9859   81.3979  218.9334 H   0  0  0  0  0  0  0  0  0  0  0  0
  140.5645   79.6110  218.8799 H   0  0  0  0  0  0  0  0  0  0  0  0
  140.2279   80.0748  221.0939 H   0  0  0  0  0  0  0  0  0  0  0  0
  142.7039   81.8745  221.1618 H   0  0  0  0  0  0  0  0  0  0  0  0
  141.0074   82.4494  220.9578 H   0  0  0  0  0  0  0  0  0  0  0  0
  142.1729   82.3376  223.3744 H   0  0  0  0  0  0  0  0  0  0  0  0
  140.4136   81.9425  223.1233 H   0  0  0  0  0  0  0  0  0  0  0  0
  142.0808   80.3480  224.5351 H   0  0  0  0  0  0  0  0  0  0  0  0
  140.6924   79.7266  223.5584 H   0  0  0  0  0  0  0  0  0  0  0  0
  143.5926   79.9366  222.6152 H   0  0  0  0  0  0  0  0  0  0  0  0
  142.7286   78.4252  223.1378 H   0  0  0  0  0  0  0  0  0  0  0  0
  142.9500   79.0810  220.6640 H   0  0  0  0  0  0  0  0  0  0  0  0
  141.5740   78.3170  221.2740 H   0  0  0  0  0  0  0  0  0  0  0  0
  145.9872   75.1623  220.2938 H   0  0  0  0  0  0  0  0  0  0  0  0
  144.6650   74.6816  221.4273 H   0  0  0  0  0  0  0  0  0  0  0  0
  146.6201   73.0590  221.3041 H   0  0  0  0  0  0  0  0  0  0  0  0
  144.9958   72.3489  220.9552 H   0  0  0  0  0  0  0  0  0  0  0  0
  145.4826   71.9469  217.5384 H   0  0  0  0  0  0  0  0  0  0  0  0
  144.3955   71.7655  218.9702 H   0  0  0  0  0  0  0  0  0  0  0  0
  145.1522   74.3433  217.5143 H   0  0  0  0  0  0  0  0  0  0  0  0
  143.5259   73.5676  217.6360 H   0  0  0  0  0  0  0  0  0  0  0  0
  140.4348   76.8963  223.0600 H   0  0  0  0  0  0  0  0  0  0  0  0
  140.3619   78.2642  221.8740 H   0  0  0  0  0  0  0  0  0  0  0  0
  1  2  2  0
  2  3  1  0
  3  4  2  0
  4  5  1  0
  5  6  2  0
  5  7  1  0
  7  8  1  0
  8  9  1  0
  9 10  1  0
 10 11  2  0
 11 12  1  0
 12 13  1  0
 13 14  1  0
 14 15  1  0
 15 16  1  0
 16 17  1  0
 17 18  1  0
 18 19  1  0
 19 20  1  0
 20 21  1  0
 12 22  2  0
 22 23  1  0
 23 24  1  0
 24 25  1  0
 25 26  1  0
 26 27  1  0
 27 28  1  0
 28 29  1  0
 23 30  2  0
  9 31  1  0
  6  1  1  0
 30 10  1  0
 31  4  1  0
 21 16  1  0
 29 24  1  0
  1 32  1  0
  2 33  1  0
  3 34  1  0
  6 35  1  0
  7 36  1  0
  7 37  1  0
  8 38  1  0
  8 39  1  0
 13 40  1  0
 13 41  1  0
 14 42  1  0
 14 43  1  0
 15 44  1  0
 15 45  1  0
 16 46  1  1
 17 47  1  0
 17 48  1  0
 18 49  1  0
 18 50  1  0
 19 51  1  0
 19 52  1  0
 20 53  1  0
 20 54  1  0
 21 55  1  0
 21 56  1  0
 25 57  1  0
 25 58  1  0
 26 59  1  0
 26 60  1  0
 28 61  1  0
 28 62  1  0
 29 63  1  0
 29 64  1  0
 31 65  1  0
 31 66  1  0
M  CHG  2  13   1  21   1
M  END
>  <UniqueID>  (40) 
488

>  <SMILES>  (40) 
c1ccc2c(c1)CCN(c1nc([NH2+]CC[C@@H]3CCCC[NH2+]3)nc(N3CCOCC3)n1)C2

>  <Energy>  (40) 
77.09151523306082

>  <Genealogy>  (40) 
c1ccc2c(c1)CCN(c1nc([NH2+]CCC3CCCC[NH2+]3)nc(N3CCOCC3)n1)C2 (protonated)
c1ccc2c(c1)CCN(c1nc([NH2+]CC[C@@H]3CCCC[NH2+]3)nc(N3CCOCC3)n1)C2 (chirality)
c1ccc2c(c1)CCN(c1nc([NH2+]CC[C@@H]3CCCC[NH2+]3)nc(N3CCOCC3)n1)C2 (3D coordinates assigned)
c1ccc2c(c1)CCN(c1nc([NH2+]CC[C@@H]3CCCC[NH2+]3)nc(N3CCOCC3)n1)C2 (nonaromatic ring conformer: 77.09151523306082 kcal/mol)

>  <smiles>  (40) 
c1ccc2c(c1)CCN(c1nc(NCCC3CCCCN3)nc(N3CCOCC3)n1)C2

>  <score_type>  (40) 
oracle

>  <origin>  (40) 
autodockgpu

>  <m_score__min__energy>  (40) 
-9.6600000000000001

>  <m_primary>  (40) 
energy

>  <meeko>  (40) 
{"free_energy": -8.0, "intermolecular_energy": -9.79, "internal_energy": -0.96, "cluster_size": 1, "cluster_id": 3, "rank_in_cluster": 1}

>  <energy>  (40) 
-5.98

>  <cluster_rmsd>  (40) 
0.0

>  <rmsd>  (40) 
271.11

>  <cluster>  (40) 
7

$$$$
MXRVYNFLTYDQGX-DQWMCRLMNA-P
     RDKit          3D

 66 70  0  0  0  0  0  0  0  0999 V2000
  141.2120   81.2340  223.8400 C   0  0  0  0  0  0  0  0  0  0  0  0
  142.3650   81.0750  223.0690 C   0  0  0  0  0  0  0  0  0  0  0  0
  142.4950   79.9710  222.2210 C   0  0  0  0  0  0  0  0  0  0  0  0
  141.4740   79.0100  222.1410 C   0  0  0  0  0  0  0  0  0  0  0  0
  140.2920   79.1870  222.9020 C   0  0  0  0  0  0  0  0  0  0  0  0
  140.1810   80.2930  223.7610 C   0  0  0  0  0  0  0  0  0  0  0  0
  139.1870   78.1560  222.8860 C   0  0  0  0  0  0  0  0  0  0  0  0
  139.2370   77.2900  221.6310 C   0  0  0  0  0  0  0  0  0  0  0  0
  140.6110   76.8180  221.4270 N   0  0  0  0  0  0  0  0  0  0  0  0
  140.9340   75.4120  221.4340 C   0  0  0  0  0  0  0  0  0  0  0  0
  140.1270   74.5250  222.0710 N   0  0  0  0  0  0  0  0  0  0  0  0
  140.4540   73.2080  222.1350 C   0  0  0  0  0  0  0  0  0  0  0  0
  139.5950   72.2740  222.8180 N   0  0  0  0  0  0  0  0  0  0  0  0
  140.2280   71.7270  224.0300 C   0  0  0  0  0  0  0  0  0  0  0  0
  139.9410   70.2200  224.2090 C   0  0  0  0  0  0  0  0  0  0  0  0
  139.6370   69.8010  225.6690 C   0  0  1  0  0  0  0  0  0  0  0  0
  139.6620   68.2560  225.8640 C   0  0  0  0  0  0  0  0  0  0  0  0
  140.7760   67.7960  226.8100 C   0  0  0  0  0  0  0  0  0  0  0  0
  140.7370   68.5480  228.1500 C   0  0  0  0  0  0  0  0  0  0  0  0
  140.2780   70.0120  228.0030 C   0  0  0  0  0  0  0  0  0  0  0  0
  140.4990   70.5150  226.6400 N   0  0  0  0  0  0  0  0  0  0  0  0
  141.5870   72.7710  221.5260 N   0  0  0  0  0  0  0  0  0  0  0  0
  142.3980   73.6430  220.8690 C   0  0  0  0  0  0  0  0  0  0  0  0
  143.6050   73.1770  220.2280 N   0  0  0  0  0  0  0  0  0  0  0  0
  143.5250   72.1950  219.1370 C   0  0  0  0  0  0  0  0  0  0  0  0
  144.7560   72.3050  218.2330 C   0  0  0  0  0  0  0  0  0  0  0  0
  145.9470   72.2540  218.9940 O   0  0  0  0  0  0  0  0  0  0  0  0
  146.0250   73.3980  219.8210 C   0  0  0  0  0  0  0  0  0  0  0  0
  144.9090   73.3890  220.8710 C   0  0  0  0  0  0  0  0  0  0  0  0
  142.0650   74.9600  220.8320 N   0  0  0  0  0  0  0  0  0  0  0  0
  141.6410   77.8420  221.1980 C   0  0  0  0  0  0  0  0  0  0  0  0
  141.1146   82.1006  224.5104 H   0  0  0  0  0  0  0  0  0  0  0  0
  143.1725   81.8195  223.1288 H   0  0  0  0  0  0  0  0  0  0  0  0
  143.4036   79.8543  221.6120 H   0  0  0  0  0  0  0  0  0  0  0  0
  139.2773   80.4195  224.3753 H   0  0  0  0  0  0  0  0  0  0  0  0
  139.2913   77.5088  223.7693 H   0  0  0  0  0  0  0  0  0  0  0  0
  138.2239   78.6874  222.8961 H   0  0  0  0  0  0  0  0  0  0  0  0
  138.5654   76.4272  221.7520 H   0  0  0  0  0  0  0  0  0  0  0  0
  138.9153   77.8806  220.7605 H   0  0  0  0  0  0  0  0  0  0  0  0
  138.7210   72.7830  223.0910 H   0  0  0  0  0  0  0  0  0  0  0  0
  139.3310   71.4910  222.1740 H   0  0  0  0  0  0  0  0  0  0  0  0
  141.3157   71.8744  223.9588 H   0  0  0  0  0  0  0  0  0  0  0  0
  139.8081   72.2561  224.8982 H   0  0  0  0  0  0  0  0  0  0  0  0
  139.0725   69.9579  223.5868 H   0  0  0  0  0  0  0  0  0  0  0  0
  140.8554   69.6863  223.9106 H   0  0  0  0  0  0  0  0  0  0  0  0
  138.6035   70.1130  225.8799 H   0  0  0  0  0  0  0  0  0  0  0  0
  138.6943   67.9383  226.2795 H   0  0  0  0  0  0  0  0  0  0  0  0
  139.8526   67.8007  224.8810 H   0  0  0  0  0  0  0  0  0  0  0  0
  140.6570   66.7196  227.0027 H   0  0  0  0  0  0  0  0  0  0  0  0
  141.7417   68.0082  226.3280 H   0  0  0  0  0  0  0  0  0  0  0  0
  140.0407   68.0279  228.8242 H   0  0  0  0  0  0  0  0  0  0  0  0
  141.7613   68.5618  228.5507 H   0  0  0  0  0  0  0  0  0  0  0  0
  139.2050   70.0747  228.2368 H   0  0  0  0  0  0  0  0  0  0  0  0
  140.8684   70.6285  228.6967 H   0  0  0  0  0  0  0  0  0  0  0  0
  140.2630   71.5350  226.6190 H   0  0  0  0  0  0  0  0  0  0  0  0
  141.5130   70.4130  226.4030 H   0  0  0  0  0  0  0  0  0  0  0  0
  143.4768   71.1820  219.5631 H   0  0  0  0  0  0  0  0  0  0  0  0
  142.6231   72.3954  218.5400 H   0  0  0  0  0  0  0  0  0  0  0  0
  144.7513   71.4716  217.5151 H   0  0  0  0  0  0  0  0  0  0  0  0
  144.7182   73.2684  217.7034 H   0  0  0  0  0  0  0  0  0  0  0  0
  146.9996   73.4083  220.3310 H   0  0  0  0  0  0  0  0  0  0  0  0
  145.9109   74.2944  219.1937 H   0  0  0  0  0  0  0  0  0  0  0  0
  145.0947   72.5782  221.5908 H   0  0  0  0  0  0  0  0  0  0  0  0
  144.8984   74.3588  221.3900 H   0  0  0  0  0  0  0  0  0  0  0  0
  142.6331   77.3936  221.3554 H   0  0  0  0  0  0  0  0  0  0  0  0
  141.5396   78.2115  220.1669 H   0  0  0  0  0  0  0  0  0  0  0  0
  1  2  2  0
  2  3  1  0
  3  4  2  0
  4  5  1  0
  5  6  2  0
  5  7  1  0
  7  8  1  0
  8  9  1  0
  9 10  1  0
 10 11  2  0
 11 12  1  0
 12 13  1  0
 13 14  1  0
 14 15  1  0
 15 16  1  0
 16 17  1  0
 17 18  1  0
 18 19  1  0
 19 20  1  0
 20 21  1  0
 12 22  2  0
 22 23  1  0
 23 24  1  0
 24 25  1  0
 25 26  1  0
 26 27  1  0
 27 28  1  0
 28 29  1  0
 23 30  2  0
  9 31  1  0
  6  1  1  0
 30 10  1  0
 31  4  1  0
 21 16  1  0
 29 24  1  0
  1 32  1  0
  2 33  1  0
  3 34  1  0
  6 35  1  0
  7 36  1  0
  7 37  1  0
  8 38  1  0
  8 39  1  0
 13 40  1  0
 13 41  1  0
 14 42  1  0
 14 43  1  0
 15 44  1  0
 15 45  1  0
 16 46  1  1
 17 47  1  0
 17 48  1  0
 18 49  1  0
 18 50  1  0
 19 51  1  0
 19 52  1  0
 20 53  1  0
 20 54  1  0
 21 55  1  0
 21 56  1  0
 25 57  1  0
 25 58  1  0
 26 59  1  0
 26 60  1  0
 28 61  1  0
 28 62  1  0
 29 63  1  0
 29 64  1  0
 31 65  1  0
 31 66  1  0
M  CHG  2  13   1  21   1
M  END
>  <UniqueID>  (41) 
489

>  <SMILES>  (41) 
c1ccc2c(c1)CCN(c1nc([NH2+]CC[C@H]3CCCC[NH2+]3)nc(N3CCOCC3)n1)C2

>  <Energy>  (41) 
77.74978138796354

>  <Genealogy>  (41) 
c1ccc2c(c1)CCN(c1nc([NH2+]CCC3CCCC[NH2+]3)nc(N3CCOCC3)n1)C2 (protonated)
c1ccc2c(c1)CCN(c1nc([NH2+]CC[C@H]3CCCC[NH2+]3)nc(N3CCOCC3)n1)C2 (chirality)
c1ccc2c(c1)CCN(c1nc([NH2+]CC[C@H]3CCCC[NH2+]3)nc(N3CCOCC3)n1)C2 (3D coordinates assigned)
c1ccc2c(c1)CCN(c1nc([NH2+]CC[C@H]3CCCC[NH2+]3)nc(N3CCOCC3)n1)C2 (nonaromatic ring conformer: 77.74978138796354 kcal/mol)

>  <smiles>  (41) 
c1ccc2c(c1)CCN(c1nc(NCCC3CCCCN3)nc(N3CCOCC3)n1)C2

>  <score_type>  (41) 
oracle

>  <origin>  (41) 
autodockgpu

>  <m_score__min__energy>  (41) 
-9.5299999999999994

>  <m_primary>  (41) 
energy

>  <meeko>  (41) 
{"free_energy": -9.27, "intermolecular_energy": -11.06, "internal_energy": 0.28, "cluster_size": 6, "cluster_id": 1, "rank_in_cluster": 5}

>  <energy>  (41) 
-9.53

>  <cluster_rmsd>  (41) 
0.0

>  <rmsd>  (41) 
270.52

>  <cluster>  (41) 
1

$$$$
MXRVYNFLTYDQGX-DQWMCRLMNA-P
     RDKit          3D

 66 70  0  0  0  0  0  0  0  0999 V2000
  141.6450   80.7020  224.2000 C   0  0  0  0  0  0  0  0  0  0  0  0
  141.8580   81.6440  223.1920 C   0  0  0  0  0  0  0  0  0  0  0  0
  141.8080   81.2590  221.8500 C   0  0  0  0  0  0  0  0  0  0  0  0
  141.5520   79.9230  221.5010 C   0  0  0  0  0  0  0  0  0  0  0  0
  141.3060   78.9730  222.5230 C   0  0  0  0  0  0  0  0  0  0  0  0
  141.3730   79.3710  223.8680 C   0  0  0  0  0  0  0  0  0  0  0  0
  141.0730   77.5160  222.1990 C   0  0  0  0  0  0  0  0  0  0  0  0
  140.5960   77.3220  220.7630 C   0  0  0  0  0  0  0  0  0  0  0  0
  141.4630   78.0890  219.8620 N   0  0  0  0  0  0  0  0  0  0  0  0
  142.2450   77.4420  218.8360 C   0  0  0  0  0  0  0  0  0  0  0  0
  142.3150   77.9730  217.5890 N   0  0  0  0  0  0  0  0  0  0  0  0
  142.9990   77.3390  216.6000 C   0  0  0  0  0  0  0  0  0  0  0  0
  143.0650   77.9070  215.2780 N   0  0  0  0  0  0  0  0  0  0  0  0
  141.9220   78.7960  215.0030 C   0  0  0  0  0  0  0  0  0  0  0  0
  142.3230   80.0170  214.1460 C   0  0  0  0  0  0  0  0  0  0  0  0
  142.3650   81.3540  214.9260 C   0  0  1  0  0  0  0  0  0  0  0  0
  141.8150   81.2160  216.3760 C   0  0  0  0  0  0  0  0  0  0  0  0
  142.8820   81.4840  217.4430 C   0  0  0  0  0  0  0  0  0  0  0  0
  143.5920   82.8290  217.2190 C   0  0  0  0  0  0  0  0  0  0  0  0
  143.7550   83.1790  215.7270 C   0  0  0  0  0  0  0  0  0  0  0  0
  143.7080   81.9790  214.8800 N   0  0  0  0  0  0  0  0  0  0  0  0
  143.6440   76.1760  216.8750 N   0  0  0  0  0  0  0  0  0  0  0  0
  143.5980   75.6380  218.1230 C   0  0  0  0  0  0  0  0  0  0  0  0
  144.2800   74.3980  218.4100 N   0  0  0  0  0  0  0  0  0  0  0  0
  144.6580   74.0720  219.7930 C   0  0  0  0  0  0  0  0  0  0  0  0
  144.7820   72.5550  219.9660 C   0  0  0  0  0  0  0  0  0  0  0  0
  145.6210   72.0020  218.9720 O   0  0  0  0  0  0  0  0  0  0  0  0
  145.0120   72.1540  217.7040 C   0  0  0  0  0  0  0  0  0  0  0  0
  144.9090   73.6340  217.3240 C   0  0  0  0  0  0  0  0  0  0  0  0
  142.8930   76.2760  219.0950 N   0  0  0  0  0  0  0  0  0  0  0  0
  141.4860   79.5490  220.0400 C   0  0  0  0  0  0  0  0  0  0  0  0
  141.6911   81.0068  225.2559 H   0  0  0  0  0  0  0  0  0  0  0  0
  142.0657   82.6917  223.4550 H   0  0  0  0  0  0  0  0  0  0  0  0
  141.9703   82.0079  221.0608 H   0  0  0  0  0  0  0  0  0  0  0  0
  141.2105   78.6311  224.6656 H   0  0  0  0  0  0  0  0  0  0  0  0
  142.0152   76.9656  222.3382 H   0  0  0  0  0  0  0  0  0  0  0  0
  140.2898   77.1379  222.8725 H   0  0  0  0  0  0  0  0  0  0  0  0
  140.6433   76.2549  220.5000 H   0  0  0  0  0  0  0  0  0  0  0  0
  139.5579   77.6729  220.6665 H   0  0  0  0  0  0  0  0  0  0  0  0
  143.9500   78.4620  215.2100 H   0  0  0  0  0  0  0  0  0  0  0  0
  143.0980   77.1460  214.5590 H   0  0  0  0  0  0  0  0  0  0  0  0
  141.1505   78.2247  214.4660 H   0  0  0  0  0  0  0  0  0  0  0  0
  141.5464   79.1698  215.9670 H   0  0  0  0  0  0  0  0  0  0  0  0
  143.3227   79.8307  213.7267 H   0  0  0  0  0  0  0  0  0  0  0  0
  141.5496   80.1272  213.3715 H   0  0  0  0  0  0  0  0  0  0  0  0
  141.6810   82.0439  214.4101 H   0  0  0  0  0  0  0  0  0  0  0  0
  140.9944   81.9360  216.5108 H   0  0  0  0  0  0  0  0  0  0  0  0
  141.4721   80.1786  216.5032 H   0  0  0  0  0  0  0  0  0  0  0  0
  142.4006   81.4964  218.4320 H   0  0  0  0  0  0  0  0  0  0  0  0
  143.6361   80.6858  217.3788 H   0  0  0  0  0  0  0  0  0  0  0  0
  143.0031   83.6219  217.7034 H   0  0  0  0  0  0  0  0  0  0  0  0
  144.6002   82.7465  217.6511 H   0  0  0  0  0  0  0  0  0  0  0  0
  142.9424   83.8579  215.4291 H   0  0  0  0  0  0  0  0  0  0  0  0
  144.7366   83.6566  215.5916 H   0  0  0  0  0  0  0  0  0  0  0  0
  143.9200   82.2600  213.8930 H   0  0  0  0  0  0  0  0  0  0  0  0
  144.4540   81.3150  215.1930 H   0  0  0  0  0  0  0  0  0  0  0  0
  145.6238   74.5441  220.0262 H   0  0  0  0  0  0  0  0  0  0  0  0
  143.8808   74.4478  220.4747 H   0  0  0  0  0  0  0  0  0  0  0  0
  145.2069   72.3389  220.9573 H   0  0  0  0  0  0  0  0  0  0  0  0
  143.7818   72.1071  219.8714 H   0  0  0  0  0  0  0  0  0  0  0  0
  145.6154   71.6289  216.9489 H   0  0  0  0  0  0  0  0  0  0  0  0
  143.9981   71.7296  217.7467 H   0  0  0  0  0  0  0  0  0  0  0  0
  145.9176   74.0316  217.1378 H   0  0  0  0  0  0  0  0  0  0  0  0
  144.2929   73.7281  216.4176 H   0  0  0  0  0  0  0  0  0  0  0  0
  142.3675   79.9588  219.5251 H   0  0  0  0  0  0  0  0  0  0  0  0
  140.5596   79.9647  219.6169 H   0  0  0  0  0  0  0  0  0  0  0  0
  1  2  2  0
  2  3  1  0
  3  4  2  0
  4  5  1  0
  5  6  2  0
  5  7  1  0
  7  8  1  0
  8  9  1  0
  9 10  1  0
 10 11  2  0
 11 12  1  0
 12 13  1  0
 13 14  1  0
 14 15  1  0
 15 16  1  0
 16 17  1  0
 17 18  1  0
 18 19  1  0
 19 20  1  0
 20 21  1  0
 12 22  2  0
 22 23  1  0
 23 24  1  0
 24 25  1  0
 25 26  1  0
 26 27  1  0
 27 28  1  0
 28 29  1  0
 23 30  2  0
  9 31  1  0
  6  1  1  0
 30 10  1  0
 31  4  1  0
 21 16  1  0
 29 24  1  0
  1 32  1  0
  2 33  1  0
  3 34  1  0
  6 35  1  0
  7 36  1  0
  7 37  1  0
  8 38  1  0
  8 39  1  0
 13 40  1  0
 13 41  1  0
 14 42  1  0
 14 43  1  0
 15 44  1  0
 15 45  1  0
 16 46  1  6
 17 47  1  0
 17 48  1  0
 18 49  1  0
 18 50  1  0
 19 51  1  0
 19 52  1  0
 20 53  1  0
 20 54  1  0
 21 55  1  0
 21 56  1  0
 25 57  1  0
 25 58  1  0
 26 59  1  0
 26 60  1  0
 28 61  1  0
 28 62  1  0
 29 63  1  0
 29 64  1  0
 31 65  1  0
 31 66  1  0
M  CHG  2  13   1  21   1
M  END
>  <UniqueID>  (42) 
489

>  <SMILES>  (42) 
c1ccc2c(c1)CCN(c1nc([NH2+]CC[C@H]3CCCC[NH2+]3)nc(N3CCOCC3)n1)C2

>  <Energy>  (42) 
77.74978138796354

>  <Genealogy>  (42) 
c1ccc2c(c1)CCN(c1nc([NH2+]CCC3CCCC[NH2+]3)nc(N3CCOCC3)n1)C2 (protonated)
c1ccc2c(c1)CCN(c1nc([NH2+]CC[C@H]3CCCC[NH2+]3)nc(N3CCOCC3)n1)C2 (chirality)
c1ccc2c(c1)CCN(c1nc([NH2+]CC[C@H]3CCCC[NH2+]3)nc(N3CCOCC3)n1)C2 (3D coordinates assigned)
c1ccc2c(c1)CCN(c1nc([NH2+]CC[C@H]3CCCC[NH2+]3)nc(N3CCOCC3)n1)C2 (nonaromatic ring conformer: 77.74978138796354 kcal/mol)

>  <smiles>  (42) 
c1ccc2c(c1)CCN(c1nc(NCCC3CCCCN3)nc(N3CCOCC3)n1)C2

>  <score_type>  (42) 
oracle

>  <origin>  (42) 
autodockgpu

>  <m_score__min__energy>  (42) 
-9.5299999999999994

>  <m_primary>  (42) 
energy

>  <meeko>  (42) 
{"free_energy": -8.85, "intermolecular_energy": -10.64, "internal_energy": -0.35, "cluster_size": 3, "cluster_id": 3, "rank_in_cluster": 1}

>  <energy>  (42) 
-9.53

>  <cluster_rmsd>  (42) 
0.1

>  <rmsd>  (42) 
270.49

>  <cluster>  (42) 
1

$$$$
MXRVYNFLTYDQGX-DQWMCRLMNA-P
     RDKit          3D

 66 70  0  0  0  0  0  0  0  0999 V2000
  140.3120   67.3460  226.4760 C   0  0  0  0  0  0  0  0  0  0  0  0
  141.2400   68.2330  227.0230 C   0  0  0  0  0  0  0  0  0  0  0  0
  141.3060   69.5510  226.5630 C   0  0  0  0  0  0  0  0  0  0  0  0
  140.4460   69.9940  225.5460 C   0  0  0  0  0  0  0  0  0  0  0  0
  139.4830   69.1020  225.0110 C   0  0  0  0  0  0  0  0  0  0  0  0
  139.4390   67.7760  225.4720 C   0  0  0  0  0  0  0  0  0  0  0  0
  138.5690   69.5180  223.8830 C   0  0  0  0  0  0  0  0  0  0  0  0
  138.4210   71.0340  223.8020 C   0  0  0  0  0  0  0  0  0  0  0  0
  139.7500   71.6510  223.8630 N   0  0  0  0  0  0  0  0  0  0  0  0
  140.2600   72.4510  222.7760 C   0  0  0  0  0  0  0  0  0  0  0  0
  139.5220   73.4710  222.2690 N   0  0  0  0  0  0  0  0  0  0  0  0
  139.9680   74.1910  221.2060 C   0  0  0  0  0  0  0  0  0  0  0  0
  139.1750   75.2690  220.6720 N   0  0  0  0  0  0  0  0  0  0  0  0
  139.9850   76.4730  220.4130 C   0  0  0  0  0  0  0  0  0  0  0  0
  140.8910   76.8360  221.6110 C   0  0  0  0  0  0  0  0  0  0  0  0
  141.0040   78.3560  221.8830 C   0  0  1  0  0  0  0  0  0  0  0  0
  140.4140   78.7600  223.2660 C   0  0  0  0  0  0  0  0  0  0  0  0
  141.4730   79.3220  224.2210 C   0  0  0  0  0  0  0  0  0  0  0  0
  142.2760   80.4640  223.5780 C   0  0  0  0  0  0  0  0  0  0  0  0
  142.4960   80.2660  222.0660 C   0  0  0  0  0  0  0  0  0  0  0  0
  142.3870   78.8510  221.6830 N   0  0  0  0  0  0  0  0  0  0  0  0
  141.1810   73.9050  220.6680 N   0  0  0  0  0  0  0  0  0  0  0  0
  141.9410   72.8980  221.1740 C   0  0  0  0  0  0  0  0  0  0  0  0
  143.2280   72.5910  220.5950 N   0  0  0  0  0  0  0  0  0  0  0  0
  143.5080   71.2340  220.1060 C   0  0  0  0  0  0  0  0  0  0  0  0
  144.6000   71.2710  219.0330 C   0  0  0  0  0  0  0  0  0  0  0  0
  145.7320   71.9850  219.4900 O   0  0  0  0  0  0  0  0  0  0  0  0
  145.3860   73.3440  219.6750 C   0  0  0  0  0  0  0  0  0  0  0  0
  144.3660   73.4970  220.8070 C   0  0  0  0  0  0  0  0  0  0  0  0
  141.4710   72.1750  222.2250 N   0  0  0  0  0  0  0  0  0  0  0  0
  140.5310   71.4310  225.0890 C   0  0  0  0  0  0  0  0  0  0  0  0
  140.2672   66.3072  226.8351 H   0  0  0  0  0  0  0  0  0  0  0  0
  141.9209   67.8942  227.8177 H   0  0  0  0  0  0  0  0  0  0  0  0
  142.0372   70.2463  227.0011 H   0  0  0  0  0  0  0  0  0  0  0  0
  138.7130   67.0712  225.0404 H   0  0  0  0  0  0  0  0  0  0  0  0
  138.9851   69.1499  222.9336 H   0  0  0  0  0  0  0  0  0  0  0  0
  137.5747   69.0876  224.0728 H   0  0  0  0  0  0  0  0  0  0  0  0
  137.9319   71.3061  222.8550 H   0  0  0  0  0  0  0  0  0  0  0  0
  137.8081   71.3914  224.6426 H   0  0  0  0  0  0  0  0  0  0  0  0
  138.7550   74.9430  219.7700 H   0  0  0  0  0  0  0  0  0  0  0  0
  138.3960   75.5050  221.3310 H   0  0  0  0  0  0  0  0  0  0  0  0
  140.6184   76.2911  219.5322 H   0  0  0  0  0  0  0  0  0  0  0  0
  139.2959   77.3136  220.2439 H   0  0  0  0  0  0  0  0  0  0  0  0
  140.4823   76.3538  222.5112 H   0  0  0  0  0  0  0  0  0  0  0  0
  141.9025   76.4834  221.3609 H   0  0  0  0  0  0  0  0  0  0  0  0
  140.3787   78.8609  221.1319 H   0  0  0  0  0  0  0  0  0  0  0  0
  139.6407   79.5262  223.1082 H   0  0  0  0  0  0  0  0  0  0  0  0
  139.9994   77.8518  223.7278 H   0  0  0  0  0  0  0  0  0  0  0  0
  140.9720   79.7034  225.1229 H   0  0  0  0  0  0  0  0  0  0  0  0
  142.1731   78.5107  224.4694 H   0  0  0  0  0  0  0  0  0  0  0  0
  141.7307   81.4067  223.7327 H   0  0  0  0  0  0  0  0  0  0  0  0
  143.2666   80.4804  224.0560 H   0  0  0  0  0  0  0  0  0  0  0  0
  141.7382   80.8437  221.5165 H   0  0  0  0  0  0  0  0  0  0  0  0
  143.5104   80.6119  221.8182 H   0  0  0  0  0  0  0  0  0  0  0  0
  142.6390   78.7600  220.6700 H   0  0  0  0  0  0  0  0  0  0  0  0
  143.0800   78.2970  222.2390 H   0  0  0  0  0  0  0  0  0  0  0  0
  143.8450   70.6080  220.9454 H   0  0  0  0  0  0  0  0  0  0  0  0
  142.5901   70.8147  219.6683 H   0  0  0  0  0  0  0  0  0  0  0  0
  144.8987   70.2412  218.7873 H   0  0  0  0  0  0  0  0  0  0  0  0
  144.2006   71.7779  218.1422 H   0  0  0  0  0  0  0  0  0  0  0  0
  146.2917   73.9156  219.9261 H   0  0  0  0  0  0  0  0  0  0  0  0
  144.9390   73.7235  218.7443 H   0  0  0  0  0  0  0  0  0  0  0  0
  144.8487   73.2551  221.7654 H   0  0  0  0  0  0  0  0  0  0  0  0
  143.9997   74.5341  220.8205 H   0  0  0  0  0  0  0  0  0  0  0  0
  141.5837   71.6825  224.8927 H   0  0  0  0  0  0  0  0  0  0  0  0
  140.1181   72.0716  225.8822 H   0  0  0  0  0  0  0  0  0  0  0  0
  1  2  2  0
  2  3  1  0
  3  4  2  0
  4  5  1  0
  5  6  2  0
  5  7  1  0
  7  8  1  0
  8  9  1  0
  9 10  1  0
 10 11  2  0
 11 12  1  0
 12 13  1  0
 13 14  1  0
 14 15  1  0
 15 16  1  0
 16 17  1  0
 17 18  1  0
 18 19  1  0
 19 20  1  0
 20 21  1  0
 12 22  2  0
 22 23  1  0
 23 24  1  0
 24 25  1  0
 25 26  1  0
 26 27  1  0
 27 28  1  0
 28 29  1  0
 23 30  2  0
  9 31  1  0
  6  1  1  0
 30 10  1  0
 31  4  1  0
 21 16  1  0
 29 24  1  0
  1 32  1  0
  2 33  1  0
  3 34  1  0
  6 35  1  0
  7 36  1  0
  7 37  1  0
  8 38  1  0
  8 39  1  0
 13 40  1  0
 13 41  1  0
 14 42  1  0
 14 43  1  0
 15 44  1  0
 15 45  1  0
 16 46  1  6
 17 47  1  0
 17 48  1  0
 18 49  1  0
 18 50  1  0
 19 51  1  0
 19 52  1  0
 20 53  1  0
 20 54  1  0
 21 55  1  0
 21 56  1  0
 25 57  1  0
 25 58  1  0
 26 59  1  0
 26 60  1  0
 28 61  1  0
 28 62  1  0
 29 63  1  0
 29 64  1  0
 31 65  1  0
 31 66  1  0
M  CHG  2  13   1  21   1
M  END
>  <UniqueID>  (43) 
489

>  <SMILES>  (43) 
c1ccc2c(c1)CCN(c1nc([NH2+]CC[C@H]3CCCC[NH2+]3)nc(N3CCOCC3)n1)C2

>  <Energy>  (43) 
77.74978138796354

>  <Genealogy>  (43) 
c1ccc2c(c1)CCN(c1nc([NH2+]CCC3CCCC[NH2+]3)nc(N3CCOCC3)n1)C2 (protonated)
c1ccc2c(c1)CCN(c1nc([NH2+]CC[C@H]3CCCC[NH2+]3)nc(N3CCOCC3)n1)C2 (chirality)
c1ccc2c(c1)CCN(c1nc([NH2+]CC[C@H]3CCCC[NH2+]3)nc(N3CCOCC3)n1)C2 (3D coordinates assigned)
c1ccc2c(c1)CCN(c1nc([NH2+]CC[C@H]3CCCC[NH2+]3)nc(N3CCOCC3)n1)C2 (nonaromatic ring conformer: 77.74978138796354 kcal/mol)

>  <smiles>  (43) 
c1ccc2c(c1)CCN(c1nc(NCCC3CCCCN3)nc(N3CCOCC3)n1)C2

>  <score_type>  (43) 
oracle

>  <origin>  (43) 
autodockgpu

>  <m_score__min__energy>  (43) 
-9.5299999999999994

>  <m_primary>  (43) 
energy

>  <meeko>  (43) 
{"free_energy": -9.46, "intermolecular_energy": -11.25, "internal_energy": -0.06, "cluster_size": 3, "cluster_id": 2, "rank_in_cluster": 1}

>  <energy>  (43) 
-9.5

>  <cluster_rmsd>  (43) 
0.67

>  <rmsd>  (43) 
270.53

>  <cluster>  (43) 
1

$$$$
MXRVYNFLTYDQGX-DQWMCRLMNA-P
     RDKit          3D

 66 70  0  0  0  0  0  0  0  0999 V2000
  141.6830   80.7240  224.1910 C   0  0  0  0  0  0  0  0  0  0  0  0
  141.9060   81.6610  223.1810 C   0  0  0  0  0  0  0  0  0  0  0  0
  141.8740   81.2680  221.8400 C   0  0  0  0  0  0  0  0  0  0  0  0
  141.6250   79.9290  221.4960 C   0  0  0  0  0  0  0  0  0  0  0  0
  141.3700   78.9840  222.5200 C   0  0  0  0  0  0  0  0  0  0  0  0
  141.4200   79.3900  223.8640 C   0  0  0  0  0  0  0  0  0  0  0  0
  141.1450   77.5250  222.2020 C   0  0  0  0  0  0  0  0  0  0  0  0
  140.6860   77.3210  220.7610 C   0  0  0  0  0  0  0  0  0  0  0  0
  141.5610   78.0850  219.8670 N   0  0  0  0  0  0  0  0  0  0  0  0
  142.3570   77.4340  218.8540 C   0  0  0  0  0  0  0  0  0  0  0  0
  142.4620   77.9730  217.6120 N   0  0  0  0  0  0  0  0  0  0  0  0
  143.1590   77.3350  216.6350 C   0  0  0  0  0  0  0  0  0  0  0  0
  143.2620   77.9120  215.3180 N   0  0  0  0  0  0  0  0  0  0  0  0
  141.9430   78.0590  214.6770 C   0  0  0  0  0  0  0  0  0  0  0  0
  141.0270   79.0390  215.4430 C   0  0  0  0  0  0  0  0  0  0  0  0
  141.6630   80.4270  215.7080 C   0  0  1  0  0  0  0  0  0  0  0  0
  140.6140   81.5770  215.6870 C   0  0  0  0  0  0  0  0  0  0  0  0
  140.4710   82.2730  217.0450 C   0  0  0  0  0  0  0  0  0  0  0  0
  141.8280   82.7370  217.5970 C   0  0  0  0  0  0  0  0  0  0  0  0
  142.9820   81.7820  217.2340 C   0  0  0  0  0  0  0  0  0  0  0  0
  142.4910   80.4290  216.9370 N   0  0  0  0  0  0  0  0  0  0  0  0
  143.7830   76.1620  216.9160 N   0  0  0  0  0  0  0  0  0  0  0  0
  143.7020   75.6180  218.1590 C   0  0  0  0  0  0  0  0  0  0  0  0
  144.3610   74.3670  218.4530 N   0  0  0  0  0  0  0  0  0  0  0  0
  144.7460   74.0480  219.8360 C   0  0  0  0  0  0  0  0  0  0  0  0
  144.8400   72.5300  220.0230 C   0  0  0  0  0  0  0  0  0  0  0  0
  145.6590   71.9500  219.0280 O   0  0  0  0  0  0  0  0  0  0  0  0
  145.0420   72.1010  217.7640 C   0  0  0  0  0  0  0  0  0  0  0  0
  144.9650   73.5790  217.3700 C   0  0  0  0  0  0  0  0  0  0  0  0
  142.9850   76.2590  219.1190 N   0  0  0  0  0  0  0  0  0  0  0  0
  141.5780   79.5460  220.0360 C   0  0  0  0  0  0  0  0  0  0  0  0
  141.7141   81.0352  225.2456 H   0  0  0  0  0  0  0  0  0  0  0  0
  142.1073   82.7108  223.4408 H   0  0  0  0  0  0  0  0  0  0  0  0
  142.0450   82.0125  221.0485 H   0  0  0  0  0  0  0  0  0  0  0  0
  141.2513   78.6541  224.6640 H   0  0  0  0  0  0  0  0  0  0  0  0
  142.0869   76.9781  222.3560 H   0  0  0  0  0  0  0  0  0  0  0  0
  140.3546   77.1488  222.8681 H   0  0  0  0  0  0  0  0  0  0  0  0
  140.7399   76.2526  220.5049 H   0  0  0  0  0  0  0  0  0  0  0  0
  139.6481   77.6679  220.6497 H   0  0  0  0  0  0  0  0  0  0  0  0
  143.7000   78.8570  215.4140 H   0  0  0  0  0  0  0  0  0  0  0  0
  143.8820   77.3220  214.7140 H   0  0  0  0  0  0  0  0  0  0  0  0
  142.0867   78.4353  213.6534 H   0  0  0  0  0  0  0  0  0  0  0  0
  141.4563   77.0725  214.6767 H   0  0  0  0  0  0  0  0  0  0  0  0
  140.1100   79.1865  214.8536 H   0  0  0  0  0  0  0  0  0  0  0  0
  140.8329   78.5870  216.4269 H   0  0  0  0  0  0  0  0  0  0  0  0
  142.3461   80.6293  214.8698 H   0  0  0  0  0  0  0  0  0  0  0  0
  140.9245   82.3228  214.9404 H   0  0  0  0  0  0  0  0  0  0  0  0
  139.6392   81.1326  215.4375 H   0  0  0  0  0  0  0  0  0  0  0  0
  139.8162   83.1491  216.9283 H   0  0  0  0  0  0  0  0  0  0  0  0
  140.0434   81.5500  217.7552 H   0  0  0  0  0  0  0  0  0  0  0  0
  142.0529   83.7317  217.1848 H   0  0  0  0  0  0  0  0  0  0  0  0
  141.7487   82.7565  218.6940 H   0  0  0  0  0  0  0  0  0  0  0  0
  143.5051   82.1742  216.3494 H   0  0  0  0  0  0  0  0  0  0  0  0
  143.6617   81.7199  218.0967 H   0  0  0  0  0  0  0  0  0  0  0  0
  143.3170   79.8000  216.7930 H   0  0  0  0  0  0  0  0  0  0  0  0
  141.9570   80.0740  217.7640 H   0  0  0  0  0  0  0  0  0  0  0  0
  145.7237   74.5022  220.0548 H   0  0  0  0  0  0  0  0  0  0  0  0
  143.9841   74.4474  220.5216 H   0  0  0  0  0  0  0  0  0  0  0  0
  145.2685   72.3147  221.0130 H   0  0  0  0  0  0  0  0  0  0  0  0
  143.8300   72.1021  219.9408 H   0  0  0  0  0  0  0  0  0  0  0  0
  145.6282   71.5565  217.0091 H   0  0  0  0  0  0  0  0  0  0  0  0
  144.0204   71.6970  217.8196 H   0  0  0  0  0  0  0  0  0  0  0  0
  145.9796   73.9544  217.1710 H   0  0  0  0  0  0  0  0  0  0  0  0
  144.3425   73.6759  216.4683 H   0  0  0  0  0  0  0  0  0  0  0  0
  142.4647   79.9550  219.5295 H   0  0  0  0  0  0  0  0  0  0  0  0
  140.6560   79.9568  219.5988 H   0  0  0  0  0  0  0  0  0  0  0  0
  1  2  2  0
  2  3  1  0
  3  4  2  0
  4  5  1  0
  5  6  2  0
  5  7  1  0
  7  8  1  0
  8  9  1  0
  9 10  1  0
 10 11  2  0
 11 12  1  0
 12 13  1  0
 13 14  1  0
 14 15  1  0
 15 16  1  0
 16 17  1  0
 17 18  1  0
 18 19  1  0
 19 20  1  0
 20 21  1  0
 12 22  2  0
 22 23  1  0
 23 24  1  0
 24 25  1  0
 25 26  1  0
 26 27  1  0
 27 28  1  0
 28 29  1  0
 23 30  2  0
  9 31  1  0
  6  1  1  0
 30 10  1  0
 31  4  1  0
 21 16  1  0
 29 24  1  0
  1 32  1  0
  2 33  1  0
  3 34  1  0
  6 35  1  0
  7 36  1  0
  7 37  1  0
  8 38  1  0
  8 39  1  0
 13 40  1  0
 13 41  1  0
 14 42  1  0
 14 43  1  0
 15 44  1  0
 15 45  1  0
 16 46  1  6
 17 47  1  0
 17 48  1  0
 18 49  1  0
 18 50  1  0
 19 51  1  0
 19 52  1  0
 20 53  1  0
 20 54  1  0
 21 55  1  0
 21 56  1  0
 25 57  1  0
 25 58  1  0
 26 59  1  0
 26 60  1  0
 28 61  1  0
 28 62  1  0
 29 63  1  0
 29 64  1  0
 31 65  1  0
 31 66  1  0
M  CHG  2  13   1  21   1
M  END
>  <UniqueID>  (44) 
489

>  <SMILES>  (44) 
c1ccc2c(c1)CCN(c1nc([NH2+]CC[C@H]3CCCC[NH2+]3)nc(N3CCOCC3)n1)C2

>  <Energy>  (44) 
77.74978138796354

>  <Genealogy>  (44) 
c1ccc2c(c1)CCN(c1nc([NH2+]CCC3CCCC[NH2+]3)nc(N3CCOCC3)n1)C2 (protonated)
c1ccc2c(c1)CCN(c1nc([NH2+]CC[C@H]3CCCC[NH2+]3)nc(N3CCOCC3)n1)C2 (chirality)
c1ccc2c(c1)CCN(c1nc([NH2+]CC[C@H]3CCCC[NH2+]3)nc(N3CCOCC3)n1)C2 (3D coordinates assigned)
c1ccc2c(c1)CCN(c1nc([NH2+]CC[C@H]3CCCC[NH2+]3)nc(N3CCOCC3)n1)C2 (nonaromatic ring conformer: 77.74978138796354 kcal/mol)

>  <smiles>  (44) 
c1ccc2c(c1)CCN(c1nc(NCCC3CCCCN3)nc(N3CCOCC3)n1)C2

>  <score_type>  (44) 
oracle

>  <origin>  (44) 
autodockgpu

>  <m_score__min__energy>  (44) 
-9.5299999999999994

>  <m_primary>  (44) 
energy

>  <meeko>  (44) 
{"free_energy": -8.26, "intermolecular_energy": -10.05, "internal_energy": -0.87, "cluster_size": 3, "cluster_id": 3, "rank_in_cluster": 2}

>  <energy>  (44) 
-9.5

>  <cluster_rmsd>  (44) 
0.29

>  <rmsd>  (44) 
270.48

>  <cluster>  (44) 
1

$$$$
MXRVYNFLTYDQGX-DQWMCRLMNA-P
     RDKit          3D

 66 70  0  0  0  0  0  0  0  0999 V2000
  141.3780   81.2650  223.8420 C   0  0  0  0  0  0  0  0  0  0  0  0
  142.5080   81.0780  223.0440 C   0  0  0  0  0  0  0  0  0  0  0  0
  142.5860   79.9760  222.1880 C   0  0  0  0  0  0  0  0  0  0  0  0
  141.5370   79.0450  222.1270 C   0  0  0  0  0  0  0  0  0  0  0  0
  140.3780   79.2510  222.9150 C   0  0  0  0  0  0  0  0  0  0  0  0
  140.3190   80.3550  223.7820 C   0  0  0  0  0  0  0  0  0  0  0  0
  139.2440   78.2530  222.9200 C   0  0  0  0  0  0  0  0  0  0  0  0
  139.2400   77.3930  221.6600 C   0  0  0  0  0  0  0  0  0  0  0  0
  140.5940   76.8830  221.4230 N   0  0  0  0  0  0  0  0  0  0  0  0
  140.8760   75.4670  221.4150 C   0  0  0  0  0  0  0  0  0  0  0  0
  140.0040   74.5910  221.9740 N   0  0  0  0  0  0  0  0  0  0  0  0
  140.2890   73.2620  222.0250 C   0  0  0  0  0  0  0  0  0  0  0  0
  139.3590   72.3390  222.6240 N   0  0  0  0  0  0  0  0  0  0  0  0
  138.3690   71.8460  221.6510 C   0  0  0  0  0  0  0  0  0  0  0  0
  137.8280   72.9740  220.7440 C   0  0  0  0  0  0  0  0  0  0  0  0
  136.7960   73.9010  221.4330 C   0  0  1  0  0  0  0  0  0  0  0  0
  135.6650   73.1060  222.1500 C   0  0  0  0  0  0  0  0  0  0  0  0
  135.6670   73.3120  223.6680 C   0  0  0  0  0  0  0  0  0  0  0  0
  135.6550   74.8030  224.0440 C   0  0  0  0  0  0  0  0  0  0  0  0
  136.4470   75.6780  223.0540 C   0  0  0  0  0  0  0  0  0  0  0  0
  137.4500   74.8930  222.3190 N   0  0  0  0  0  0  0  0  0  0  0  0
  141.4480   72.8070  221.4830 N   0  0  0  0  0  0  0  0  0  0  0  0
  142.3260   73.6700  220.9050 C   0  0  0  0  0  0  0  0  0  0  0  0
  143.5600   73.1840  220.3340 N   0  0  0  0  0  0  0  0  0  0  0  0
  144.7870   73.9850  220.4480 C   0  0  0  0  0  0  0  0  0  0  0  0
  146.0210   73.0830  220.3550 C   0  0  0  0  0  0  0  0  0  0  0  0
  145.9550   72.2550  219.2110 O   0  0  0  0  0  0  0  0  0  0  0  0
  144.8770   71.3490  219.3490 C   0  0  0  0  0  0  0  0  0  0  0  0
  143.5380   72.0920  219.3500 C   0  0  0  0  0  0  0  0  0  0  0  0
  142.0330   74.9970  220.8790 N   0  0  0  0  0  0  0  0  0  0  0  0
  141.6480   77.8780  221.1750 C   0  0  0  0  0  0  0  0  0  0  0  0
  141.3210   82.1300  224.5191 H   0  0  0  0  0  0  0  0  0  0  0  0
  143.3378   81.7987  223.0890 H   0  0  0  0  0  0  0  0  0  0  0  0
  143.4763   79.8370  221.5571 H   0  0  0  0  0  0  0  0  0  0  0  0
  139.4337   80.5041  224.4176 H   0  0  0  0  0  0  0  0  0  0  0  0
  139.3499   77.5982  223.7975 H   0  0  0  0  0  0  0  0  0  0  0  0
  138.2972   78.8118  222.9553 H   0  0  0  0  0  0  0  0  0  0  0  0
  138.5465   76.5494  221.7920 H   0  0  0  0  0  0  0  0  0  0  0  0
  138.9158   77.9972  220.7999 H   0  0  0  0  0  0  0  0  0  0  0  0
  139.9050   71.5270  222.9940 H   0  0  0  0  0  0  0  0  0  0  0  0
  138.8650   72.7960  223.4270 H   0  0  0  0  0  0  0  0  0  0  0  0
  138.8441   71.0810  221.0193 H   0  0  0  0  0  0  0  0  0  0  0  0
  137.5206   71.4305  222.2145 H   0  0  0  0  0  0  0  0  0  0  0  0
  138.6781   73.5890  220.4137 H   0  0  0  0  0  0  0  0  0  0  0  0
  137.3062   72.4853  219.9080 H   0  0  0  0  0  0  0  0  0  0  0  0
  136.3000   74.4730  220.6350 H   0  0  0  0  0  0  0  0  0  0  0  0
  134.6949   73.4376  221.7513 H   0  0  0  0  0  0  0  0  0  0  0  0
  135.8394   72.0367  221.9600 H   0  0  0  0  0  0  0  0  0  0  0  0
  134.7741   72.8307  224.0934 H   0  0  0  0  0  0  0  0  0  0  0  0
  136.5880   72.8659  224.0715 H   0  0  0  0  0  0  0  0  0  0  0  0
  134.6119   75.1515  224.0635 H   0  0  0  0  0  0  0  0  0  0  0  0
  136.1375   74.8989  225.0279 H   0  0  0  0  0  0  0  0  0  0  0  0
  135.7463   76.1255  222.3338 H   0  0  0  0  0  0  0  0  0  0  0  0
  136.9722   76.4562  223.6272 H   0  0  0  0  0  0  0  0  0  0  0  0
  138.0210   75.5480  221.7340 H   0  0  0  0  0  0  0  0  0  0  0  0
  138.0890   74.4330  223.0080 H   0  0  0  0  0  0  0  0  0  0  0  0
  144.8152   74.7236  219.6334 H   0  0  0  0  0  0  0  0  0  0  0  0
  144.7908   74.4973  221.4214 H   0  0  0  0  0  0  0  0  0  0  0  0
  146.9223   73.7107  220.2939 H   0  0  0  0  0  0  0  0  0  0  0  0
  146.0579   72.4442  221.2498 H   0  0  0  0  0  0  0  0  0  0  0  0
  144.8941   70.6379  218.5099 H   0  0  0  0  0  0  0  0  0  0  0  0
  144.9849   70.8161  220.3052 H   0  0  0  0  0  0  0  0  0  0  0  0
  143.3541   72.5094  218.3490 H   0  0  0  0  0  0  0  0  0  0  0  0
  142.7378   71.3861  219.6174 H   0  0  0  0  0  0  0  0  0  0  0  0
  142.6299   77.4001  221.3071 H   0  0  0  0  0  0  0  0  0  0  0  0
  141.5336   78.2559  220.1483 H   0  0  0  0  0  0  0  0  0  0  0  0
  1  2  2  0
  2  3  1  0
  3  4  2  0
  4  5  1  0
  5  6  2  0
  5  7  1  0
  7  8  1  0
  8  9  1  0
  9 10  1  0
 10 11  2  0
 11 12  1  0
 12 13  1  0
 13 14  1  0
 14 15  1  0
 15 16  1  0
 16 17  1  0
 17 18  1  0
 18 19  1  0
 19 20  1  0
 20 21  1  0
 12 22  2  0
 22 23  1  0
 23 24  1  0
 24 25  1  0
 25 26  1  0
 26 27  1  0
 27 28  1  0
 28 29  1  0
 23 30  2  0
  9 31  1  0
  6  1  1  0
 30 10  1  0
 31  4  1  0
 21 16  1  0
 29 24  1  0
  1 32  1  0
  2 33  1  0
  3 34  1  0
  6 35  1  0
  7 36  1  0
  7 37  1  0
  8 38  1  0
  8 39  1  0
 13 40  1  0
 13 41  1  0
 14 42  1  0
 14 43  1  0
 15 44  1  0
 15 45  1  0
 16 46  1  6
 17 47  1  0
 17 48  1  0
 18 49  1  0
 18 50  1  0
 19 51  1  0
 19 52  1  0
 20 53  1  0
 20 54  1  0
 21 55  1  0
 21 56  1  0
 25 57  1  0
 25 58  1  0
 26 59  1  0
 26 60  1  0
 28 61  1  0
 28 62  1  0
 29 63  1  0
 29 64  1  0
 31 65  1  0
 31 66  1  0
M  CHG  2  13   1  21   1
M  END
>  <UniqueID>  (45) 
489

>  <SMILES>  (45) 
c1ccc2c(c1)CCN(c1nc([NH2+]CC[C@H]3CCCC[NH2+]3)nc(N3CCOCC3)n1)C2

>  <Energy>  (45) 
77.74978138796354

>  <Genealogy>  (45) 
c1ccc2c(c1)CCN(c1nc([NH2+]CCC3CCCC[NH2+]3)nc(N3CCOCC3)n1)C2 (protonated)
c1ccc2c(c1)CCN(c1nc([NH2+]CC[C@H]3CCCC[NH2+]3)nc(N3CCOCC3)n1)C2 (chirality)
c1ccc2c(c1)CCN(c1nc([NH2+]CC[C@H]3CCCC[NH2+]3)nc(N3CCOCC3)n1)C2 (3D coordinates assigned)
c1ccc2c(c1)CCN(c1nc([NH2+]CC[C@H]3CCCC[NH2+]3)nc(N3CCOCC3)n1)C2 (nonaromatic ring conformer: 77.74978138796354 kcal/mol)

>  <smiles>  (45) 
c1ccc2c(c1)CCN(c1nc(NCCC3CCCCN3)nc(N3CCOCC3)n1)C2

>  <score_type>  (45) 
oracle

>  <origin>  (45) 
autodockgpu

>  <m_score__min__energy>  (45) 
-9.5299999999999994

>  <m_primary>  (45) 
energy

>  <meeko>  (45) 
{"free_energy": -8.25, "intermolecular_energy": -10.04, "internal_energy": -0.97, "cluster_size": 6, "cluster_id": 4, "rank_in_cluster": 2}

>  <energy>  (45) 
-9.27

>  <cluster_rmsd>  (45) 
0.96

>  <rmsd>  (45) 
270.63

>  <cluster>  (45) 
1

$$$$
MXRVYNFLTYDQGX-DQWMCRLMNA-P
     RDKit          3D

 66 70  0  0  0  0  0  0  0  0999 V2000
  141.1480   81.2640  223.8320 C   0  0  0  0  0  0  0  0  0  0  0  0
  142.3080   81.1200  223.0680 C   0  0  0  0  0  0  0  0  0  0  0  0
  142.4540   80.0220  222.2150 C   0  0  0  0  0  0  0  0  0  0  0  0
  141.4430   79.0520  222.1230 C   0  0  0  0  0  0  0  0  0  0  0  0
  140.2530   79.2140  222.8760 C   0  0  0  0  0  0  0  0  0  0  0  0
  140.1260   80.3150  223.7400 C   0  0  0  0  0  0  0  0  0  0  0  0
  139.1590   78.1740  222.8460 C   0  0  0  0  0  0  0  0  0  0  0  0
  139.2260   77.3140  221.5870 C   0  0  0  0  0  0  0  0  0  0  0  0
  140.6050   76.8560  221.3920 N   0  0  0  0  0  0  0  0  0  0  0  0
  140.9400   75.4520  221.3940 C   0  0  0  0  0  0  0  0  0  0  0  0
  140.1520   74.5590  222.0440 N   0  0  0  0  0  0  0  0  0  0  0  0
  140.4920   73.2450  222.1030 C   0  0  0  0  0  0  0  0  0  0  0  0
  139.6510   72.3040  222.7980 N   0  0  0  0  0  0  0  0  0  0  0  0
  140.3260   71.7270  223.9740 C   0  0  0  0  0  0  0  0  0  0  0  0
  139.7490   70.3470  224.3610 C   0  0  0  0  0  0  0  0  0  0  0  0
  140.5180   69.6340  225.5010 C   0  0  1  0  0  0  0  0  0  0  0  0
  140.7010   70.5390  226.7540 C   0  0  0  0  0  0  0  0  0  0  0  0
  139.9740   69.9960  227.9880 C   0  0  0  0  0  0  0  0  0  0  0  0
  140.3420   68.5310  228.2730 C   0  0  0  0  0  0  0  0  0  0  0  0
  140.5920   67.7150  226.9900 C   0  0  0  0  0  0  0  0  0  0  0  0
  139.9230   68.3160  225.8270 N   0  0  0  0  0  0  0  0  0  0  0  0
  141.6190   72.8180  221.4760 N   0  0  0  0  0  0  0  0  0  0  0  0
  142.4120   73.6960  220.8070 C   0  0  0  0  0  0  0  0  0  0  0  0
  143.6130   73.2410  220.1470 N   0  0  0  0  0  0  0  0  0  0  0  0
  143.5170   72.4490  218.9130 C   0  0  0  0  0  0  0  0  0  0  0  0
  144.7970   72.5990  218.0850 C   0  0  0  0  0  0  0  0  0  0  0  0
  145.9410   72.3380  218.8740 O   0  0  0  0  0  0  0  0  0  0  0  0
  146.0600   73.3320  219.8730 C   0  0  0  0  0  0  0  0  0  0  0  0
  144.8950   73.2490  220.8650 C   0  0  0  0  0  0  0  0  0  0  0  0
  142.0660   75.0110  220.7740 N   0  0  0  0  0  0  0  0  0  0  0  0
  141.6270   77.8910  221.1760 C   0  0  0  0  0  0  0  0  0  0  0  0
  141.0384   82.1255  224.5072 H   0  0  0  0  0  0  0  0  0  0  0  0
  143.1081   81.8717  223.1374 H   0  0  0  0  0  0  0  0  0  0  0  0
  143.3677   79.9172  221.6115 H   0  0  0  0  0  0  0  0  0  0  0  0
  139.2165   80.4307  224.3478 H   0  0  0  0  0  0  0  0  0  0  0  0
  139.2624   77.5235  223.7270 H   0  0  0  0  0  0  0  0  0  0  0  0
  138.1912   78.6969  222.8507 H   0  0  0  0  0  0  0  0  0  0  0  0
  138.5614   76.4446  221.6989 H   0  0  0  0  0  0  0  0  0  0  0  0
  138.9052   77.9053  220.7167 H   0  0  0  0  0  0  0  0  0  0  0  0
  138.7930   72.8130  223.1150 H   0  0  0  0  0  0  0  0  0  0  0  0
  139.3570   71.5360  222.1500 H   0  0  0  0  0  0  0  0  0  0  0  0
  141.3962   71.6122  223.7470 H   0  0  0  0  0  0  0  0  0  0  0  0
  140.1669   72.4089  224.8224 H   0  0  0  0  0  0  0  0  0  0  0  0
  138.7066   70.4870  224.6831 H   0  0  0  0  0  0  0  0  0  0  0  0
  139.8379   69.7065  223.4711 H   0  0  0  0  0  0  0  0  0  0  0  0
  141.5326   69.4355  225.1252 H   0  0  0  0  0  0  0  0  0  0  0  0
  141.7747   70.6113  226.9818 H   0  0  0  0  0  0  0  0  0  0  0  0
  140.2672   71.5222  226.5193 H   0  0  0  0  0  0  0  0  0  0  0  0
  140.2487   70.6076  228.8601 H   0  0  0  0  0  0  0  0  0  0  0  0
  138.8922   70.0438  227.7943 H   0  0  0  0  0  0  0  0  0  0  0  0
  141.2558   68.5113  228.8851 H   0  0  0  0  0  0  0  0  0  0  0  0
  139.4895   68.0721  228.7952 H   0  0  0  0  0  0  0  0  0  0  0  0
  141.6743   67.6748  226.7978 H   0  0  0  0  0  0  0  0  0  0  0  0
  140.1815   66.7054  227.1391 H   0  0  0  0  0  0  0  0  0  0  0  0
  140.0430   67.6750  225.0070 H   0  0  0  0  0  0  0  0  0  0  0  0
  138.9000   68.3940  226.0290 H   0  0  0  0  0  0  0  0  0  0  0  0
  143.3742   71.3895  219.1718 H   0  0  0  0  0  0  0  0  0  0  0  0
  142.6631   72.8103  218.3211 H   0  0  0  0  0  0  0  0  0  0  0  0
  144.7685   71.8886  217.2457 H   0  0  0  0  0  0  0  0  0  0  0  0
  144.8554   73.6321  217.7117 H   0  0  0  0  0  0  0  0  0  0  0  0
  147.0062   73.1871  220.4150 H   0  0  0  0  0  0  0  0  0  0  0  0
  146.0425   74.3204  219.3906 H   0  0  0  0  0  0  0  0  0  0  0  0
  144.9861   72.3252  221.4551 H   0  0  0  0  0  0  0  0  0  0  0  0
  144.9276   74.1253  221.5291 H   0  0  0  0  0  0  0  0  0  0  0  0
  142.6220   77.4510  221.3382 H   0  0  0  0  0  0  0  0  0  0  0  0
  141.5291   78.2650  220.1462 H   0  0  0  0  0  0  0  0  0  0  0  0
  1  2  2  0
  2  3  1  0
  3  4  2  0
  4  5  1  0
  5  6  2  0
  5  7  1  0
  7  8  1  0
  8  9  1  0
  9 10  1  0
 10 11  2  0
 11 12  1  0
 12 13  1  0
 13 14  1  0
 14 15  1  0
 15 16  1  0
 16 17  1  0
 17 18  1  0
 18 19  1  0
 19 20  1  0
 20 21  1  0
 12 22  2  0
 22 23  1  0
 23 24  1  0
 24 25  1  0
 25 26  1  0
 26 27  1  0
 27 28  1  0
 28 29  1  0
 23 30  2  0
  9 31  1  0
  6  1  1  0
 30 10  1  0
 31  4  1  0
 21 16  1  0
 29 24  1  0
  1 32  1  0
  2 33  1  0
  3 34  1  0
  6 35  1  0
  7 36  1  0
  7 37  1  0
  8 38  1  0
  8 39  1  0
 13 40  1  0
 13 41  1  0
 14 42  1  0
 14 43  1  0
 15 44  1  0
 15 45  1  0
 16 46  1  6
 17 47  1  0
 17 48  1  0
 18 49  1  0
 18 50  1  0
 19 51  1  0
 19 52  1  0
 20 53  1  0
 20 54  1  0
 21 55  1  0
 21 56  1  0
 25 57  1  0
 25 58  1  0
 26 59  1  0
 26 60  1  0
 28 61  1  0
 28 62  1  0
 29 63  1  0
 29 64  1  0
 31 65  1  0
 31 66  1  0
M  CHG  2  13   1  21   1
M  END
>  <UniqueID>  (46) 
489

>  <SMILES>  (46) 
c1ccc2c(c1)CCN(c1nc([NH2+]CC[C@H]3CCCC[NH2+]3)nc(N3CCOCC3)n1)C2

>  <Energy>  (46) 
77.74978138796354

>  <Genealogy>  (46) 
c1ccc2c(c1)CCN(c1nc([NH2+]CCC3CCCC[NH2+]3)nc(N3CCOCC3)n1)C2 (protonated)
c1ccc2c(c1)CCN(c1nc([NH2+]CC[C@H]3CCCC[NH2+]3)nc(N3CCOCC3)n1)C2 (chirality)
c1ccc2c(c1)CCN(c1nc([NH2+]CC[C@H]3CCCC[NH2+]3)nc(N3CCOCC3)n1)C2 (3D coordinates assigned)
c1ccc2c(c1)CCN(c1nc([NH2+]CC[C@H]3CCCC[NH2+]3)nc(N3CCOCC3)n1)C2 (nonaromatic ring conformer: 77.74978138796354 kcal/mol)

>  <smiles>  (46) 
c1ccc2c(c1)CCN(c1nc(NCCC3CCCCN3)nc(N3CCOCC3)n1)C2

>  <score_type>  (46) 
oracle

>  <origin>  (46) 
autodockgpu

>  <m_score__min__energy>  (46) 
-9.5299999999999994

>  <m_primary>  (46) 
energy

>  <meeko>  (46) 
{"free_energy": -9.53, "intermolecular_energy": -11.32, "internal_energy": 0.03, "cluster_size": 6, "cluster_id": 1, "rank_in_cluster": 2}

>  <energy>  (46) 
-8.68

>  <cluster_rmsd>  (46) 
0.89

>  <rmsd>  (46) 
270.53

>  <cluster>  (46) 
1

$$$$
MXRVYNFLTYDQGX-DQWMCRLMNA-P
     RDKit          3D

 66 70  0  0  0  0  0  0  0  0999 V2000
  137.0650   80.2320  223.7280 C   0  0  0  0  0  0  0  0  0  0  0  0
  136.5000   79.2020  222.9740 C   0  0  0  0  0  0  0  0  0  0  0  0
  137.3210   78.2630  222.3430 C   0  0  0  0  0  0  0  0  0  0  0  0
  138.7180   78.3490  222.4540 C   0  0  0  0  0  0  0  0  0  0  0  0
  139.2900   79.3770  223.2440 C   0  0  0  0  0  0  0  0  0  0  0  0
  138.4540   80.3220  223.8600 C   0  0  0  0  0  0  0  0  0  0  0  0
  140.7880   79.5390  223.3550 C   0  0  0  0  0  0  0  0  0  0  0  0
  141.5250   78.2430  223.0300 C   0  0  0  0  0  0  0  0  0  0  0  0
  140.9920   77.6870  221.7820 N   0  0  0  0  0  0  0  0  0  0  0  0
  141.8270   77.5080  220.6190 C   0  0  0  0  0  0  0  0  0  0  0  0
  141.8670   78.4570  219.6500 N   0  0  0  0  0  0  0  0  0  0  0  0
  142.6030   78.2700  218.5220 C   0  0  0  0  0  0  0  0  0  0  0  0
  142.6370   79.2810  217.4970 N   0  0  0  0  0  0  0  0  0  0  0  0
  141.7000   78.9830  216.3990 C   0  0  0  0  0  0  0  0  0  0  0  0
  141.6420   77.4740  216.0730 C   0  0  0  0  0  0  0  0  0  0  0  0
  140.4070   76.7450  216.6590 C   0  0  1  0  0  0  0  0  0  0  0  0
  140.3180   75.2600  216.1980 C   0  0  0  0  0  0  0  0  0  0  0  0
  140.4540   74.2710  217.3600 C   0  0  0  0  0  0  0  0  0  0  0  0
  139.4690   74.5840  218.4990 C   0  0  0  0  0  0  0  0  0  0  0  0
  139.2190   76.0950  218.6760 C   0  0  0  0  0  0  0  0  0  0  0  0
  140.3250   76.8950  218.1310 N   0  0  0  0  0  0  0  0  0  0  0  0
  143.3300   77.1310  218.3820 N   0  0  0  0  0  0  0  0  0  0  0  0
  143.3150   76.1770  219.3500 C   0  0  0  0  0  0  0  0  0  0  0  0
  144.0840   74.9650  219.1950 N   0  0  0  0  0  0  0  0  0  0  0  0
  144.0600   74.2400  217.9170 C   0  0  0  0  0  0  0  0  0  0  0  0
  145.3360   73.4070  217.7560 C   0  0  0  0  0  0  0  0  0  0  0  0
  145.5570   72.5990  218.8960 O   0  0  0  0  0  0  0  0  0  0  0  0
  145.8250   73.4260  220.0120 C   0  0  0  0  0  0  0  0  0  0  0  0
  144.5950   74.2610  220.3790 C   0  0  0  0  0  0  0  0  0  0  0  0
  142.5570   76.3730  220.4620 N   0  0  0  0  0  0  0  0  0  0  0  0
  139.5720   77.3040  221.7760 C   0  0  0  0  0  0  0  0  0  0  0  0
  136.4170   80.9733  224.2186 H   0  0  0  0  0  0  0  0  0  0  0  0
  135.4068   79.1292  222.8762 H   0  0  0  0  0  0  0  0  0  0  0  0
  136.8692   77.4505  221.7550 H   0  0  0  0  0  0  0  0  0  0  0  0
  138.8948   81.1387  224.4505 H   0  0  0  0  0  0  0  0  0  0  0  0
  141.1145   80.3198  222.6523 H   0  0  0  0  0  0  0  0  0  0  0  0
  141.0255   79.8157  224.3928 H   0  0  0  0  0  0  0  0  0  0  0  0
  142.5989   78.4498  222.9119 H   0  0  0  0  0  0  0  0  0  0  0  0
  141.3825   77.5210  223.8476 H   0  0  0  0  0  0  0  0  0  0  0  0
  142.3680   80.1930  217.9350 H   0  0  0  0  0  0  0  0  0  0  0  0
  143.6080   79.3740  217.1140 H   0  0  0  0  0  0  0  0  0  0  0  0
  140.6946   79.3212  216.6900 H   0  0  0  0  0  0  0  0  0  0  0  0
  142.0554   79.5086  215.5005 H   0  0  0  0  0  0  0  0  0  0  0  0
  141.6245   77.3577  214.9793 H   0  0  0  0  0  0  0  0  0  0  0  0
  142.5286   77.0162  216.5360 H   0  0  0  0  0  0  0  0  0  0  0  0
  139.5171   77.2411  216.2443 H   0  0  0  0  0  0  0  0  0  0  0  0
  139.3442   75.1002  215.7120 H   0  0  0  0  0  0  0  0  0  0  0  0
  141.1531   75.0764  215.5060 H   0  0  0  0  0  0  0  0  0  0  0  0
  140.2554   73.2553  216.9874 H   0  0  0  0  0  0  0  0  0  0  0  0
  141.4751   74.3544  217.7604 H   0  0  0  0  0  0  0  0  0  0  0  0
  138.5098   74.0927  218.2787 H   0  0  0  0  0  0  0  0  0  0  0  0
  139.9143   74.2109  219.4331 H   0  0  0  0  0  0  0  0  0  0  0  0
  138.2904   76.3667  218.1526 H   0  0  0  0  0  0  0  0  0  0  0  0
  139.1400   76.3064  219.7526 H   0  0  0  0  0  0  0  0  0  0  0  0
  140.1520   77.9020  218.3620 H   0  0  0  0  0  0  0  0  0  0  0  0
  141.2140   76.6050  218.5990 H   0  0  0  0  0  0  0  0  0  0  0  0
  143.1856   73.5730  217.8942 H   0  0  0  0  0  0  0  0  0  0  0  0
  144.0001   74.9669  217.0936 H   0  0  0  0  0  0  0  0  0  0  0  0
  145.2358   72.7617  216.8708 H   0  0  0  0  0  0  0  0  0  0  0  0
  146.1899   74.0903  217.6379 H   0  0  0  0  0  0  0  0  0  0  0  0
  146.1016   72.7954  220.8698 H   0  0  0  0  0  0  0  0  0  0  0  0
  146.6495   74.1074  219.7555 H   0  0  0  0  0  0  0  0  0  0  0  0
  143.8109   73.5979  220.7733 H   0  0  0  0  0  0  0  0  0  0  0  0
  144.8802   75.0021  221.1402 H   0  0  0  0  0  0  0  0  0  0  0  0
  139.2368   77.1879  220.7348 H   0  0  0  0  0  0  0  0  0  0  0  0
  139.4656   76.3581  222.3273 H   0  0  0  0  0  0  0  0  0  0  0  0
  1  2  2  0
  2  3  1  0
  3  4  2  0
  4  5  1  0
  5  6  2  0
  5  7  1  0
  7  8  1  0
  8  9  1  0
  9 10  1  0
 10 11  2  0
 11 12  1  0
 12 13  1  0
 13 14  1  0
 14 15  1  0
 15 16  1  0
 16 17  1  0
 17 18  1  0
 18 19  1  0
 19 20  1  0
 20 21  1  0
 12 22  2  0
 22 23  1  0
 23 24  1  0
 24 25  1  0
 25 26  1  0
 26 27  1  0
 27 28  1  0
 28 29  1  0
 23 30  2  0
  9 31  1  0
  6  1  1  0
 30 10  1  0
 31  4  1  0
 21 16  1  0
 29 24  1  0
  1 32  1  0
  2 33  1  0
  3 34  1  0
  6 35  1  0
  7 36  1  0
  7 37  1  0
  8 38  1  0
  8 39  1  0
 13 40  1  0
 13 41  1  0
 14 42  1  0
 14 43  1  0
 15 44  1  0
 15 45  1  0
 16 46  1  6
 17 47  1  0
 17 48  1  0
 18 49  1  0
 18 50  1  0
 19 51  1  0
 19 52  1  0
 20 53  1  0
 20 54  1  0
 21 55  1  0
 21 56  1  0
 25 57  1  0
 25 58  1  0
 26 59  1  0
 26 60  1  0
 28 61  1  0
 28 62  1  0
 29 63  1  0
 29 64  1  0
 31 65  1  0
 31 66  1  0
M  CHG  2  13   1  21   1
M  END
>  <UniqueID>  (47) 
489

>  <SMILES>  (47) 
c1ccc2c(c1)CCN(c1nc([NH2+]CC[C@H]3CCCC[NH2+]3)nc(N3CCOCC3)n1)C2

>  <Energy>  (47) 
77.74978138796354

>  <Genealogy>  (47) 
c1ccc2c(c1)CCN(c1nc([NH2+]CCC3CCCC[NH2+]3)nc(N3CCOCC3)n1)C2 (protonated)
c1ccc2c(c1)CCN(c1nc([NH2+]CC[C@H]3CCCC[NH2+]3)nc(N3CCOCC3)n1)C2 (chirality)
c1ccc2c(c1)CCN(c1nc([NH2+]CC[C@H]3CCCC[NH2+]3)nc(N3CCOCC3)n1)C2 (3D coordinates assigned)
c1ccc2c(c1)CCN(c1nc([NH2+]CC[C@H]3CCCC[NH2+]3)nc(N3CCOCC3)n1)C2 (nonaromatic ring conformer: 77.74978138796354 kcal/mol)

>  <smiles>  (47) 
c1ccc2c(c1)CCN(c1nc(NCCC3CCCCN3)nc(N3CCOCC3)n1)C2

>  <score_type>  (47) 
oracle

>  <origin>  (47) 
autodockgpu

>  <m_score__min__energy>  (47) 
-9.5299999999999994

>  <m_primary>  (47) 
energy

>  <meeko>  (47) 
{"free_energy": -6.37, "intermolecular_energy": -8.16, "internal_energy": -2.24, "cluster_size": 1, "cluster_id": 6, "rank_in_cluster": 1}

>  <energy>  (47) 
-9.46

>  <cluster_rmsd>  (47) 
0.0

>  <rmsd>  (47) 
270.16

>  <cluster>  (47) 
2

$$$$
MXRVYNFLTYDQGX-DQWMCRLMNA-P
     RDKit          3D

 66 70  0  0  0  0  0  0  0  0999 V2000
  140.3790   67.3800  226.8310 C   0  0  0  0  0  0  0  0  0  0  0  0
  141.0450   68.4270  227.4710 C   0  0  0  0  0  0  0  0  0  0  0  0
  140.9830   69.7220  226.9480 C   0  0  0  0  0  0  0  0  0  0  0  0
  140.2580   69.9810  225.7730 C   0  0  0  0  0  0  0  0  0  0  0  0
  139.5580   68.9250  225.1400 C   0  0  0  0  0  0  0  0  0  0  0  0
  139.6410   67.6260  225.6690 C   0  0  0  0  0  0  0  0  0  0  0  0
  138.8040   69.1450  223.8500 C   0  0  0  0  0  0  0  0  0  0  0  0
  138.4360   70.6120  223.6500 C   0  0  0  0  0  0  0  0  0  0  0  0
  139.6200   71.4420  223.8970 N   0  0  0  0  0  0  0  0  0  0  0  0
  140.1830   72.2780  222.8650 C   0  0  0  0  0  0  0  0  0  0  0  0
  141.3040   71.8920  222.2030 N   0  0  0  0  0  0  0  0  0  0  0  0
  141.8760   72.7010  221.2720 C   0  0  0  0  0  0  0  0  0  0  0  0
  143.0680   72.2850  220.5790 N   0  0  0  0  0  0  0  0  0  0  0  0
  144.0120   73.4000  220.3890 C   0  0  0  0  0  0  0  0  0  0  0  0
  143.7700   74.1510  219.0610 C   0  0  0  0  0  0  0  0  0  0  0  0
  143.6020   75.6830  219.2190 C   0  0  1  0  0  0  0  0  0  0  0  0
  143.5990   76.4270  217.8520 C   0  0  0  0  0  0  0  0  0  0  0  0
  142.2640   77.1170  217.5550 C   0  0  0  0  0  0  0  0  0  0  0  0
  141.8190   78.0280  218.7110 C   0  0  0  0  0  0  0  0  0  0  0  0
  142.2190   77.4790  220.0940 C   0  0  0  0  0  0  0  0  0  0  0  0
  142.4300   76.0250  220.0600 N   0  0  0  0  0  0  0  0  0  0  0  0
  141.2980   73.8950  220.9810 N   0  0  0  0  0  0  0  0  0  0  0  0
  140.1660   74.2900  221.6210 C   0  0  0  0  0  0  0  0  0  0  0  0
  139.5580   75.5630  221.3130 N   0  0  0  0  0  0  0  0  0  0  0  0
  139.4790   76.6070  222.3450 C   0  0  0  0  0  0  0  0  0  0  0  0
  139.3910   77.9900  221.6940 C   0  0  0  0  0  0  0  0  0  0  0  0
  138.3600   78.0280  220.7280 O   0  0  0  0  0  0  0  0  0  0  0  0
  138.6880   77.1650  219.6570 C   0  0  0  0  0  0  0  0  0  0  0  0
  138.7120   75.7060  220.1210 C   0  0  0  0  0  0  0  0  0  0  0  0
  139.6190   73.4770  222.5630 N   0  0  0  0  0  0  0  0  0  0  0  0
  140.1970   71.3960  225.2490 C   0  0  0  0  0  0  0  0  0  0  0  0
  140.4349   66.3609  227.2411 H   0  0  0  0  0  0  0  0  0  0  0  0
  141.6196   68.2325  228.3886 H   0  0  0  0  0  0  0  0  0  0  0  0
  141.5054   70.5436  227.4600 H   0  0  0  0  0  0  0  0  0  0  0  0
  139.1220   66.7970  225.1657 H   0  0  0  0  0  0  0  0  0  0  0  0
  139.4341   68.8185  223.0095 H   0  0  0  0  0  0  0  0  0  0  0  0
  137.8719   68.5626  223.8960 H   0  0  0  0  0  0  0  0  0  0  0  0
  138.0864   70.7667  222.6186 H   0  0  0  0  0  0  0  0  0  0  0  0
  137.6348   70.8918  224.3499 H   0  0  0  0  0  0  0  0  0  0  0  0
  143.5310   71.5420  221.1520 H   0  0  0  0  0  0  0  0  0  0  0  0
  142.8180   71.8740  219.6480 H   0  0  0  0  0  0  0  0  0  0  0  0
  143.8957   74.1083  221.2226 H   0  0  0  0  0  0  0  0  0  0  0  0
  145.0282   72.9800  220.3586 H   0  0  0  0  0  0  0  0  0  0  0  0
  144.6278   73.9646  218.3981 H   0  0  0  0  0  0  0  0  0  0  0  0
  142.8233   73.7700  218.6505 H   0  0  0  0  0  0  0  0  0  0  0  0
  144.4906   76.0469  219.7556 H   0  0  0  0  0  0  0  0  0  0  0  0
  144.3930   77.1882  217.8643 H   0  0  0  0  0  0  0  0  0  0  0  0
  143.7660   75.6761  217.0657 H   0  0  0  0  0  0  0  0  0  0  0  0
  142.3729   77.7251  216.6448 H   0  0  0  0  0  0  0  0  0  0  0  0
  141.4996   76.3372  217.4222 H   0  0  0  0  0  0  0  0  0  0  0  0
  142.2832   79.0163  218.5779 H   0  0  0  0  0  0  0  0  0  0  0  0
  140.7208   78.0849  218.6830 H   0  0  0  0  0  0  0  0  0  0  0  0
  143.1507   77.9672  220.4158 H   0  0  0  0  0  0  0  0  0  0  0  0
  141.4004   77.6909  220.7975 H   0  0  0  0  0  0  0  0  0  0  0  0
  142.6030   75.6910  221.0380 H   0  0  0  0  0  0  0  0  0  0  0  0
  141.5570   75.5650  219.7120 H   0  0  0  0  0  0  0  0  0  0  0  0
  138.5850   76.4393  222.9636 H   0  0  0  0  0  0  0  0  0  0  0  0
  140.3829   76.5620  222.9703 H   0  0  0  0  0  0  0  0  0  0  0  0
  139.1847   78.7412  222.4707 H   0  0  0  0  0  0  0  0  0  0  0  0
  140.3477   78.2054  221.1956 H   0  0  0  0  0  0  0  0  0  0  0  0
  137.9377   77.2777  218.8605 H   0  0  0  0  0  0  0  0  0  0  0  0
  139.6873   77.4321  219.2828 H   0  0  0  0  0  0  0  0  0  0  0  0
  137.6879   75.3853  220.3625 H   0  0  0  0  0  0  0  0  0  0  0  0
  139.1227   75.0811  219.3142 H   0  0  0  0  0  0  0  0  0  0  0  0
  141.2154   71.8106  225.2180 H   0  0  0  0  0  0  0  0  0  0  0  0
  139.5559   71.9868  225.9198 H   0  0  0  0  0  0  0  0  0  0  0  0
  1  2  2  0
  2  3  1  0
  3  4  2  0
  4  5  1  0
  5  6  2  0
  5  7  1  0
  7  8  1  0
  8  9  1  0
  9 10  1  0
 10 11  2  0
 11 12  1  0
 12 13  1  0
 13 14  1  0
 14 15  1  0
 15 16  1  0
 16 17  1  0
 17 18  1  0
 18 19  1  0
 19 20  1  0
 20 21  1  0
 12 22  2  0
 22 23  1  0
 23 24  1  0
 24 25  1  0
 25 26  1  0
 26 27  1  0
 27 28  1  0
 28 29  1  0
 23 30  2  0
  9 31  1  0
  6  1  1  0
 30 10  1  0
 31  4  1  0
 21 16  1  0
 29 24  1  0
  1 32  1  0
  2 33  1  0
  3 34  1  0
  6 35  1  0
  7 36  1  0
  7 37  1  0
  8 38  1  0
  8 39  1  0
 13 40  1  0
 13 41  1  0
 14 42  1  0
 14 43  1  0
 15 44  1  0
 15 45  1  0
 16 46  1  1
 17 47  1  0
 17 48  1  0
 18 49  1  0
 18 50  1  0
 19 51  1  0
 19 52  1  0
 20 53  1  0
 20 54  1  0
 21 55  1  0
 21 56  1  0
 25 57  1  0
 25 58  1  0
 26 59  1  0
 26 60  1  0
 28 61  1  0
 28 62  1  0
 29 63  1  0
 29 64  1  0
 31 65  1  0
 31 66  1  0
M  CHG  2  13   1  21   1
M  END
>  <UniqueID>  (48) 
489

>  <SMILES>  (48) 
c1ccc2c(c1)CCN(c1nc([NH2+]CC[C@H]3CCCC[NH2+]3)nc(N3CCOCC3)n1)C2

>  <Energy>  (48) 
77.74978138796354

>  <Genealogy>  (48) 
c1ccc2c(c1)CCN(c1nc([NH2+]CCC3CCCC[NH2+]3)nc(N3CCOCC3)n1)C2 (protonated)
c1ccc2c(c1)CCN(c1nc([NH2+]CC[C@H]3CCCC[NH2+]3)nc(N3CCOCC3)n1)C2 (chirality)
c1ccc2c(c1)CCN(c1nc([NH2+]CC[C@H]3CCCC[NH2+]3)nc(N3CCOCC3)n1)C2 (3D coordinates assigned)
c1ccc2c(c1)CCN(c1nc([NH2+]CC[C@H]3CCCC[NH2+]3)nc(N3CCOCC3)n1)C2 (nonaromatic ring conformer: 77.74978138796354 kcal/mol)

>  <smiles>  (48) 
c1ccc2c(c1)CCN(c1nc(NCCC3CCCCN3)nc(N3CCOCC3)n1)C2

>  <score_type>  (48) 
oracle

>  <origin>  (48) 
autodockgpu

>  <m_score__min__energy>  (48) 
-9.5299999999999994

>  <m_primary>  (48) 
energy

>  <meeko>  (48) 
{"free_energy": -7.11, "intermolecular_energy": -8.9, "internal_energy": -1.48, "cluster_size": 1, "cluster_id": 5, "rank_in_cluster": 1}

>  <energy>  (48) 
-9.41

>  <cluster_rmsd>  (48) 
0.61

>  <rmsd>  (48) 
270.31

>  <cluster>  (48) 
2

$$$$
MXRVYNFLTYDQGX-DQWMCRLMNA-P
     RDKit          3D

 66 70  0  0  0  0  0  0  0  0999 V2000
  141.2380   81.2230  223.8480 C   0  0  0  0  0  0  0  0  0  0  0  0
  142.3530   81.0570  223.0260 C   0  0  0  0  0  0  0  0  0  0  0  0
  142.4350   79.9550  222.1690 C   0  0  0  0  0  0  0  0  0  0  0  0
  141.4030   79.0040  222.1320 C   0  0  0  0  0  0  0  0  0  0  0  0
  140.2570   79.1880  222.9450 C   0  0  0  0  0  0  0  0  0  0  0  0
  140.1950   80.2930  223.8120 C   0  0  0  0  0  0  0  0  0  0  0  0
  139.1440   78.1680  222.9750 C   0  0  0  0  0  0  0  0  0  0  0  0
  139.1300   77.3060  221.7160 C   0  0  0  0  0  0  0  0  0  0  0  0
  140.4890   76.8220  221.4510 N   0  0  0  0  0  0  0  0  0  0  0  0
  140.7980   75.4130  221.4390 C   0  0  0  0  0  0  0  0  0  0  0  0
  139.9400   74.5170  221.9890 N   0  0  0  0  0  0  0  0  0  0  0  0
  140.2510   73.1940  222.0360 C   0  0  0  0  0  0  0  0  0  0  0  0
  139.3360   72.2510  222.6260 N   0  0  0  0  0  0  0  0  0  0  0  0
  138.2260   71.9170  221.7160 C   0  0  0  0  0  0  0  0  0  0  0  0
  136.8480   72.0420  222.4040 C   0  0  0  0  0  0  0  0  0  0  0  0
  136.2060   73.4470  222.2870 C   0  0  1  0  0  0  0  0  0  0  0  0
  135.1080   73.6910  223.3640 C   0  0  0  0  0  0  0  0  0  0  0  0
  135.4720   74.8170  224.3370 C   0  0  0  0  0  0  0  0  0  0  0  0
  135.8580   76.1100  223.6000 C   0  0  0  0  0  0  0  0  0  0  0  0
  136.5930   75.8460  222.2710 C   0  0  0  0  0  0  0  0  0  0  0  0
  137.2270   74.5200  222.2570 N   0  0  0  0  0  0  0  0  0  0  0  0
  141.4210   72.7640  221.4980 N   0  0  0  0  0  0  0  0  0  0  0  0
  142.2850   73.6460  220.9280 C   0  0  0  0  0  0  0  0  0  0  0  0
  143.5320   73.1870  220.3630 N   0  0  0  0  0  0  0  0  0  0  0  0
  144.7390   74.0160  220.4780 C   0  0  0  0  0  0  0  0  0  0  0  0
  145.9940   73.1420  220.3900 C   0  0  0  0  0  0  0  0  0  0  0  0
  145.9500   72.3090  219.2480 O   0  0  0  0  0  0  0  0  0  0  0  0
  144.8920   71.3800  219.3850 C   0  0  0  0  0  0  0  0  0  0  0  0
  143.5370   72.0930  219.3820 C   0  0  0  0  0  0  0  0  0  0  0  0
  141.9660   74.9670  220.9070 N   0  0  0  0  0  0  0  0  0  0  0  0
  141.5170   77.8380  221.1790 C   0  0  0  0  0  0  0  0  0  0  0  0
  141.1795   82.0874  224.5258 H   0  0  0  0  0  0  0  0  0  0  0  0
  143.1690   81.7942  223.0521 H   0  0  0  0  0  0  0  0  0  0  0  0
  143.3142   79.8325  221.5194 H   0  0  0  0  0  0  0  0  0  0  0  0
  139.3206   80.4265  224.4659 H   0  0  0  0  0  0  0  0  0  0  0  0
  139.2816   77.5167  223.8507 H   0  0  0  0  0  0  0  0  0  0  0  0
  138.1872   78.7080  223.0298 H   0  0  0  0  0  0  0  0  0  0  0  0
  138.4560   76.4493  221.8636 H   0  0  0  0  0  0  0  0  0  0  0  0
  138.7758   77.9024  220.8623 H   0  0  0  0  0  0  0  0  0  0  0  0
  139.8700   71.3780  222.8440 H   0  0  0  0  0  0  0  0  0  0  0  0
  138.9520   72.6340  223.5230 H   0  0  0  0  0  0  0  0  0  0  0  0
  138.2555   72.6015  220.8554 H   0  0  0  0  0  0  0  0  0  0  0  0
  138.3517   70.8708  221.4005 H   0  0  0  0  0  0  0  0  0  0  0  0
  136.1656   71.3114  221.9452 H   0  0  0  0  0  0  0  0  0  0  0  0
  137.0115   71.8570  223.4759 H   0  0  0  0  0  0  0  0  0  0  0  0
  135.6884   73.4807  221.3170 H   0  0  0  0  0  0  0  0  0  0  0  0
  134.1692   73.9555  222.8554 H   0  0  0  0  0  0  0  0  0  0  0  0
  135.0072   72.7658  223.9503 H   0  0  0  0  0  0  0  0  0  0  0  0
  134.6062   75.0215  224.9840 H   0  0  0  0  0  0  0  0  0  0  0  0
  136.3402   74.4894  224.9276 H   0  0  0  0  0  0  0  0  0  0  0  0
  134.9414   76.6797  223.3871 H   0  0  0  0  0  0  0  0  0  0  0  0
  136.5452   76.6692  224.2520 H   0  0  0  0  0  0  0  0  0  0  0  0
  135.8689   75.9041  221.4450 H   0  0  0  0  0  0  0  0  0  0  0  0
  137.3809   76.6051  222.1571 H   0  0  0  0  0  0  0  0  0  0  0  0
  137.7900   74.4300  221.3780 H   0  0  0  0  0  0  0  0  0  0  0  0
  137.8840   74.4520  223.0690 H   0  0  0  0  0  0  0  0  0  0  0  0
  144.7521   74.7532  219.6617 H   0  0  0  0  0  0  0  0  0  0  0  0
  144.7286   74.5307  221.4501 H   0  0  0  0  0  0  0  0  0  0  0  0
  146.8807   73.7902  220.3290 H   0  0  0  0  0  0  0  0  0  0  0  0
  146.0433   72.5067  221.2866 H   0  0  0  0  0  0  0  0  0  0  0  0
  144.9266   70.6682  218.5470 H   0  0  0  0  0  0  0  0  0  0  0  0
  145.0095   70.8512  220.3424 H   0  0  0  0  0  0  0  0  0  0  0  0
  143.3459   72.5040  218.3797 H   0  0  0  0  0  0  0  0  0  0  0  0
  142.7525   71.3699  219.6498 H   0  0  0  0  0  0  0  0  0  0  0  0
  142.5111   77.3804  221.2902 H   0  0  0  0  0  0  0  0  0  0  0  0
  141.3726   78.2119  220.1546 H   0  0  0  0  0  0  0  0  0  0  0  0
  1  2  2  0
  2  3  1  0
  3  4  2  0
  4  5  1  0
  5  6  2  0
  5  7  1  0
  7  8  1  0
  8  9  1  0
  9 10  1  0
 10 11  2  0
 11 12  1  0
 12 13  1  0
 13 14  1  0
 14 15  1  0
 15 16  1  0
 16 17  1  0
 17 18  1  0
 18 19  1  0
 19 20  1  0
 20 21  1  0
 12 22  2  0
 22 23  1  0
 23 24  1  0
 24 25  1  0
 25 26  1  0
 26 27  1  0
 27 28  1  0
 28 29  1  0
 23 30  2  0
  9 31  1  0
  6  1  1  0
 30 10  1  0
 31  4  1  0
 21 16  1  0
 29 24  1  0
  1 32  1  0
  2 33  1  0
  3 34  1  0
  6 35  1  0
  7 36  1  0
  7 37  1  0
  8 38  1  0
  8 39  1  0
 13 40  1  0
 13 41  1  0
 14 42  1  0
 14 43  1  0
 15 44  1  0
 15 45  1  0
 16 46  1  6
 17 47  1  0
 17 48  1  0
 18 49  1  0
 18 50  1  0
 19 51  1  0
 19 52  1  0
 20 53  1  0
 20 54  1  0
 21 55  1  0
 21 56  1  0
 25 57  1  0
 25 58  1  0
 26 59  1  0
 26 60  1  0
 28 61  1  0
 28 62  1  0
 29 63  1  0
 29 64  1  0
 31 65  1  0
 31 66  1  0
M  CHG  2  13   1  21   1
M  END
>  <UniqueID>  (49) 
489

>  <SMILES>  (49) 
c1ccc2c(c1)CCN(c1nc([NH2+]CC[C@H]3CCCC[NH2+]3)nc(N3CCOCC3)n1)C2

>  <Energy>  (49) 
77.74978138796354

>  <Genealogy>  (49) 
c1ccc2c(c1)CCN(c1nc([NH2+]CCC3CCCC[NH2+]3)nc(N3CCOCC3)n1)C2 (protonated)
c1ccc2c(c1)CCN(c1nc([NH2+]CC[C@H]3CCCC[NH2+]3)nc(N3CCOCC3)n1)C2 (chirality)
c1ccc2c(c1)CCN(c1nc([NH2+]CC[C@H]3CCCC[NH2+]3)nc(N3CCOCC3)n1)C2 (3D coordinates assigned)
c1ccc2c(c1)CCN(c1nc([NH2+]CC[C@H]3CCCC[NH2+]3)nc(N3CCOCC3)n1)C2 (nonaromatic ring conformer: 77.74978138796354 kcal/mol)

>  <smiles>  (49) 
c1ccc2c(c1)CCN(c1nc(NCCC3CCCCN3)nc(N3CCOCC3)n1)C2

>  <score_type>  (49) 
oracle

>  <origin>  (49) 
autodockgpu

>  <m_score__min__energy>  (49) 
-9.5299999999999994

>  <m_primary>  (49) 
energy

>  <meeko>  (49) 
{"free_energy": -8.37, "intermolecular_energy": -10.16, "internal_energy": -0.73, "cluster_size": 6, "cluster_id": 4, "rank_in_cluster": 1}

>  <energy>  (49) 
-9.3

>  <cluster_rmsd>  (49) 
0.73

>  <rmsd>  (49) 
270.26

>  <cluster>  (49) 
2

$$$$
MXRVYNFLTYDQGX-DQWMCRLMNA-P
     RDKit          3D

 66 70  0  0  0  0  0  0  0  0999 V2000
  141.3350   81.2810  223.8670 C   0  0  0  0  0  0  0  0  0  0  0  0
  142.4760   81.0930  223.0860 C   0  0  0  0  0  0  0  0  0  0  0  0
  142.5660   79.9930  222.2280 C   0  0  0  0  0  0  0  0  0  0  0  0
  141.5150   79.0660  222.1470 C   0  0  0  0  0  0  0  0  0  0  0  0
  140.3440   79.2730  222.9170 C   0  0  0  0  0  0  0  0  0  0  0  0
  140.2740   80.3740  223.7870 C   0  0  0  0  0  0  0  0  0  0  0  0
  139.2080   78.2780  222.9000 C   0  0  0  0  0  0  0  0  0  0  0  0
  139.2220   77.4210  221.6370 C   0  0  0  0  0  0  0  0  0  0  0  0
  140.5780   76.9080  221.4200 N   0  0  0  0  0  0  0  0  0  0  0  0
  140.8570   75.4920  221.4130 C   0  0  0  0  0  0  0  0  0  0  0  0
  139.9820   74.6180  221.9720 N   0  0  0  0  0  0  0  0  0  0  0  0
  140.2640   73.2890  222.0240 C   0  0  0  0  0  0  0  0  0  0  0  0
  139.3320   72.3690  222.6240 N   0  0  0  0  0  0  0  0  0  0  0  0
  138.3440   71.8730  221.6500 C   0  0  0  0  0  0  0  0  0  0  0  0
  137.8070   72.9980  220.7370 C   0  0  0  0  0  0  0  0  0  0  0  0
  136.7720   73.9270  221.4170 C   0  0  1  0  0  0  0  0  0  0  0  0
  135.6470   73.1340  222.1460 C   0  0  0  0  0  0  0  0  0  0  0  0
  135.6510   73.3590  223.6610 C   0  0  0  0  0  0  0  0  0  0  0  0
  135.6320   74.8530  224.0200 C   0  0  0  0  0  0  0  0  0  0  0  0
  136.4170   75.7210  223.0170 C   0  0  0  0  0  0  0  0  0  0  0  0
  137.4220   74.9330  222.2900 N   0  0  0  0  0  0  0  0  0  0  0  0
  141.4210   72.8310  221.4810 N   0  0  0  0  0  0  0  0  0  0  0  0
  142.3000   73.6910  220.9010 C   0  0  0  0  0  0  0  0  0  0  0  0
  143.5330   73.2010  220.3300 N   0  0  0  0  0  0  0  0  0  0  0  0
  144.7610   74.0020  220.4380 C   0  0  0  0  0  0  0  0  0  0  0  0
  145.9940   73.0980  220.3450 C   0  0  0  0  0  0  0  0  0  0  0  0
  145.9240   72.2660  219.2040 O   0  0  0  0  0  0  0  0  0  0  0  0
  144.8460   71.3620  219.3470 C   0  0  0  0  0  0  0  0  0  0  0  0
  143.5070   72.1070  219.3500 C   0  0  0  0  0  0  0  0  0  0  0  0
  142.0110   75.0190  220.8750 N   0  0  0  0  0  0  0  0  0  0  0  0
  141.6390   77.9020  221.1930 C   0  0  0  0  0  0  0  0  0  0  0  0
  141.2703   82.1437  224.5463 H   0  0  0  0  0  0  0  0  0  0  0  0
  143.3064   81.8119  223.1456 H   0  0  0  0  0  0  0  0  0  0  0  0
  143.4666   79.8529  221.6121 H   0  0  0  0  0  0  0  0  0  0  0  0
  139.3791   80.5233  224.4089 H   0  0  0  0  0  0  0  0  0  0  0  0
  139.2979   77.6204  223.7772 H   0  0  0  0  0  0  0  0  0  0  0  0
  138.2623   78.8394  222.9210 H   0  0  0  0  0  0  0  0  0  0  0  0
  138.5243   76.5789  221.7556 H   0  0  0  0  0  0  0  0  0  0  0  0
  138.9132   78.0286  220.7736 H   0  0  0  0  0  0  0  0  0  0  0  0
  139.8770   71.5570  222.9980 H   0  0  0  0  0  0  0  0  0  0  0  0
  138.8370   72.8290  223.4240 H   0  0  0  0  0  0  0  0  0  0  0  0
  138.8200   71.1049  221.0227 H   0  0  0  0  0  0  0  0  0  0  0  0
  137.4935   71.4606  222.2127 H   0  0  0  0  0  0  0  0  0  0  0  0
  138.6586   73.6120  220.4088 H   0  0  0  0  0  0  0  0  0  0  0  0
  137.2890   72.5062  219.9005 H   0  0  0  0  0  0  0  0  0  0  0  0
  136.2714   74.4870  220.6133 H   0  0  0  0  0  0  0  0  0  0  0  0
  134.6741   73.4548  221.7453 H   0  0  0  0  0  0  0  0  0  0  0  0
  135.8272   72.0634  221.9689 H   0  0  0  0  0  0  0  0  0  0  0  0
  134.7614   72.8782  224.0940 H   0  0  0  0  0  0  0  0  0  0  0  0
  136.5757   72.9232  224.0673 H   0  0  0  0  0  0  0  0  0  0  0  0
  134.5871   75.1962  224.0386 H   0  0  0  0  0  0  0  0  0  0  0  0
  136.1165   74.9628  225.0014 H   0  0  0  0  0  0  0  0  0  0  0  0
  135.7121   76.1556  222.2930 H   0  0  0  0  0  0  0  0  0  0  0  0
  136.9389   76.5094  223.5792 H   0  0  0  0  0  0  0  0  0  0  0  0
  137.9890   75.5840  221.6960 H   0  0  0  0  0  0  0  0  0  0  0  0
  138.0660   74.4850  222.9820 H   0  0  0  0  0  0  0  0  0  0  0  0
  144.7877   74.7376  219.6206 H   0  0  0  0  0  0  0  0  0  0  0  0
  144.7677   74.5183  221.4093 H   0  0  0  0  0  0  0  0  0  0  0  0
  146.8958   73.7244  220.2793 H   0  0  0  0  0  0  0  0  0  0  0  0
  146.0326   72.4624  221.2419 H   0  0  0  0  0  0  0  0  0  0  0  0
  144.8599   70.6489  218.5095 H   0  0  0  0  0  0  0  0  0  0  0  0
  144.9560   70.8312  220.3041 H   0  0  0  0  0  0  0  0  0  0  0  0
  143.3205   72.5217  218.3484 H   0  0  0  0  0  0  0  0  0  0  0  0
  142.7069   71.4027  219.6219 H   0  0  0  0  0  0  0  0  0  0  0  0
  142.6175   77.4213  221.3398 H   0  0  0  0  0  0  0  0  0  0  0  0
  141.5426   78.2837  220.1659 H   0  0  0  0  0  0  0  0  0  0  0  0
  1  2  2  0
  2  3  1  0
  3  4  2  0
  4  5  1  0
  5  6  2  0
  5  7  1  0
  7  8  1  0
  8  9  1  0
  9 10  1  0
 10 11  2  0
 11 12  1  0
 12 13  1  0
 13 14  1  0
 14 15  1  0
 15 16  1  0
 16 17  1  0
 17 18  1  0
 18 19  1  0
 19 20  1  0
 20 21  1  0
 12 22  2  0
 22 23  1  0
 23 24  1  0
 24 25  1  0
 25 26  1  0
 26 27  1  0
 27 28  1  0
 28 29  1  0
 23 30  2  0
  9 31  1  0
  6  1  1  0
 30 10  1  0
 31  4  1  0
 21 16  1  0
 29 24  1  0
  1 32  1  0
  2 33  1  0
  3 34  1  0
  6 35  1  0
  7 36  1  0
  7 37  1  0
  8 38  1  0
  8 39  1  0
 13 40  1  0
 13 41  1  0
 14 42  1  0
 14 43  1  0
 15 44  1  0
 15 45  1  0
 16 46  1  6
 17 47  1  0
 17 48  1  0
 18 49  1  0
 18 50  1  0
 19 51  1  0
 19 52  1  0
 20 53  1  0
 20 54  1  0
 21 55  1  0
 21 56  1  0
 25 57  1  0
 25 58  1  0
 26 59  1  0
 26 60  1  0
 28 61  1  0
 28 62  1  0
 29 63  1  0
 29 64  1  0
 31 65  1  0
 31 66  1  0
M  CHG  2  13   1  21   1
M  END
>  <UniqueID>  (50) 
489

>  <SMILES>  (50) 
c1ccc2c(c1)CCN(c1nc([NH2+]CC[C@H]3CCCC[NH2+]3)nc(N3CCOCC3)n1)C2

>  <Energy>  (50) 
77.74978138796354

>  <Genealogy>  (50) 
c1ccc2c(c1)CCN(c1nc([NH2+]CCC3CCCC[NH2+]3)nc(N3CCOCC3)n1)C2 (protonated)
c1ccc2c(c1)CCN(c1nc([NH2+]CC[C@H]3CCCC[NH2+]3)nc(N3CCOCC3)n1)C2 (chirality)
c1ccc2c(c1)CCN(c1nc([NH2+]CC[C@H]3CCCC[NH2+]3)nc(N3CCOCC3)n1)C2 (3D coordinates assigned)
c1ccc2c(c1)CCN(c1nc([NH2+]CC[C@H]3CCCC[NH2+]3)nc(N3CCOCC3)n1)C2 (nonaromatic ring conformer: 77.74978138796354 kcal/mol)

>  <smiles>  (50) 
c1ccc2c(c1)CCN(c1nc(NCCC3CCCCN3)nc(N3CCOCC3)n1)C2

>  <score_type>  (50) 
oracle

>  <origin>  (50) 
autodockgpu

>  <m_score__min__energy>  (50) 
-9.5299999999999994

>  <m_primary>  (50) 
energy

>  <meeko>  (50) 
{"free_energy": -8.24, "intermolecular_energy": -10.03, "internal_energy": -0.96, "cluster_size": 6, "cluster_id": 4, "rank_in_cluster": 3}

>  <energy>  (50) 
-8.85

>  <cluster_rmsd>  (50) 
0.0

>  <rmsd>  (50) 
268.89

>  <cluster>  (50) 
3

$$$$
MXRVYNFLTYDQGX-DQWMCRLMNA-P
     RDKit          3D

 66 70  0  0  0  0  0  0  0  0999 V2000
  141.8850   81.2580  223.9800 C   0  0  0  0  0  0  0  0  0  0  0  0
  141.8260   82.0100  222.8060 C   0  0  0  0  0  0  0  0  0  0  0  0
  141.6070   81.3800  221.5780 C   0  0  0  0  0  0  0  0  0  0  0  0
  141.4520   79.9860  221.5120 C   0  0  0  0  0  0  0  0  0  0  0  0
  141.4820   79.2250  222.7060 C   0  0  0  0  0  0  0  0  0  0  0  0
  141.7170   79.8700  223.9320 C   0  0  0  0  0  0  0  0  0  0  0  0
  141.3670   77.7190  222.6800 C   0  0  0  0  0  0  0  0  0  0  0  0
  140.6920   77.2230  221.4050 C   0  0  0  0  0  0  0  0  0  0  0  0
  141.3110   77.8780  220.2480 N   0  0  0  0  0  0  0  0  0  0  0  0
  141.9870   77.1180  219.2240 C   0  0  0  0  0  0  0  0  0  0  0  0
  141.7940   77.4090  217.9130 N   0  0  0  0  0  0  0  0  0  0  0  0
  142.3780   76.6610  216.9400 C   0  0  0  0  0  0  0  0  0  0  0  0
  142.1640   76.9740  215.5510 N   0  0  0  0  0  0  0  0  0  0  0  0
  142.6810   78.3090  215.2010 C   0  0  0  0  0  0  0  0  0  0  0  0
  141.5490   79.3000  214.8480 C   0  0  0  0  0  0  0  0  0  0  0  0
  141.6430   80.6590  215.5850 C   0  0  1  0  0  0  0  0  0  0  0  0
  141.5740   80.5030  217.1330 C   0  0  0  0  0  0  0  0  0  0  0  0
  142.8660   80.9450  217.8300 C   0  0  0  0  0  0  0  0  0  0  0  0
  143.2900   82.3610  217.4080 C   0  0  0  0  0  0  0  0  0  0  0  0
  142.9520   82.6760  215.9380 C   0  0  0  0  0  0  0  0  0  0  0  0
  142.8140   81.4490  215.1400 N   0  0  0  0  0  0  0  0  0  0  0  0
  143.1900   75.6300  217.2890 N   0  0  0  0  0  0  0  0  0  0  0  0
  143.4090   75.3350  218.5980 C   0  0  0  0  0  0  0  0  0  0  0  0
  144.2670   74.2330  218.9660 N   0  0  0  0  0  0  0  0  0  0  0  0
  144.8540   74.1790  220.3130 C   0  0  0  0  0  0  0  0  0  0  0  0
  145.1830   72.7310  220.6900 C   0  0  0  0  0  0  0  0  0  0  0  0
  145.9520   72.1090  219.6790 O   0  0  0  0  0  0  0  0  0  0  0  0
  145.1740   71.9890  218.5040 C   0  0  0  0  0  0  0  0  0  0  0  0
  144.8430   73.3690  217.9270 C   0  0  0  0  0  0  0  0  0  0  0  0
  142.8000   76.0820  219.5570 N   0  0  0  0  0  0  0  0  0  0  0  0
  141.1960   79.3420  220.1700 C   0  0  0  0  0  0  0  0  0  0  0  0
  142.0637   81.7570  224.9439 H   0  0  0  0  0  0  0  0  0  0  0  0
  141.9523   83.1020  222.8473 H   0  0  0  0  0  0  0  0  0  0  0  0
  141.5557   81.9799  220.6574 H   0  0  0  0  0  0  0  0  0  0  0  0
  141.7692   79.2803  224.8591 H   0  0  0  0  0  0  0  0  0  0  0  0
  142.3755   77.2840  222.7410 H   0  0  0  0  0  0  0  0  0  0  0  0
  140.7495   77.4090  223.5359 H   0  0  0  0  0  0  0  0  0  0  0  0
  140.8172   76.1333  221.3219 H   0  0  0  0  0  0  0  0  0  0  0  0
  139.6190   77.4630  221.4364 H   0  0  0  0  0  0  0  0  0  0  0  0
  142.6640   76.2560  214.9780 H   0  0  0  0  0  0  0  0  0  0  0  0
  141.1420   76.9220  215.3230 H   0  0  0  0  0  0  0  0  0  0  0  0
  143.2449   78.7062  216.0579 H   0  0  0  0  0  0  0  0  0  0  0  0
  143.3230   78.2004  214.3144 H   0  0  0  0  0  0  0  0  0  0  0  0
  141.5832   79.4915  213.7653 H   0  0  0  0  0  0  0  0  0  0  0  0
  140.6068   78.8311  215.1680 H   0  0  0  0  0  0  0  0  0  0  0  0
  140.7509   81.2369  215.3018 H   0  0  0  0  0  0  0  0  0  0  0  0
  140.7425   81.1155  217.5118 H   0  0  0  0  0  0  0  0  0  0  0  0
  141.4260   79.4355  217.3532 H   0  0  0  0  0  0  0  0  0  0  0  0
  142.7055   80.9314  218.9181 H   0  0  0  0  0  0  0  0  0  0  0  0
  143.6659   80.2486  217.5381 H   0  0  0  0  0  0  0  0  0  0  0  0
  142.7723   83.0884  218.0506 H   0  0  0  0  0  0  0  0  0  0  0  0
  144.3829   82.4238  217.5158 H   0  0  0  0  0  0  0  0  0  0  0  0
  142.0049   83.2343  215.9011 H   0  0  0  0  0  0  0  0  0  0  0  0
  143.7751   83.2708  215.5153 H   0  0  0  0  0  0  0  0  0  0  0  0
  142.6820   81.7190  214.1360 H   0  0  0  0  0  0  0  0  0  0  0  0
  143.7010   80.8990  215.2110 H   0  0  0  0  0  0  0  0  0  0  0  0
  145.7766   74.7777  220.3314 H   0  0  0  0  0  0  0  0  0  0  0  0
  144.1298   74.5821  221.0362 H   0  0  0  0  0  0  0  0  0  0  0  0
  145.7524   72.7243  221.6312 H   0  0  0  0  0  0  0  0  0  0  0  0
  144.2409   72.1754  220.8072 H   0  0  0  0  0  0  0  0  0  0  0  0
  145.7370   71.4111  217.7563 H   0  0  0  0  0  0  0  0  0  0  0  0
  144.2333   71.4770  218.7549 H   0  0  0  0  0  0  0  0  0  0  0  0
  145.7636   73.8308  217.5408 H   0  0  0  0  0  0  0  0  0  0  0  0
  144.1106   73.2502  217.1149 H   0  0  0  0  0  0  0  0  0  0  0  0
  141.9313   79.7209  219.4449 H   0  0  0  0  0  0  0  0  0  0  0  0
  140.1725   79.5931  219.8546 H   0  0  0  0  0  0  0  0  0  0  0  0
  1  2  2  0
  2  3  1  0
  3  4  2  0
  4  5  1  0
  5  6  2  0
  5  7  1  0
  7  8  1  0
  8  9  1  0
  9 10  1  0
 10 11  2  0
 11 12  1  0
 12 13  1  0
 13 14  1  0
 14 15  1  0
 15 16  1  0
 16 17  1  0
 17 18  1  0
 18 19  1  0
 19 20  1  0
 20 21  1  0
 12 22  2  0
 22 23  1  0
 23 24  1  0
 24 25  1  0
 25 26  1  0
 26 27  1  0
 27 28  1  0
 28 29  1  0
 23 30  2  0
  9 31  1  0
  6  1  1  0
 30 10  1  0
 31  4  1  0
 21 16  1  0
 29 24  1  0
  1 32  1  0
  2 33  1  0
  3 34  1  0
  6 35  1  0
  7 36  1  0
  7 37  1  0
  8 38  1  0
  8 39  1  0
 13 40  1  0
 13 41  1  0
 14 42  1  0
 14 43  1  0
 15 44  1  0
 15 45  1  0
 16 46  1  6
 17 47  1  0
 17 48  1  0
 18 49  1  0
 18 50  1  0
 19 51  1  0
 19 52  1  0
 20 53  1  0
 20 54  1  0
 21 55  1  0
 21 56  1  0
 25 57  1  0
 25 58  1  0
 26 59  1  0
 26 60  1  0
 28 61  1  0
 28 62  1  0
 29 63  1  0
 29 64  1  0
 31 65  1  0
 31 66  1  0
M  CHG  2  13   1  21   1
M  END
>  <UniqueID>  (51) 
489

>  <SMILES>  (51) 
c1ccc2c(c1)CCN(c1nc([NH2+]CC[C@H]3CCCC[NH2+]3)nc(N3CCOCC3)n1)C2

>  <Energy>  (51) 
77.74978138796354

>  <Genealogy>  (51) 
c1ccc2c(c1)CCN(c1nc([NH2+]CCC3CCCC[NH2+]3)nc(N3CCOCC3)n1)C2 (protonated)
c1ccc2c(c1)CCN(c1nc([NH2+]CC[C@H]3CCCC[NH2+]3)nc(N3CCOCC3)n1)C2 (chirality)
c1ccc2c(c1)CCN(c1nc([NH2+]CC[C@H]3CCCC[NH2+]3)nc(N3CCOCC3)n1)C2 (3D coordinates assigned)
c1ccc2c(c1)CCN(c1nc([NH2+]CC[C@H]3CCCC[NH2+]3)nc(N3CCOCC3)n1)C2 (nonaromatic ring conformer: 77.74978138796354 kcal/mol)

>  <smiles>  (51) 
c1ccc2c(c1)CCN(c1nc(NCCC3CCCCN3)nc(N3CCOCC3)n1)C2

>  <score_type>  (51) 
oracle

>  <origin>  (51) 
autodockgpu

>  <m_score__min__energy>  (51) 
-9.5299999999999994

>  <m_primary>  (51) 
energy

>  <meeko>  (51) 
{"free_energy": -8.05, "intermolecular_energy": -9.84, "internal_energy": -0.5, "cluster_size": 3, "cluster_id": 3, "rank_in_cluster": 3}

>  <energy>  (51) 
-8.26

>  <cluster_rmsd>  (51) 
1.04

>  <rmsd>  (51) 
268.93

>  <cluster>  (51) 
3

$$$$
MXRVYNFLTYDQGX-DQWMCRLMNA-P
     RDKit          3D

 66 70  0  0  0  0  0  0  0  0999 V2000
  140.3520   67.5350  226.8220 C   0  0  0  0  0  0  0  0  0  0  0  0
  140.9570   68.5980  227.4940 C   0  0  0  0  0  0  0  0  0  0  0  0
  140.9380   69.8810  226.9410 C   0  0  0  0  0  0  0  0  0  0  0  0
  140.3190   70.1120  225.7020 C   0  0  0  0  0  0  0  0  0  0  0  0
  139.6790   69.0400  225.0330 C   0  0  0  0  0  0  0  0  0  0  0  0
  139.7190   67.7520  225.5940 C   0  0  0  0  0  0  0  0  0  0  0  0
  139.0420   69.2290  223.6770 C   0  0  0  0  0  0  0  0  0  0  0  0
  138.6890   70.6910  223.4140 C   0  0  0  0  0  0  0  0  0  0  0  0
  139.8440   71.5300  223.7470 N   0  0  0  0  0  0  0  0  0  0  0  0
  140.4930   72.3480  222.7500 C   0  0  0  0  0  0  0  0  0  0  0  0
  139.9450   73.5290  222.3670 N   0  0  0  0  0  0  0  0  0  0  0  0
  140.5170   74.2760  221.3860 C   0  0  0  0  0  0  0  0  0  0  0  0
  139.9250   75.5260  220.9830 N   0  0  0  0  0  0  0  0  0  0  0  0
  140.5070   76.6700  221.7080 C   0  0  0  0  0  0  0  0  0  0  0  0
  140.3570   77.9940  220.9280 C   0  0  0  0  0  0  0  0  0  0  0  0
  140.8540   79.2440  221.6960 C   0  0  1  0  0  0  0  0  0  0  0  0
  140.3520   79.2780  223.1690 C   0  0  0  0  0  0  0  0  0  0  0  0
  141.4930   79.1850  224.1870 C   0  0  0  0  0  0  0  0  0  0  0  0
  142.5840   80.2360  223.9230 C   0  0  0  0  0  0  0  0  0  0  0  0
  142.7860   80.5270  222.4230 C   0  0  0  0  0  0  0  0  0  0  0  0
  142.3230   79.4090  221.5880 N   0  0  0  0  0  0  0  0  0  0  0  0
  141.6670   73.8480  220.8060 N   0  0  0  0  0  0  0  0  0  0  0  0
  142.2390   72.6750  221.1890 C   0  0  0  0  0  0  0  0  0  0  0  0
  143.4590   72.2190  220.5650 N   0  0  0  0  0  0  0  0  0  0  0  0
  143.5230   70.8740  219.9750 C   0  0  0  0  0  0  0  0  0  0  0  0
  144.6000   70.8230  218.8870 C   0  0  0  0  0  0  0  0  0  0  0  0
  145.8320   71.3200  219.3730 O   0  0  0  0  0  0  0  0  0  0  0  0
  145.7010   72.6980  219.6620 C   0  0  0  0  0  0  0  0  0  0  0  0
  144.7240   72.9210  220.8210 C   0  0  0  0  0  0  0  0  0  0  0  0
  141.6430   71.9310  222.1580 N   0  0  0  0  0  0  0  0  0  0  0  0
  140.2990   71.5160  225.1450 C   0  0  0  0  0  0  0  0  0  0  0  0
  140.3731   66.5256  227.2586 H   0  0  0  0  0  0  0  0  0  0  0  0
  141.4503   68.4253  228.4619 H   0  0  0  0  0  0  0  0  0  0  0  0
  141.4110   70.7154  227.4796 H   0  0  0  0  0  0  0  0  0  0  0  0
  139.2498   66.9099  225.0642 H   0  0  0  0  0  0  0  0  0  0  0  0
  139.7451   68.8879  222.9029 H   0  0  0  0  0  0  0  0  0  0  0  0
  138.1113   68.6432  223.6523 H   0  0  0  0  0  0  0  0  0  0  0  0
  138.4316   70.8228  222.3527 H   0  0  0  0  0  0  0  0  0  0  0  0
  137.8282   70.9820  224.0339 H   0  0  0  0  0  0  0  0  0  0  0  0
  140.1000   75.6500  219.9590 H   0  0  0  0  0  0  0  0  0  0  0  0
  138.8900   75.5020  221.1390 H   0  0  0  0  0  0  0  0  0  0  0  0
  139.9976   76.7708  222.6777 H   0  0  0  0  0  0  0  0  0  0  0  0
  141.5818   76.4752  221.8379 H   0  0  0  0  0  0  0  0  0  0  0  0
  140.9328   77.9114  219.9944 H   0  0  0  0  0  0  0  0  0  0  0  0
  139.2804   78.1377  220.7539 H   0  0  0  0  0  0  0  0  0  0  0  0
  140.4024   80.1190  221.2056 H   0  0  0  0  0  0  0  0  0  0  0  0
  139.8098   80.2208  223.3339 H   0  0  0  0  0  0  0  0  0  0  0  0
  139.7028   78.4026  223.3181 H   0  0  0  0  0  0  0  0  0  0  0  0
  141.0835   79.3431  225.1956 H   0  0  0  0  0  0  0  0  0  0  0  0
  141.9503   78.1887  224.0964 H   0  0  0  0  0  0  0  0  0  0  0  0
  142.2994   81.1715  224.4268 H   0  0  0  0  0  0  0  0  0  0  0  0
  143.5311   79.8335  224.3117 H   0  0  0  0  0  0  0  0  0  0  0  0
  142.2195   81.4311  222.1553 H   0  0  0  0  0  0  0  0  0  0  0  0
  143.8616   80.6695  222.2418 H   0  0  0  0  0  0  0  0  0  0  0  0
  142.5700   79.6150  220.5910 H   0  0  0  0  0  0  0  0  0  0  0  0
  142.8320   78.5410  221.8730 H   0  0  0  0  0  0  0  0  0  0  0  0
  143.7660   70.1439  220.7610 H   0  0  0  0  0  0  0  0  0  0  0  0
  142.5482   70.6328  219.5260 H   0  0  0  0  0  0  0  0  0  0  0  0
  144.7350   69.7807  218.5623 H   0  0  0  0  0  0  0  0  0  0  0  0
  144.2767   71.4495  218.0426 H   0  0  0  0  0  0  0  0  0  0  0  0
  146.6856   73.1038  219.9373 H   0  0  0  0  0  0  0  0  0  0  0  0
  145.3116   73.2097  218.7695 H   0  0  0  0  0  0  0  0  0  0  0  0
  145.1701   72.5373  221.7504 H   0  0  0  0  0  0  0  0  0  0  0  0
  144.5221   73.9981  220.9161 H   0  0  0  0  0  0  0  0  0  0  0  0
  141.3144   71.9360  225.1955 H   0  0  0  0  0  0  0  0  0  0  0  0
  139.5989   72.1170  225.7439 H   0  0  0  0  0  0  0  0  0  0  0  0
  1  2  2  0
  2  3  1  0
  3  4  2  0
  4  5  1  0
  5  6  2  0
  5  7  1  0
  7  8  1  0
  8  9  1  0
  9 10  1  0
 10 11  2  0
 11 12  1  0
 12 13  1  0
 13 14  1  0
 14 15  1  0
 15 16  1  0
 16 17  1  0
 17 18  1  0
 18 19  1  0
 19 20  1  0
 20 21  1  0
 12 22  2  0
 22 23  1  0
 23 24  1  0
 24 25  1  0
 25 26  1  0
 26 27  1  0
 27 28  1  0
 28 29  1  0
 23 30  2  0
  9 31  1  0
  6  1  1  0
 30 10  1  0
 31  4  1  0
 21 16  1  0
 29 24  1  0
  1 32  1  0
  2 33  1  0
  3 34  1  0
  6 35  1  0
  7 36  1  0
  7 37  1  0
  8 38  1  0
  8 39  1  0
 13 40  1  0
 13 41  1  0
 14 42  1  0
 14 43  1  0
 15 44  1  0
 15 45  1  0
 16 46  1  6
 17 47  1  0
 17 48  1  0
 18 49  1  0
 18 50  1  0
 19 51  1  0
 19 52  1  0
 20 53  1  0
 20 54  1  0
 21 55  1  0
 21 56  1  0
 25 57  1  0
 25 58  1  0
 26 59  1  0
 26 60  1  0
 28 61  1  0
 28 62  1  0
 29 63  1  0
 29 64  1  0
 31 65  1  0
 31 66  1  0
M  CHG  2  13   1  21   1
M  END
>  <UniqueID>  (52) 
489

>  <SMILES>  (52) 
c1ccc2c(c1)CCN(c1nc([NH2+]CC[C@H]3CCCC[NH2+]3)nc(N3CCOCC3)n1)C2

>  <Energy>  (52) 
77.74978138796354

>  <Genealogy>  (52) 
c1ccc2c(c1)CCN(c1nc([NH2+]CCC3CCCC[NH2+]3)nc(N3CCOCC3)n1)C2 (protonated)
c1ccc2c(c1)CCN(c1nc([NH2+]CC[C@H]3CCCC[NH2+]3)nc(N3CCOCC3)n1)C2 (chirality)
c1ccc2c(c1)CCN(c1nc([NH2+]CC[C@H]3CCCC[NH2+]3)nc(N3CCOCC3)n1)C2 (3D coordinates assigned)
c1ccc2c(c1)CCN(c1nc([NH2+]CC[C@H]3CCCC[NH2+]3)nc(N3CCOCC3)n1)C2 (nonaromatic ring conformer: 77.74978138796354 kcal/mol)

>  <smiles>  (52) 
c1ccc2c(c1)CCN(c1nc(NCCC3CCCCN3)nc(N3CCOCC3)n1)C2

>  <score_type>  (52) 
oracle

>  <origin>  (52) 
autodockgpu

>  <m_score__min__energy>  (52) 
-9.5299999999999994

>  <m_primary>  (52) 
energy

>  <meeko>  (52) 
{"free_energy": -9.41, "intermolecular_energy": -11.2, "internal_energy": 0.1, "cluster_size": 3, "cluster_id": 2, "rank_in_cluster": 2}

>  <energy>  (52) 
-8.05

>  <cluster_rmsd>  (52) 
0.85

>  <rmsd>  (52) 
268.93

>  <cluster>  (52) 
3

$$$$
MXRVYNFLTYDQGX-DQWMCRLMNA-P
     RDKit          3D

 66 70  0  0  0  0  0  0  0  0999 V2000
  141.2680   80.9070  223.8540 C   0  0  0  0  0  0  0  0  0  0  0  0
  142.3630   80.7020  223.0120 C   0  0  0  0  0  0  0  0  0  0  0  0
  142.3990   79.5910  222.1660 C   0  0  0  0  0  0  0  0  0  0  0  0
  141.3410   78.6670  222.1570 C   0  0  0  0  0  0  0  0  0  0  0  0
  140.2160   78.8900  222.9900 C   0  0  0  0  0  0  0  0  0  0  0  0
  140.2000   80.0040  223.8460 C   0  0  0  0  0  0  0  0  0  0  0  0
  139.0770   77.9010  223.0510 C   0  0  0  0  0  0  0  0  0  0  0  0
  139.0160   77.0280  221.8010 C   0  0  0  0  0  0  0  0  0  0  0  0
  140.3560   76.5050  221.5150 N   0  0  0  0  0  0  0  0  0  0  0  0
  140.6270   75.0880  221.5110 C   0  0  0  0  0  0  0  0  0  0  0  0
  139.7000   74.2100  221.9720 N   0  0  0  0  0  0  0  0  0  0  0  0
  139.9700   72.8790  222.0290 C   0  0  0  0  0  0  0  0  0  0  0  0
  138.9820   71.9550  222.5240 N   0  0  0  0  0  0  0  0  0  0  0  0
  139.3180   71.4570  223.8700 C   0  0  0  0  0  0  0  0  0  0  0  0
  140.8370   71.5090  224.1490 C   0  0  0  0  0  0  0  0  0  0  0  0
  141.2700   70.7780  225.4440 C   0  0  1  0  0  0  0  0  0  0  0  0
  141.3850   71.7410  226.6620 C   0  0  0  0  0  0  0  0  0  0  0  0
  140.3770   71.4180  227.7700 C   0  0  0  0  0  0  0  0  0  0  0  0
  140.4410   69.9410  228.1920 C   0  0  0  0  0  0  0  0  0  0  0  0
  140.7660   68.9960  227.0180 C   0  0  0  0  0  0  0  0  0  0  0  0
  140.4150   69.6000  225.7240 N   0  0  0  0  0  0  0  0  0  0  0  0
  141.1710   72.4220  221.5900 N   0  0  0  0  0  0  0  0  0  0  0  0
  142.1050   73.2850  221.1090 C   0  0  0  0  0  0  0  0  0  0  0  0
  143.3840   72.7970  220.6480 N   0  0  0  0  0  0  0  0  0  0  0  0
  143.5550   71.3720  220.3360 C   0  0  0  0  0  0  0  0  0  0  0  0
  144.6980   71.1830  219.3340 C   0  0  0  0  0  0  0  0  0  0  0  0
  145.8690   71.8410  219.7740 O   0  0  0  0  0  0  0  0  0  0  0  0
  145.6470   73.2380  219.7820 C   0  0  0  0  0  0  0  0  0  0  0  0
  144.5910   73.6160  220.8250 C   0  0  0  0  0  0  0  0  0  0  0  0
  141.8250   74.6150  221.0770 N   0  0  0  0  0  0  0  0  0  0  0  0
  141.4060   77.4900  221.2140 C   0  0  0  0  0  0  0  0  0  0  0  0
  141.2454   81.7792  224.5239 H   0  0  0  0  0  0  0  0  0  0  0  0
  143.1990   81.4169  223.0149 H   0  0  0  0  0  0  0  0  0  0  0  0
  143.2625   79.4385  221.5018 H   0  0  0  0  0  0  0  0  0  0  0  0
  139.3417   80.1671  224.5144 H   0  0  0  0  0  0  0  0  0  0  0  0
  139.2137   77.2544  223.9303 H   0  0  0  0  0  0  0  0  0  0  0  0
  138.1363   78.4671  223.1185 H   0  0  0  0  0  0  0  0  0  0  0  0
  138.3223   76.1912  221.9696 H   0  0  0  0  0  0  0  0  0  0  0  0
  138.6618   77.6259  220.9483 H   0  0  0  0  0  0  0  0  0  0  0  0
  138.0650   72.4580  222.5680 H   0  0  0  0  0  0  0  0  0  0  0  0
  138.8820   71.1470  221.8650 H   0  0  0  0  0  0  0  0  0  0  0  0
  138.7992   72.0763  224.6166 H   0  0  0  0  0  0  0  0  0  0  0  0
  138.9992   70.4060  223.9306 H   0  0  0  0  0  0  0  0  0  0  0  0
  141.3598   71.0450  223.2997 H   0  0  0  0  0  0  0  0  0  0  0  0
  141.0978   72.5693  224.2822 H   0  0  0  0  0  0  0  0  0  0  0  0
  142.2858   70.3941  225.2687 H   0  0  0  0  0  0  0  0  0  0  0  0
  142.4007   71.6634  227.0771 H   0  0  0  0  0  0  0  0  0  0  0  0
  141.1684   72.7578  226.3026 H   0  0  0  0  0  0  0  0  0  0  0  0
  140.5967   72.0475  228.6449 H   0  0  0  0  0  0  0  0  0  0  0  0
  139.3677   71.6174  227.3807 H   0  0  0  0  0  0  0  0  0  0  0  0
  141.2209   69.8286  228.9595 H   0  0  0  0  0  0  0  0  0  0  0  0
  139.4477   69.6633  228.5745 H   0  0  0  0  0  0  0  0  0  0  0  0
  141.8430   68.7725  227.0272 H   0  0  0  0  0  0  0  0  0  0  0  0
  140.1732   68.0776  227.1412 H   0  0  0  0  0  0  0  0  0  0  0  0
  140.5640   68.8840  224.9730 H   0  0  0  0  0  0  0  0  0  0  0  0
  139.4000   69.8520  225.7330 H   0  0  0  0  0  0  0  0  0  0  0  0
  143.7878   70.8231  221.2604 H   0  0  0  0  0  0  0  0  0  0  0  0
  142.6238   70.9871  219.8948 H   0  0  0  0  0  0  0  0  0  0  0  0
  144.9078   70.1087  219.2256 H   0  0  0  0  0  0  0  0  0  0  0  0
  144.3941   71.6147  218.3690 H   0  0  0  0  0  0  0  0  0  0  0  0
  146.5899   73.7514  220.0213 H   0  0  0  0  0  0  0  0  0  0  0  0
  145.2858   73.5428  218.7887 H   0  0  0  0  0  0  0  0  0  0  0  0
  144.9993   73.4476  221.8324 H   0  0  0  0  0  0  0  0  0  0  0  0
  144.3261   74.6761  220.6983 H   0  0  0  0  0  0  0  0  0  0  0  0
  142.3893   77.0066  221.3116 H   0  0  0  0  0  0  0  0  0  0  0  0
  141.2531   77.8579  220.1887 H   0  0  0  0  0  0  0  0  0  0  0  0
  1  2  2  0
  2  3  1  0
  3  4  2  0
  4  5  1  0
  5  6  2  0
  5  7  1  0
  7  8  1  0
  8  9  1  0
  9 10  1  0
 10 11  2  0
 11 12  1  0
 12 13  1  0
 13 14  1  0
 14 15  1  0
 15 16  1  0
 16 17  1  0
 17 18  1  0
 18 19  1  0
 19 20  1  0
 20 21  1  0
 12 22  2  0
 22 23  1  0
 23 24  1  0
 24 25  1  0
 25 26  1  0
 26 27  1  0
 27 28  1  0
 28 29  1  0
 23 30  2  0
  9 31  1  0
  6  1  1  0
 30 10  1  0
 31  4  1  0
 21 16  1  0
 29 24  1  0
  1 32  1  0
  2 33  1  0
  3 34  1  0
  6 35  1  0
  7 36  1  0
  7 37  1  0
  8 38  1  0
  8 39  1  0
 13 40  1  0
 13 41  1  0
 14 42  1  0
 14 43  1  0
 15 44  1  0
 15 45  1  0
 16 46  1  6
 17 47  1  0
 17 48  1  0
 18 49  1  0
 18 50  1  0
 19 51  1  0
 19 52  1  0
 20 53  1  0
 20 54  1  0
 21 55  1  0
 21 56  1  0
 25 57  1  0
 25 58  1  0
 26 59  1  0
 26 60  1  0
 28 61  1  0
 28 62  1  0
 29 63  1  0
 29 64  1  0
 31 65  1  0
 31 66  1  0
M  CHG  2  13   1  21   1
M  END
>  <UniqueID>  (53) 
489

>  <SMILES>  (53) 
c1ccc2c(c1)CCN(c1nc([NH2+]CC[C@H]3CCCC[NH2+]3)nc(N3CCOCC3)n1)C2

>  <Energy>  (53) 
77.74978138796354

>  <Genealogy>  (53) 
c1ccc2c(c1)CCN(c1nc([NH2+]CCC3CCCC[NH2+]3)nc(N3CCOCC3)n1)C2 (protonated)
c1ccc2c(c1)CCN(c1nc([NH2+]CC[C@H]3CCCC[NH2+]3)nc(N3CCOCC3)n1)C2 (chirality)
c1ccc2c(c1)CCN(c1nc([NH2+]CC[C@H]3CCCC[NH2+]3)nc(N3CCOCC3)n1)C2 (3D coordinates assigned)
c1ccc2c(c1)CCN(c1nc([NH2+]CC[C@H]3CCCC[NH2+]3)nc(N3CCOCC3)n1)C2 (nonaromatic ring conformer: 77.74978138796354 kcal/mol)

>  <smiles>  (53) 
c1ccc2c(c1)CCN(c1nc(NCCC3CCCCN3)nc(N3CCOCC3)n1)C2

>  <score_type>  (53) 
oracle

>  <origin>  (53) 
autodockgpu

>  <m_score__min__energy>  (53) 
-9.5299999999999994

>  <m_primary>  (53) 
energy

>  <meeko>  (53) 
{"free_energy": -8.68, "intermolecular_energy": -10.47, "internal_energy": 0.22, "cluster_size": 6, "cluster_id": 1, "rank_in_cluster": 6}

>  <energy>  (53) 
-8.37

>  <cluster_rmsd>  (53) 
0.0

>  <rmsd>  (53) 
269.63

>  <cluster>  (53) 
4

$$$$
MXRVYNFLTYDQGX-DQWMCRLMNA-P
     RDKit          3D

 66 70  0  0  0  0  0  0  0  0999 V2000
  141.3120   81.2810  223.8560 C   0  0  0  0  0  0  0  0  0  0  0  0
  142.4450   81.1000  223.0620 C   0  0  0  0  0  0  0  0  0  0  0  0
  142.5330   79.9990  222.2050 C   0  0  0  0  0  0  0  0  0  0  0  0
  141.4890   79.0630  222.1390 C   0  0  0  0  0  0  0  0  0  0  0  0
  140.3260   79.2620  222.9240 C   0  0  0  0  0  0  0  0  0  0  0  0
  140.2580   80.3650  223.7910 C   0  0  0  0  0  0  0  0  0  0  0  0
  139.1980   78.2580  222.9230 C   0  0  0  0  0  0  0  0  0  0  0  0
  139.2030   77.3980  221.6620 C   0  0  0  0  0  0  0  0  0  0  0  0
  140.5610   76.8960  221.4300 N   0  0  0  0  0  0  0  0  0  0  0  0
  140.8510   75.4820  221.4220 C   0  0  0  0  0  0  0  0  0  0  0  0
  139.9760   74.5990  221.9680 N   0  0  0  0  0  0  0  0  0  0  0  0
  140.2690   73.2730  222.0200 C   0  0  0  0  0  0  0  0  0  0  0  0
  139.3360   72.3430  222.6050 N   0  0  0  0  0  0  0  0  0  0  0  0
  139.9860   71.0760  222.9830 C   0  0  0  0  0  0  0  0  0  0  0  0
  139.2310   70.3470  224.1160 C   0  0  0  0  0  0  0  0  0  0  0  0
  140.1450   69.8180  225.2500 C   0  0  1  0  0  0  0  0  0  0  0  0
  140.9960   70.9450  225.9040 C   0  0  0  0  0  0  0  0  0  0  0  0
  140.6480   71.1700  227.3790 C   0  0  0  0  0  0  0  0  0  0  0  0
  140.6990   69.8630  228.1870 C   0  0  0  0  0  0  0  0  0  0  0  0
  140.2470   68.6360  227.3710 C   0  0  0  0  0  0  0  0  0  0  0  0
  139.3860   69.0220  226.2440 N   0  0  0  0  0  0  0  0  0  0  0  0
  141.4360   72.8250  221.4900 N   0  0  0  0  0  0  0  0  0  0  0  0
  142.3160   73.6930  220.9240 C   0  0  0  0  0  0  0  0  0  0  0  0
  143.5600   73.2160  220.3670 N   0  0  0  0  0  0  0  0  0  0  0  0
  144.7710   74.0430  220.4600 C   0  0  0  0  0  0  0  0  0  0  0  0
  146.0220   73.1610  220.3910 C   0  0  0  0  0  0  0  0  0  0  0  0
  145.9710   72.3020  219.2690 O   0  0  0  0  0  0  0  0  0  0  0  0
  144.9110   71.3810  219.4300 C   0  0  0  0  0  0  0  0  0  0  0  0
  143.5580   72.0990  219.4120 C   0  0  0  0  0  0  0  0  0  0  0  0
  142.0160   75.0190  220.8980 N   0  0  0  0  0  0  0  0  0  0  0  0
  141.6100   77.8970  221.1860 C   0  0  0  0  0  0  0  0  0  0  0  0
  141.2481   82.1451  224.5336 H   0  0  0  0  0  0  0  0  0  0  0  0
  143.2707   81.8252  223.1105 H   0  0  0  0  0  0  0  0  0  0  0  0
  143.4268   79.8652  221.5779 H   0  0  0  0  0  0  0  0  0  0  0  0
  139.3693   80.5090  224.4231 H   0  0  0  0  0  0  0  0  0  0  0  0
  139.3039   77.6032  223.8005 H   0  0  0  0  0  0  0  0  0  0  0  0
  138.2482   78.8121  222.9541 H   0  0  0  0  0  0  0  0  0  0  0  0
  138.5139   76.5504  221.7913 H   0  0  0  0  0  0  0  0  0  0  0  0
  138.8780   78.0004  220.8009 H   0  0  0  0  0  0  0  0  0  0  0  0
  138.9350   72.7880  223.4640 H   0  0  0  0  0  0  0  0  0  0  0  0
  138.5520   72.1510  221.9380 H   0  0  0  0  0  0  0  0  0  0  0  0
  140.0211   70.4193  222.1013 H   0  0  0  0  0  0  0  0  0  0  0  0
  140.9966   71.3113  223.3482 H   0  0  0  0  0  0  0  0  0  0  0  0
  138.5070   71.0489  224.5555 H   0  0  0  0  0  0  0  0  0  0  0  0
  138.7503   69.4682  223.6613 H   0  0  0  0  0  0  0  0  0  0  0  0
  140.8664   69.1310  224.7835 H   0  0  0  0  0  0  0  0  0  0  0  0
  142.0587   70.6704  225.8313 H   0  0  0  0  0  0  0  0  0  0  0  0
  140.7789   71.8794  225.3657 H   0  0  0  0  0  0  0  0  0  0  0  0
  141.3675   71.8822  227.8093 H   0  0  0  0  0  0  0  0  0  0  0  0
  139.6216   71.5623  227.4306 H   0  0  0  0  0  0  0  0  0  0  0  0
  141.7331   69.6988  228.5242 H   0  0  0  0  0  0  0  0  0  0  0  0
  140.0049   69.9707  229.0335 H   0  0  0  0  0  0  0  0  0  0  0  0
  141.1364   68.1200  226.9802 H   0  0  0  0  0  0  0  0  0  0  0  0
  139.6692   67.9758  228.0346 H   0  0  0  0  0  0  0  0  0  0  0  0
  139.0310   68.1510  225.7840 H   0  0  0  0  0  0  0  0  0  0  0  0
  138.5620   69.5500  226.6140 H   0  0  0  0  0  0  0  0  0  0  0  0
  144.7859   74.7602  219.6261 H   0  0  0  0  0  0  0  0  0  0  0  0
  144.7645   74.5815  221.4192 H   0  0  0  0  0  0  0  0  0  0  0  0
  146.9118   73.8031  220.3132 H   0  0  0  0  0  0  0  0  0  0  0  0
  146.0706   72.5471  221.3024 H   0  0  0  0  0  0  0  0  0  0  0  0
  144.9416   70.6491  218.6094 H   0  0  0  0  0  0  0  0  0  0  0  0
  145.0283   70.8749  220.3996 H   0  0  0  0  0  0  0  0  0  0  0  0
  143.3665   72.4868  218.4006 H   0  0  0  0  0  0  0  0  0  0  0  0
  142.7708   71.3857  219.6977 H   0  0  0  0  0  0  0  0  0  0  0  0
  142.5942   77.4247  221.3209 H   0  0  0  0  0  0  0  0  0  0  0  0
  141.4969   78.2749  220.1592 H   0  0  0  0  0  0  0  0  0  0  0  0
  1  2  2  0
  2  3  1  0
  3  4  2  0
  4  5  1  0
  5  6  2  0
  5  7  1  0
  7  8  1  0
  8  9  1  0
  9 10  1  0
 10 11  2  0
 11 12  1  0
 12 13  1  0
 13 14  1  0
 14 15  1  0
 15 16  1  0
 16 17  1  0
 17 18  1  0
 18 19  1  0
 19 20  1  0
 20 21  1  0
 12 22  2  0
 22 23  1  0
 23 24  1  0
 24 25  1  0
 25 26  1  0
 26 27  1  0
 27 28  1  0
 28 29  1  0
 23 30  2  0
  9 31  1  0
  6  1  1  0
 30 10  1  0
 31  4  1  0
 21 16  1  0
 29 24  1  0
  1 32  1  0
  2 33  1  0
  3 34  1  0
  6 35  1  0
  7 36  1  0
  7 37  1  0
  8 38  1  0
  8 39  1  0
 13 40  1  0
 13 41  1  0
 14 42  1  0
 14 43  1  0
 15 44  1  0
 15 45  1  0
 16 46  1  6
 17 47  1  0
 17 48  1  0
 18 49  1  0
 18 50  1  0
 19 51  1  0
 19 52  1  0
 20 53  1  0
 20 54  1  0
 21 55  1  0
 21 56  1  0
 25 57  1  0
 25 58  1  0
 26 59  1  0
 26 60  1  0
 28 61  1  0
 28 62  1  0
 29 63  1  0
 29 64  1  0
 31 65  1  0
 31 66  1  0
M  CHG  2  13   1  21   1
M  END
>  <UniqueID>  (54) 
489

>  <SMILES>  (54) 
c1ccc2c(c1)CCN(c1nc([NH2+]CC[C@H]3CCCC[NH2+]3)nc(N3CCOCC3)n1)C2

>  <Energy>  (54) 
77.74978138796354

>  <Genealogy>  (54) 
c1ccc2c(c1)CCN(c1nc([NH2+]CCC3CCCC[NH2+]3)nc(N3CCOCC3)n1)C2 (protonated)
c1ccc2c(c1)CCN(c1nc([NH2+]CC[C@H]3CCCC[NH2+]3)nc(N3CCOCC3)n1)C2 (chirality)
c1ccc2c(c1)CCN(c1nc([NH2+]CC[C@H]3CCCC[NH2+]3)nc(N3CCOCC3)n1)C2 (3D coordinates assigned)
c1ccc2c(c1)CCN(c1nc([NH2+]CC[C@H]3CCCC[NH2+]3)nc(N3CCOCC3)n1)C2 (nonaromatic ring conformer: 77.74978138796354 kcal/mol)

>  <smiles>  (54) 
c1ccc2c(c1)CCN(c1nc(NCCC3CCCCN3)nc(N3CCOCC3)n1)C2

>  <score_type>  (54) 
oracle

>  <origin>  (54) 
autodockgpu

>  <m_score__min__energy>  (54) 
-9.5299999999999994

>  <m_primary>  (54) 
energy

>  <meeko>  (54) 
{"free_energy": -9.5, "intermolecular_energy": -11.29, "internal_energy": -0.03, "cluster_size": 6, "cluster_id": 1, "rank_in_cluster": 3}

>  <energy>  (54) 
-8.25

>  <cluster_rmsd>  (54) 
0.46

>  <rmsd>  (54) 
269.62

>  <cluster>  (54) 
4

$$$$
MXRVYNFLTYDQGX-DQWMCRLMNA-P
     RDKit          3D

 66 70  0  0  0  0  0  0  0  0999 V2000
  141.0590   81.2630  223.8410 C   0  0  0  0  0  0  0  0  0  0  0  0
  142.2220   81.1280  223.0820 C   0  0  0  0  0  0  0  0  0  0  0  0
  142.3820   80.0310  222.2320 C   0  0  0  0  0  0  0  0  0  0  0  0
  141.3810   79.0510  222.1370 C   0  0  0  0  0  0  0  0  0  0  0  0
  140.1870   79.2030  222.8850 C   0  0  0  0  0  0  0  0  0  0  0  0
  140.0460   80.3040  223.7460 C   0  0  0  0  0  0  0  0  0  0  0  0
  139.1020   78.1530  222.8520 C   0  0  0  0  0  0  0  0  0  0  0  0
  139.1820   77.2920  221.5950 C   0  0  0  0  0  0  0  0  0  0  0  0
  140.5660   76.8460  221.4060 N   0  0  0  0  0  0  0  0  0  0  0  0
  140.9150   75.4460  221.4110 C   0  0  0  0  0  0  0  0  0  0  0  0
  140.1330   74.5470  222.0610 N   0  0  0  0  0  0  0  0  0  0  0  0
  140.4860   73.2350  222.1230 C   0  0  0  0  0  0  0  0  0  0  0  0
  139.6520   72.2880  222.8190 N   0  0  0  0  0  0  0  0  0  0  0  0
  140.3080   71.7620  224.0290 C   0  0  0  0  0  0  0  0  0  0  0  0
  139.9100   70.2980  224.3190 C   0  0  0  0  0  0  0  0  0  0  0  0
  140.6450   69.6680  225.5290 C   0  0  1  0  0  0  0  0  0  0  0  0
  140.7070   70.6280  226.7540 C   0  0  0  0  0  0  0  0  0  0  0  0
  139.9360   70.0930  227.9650 C   0  0  0  0  0  0  0  0  0  0  0  0
  140.3600   68.6610  228.3290 C   0  0  0  0  0  0  0  0  0  0  0  0
  140.7260   67.8130  227.0960 C   0  0  0  0  0  0  0  0  0  0  0  0
  140.0990   68.3340  225.8730 N   0  0  0  0  0  0  0  0  0  0  0  0
  141.6180   72.8180  221.5000 N   0  0  0  0  0  0  0  0  0  0  0  0
  142.4040   73.7030  220.8310 C   0  0  0  0  0  0  0  0  0  0  0  0
  143.6110   73.2580  220.1750 N   0  0  0  0  0  0  0  0  0  0  0  0
  143.5250   72.4450  218.9530 C   0  0  0  0  0  0  0  0  0  0  0  0
  144.8010   72.6040  218.1190 C   0  0  0  0  0  0  0  0  0  0  0  0
  145.9510   72.3730  218.9090 O   0  0  0  0  0  0  0  0  0  0  0  0
  146.0560   73.3840  219.8930 C   0  0  0  0  0  0  0  0  0  0  0  0
  144.8950   73.2970  220.8890 C   0  0  0  0  0  0  0  0  0  0  0  0
  142.0460   75.0140  220.7950 N   0  0  0  0  0  0  0  0  0  0  0  0
  141.5800   77.8900  221.1920 C   0  0  0  0  0  0  0  0  0  0  0  0
  140.9391   82.1244  224.5145 H   0  0  0  0  0  0  0  0  0  0  0  0
  143.0148   81.8872  223.1531 H   0  0  0  0  0  0  0  0  0  0  0  0
  143.2992   79.9342  221.6325 H   0  0  0  0  0  0  0  0  0  0  0  0
  139.1327   80.4123  224.3494 H   0  0  0  0  0  0  0  0  0  0  0  0
  139.2074   77.5048  223.7344 H   0  0  0  0  0  0  0  0  0  0  0  0
  138.1296   78.6673  222.8518 H   0  0  0  0  0  0  0  0  0  0  0  0
  138.5249   76.4168  221.7056 H   0  0  0  0  0  0  0  0  0  0  0  0
  138.8596   77.8792  220.7225 H   0  0  0  0  0  0  0  0  0  0  0  0
  138.7700   72.7790  223.0970 H   0  0  0  0  0  0  0  0  0  0  0  0
  139.4000   71.4950  222.1830 H   0  0  0  0  0  0  0  0  0  0  0  0
  141.3982   71.8120  223.8911 H   0  0  0  0  0  0  0  0  0  0  0  0
  139.9838   72.3754  224.8826 H   0  0  0  0  0  0  0  0  0  0  0  0
  138.8286   70.2674  224.5181 H   0  0  0  0  0  0  0  0  0  0  0  0
  140.1971   69.7110  223.4341 H   0  0  0  0  0  0  0  0  0  0  0  0
  141.6886   69.5085  225.2200 H   0  0  0  0  0  0  0  0  0  0  0  0
  141.7602   70.7655  227.0402 H   0  0  0  0  0  0  0  0  0  0  0  0
  140.2389   71.5776  226.4555 H   0  0  0  0  0  0  0  0  0  0  0  0
  140.1269   70.7500  228.8264 H   0  0  0  0  0  0  0  0  0  0  0  0
  138.8667   70.0763  227.7075 H   0  0  0  0  0  0  0  0  0  0  0  0
  141.2359   68.7121  228.9925 H   0  0  0  0  0  0  0  0  0  0  0  0
  139.5026   68.1773  228.8199 H   0  0  0  0  0  0  0  0  0  0  0  0
  141.8185   67.8223  226.9684 H   0  0  0  0  0  0  0  0  0  0  0  0
  140.3574   66.7899  227.2615 H   0  0  0  0  0  0  0  0  0  0  0  0
  140.2990   67.6710  225.0880 H   0  0  0  0  0  0  0  0  0  0  0  0
  139.0620   68.3650  226.0130 H   0  0  0  0  0  0  0  0  0  0  0  0
  143.4007   71.3873  219.2285 H   0  0  0  0  0  0  0  0  0  0  0  0
  142.6636   72.7824  218.3580 H   0  0  0  0  0  0  0  0  0  0  0  0
  144.7821   71.8812  217.2901 H   0  0  0  0  0  0  0  0  0  0  0  0
  144.8416   73.6323  217.7305 H   0  0  0  0  0  0  0  0  0  0  0  0
  147.0057   73.2627  220.4347 H   0  0  0  0  0  0  0  0  0  0  0  0
  146.0211   74.3646  219.3959 H   0  0  0  0  0  0  0  0  0  0  0  0
  145.0024   72.3835  221.4923 H   0  0  0  0  0  0  0  0  0  0  0  0
  144.9152   74.1836  221.5398 H   0  0  0  0  0  0  0  0  0  0  0  0
  142.5783   77.4593  221.3589 H   0  0  0  0  0  0  0  0  0  0  0  0
  141.4834   78.2613  220.1611 H   0  0  0  0  0  0  0  0  0  0  0  0
  1  2  2  0
  2  3  1  0
  3  4  2  0
  4  5  1  0
  5  6  2  0
  5  7  1  0
  7  8  1  0
  8  9  1  0
  9 10  1  0
 10 11  2  0
 11 12  1  0
 12 13  1  0
 13 14  1  0
 14 15  1  0
 15 16  1  0
 16 17  1  0
 17 18  1  0
 18 19  1  0
 19 20  1  0
 20 21  1  0
 12 22  2  0
 22 23  1  0
 23 24  1  0
 24 25  1  0
 25 26  1  0
 26 27  1  0
 27 28  1  0
 28 29  1  0
 23 30  2  0
  9 31  1  0
  6  1  1  0
 30 10  1  0
 31  4  1  0
 21 16  1  0
 29 24  1  0
  1 32  1  0
  2 33  1  0
  3 34  1  0
  6 35  1  0
  7 36  1  0
  7 37  1  0
  8 38  1  0
  8 39  1  0
 13 40  1  0
 13 41  1  0
 14 42  1  0
 14 43  1  0
 15 44  1  0
 15 45  1  0
 16 46  1  6
 17 47  1  0
 17 48  1  0
 18 49  1  0
 18 50  1  0
 19 51  1  0
 19 52  1  0
 20 53  1  0
 20 54  1  0
 21 55  1  0
 21 56  1  0
 25 57  1  0
 25 58  1  0
 26 59  1  0
 26 60  1  0
 28 61  1  0
 28 62  1  0
 29 63  1  0
 29 64  1  0
 31 65  1  0
 31 66  1  0
M  CHG  2  13   1  21   1
M  END
>  <UniqueID>  (55) 
489

>  <SMILES>  (55) 
c1ccc2c(c1)CCN(c1nc([NH2+]CC[C@H]3CCCC[NH2+]3)nc(N3CCOCC3)n1)C2

>  <Energy>  (55) 
77.74978138796354

>  <Genealogy>  (55) 
c1ccc2c(c1)CCN(c1nc([NH2+]CCC3CCCC[NH2+]3)nc(N3CCOCC3)n1)C2 (protonated)
c1ccc2c(c1)CCN(c1nc([NH2+]CC[C@H]3CCCC[NH2+]3)nc(N3CCOCC3)n1)C2 (chirality)
c1ccc2c(c1)CCN(c1nc([NH2+]CC[C@H]3CCCC[NH2+]3)nc(N3CCOCC3)n1)C2 (3D coordinates assigned)
c1ccc2c(c1)CCN(c1nc([NH2+]CC[C@H]3CCCC[NH2+]3)nc(N3CCOCC3)n1)C2 (nonaromatic ring conformer: 77.74978138796354 kcal/mol)

>  <smiles>  (55) 
c1ccc2c(c1)CCN(c1nc(NCCC3CCCCN3)nc(N3CCOCC3)n1)C2

>  <score_type>  (55) 
oracle

>  <origin>  (55) 
autodockgpu

>  <m_score__min__energy>  (55) 
-9.5299999999999994

>  <m_primary>  (55) 
energy

>  <meeko>  (55) 
{"free_energy": -9.53, "intermolecular_energy": -11.32, "internal_energy": 0.02, "cluster_size": 6, "cluster_id": 1, "rank_in_cluster": 1}

>  <energy>  (55) 
-8.24

>  <cluster_rmsd>  (55) 
0.46

>  <rmsd>  (55) 
269.61

>  <cluster>  (55) 
4

$$$$
MXRVYNFLTYDQGX-DQWMCRLMNA-P
     RDKit          3D

 66 70  0  0  0  0  0  0  0  0999 V2000
  141.3120   81.2470  223.8570 C   0  0  0  0  0  0  0  0  0  0  0  0
  142.4440   81.0650  223.0610 C   0  0  0  0  0  0  0  0  0  0  0  0
  142.5300   79.9660  222.2030 C   0  0  0  0  0  0  0  0  0  0  0  0
  141.4840   79.0310  222.1370 C   0  0  0  0  0  0  0  0  0  0  0  0
  140.3220   79.2310  222.9220 C   0  0  0  0  0  0  0  0  0  0  0  0
  140.2560   80.3320  223.7920 C   0  0  0  0  0  0  0  0  0  0  0  0
  139.1920   78.2280  222.9210 C   0  0  0  0  0  0  0  0  0  0  0  0
  139.1950   77.3710  221.6590 C   0  0  0  0  0  0  0  0  0  0  0  0
  140.5530   76.8670  221.4240 N   0  0  0  0  0  0  0  0  0  0  0  0
  140.8400   75.4530  221.4140 C   0  0  0  0  0  0  0  0  0  0  0  0
  139.9650   74.5700  221.9590 N   0  0  0  0  0  0  0  0  0  0  0  0
  140.2550   73.2430  222.0080 C   0  0  0  0  0  0  0  0  0  0  0  0
  139.3220   72.3140  222.5930 N   0  0  0  0  0  0  0  0  0  0  0  0
  138.2330   71.9680  221.6620 C   0  0  0  0  0  0  0  0  0  0  0  0
  137.8130   73.1670  220.7830 C   0  0  0  0  0  0  0  0  0  0  0  0
  138.3860   73.1310  219.3440 C   0  0  1  0  0  0  0  0  0  0  0  0
  137.8110   74.2660  218.4460 C   0  0  0  0  0  0  0  0  0  0  0  0
  138.8840   75.2610  217.9900 C   0  0  0  0  0  0  0  0  0  0  0  0
  140.0810   74.5540  217.3350 C   0  0  0  0  0  0  0  0  0  0  0  0
  140.3890   73.1830  217.9700 C   0  0  0  0  0  0  0  0  0  0  0  0
  139.8670   73.0920  219.3410 N   0  0  0  0  0  0  0  0  0  0  0  0
  141.4220   72.7950  221.4770 N   0  0  0  0  0  0  0  0  0  0  0  0
  142.3020   73.6630  220.9130 C   0  0  0  0  0  0  0  0  0  0  0  0
  143.5450   73.1840  220.3550 N   0  0  0  0  0  0  0  0  0  0  0  0
  144.7590   74.0070  220.4530 C   0  0  0  0  0  0  0  0  0  0  0  0
  146.0070   73.1220  220.3810 C   0  0  0  0  0  0  0  0  0  0  0  0
  145.9560   72.2690  219.2540 O   0  0  0  0  0  0  0  0  0  0  0  0
  144.8920   71.3500  219.4100 C   0  0  0  0  0  0  0  0  0  0  0  0
  143.5410   72.0720  219.3940 C   0  0  0  0  0  0  0  0  0  0  0  0
  142.0050   74.9890  220.8890 N   0  0  0  0  0  0  0  0  0  0  0  0
  141.6030   77.8670  221.1820 C   0  0  0  0  0  0  0  0  0  0  0  0
  141.2503   82.1104  224.5358 H   0  0  0  0  0  0  0  0  0  0  0  0
  143.2707   81.7890  223.1095 H   0  0  0  0  0  0  0  0  0  0  0  0
  143.4230   79.8320  221.5748 H   0  0  0  0  0  0  0  0  0  0  0  0
  139.3686   80.4754  224.4259 H   0  0  0  0  0  0  0  0  0  0  0  0
  139.2981   77.5715  223.7972 H   0  0  0  0  0  0  0  0  0  0  0  0
  138.2428   78.7829  222.9547 H   0  0  0  0  0  0  0  0  0  0  0  0
  138.5049   76.5241  221.7872 H   0  0  0  0  0  0  0  0  0  0  0  0
  138.8704   77.9759  220.7995 H   0  0  0  0  0  0  0  0  0  0  0  0
  139.8470   71.4430  222.8390 H   0  0  0  0  0  0  0  0  0  0  0  0
  138.9180   72.7140  223.4730 H   0  0  0  0  0  0  0  0  0  0  0  0
  138.5723   71.1511  221.0081 H   0  0  0  0  0  0  0  0  0  0  0  0
  137.3607   71.6662  222.2603 H   0  0  0  0  0  0  0  0  0  0  0  0
  136.7150   73.1785  220.7169 H   0  0  0  0  0  0  0  0  0  0  0  0
  138.2205   74.0690  221.2630 H   0  0  0  0  0  0  0  0  0  0  0  0
  138.0475   72.1884  218.8892 H   0  0  0  0  0  0  0  0  0  0  0  0
  137.3515   73.8117  217.5558 H   0  0  0  0  0  0  0  0  0  0  0  0
  137.0750   74.8226  219.0448 H   0  0  0  0  0  0  0  0  0  0  0  0
  138.4389   75.9548  217.2617 H   0  0  0  0  0  0  0  0  0  0  0  0
  139.2497   75.7980  218.8776 H   0  0  0  0  0  0  0  0  0  0  0  0
  139.8596   74.4048  216.2679 H   0  0  0  0  0  0  0  0  0  0  0  0
  140.9639   75.1929  217.4844 H   0  0  0  0  0  0  0  0  0  0  0  0
  139.9260   72.3944  217.3587 H   0  0  0  0  0  0  0  0  0  0  0  0
  141.4814   73.0596  218.0089 H   0  0  0  0  0  0  0  0  0  0  0  0
  140.1850   72.1850  219.7580 H   0  0  0  0  0  0  0  0  0  0  0  0
  140.2750   73.8690  219.9100 H   0  0  0  0  0  0  0  0  0  0  0  0
  144.7768   74.7281  219.6225 H   0  0  0  0  0  0  0  0  0  0  0  0
  144.7533   74.5408  221.4148 H   0  0  0  0  0  0  0  0  0  0  0  0
  146.8987   73.7620  220.3083 H   0  0  0  0  0  0  0  0  0  0  0  0
  146.0518   72.5027  221.2890 H   0  0  0  0  0  0  0  0  0  0  0  0
  144.9212   70.6217  218.5862 H   0  0  0  0  0  0  0  0  0  0  0  0
  145.0068   70.8395  220.3776 H   0  0  0  0  0  0  0  0  0  0  0  0
  143.3520   72.4657  218.3844 H   0  0  0  0  0  0  0  0  0  0  0  0
  142.7514   71.3595  219.6748 H   0  0  0  0  0  0  0  0  0  0  0  0
  142.5866   77.3931  221.3158 H   0  0  0  0  0  0  0  0  0  0  0  0
  141.4900   78.2472  220.1560 H   0  0  0  0  0  0  0  0  0  0  0  0
  1  2  2  0
  2  3  1  0
  3  4  2  0
  4  5  1  0
  5  6  2  0
  5  7  1  0
  7  8  1  0
  8  9  1  0
  9 10  1  0
 10 11  2  0
 11 12  1  0
 12 13  1  0
 13 14  1  0
 14 15  1  0
 15 16  1  0
 16 17  1  0
 17 18  1  0
 18 19  1  0
 19 20  1  0
 20 21  1  0
 12 22  2  0
 22 23  1  0
 23 24  1  0
 24 25  1  0
 25 26  1  0
 26 27  1  0
 27 28  1  0
 28 29  1  0
 23 30  2  0
  9 31  1  0
  6  1  1  0
 30 10  1  0
 31  4  1  0
 21 16  1  0
 29 24  1  0
  1 32  1  0
  2 33  1  0
  3 34  1  0
  6 35  1  0
  7 36  1  0
  7 37  1  0
  8 38  1  0
  8 39  1  0
 13 40  1  0
 13 41  1  0
 14 42  1  0
 14 43  1  0
 15 44  1  0
 15 45  1  0
 16 46  1  6
 17 47  1  0
 17 48  1  0
 18 49  1  0
 18 50  1  0
 19 51  1  0
 19 52  1  0
 20 53  1  0
 20 54  1  0
 21 55  1  0
 21 56  1  0
 25 57  1  0
 25 58  1  0
 26 59  1  0
 26 60  1  0
 28 61  1  0
 28 62  1  0
 29 63  1  0
 29 64  1  0
 31 65  1  0
 31 66  1  0
M  CHG  2  13   1  21   1
M  END
>  <UniqueID>  (56) 
489

>  <SMILES>  (56) 
c1ccc2c(c1)CCN(c1nc([NH2+]CC[C@H]3CCCC[NH2+]3)nc(N3CCOCC3)n1)C2

>  <Energy>  (56) 
77.74978138796354

>  <Genealogy>  (56) 
c1ccc2c(c1)CCN(c1nc([NH2+]CCC3CCCC[NH2+]3)nc(N3CCOCC3)n1)C2 (protonated)
c1ccc2c(c1)CCN(c1nc([NH2+]CC[C@H]3CCCC[NH2+]3)nc(N3CCOCC3)n1)C2 (chirality)
c1ccc2c(c1)CCN(c1nc([NH2+]CC[C@H]3CCCC[NH2+]3)nc(N3CCOCC3)n1)C2 (3D coordinates assigned)
c1ccc2c(c1)CCN(c1nc([NH2+]CC[C@H]3CCCC[NH2+]3)nc(N3CCOCC3)n1)C2 (nonaromatic ring conformer: 77.74978138796354 kcal/mol)

>  <smiles>  (56) 
c1ccc2c(c1)CCN(c1nc(NCCC3CCCCN3)nc(N3CCOCC3)n1)C2

>  <score_type>  (56) 
oracle

>  <origin>  (56) 
autodockgpu

>  <m_score__min__energy>  (56) 
-9.5299999999999994

>  <m_primary>  (56) 
energy

>  <meeko>  (56) 
{"free_energy": -6.76, "intermolecular_energy": -8.55, "internal_energy": -2.22, "cluster_size": 6, "cluster_id": 4, "rank_in_cluster": 6}

>  <energy>  (56) 
-6.76

>  <cluster_rmsd>  (56) 
1.76

>  <rmsd>  (56) 
269.17

>  <cluster>  (56) 
4

$$$$
MXRVYNFLTYDQGX-DQWMCRLMNA-P
     RDKit          3D

 66 70  0  0  0  0  0  0  0  0999 V2000
  141.2820   81.2930  223.8460 C   0  0  0  0  0  0  0  0  0  0  0  0
  142.4040   81.1450  223.0290 C   0  0  0  0  0  0  0  0  0  0  0  0
  142.5020   80.0510  222.1640 C   0  0  0  0  0  0  0  0  0  0  0  0
  141.4800   79.0900  222.1130 C   0  0  0  0  0  0  0  0  0  0  0  0
  140.3280   79.2560  222.9200 C   0  0  0  0  0  0  0  0  0  0  0  0
  140.2490   80.3510  223.7960 C   0  0  0  0  0  0  0  0  0  0  0  0
  139.2250   78.2240  222.9350 C   0  0  0  0  0  0  0  0  0  0  0  0
  139.2270   77.3720  221.6690 C   0  0  0  0  0  0  0  0  0  0  0  0
  140.5930   76.9050  221.4070 N   0  0  0  0  0  0  0  0  0  0  0  0
  140.9170   75.4990  221.3850 C   0  0  0  0  0  0  0  0  0  0  0  0
  140.1090   74.5980  222.0000 N   0  0  0  0  0  0  0  0  0  0  0  0
  140.4380   73.2800  222.0360 C   0  0  0  0  0  0  0  0  0  0  0  0
  139.5760   72.3310  222.6950 N   0  0  0  0  0  0  0  0  0  0  0  0
  140.3260   71.1740  223.2150 C   0  0  0  0  0  0  0  0  0  0  0  0
  139.5200   70.3800  224.2670 C   0  0  0  0  0  0  0  0  0  0  0  0
  140.3860   69.7490  225.3860 C   0  0  1  0  0  0  0  0  0  0  0  0
  140.6300   70.7270  226.5730 C   0  0  0  0  0  0  0  0  0  0  0  0
  140.0040   70.2360  227.8830 C   0  0  0  0  0  0  0  0  0  0  0  0
  140.4320   68.7980  228.2190 C   0  0  0  0  0  0  0  0  0  0  0  0
  140.6150   67.9190  226.9670 C   0  0  0  0  0  0  0  0  0  0  0  0
  139.8510   68.4380  225.8240 N   0  0  0  0  0  0  0  0  0  0  0  0
  141.5730   72.8580  221.4220 N   0  0  0  0  0  0  0  0  0  0  0  0
  142.3850   73.7440  220.7880 C   0  0  0  0  0  0  0  0  0  0  0  0
  143.5960   73.2930  220.1410 N   0  0  0  0  0  0  0  0  0  0  0  0
  143.5170   72.5260  218.8900 C   0  0  0  0  0  0  0  0  0  0  0  0
  144.8130   72.6830  218.0890 C   0  0  0  0  0  0  0  0  0  0  0  0
  145.9410   72.3980  218.8940 O   0  0  0  0  0  0  0  0  0  0  0  0
  146.0480   73.3720  219.9140 C   0  0  0  0  0  0  0  0  0  0  0  0
  144.8650   73.2780  220.8820 C   0  0  0  0  0  0  0  0  0  0  0  0
  142.0510   75.0620  220.7770 N   0  0  0  0  0  0  0  0  0  0  0  0
  141.6120   77.9330  221.1500 C   0  0  0  0  0  0  0  0  0  0  0  0
  141.2100   82.1514  224.5300 H   0  0  0  0  0  0  0  0  0  0  0  0
  143.2123   81.8902  223.0658 H   0  0  0  0  0  0  0  0  0  0  0  0
  143.3863   79.9425  221.5188 H   0  0  0  0  0  0  0  0  0  0  0  0
  139.3698   80.4685  224.4465 H   0  0  0  0  0  0  0  0  0  0  0  0
  139.3642   77.5670  223.8062 H   0  0  0  0  0  0  0  0  0  0  0  0
  138.2625   78.7539  222.9883 H   0  0  0  0  0  0  0  0  0  0  0  0
  138.5618   76.5067  221.8062 H   0  0  0  0  0  0  0  0  0  0  0  0
  138.8706   77.9714  220.8183 H   0  0  0  0  0  0  0  0  0  0  0  0
  139.1110   72.8210  223.4950 H   0  0  0  0  0  0  0  0  0  0  0  0
  138.8330   72.0010  222.0350 H   0  0  0  0  0  0  0  0  0  0  0  0
  140.5702   70.5047  222.3769 H   0  0  0  0  0  0  0  0  0  0  0  0
  141.2358   71.5535  223.7031 H   0  0  0  0  0  0  0  0  0  0  0  0
  138.7960   71.0634  224.7349 H   0  0  0  0  0  0  0  0  0  0  0  0
  139.0371   69.5480  223.7336 H   0  0  0  0  0  0  0  0  0  0  0  0
  141.3769   69.5532  224.9504 H   0  0  0  0  0  0  0  0  0  0  0  0
  141.7144   70.8371  226.7209 H   0  0  0  0  0  0  0  0  0  0  0  0
  140.1547   71.6853  226.3166 H   0  0  0  0  0  0  0  0  0  0  0  0
  140.3205   70.9013  228.6998 H   0  0  0  0  0  0  0  0  0  0  0  0
  138.9105   70.2473  227.7637 H   0  0  0  0  0  0  0  0  0  0  0  0
  141.3863   68.8343  228.7649 H   0  0  0  0  0  0  0  0  0  0  0  0
  139.6311   68.3480  228.8241 H   0  0  0  0  0  0  0  0  0  0  0  0
  141.6821   67.8944  226.7012 H   0  0  0  0  0  0  0  0  0  0  0  0
  140.2439   66.9097  227.1985 H   0  0  0  0  0  0  0  0  0  0  0  0
  139.9320   67.7560  225.0330 H   0  0  0  0  0  0  0  0  0  0  0  0
  138.8430   68.5020  226.0930 H   0  0  0  0  0  0  0  0  0  0  0  0
  143.3620   71.4627  219.1252 H   0  0  0  0  0  0  0  0  0  0  0  0
  142.6766   72.9049  218.2898 H   0  0  0  0  0  0  0  0  0  0  0  0
  144.7952   71.9895  217.2353 H   0  0  0  0  0  0  0  0  0  0  0  0
  144.8854   73.7228  217.7375 H   0  0  0  0  0  0  0  0  0  0  0  0
  146.9830   73.2103  220.4704 H   0  0  0  0  0  0  0  0  0  0  0  0
  146.0459   74.3696  219.4505 H   0  0  0  0  0  0  0  0  0  0  0  0
  144.9391   72.3423  221.4555 H   0  0  0  0  0  0  0  0  0  0  0  0
  144.8913   74.1412  221.5633 H   0  0  0  0  0  0  0  0  0  0  0  0
  142.6100   77.4845  221.2634 H   0  0  0  0  0  0  0  0  0  0  0  0
  141.4704   78.3142  220.1279 H   0  0  0  0  0  0  0  0  0  0  0  0
  1  2  2  0
  2  3  1  0
  3  4  2  0
  4  5  1  0
  5  6  2  0
  5  7  1  0
  7  8  1  0
  8  9  1  0
  9 10  1  0
 10 11  2  0
 11 12  1  0
 12 13  1  0
 13 14  1  0
 14 15  1  0
 15 16  1  0
 16 17  1  0
 17 18  1  0
 18 19  1  0
 19 20  1  0
 20 21  1  0
 12 22  2  0
 22 23  1  0
 23 24  1  0
 24 25  1  0
 25 26  1  0
 26 27  1  0
 27 28  1  0
 28 29  1  0
 23 30  2  0
  9 31  1  0
  6  1  1  0
 30 10  1  0
 31  4  1  0
 21 16  1  0
 29 24  1  0
  1 32  1  0
  2 33  1  0
  3 34  1  0
  6 35  1  0
  7 36  1  0
  7 37  1  0
  8 38  1  0
  8 39  1  0
 13 40  1  0
 13 41  1  0
 14 42  1  0
 14 43  1  0
 15 44  1  0
 15 45  1  0
 16 46  1  6
 17 47  1  0
 17 48  1  0
 18 49  1  0
 18 50  1  0
 19 51  1  0
 19 52  1  0
 20 53  1  0
 20 54  1  0
 21 55  1  0
 21 56  1  0
 25 57  1  0
 25 58  1  0
 26 59  1  0
 26 60  1  0
 28 61  1  0
 28 62  1  0
 29 63  1  0
 29 64  1  0
 31 65  1  0
 31 66  1  0
M  CHG  2  13   1  21   1
M  END
>  <UniqueID>  (57) 
489

>  <SMILES>  (57) 
c1ccc2c(c1)CCN(c1nc([NH2+]CC[C@H]3CCCC[NH2+]3)nc(N3CCOCC3)n1)C2

>  <Energy>  (57) 
77.74978138796354

>  <Genealogy>  (57) 
c1ccc2c(c1)CCN(c1nc([NH2+]CCC3CCCC[NH2+]3)nc(N3CCOCC3)n1)C2 (protonated)
c1ccc2c(c1)CCN(c1nc([NH2+]CC[C@H]3CCCC[NH2+]3)nc(N3CCOCC3)n1)C2 (chirality)
c1ccc2c(c1)CCN(c1nc([NH2+]CC[C@H]3CCCC[NH2+]3)nc(N3CCOCC3)n1)C2 (3D coordinates assigned)
c1ccc2c(c1)CCN(c1nc([NH2+]CC[C@H]3CCCC[NH2+]3)nc(N3CCOCC3)n1)C2 (nonaromatic ring conformer: 77.74978138796354 kcal/mol)

>  <smiles>  (57) 
c1ccc2c(c1)CCN(c1nc(NCCC3CCCCN3)nc(N3CCOCC3)n1)C2

>  <score_type>  (57) 
oracle

>  <origin>  (57) 
autodockgpu

>  <m_score__min__energy>  (57) 
-9.5299999999999994

>  <m_primary>  (57) 
energy

>  <meeko>  (57) 
{"free_energy": -9.5, "intermolecular_energy": -11.29, "internal_energy": 0.04, "cluster_size": 6, "cluster_id": 1, "rank_in_cluster": 4}

>  <energy>  (57) 
-6.76

>  <cluster_rmsd>  (57) 
1.76

>  <rmsd>  (57) 
269.13

>  <cluster>  (57) 
4

$$$$
MXRVYNFLTYDQGX-DQWMCRLMNA-P
     RDKit          3D

 66 70  0  0  0  0  0  0  0  0999 V2000
  141.3070   81.2690  223.8640 C   0  0  0  0  0  0  0  0  0  0  0  0
  142.4430   81.0840  223.0740 C   0  0  0  0  0  0  0  0  0  0  0  0
  142.5320   79.9810  222.2200 C   0  0  0  0  0  0  0  0  0  0  0  0
  141.4870   79.0460  222.1530 C   0  0  0  0  0  0  0  0  0  0  0  0
  140.3220   79.2490  222.9330 C   0  0  0  0  0  0  0  0  0  0  0  0
  140.2520   80.3540  223.7970 C   0  0  0  0  0  0  0  0  0  0  0  0
  139.1920   78.2460  222.9310 C   0  0  0  0  0  0  0  0  0  0  0  0
  139.2010   77.3830  221.6720 C   0  0  0  0  0  0  0  0  0  0  0  0
  140.5590   76.8790  221.4450 N   0  0  0  0  0  0  0  0  0  0  0  0
  140.8470   75.4650  221.4420 C   0  0  0  0  0  0  0  0  0  0  0  0
  139.9730   74.5850  221.9950 N   0  0  0  0  0  0  0  0  0  0  0  0
  140.2640   73.2580  222.0520 C   0  0  0  0  0  0  0  0  0  0  0  0
  139.3330   72.3320  222.6440 N   0  0  0  0  0  0  0  0  0  0  0  0
  138.3700   71.8120  221.6580 C   0  0  0  0  0  0  0  0  0  0  0  0
  137.7970   72.9280  220.7560 C   0  0  0  0  0  0  0  0  0  0  0  0
  138.4060   72.9680  219.3320 C   0  0  1  0  0  0  0  0  0  0  0  0
  137.7770   74.0840  218.4460 C   0  0  0  0  0  0  0  0  0  0  0  0
  138.7890   75.1610  218.0430 C   0  0  0  0  0  0  0  0  0  0  0  0
  140.0480   74.5540  217.4020 C   0  0  0  0  0  0  0  0  0  0  0  0
  140.4340   73.1920  218.0120 C   0  0  0  0  0  0  0  0  0  0  0  0
  139.8860   73.0300  219.3670 N   0  0  0  0  0  0  0  0  0  0  0  0
  141.4290   72.8070  221.5190 N   0  0  0  0  0  0  0  0  0  0  0  0
  142.3070   73.6720  220.9460 C   0  0  0  0  0  0  0  0  0  0  0  0
  143.5480   73.1900  220.3870 N   0  0  0  0  0  0  0  0  0  0  0  0
  144.7640   74.0110  220.4830 C   0  0  0  0  0  0  0  0  0  0  0  0
  146.0100   73.1230  220.4090 C   0  0  0  0  0  0  0  0  0  0  0  0
  145.9550   72.2690  219.2830 O   0  0  0  0  0  0  0  0  0  0  0  0
  144.8900   71.3520  219.4410 C   0  0  0  0  0  0  0  0  0  0  0  0
  143.5400   72.0770  219.4270 C   0  0  0  0  0  0  0  0  0  0  0  0
  142.0090   74.9980  220.9160 N   0  0  0  0  0  0  0  0  0  0  0  0
  141.6100   77.8780  221.2040 C   0  0  0  0  0  0  0  0  0  0  0  0
  141.2419   82.1348  224.5393 H   0  0  0  0  0  0  0  0  0  0  0  0
  143.2698   81.8078  223.1237 H   0  0  0  0  0  0  0  0  0  0  0  0
  143.4275   79.8446  221.5959 H   0  0  0  0  0  0  0  0  0  0  0  0
  139.3611   80.5006  224.4253 H   0  0  0  0  0  0  0  0  0  0  0  0
  139.2939   77.5933  223.8106 H   0  0  0  0  0  0  0  0  0  0  0  0
  138.2427   78.8010  222.9578 H   0  0  0  0  0  0  0  0  0  0  0  0
  138.5107   76.5363  221.8009 H   0  0  0  0  0  0  0  0  0  0  0  0
  138.8799   77.9841  220.8086 H   0  0  0  0  0  0  0  0  0  0  0  0
  139.8810   71.5320  223.0380 H   0  0  0  0  0  0  0  0  0  0  0  0
  138.8160   72.7940  223.4300 H   0  0  0  0  0  0  0  0  0  0  0  0
  138.8779   71.0702  221.0242 H   0  0  0  0  0  0  0  0  0  0  0  0
  137.5323   71.3609  222.2100 H   0  0  0  0  0  0  0  0  0  0  0  0
  136.7119   72.7735  220.6630 H   0  0  0  0  0  0  0  0  0  0  0  0
  138.0514   73.8846  221.2359 H   0  0  0  0  0  0  0  0  0  0  0  0
  138.1437   72.0165  218.8463 H   0  0  0  0  0  0  0  0  0  0  0  0
  137.3725   73.6222  217.5332 H   0  0  0  0  0  0  0  0  0  0  0  0
  136.9897   74.5734  219.0381 H   0  0  0  0  0  0  0  0  0  0  0  0
  138.3151   75.8417  217.3205 H   0  0  0  0  0  0  0  0  0  0  0  0
  139.0950   75.6985  218.9526 H   0  0  0  0  0  0  0  0  0  0  0  0
  139.8631   74.4172  216.3263 H   0  0  0  0  0  0  0  0  0  0  0  0
  140.8810   75.2476  217.5890 H   0  0  0  0  0  0  0  0  0  0  0  0
  140.0417   72.3895  217.3701 H   0  0  0  0  0  0  0  0  0  0  0  0
  141.5310   73.1429  218.0768 H   0  0  0  0  0  0  0  0  0  0  0  0
  140.2550   72.1360  219.7700 H   0  0  0  0  0  0  0  0  0  0  0  0
  140.2260   73.8180  219.9640 H   0  0  0  0  0  0  0  0  0  0  0  0
  144.7820   74.7320  219.6524 H   0  0  0  0  0  0  0  0  0  0  0  0
  144.7610   74.5452  221.4446 H   0  0  0  0  0  0  0  0  0  0  0  0
  146.9029   73.7610  220.3339 H   0  0  0  0  0  0  0  0  0  0  0  0
  146.0551   72.5043  221.3174 H   0  0  0  0  0  0  0  0  0  0  0  0
  144.9165   70.6234  218.6173 H   0  0  0  0  0  0  0  0  0  0  0  0
  145.0055   70.8412  220.4084 H   0  0  0  0  0  0  0  0  0  0  0  0
  143.3498   72.4701  218.4174 H   0  0  0  0  0  0  0  0  0  0  0  0
  142.7496   71.3663  219.7101 H   0  0  0  0  0  0  0  0  0  0  0  0
  142.5929   77.4046  221.3444 H   0  0  0  0  0  0  0  0  0  0  0  0
  141.5015   78.2539  220.1759 H   0  0  0  0  0  0  0  0  0  0  0  0
  1  2  2  0
  2  3  1  0
  3  4  2  0
  4  5  1  0
  5  6  2  0
  5  7  1  0
  7  8  1  0
  8  9  1  0
  9 10  1  0
 10 11  2  0
 11 12  1  0
 12 13  1  0
 13 14  1  0
 14 15  1  0
 15 16  1  0
 16 17  1  0
 17 18  1  0
 18 19  1  0
 19 20  1  0
 20 21  1  0
 12 22  2  0
 22 23  1  0
 23 24  1  0
 24 25  1  0
 25 26  1  0
 26 27  1  0
 27 28  1  0
 28 29  1  0
 23 30  2  0
  9 31  1  0
  6  1  1  0
 30 10  1  0
 31  4  1  0
 21 16  1  0
 29 24  1  0
  1 32  1  0
  2 33  1  0
  3 34  1  0
  6 35  1  0
  7 36  1  0
  7 37  1  0
  8 38  1  0
  8 39  1  0
 13 40  1  0
 13 41  1  0
 14 42  1  0
 14 43  1  0
 15 44  1  0
 15 45  1  0
 16 46  1  6
 17 47  1  0
 17 48  1  0
 18 49  1  0
 18 50  1  0
 19 51  1  0
 19 52  1  0
 20 53  1  0
 20 54  1  0
 21 55  1  0
 21 56  1  0
 25 57  1  0
 25 58  1  0
 26 59  1  0
 26 60  1  0
 28 61  1  0
 28 62  1  0
 29 63  1  0
 29 64  1  0
 31 65  1  0
 31 66  1  0
M  CHG  2  13   1  21   1
M  END
>  <UniqueID>  (58) 
489

>  <SMILES>  (58) 
c1ccc2c(c1)CCN(c1nc([NH2+]CC[C@H]3CCCC[NH2+]3)nc(N3CCOCC3)n1)C2

>  <Energy>  (58) 
77.74978138796354

>  <Genealogy>  (58) 
c1ccc2c(c1)CCN(c1nc([NH2+]CCC3CCCC[NH2+]3)nc(N3CCOCC3)n1)C2 (protonated)
c1ccc2c(c1)CCN(c1nc([NH2+]CC[C@H]3CCCC[NH2+]3)nc(N3CCOCC3)n1)C2 (chirality)
c1ccc2c(c1)CCN(c1nc([NH2+]CC[C@H]3CCCC[NH2+]3)nc(N3CCOCC3)n1)C2 (3D coordinates assigned)
c1ccc2c(c1)CCN(c1nc([NH2+]CC[C@H]3CCCC[NH2+]3)nc(N3CCOCC3)n1)C2 (nonaromatic ring conformer: 77.74978138796354 kcal/mol)

>  <smiles>  (58) 
c1ccc2c(c1)CCN(c1nc(NCCC3CCCCN3)nc(N3CCOCC3)n1)C2

>  <score_type>  (58) 
oracle

>  <origin>  (58) 
autodockgpu

>  <m_score__min__energy>  (58) 
-9.5299999999999994

>  <m_primary>  (58) 
energy

>  <meeko>  (58) 
{"free_energy": -6.76, "intermolecular_energy": -8.55, "internal_energy": -2.25, "cluster_size": 6, "cluster_id": 4, "rank_in_cluster": 4}

>  <energy>  (58) 
-6.76

>  <cluster_rmsd>  (58) 
1.78

>  <rmsd>  (58) 
269.15

>  <cluster>  (58) 
4

$$$$
MXRVYNFLTYDQGX-DQWMCRLMNA-P
     RDKit          3D

 66 70  0  0  0  0  0  0  0  0999 V2000
  140.1540   67.5110  226.6710 C   0  0  0  0  0  0  0  0  0  0  0  0
  140.6140   68.5970  227.4170 C   0  0  0  0  0  0  0  0  0  0  0  0
  140.5810   69.8850  226.8750 C   0  0  0  0  0  0  0  0  0  0  0  0
  140.0940   70.0990  225.5760 C   0  0  0  0  0  0  0  0  0  0  0  0
  139.5990   69.0010  224.8300 C   0  0  0  0  0  0  0  0  0  0  0  0
  139.6520   67.7100  225.3820 C   0  0  0  0  0  0  0  0  0  0  0  0
  139.1100   69.1730  223.4110 C   0  0  0  0  0  0  0  0  0  0  0  0
  138.7020   70.6150  223.1220 C   0  0  0  0  0  0  0  0  0  0  0  0
  139.7610   71.5160  223.5910 N   0  0  0  0  0  0  0  0  0  0  0  0
  140.4690   72.3840  222.6820 C   0  0  0  0  0  0  0  0  0  0  0  0
  139.9790   73.6150  222.3860 N   0  0  0  0  0  0  0  0  0  0  0  0
  140.6070   74.4160  221.4850 C   0  0  0  0  0  0  0  0  0  0  0  0
  140.0780   75.7190  221.1740 N   0  0  0  0  0  0  0  0  0  0  0  0
  141.1360   76.7430  221.1130 C   0  0  0  0  0  0  0  0  0  0  0  0
  140.6110   78.0940  220.5790 C   0  0  0  0  0  0  0  0  0  0  0  0
  140.8740   79.2950  221.5210 C   0  0  1  0  0  0  0  0  0  0  0  0
  140.4280   79.0110  222.9860 C   0  0  0  0  0  0  0  0  0  0  0  0
  141.6000   79.0080  223.9720 C   0  0  0  0  0  0  0  0  0  0  0  0
  142.4460   80.2870  223.8620 C   0  0  0  0  0  0  0  0  0  0  0  0
  142.5320   80.8270  222.4210 C   0  0  0  0  0  0  0  0  0  0  0  0
  142.2740   79.7710  221.4310 N   0  0  0  0  0  0  0  0  0  0  0  0
  141.7540   73.9880  220.8980 N   0  0  0  0  0  0  0  0  0  0  0  0
  142.2680   72.7650  221.1940 C   0  0  0  0  0  0  0  0  0  0  0  0
  143.4840   72.3100  220.5630 N   0  0  0  0  0  0  0  0  0  0  0  0
  143.5400   70.9730  219.9540 C   0  0  0  0  0  0  0  0  0  0  0  0
  144.6150   70.9310  218.8650 C   0  0  0  0  0  0  0  0  0  0  0  0
  145.8500   71.4130  219.3560 O   0  0  0  0  0  0  0  0  0  0  0  0
  145.7280   72.7880  219.6650 C   0  0  0  0  0  0  0  0  0  0  0  0
  144.7540   73.0010  220.8270 C   0  0  0  0  0  0  0  0  0  0  0  0
  141.6160   71.9690  222.0840 N   0  0  0  0  0  0  0  0  0  0  0  0
  140.0550   71.5070  225.0320 C   0  0  0  0  0  0  0  0  0  0  0  0
  140.1866   66.4977  227.0978 H   0  0  0  0  0  0  0  0  0  0  0  0
  141.0033   68.4391  228.4336 H   0  0  0  0  0  0  0  0  0  0  0  0
  140.9394   70.7373  227.4709 H   0  0  0  0  0  0  0  0  0  0  0  0
  139.2959   66.8501  224.7956 H   0  0  0  0  0  0  0  0  0  0  0  0
  139.9159   68.8858  222.7196 H   0  0  0  0  0  0  0  0  0  0  0  0
  138.2251   68.5339  223.2749 H   0  0  0  0  0  0  0  0  0  0  0  0
  138.5582   70.7474  222.0395 H   0  0  0  0  0  0  0  0  0  0  0  0
  137.7610   70.8457  223.6429 H   0  0  0  0  0  0  0  0  0  0  0  0
  139.6070   75.6610  220.2410 H   0  0  0  0  0  0  0  0  0  0  0  0
  139.3610   75.9960  221.8870 H   0  0  0  0  0  0  0  0  0  0  0  0
  141.5404   76.8951  222.1246 H   0  0  0  0  0  0  0  0  0  0  0  0
  141.9124   76.3852  220.4208 H   0  0  0  0  0  0  0  0  0  0  0  0
  141.1008   78.2978  219.6154 H   0  0  0  0  0  0  0  0  0  0  0  0
  139.5190   77.9956  220.4899 H   0  0  0  0  0  0  0  0  0  0  0  0
  140.2393   80.1213  221.1683 H   0  0  0  0  0  0  0  0  0  0  0  0
  139.7124   79.7881  223.2927 H   0  0  0  0  0  0  0  0  0  0  0  0
  139.9748   78.0089  223.0064 H   0  0  0  0  0  0  0  0  0  0  0  0
  141.2036   78.9309  224.9952 H   0  0  0  0  0  0  0  0  0  0  0  0
  142.2457   78.1508  223.7309 H   0  0  0  0  0  0  0  0  0  0  0  0
  141.9962   81.0614  224.5008 H   0  0  0  0  0  0  0  0  0  0  0  0
  143.4680   80.0354  224.1818 H   0  0  0  0  0  0  0  0  0  0  0  0
  141.7861   81.6254  222.2939 H   0  0  0  0  0  0  0  0  0  0  0  0
  143.5499   81.2106  222.2575 H   0  0  0  0  0  0  0  0  0  0  0  0
  142.4390   80.1650  220.4740 H   0  0  0  0  0  0  0  0  0  0  0  0
  142.9580   78.9940  221.5810 H   0  0  0  0  0  0  0  0  0  0  0  0
  143.7796   70.2306  220.7295 H   0  0  0  0  0  0  0  0  0  0  0  0
  142.5635   70.7438  219.5025 H   0  0  0  0  0  0  0  0  0  0  0  0
  144.7431   69.8926  218.5253 H   0  0  0  0  0  0  0  0  0  0  0  0
  144.2947   71.5717  218.0302 H   0  0  0  0  0  0  0  0  0  0  0  0
  146.7155   73.1834  219.9453 H   0  0  0  0  0  0  0  0  0  0  0  0
  145.3411   73.3147  218.7802 H   0  0  0  0  0  0  0  0  0  0  0  0
  145.1987   72.6021  221.7507 H   0  0  0  0  0  0  0  0  0  0  0  0
  144.5587   74.0780  220.9365 H   0  0  0  0  0  0  0  0  0  0  0  0
  141.0319   71.9836  225.2012 H   0  0  0  0  0  0  0  0  0  0  0  0
  139.2575   72.0578  225.5521 H   0  0  0  0  0  0  0  0  0  0  0  0
  1  2  2  0
  2  3  1  0
  3  4  2  0
  4  5  1  0
  5  6  2  0
  5  7  1  0
  7  8  1  0
  8  9  1  0
  9 10  1  0
 10 11  2  0
 11 12  1  0
 12 13  1  0
 13 14  1  0
 14 15  1  0
 15 16  1  0
 16 17  1  0
 17 18  1  0
 18 19  1  0
 19 20  1  0
 20 21  1  0
 12 22  2  0
 22 23  1  0
 23 24  1  0
 24 25  1  0
 25 26  1  0
 26 27  1  0
 27 28  1  0
 28 29  1  0
 23 30  2  0
  9 31  1  0
  6  1  1  0
 30 10  1  0
 31  4  1  0
 21 16  1  0
 29 24  1  0
  1 32  1  0
  2 33  1  0
  3 34  1  0
  6 35  1  0
  7 36  1  0
  7 37  1  0
  8 38  1  0
  8 39  1  0
 13 40  1  0
 13 41  1  0
 14 42  1  0
 14 43  1  0
 15 44  1  0
 15 45  1  0
 16 46  1  6
 17 47  1  0
 17 48  1  0
 18 49  1  0
 18 50  1  0
 19 51  1  0
 19 52  1  0
 20 53  1  0
 20 54  1  0
 21 55  1  0
 21 56  1  0
 25 57  1  0
 25 58  1  0
 26 59  1  0
 26 60  1  0
 28 61  1  0
 28 62  1  0
 29 63  1  0
 29 64  1  0
 31 65  1  0
 31 66  1  0
M  CHG  2  13   1  21   1
M  END
>  <UniqueID>  (59) 
489

>  <SMILES>  (59) 
c1ccc2c(c1)CCN(c1nc([NH2+]CC[C@H]3CCCC[NH2+]3)nc(N3CCOCC3)n1)C2

>  <Energy>  (59) 
77.74978138796354

>  <Genealogy>  (59) 
c1ccc2c(c1)CCN(c1nc([NH2+]CCC3CCCC[NH2+]3)nc(N3CCOCC3)n1)C2 (protonated)
c1ccc2c(c1)CCN(c1nc([NH2+]CC[C@H]3CCCC[NH2+]3)nc(N3CCOCC3)n1)C2 (chirality)
c1ccc2c(c1)CCN(c1nc([NH2+]CC[C@H]3CCCC[NH2+]3)nc(N3CCOCC3)n1)C2 (3D coordinates assigned)
c1ccc2c(c1)CCN(c1nc([NH2+]CC[C@H]3CCCC[NH2+]3)nc(N3CCOCC3)n1)C2 (nonaromatic ring conformer: 77.74978138796354 kcal/mol)

>  <smiles>  (59) 
c1ccc2c(c1)CCN(c1nc(NCCC3CCCCN3)nc(N3CCOCC3)n1)C2

>  <score_type>  (59) 
oracle

>  <origin>  (59) 
autodockgpu

>  <m_score__min__energy>  (59) 
-9.5299999999999994

>  <m_primary>  (59) 
energy

>  <meeko>  (59) 
{"free_energy": -9.3, "intermolecular_energy": -11.09, "internal_energy": 0.08, "cluster_size": 3, "cluster_id": 2, "rank_in_cluster": 3}

>  <energy>  (59) 
-7.11

>  <cluster_rmsd>  (59) 
0.0

>  <rmsd>  (59) 
269.5

>  <cluster>  (59) 
5

$$$$
MXRVYNFLTYDQGX-DQWMCRLMNA-P
     RDKit          3D

 66 70  0  0  0  0  0  0  0  0999 V2000
  141.2780   81.2310  223.8650 C   0  0  0  0  0  0  0  0  0  0  0  0
  142.4160   81.0530  223.0770 C   0  0  0  0  0  0  0  0  0  0  0  0
  142.5110   79.9530  222.2200 C   0  0  0  0  0  0  0  0  0  0  0  0
  141.4690   79.0150  222.1480 C   0  0  0  0  0  0  0  0  0  0  0  0
  140.3000   79.2120  222.9260 C   0  0  0  0  0  0  0  0  0  0  0  0
  140.2250   80.3140  223.7930 C   0  0  0  0  0  0  0  0  0  0  0  0
  139.1740   78.2060  222.9180 C   0  0  0  0  0  0  0  0  0  0  0  0
  139.1880   77.3470  221.6560 C   0  0  0  0  0  0  0  0  0  0  0  0
  140.5480   76.8470  221.4310 N   0  0  0  0  0  0  0  0  0  0  0  0
  140.8400   75.4340  221.4250 C   0  0  0  0  0  0  0  0  0  0  0  0
  139.9740   74.5510  221.9850 N   0  0  0  0  0  0  0  0  0  0  0  0
  140.2680   73.2250  222.0370 C   0  0  0  0  0  0  0  0  0  0  0  0
  139.3450   72.2960  222.6370 N   0  0  0  0  0  0  0  0  0  0  0  0
  138.4350   71.7040  221.6420 C   0  0  0  0  0  0  0  0  0  0  0  0
  137.7880   72.7720  220.7320 C   0  0  0  0  0  0  0  0  0  0  0  0
  138.3990   72.8510  219.3110 C   0  0  1  0  0  0  0  0  0  0  0  0
  137.7310   73.9500  218.4350 C   0  0  0  0  0  0  0  0  0  0  0  0
  138.7020   75.0700  218.0460 C   0  0  0  0  0  0  0  0  0  0  0  0
  139.9850   74.5180  217.4040 C   0  0  0  0  0  0  0  0  0  0  0  0
  140.4210   73.1660  218.0010 C   0  0  0  0  0  0  0  0  0  0  0  0
  139.8760   72.9690  219.3520 N   0  0  0  0  0  0  0  0  0  0  0  0
  141.4290   72.7780  221.4940 N   0  0  0  0  0  0  0  0  0  0  0  0
  142.3010   73.6460  220.9140 C   0  0  0  0  0  0  0  0  0  0  0  0
  143.5380   73.1680  220.3430 N   0  0  0  0  0  0  0  0  0  0  0  0
  144.7550   73.9850  220.4400 C   0  0  0  0  0  0  0  0  0  0  0  0
  146.0000   73.0970  220.3510 C   0  0  0  0  0  0  0  0  0  0  0  0
  145.9370   72.2550  219.2170 O   0  0  0  0  0  0  0  0  0  0  0  0
  144.8710   71.3380  219.3710 C   0  0  0  0  0  0  0  0  0  0  0  0
  143.5230   72.0650  219.3720 C   0  0  0  0  0  0  0  0  0  0  0  0
  141.9980   74.9710  220.8870 N   0  0  0  0  0  0  0  0  0  0  0  0
  141.5970   77.8500  221.1950 C   0  0  0  0  0  0  0  0  0  0  0  0
  141.2094   82.0939  224.5437 H   0  0  0  0  0  0  0  0  0  0  0  0
  143.2399   81.7799  223.1305 H   0  0  0  0  0  0  0  0  0  0  0  0
  143.4084   79.8213  221.5977 H   0  0  0  0  0  0  0  0  0  0  0  0
  139.3322   80.4567  224.4195 H   0  0  0  0  0  0  0  0  0  0  0  0
  139.2762   77.5507  223.7956 H   0  0  0  0  0  0  0  0  0  0  0  0
  138.2230   78.7581  222.9444 H   0  0  0  0  0  0  0  0  0  0  0  0
  138.4994   76.4983  221.7805 H   0  0  0  0  0  0  0  0  0  0  0  0
  138.8675   77.9500  220.7937 H   0  0  0  0  0  0  0  0  0  0  0  0
  139.9030   71.5320  223.0850 H   0  0  0  0  0  0  0  0  0  0  0  0
  138.7870   72.7750  223.3840 H   0  0  0  0  0  0  0  0  0  0  0  0
  139.0045   71.0025  221.0147 H   0  0  0  0  0  0  0  0  0  0  0  0
  137.6281   71.1914  222.1862 H   0  0  0  0  0  0  0  0  0  0  0  0
  136.7173   72.5392  220.6345 H   0  0  0  0  0  0  0  0  0  0  0  0
  137.9710   73.7461  221.2090 H   0  0  0  0  0  0  0  0  0  0  0  0
  138.1745   71.8956  218.8141 H   0  0  0  0  0  0  0  0  0  0  0  0
  137.3475   73.4823  217.5162 H   0  0  0  0  0  0  0  0  0  0  0  0
  136.9238   74.4027  219.0296 H   0  0  0  0  0  0  0  0  0  0  0  0
  138.2044   75.7389  217.3284 H   0  0  0  0  0  0  0  0  0  0  0  0
  138.9839   75.6105  218.9616 H   0  0  0  0  0  0  0  0  0  0  0  0
  139.8091   74.3853  216.3263 H   0  0  0  0  0  0  0  0  0  0  0  0
  140.7902   75.2409  217.6016 H   0  0  0  0  0  0  0  0  0  0  0  0
  140.0615   72.3558  217.3496 H   0  0  0  0  0  0  0  0  0  0  0  0
  141.5189   73.1584  218.0689 H   0  0  0  0  0  0  0  0  0  0  0  0
  140.2780   72.0860  219.7470 H   0  0  0  0  0  0  0  0  0  0  0  0
  140.1830   73.7640  219.9590 H   0  0  0  0  0  0  0  0  0  0  0  0
  144.7694   74.7138  219.6162 H   0  0  0  0  0  0  0  0  0  0  0  0
  144.7579   74.5093  221.4070 H   0  0  0  0  0  0  0  0  0  0  0  0
  146.8932   73.7348  220.2772 H   0  0  0  0  0  0  0  0  0  0  0  0
  146.0504   72.4697  221.2532 H   0  0  0  0  0  0  0  0  0  0  0  0
  144.8917   70.6182  218.5395 H   0  0  0  0  0  0  0  0  0  0  0  0
  144.9908   70.8168  220.3322 H   0  0  0  0  0  0  0  0  0  0  0  0
  143.3279   72.4687  218.3675 H   0  0  0  0  0  0  0  0  0  0  0  0
  142.7330   71.3527  219.6524 H   0  0  0  0  0  0  0  0  0  0  0  0
  142.5810   77.3788  221.3356 H   0  0  0  0  0  0  0  0  0  0  0  0
  141.4893   78.2290  220.1680 H   0  0  0  0  0  0  0  0  0  0  0  0
  1  2  2  0
  2  3  1  0
  3  4  2  0
  4  5  1  0
  5  6  2  0
  5  7  1  0
  7  8  1  0
  8  9  1  0
  9 10  1  0
 10 11  2  0
 11 12  1  0
 12 13  1  0
 13 14  1  0
 14 15  1  0
 15 16  1  0
 16 17  1  0
 17 18  1  0
 18 19  1  0
 19 20  1  0
 20 21  1  0
 12 22  2  0
 22 23  1  0
 23 24  1  0
 24 25  1  0
 25 26  1  0
 26 27  1  0
 27 28  1  0
 28 29  1  0
 23 30  2  0
  9 31  1  0
  6  1  1  0
 30 10  1  0
 31  4  1  0
 21 16  1  0
 29 24  1  0
  1 32  1  0
  2 33  1  0
  3 34  1  0
  6 35  1  0
  7 36  1  0
  7 37  1  0
  8 38  1  0
  8 39  1  0
 13 40  1  0
 13 41  1  0
 14 42  1  0
 14 43  1  0
 15 44  1  0
 15 45  1  0
 16 46  1  6
 17 47  1  0
 17 48  1  0
 18 49  1  0
 18 50  1  0
 19 51  1  0
 19 52  1  0
 20 53  1  0
 20 54  1  0
 21 55  1  0
 21 56  1  0
 25 57  1  0
 25 58  1  0
 26 59  1  0
 26 60  1  0
 28 61  1  0
 28 62  1  0
 29 63  1  0
 29 64  1  0
 31 65  1  0
 31 66  1  0
M  CHG  2  13   1  21   1
M  END
>  <UniqueID>  (60) 
489

>  <SMILES>  (60) 
c1ccc2c(c1)CCN(c1nc([NH2+]CC[C@H]3CCCC[NH2+]3)nc(N3CCOCC3)n1)C2

>  <Energy>  (60) 
77.74978138796354

>  <Genealogy>  (60) 
c1ccc2c(c1)CCN(c1nc([NH2+]CCC3CCCC[NH2+]3)nc(N3CCOCC3)n1)C2 (protonated)
c1ccc2c(c1)CCN(c1nc([NH2+]CC[C@H]3CCCC[NH2+]3)nc(N3CCOCC3)n1)C2 (chirality)
c1ccc2c(c1)CCN(c1nc([NH2+]CC[C@H]3CCCC[NH2+]3)nc(N3CCOCC3)n1)C2 (3D coordinates assigned)
c1ccc2c(c1)CCN(c1nc([NH2+]CC[C@H]3CCCC[NH2+]3)nc(N3CCOCC3)n1)C2 (nonaromatic ring conformer: 77.74978138796354 kcal/mol)

>  <smiles>  (60) 
c1ccc2c(c1)CCN(c1nc(NCCC3CCCCN3)nc(N3CCOCC3)n1)C2

>  <score_type>  (60) 
oracle

>  <origin>  (60) 
autodockgpu

>  <m_score__min__energy>  (60) 
-9.5299999999999994

>  <m_primary>  (60) 
energy

>  <meeko>  (60) 
{"free_energy": -6.76, "intermolecular_energy": -8.55, "internal_energy": -2.24, "cluster_size": 6, "cluster_id": 4, "rank_in_cluster": 5}

>  <energy>  (60) 
-6.37

>  <cluster_rmsd>  (60) 
0.0

>  <rmsd>  (60) 
268.86

>  <cluster>  (60) 
6

$$$$
MXRVYNFLTYDQGX-PQYUSCEXNA-O
     RDKit          3D

 65 69  0  0  0  0  0  0  0  0999 V2000
  141.6765   68.2845  227.8412 H   0  0  0  0  0  0  0  0  0  0  0  0
  141.0210   68.5480  226.9980 C   0  0  0  0  0  0  0  0  0  0  0  0
  140.1200   67.6050  226.4930 C   0  0  0  0  0  0  0  0  0  0  0  0
  140.0662   66.6016  226.9405 H   0  0  0  0  0  0  0  0  0  0  0  0
  139.2870   67.9370  225.4190 C   0  0  0  0  0  0  0  0  0  0  0  0
  138.5689   67.1991  225.0320 H   0  0  0  0  0  0  0  0  0  0  0  0
  139.3670   69.2110  224.8350 C   0  0  0  0  0  0  0  0  0  0  0  0
  140.2690   70.1570  225.3430 C   0  0  0  0  0  0  0  0  0  0  0  0
  141.0900   69.8250  226.4330 C   0  0  0  0  0  0  0  0  0  0  0  0
  141.7878   70.5702  226.8425 H   0  0  0  0  0  0  0  0  0  0  0  0
  140.2960   71.5380  224.7430 C   0  0  0  0  0  0  0  0  0  0  0  0
  141.2776   71.9950  224.9371 H   0  0  0  0  0  0  0  0  0  0  0  0
  139.4944   72.1348  225.2027 H   0  0  0  0  0  0  0  0  0  0  0  0
  140.0670   71.4880  223.2860 N   0  0  0  0  0  0  0  0  0  0  0  0
  140.6560   72.4970  222.4370 C   0  0  0  0  0  0  0  0  0  0  0  0
  141.8090   72.2420  221.7680 N   0  0  0  0  0  0  0  0  0  0  0  0
  142.3600   73.1700  220.9450 C   0  0  0  0  0  0  0  0  0  0  0  0
  143.5850   72.8620  220.2450 N   0  0  0  0  0  0  0  0  0  0  0  0
  144.8910   73.1080  220.8660 C   0  0  0  0  0  0  0  0  0  0  0  0
  144.8244   73.9950  221.5132 H   0  0  0  0  0  0  0  0  0  0  0  0
  145.1764   72.2289  221.4623 H   0  0  0  0  0  0  0  0  0  0  0  0
  145.9530   73.3470  219.7870 C   0  0  0  0  0  0  0  0  0  0  0  0
  145.7519   74.3078  219.2906 H   0  0  0  0  0  0  0  0  0  0  0  0
  146.9431   73.3613  220.2661 H   0  0  0  0  0  0  0  0  0  0  0  0
  145.9340   72.3140  218.8210 O   0  0  0  0  0  0  0  0  0  0  0  0
  144.7040   72.3410  218.1210 C   0  0  0  0  0  0  0  0  0  0  0  0
  144.5489   73.3464  217.7026 H   0  0  0  0  0  0  0  0  0  0  0  0
  144.7398   71.5930  217.3153 H   0  0  0  0  0  0  0  0  0  0  0  0
  143.5400   72.0010  219.0560 C   0  0  0  0  0  0  0  0  0  0  0  0
  142.5889   72.1597  218.5267 H   0  0  0  0  0  0  0  0  0  0  0  0
  143.6215   70.9492  219.3676 H   0  0  0  0  0  0  0  0  0  0  0  0
  141.7450   74.3760  220.7930 N   0  0  0  0  0  0  0  0  0  0  0  0
  142.1640   75.1150  220.1840 H   0  0  0  0  0  0  0  0  0  0  0  0
  140.5930   74.6490  221.4640 C   0  0  0  0  0  0  0  0  0  0  0  0
  140.0240   75.8090  221.3110 N   0  0  0  0  0  0  0  0  0  0  0  0
  139.6350   76.7310  222.3820 C   0  0  0  0  0  0  0  0  0  0  0  0
  139.7901   76.2427  223.3554 H   0  0  0  0  0  0  0  0  0  0  0  0
  140.2516   77.6394  222.3137 H   0  0  0  0  0  0  0  0  0  0  0  0
  138.1570   77.1190  222.2400 C   0  0  0  0  0  0  0  0  0  0  0  0
  137.9730   78.0225  222.8399 H   0  0  0  0  0  0  0  0  0  0  0  0
  137.9636   77.2884  221.1705 H   0  0  0  0  0  0  0  0  0  0  0  0
  137.1890   76.0070  222.7140 C   0  0  1  0  0  0  0  0  0  0  0  0
  137.1283   76.0492  223.8115 H   0  0  0  0  0  0  0  0  0  0  0  0
  135.7790   76.2440  222.1390 C   0  0  0  0  0  0  0  0  0  0  0  0
  135.4513   77.2617  222.3976 H   0  0  0  0  0  0  0  0  0  0  0  0
  135.8198   76.1186  221.0469 H   0  0  0  0  0  0  0  0  0  0  0  0
  134.7720   75.2290  222.7130 C   0  0  0  0  0  0  0  0  0  0  0  0
  134.2817   75.6772  223.5897 H   0  0  0  0  0  0  0  0  0  0  0  0
  134.0488   74.9931  221.9184 H   0  0  0  0  0  0  0  0  0  0  0  0
  135.4370   73.9100  223.1420 C   0  0  0  0  0  0  0  0  0  0  0  0
  135.7555   73.9923  224.1917 H   0  0  0  0  0  0  0  0  0  0  0  0
  134.7079   73.0949  223.0237 H   0  0  0  0  0  0  0  0  0  0  0  0
  136.6590   73.6030  222.2700 C   0  0  0  0  0  0  0  0  0  0  0  0
  137.0989   72.6513  222.6028 H   0  0  0  0  0  0  0  0  0  0  0  0
  136.3176   73.5496  221.2257 H   0  0  0  0  0  0  0  0  0  0  0  0
  137.6960   74.6580  222.3490 N   0  0  0  0  0  0  0  0  0  0  0  0
  138.1870   74.6930  221.4250 H   0  0  0  0  0  0  0  0  0  0  0  0
  138.4000   74.3730  223.0670 H   0  0  0  0  0  0  0  0  0  0  0  0
  140.0540   73.7050  222.2850 N   0  0  0  0  0  0  0  0  0  0  0  0
  139.2080   70.4540  222.6770 C   0  0  0  0  0  0  0  0  0  0  0  0
  139.8392   69.7847  222.0740 H   0  0  0  0  0  0  0  0  0  0  0  0
  138.4550   70.9713  222.0643 H   0  0  0  0  0  0  0  0  0  0  0  0
  138.4540   69.6110  223.7160 C   0  0  0  0  0  0  0  0  0  0  0  0
  138.0600   68.7062  223.2301 H   0  0  0  0  0  0  0  0  0  0  0  0
  137.6298   70.2114  224.1287 H   0  0  0  0  0  0  0  0  0  0  0  0
  1  2  1  0
  2  3  2  0
  3  4  1  0
  3  5  1  0
  5  6  1  0
  5  7  2  0
  7  8  1  0
  8  9  2  0
  9 10  1  0
  8 11  1  0
 11 12  1  0
 11 13  1  0
 11 14  1  0
 14 15  1  0
 15 16  1  0
 16 17  2  0
 17 18  1  0
 18 19  1  0
 19 20  1  0
 19 21  1  0
 19 22  1  0
 22 23  1  0
 22 24  1  0
 22 25  1  0
 25 26  1  0
 26 27  1  0
 26 28  1  0
 26 29  1  0
 29 30  1  0
 29 31  1  0
 17 32  1  0
 32 33  1  0
 32 34  1  0
 34 35  2  0
 35 36  1  0
 36 37  1  0
 36 38  1  0
 36 39  1  0
 39 40  1  0
 39 41  1  0
 39 42  1  0
 42 43  1  1
 42 44  1  0
 44 45  1  0
 44 46  1  0
 44 47  1  0
 47 48  1  0
 47 49  1  0
 47 50  1  0
 50 51  1  0
 50 52  1  0
 50 53  1  0
 53 54  1  0
 53 55  1  0
 53 56  1  0
 56 57  1  0
 56 58  1  0
 34 59  1  0
 14 60  1  0
 60 61  1  0
 60 62  1  0
 60 63  1  0
 63 64  1  0
 63 65  1  0
  9  2  1  0
 59 15  2  0
 63  7  1  0
 29 18  1  0
 56 42  1  0
M  CHG  1  56   1
M  END
>  <UniqueID>  (61) 
490

>  <SMILES>  (61) 
c1ccc2c(c1)CCN(c1nc(N3CCOCC3)[nH]/c(=N/CC[C@H]3CCCC[NH2+]3)n1)C2

>  <Energy>  (61) 
77.77218736182232

>  <Genealogy>  (61) 
c1ccc2c(c1)CCN(c1nc(NCCC3CCCC[NH2+]3)nc(N3CCOCC3)n1)C2 (protonated)
c1ccc2c(c1)CCN(c1nc(N3CCOCC3)[nH]c(=NCCC3CCCC[NH2+]3)n1)C2 (tautomer)
c1ccc2c(c1)CCN(c1nc(N3CCOCC3)[nH]c(=NCC[C@H]3CCCC[NH2+]3)n1)C2 (chirality)
c1ccc2c(c1)CCN(c1nc(N3CCOCC3)[nH]/c(=N/CC[C@H]3CCCC[NH2+]3)n1)C2 (cis-trans isomerization)
c1ccc2c(c1)CCN(c1nc(N3CCOCC3)[nH]/c(=N/CC[C@H]3CCCC[NH2+]3)n1)C2 (3D coordinates assigned)
c1ccc2c(c1)CCN(c1nc(N3CCOCC3)[nH]/c(=N/CC[C@H]3CCCC[NH2+]3)n1)C2 (nonaromatic ring conformer: 77.77218736182232 kcal/mol)

>  <smiles>  (61) 
c1ccc2c(c1)CCN(c1nc(NCCC3CCCCN3)nc(N3CCOCC3)n1)C2

>  <score_type>  (61) 
oracle

>  <origin>  (61) 
autodockgpu

>  <m_score__min__energy>  (61) 
-10.529999999999999

>  <m_primary>  (61) 
energy

>  <meeko>  (61) 
{"free_energy": -8.25, "intermolecular_energy": -10.04, "internal_energy": -2.56, "cluster_size": 3, "cluster_id": 2, "rank_in_cluster": 2}

>  <energy>  (61) 
-10.53

>  <cluster_rmsd>  (61) 
0.0

>  <rmsd>  (61) 
272.05

>  <cluster>  (61) 
1

$$$$
MXRVYNFLTYDQGX-PQYUSCEXNA-O
     RDKit          3D

 65 69  0  0  0  0  0  0  0  0999 V2000
  141.6613   68.3941  227.7429 H   0  0  0  0  0  0  0  0  0  0  0  0
  141.0000   68.6840  226.9130 C   0  0  0  0  0  0  0  0  0  0  0  0
  140.0650   67.7710  226.4130 C   0  0  0  0  0  0  0  0  0  0  0  0
  139.9907   66.7645  226.8506 H   0  0  0  0  0  0  0  0  0  0  0  0
  139.2250   68.1380  225.3570 C   0  0  0  0  0  0  0  0  0  0  0  0
  138.4811   67.4240  224.9739 H   0  0  0  0  0  0  0  0  0  0  0  0
  139.3290   69.4150  224.7850 C   0  0  0  0  0  0  0  0  0  0  0  0
  140.2650   70.3310  225.2870 C   0  0  0  0  0  0  0  0  0  0  0  0
  141.0950   69.9650  226.3590 C   0  0  0  0  0  0  0  0  0  0  0  0
  141.8205   70.6862  226.7634 H   0  0  0  0  0  0  0  0  0  0  0  0
  140.3190   71.7170  224.7000 C   0  0  0  0  0  0  0  0  0  0  0  0
  141.3155   72.1457  224.8823 H   0  0  0  0  0  0  0  0  0  0  0  0
  139.5409   72.3296  225.1788 H   0  0  0  0  0  0  0  0  0  0  0  0
  140.0650   71.6890  223.2470 N   0  0  0  0  0  0  0  0  0  0  0  0
  140.6670   72.6900  222.3990 C   0  0  0  0  0  0  0  0  0  0  0  0
  141.7920   72.4050  221.6940 N   0  0  0  0  0  0  0  0  0  0  0  0
  142.3540   73.3260  220.8700 C   0  0  0  0  0  0  0  0  0  0  0  0
  143.5460   72.9860  220.1320 N   0  0  0  0  0  0  0  0  0  0  0  0
  144.2560   73.9960  219.3380 C   0  0  0  0  0  0  0  0  0  0  0  0
  143.5290   74.7119  218.9268 H   0  0  0  0  0  0  0  0  0  0  0  0
  144.9750   74.5205  219.9845 H   0  0  0  0  0  0  0  0  0  0  0  0
  145.0140   73.3270  218.1870 C   0  0  0  0  0  0  0  0  0  0  0  0
  144.2890   72.9344  217.4588 H   0  0  0  0  0  0  0  0  0  0  0  0
  145.6669   74.0760  217.7150 H   0  0  0  0  0  0  0  0  0  0  0  0
  145.8170   72.2630  218.6600 O   0  0  0  0  0  0  0  0  0  0  0  0
  144.9910   71.2400  219.1830 C   0  0  0  0  0  0  0  0  0  0  0  0
  144.2593   70.9403  218.4182 H   0  0  0  0  0  0  0  0  0  0  0  0
  145.6225   70.3840  219.4631 H   0  0  0  0  0  0  0  0  0  0  0  0
  144.2450   71.7300  220.4280 C   0  0  0  0  0  0  0  0  0  0  0  0
  143.5127   70.9695  220.7368 H   0  0  0  0  0  0  0  0  0  0  0  0
  144.9686   71.9017  221.2385 H   0  0  0  0  0  0  0  0  0  0  0  0
  141.7790   74.5560  220.7550 N   0  0  0  0  0  0  0  0  0  0  0  0
  142.2080   75.2900  220.1470 H   0  0  0  0  0  0  0  0  0  0  0  0
  140.6570   74.8590  221.4630 C   0  0  0  0  0  0  0  0  0  0  0  0
  140.1260   76.0420  221.3450 N   0  0  0  0  0  0  0  0  0  0  0  0
  140.1140   76.8680  220.1350 C   0  0  0  0  0  0  0  0  0  0  0  0
  141.0646   76.7376  219.5971 H   0  0  0  0  0  0  0  0  0  0  0  0
  139.2742   76.5558  219.4969 H   0  0  0  0  0  0  0  0  0  0  0  0
  139.9390   78.3470  220.5020 C   0  0  0  0  0  0  0  0  0  0  0  0
  139.9683   78.9427  219.5777 H   0  0  0  0  0  0  0  0  0  0  0  0
  138.9756   78.4432  221.0242 H   0  0  0  0  0  0  0  0  0  0  0  0
  141.0370   78.8700  221.4600 C   0  0  1  0  0  0  0  0  0  0  0  0
  141.9886   78.8959  220.9088 H   0  0  0  0  0  0  0  0  0  0  0  0
  140.7070   80.3010  221.9250 C   0  0  0  0  0  0  0  0  0  0  0  0
  140.5444   80.9374  221.0426 H   0  0  0  0  0  0  0  0  0  0  0  0
  139.8010   80.2667  222.5479 H   0  0  0  0  0  0  0  0  0  0  0  0
  141.8570   80.8880  222.7640 C   0  0  0  0  0  0  0  0  0  0  0  0
  142.5195   81.4624  222.0998 H   0  0  0  0  0  0  0  0  0  0  0  0
  141.4093   81.5241  223.5418 H   0  0  0  0  0  0  0  0  0  0  0  0
  142.6890   79.8050  223.4720 C   0  0  0  0  0  0  0  0  0  0  0  0
  143.5070   79.4885  222.8082 H   0  0  0  0  0  0  0  0  0  0  0  0
  143.0912   80.2261  224.4052 H   0  0  0  0  0  0  0  0  0  0  0  0
  141.8250   78.5880  223.8180 C   0  0  0  0  0  0  0  0  0  0  0  0
  142.4538   77.8430  224.3274 H   0  0  0  0  0  0  0  0  0  0  0  0
  141.0039   78.9349  224.4625 H   0  0  0  0  0  0  0  0  0  0  0  0
  141.2200   77.9590  222.6200 N   0  0  0  0  0  0  0  0  0  0  0  0
  140.3020   77.5460  222.9050 H   0  0  0  0  0  0  0  0  0  0  0  0
  141.8370   77.1710  222.3170 H   0  0  0  0  0  0  0  0  0  0  0  0
  140.1070   73.9210  222.2830 N   0  0  0  0  0  0  0  0  0  0  0  0
  139.1680   70.6840  222.6420 C   0  0  0  0  0  0  0  0  0  0  0  0
  139.7709   70.0042  222.0220 H   0  0  0  0  0  0  0  0  0  0  0  0
  138.4192   71.2275  222.0471 H   0  0  0  0  0  0  0  0  0  0  0  0
  138.4090   69.8510  223.6850 C   0  0  0  0  0  0  0  0  0  0  0  0
  137.9829   68.9621  223.1968 H   0  0  0  0  0  0  0  0  0  0  0  0
  137.6084   70.4692  224.1173 H   0  0  0  0  0  0  0  0  0  0  0  0
  1  2  1  0
  2  3  2  0
  3  4  1  0
  3  5  1  0
  5  6  1  0
  5  7  2  0
  7  8  1  0
  8  9  2  0
  9 10  1  0
  8 11  1  0
 11 12  1  0
 11 13  1  0
 11 14  1  0
 14 15  1  0
 15 16  1  0
 16 17  2  0
 17 18  1  0
 18 19  1  0
 19 20  1  0
 19 21  1  0
 19 22  1  0
 22 23  1  0
 22 24  1  0
 22 25  1  0
 25 26  1  0
 26 27  1  0
 26 28  1  0
 26 29  1  0
 29 30  1  0
 29 31  1  0
 17 32  1  0
 32 33  1  0
 32 34  1  0
 34 35  2  0
 35 36  1  0
 36 37  1  0
 36 38  1  0
 36 39  1  0
 39 40  1  0
 39 41  1  0
 39 42  1  0
 42 43  1  6
 42 44  1  0
 44 45  1  0
 44 46  1  0
 44 47  1  0
 47 48  1  0
 47 49  1  0
 47 50  1  0
 50 51  1  0
 50 52  1  0
 50 53  1  0
 53 54  1  0
 53 55  1  0
 53 56  1  0
 56 57  1  0
 56 58  1  0
 34 59  1  0
 14 60  1  0
 60 61  1  0
 60 62  1  0
 60 63  1  0
 63 64  1  0
 63 65  1  0
  9  2  1  0
 59 15  2  0
 63  7  1  0
 29 18  1  0
 56 42  1  0
M  CHG  1  56   1
M  END
>  <UniqueID>  (62) 
490

>  <SMILES>  (62) 
c1ccc2c(c1)CCN(c1nc(N3CCOCC3)[nH]/c(=N/CC[C@H]3CCCC[NH2+]3)n1)C2

>  <Energy>  (62) 
77.77218736182232

>  <Genealogy>  (62) 
c1ccc2c(c1)CCN(c1nc(NCCC3CCCC[NH2+]3)nc(N3CCOCC3)n1)C2 (protonated)
c1ccc2c(c1)CCN(c1nc(N3CCOCC3)[nH]c(=NCCC3CCCC[NH2+]3)n1)C2 (tautomer)
c1ccc2c(c1)CCN(c1nc(N3CCOCC3)[nH]c(=NCC[C@H]3CCCC[NH2+]3)n1)C2 (chirality)
c1ccc2c(c1)CCN(c1nc(N3CCOCC3)[nH]/c(=N/CC[C@H]3CCCC[NH2+]3)n1)C2 (cis-trans isomerization)
c1ccc2c(c1)CCN(c1nc(N3CCOCC3)[nH]/c(=N/CC[C@H]3CCCC[NH2+]3)n1)C2 (3D coordinates assigned)
c1ccc2c(c1)CCN(c1nc(N3CCOCC3)[nH]/c(=N/CC[C@H]3CCCC[NH2+]3)n1)C2 (nonaromatic ring conformer: 77.77218736182232 kcal/mol)

>  <smiles>  (62) 
c1ccc2c(c1)CCN(c1nc(NCCC3CCCCN3)nc(N3CCOCC3)n1)C2

>  <score_type>  (62) 
oracle

>  <origin>  (62) 
autodockgpu

>  <m_score__min__energy>  (62) 
-10.529999999999999

>  <m_primary>  (62) 
energy

>  <meeko>  (62) 
{"free_energy": -8.98, "intermolecular_energy": -10.77, "internal_energy": -1.57, "cluster_size": 11, "cluster_id": 1, "rank_in_cluster": 9}

>  <energy>  (62) 
-10.32

>  <cluster_rmsd>  (62) 
0.42

>  <rmsd>  (62) 
271.89

>  <cluster>  (62) 
1

$$$$
MXRVYNFLTYDQGX-PQYUSCEXNA-O
     RDKit          3D

 65 69  0  0  0  0  0  0  0  0999 V2000
  141.5701   68.4739  228.0549 H   0  0  0  0  0  0  0  0  0  0  0  0
  140.9990   68.6310  227.1280 C   0  0  0  0  0  0  0  0  0  0  0  0
  140.3100   67.5630  226.5430 C   0  0  0  0  0  0  0  0  0  0  0  0
  140.3378   66.5681  227.0114 H   0  0  0  0  0  0  0  0  0  0  0  0
  139.5860   67.7600  225.3630 C   0  0  0  0  0  0  0  0  0  0  0  0
  139.0337   66.9228  224.9112 H   0  0  0  0  0  0  0  0  0  0  0  0
  139.5630   69.0250  224.7540 C   0  0  0  0  0  0  0  0  0  0  0  0
  140.2520   70.0960  225.3420 C   0  0  0  0  0  0  0  0  0  0  0  0
  140.9630   69.8970  226.5370 C   0  0  0  0  0  0  0  0  0  0  0  0
  141.4920   70.7385  227.0082 H   0  0  0  0  0  0  0  0  0  0  0  0
  140.1640   71.4590  224.7070 C   0  0  0  0  0  0  0  0  0  0  0  0
  141.0389   72.0534  225.0092 H   0  0  0  0  0  0  0  0  0  0  0  0
  139.2343   71.9417  225.0427 H   0  0  0  0  0  0  0  0  0  0  0  0
  140.1350   71.3580  223.2360 N   0  0  0  0  0  0  0  0  0  0  0  0
  140.6830   72.4290  222.4370 C   0  0  0  0  0  0  0  0  0  0  0  0
  141.8320   72.2440  221.7380 N   0  0  0  0  0  0  0  0  0  0  0  0
  142.3450   73.2310  220.9610 C   0  0  0  0  0  0  0  0  0  0  0  0
  143.5660   72.9970  220.2270 N   0  0  0  0  0  0  0  0  0  0  0  0
  144.8670   73.0070  220.9050 C   0  0  0  0  0  0  0  0  0  0  0  0
  144.8411   73.7336  221.7305 H   0  0  0  0  0  0  0  0  0  0  0  0
  145.0754   72.0007  221.2973 H   0  0  0  0  0  0  0  0  0  0  0  0
  145.9730   73.3990  219.9200 C   0  0  0  0  0  0  0  0  0  0  0  0
  145.8516   74.4572  219.6452 H   0  0  0  0  0  0  0  0  0  0  0  0
  146.9473   73.2360  220.4039 H   0  0  0  0  0  0  0  0  0  0  0  0
  145.9130   72.6070  218.7490 O   0  0  0  0  0  0  0  0  0  0  0  0
  144.7090   72.8750  218.0560 C   0  0  0  0  0  0  0  0  0  0  0  0
  144.6340   73.9561  217.8675 H   0  0  0  0  0  0  0  0  0  0  0  0
  144.7176   72.3211  217.1057 H   0  0  0  0  0  0  0  0  0  0  0  0
  143.4980   72.4230  218.8780 C   0  0  0  0  0  0  0  0  0  0  0  0
  142.5753   72.7614  218.3840 H   0  0  0  0  0  0  0  0  0  0  0  0
  143.5002   71.3255  218.9515 H   0  0  0  0  0  0  0  0  0  0  0  0
  141.6960   74.4270  220.8860 N   0  0  0  0  0  0  0  0  0  0  0  0
  142.0850   75.2100  220.3150 H   0  0  0  0  0  0  0  0  0  0  0  0
  140.5480   74.6290  221.5890 C   0  0  0  0  0  0  0  0  0  0  0  0
  139.9450   75.7810  221.5100 N   0  0  0  0  0  0  0  0  0  0  0  0
  138.9880   76.1880  220.4790 C   0  0  0  0  0  0  0  0  0  0  0  0
  139.4634   76.9227  219.8125 H   0  0  0  0  0  0  0  0  0  0  0  0
  138.6818   75.3009  219.9051 H   0  0  0  0  0  0  0  0  0  0  0  0
  137.7470   76.8180  221.1230 C   0  0  0  0  0  0  0  0  0  0  0  0
  138.0739   77.6200  221.8012 H   0  0  0  0  0  0  0  0  0  0  0  0
  137.1134   77.1989  220.3085 H   0  0  0  0  0  0  0  0  0  0  0  0
  136.8990   75.8050  221.9310 C   0  0  1  0  0  0  0  0  0  0  0  0
  136.6814   76.2470  222.9145 H   0  0  0  0  0  0  0  0  0  0  0  0
  135.5620   75.5320  221.2150 C   0  0  0  0  0  0  0  0  0  0  0  0
  135.0532   76.4887  221.0259 H   0  0  0  0  0  0  0  0  0  0  0  0
  135.7710   75.0131  220.2678 H   0  0  0  0  0  0  0  0  0  0  0  0
  134.6490   74.6370  222.0740 C   0  0  0  0  0  0  0  0  0  0  0  0
  133.9818   75.2804  222.6663 H   0  0  0  0  0  0  0  0  0  0  0  0
  134.0846   73.9853  221.3909 H   0  0  0  0  0  0  0  0  0  0  0  0
  135.4390   73.7310  223.0340 C   0  0  0  0  0  0  0  0  0  0  0  0
  135.5947   74.2628  223.9842 H   0  0  0  0  0  0  0  0  0  0  0  0
  134.8632   72.8083  223.1987 H   0  0  0  0  0  0  0  0  0  0  0  0
  136.8010   73.3570  222.4400 C   0  0  0  0  0  0  0  0  0  0  0  0
  137.3282   72.7044  223.1515 H   0  0  0  0  0  0  0  0  0  0  0  0
  136.6179   72.8489  221.4817 H   0  0  0  0  0  0  0  0  0  0  0  0
  137.6480   74.5410  222.1650 N   0  0  0  0  0  0  0  0  0  0  0  0
  138.2500   74.3190  221.3390 H   0  0  0  0  0  0  0  0  0  0  0  0
  138.2810   74.6890  222.9830 H   0  0  0  0  0  0  0  0  0  0  0  0
  140.0480   73.6270  222.3620 N   0  0  0  0  0  0  0  0  0  0  0  0
  139.5140   70.2050  222.5550 C   0  0  0  0  0  0  0  0  0  0  0  0
  140.3047   69.6241  222.0576 H   0  0  0  0  0  0  0  0  0  0  0  0
  138.7825   70.6022  221.8359 H   0  0  0  0  0  0  0  0  0  0  0  0
  138.7560   69.2770  223.5170 C   0  0  0  0  0  0  0  0  0  0  0  0
  138.5575   68.3192  223.0138 H   0  0  0  0  0  0  0  0  0  0  0  0
  137.8102   69.7602  223.8035 H   0  0  0  0  0  0  0  0  0  0  0  0
  1  2  1  0
  2  3  2  0
  3  4  1  0
  3  5  1  0
  5  6  1  0
  5  7  2  0
  7  8  1  0
  8  9  2  0
  9 10  1  0
  8 11  1  0
 11 12  1  0
 11 13  1  0
 11 14  1  0
 14 15  1  0
 15 16  1  0
 16 17  2  0
 17 18  1  0
 18 19  1  0
 19 20  1  0
 19 21  1  0
 19 22  1  0
 22 23  1  0
 22 24  1  0
 22 25  1  0
 25 26  1  0
 26 27  1  0
 26 28  1  0
 26 29  1  0
 29 30  1  0
 29 31  1  0
 17 32  1  0
 32 33  1  0
 32 34  1  0
 34 35  2  0
 35 36  1  0
 36 37  1  0
 36 38  1  0
 36 39  1  0
 39 40  1  0
 39 41  1  0
 39 42  1  0
 42 43  1  1
 42 44  1  0
 44 45  1  0
 44 46  1  0
 44 47  1  0
 47 48  1  0
 47 49  1  0
 47 50  1  0
 50 51  1  0
 50 52  1  0
 50 53  1  0
 53 54  1  0
 53 55  1  0
 53 56  1  0
 56 57  1  0
 56 58  1  0
 34 59  1  0
 14 60  1  0
 60 61  1  0
 60 62  1  0
 60 63  1  0
 63 64  1  0
 63 65  1  0
  9  2  1  0
 59 15  2  0
 63  7  1  0
 29 18  1  0
 56 42  1  0
M  CHG  1  56   1
M  END
>  <UniqueID>  (63) 
490

>  <SMILES>  (63) 
c1ccc2c(c1)CCN(c1nc(N3CCOCC3)[nH]/c(=N/CC[C@H]3CCCC[NH2+]3)n1)C2

>  <Energy>  (63) 
77.77218736182232

>  <Genealogy>  (63) 
c1ccc2c(c1)CCN(c1nc(NCCC3CCCC[NH2+]3)nc(N3CCOCC3)n1)C2 (protonated)
c1ccc2c(c1)CCN(c1nc(N3CCOCC3)[nH]c(=NCCC3CCCC[NH2+]3)n1)C2 (tautomer)
c1ccc2c(c1)CCN(c1nc(N3CCOCC3)[nH]c(=NCC[C@H]3CCCC[NH2+]3)n1)C2 (chirality)
c1ccc2c(c1)CCN(c1nc(N3CCOCC3)[nH]/c(=N/CC[C@H]3CCCC[NH2+]3)n1)C2 (cis-trans isomerization)
c1ccc2c(c1)CCN(c1nc(N3CCOCC3)[nH]/c(=N/CC[C@H]3CCCC[NH2+]3)n1)C2 (3D coordinates assigned)
c1ccc2c(c1)CCN(c1nc(N3CCOCC3)[nH]/c(=N/CC[C@H]3CCCC[NH2+]3)n1)C2 (nonaromatic ring conformer: 77.77218736182232 kcal/mol)

>  <smiles>  (63) 
c1ccc2c(c1)CCN(c1nc(NCCC3CCCCN3)nc(N3CCOCC3)n1)C2

>  <score_type>  (63) 
oracle

>  <origin>  (63) 
autodockgpu

>  <m_score__min__energy>  (63) 
-10.529999999999999

>  <m_primary>  (63) 
energy

>  <meeko>  (63) 
{"free_energy": -7.7, "intermolecular_energy": -9.49, "internal_energy": -2.61, "cluster_size": 3, "cluster_id": 2, "rank_in_cluster": 3}

>  <energy>  (63) 
-9.36

>  <cluster_rmsd>  (63) 
0.95

>  <rmsd>  (63) 
271.76

>  <cluster>  (63) 
1

$$$$
MXRVYNFLTYDQGX-PQYUSCEXNA-O
     RDKit          3D

 65 69  0  0  0  0  0  0  0  0999 V2000
  141.2394   68.5088  228.0374 H   0  0  0  0  0  0  0  0  0  0  0  0
  140.7240   68.6810  227.0810 C   0  0  0  0  0  0  0  0  0  0  0  0
  140.0600   67.6260  226.4450 C   0  0  0  0  0  0  0  0  0  0  0  0
  140.0525   66.6257  226.9025 H   0  0  0  0  0  0  0  0  0  0  0  0
  139.4060   67.8430  225.2280 C   0  0  0  0  0  0  0  0  0  0  0  0
  138.8725   67.0161  224.7364 H   0  0  0  0  0  0  0  0  0  0  0  0
  139.4290   69.1130  224.6330 C   0  0  0  0  0  0  0  0  0  0  0  0
  140.0930   70.1720  225.2710 C   0  0  0  0  0  0  0  0  0  0  0  0
  140.7330   69.9540  226.5020 C   0  0  0  0  0  0  0  0  0  0  0  0
  141.2420   70.7856  227.0114 H   0  0  0  0  0  0  0  0  0  0  0  0
  140.0540   71.5410  224.6470 C   0  0  0  0  0  0  0  0  0  0  0  0
  140.9157   72.1236  225.0050 H   0  0  0  0  0  0  0  0  0  0  0  0
  139.1109   72.0289  224.9342 H   0  0  0  0  0  0  0  0  0  0  0  0
  140.1080   71.4560  223.1750 N   0  0  0  0  0  0  0  0  0  0  0  0
  140.7110   72.5300  222.4210 C   0  0  0  0  0  0  0  0  0  0  0  0
  141.8800   72.3310  221.7590 N   0  0  0  0  0  0  0  0  0  0  0  0
  142.4440   73.3220  221.0230 C   0  0  0  0  0  0  0  0  0  0  0  0
  143.6850   73.0740  220.3290 N   0  0  0  0  0  0  0  0  0  0  0  0
  143.7690   72.0570  219.2740 C   0  0  0  0  0  0  0  0  0  0  0  0
  143.0863   71.2282  219.5130 H   0  0  0  0  0  0  0  0  0  0  0  0
  143.4855   72.5118  218.3134 H   0  0  0  0  0  0  0  0  0  0  0  0
  145.2000   71.5200  219.1700 C   0  0  0  0  0  0  0  0  0  0  0  0
  145.4300   70.9321  220.0708 H   0  0  0  0  0  0  0  0  0  0  0  0
  145.2740   70.8913  218.2704 H   0  0  0  0  0  0  0  0  0  0  0  0
  146.1320   72.5790  219.0580 O   0  0  0  0  0  0  0  0  0  0  0  0
  146.1250   73.3450  220.2480 C   0  0  0  0  0  0  0  0  0  0  0  0
  146.3051   72.6805  221.1059 H   0  0  0  0  0  0  0  0  0  0  0  0
  146.9156   74.1070  220.1821 H   0  0  0  0  0  0  0  0  0  0  0  0
  144.7780   74.0490  220.4320 C   0  0  0  0  0  0  0  0  0  0  0  0
  144.7485   74.5263  221.4226 H   0  0  0  0  0  0  0  0  0  0  0  0
  144.6581   74.8109  219.6477 H   0  0  0  0  0  0  0  0  0  0  0  0
  141.8270   74.5350  220.9520 N   0  0  0  0  0  0  0  0  0  0  0  0
  142.2550   75.3200  220.4120 H   0  0  0  0  0  0  0  0  0  0  0  0
  140.6590   74.7510  221.6170 C   0  0  0  0  0  0  0  0  0  0  0  0
  140.0880   75.9180  221.5420 N   0  0  0  0  0  0  0  0  0  0  0  0
  138.9640   76.3860  222.3570 C   0  0  0  0  0  0  0  0  0  0  0  0
  138.0614   75.8162  222.0913 H   0  0  0  0  0  0  0  0  0  0  0  0
  139.2060   76.2357  223.4195 H   0  0  0  0  0  0  0  0  0  0  0  0
  138.7110   77.8780  222.1100 C   0  0  0  0  0  0  0  0  0  0  0  0
  138.3803   78.0090  221.0691 H   0  0  0  0  0  0  0  0  0  0  0  0
  137.9461   78.2038  222.8303 H   0  0  0  0  0  0  0  0  0  0  0  0
  139.9650   78.7550  222.3420 C   0  0  1  0  0  0  0  0  0  0  0  0
  140.2163   79.2511  221.3929 H   0  0  0  0  0  0  0  0  0  0  0  0
  139.6740   79.8410  223.3950 C   0  0  0  0  0  0  0  0  0  0  0  0
  138.7831   80.4091  223.0889 H   0  0  0  0  0  0  0  0  0  0  0  0
  139.5047   79.3514  224.3654 H   0  0  0  0  0  0  0  0  0  0  0  0
  140.8640   80.8080  223.5350 C   0  0  0  0  0  0  0  0  0  0  0  0
  140.6946   81.6721  222.8758 H   0  0  0  0  0  0  0  0  0  0  0  0
  140.9256   81.1080  224.5915 H   0  0  0  0  0  0  0  0  0  0  0  0
  142.2060   80.1570  223.1580 C   0  0  0  0  0  0  0  0  0  0  0  0
  142.3845   80.2975  222.0817 H   0  0  0  0  0  0  0  0  0  0  0  0
  143.0046   80.6333  223.7458 H   0  0  0  0  0  0  0  0  0  0  0  0
  142.1950   78.6570  223.4730 C   0  0  0  0  0  0  0  0  0  0  0  0
  143.1716   78.2321  223.1978 H   0  0  0  0  0  0  0  0  0  0  0  0
  141.9917   78.5439  224.5481 H   0  0  0  0  0  0  0  0  0  0  0  0
  141.1360   77.9280  222.7370 N   0  0  0  0  0  0  0  0  0  0  0  0
  140.8280   77.1250  223.3340 H   0  0  0  0  0  0  0  0  0  0  0  0
  141.5560   77.5280  221.8680 H   0  0  0  0  0  0  0  0  0  0  0  0
  140.1070   73.7450  222.3490 N   0  0  0  0  0  0  0  0  0  0  0  0
  139.5160   70.3160  222.4480 C   0  0  0  0  0  0  0  0  0  0  0  0
  140.3282   69.7326  221.9897 H   0  0  0  0  0  0  0  0  0  0  0  0
  138.8297   70.7277  221.6933 H   0  0  0  0  0  0  0  0  0  0  0  0
  138.6970   69.3860  223.3550 C   0  0  0  0  0  0  0  0  0  0  0  0
  138.5189   68.4355  222.8308 H   0  0  0  0  0  0  0  0  0  0  0  0
  137.7412   69.8758  223.5927 H   0  0  0  0  0  0  0  0  0  0  0  0
  1  2  1  0
  2  3  2  0
  3  4  1  0
  3  5  1  0
  5  6  1  0
  5  7  2  0
  7  8  1  0
  8  9  2  0
  9 10  1  0
  8 11  1  0
 11 12  1  0
 11 13  1  0
 11 14  1  0
 14 15  1  0
 15 16  1  0
 16 17  2  0
 17 18  1  0
 18 19  1  0
 19 20  1  0
 19 21  1  0
 19 22  1  0
 22 23  1  0
 22 24  1  0
 22 25  1  0
 25 26  1  0
 26 27  1  0
 26 28  1  0
 26 29  1  0
 29 30  1  0
 29 31  1  0
 17 32  1  0
 32 33  1  0
 32 34  1  0
 34 35  2  0
 35 36  1  0
 36 37  1  0
 36 38  1  0
 36 39  1  0
 39 40  1  0
 39 41  1  0
 39 42  1  0
 42 43  1  6
 42 44  1  0
 44 45  1  0
 44 46  1  0
 44 47  1  0
 47 48  1  0
 47 49  1  0
 47 50  1  0
 50 51  1  0
 50 52  1  0
 50 53  1  0
 53 54  1  0
 53 55  1  0
 53 56  1  0
 56 57  1  0
 56 58  1  0
 34 59  1  0
 14 60  1  0
 60 61  1  0
 60 62  1  0
 60 63  1  0
 63 64  1  0
 63 65  1  0
  9  2  1  0
 59 15  2  0
 63  7  1  0
 29 18  1  0
 56 42  1  0
M  CHG  1  56   1
M  END
>  <UniqueID>  (64) 
490

>  <SMILES>  (64) 
c1ccc2c(c1)CCN(c1nc(N3CCOCC3)[nH]/c(=N/CC[C@H]3CCCC[NH2+]3)n1)C2

>  <Energy>  (64) 
77.77218736182232

>  <Genealogy>  (64) 
c1ccc2c(c1)CCN(c1nc(NCCC3CCCC[NH2+]3)nc(N3CCOCC3)n1)C2 (protonated)
c1ccc2c(c1)CCN(c1nc(N3CCOCC3)[nH]c(=NCCC3CCCC[NH2+]3)n1)C2 (tautomer)
c1ccc2c(c1)CCN(c1nc(N3CCOCC3)[nH]c(=NCC[C@H]3CCCC[NH2+]3)n1)C2 (chirality)
c1ccc2c(c1)CCN(c1nc(N3CCOCC3)[nH]/c(=N/CC[C@H]3CCCC[NH2+]3)n1)C2 (cis-trans isomerization)
c1ccc2c(c1)CCN(c1nc(N3CCOCC3)[nH]/c(=N/CC[C@H]3CCCC[NH2+]3)n1)C2 (3D coordinates assigned)
c1ccc2c(c1)CCN(c1nc(N3CCOCC3)[nH]/c(=N/CC[C@H]3CCCC[NH2+]3)n1)C2 (nonaromatic ring conformer: 77.77218736182232 kcal/mol)

>  <smiles>  (64) 
c1ccc2c(c1)CCN(c1nc(NCCC3CCCCN3)nc(N3CCOCC3)n1)C2

>  <score_type>  (64) 
oracle

>  <origin>  (64) 
autodockgpu

>  <m_score__min__energy>  (64) 
-10.529999999999999

>  <m_primary>  (64) 
energy

>  <meeko>  (64) 
{"free_energy": -9.16, "intermolecular_energy": -10.95, "internal_energy": -1.46, "cluster_size": 11, "cluster_id": 1, "rank_in_cluster": 8}

>  <energy>  (64) 
-9.28

>  <cluster_rmsd>  (64) 
0.98

>  <rmsd>  (64) 
271.72

>  <cluster>  (64) 
1

$$$$
MXRVYNFLTYDQGX-PQYUSCEXNA-O
     RDKit          3D

 65 69  0  0  0  0  0  0  0  0999 V2000
  143.4013   81.4148  223.3210 H   0  0  0  0  0  0  0  0  0  0  0  0
  142.5060   80.7890  223.1910 C   0  0  0  0  0  0  0  0  0  0  0  0
  141.3110   81.1400  223.8260 C   0  0  0  0  0  0  0  0  0  0  0  0
  141.2668   82.0418  224.4543 H   0  0  0  0  0  0  0  0  0  0  0  0
  140.1710   80.3450  223.6630 C   0  0  0  0  0  0  0  0  0  0  0  0
  139.2272   80.6309  224.1504 H   0  0  0  0  0  0  0  0  0  0  0  0
  140.2310   79.1830  222.8780 C   0  0  0  0  0  0  0  0  0  0  0  0
  141.4290   78.8320  222.2390 C   0  0  0  0  0  0  0  0  0  0  0  0
  142.5650   79.6440  222.3910 C   0  0  0  0  0  0  0  0  0  0  0  0
  143.5022   79.3787  221.8800 H   0  0  0  0  0  0  0  0  0  0  0  0
  141.4560   77.6160  221.3510 C   0  0  0  0  0  0  0  0  0  0  0  0
  142.4902   77.2488  221.2760 H   0  0  0  0  0  0  0  0  0  0  0  0
  141.0733   77.8990  220.3593 H   0  0  0  0  0  0  0  0  0  0  0  0
  140.6020   76.5430  221.8940 N   0  0  0  0  0  0  0  0  0  0  0  0
  140.9390   75.1640  221.6330 C   0  0  0  0  0  0  0  0  0  0  0  0
  142.1410   74.8420  221.0900 N   0  0  0  0  0  0  0  0  0  0  0  0
  142.4840   73.5480  220.8660 C   0  0  0  0  0  0  0  0  0  0  0  0
  143.7730   73.2430  220.2930 N   0  0  0  0  0  0  0  0  0  0  0  0
  143.9180   72.1930  219.2780 C   0  0  0  0  0  0  0  0  0  0  0  0
  143.1908   71.3920  219.4769 H   0  0  0  0  0  0  0  0  0  0  0  0
  143.7354   72.6263  218.2836 H   0  0  0  0  0  0  0  0  0  0  0  0
  145.3360   71.6120  219.3190 C   0  0  0  0  0  0  0  0  0  0  0  0
  145.4663   71.0465  220.2535 H   0  0  0  0  0  0  0  0  0  0  0  0
  145.4705   70.9532  218.4485 H   0  0  0  0  0  0  0  0  0  0  0  0
  146.3060   72.6400  219.2610 O   0  0  0  0  0  0  0  0  0  0  0  0
  146.2180   73.4420  220.4240 C   0  0  0  0  0  0  0  0  0  0  0  0
  146.3010   72.7993  221.3129 H   0  0  0  0  0  0  0  0  0  0  0  0
  147.0346   74.1788  220.4079 H   0  0  0  0  0  0  0  0  0  0  0  0
  144.8820   74.1890  220.4670 C   0  0  0  0  0  0  0  0  0  0  0  0
  144.7793   74.6965  221.4375 H   0  0  0  0  0  0  0  0  0  0  0  0
  144.8559   74.9300  219.6544 H   0  0  0  0  0  0  0  0  0  0  0  0
  141.6030   72.5590  221.1870 N   0  0  0  0  0  0  0  0  0  0  0  0
  141.8340   71.5580  220.9990 H   0  0  0  0  0  0  0  0  0  0  0  0
  140.3900   72.8680  221.7220 C   0  0  0  0  0  0  0  0  0  0  0  0
  139.5590   71.9100  222.0160 N   0  0  0  0  0  0  0  0  0  0  0  0
  139.0820   71.5580  223.3560 C   0  0  0  0  0  0  0  0  0  0  0  0
  139.6320   70.6764  223.7169 H   0  0  0  0  0  0  0  0  0  0  0  0
  139.2507   72.4101  224.0309 H   0  0  0  0  0  0  0  0  0  0  0  0
  137.5820   71.2390  223.3210 C   0  0  0  0  0  0  0  0  0  0  0  0
  137.4340   70.3164  222.7406 H   0  0  0  0  0  0  0  0  0  0  0  0
  137.2462   71.1295  224.3628 H   0  0  0  0  0  0  0  0  0  0  0  0
  136.7350   72.3650  222.6800 C   0  0  1  0  0  0  0  0  0  0  0  0
  136.3114   71.9822  221.7398 H   0  0  0  0  0  0  0  0  0  0  0  0
  135.5730   72.7590  223.6110 C   0  0  0  0  0  0  0  0  0  0  0  0
  134.9963   71.8581  223.8675 H   0  0  0  0  0  0  0  0  0  0  0  0
  135.9915   73.2200  224.5179 H   0  0  0  0  0  0  0  0  0  0  0  0
  134.6400   73.7770  222.9290 C   0  0  0  0  0  0  0  0  0  0  0  0
  133.8157   73.2308  222.4471 H   0  0  0  0  0  0  0  0  0  0  0  0
  134.2739   74.4641  223.7061 H   0  0  0  0  0  0  0  0  0  0  0  0
  135.3590   74.6220  221.8640 C   0  0  0  0  0  0  0  0  0  0  0  0
  135.2954   74.1081  220.8935 H   0  0  0  0  0  0  0  0  0  0  0  0
  134.8725   75.6071  221.8102 H   0  0  0  0  0  0  0  0  0  0  0  0
  136.8340   74.8240  222.2290 C   0  0  0  0  0  0  0  0  0  0  0  0
  137.3089   75.4374  221.4491 H   0  0  0  0  0  0  0  0  0  0  0  0
  136.8690   75.3174  223.2115 H   0  0  0  0  0  0  0  0  0  0  0  0
  137.5740   73.5460  222.3430 N   0  0  0  0  0  0  0  0  0  0  0  0
  138.3250   73.6740  223.0600 H   0  0  0  0  0  0  0  0  0  0  0  0
  138.0440   73.3570  221.4290 H   0  0  0  0  0  0  0  0  0  0  0  0
  140.0650   74.1710  221.9420 N   0  0  0  0  0  0  0  0  0  0  0  0
  139.3790   76.8470  222.6630 C   0  0  0  0  0  0  0  0  0  0  0  0
  139.5347   76.5360  223.7066 H   0  0  0  0  0  0  0  0  0  0  0  0
  138.5492   76.3004  222.1912 H   0  0  0  0  0  0  0  0  0  0  0  0
  139.0150   78.3390  222.6460 C   0  0  0  0  0  0  0  0  0  0  0  0
  138.2791   78.5403  223.4384 H   0  0  0  0  0  0  0  0  0  0  0  0
  138.5933   78.5891  221.6613 H   0  0  0  0  0  0  0  0  0  0  0  0
  1  2  1  0
  2  3  2  0
  3  4  1  0
  3  5  1  0
  5  6  1  0
  5  7  2  0
  7  8  1  0
  8  9  2  0
  9 10  1  0
  8 11  1  0
 11 12  1  0
 11 13  1  0
 11 14  1  0
 14 15  1  0
 15 16  1  0
 16 17  2  0
 17 18  1  0
 18 19  1  0
 19 20  1  0
 19 21  1  0
 19 22  1  0
 22 23  1  0
 22 24  1  0
 22 25  1  0
 25 26  1  0
 26 27  1  0
 26 28  1  0
 26 29  1  0
 29 30  1  0
 29 31  1  0
 17 32  1  0
 32 33  1  0
 32 34  1  0
 34 35  2  0
 35 36  1  0
 36 37  1  0
 36 38  1  0
 36 39  1  0
 39 40  1  0
 39 41  1  0
 39 42  1  0
 42 43  1  6
 42 44  1  0
 44 45  1  0
 44 46  1  0
 44 47  1  0
 47 48  1  0
 47 49  1  0
 47 50  1  0
 50 51  1  0
 50 52  1  0
 50 53  1  0
 53 54  1  0
 53 55  1  0
 53 56  1  0
 56 57  1  0
 56 58  1  0
 34 59  1  0
 14 60  1  0
 60 61  1  0
 60 62  1  0
 60 63  1  0
 63 64  1  0
 63 65  1  0
  9  2  1  0
 59 15  2  0
 63  7  1  0
 29 18  1  0
 56 42  1  0
M  CHG  1  56   1
M  END
>  <UniqueID>  (65) 
490

>  <SMILES>  (65) 
c1ccc2c(c1)CCN(c1nc(N3CCOCC3)[nH]/c(=N/CC[C@H]3CCCC[NH2+]3)n1)C2

>  <Energy>  (65) 
77.77218736182232

>  <Genealogy>  (65) 
c1ccc2c(c1)CCN(c1nc(NCCC3CCCC[NH2+]3)nc(N3CCOCC3)n1)C2 (protonated)
c1ccc2c(c1)CCN(c1nc(N3CCOCC3)[nH]c(=NCCC3CCCC[NH2+]3)n1)C2 (tautomer)
c1ccc2c(c1)CCN(c1nc(N3CCOCC3)[nH]c(=NCC[C@H]3CCCC[NH2+]3)n1)C2 (chirality)
c1ccc2c(c1)CCN(c1nc(N3CCOCC3)[nH]/c(=N/CC[C@H]3CCCC[NH2+]3)n1)C2 (cis-trans isomerization)
c1ccc2c(c1)CCN(c1nc(N3CCOCC3)[nH]/c(=N/CC[C@H]3CCCC[NH2+]3)n1)C2 (3D coordinates assigned)
c1ccc2c(c1)CCN(c1nc(N3CCOCC3)[nH]/c(=N/CC[C@H]3CCCC[NH2+]3)n1)C2 (nonaromatic ring conformer: 77.77218736182232 kcal/mol)

>  <smiles>  (65) 
c1ccc2c(c1)CCN(c1nc(NCCC3CCCCN3)nc(N3CCOCC3)n1)C2

>  <score_type>  (65) 
oracle

>  <origin>  (65) 
autodockgpu

>  <m_score__min__energy>  (65) 
-10.529999999999999

>  <m_primary>  (65) 
energy

>  <meeko>  (65) 
{"free_energy": -8.02, "intermolecular_energy": -9.81, "internal_energy": -2.68, "cluster_size": 6, "cluster_id": 3, "rank_in_cluster": 3}

>  <energy>  (65) 
-9.25

>  <cluster_rmsd>  (65) 
0.99

>  <rmsd>  (65) 
271.68

>  <cluster>  (65) 
1

$$$$
MXRVYNFLTYDQGX-PQYUSCEXNA-O
     RDKit          3D

 65 69  0  0  0  0  0  0  0  0999 V2000
  141.6924   68.4985  228.1457 H   0  0  0  0  0  0  0  0  0  0  0  0
  141.0670   68.6690  227.2570 C   0  0  0  0  0  0  0  0  0  0  0  0
  140.2960   67.6250  226.7350 C   0  0  0  0  0  0  0  0  0  0  0  0
  140.3143   66.6352  227.2145 H   0  0  0  0  0  0  0  0  0  0  0  0
  139.5020   67.8390  225.6040 C   0  0  0  0  0  0  0  0  0  0  0  0
  138.8854   67.0212  225.2027 H   0  0  0  0  0  0  0  0  0  0  0  0
  139.4910   69.0970  224.9800 C   0  0  0  0  0  0  0  0  0  0  0  0
  140.2620   70.1440  225.5040 C   0  0  0  0  0  0  0  0  0  0  0  0
  141.0440   69.9290  226.6510 C   0  0  0  0  0  0  0  0  0  0  0  0
  141.6388   70.7526  227.0728 H   0  0  0  0  0  0  0  0  0  0  0  0
  140.1890   71.5020  224.8570 C   0  0  0  0  0  0  0  0  0  0  0  0
  141.1071   72.0612  225.0904 H   0  0  0  0  0  0  0  0  0  0  0  0
  139.3060   72.0288  225.2480 H   0  0  0  0  0  0  0  0  0  0  0  0
  140.0550   71.3850  223.3920 N   0  0  0  0  0  0  0  0  0  0  0  0
  140.5920   72.4220  222.5430 C   0  0  0  0  0  0  0  0  0  0  0  0
  141.7620   72.2290  221.8820 N   0  0  0  0  0  0  0  0  0  0  0  0
  142.2650   73.1840  221.0580 C   0  0  0  0  0  0  0  0  0  0  0  0
  143.5090   72.9420  220.3670 N   0  0  0  0  0  0  0  0  0  0  0  0
  143.6240   71.8700  219.3730 C   0  0  0  0  0  0  0  0  0  0  0  0
  142.9755   71.0313  219.6664 H   0  0  0  0  0  0  0  0  0  0  0  0
  143.3159   72.2570  218.3905 H   0  0  0  0  0  0  0  0  0  0  0  0
  145.0750   71.3820  219.2860 C   0  0  0  0  0  0  0  0  0  0  0  0
  145.3348   70.8573  220.2172 H   0  0  0  0  0  0  0  0  0  0  0  0
  145.1664   70.7044  218.4243 H   0  0  0  0  0  0  0  0  0  0  0  0
  145.9630   72.4670  219.1030 O   0  0  0  0  0  0  0  0  0  0  0  0
  145.9370   73.3010  220.2460 C   0  0  0  0  0  0  0  0  0  0  0  0
  146.1495   72.6957  221.1396 H   0  0  0  0  0  0  0  0  0  0  0  0
  146.6975   74.0869  220.1277 H   0  0  0  0  0  0  0  0  0  0  0  0
  144.5650   73.9630  220.4020 C   0  0  0  0  0  0  0  0  0  0  0  0
  144.5247   74.4963  221.3632 H   0  0  0  0  0  0  0  0  0  0  0  0
  144.4097   74.6724  219.5758 H   0  0  0  0  0  0  0  0  0  0  0  0
  141.5850   74.3530  220.8980 N   0  0  0  0  0  0  0  0  0  0  0  0
  141.9660   75.1120  220.2890 H   0  0  0  0  0  0  0  0  0  0  0  0
  140.4150   74.5630  221.5620 C   0  0  0  0  0  0  0  0  0  0  0  0
  139.7830   75.6900  221.4000 N   0  0  0  0  0  0  0  0  0  0  0  0
  140.1310   76.7500  220.4510 C   0  0  0  0  0  0  0  0  0  0  0  0
  140.2210   76.3192  219.4429 H   0  0  0  0  0  0  0  0  0  0  0  0
  139.3413   77.5157  220.4648 H   0  0  0  0  0  0  0  0  0  0  0  0
  141.4640   77.4010  220.8440 C   0  0  0  0  0  0  0  0  0  0  0  0
  142.0385   76.6845  221.4494 H   0  0  0  0  0  0  0  0  0  0  0  0
  141.9868   77.6658  219.9131 H   0  0  0  0  0  0  0  0  0  0  0  0
  141.2860   78.7040  221.6600 C   0  0  1  0  0  0  0  0  0  0  0  0
  140.9227   79.4875  220.9787 H   0  0  0  0  0  0  0  0  0  0  0  0
  140.2380   78.5030  222.7720 C   0  0  0  0  0  0  0  0  0  0  0  0
  139.3064   78.1262  222.3247 H   0  0  0  0  0  0  0  0  0  0  0  0
  140.6343   77.7811  223.5012 H   0  0  0  0  0  0  0  0  0  0  0  0
  139.9470   79.8280  223.5010 C   0  0  0  0  0  0  0  0  0  0  0  0
  139.0753   80.3049  223.0290 H   0  0  0  0  0  0  0  0  0  0  0  0
  139.7589   79.5902  224.5584 H   0  0  0  0  0  0  0  0  0  0  0  0
  141.1310   80.8080  223.4500 C   0  0  0  0  0  0  0  0  0  0  0  0
  141.0415   81.4341  222.5500 H   0  0  0  0  0  0  0  0  0  0  0  0
  141.1099   81.4315  224.3560 H   0  0  0  0  0  0  0  0  0  0  0  0
  142.4650   80.0540  223.4060 C   0  0  0  0  0  0  0  0  0  0  0  0
  143.2837   80.7881  223.3780 H   0  0  0  0  0  0  0  0  0  0  0  0
  142.5187   79.4199  224.3032 H   0  0  0  0  0  0  0  0  0  0  0  0
  142.5810   79.1690  222.2240 N   0  0  0  0  0  0  0  0  0  0  0  0
  143.1730   78.3490  222.4960 H   0  0  0  0  0  0  0  0  0  0  0  0
  143.0910   79.6880  221.4750 H   0  0  0  0  0  0  0  0  0  0  0  0
  139.9250   73.5940  222.3820 N   0  0  0  0  0  0  0  0  0  0  0  0
  139.3410   70.2520  222.7720 C   0  0  0  0  0  0  0  0  0  0  0  0
  140.0706   69.6320  222.2304 H   0  0  0  0  0  0  0  0  0  0  0  0
  138.5790   70.6719  222.0989 H   0  0  0  0  0  0  0  0  0  0  0  0
  138.6130   69.3690  223.7960 C   0  0  0  0  0  0  0  0  0  0  0  0
  138.3410   68.4147  223.3213 H   0  0  0  0  0  0  0  0  0  0  0  0
  137.7102   69.8957  224.1387 H   0  0  0  0  0  0  0  0  0  0  0  0
  1  2  1  0
  2  3  2  0
  3  4  1  0
  3  5  1  0
  5  6  1  0
  5  7  2  0
  7  8  1  0
  8  9  2  0
  9 10  1  0
  8 11  1  0
 11 12  1  0
 11 13  1  0
 11 14  1  0
 14 15  1  0
 15 16  1  0
 16 17  2  0
 17 18  1  0
 18 19  1  0
 19 20  1  0
 19 21  1  0
 19 22  1  0
 22 23  1  0
 22 24  1  0
 22 25  1  0
 25 26  1  0
 26 27  1  0
 26 28  1  0
 26 29  1  0
 29 30  1  0
 29 31  1  0
 17 32  1  0
 32 33  1  0
 32 34  1  0
 34 35  2  0
 35 36  1  0
 36 37  1  0
 36 38  1  0
 36 39  1  0
 39 40  1  0
 39 41  1  0
 39 42  1  0
 42 43  1  6
 42 44  1  0
 44 45  1  0
 44 46  1  0
 44 47  1  0
 47 48  1  0
 47 49  1  0
 47 50  1  0
 50 51  1  0
 50 52  1  0
 50 53  1  0
 53 54  1  0
 53 55  1  0
 53 56  1  0
 56 57  1  0
 56 58  1  0
 34 59  1  0
 14 60  1  0
 60 61  1  0
 60 62  1  0
 60 63  1  0
 63 64  1  0
 63 65  1  0
  9  2  1  0
 59 15  2  0
 63  7  1  0
 29 18  1  0
 56 42  1  0
M  CHG  1  56   1
M  END
>  <UniqueID>  (66) 
490

>  <SMILES>  (66) 
c1ccc2c(c1)CCN(c1nc(N3CCOCC3)[nH]/c(=N/CC[C@H]3CCCC[NH2+]3)n1)C2

>  <Energy>  (66) 
77.77218736182232

>  <Genealogy>  (66) 
c1ccc2c(c1)CCN(c1nc(NCCC3CCCC[NH2+]3)nc(N3CCOCC3)n1)C2 (protonated)
c1ccc2c(c1)CCN(c1nc(N3CCOCC3)[nH]c(=NCCC3CCCC[NH2+]3)n1)C2 (tautomer)
c1ccc2c(c1)CCN(c1nc(N3CCOCC3)[nH]c(=NCC[C@H]3CCCC[NH2+]3)n1)C2 (chirality)
c1ccc2c(c1)CCN(c1nc(N3CCOCC3)[nH]/c(=N/CC[C@H]3CCCC[NH2+]3)n1)C2 (cis-trans isomerization)
c1ccc2c(c1)CCN(c1nc(N3CCOCC3)[nH]/c(=N/CC[C@H]3CCCC[NH2+]3)n1)C2 (3D coordinates assigned)
c1ccc2c(c1)CCN(c1nc(N3CCOCC3)[nH]/c(=N/CC[C@H]3CCCC[NH2+]3)n1)C2 (nonaromatic ring conformer: 77.77218736182232 kcal/mol)

>  <smiles>  (66) 
c1ccc2c(c1)CCN(c1nc(NCCC3CCCCN3)nc(N3CCOCC3)n1)C2

>  <score_type>  (66) 
oracle

>  <origin>  (66) 
autodockgpu

>  <m_score__min__energy>  (66) 
-10.529999999999999

>  <m_primary>  (66) 
energy

>  <meeko>  (66) 
{"free_energy": -10.32, "intermolecular_energy": -12.11, "internal_energy": -0.55, "cluster_size": 11, "cluster_id": 1, "rank_in_cluster": 2}

>  <energy>  (66) 
-9.23

>  <cluster_rmsd>  (66) 
0.99

>  <rmsd>  (66) 
271.66

>  <cluster>  (66) 
1

$$$$
MXRVYNFLTYDQGX-PQYUSCEXNA-O
     RDKit          3D

 65 69  0  0  0  0  0  0  0  0999 V2000
  141.7225   68.5008  228.1972 H   0  0  0  0  0  0  0  0  0  0  0  0
  141.0780   68.6700  227.3220 C   0  0  0  0  0  0  0  0  0  0  0  0
  140.2830   67.6300  226.8290 C   0  0  0  0  0  0  0  0  0  0  0  0
  140.3018   66.6445  227.3173 H   0  0  0  0  0  0  0  0  0  0  0  0
  139.4640   67.8430  225.7150 C   0  0  0  0  0  0  0  0  0  0  0  0
  138.8284   67.0287  225.3370 H   0  0  0  0  0  0  0  0  0  0  0  0
  139.4520   69.0940  225.0790 C   0  0  0  0  0  0  0  0  0  0  0  0
  140.2480   70.1380  225.5750 C   0  0  0  0  0  0  0  0  0  0  0  0
  141.0550   69.9250  226.7040 C   0  0  0  0  0  0  0  0  0  0  0  0
  141.6696   70.7454  227.1029 H   0  0  0  0  0  0  0  0  0  0  0  0
  140.1740   71.4900  224.9160 C   0  0  0  0  0  0  0  0  0  0  0  0
  141.1035   72.0411  225.1215 H   0  0  0  0  0  0  0  0  0  0  0  0
  139.3063   72.0299  225.3229 H   0  0  0  0  0  0  0  0  0  0  0  0
  140.0030   71.3610  223.4560 N   0  0  0  0  0  0  0  0  0  0  0  0
  140.5310   72.3840  222.5850 C   0  0  0  0  0  0  0  0  0  0  0  0
  141.7210   72.2020  221.9560 N   0  0  0  0  0  0  0  0  0  0  0  0
  142.2160   73.1410  221.1110 C   0  0  0  0  0  0  0  0  0  0  0  0
  143.4810   72.9120  220.4550 N   0  0  0  0  0  0  0  0  0  0  0  0
  143.6380   71.8320  219.4740 C   0  0  0  0  0  0  0  0  0  0  0  0
  142.9943   70.9865  219.7582 H   0  0  0  0  0  0  0  0  0  0  0  0
  143.3505   72.2053  218.4800 H   0  0  0  0  0  0  0  0  0  0  0  0
  145.0970   71.3650  219.4300 C   0  0  0  0  0  0  0  0  0  0  0  0
  145.3394   70.8528  220.3728 H   0  0  0  0  0  0  0  0  0  0  0  0
  145.2206   70.6813  218.5772 H   0  0  0  0  0  0  0  0  0  0  0  0
  145.9750   72.4610  219.2600 O   0  0  0  0  0  0  0  0  0  0  0  0
  145.9060   73.3040  220.3950 C   0  0  0  0  0  0  0  0  0  0  0  0
  146.1033   72.7091  221.2990 H   0  0  0  0  0  0  0  0  0  0  0  0
  146.6577   74.1002  220.2901 H   0  0  0  0  0  0  0  0  0  0  0  0
  144.5210   73.9470  220.5090 C   0  0  0  0  0  0  0  0  0  0  0  0
  144.4478   74.4875  221.4643 H   0  0  0  0  0  0  0  0  0  0  0  0
  144.3778   74.6468  219.6725 H   0  0  0  0  0  0  0  0  0  0  0  0
  141.5090   74.2860  220.8960 N   0  0  0  0  0  0  0  0  0  0  0  0
  141.8820   75.0350  220.2700 H   0  0  0  0  0  0  0  0  0  0  0  0
  140.3190   74.4860  221.5270 C   0  0  0  0  0  0  0  0  0  0  0  0
  139.6610   75.5880  221.3150 N   0  0  0  0  0  0  0  0  0  0  0  0
  139.8660   76.8660  222.0020 C   0  0  0  0  0  0  0  0  0  0  0  0
  138.9761   77.4981  221.8657 H   0  0  0  0  0  0  0  0  0  0  0  0
  140.0317   76.6742  223.0724 H   0  0  0  0  0  0  0  0  0  0  0  0
  141.0920   77.5880  221.4290 C   0  0  0  0  0  0  0  0  0  0  0  0
  141.9829   76.9726  221.6229 H   0  0  0  0  0  0  0  0  0  0  0  0
  140.9153   77.7299  220.3526 H   0  0  0  0  0  0  0  0  0  0  0  0
  141.3170   78.9890  222.0480 C   0  0  1  0  0  0  0  0  0  0  0  0
  141.0732   79.7433  221.2854 H   0  0  0  0  0  0  0  0  0  0  0  0
  140.3830   79.1990  223.2550 C   0  0  0  0  0  0  0  0  0  0  0  0
  139.3451   79.0091  222.9440 H   0  0  0  0  0  0  0  0  0  0  0  0
  140.6799   78.5026  224.0530 H   0  0  0  0  0  0  0  0  0  0  0  0
  140.4920   80.6380  223.7940 C   0  0  0  0  0  0  0  0  0  0  0  0
  139.7087   81.2504  223.3235 H   0  0  0  0  0  0  0  0  0  0  0  0
  140.3721   80.5937  224.8865 H   0  0  0  0  0  0  0  0  0  0  0  0
  141.8600   81.2790  223.5020 C   0  0  0  0  0  0  0  0  0  0  0  0
  141.8189   81.7860  222.5267 H   0  0  0  0  0  0  0  0  0  0  0  0
  142.0873   81.9995  224.3015 H   0  0  0  0  0  0  0  0  0  0  0  0
  142.9670   80.2200  223.4700 C   0  0  0  0  0  0  0  0  0  0  0  0
  143.9259   80.7191  223.2665 H   0  0  0  0  0  0  0  0  0  0  0  0
  142.9715   79.7140  224.4467 H   0  0  0  0  0  0  0  0  0  0  0  0
  142.7400   79.1880  222.4320 N   0  0  0  0  0  0  0  0  0  0  0  0
  143.1500   78.2900  222.7780 H   0  0  0  0  0  0  0  0  0  0  0  0
  143.2690   79.4640  221.5740 H   0  0  0  0  0  0  0  0  0  0  0  0
  139.8370   73.5310  222.3700 N   0  0  0  0  0  0  0  0  0  0  0  0
  139.2620   70.2300  222.8650 C   0  0  0  0  0  0  0  0  0  0  0  0
  139.9716   69.5967  222.3124 H   0  0  0  0  0  0  0  0  0  0  0  0
  138.4886   70.6521  222.2065 H   0  0  0  0  0  0  0  0  0  0  0  0
  138.5490   69.3650  223.9140 C   0  0  0  0  0  0  0  0  0  0  0  0
  138.2551   68.4095  223.4549 H   0  0  0  0  0  0  0  0  0  0  0  0
  137.6605   69.9049  224.2731 H   0  0  0  0  0  0  0  0  0  0  0  0
  1  2  1  0
  2  3  2  0
  3  4  1  0
  3  5  1  0
  5  6  1  0
  5  7  2  0
  7  8  1  0
  8  9  2  0
  9 10  1  0
  8 11  1  0
 11 12  1  0
 11 13  1  0
 11 14  1  0
 14 15  1  0
 15 16  1  0
 16 17  2  0
 17 18  1  0
 18 19  1  0
 19 20  1  0
 19 21  1  0
 19 22  1  0
 22 23  1  0
 22 24  1  0
 22 25  1  0
 25 26  1  0
 26 27  1  0
 26 28  1  0
 26 29  1  0
 29 30  1  0
 29 31  1  0
 17 32  1  0
 32 33  1  0
 32 34  1  0
 34 35  2  0
 35 36  1  0
 36 37  1  0
 36 38  1  0
 36 39  1  0
 39 40  1  0
 39 41  1  0
 39 42  1  0
 42 43  1  6
 42 44  1  0
 44 45  1  0
 44 46  1  0
 44 47  1  0
 47 48  1  0
 47 49  1  0
 47 50  1  0
 50 51  1  0
 50 52  1  0
 50 53  1  0
 53 54  1  0
 53 55  1  0
 53 56  1  0
 56 57  1  0
 56 58  1  0
 34 59  1  0
 14 60  1  0
 60 61  1  0
 60 62  1  0
 60 63  1  0
 63 64  1  0
 63 65  1  0
  9  2  1  0
 59 15  2  0
 63  7  1  0
 29 18  1  0
 56 42  1  0
M  CHG  1  56   1
M  END
>  <UniqueID>  (67) 
490

>  <SMILES>  (67) 
c1ccc2c(c1)CCN(c1nc(N3CCOCC3)[nH]/c(=N/CC[C@H]3CCCC[NH2+]3)n1)C2

>  <Energy>  (67) 
77.77218736182232

>  <Genealogy>  (67) 
c1ccc2c(c1)CCN(c1nc(NCCC3CCCC[NH2+]3)nc(N3CCOCC3)n1)C2 (protonated)
c1ccc2c(c1)CCN(c1nc(N3CCOCC3)[nH]c(=NCCC3CCCC[NH2+]3)n1)C2 (tautomer)
c1ccc2c(c1)CCN(c1nc(N3CCOCC3)[nH]c(=NCC[C@H]3CCCC[NH2+]3)n1)C2 (chirality)
c1ccc2c(c1)CCN(c1nc(N3CCOCC3)[nH]/c(=N/CC[C@H]3CCCC[NH2+]3)n1)C2 (cis-trans isomerization)
c1ccc2c(c1)CCN(c1nc(N3CCOCC3)[nH]/c(=N/CC[C@H]3CCCC[NH2+]3)n1)C2 (3D coordinates assigned)
c1ccc2c(c1)CCN(c1nc(N3CCOCC3)[nH]/c(=N/CC[C@H]3CCCC[NH2+]3)n1)C2 (nonaromatic ring conformer: 77.77218736182232 kcal/mol)

>  <smiles>  (67) 
c1ccc2c(c1)CCN(c1nc(NCCC3CCCCN3)nc(N3CCOCC3)n1)C2

>  <score_type>  (67) 
oracle

>  <origin>  (67) 
autodockgpu

>  <m_score__min__energy>  (67) 
-10.529999999999999

>  <m_primary>  (67) 
energy

>  <meeko>  (67) 
{"free_energy": -10.53, "intermolecular_energy": -12.32, "internal_energy": -0.52, "cluster_size": 11, "cluster_id": 1, "rank_in_cluster": 1}

>  <energy>  (67) 
-9.2

>  <cluster_rmsd>  (67) 
1.0

>  <rmsd>  (67) 
271.64

>  <cluster>  (67) 
1

$$$$
MXRVYNFLTYDQGX-PQYUSCEXNA-O
     RDKit          3D

 65 69  0  0  0  0  0  0  0  0999 V2000
  141.6450   68.8121  228.5546 H   0  0  0  0  0  0  0  0  0  0  0  0
  141.0760   68.8700  227.6150 C   0  0  0  0  0  0  0  0  0  0  0  0
  140.4350   67.7310  227.1160 C   0  0  0  0  0  0  0  0  0  0  0  0
  140.5002   66.7790  227.6631 H   0  0  0  0  0  0  0  0  0  0  0  0
  139.7110   67.8030  225.9210 C   0  0  0  0  0  0  0  0  0  0  0  0
  139.1946   66.9110  225.5369 H   0  0  0  0  0  0  0  0  0  0  0  0
  139.6430   69.0120  225.2120 C   0  0  0  0  0  0  0  0  0  0  0  0
  140.2850   70.1540  225.7130 C   0  0  0  0  0  0  0  0  0  0  0  0
  140.9950   70.0820  226.9220 C   0  0  0  0  0  0  0  0  0  0  0  0
  141.4878   70.9793  227.3244 H   0  0  0  0  0  0  0  0  0  0  0  0
  140.1480   71.4560  224.9690 C   0  0  0  0  0  0  0  0  0  0  0  0
  140.9968   72.1072  225.2250 H   0  0  0  0  0  0  0  0  0  0  0  0
  139.1977   71.9269  225.2609 H   0  0  0  0  0  0  0  0  0  0  0  0
  140.1330   71.2350  223.5100 N   0  0  0  0  0  0  0  0  0  0  0  0
  140.6450   72.2580  222.6290 C   0  0  0  0  0  0  0  0  0  0  0  0
  141.8070   72.0650  221.9560 N   0  0  0  0  0  0  0  0  0  0  0  0
  142.2870   73.0050  221.1020 C   0  0  0  0  0  0  0  0  0  0  0  0
  143.5230   72.7630  220.3980 N   0  0  0  0  0  0  0  0  0  0  0  0
  143.6340   71.6770  219.4180 C   0  0  0  0  0  0  0  0  0  0  0  0
  142.9957   70.8379  219.7317 H   0  0  0  0  0  0  0  0  0  0  0  0
  143.3109   72.0473  218.4339 H   0  0  0  0  0  0  0  0  0  0  0  0
  145.0860   71.1990  219.3200 C   0  0  0  0  0  0  0  0  0  0  0  0
  145.3615   70.6906  220.2558 H   0  0  0  0  0  0  0  0  0  0  0  0
  145.1715   70.5090  218.4676 H   0  0  0  0  0  0  0  0  0  0  0  0
  145.9640   72.2880  219.1090 O   0  0  0  0  0  0  0  0  0  0  0  0
  145.9460   73.1390  220.2400 C   0  0  0  0  0  0  0  0  0  0  0  0
  146.1756   72.5489  221.1395 H   0  0  0  0  0  0  0  0  0  0  0  0
  146.6980   73.9294  220.0995 H   0  0  0  0  0  0  0  0  0  0  0  0
  144.5710   73.7920  220.4050 C   0  0  0  0  0  0  0  0  0  0  0  0
  144.5391   74.3382  221.3593 H   0  0  0  0  0  0  0  0  0  0  0  0
  144.3992   74.4885  219.5711 H   0  0  0  0  0  0  0  0  0  0  0  0
  141.5890   74.1620  220.9250 N   0  0  0  0  0  0  0  0  0  0  0  0
  141.9510   74.9110  220.2920 H   0  0  0  0  0  0  0  0  0  0  0  0
  140.4270   74.3740  221.6010 C   0  0  0  0  0  0  0  0  0  0  0  0
  139.7780   75.4880  221.4230 N   0  0  0  0  0  0  0  0  0  0  0  0
  139.8860   76.6940  222.2480 C   0  0  0  0  0  0  0  0  0  0  0  0
  140.3020   76.4255  223.2303 H   0  0  0  0  0  0  0  0  0  0  0  0
  140.5461   77.4147  221.7432 H   0  0  0  0  0  0  0  0  0  0  0  0
  138.5050   77.3330  222.4410 C   0  0  0  0  0  0  0  0  0  0  0  0
  138.6146   78.2136  223.0910 H   0  0  0  0  0  0  0  0  0  0  0  0
  138.1258   77.6014  221.4439 H   0  0  0  0  0  0  0  0  0  0  0  0
  137.4750   76.3720  223.0830 C   0  0  1  0  0  0  0  0  0  0  0  0
  137.7793   76.1889  224.1241 H   0  0  0  0  0  0  0  0  0  0  0  0
  136.0740   77.0150  223.0920 C   0  0  0  0  0  0  0  0  0  0  0  0
  136.1325   77.9982  223.5818 H   0  0  0  0  0  0  0  0  0  0  0  0
  135.7307   77.1225  222.0525 H   0  0  0  0  0  0  0  0  0  0  0  0
  135.0670   76.1320  223.8530 C   0  0  0  0  0  0  0  0  0  0  0  0
  135.0199   76.4726  224.8979 H   0  0  0  0  0  0  0  0  0  0  0  0
  134.0940   76.2283  223.3490 H   0  0  0  0  0  0  0  0  0  0  0  0
  135.4520   74.6430  223.8380 C   0  0  0  0  0  0  0  0  0  0  0  0
  136.0973   74.4294  224.7028 H   0  0  0  0  0  0  0  0  0  0  0  0
  134.5319   74.0421  223.8867 H   0  0  0  0  0  0  0  0  0  0  0  0
  136.2030   74.2840  222.5510 C   0  0  0  0  0  0  0  0  0  0  0  0
  136.4514   73.2127  222.5753 H   0  0  0  0  0  0  0  0  0  0  0  0
  135.5467   74.5294  221.7030 H   0  0  0  0  0  0  0  0  0  0  0  0
  137.4560   75.0580  222.3870 N   0  0  0  0  0  0  0  0  0  0  0  0
  137.6190   75.1890  221.3620 H   0  0  0  0  0  0  0  0  0  0  0  0
  138.2460   74.4850  222.7600 H   0  0  0  0  0  0  0  0  0  0  0  0
  139.9610   73.4180  222.4510 N   0  0  0  0  0  0  0  0  0  0  0  0
  139.5630   70.0070  222.9240 C   0  0  0  0  0  0  0  0  0  0  0  0
  140.3794   69.4196  222.4786 H   0  0  0  0  0  0  0  0  0  0  0  0
  138.8210   70.3149  222.1726 H   0  0  0  0  0  0  0  0  0  0  0  0
  138.8360   69.1310  223.9550 C   0  0  0  0  0  0  0  0  0  0  0  0
  138.6790   68.1285  223.5304 H   0  0  0  0  0  0  0  0  0  0  0  0
  137.8702   69.5982  224.1977 H   0  0  0  0  0  0  0  0  0  0  0  0
  1  2  1  0
  2  3  2  0
  3  4  1  0
  3  5  1  0
  5  6  1  0
  5  7  2  0
  7  8  1  0
  8  9  2  0
  9 10  1  0
  8 11  1  0
 11 12  1  0
 11 13  1  0
 11 14  1  0
 14 15  1  0
 15 16  1  0
 16 17  2  0
 17 18  1  0
 18 19  1  0
 19 20  1  0
 19 21  1  0
 19 22  1  0
 22 23  1  0
 22 24  1  0
 22 25  1  0
 25 26  1  0
 26 27  1  0
 26 28  1  0
 26 29  1  0
 29 30  1  0
 29 31  1  0
 17 32  1  0
 32 33  1  0
 32 34  1  0
 34 35  2  0
 35 36  1  0
 36 37  1  0
 36 38  1  0
 36 39  1  0
 39 40  1  0
 39 41  1  0
 39 42  1  0
 42 43  1  1
 42 44  1  0
 44 45  1  0
 44 46  1  0
 44 47  1  0
 47 48  1  0
 47 49  1  0
 47 50  1  0
 50 51  1  0
 50 52  1  0
 50 53  1  0
 53 54  1  0
 53 55  1  0
 53 56  1  0
 56 57  1  0
 56 58  1  0
 34 59  1  0
 14 60  1  0
 60 61  1  0
 60 62  1  0
 60 63  1  0
 63 64  1  0
 63 65  1  0
  9  2  1  0
 59 15  2  0
 63  7  1  0
 29 18  1  0
 56 42  1  0
M  CHG  1  56   1
M  END
>  <UniqueID>  (68) 
490

>  <SMILES>  (68) 
c1ccc2c(c1)CCN(c1nc(N3CCOCC3)[nH]/c(=N/CC[C@H]3CCCC[NH2+]3)n1)C2

>  <Energy>  (68) 
77.77218736182232

>  <Genealogy>  (68) 
c1ccc2c(c1)CCN(c1nc(NCCC3CCCC[NH2+]3)nc(N3CCOCC3)n1)C2 (protonated)
c1ccc2c(c1)CCN(c1nc(N3CCOCC3)[nH]c(=NCCC3CCCC[NH2+]3)n1)C2 (tautomer)
c1ccc2c(c1)CCN(c1nc(N3CCOCC3)[nH]c(=NCC[C@H]3CCCC[NH2+]3)n1)C2 (chirality)
c1ccc2c(c1)CCN(c1nc(N3CCOCC3)[nH]/c(=N/CC[C@H]3CCCC[NH2+]3)n1)C2 (cis-trans isomerization)
c1ccc2c(c1)CCN(c1nc(N3CCOCC3)[nH]/c(=N/CC[C@H]3CCCC[NH2+]3)n1)C2 (3D coordinates assigned)
c1ccc2c(c1)CCN(c1nc(N3CCOCC3)[nH]/c(=N/CC[C@H]3CCCC[NH2+]3)n1)C2 (nonaromatic ring conformer: 77.77218736182232 kcal/mol)

>  <smiles>  (68) 
c1ccc2c(c1)CCN(c1nc(NCCC3CCCCN3)nc(N3CCOCC3)n1)C2

>  <score_type>  (68) 
oracle

>  <origin>  (68) 
autodockgpu

>  <m_score__min__energy>  (68) 
-10.529999999999999

>  <m_primary>  (68) 
energy

>  <meeko>  (68) 
{"free_energy": -8.74, "intermolecular_energy": -10.53, "internal_energy": -2.4, "cluster_size": 3, "cluster_id": 2, "rank_in_cluster": 1}

>  <energy>  (68) 
-9.16

>  <cluster_rmsd>  (68) 
0.92

>  <rmsd>  (68) 
271.83

>  <cluster>  (68) 
1

$$$$
MXRVYNFLTYDQGX-PQYUSCEXNA-O
     RDKit          3D

 65 69  0  0  0  0  0  0  0  0999 V2000
  141.5821   68.3067  227.9022 H   0  0  0  0  0  0  0  0  0  0  0  0
  140.9650   68.5400  227.0220 C   0  0  0  0  0  0  0  0  0  0  0  0
  140.1480   67.5530  226.4600 C   0  0  0  0  0  0  0  0  0  0  0  0
  140.1219   66.5449  226.8994 H   0  0  0  0  0  0  0  0  0  0  0  0
  139.3640   67.8480  225.3390 C   0  0  0  0  0  0  0  0  0  0  0  0
  138.7115   67.0753  224.9064 H   0  0  0  0  0  0  0  0  0  0  0  0
  139.4090   69.1280  224.7660 C   0  0  0  0  0  0  0  0  0  0  0  0
  140.2270   70.1180  225.3310 C   0  0  0  0  0  0  0  0  0  0  0  0
  140.9980   69.8230  226.4660 C   0  0  0  0  0  0  0  0  0  0  0  0
  141.6291   70.6018  226.9189 H   0  0  0  0  0  0  0  0  0  0  0  0
  140.2140   71.5020  224.7380 C   0  0  0  0  0  0  0  0  0  0  0  0
  141.1559   72.0102  224.9919 H   0  0  0  0  0  0  0  0  0  0  0  0
  139.3545   72.0504  225.1510 H   0  0  0  0  0  0  0  0  0  0  0  0
  140.0750   71.4510  223.2710 N   0  0  0  0  0  0  0  0  0  0  0  0
  140.6580   72.4960  222.4630 C   0  0  0  0  0  0  0  0  0  0  0  0
  141.7980   72.2660  221.7630 N   0  0  0  0  0  0  0  0  0  0  0  0
  142.3430   73.2290  220.9760 C   0  0  0  0  0  0  0  0  0  0  0  0
  143.5530   72.9480  220.2420 N   0  0  0  0  0  0  0  0  0  0  0  0
  143.6030   71.8610  219.2570 C   0  0  0  0  0  0  0  0  0  0  0  0
  142.9450   71.0428  219.5850 H   0  0  0  0  0  0  0  0  0  0  0  0
  143.2679   72.2444  218.2819 H   0  0  0  0  0  0  0  0  0  0  0  0
  145.0360   71.3350  219.1220 C   0  0  0  0  0  0  0  0  0  0  0  0
  145.3169   70.8140  220.0491 H   0  0  0  0  0  0  0  0  0  0  0  0
  145.0775   70.6460  218.2655 H   0  0  0  0  0  0  0  0  0  0  0  0
  145.9450   72.3950  218.8930 O   0  0  0  0  0  0  0  0  0  0  0  0
  145.9830   73.2410  220.0260 C   0  0  0  0  0  0  0  0  0  0  0  0
  146.2137   72.6398  220.9178 H   0  0  0  0  0  0  0  0  0  0  0  0
  146.7580   74.0059  219.8700 H   0  0  0  0  0  0  0  0  0  0  0  0
  144.6350   73.9400  220.2260 C   0  0  0  0  0  0  0  0  0  0  0  0
  144.6449   74.4838  221.1821 H   0  0  0  0  0  0  0  0  0  0  0  0
  144.4670   74.6445  219.3981 H   0  0  0  0  0  0  0  0  0  0  0  0
  141.7350   74.4460  220.8940 N   0  0  0  0  0  0  0  0  0  0  0  0
  142.1500   75.2110  220.3150 H   0  0  0  0  0  0  0  0  0  0  0  0
  140.5960   74.6930  221.5970 C   0  0  0  0  0  0  0  0  0  0  0  0
  140.0340   75.8640  221.5110 N   0  0  0  0  0  0  0  0  0  0  0  0
  139.7650   76.6060  220.2760 C   0  0  0  0  0  0  0  0  0  0  0  0
  140.6112   76.4791  219.5848 H   0  0  0  0  0  0  0  0  0  0  0  0
  138.8433   76.2173  219.8185 H   0  0  0  0  0  0  0  0  0  0  0  0
  139.5800   78.0980  220.5810 C   0  0  0  0  0  0  0  0  0  0  0  0
  139.4679   78.6384  219.6295 H   0  0  0  0  0  0  0  0  0  0  0  0
  138.6879   78.1942  221.2174 H   0  0  0  0  0  0  0  0  0  0  0  0
  140.7700   78.7120  221.3590 C   0  0  1  0  0  0  0  0  0  0  0  0
  141.6437   78.7306  220.6910 H   0  0  0  0  0  0  0  0  0  0  0  0
  140.4480   80.1590  221.7770 C   0  0  0  0  0  0  0  0  0  0  0  0
  140.1520   80.7333  220.8867 H   0  0  0  0  0  0  0  0  0  0  0  0
  139.6293   80.1380  222.5114 H   0  0  0  0  0  0  0  0  0  0  0  0
  141.6730   80.8310  222.4260 C   0  0  0  0  0  0  0  0  0  0  0  0
  142.2257   81.3800  221.6494 H   0  0  0  0  0  0  0  0  0  0  0  0
  141.3040   81.5029  223.2149 H   0  0  0  0  0  0  0  0  0  0  0  0
  142.6260   79.8190  223.0860 C   0  0  0  0  0  0  0  0  0  0  0  0
  143.3659   79.4845  222.3439 H   0  0  0  0  0  0  0  0  0  0  0  0
  143.1261   80.3096  223.9341 H   0  0  0  0  0  0  0  0  0  0  0  0
  141.8560   78.6020  223.6100 C   0  0  0  0  0  0  0  0  0  0  0  0
  142.5699   77.9091  224.0793 H   0  0  0  0  0  0  0  0  0  0  0  0
  141.1092   78.9662  224.3308 H   0  0  0  0  0  0  0  0  0  0  0  0
  141.1300   77.8810  222.5390 N   0  0  0  0  0  0  0  0  0  0  0  0
  140.2690   77.4620  222.9620 H   0  0  0  0  0  0  0  0  0  0  0  0
  141.7310   77.0940  222.2070 H   0  0  0  0  0  0  0  0  0  0  0  0
  140.0640   73.7140  222.3790 N   0  0  0  0  0  0  0  0  0  0  0  0
  139.3110   70.3760  222.6070 C   0  0  0  0  0  0  0  0  0  0  0  0
  140.0124   69.7459  222.0403 H   0  0  0  0  0  0  0  0  0  0  0  0
  138.5690   70.8558  221.9518 H   0  0  0  0  0  0  0  0  0  0  0  0
  138.5440   69.4870  223.5960 C   0  0  0  0  0  0  0  0  0  0  0  0
  138.2286   68.5659  223.0840 H   0  0  0  0  0  0  0  0  0  0  0  0
  137.6662   70.0401  223.9615 H   0  0  0  0  0  0  0  0  0  0  0  0
  1  2  1  0
  2  3  2  0
  3  4  1  0
  3  5  1  0
  5  6  1  0
  5  7  2  0
  7  8  1  0
  8  9  2  0
  9 10  1  0
  8 11  1  0
 11 12  1  0
 11 13  1  0
 11 14  1  0
 14 15  1  0
 15 16  1  0
 16 17  2  0
 17 18  1  0
 18 19  1  0
 19 20  1  0
 19 21  1  0
 19 22  1  0
 22 23  1  0
 22 24  1  0
 22 25  1  0
 25 26  1  0
 26 27  1  0
 26 28  1  0
 26 29  1  0
 29 30  1  0
 29 31  1  0
 17 32  1  0
 32 33  1  0
 32 34  1  0
 34 35  2  0
 35 36  1  0
 36 37  1  0
 36 38  1  0
 36 39  1  0
 39 40  1  0
 39 41  1  0
 39 42  1  0
 42 43  1  6
 42 44  1  0
 44 45  1  0
 44 46  1  0
 44 47  1  0
 47 48  1  0
 47 49  1  0
 47 50  1  0
 50 51  1  0
 50 52  1  0
 50 53  1  0
 53 54  1  0
 53 55  1  0
 53 56  1  0
 56 57  1  0
 56 58  1  0
 34 59  1  0
 14 60  1  0
 60 61  1  0
 60 62  1  0
 60 63  1  0
 63 64  1  0
 63 65  1  0
  9  2  1  0
 59 15  2  0
 63  7  1  0
 29 18  1  0
 56 42  1  0
M  CHG  1  56   1
M  END
>  <UniqueID>  (69) 
490

>  <SMILES>  (69) 
c1ccc2c(c1)CCN(c1nc(N3CCOCC3)[nH]/c(=N/CC[C@H]3CCCC[NH2+]3)n1)C2

>  <Energy>  (69) 
77.77218736182232

>  <Genealogy>  (69) 
c1ccc2c(c1)CCN(c1nc(NCCC3CCCC[NH2+]3)nc(N3CCOCC3)n1)C2 (protonated)
c1ccc2c(c1)CCN(c1nc(N3CCOCC3)[nH]c(=NCCC3CCCC[NH2+]3)n1)C2 (tautomer)
c1ccc2c(c1)CCN(c1nc(N3CCOCC3)[nH]c(=NCC[C@H]3CCCC[NH2+]3)n1)C2 (chirality)
c1ccc2c(c1)CCN(c1nc(N3CCOCC3)[nH]/c(=N/CC[C@H]3CCCC[NH2+]3)n1)C2 (cis-trans isomerization)
c1ccc2c(c1)CCN(c1nc(N3CCOCC3)[nH]/c(=N/CC[C@H]3CCCC[NH2+]3)n1)C2 (3D coordinates assigned)
c1ccc2c(c1)CCN(c1nc(N3CCOCC3)[nH]/c(=N/CC[C@H]3CCCC[NH2+]3)n1)C2 (nonaromatic ring conformer: 77.77218736182232 kcal/mol)

>  <smiles>  (69) 
c1ccc2c(c1)CCN(c1nc(NCCC3CCCCN3)nc(N3CCOCC3)n1)C2

>  <score_type>  (69) 
oracle

>  <origin>  (69) 
autodockgpu

>  <m_score__min__energy>  (69) 
-10.529999999999999

>  <m_primary>  (69) 
energy

>  <meeko>  (69) 
{"free_energy": -9.25, "intermolecular_energy": -11.04, "internal_energy": -1.59, "cluster_size": 11, "cluster_id": 1, "rank_in_cluster": 5}

>  <energy>  (69) 
-8.98

>  <cluster_rmsd>  (69) 
1.09

>  <rmsd>  (69) 
271.68

>  <cluster>  (69) 
1

$$$$
MXRVYNFLTYDQGX-PQYUSCEXNA-O
     RDKit          3D

 65 69  0  0  0  0  0  0  0  0999 V2000
  143.2518   81.3754  223.4284 H   0  0  0  0  0  0  0  0  0  0  0  0
  142.3690   80.7450  223.2460 C   0  0  0  0  0  0  0  0  0  0  0  0
  141.1350   81.0930  223.8040 C   0  0  0  0  0  0  0  0  0  0  0  0
  141.0479   81.9976  224.4237 H   0  0  0  0  0  0  0  0  0  0  0  0
  140.0110   80.2920  223.5750 C   0  0  0  0  0  0  0  0  0  0  0  0
  139.0380   80.5751  224.0029 H   0  0  0  0  0  0  0  0  0  0  0  0
  140.1240   79.1280  222.8000 C   0  0  0  0  0  0  0  0  0  0  0  0
  141.3610   78.7790  222.2380 C   0  0  0  0  0  0  0  0  0  0  0  0
  142.4820   79.5960  222.4560 C   0  0  0  0  0  0  0  0  0  0  0  0
  143.4501   79.3323  222.0051 H   0  0  0  0  0  0  0  0  0  0  0  0
  141.4480   77.5590  221.3590 C   0  0  0  0  0  0  0  0  0  0  0  0
  142.4863   77.1958  221.3502 H   0  0  0  0  0  0  0  0  0  0  0  0
  141.1268   77.8359  220.3440 H   0  0  0  0  0  0  0  0  0  0  0  0
  140.5660   76.4850  221.8530 N   0  0  0  0  0  0  0  0  0  0  0  0
  140.9240   75.1060  221.6200 C   0  0  0  0  0  0  0  0  0  0  0  0
  142.1240   74.7930  221.0660 N   0  0  0  0  0  0  0  0  0  0  0  0
  142.4870   73.5000  220.8670 C   0  0  0  0  0  0  0  0  0  0  0  0
  143.7720   73.2040  220.2810 N   0  0  0  0  0  0  0  0  0  0  0  0
  143.9110   72.1720  219.2470 C   0  0  0  0  0  0  0  0  0  0  0  0
  143.1849   71.3677  219.4364 H   0  0  0  0  0  0  0  0  0  0  0  0
  143.7227   72.6233  218.2617 H   0  0  0  0  0  0  0  0  0  0  0  0
  145.3280   71.5900  219.2680 C   0  0  0  0  0  0  0  0  0  0  0  0
  145.4638   71.0070  220.1909 H   0  0  0  0  0  0  0  0  0  0  0  0
  145.4563   70.9478  218.3842 H   0  0  0  0  0  0  0  0  0  0  0  0
  146.2990   72.6180  219.2230 O   0  0  0  0  0  0  0  0  0  0  0  0
  146.2180   73.3990  220.4010 C   0  0  0  0  0  0  0  0  0  0  0  0
  146.3054   72.7403  221.2776 H   0  0  0  0  0  0  0  0  0  0  0  0
  147.0351   74.1354  220.3937 H   0  0  0  0  0  0  0  0  0  0  0  0
  144.8830   74.1460  220.4650 C   0  0  0  0  0  0  0  0  0  0  0  0
  144.7864   74.6364  221.4449 H   0  0  0  0  0  0  0  0  0  0  0  0
  144.8527   74.9011  219.6657 H   0  0  0  0  0  0  0  0  0  0  0  0
  141.6290   72.5030  221.2260 N   0  0  0  0  0  0  0  0  0  0  0  0
  141.8760   71.5020  221.0590 H   0  0  0  0  0  0  0  0  0  0  0  0
  140.4190   72.8030  221.7730 C   0  0  0  0  0  0  0  0  0  0  0  0
  139.6110   71.8370  222.1040 N   0  0  0  0  0  0  0  0  0  0  0  0
  139.1420   71.5260  223.4560 C   0  0  0  0  0  0  0  0  0  0  0  0
  139.7298   70.6887  223.8603 H   0  0  0  0  0  0  0  0  0  0  0  0
  139.2665   72.4155  224.0911 H   0  0  0  0  0  0  0  0  0  0  0  0
  137.6580   71.1360  223.4290 C   0  0  0  0  0  0  0  0  0  0  0  0
  137.5544   70.1906  222.8762 H   0  0  0  0  0  0  0  0  0  0  0  0
  137.3246   71.0412  224.4730 H   0  0  0  0  0  0  0  0  0  0  0  0
  136.7620   72.2030  222.7530 C   0  0  1  0  0  0  0  0  0  0  0  0
  136.3330   71.7620  221.8412 H   0  0  0  0  0  0  0  0  0  0  0  0
  135.6060   72.6040  223.6890 C   0  0  0  0  0  0  0  0  0  0  0  0
  135.0653   71.6984  224.0012 H   0  0  0  0  0  0  0  0  0  0  0  0
  136.0267   73.1223  224.5633 H   0  0  0  0  0  0  0  0  0  0  0  0
  134.6260   73.5560  222.9790 C   0  0  0  0  0  0  0  0  0  0  0  0
  133.8119   72.9601  222.5407 H   0  0  0  0  0  0  0  0  0  0  0  0
  134.2512   74.2672  223.7298 H   0  0  0  0  0  0  0  0  0  0  0  0
  135.2960   74.3720  221.8600 C   0  0  0  0  0  0  0  0  0  0  0  0
  135.2304   73.8104  220.9165 H   0  0  0  0  0  0  0  0  0  0  0  0
  134.7762   75.3373  221.7705 H   0  0  0  0  0  0  0  0  0  0  0  0
  136.7700   74.6390  222.1830 C   0  0  0  0  0  0  0  0  0  0  0  0
  137.2085   75.2294  221.3650 H   0  0  0  0  0  0  0  0  0  0  0  0
  136.8085   75.1800  223.1400 H   0  0  0  0  0  0  0  0  0  0  0  0
  137.5540   73.3920  222.3410 N   0  0  0  0  0  0  0  0  0  0  0  0
  138.3150   73.5780  223.0360 H   0  0  0  0  0  0  0  0  0  0  0  0
  138.0120   73.1730  221.4280 H   0  0  0  0  0  0  0  0  0  0  0  0
  140.0740   74.1050  221.9670 N   0  0  0  0  0  0  0  0  0  0  0  0
  139.2970   76.7870  222.5440 C   0  0  0  0  0  0  0  0  0  0  0  0
  139.3899   76.4819  223.5968 H   0  0  0  0  0  0  0  0  0  0  0  0
  138.5001   76.2341  222.0251 H   0  0  0  0  0  0  0  0  0  0  0  0
  138.9280   78.2770  222.4970 C   0  0  0  0  0  0  0  0  0  0  0  0
  138.1434   78.4785  223.2412 H   0  0  0  0  0  0  0  0  0  0  0  0
  138.5670   78.5206  221.4869 H   0  0  0  0  0  0  0  0  0  0  0  0
  1  2  1  0
  2  3  2  0
  3  4  1  0
  3  5  1  0
  5  6  1  0
  5  7  2  0
  7  8  1  0
  8  9  2  0
  9 10  1  0
  8 11  1  0
 11 12  1  0
 11 13  1  0
 11 14  1  0
 14 15  1  0
 15 16  1  0
 16 17  2  0
 17 18  1  0
 18 19  1  0
 19 20  1  0
 19 21  1  0
 19 22  1  0
 22 23  1  0
 22 24  1  0
 22 25  1  0
 25 26  1  0
 26 27  1  0
 26 28  1  0
 26 29  1  0
 29 30  1  0
 29 31  1  0
 17 32  1  0
 32 33  1  0
 32 34  1  0
 34 35  2  0
 35 36  1  0
 36 37  1  0
 36 38  1  0
 36 39  1  0
 39 40  1  0
 39 41  1  0
 39 42  1  0
 42 43  1  6
 42 44  1  0
 44 45  1  0
 44 46  1  0
 44 47  1  0
 47 48  1  0
 47 49  1  0
 47 50  1  0
 50 51  1  0
 50 52  1  0
 50 53  1  0
 53 54  1  0
 53 55  1  0
 53 56  1  0
 56 57  1  0
 56 58  1  0
 34 59  1  0
 14 60  1  0
 60 61  1  0
 60 62  1  0
 60 63  1  0
 63 64  1  0
 63 65  1  0
  9  2  1  0
 59 15  2  0
 63  7  1  0
 29 18  1  0
 56 42  1  0
M  CHG  1  56   1
M  END
>  <UniqueID>  (70) 
490

>  <SMILES>  (70) 
c1ccc2c(c1)CCN(c1nc(N3CCOCC3)[nH]/c(=N/CC[C@H]3CCCC[NH2+]3)n1)C2

>  <Energy>  (70) 
77.77218736182232

>  <Genealogy>  (70) 
c1ccc2c(c1)CCN(c1nc(NCCC3CCCC[NH2+]3)nc(N3CCOCC3)n1)C2 (protonated)
c1ccc2c(c1)CCN(c1nc(N3CCOCC3)[nH]c(=NCCC3CCCC[NH2+]3)n1)C2 (tautomer)
c1ccc2c(c1)CCN(c1nc(N3CCOCC3)[nH]c(=NCC[C@H]3CCCC[NH2+]3)n1)C2 (chirality)
c1ccc2c(c1)CCN(c1nc(N3CCOCC3)[nH]/c(=N/CC[C@H]3CCCC[NH2+]3)n1)C2 (cis-trans isomerization)
c1ccc2c(c1)CCN(c1nc(N3CCOCC3)[nH]/c(=N/CC[C@H]3CCCC[NH2+]3)n1)C2 (3D coordinates assigned)
c1ccc2c(c1)CCN(c1nc(N3CCOCC3)[nH]/c(=N/CC[C@H]3CCCC[NH2+]3)n1)C2 (nonaromatic ring conformer: 77.77218736182232 kcal/mol)

>  <smiles>  (70) 
c1ccc2c(c1)CCN(c1nc(NCCC3CCCCN3)nc(N3CCOCC3)n1)C2

>  <score_type>  (70) 
oracle

>  <origin>  (70) 
autodockgpu

>  <m_score__min__energy>  (70) 
-10.529999999999999

>  <m_primary>  (70) 
energy

>  <meeko>  (70) 
{"free_energy": -8.04, "intermolecular_energy": -9.83, "internal_energy": -2.64, "cluster_size": 6, "cluster_id": 3, "rank_in_cluster": 2}

>  <energy>  (70) 
-8.91

>  <cluster_rmsd>  (70) 
0.95

>  <rmsd>  (70) 
271.67

>  <cluster>  (70) 
1

$$$$
MXRVYNFLTYDQGX-PQYUSCEXNA-O
     RDKit          3D

 65 69  0  0  0  0  0  0  0  0999 V2000
  141.3959   68.4933  227.9850 H   0  0  0  0  0  0  0  0  0  0  0  0
  140.8430   68.6720  227.0510 C   0  0  0  0  0  0  0  0  0  0  0  0
  140.1300   67.6290  226.4510 C   0  0  0  0  0  0  0  0  0  0  0  0
  140.1231   66.6309  226.9133 H   0  0  0  0  0  0  0  0  0  0  0  0
  139.4260   67.8540  225.2640 C   0  0  0  0  0  0  0  0  0  0  0  0
  138.8535   67.0365  224.8014 H   0  0  0  0  0  0  0  0  0  0  0  0
  139.4490   69.1220  224.6620 C   0  0  0  0  0  0  0  0  0  0  0  0
  140.1640   70.1680  225.2640 C   0  0  0  0  0  0  0  0  0  0  0  0
  140.8540   69.9420  226.4650 C   0  0  0  0  0  0  0  0  0  0  0  0
  141.4040   70.7644  226.9459 H   0  0  0  0  0  0  0  0  0  0  0  0
  140.1260   71.5360  224.6350 C   0  0  0  0  0  0  0  0  0  0  0  0
  141.0154   72.1013  224.9503 H   0  0  0  0  0  0  0  0  0  0  0  0
  139.2079   72.0459  224.9624 H   0  0  0  0  0  0  0  0  0  0  0  0
  140.1110   71.4430  223.1620 N   0  0  0  0  0  0  0  0  0  0  0  0
  140.7020   72.5000  222.3760 C   0  0  0  0  0  0  0  0  0  0  0  0
  141.8280   72.2700  221.6540 N   0  0  0  0  0  0  0  0  0  0  0  0
  142.3790   73.2460  220.8870 C   0  0  0  0  0  0  0  0  0  0  0  0
  143.5740   72.9640  220.1280 N   0  0  0  0  0  0  0  0  0  0  0  0
  143.6010   71.8810  219.1380 C   0  0  0  0  0  0  0  0  0  0  0  0
  142.9473   71.0633  219.4757 H   0  0  0  0  0  0  0  0  0  0  0  0
  143.2474   72.2688  218.1713 H   0  0  0  0  0  0  0  0  0  0  0  0
  145.0300   71.3520  218.9730 C   0  0  0  0  0  0  0  0  0  0  0  0
  145.3280   70.8276  219.8929 H   0  0  0  0  0  0  0  0  0  0  0  0
  145.0527   70.6656  218.1137 H   0  0  0  0  0  0  0  0  0  0  0  0
  145.9370   72.4100  218.7290 O   0  0  0  0  0  0  0  0  0  0  0  0
  145.9990   73.2530  219.8640 C   0  0  0  0  0  0  0  0  0  0  0  0
  146.2460   72.6486  220.7493 H   0  0  0  0  0  0  0  0  0  0  0  0
  146.7722   74.0168  219.6946 H   0  0  0  0  0  0  0  0  0  0  0  0
  144.6580   73.9540  220.0930 C   0  0  0  0  0  0  0  0  0  0  0  0
  144.6884   74.4950  221.0503 H   0  0  0  0  0  0  0  0  0  0  0  0
  144.4750   74.6614  219.2707 H   0  0  0  0  0  0  0  0  0  0  0  0
  141.7930   74.4750  220.8480 N   0  0  0  0  0  0  0  0  0  0  0  0
  142.2130   75.2490  220.2860 H   0  0  0  0  0  0  0  0  0  0  0  0
  140.6690   74.7230  221.5750 C   0  0  0  0  0  0  0  0  0  0  0  0
  140.1270   75.9050  221.5300 N   0  0  0  0  0  0  0  0  0  0  0  0
  139.7800   76.6530  220.3190 C   0  0  0  0  0  0  0  0  0  0  0  0
  140.5905   76.5477  219.5828 H   0  0  0  0  0  0  0  0  0  0  0  0
  138.8422   76.2518  219.9072 H   0  0  0  0  0  0  0  0  0  0  0  0
  139.5850   78.1390  220.6480 C   0  0  0  0  0  0  0  0  0  0  0  0
  139.4331   78.6885  219.7073 H   0  0  0  0  0  0  0  0  0  0  0  0
  138.7140   78.2149  221.3156 H   0  0  0  0  0  0  0  0  0  0  0  0
  140.7910   78.7610  221.3920 C   0  0  1  0  0  0  0  0  0  0  0  0
  141.6436   78.7907  220.6975 H   0  0  0  0  0  0  0  0  0  0  0  0
  140.4690   80.2030  221.8260 C   0  0  0  0  0  0  0  0  0  0  0  0
  140.1412   80.7783  220.9476 H   0  0  0  0  0  0  0  0  0  0  0  0
  139.6732   80.1710  222.5848 H   0  0  0  0  0  0  0  0  0  0  0  0
  141.7060   80.8840  222.4410 C   0  0  0  0  0  0  0  0  0  0  0  0
  142.2297   81.4420  221.6508 H   0  0  0  0  0  0  0  0  0  0  0  0
  141.3543   81.5486  223.2439 H   0  0  0  0  0  0  0  0  0  0  0  0
  142.6880   79.8790  223.0670 C   0  0  0  0  0  0  0  0  0  0  0  0
  143.4081   79.5547  222.3013 H   0  0  0  0  0  0  0  0  0  0  0  0
  143.2094   80.3707  223.9015 H   0  0  0  0  0  0  0  0  0  0  0  0
  141.9450   78.6520  223.6090 C   0  0  0  0  0  0  0  0  0  0  0  0
  142.6791   77.9639  224.0536 H   0  0  0  0  0  0  0  0  0  0  0  0
  141.2170   79.0061  224.3537 H   0  0  0  0  0  0  0  0  0  0  0  0
  141.1940   77.9290  222.5570 N   0  0  0  0  0  0  0  0  0  0  0  0
  140.3510   77.5000  223.0040 H   0  0  0  0  0  0  0  0  0  0  0  0
  141.7920   77.1490  222.2050 H   0  0  0  0  0  0  0  0  0  0  0  0
  140.1290   73.7310  222.3360 N   0  0  0  0  0  0  0  0  0  0  0  0
  139.4630   70.3130  222.4680 C   0  0  0  0  0  0  0  0  0  0  0  0
  140.2412   69.7103  221.9769 H   0  0  0  0  0  0  0  0  0  0  0  0
  138.7527   70.7359  221.7423 H   0  0  0  0  0  0  0  0  0  0  0  0
  138.6660   69.4050  223.4160 C   0  0  0  0  0  0  0  0  0  0  0  0
  138.4443   68.4561  222.9056 H   0  0  0  0  0  0  0  0  0  0  0  0
  137.7325   69.9164  223.6937 H   0  0  0  0  0  0  0  0  0  0  0  0
  1  2  1  0
  2  3  2  0
  3  4  1  0
  3  5  1  0
  5  6  1  0
  5  7  2  0
  7  8  1  0
  8  9  2  0
  9 10  1  0
  8 11  1  0
 11 12  1  0
 11 13  1  0
 11 14  1  0
 14 15  1  0
 15 16  1  0
 16 17  2  0
 17 18  1  0
 18 19  1  0
 19 20  1  0
 19 21  1  0
 19 22  1  0
 22 23  1  0
 22 24  1  0
 22 25  1  0
 25 26  1  0
 26 27  1  0
 26 28  1  0
 26 29  1  0
 29 30  1  0
 29 31  1  0
 17 32  1  0
 32 33  1  0
 32 34  1  0
 34 35  2  0
 35 36  1  0
 36 37  1  0
 36 38  1  0
 36 39  1  0
 39 40  1  0
 39 41  1  0
 39 42  1  0
 42 43  1  6
 42 44  1  0
 44 45  1  0
 44 46  1  0
 44 47  1  0
 47 48  1  0
 47 49  1  0
 47 50  1  0
 50 51  1  0
 50 52  1  0
 50 53  1  0
 53 54  1  0
 53 55  1  0
 53 56  1  0
 56 57  1  0
 56 58  1  0
 34 59  1  0
 14 60  1  0
 60 61  1  0
 60 62  1  0
 60 63  1  0
 63 64  1  0
 63 65  1  0
  9  2  1  0
 59 15  2  0
 63  7  1  0
 29 18  1  0
 56 42  1  0
M  CHG  1  56   1
M  END
>  <UniqueID>  (71) 
490

>  <SMILES>  (71) 
c1ccc2c(c1)CCN(c1nc(N3CCOCC3)[nH]/c(=N/CC[C@H]3CCCC[NH2+]3)n1)C2

>  <Energy>  (71) 
77.77218736182232

>  <Genealogy>  (71) 
c1ccc2c(c1)CCN(c1nc(NCCC3CCCC[NH2+]3)nc(N3CCOCC3)n1)C2 (protonated)
c1ccc2c(c1)CCN(c1nc(N3CCOCC3)[nH]c(=NCCC3CCCC[NH2+]3)n1)C2 (tautomer)
c1ccc2c(c1)CCN(c1nc(N3CCOCC3)[nH]c(=NCC[C@H]3CCCC[NH2+]3)n1)C2 (chirality)
c1ccc2c(c1)CCN(c1nc(N3CCOCC3)[nH]/c(=N/CC[C@H]3CCCC[NH2+]3)n1)C2 (cis-trans isomerization)
c1ccc2c(c1)CCN(c1nc(N3CCOCC3)[nH]/c(=N/CC[C@H]3CCCC[NH2+]3)n1)C2 (3D coordinates assigned)
c1ccc2c(c1)CCN(c1nc(N3CCOCC3)[nH]/c(=N/CC[C@H]3CCCC[NH2+]3)n1)C2 (nonaromatic ring conformer: 77.77218736182232 kcal/mol)

>  <smiles>  (71) 
c1ccc2c(c1)CCN(c1nc(NCCC3CCCCN3)nc(N3CCOCC3)n1)C2

>  <score_type>  (71) 
oracle

>  <origin>  (71) 
autodockgpu

>  <m_score__min__energy>  (71) 
-10.529999999999999

>  <m_primary>  (71) 
energy

>  <meeko>  (71) 
{"free_energy": -9.23, "intermolecular_energy": -11.02, "internal_energy": -1.58, "cluster_size": 11, "cluster_id": 1, "rank_in_cluster": 6}

>  <energy>  (71) 
-8.62

>  <cluster_rmsd>  (71) 
1.16

>  <rmsd>  (71) 
271.61

>  <cluster>  (71) 
1

$$$$
MXRVYNFLTYDQGX-PQYUSCEXNA-O
     RDKit          3D

 65 69  0  0  0  0  0  0  0  0999 V2000
  143.4124   81.4200  223.3377 H   0  0  0  0  0  0  0  0  0  0  0  0
  142.5130   80.8020  223.1990 C   0  0  0  0  0  0  0  0  0  0  0  0
  141.3160   81.1610  223.8270 C   0  0  0  0  0  0  0  0  0  0  0  0
  141.2745   82.0611  224.4579 H   0  0  0  0  0  0  0  0  0  0  0  0
  140.1720   80.3760  223.6530 C   0  0  0  0  0  0  0  0  0  0  0  0
  139.2274   80.6675  224.1354 H   0  0  0  0  0  0  0  0  0  0  0  0
  140.2270   79.2170  222.8640 C   0  0  0  0  0  0  0  0  0  0  0  0
  141.4270   78.8580  222.2320 C   0  0  0  0  0  0  0  0  0  0  0  0
  142.5690   79.6590  222.3950 C   0  0  0  0  0  0  0  0  0  0  0  0
  143.5078   79.3873  221.8902 H   0  0  0  0  0  0  0  0  0  0  0  0
  141.4500   77.6450  221.3400 C   0  0  0  0  0  0  0  0  0  0  0  0
  142.4816   77.2693  221.2710 H   0  0  0  0  0  0  0  0  0  0  0  0
  141.0767   77.9348  220.3467 H   0  0  0  0  0  0  0  0  0  0  0  0
  140.5830   76.5770  221.8730 N   0  0  0  0  0  0  0  0  0  0  0  0
  140.9100   75.1960  221.6100 C   0  0  0  0  0  0  0  0  0  0  0  0
  142.1170   74.8650  221.0820 N   0  0  0  0  0  0  0  0  0  0  0  0
  142.4500   73.5690  220.8550 C   0  0  0  0  0  0  0  0  0  0  0  0
  143.7440   73.2550  220.2980 N   0  0  0  0  0  0  0  0  0  0  0  0
  143.8930   72.2050  219.2830 C   0  0  0  0  0  0  0  0  0  0  0  0
  143.1572   71.4095  219.4720 H   0  0  0  0  0  0  0  0  0  0  0  0
  143.7258   72.6411  218.2871 H   0  0  0  0  0  0  0  0  0  0  0  0
  145.3050   71.6130  219.3400 C   0  0  0  0  0  0  0  0  0  0  0  0
  145.4192   71.0446  220.2748 H   0  0  0  0  0  0  0  0  0  0  0  0
  145.4445   70.9553  218.4694 H   0  0  0  0  0  0  0  0  0  0  0  0
  146.2850   72.6330  219.2960 O   0  0  0  0  0  0  0  0  0  0  0  0
  146.1890   73.4330  220.4600 C   0  0  0  0  0  0  0  0  0  0  0  0
  146.2554   72.7875  221.3482 H   0  0  0  0  0  0  0  0  0  0  0  0
  147.0119   74.1630  220.4561 H   0  0  0  0  0  0  0  0  0  0  0  0
  144.8590   74.1910  220.4880 C   0  0  0  0  0  0  0  0  0  0  0  0
  144.7485   74.6972  221.4583 H   0  0  0  0  0  0  0  0  0  0  0  0
  144.8494   74.9338  219.6767 H   0  0  0  0  0  0  0  0  0  0  0  0
  141.5560   72.5870  221.1590 N   0  0  0  0  0  0  0  0  0  0  0  0
  141.7800   71.5840  220.9700 H   0  0  0  0  0  0  0  0  0  0  0  0
  140.3390   72.9050  221.6810 C   0  0  0  0  0  0  0  0  0  0  0  0
  139.4950   71.9530  221.9590 N   0  0  0  0  0  0  0  0  0  0  0  0
  139.0790   71.5300  223.2980 C   0  0  0  0  0  0  0  0  0  0  0  0
  139.6466   70.6335  223.5881 H   0  0  0  0  0  0  0  0  0  0  0  0
  139.2754   72.3465  224.0084 H   0  0  0  0  0  0  0  0  0  0  0  0
  137.5790   71.2060  223.3120 C   0  0  0  0  0  0  0  0  0  0  0  0
  137.4114   70.2986  222.7132 H   0  0  0  0  0  0  0  0  0  0  0  0
  137.2836   71.0672  224.3625 H   0  0  0  0  0  0  0  0  0  0  0  0
  136.7050   72.3460  222.7340 C   0  0  1  0  0  0  0  0  0  0  0  0
  136.2129   71.9729  221.8237 H   0  0  0  0  0  0  0  0  0  0  0  0
  135.6140   72.7510  223.7430 C   0  0  0  0  0  0  0  0  0  0  0  0
  135.0446   71.8564  224.0355 H   0  0  0  0  0  0  0  0  0  0  0  0
  136.0989   73.2033  224.6207 H   0  0  0  0  0  0  0  0  0  0  0  0
  134.6500   73.7830  223.1290 C   0  0  0  0  0  0  0  0  0  0  0  0
  133.7886   73.2490  222.7014 H   0  0  0  0  0  0  0  0  0  0  0  0
  134.3450   74.4709  223.9313 H   0  0  0  0  0  0  0  0  0  0  0  0
  135.3070   74.6240  222.0210 C   0  0  0  0  0  0  0  0  0  0  0  0
  135.1715   74.1155  221.0551 H   0  0  0  0  0  0  0  0  0  0  0  0
  134.8309   75.6155  222.0043 H   0  0  0  0  0  0  0  0  0  0  0  0
  136.8060   74.8060  222.2860 C   0  0  0  0  0  0  0  0  0  0  0  0
  137.2349   75.4173  221.4783 H   0  0  0  0  0  0  0  0  0  0  0  0
  136.9143   75.2944  223.2656 H   0  0  0  0  0  0  0  0  0  0  0  0
  137.5350   73.5170  222.3440 N   0  0  0  0  0  0  0  0  0  0  0  0
  138.3340   73.6320  223.0100 H   0  0  0  0  0  0  0  0  0  0  0  0
  137.9390   73.3260  221.4000 H   0  0  0  0  0  0  0  0  0  0  0  0
  140.0230   74.2100  221.9030 N   0  0  0  0  0  0  0  0  0  0  0  0
  139.3570   76.8880  222.6350 C   0  0  0  0  0  0  0  0  0  0  0  0
  139.5029   76.5718  223.6784 H   0  0  0  0  0  0  0  0  0  0  0  0
  138.5258   76.3499  222.1558 H   0  0  0  0  0  0  0  0  0  0  0  0
  139.0060   78.3830  222.6210 C   0  0  0  0  0  0  0  0  0  0  0  0
  138.2665   78.5875  223.4093 H   0  0  0  0  0  0  0  0  0  0  0  0
  138.5935   78.6398  221.6341 H   0  0  0  0  0  0  0  0  0  0  0  0
  1  2  1  0
  2  3  2  0
  3  4  1  0
  3  5  1  0
  5  6  1  0
  5  7  2  0
  7  8  1  0
  8  9  2  0
  9 10  1  0
  8 11  1  0
 11 12  1  0
 11 13  1  0
 11 14  1  0
 14 15  1  0
 15 16  1  0
 16 17  2  0
 17 18  1  0
 18 19  1  0
 19 20  1  0
 19 21  1  0
 19 22  1  0
 22 23  1  0
 22 24  1  0
 22 25  1  0
 25 26  1  0
 26 27  1  0
 26 28  1  0
 26 29  1  0
 29 30  1  0
 29 31  1  0
 17 32  1  0
 32 33  1  0
 32 34  1  0
 34 35  2  0
 35 36  1  0
 36 37  1  0
 36 38  1  0
 36 39  1  0
 39 40  1  0
 39 41  1  0
 39 42  1  0
 42 43  1  6
 42 44  1  0
 44 45  1  0
 44 46  1  0
 44 47  1  0
 47 48  1  0
 47 49  1  0
 47 50  1  0
 50 51  1  0
 50 52  1  0
 50 53  1  0
 53 54  1  0
 53 55  1  0
 53 56  1  0
 56 57  1  0
 56 58  1  0
 34 59  1  0
 14 60  1  0
 60 61  1  0
 60 62  1  0
 60 63  1  0
 63 64  1  0
 63 65  1  0
  9  2  1  0
 59 15  2  0
 63  7  1  0
 29 18  1  0
 56 42  1  0
M  CHG  1  56   1
M  END
>  <UniqueID>  (72) 
490

>  <SMILES>  (72) 
c1ccc2c(c1)CCN(c1nc(N3CCOCC3)[nH]/c(=N/CC[C@H]3CCCC[NH2+]3)n1)C2

>  <Energy>  (72) 
77.77218736182232

>  <Genealogy>  (72) 
c1ccc2c(c1)CCN(c1nc(NCCC3CCCC[NH2+]3)nc(N3CCOCC3)n1)C2 (protonated)
c1ccc2c(c1)CCN(c1nc(N3CCOCC3)[nH]c(=NCCC3CCCC[NH2+]3)n1)C2 (tautomer)
c1ccc2c(c1)CCN(c1nc(N3CCOCC3)[nH]c(=NCC[C@H]3CCCC[NH2+]3)n1)C2 (chirality)
c1ccc2c(c1)CCN(c1nc(N3CCOCC3)[nH]/c(=N/CC[C@H]3CCCC[NH2+]3)n1)C2 (cis-trans isomerization)
c1ccc2c(c1)CCN(c1nc(N3CCOCC3)[nH]/c(=N/CC[C@H]3CCCC[NH2+]3)n1)C2 (3D coordinates assigned)
c1ccc2c(c1)CCN(c1nc(N3CCOCC3)[nH]/c(=N/CC[C@H]3CCCC[NH2+]3)n1)C2 (nonaromatic ring conformer: 77.77218736182232 kcal/mol)

>  <smiles>  (72) 
c1ccc2c(c1)CCN(c1nc(NCCC3CCCCN3)nc(N3CCOCC3)n1)C2

>  <score_type>  (72) 
oracle

>  <origin>  (72) 
autodockgpu

>  <m_score__min__energy>  (72) 
-10.529999999999999

>  <m_primary>  (72) 
energy

>  <meeko>  (72) 
{"free_energy": -8.05, "intermolecular_energy": -9.84, "internal_energy": -2.66, "cluster_size": 6, "cluster_id": 3, "rank_in_cluster": 1}

>  <energy>  (72) 
-8.74

>  <cluster_rmsd>  (72) 
0.0

>  <rmsd>  (72) 
271.17

>  <cluster>  (72) 
2

$$$$
MXRVYNFLTYDQGX-PQYUSCEXNA-O
     RDKit          3D

 65 69  0  0  0  0  0  0  0  0999 V2000
  141.8730   68.3958  227.4937 H   0  0  0  0  0  0  0  0  0  0  0  0
  141.1290   68.7700  226.7750 C   0  0  0  0  0  0  0  0  0  0  0  0
  140.0220   67.9830  226.4430 C   0  0  0  0  0  0  0  0  0  0  0  0
  139.8954   66.9910  226.9011 H   0  0  0  0  0  0  0  0  0  0  0  0
  139.0750   68.4570  225.5280 C   0  0  0  0  0  0  0  0  0  0  0  0
  138.1966   67.8436  225.2790 H   0  0  0  0  0  0  0  0  0  0  0  0
  139.2450   69.7140  224.9280 C   0  0  0  0  0  0  0  0  0  0  0  0
  140.3550   70.5040  225.2620 C   0  0  0  0  0  0  0  0  0  0  0  0
  141.2920   70.0320  226.1950 C   0  0  0  0  0  0  0  0  0  0  0  0
  142.1554   70.6556  226.4701 H   0  0  0  0  0  0  0  0  0  0  0  0
  140.4860   71.8750  224.6530 C   0  0  0  0  0  0  0  0  0  0  0  0
  141.5441   72.1754  224.6689 H   0  0  0  0  0  0  0  0  0  0  0  0
  139.8755   72.5773  225.2395 H   0  0  0  0  0  0  0  0  0  0  0  0
  140.0030   71.8860  223.2590 N   0  0  0  0  0  0  0  0  0  0  0  0
  140.5820   72.8090  222.3120 C   0  0  0  0  0  0  0  0  0  0  0  0
  141.8090   72.5690  221.7830 N   0  0  0  0  0  0  0  0  0  0  0  0
  142.3550   73.4120  220.8690 C   0  0  0  0  0  0  0  0  0  0  0  0
  143.6590   73.1220  220.3250 N   0  0  0  0  0  0  0  0  0  0  0  0
  143.8490   72.0340  219.3590 C   0  0  0  0  0  0  0  0  0  0  0  0
  143.1446   71.2199  219.5852 H   0  0  0  0  0  0  0  0  0  0  0  0
  143.6653   72.4180  218.3447 H   0  0  0  0  0  0  0  0  0  0  0  0
  145.2830   71.5000  219.4400 C   0  0  0  0  0  0  0  0  0  0  0  0
  145.4191   70.9793  220.3994 H   0  0  0  0  0  0  0  0  0  0  0  0
  145.4474   70.8096  218.5996 H   0  0  0  0  0  0  0  0  0  0  0  0
  146.2230   72.5530  219.3480 O   0  0  0  0  0  0  0  0  0  0  0  0
  146.0960   73.4020  220.4740 C   0  0  0  0  0  0  0  0  0  0  0  0
  146.1876   72.8016  221.3911 H   0  0  0  0  0  0  0  0  0  0  0  0
  146.8898   74.1625  220.4349 H   0  0  0  0  0  0  0  0  0  0  0  0
  144.7370   74.1080  220.4690 C   0  0  0  0  0  0  0  0  0  0  0  0
  144.6069   74.6543  221.4148 H   0  0  0  0  0  0  0  0  0  0  0  0
  144.6985   74.8108  219.6236 H   0  0  0  0  0  0  0  0  0  0  0  0
  141.6580   74.5170  220.4830 N   0  0  0  0  0  0  0  0  0  0  0  0
  142.0690   75.1940  219.8000 H   0  0  0  0  0  0  0  0  0  0  0  0
  140.4310   74.7750  221.0110 C   0  0  0  0  0  0  0  0  0  0  0  0
  139.7840   75.8400  220.6340 N   0  0  0  0  0  0  0  0  0  0  0  0
  138.8020   76.5830  221.4280 C   0  0  0  0  0  0  0  0  0  0  0  0
  138.4265   77.4322  220.8382 H   0  0  0  0  0  0  0  0  0  0  0  0
  137.9725   75.9103  221.6912 H   0  0  0  0  0  0  0  0  0  0  0  0
  139.4460   77.1080  222.7170 C   0  0  0  0  0  0  0  0  0  0  0  0
  138.6511   77.2970  223.4535 H   0  0  0  0  0  0  0  0  0  0  0  0
  140.1559   76.3427  223.0638 H   0  0  0  0  0  0  0  0  0  0  0  0
  140.2450   78.4170  222.5080 C   0  0  1  0  0  0  0  0  0  0  0  0
  139.5921   79.2627  222.7699 H   0  0  0  0  0  0  0  0  0  0  0  0
  141.4760   78.4480  223.4350 C   0  0  0  0  0  0  0  0  0  0  0  0
  141.1494   78.2844  224.4726 H   0  0  0  0  0  0  0  0  0  0  0  0
  142.1717   77.6559  223.1209 H   0  0  0  0  0  0  0  0  0  0  0  0
  142.2010   79.8030  223.3430 C   0  0  0  0  0  0  0  0  0  0  0  0
  141.8215   80.4598  224.1396 H   0  0  0  0  0  0  0  0  0  0  0  0
  143.2786   79.6109  223.4524 H   0  0  0  0  0  0  0  0  0  0  0  0
  141.9890   80.5000  221.9880 C   0  0  0  0  0  0  0  0  0  0  0  0
  141.0908   81.1325  222.0454 H   0  0  0  0  0  0  0  0  0  0  0  0
  142.8764   81.1106  221.7651 H   0  0  0  0  0  0  0  0  0  0  0  0
  141.8080   79.4730  220.8650 C   0  0  0  0  0  0  0  0  0  0  0  0
  141.6668   80.0104  219.9156 H   0  0  0  0  0  0  0  0  0  0  0  0
  142.7080   78.8408  220.8437 H   0  0  0  0  0  0  0  0  0  0  0  0
  140.6420   78.5860  221.0860 N   0  0  0  0  0  0  0  0  0  0  0  0
  140.8630   77.6560  220.6580 H   0  0  0  0  0  0  0  0  0  0  0  0
  139.8260   78.9820  220.5680 H   0  0  0  0  0  0  0  0  0  0  0  0
  139.8990   73.9170  221.9250 N   0  0  0  0  0  0  0  0  0  0  0  0
  138.9040   71.0040  222.8190 C   0  0  0  0  0  0  0  0  0  0  0  0
  139.3118   70.2574  222.1216 H   0  0  0  0  0  0  0  0  0  0  0  0
  138.1433   71.6397  222.3423 H   0  0  0  0  0  0  0  0  0  0  0  0
  138.2230   70.2670  223.9810 C   0  0  0  0  0  0  0  0  0  0  0  0
  137.6179   69.4407  223.5796 H   0  0  0  0  0  0  0  0  0  0  0  0
  137.5840   70.9780  224.5253 H   0  0  0  0  0  0  0  0  0  0  0  0
  1  2  1  0
  2  3  2  0
  3  4  1  0
  3  5  1  0
  5  6  1  0
  5  7  2  0
  7  8  1  0
  8  9  2  0
  9 10  1  0
  8 11  1  0
 11 12  1  0
 11 13  1  0
 11 14  1  0
 14 15  1  0
 15 16  1  0
 16 17  2  0
 17 18  1  0
 18 19  1  0
 19 20  1  0
 19 21  1  0
 19 22  1  0
 22 23  1  0
 22 24  1  0
 22 25  1  0
 25 26  1  0
 26 27  1  0
 26 28  1  0
 26 29  1  0
 29 30  1  0
 29 31  1  0
 17 32  1  0
 32 33  1  0
 32 34  1  0
 34 35  2  0
 35 36  1  0
 36 37  1  0
 36 38  1  0
 36 39  1  0
 39 40  1  0
 39 41  1  0
 39 42  1  0
 42 43  1  1
 42 44  1  0
 44 45  1  0
 44 46  1  0
 44 47  1  0
 47 48  1  0
 47 49  1  0
 47 50  1  0
 50 51  1  0
 50 52  1  0
 50 53  1  0
 53 54  1  0
 53 55  1  0
 53 56  1  0
 56 57  1  0
 56 58  1  0
 34 59  1  0
 14 60  1  0
 60 61  1  0
 60 62  1  0
 60 63  1  0
 63 64  1  0
 63 65  1  0
  9  2  1  0
 59 15  2  0
 63  7  1  0
 29 18  1  0
 56 42  1  0
M  CHG  1  56   1
M  END
>  <UniqueID>  (73) 
490

>  <SMILES>  (73) 
c1ccc2c(c1)CCN(c1nc(N3CCOCC3)[nH]/c(=N/CC[C@H]3CCCC[NH2+]3)n1)C2

>  <Energy>  (73) 
77.77218736182232

>  <Genealogy>  (73) 
c1ccc2c(c1)CCN(c1nc(NCCC3CCCC[NH2+]3)nc(N3CCOCC3)n1)C2 (protonated)
c1ccc2c(c1)CCN(c1nc(N3CCOCC3)[nH]c(=NCCC3CCCC[NH2+]3)n1)C2 (tautomer)
c1ccc2c(c1)CCN(c1nc(N3CCOCC3)[nH]c(=NCC[C@H]3CCCC[NH2+]3)n1)C2 (chirality)
c1ccc2c(c1)CCN(c1nc(N3CCOCC3)[nH]/c(=N/CC[C@H]3CCCC[NH2+]3)n1)C2 (cis-trans isomerization)
c1ccc2c(c1)CCN(c1nc(N3CCOCC3)[nH]/c(=N/CC[C@H]3CCCC[NH2+]3)n1)C2 (3D coordinates assigned)
c1ccc2c(c1)CCN(c1nc(N3CCOCC3)[nH]/c(=N/CC[C@H]3CCCC[NH2+]3)n1)C2 (nonaromatic ring conformer: 77.77218736182232 kcal/mol)

>  <smiles>  (73) 
c1ccc2c(c1)CCN(c1nc(NCCC3CCCCN3)nc(N3CCOCC3)n1)C2

>  <score_type>  (73) 
oracle

>  <origin>  (73) 
autodockgpu

>  <m_score__min__energy>  (73) 
-10.529999999999999

>  <m_primary>  (73) 
energy

>  <meeko>  (73) 
{"free_energy": -8.62, "intermolecular_energy": -10.41, "internal_energy": -1.37, "cluster_size": 11, "cluster_id": 1, "rank_in_cluster": 11}

>  <energy>  (73) 
-8.25

>  <cluster_rmsd>  (73) 
0.67

>  <rmsd>  (73) 
270.91

>  <cluster>  (73) 
2

$$$$
MXRVYNFLTYDQGX-PQYUSCEXNA-O
     RDKit          3D

 65 69  0  0  0  0  0  0  0  0999 V2000
  141.5719   68.1570  227.6663 H   0  0  0  0  0  0  0  0  0  0  0  0
  140.9320   68.4560  226.8230 C   0  0  0  0  0  0  0  0  0  0  0  0
  140.0410   67.5350  226.2610 C   0  0  0  0  0  0  0  0  0  0  0  0
  139.9800   66.5130  226.6631 H   0  0  0  0  0  0  0  0  0  0  0  0
  139.2280   67.9140  225.1880 C   0  0  0  0  0  0  0  0  0  0  0  0
  138.5174   67.1937  224.7565 H   0  0  0  0  0  0  0  0  0  0  0  0
  139.3170   69.2110  224.6610 C   0  0  0  0  0  0  0  0  0  0  0  0
  140.2090   70.1350  225.2250 C   0  0  0  0  0  0  0  0  0  0  0  0
  141.0100   69.7560  226.3140 C   0  0  0  0  0  0  0  0  0  0  0  0
  141.7000   70.4828  226.7675 H   0  0  0  0  0  0  0  0  0  0  0  0
  140.2460   71.5400  224.6850 C   0  0  0  0  0  0  0  0  0  0  0  0
  141.2238   71.9878  224.9160 H   0  0  0  0  0  0  0  0  0  0  0  0
  139.4355   72.1161  225.1554 H   0  0  0  0  0  0  0  0  0  0  0  0
  140.0430   71.5540  223.2240 N   0  0  0  0  0  0  0  0  0  0  0  0
  140.6460   72.5980  222.4310 C   0  0  0  0  0  0  0  0  0  0  0  0
  141.8040   72.3670  221.7590 N   0  0  0  0  0  0  0  0  0  0  0  0
  142.3680   73.3300  220.9860 C   0  0  0  0  0  0  0  0  0  0  0  0
  143.5960   73.0470  220.2820 N   0  0  0  0  0  0  0  0  0  0  0  0
  143.6530   72.0020  219.2540 C   0  0  0  0  0  0  0  0  0  0  0  0
  142.9635   71.1886  219.5241 H   0  0  0  0  0  0  0  0  0  0  0  0
  143.3621   72.4349  218.2855 H   0  0  0  0  0  0  0  0  0  0  0  0
  145.0760   71.4440  219.1450 C   0  0  0  0  0  0  0  0  0  0  0  0
  145.3113   70.8775  220.0581 H   0  0  0  0  0  0  0  0  0  0  0  0
  145.1298   70.7905  218.2618 H   0  0  0  0  0  0  0  0  0  0  0  0
  146.0190   72.4880  218.9920 O   0  0  0  0  0  0  0  0  0  0  0  0
  146.0380   73.2850  220.1620 C   0  0  0  0  0  0  0  0  0  0  0  0
  146.2218   72.6410  221.0346 H   0  0  0  0  0  0  0  0  0  0  0  0
  146.8370   74.0350  220.0660 H   0  0  0  0  0  0  0  0  0  0  0  0
  144.7020   74.0100  220.3450 C   0  0  0  0  0  0  0  0  0  0  0  0
  144.6916   74.5134  221.3230 H   0  0  0  0  0  0  0  0  0  0  0  0
  144.5809   74.7523  219.5423 H   0  0  0  0  0  0  0  0  0  0  0  0
  141.7630   74.5470  220.8880 N   0  0  0  0  0  0  0  0  0  0  0  0
  142.1930   75.3110  220.3200 H   0  0  0  0  0  0  0  0  0  0  0  0
  140.6080   74.7950  221.5640 C   0  0  0  0  0  0  0  0  0  0  0  0
  140.0480   75.9660  221.4630 N   0  0  0  0  0  0  0  0  0  0  0  0
  139.9290   76.7660  220.2420 C   0  0  0  0  0  0  0  0  0  0  0  0
  140.8368   76.6373  219.6342 H   0  0  0  0  0  0  0  0  0  0  0  0
  139.0466   76.4287  219.6785 H   0  0  0  0  0  0  0  0  0  0  0  0
  139.7600   78.2510  220.5910 C   0  0  0  0  0  0  0  0  0  0  0  0
  139.7280   78.8291  219.6557 H   0  0  0  0  0  0  0  0  0  0  0  0
  138.8282   78.3487  221.1674 H   0  0  0  0  0  0  0  0  0  0  0  0
  140.9080   78.8020  221.4720 C   0  0  1  0  0  0  0  0  0  0  0  0
  141.8252   78.8250  220.8652 H   0  0  0  0  0  0  0  0  0  0  0  0
  140.5900   80.2390  221.9290 C   0  0  0  0  0  0  0  0  0  0  0  0
  140.3683   80.8566  221.0462 H   0  0  0  0  0  0  0  0  0  0  0  0
  139.7228   80.2082  222.6050 H   0  0  0  0  0  0  0  0  0  0  0  0
  141.7820   80.8530  222.6870 C   0  0  0  0  0  0  0  0  0  0  0  0
  142.3976   81.4207  221.9738 H   0  0  0  0  0  0  0  0  0  0  0  0
  141.3747   81.4996  223.4782 H   0  0  0  0  0  0  0  0  0  0  0  0
  142.6660   79.7920  223.3640 C   0  0  0  0  0  0  0  0  0  0  0  0
  143.4461   79.4700  222.6585 H   0  0  0  0  0  0  0  0  0  0  0  0
  143.1194   80.2347  224.2632 H   0  0  0  0  0  0  0  0  0  0  0  0
  141.8360   78.5740  223.7840 C   0  0  0  0  0  0  0  0  0  0  0  0
  142.5013   77.8449  224.2696 H   0  0  0  0  0  0  0  0  0  0  0  0
  141.0508   78.9264  224.4690 H   0  0  0  0  0  0  0  0  0  0  0  0
  141.1680   77.9160  222.6370 N   0  0  0  0  0  0  0  0  0  0  0  0
  140.2730   77.5000  222.9840 H   0  0  0  0  0  0  0  0  0  0  0  0
  141.7740   77.1280  222.3130 H   0  0  0  0  0  0  0  0  0  0  0  0
  140.0550   73.8170  222.3320 N   0  0  0  0  0  0  0  0  0  0  0  0
  139.1960   70.5470  222.5550 C   0  0  0  0  0  0  0  0  0  0  0  0
  139.8387   69.9047  221.9350 H   0  0  0  0  0  0  0  0  0  0  0  0
  138.4536   71.0902  221.9519 H   0  0  0  0  0  0  0  0  0  0  0  0
  138.4240   69.6590  223.5430 C   0  0  0  0  0  0  0  0  0  0  0  0
  138.0402   68.7759  223.0112 H   0  0  0  0  0  0  0  0  0  0  0  0
  137.5918   70.2407  223.9661 H   0  0  0  0  0  0  0  0  0  0  0  0
  1  2  1  0
  2  3  2  0
  3  4  1  0
  3  5  1  0
  5  6  1  0
  5  7  2  0
  7  8  1  0
  8  9  2  0
  9 10  1  0
  8 11  1  0
 11 12  1  0
 11 13  1  0
 11 14  1  0
 14 15  1  0
 15 16  1  0
 16 17  2  0
 17 18  1  0
 18 19  1  0
 19 20  1  0
 19 21  1  0
 19 22  1  0
 22 23  1  0
 22 24  1  0
 22 25  1  0
 25 26  1  0
 26 27  1  0
 26 28  1  0
 26 29  1  0
 29 30  1  0
 29 31  1  0
 17 32  1  0
 32 33  1  0
 32 34  1  0
 34 35  2  0
 35 36  1  0
 36 37  1  0
 36 38  1  0
 36 39  1  0
 39 40  1  0
 39 41  1  0
 39 42  1  0
 42 43  1  6
 42 44  1  0
 44 45  1  0
 44 46  1  0
 44 47  1  0
 47 48  1  0
 47 49  1  0
 47 50  1  0
 50 51  1  0
 50 52  1  0
 50 53  1  0
 53 54  1  0
 53 55  1  0
 53 56  1  0
 56 57  1  0
 56 58  1  0
 34 59  1  0
 14 60  1  0
 60 61  1  0
 60 62  1  0
 60 63  1  0
 63 64  1  0
 63 65  1  0
  9  2  1  0
 59 15  2  0
 63  7  1  0
 29 18  1  0
 56 42  1  0
M  CHG  1  56   1
M  END
>  <UniqueID>  (74) 
490

>  <SMILES>  (74) 
c1ccc2c(c1)CCN(c1nc(N3CCOCC3)[nH]/c(=N/CC[C@H]3CCCC[NH2+]3)n1)C2

>  <Energy>  (74) 
77.77218736182232

>  <Genealogy>  (74) 
c1ccc2c(c1)CCN(c1nc(NCCC3CCCC[NH2+]3)nc(N3CCOCC3)n1)C2 (protonated)
c1ccc2c(c1)CCN(c1nc(N3CCOCC3)[nH]c(=NCCC3CCCC[NH2+]3)n1)C2 (tautomer)
c1ccc2c(c1)CCN(c1nc(N3CCOCC3)[nH]c(=NCC[C@H]3CCCC[NH2+]3)n1)C2 (chirality)
c1ccc2c(c1)CCN(c1nc(N3CCOCC3)[nH]/c(=N/CC[C@H]3CCCC[NH2+]3)n1)C2 (cis-trans isomerization)
c1ccc2c(c1)CCN(c1nc(N3CCOCC3)[nH]/c(=N/CC[C@H]3CCCC[NH2+]3)n1)C2 (3D coordinates assigned)
c1ccc2c(c1)CCN(c1nc(N3CCOCC3)[nH]/c(=N/CC[C@H]3CCCC[NH2+]3)n1)C2 (nonaromatic ring conformer: 77.77218736182232 kcal/mol)

>  <smiles>  (74) 
c1ccc2c(c1)CCN(c1nc(NCCC3CCCCN3)nc(N3CCOCC3)n1)C2

>  <score_type>  (74) 
oracle

>  <origin>  (74) 
autodockgpu

>  <m_score__min__energy>  (74) 
-10.529999999999999

>  <m_primary>  (74) 
energy

>  <meeko>  (74) 
{"free_energy": -9.28, "intermolecular_energy": -11.07, "internal_energy": -1.58, "cluster_size": 11, "cluster_id": 1, "rank_in_cluster": 4}

>  <energy>  (74) 
-7.7

>  <cluster_rmsd>  (74) 
0.92

>  <rmsd>  (74) 
270.74

>  <cluster>  (74) 
2

$$$$
MXRVYNFLTYDQGX-PQYUSCEXNA-O
     RDKit          3D

 65 69  0  0  0  0  0  0  0  0999 V2000
  141.5547   68.3552  227.8882 H   0  0  0  0  0  0  0  0  0  0  0  0
  140.9250   68.6230  227.0270 C   0  0  0  0  0  0  0  0  0  0  0  0
  140.0050   67.6990  226.5200 C   0  0  0  0  0  0  0  0  0  0  0  0
  139.9122   66.7053  226.9826 H   0  0  0  0  0  0  0  0  0  0  0  0
  139.2030   68.0380  225.4250 C   0  0  0  0  0  0  0  0  0  0  0  0
  138.4691   67.3163  225.0371 H   0  0  0  0  0  0  0  0  0  0  0  0
  139.3340   69.2980  224.8210 C   0  0  0  0  0  0  0  0  0  0  0  0
  140.2550   70.2250  225.3300 C   0  0  0  0  0  0  0  0  0  0  0  0
  141.0450   69.8870  226.4400 C   0  0  0  0  0  0  0  0  0  0  0  0
  141.7592   70.6170  226.8487 H   0  0  0  0  0  0  0  0  0  0  0  0
  140.3360   71.5940  224.7060 C   0  0  0  0  0  0  0  0  0  0  0  0
  141.3277   72.0239  224.9103 H   0  0  0  0  0  0  0  0  0  0  0  0
  139.5451   72.2233  225.1401 H   0  0  0  0  0  0  0  0  0  0  0  0
  140.1320   71.5250  223.2460 N   0  0  0  0  0  0  0  0  0  0  0  0
  140.7680   72.5000  222.3920 C   0  0  0  0  0  0  0  0  0  0  0  0
  141.8880   72.1750  221.6970 N   0  0  0  0  0  0  0  0  0  0  0  0
  142.4810   73.0720  220.8670 C   0  0  0  0  0  0  0  0  0  0  0  0
  143.6680   72.6910  220.1400 N   0  0  0  0  0  0  0  0  0  0  0  0
  145.0020   73.0640  220.6230 C   0  0  0  0  0  0  0  0  0  0  0  0
  144.9459   74.0393  221.1286 H   0  0  0  0  0  0  0  0  0  0  0  0
  145.3569   72.2965  221.3265 H   0  0  0  0  0  0  0  0  0  0  0  0
  145.9820   73.1580  219.4490 C   0  0  0  0  0  0  0  0  0  0  0  0
  145.7148   74.0243  218.8260 H   0  0  0  0  0  0  0  0  0  0  0  0
  146.9998   73.2711  219.8506 H   0  0  0  0  0  0  0  0  0  0  0  0
  145.9380   71.9880  218.6570 O   0  0  0  0  0  0  0  0  0  0  0  0
  144.6650   71.8740  218.0480 C   0  0  0  0  0  0  0  0  0  0  0  0
  144.4468   72.7977  217.4919 H   0  0  0  0  0  0  0  0  0  0  0  0
  144.6754   71.0111  217.3658 H   0  0  0  0  0  0  0  0  0  0  0  0
  143.5780   71.6540  219.1030 C   0  0  0  0  0  0  0  0  0  0  0  0
  142.5893   71.7032  218.6233 H   0  0  0  0  0  0  0  0  0  0  0  0
  143.7187   70.6663  219.5664 H   0  0  0  0  0  0  0  0  0  0  0  0
  141.9430   74.3170  220.7360 N   0  0  0  0  0  0  0  0  0  0  0  0
  142.3960   75.0320  220.1240 H   0  0  0  0  0  0  0  0  0  0  0  0
  140.8250   74.6590  221.4350 C   0  0  0  0  0  0  0  0  0  0  0  0
  140.3300   75.8550  221.3010 N   0  0  0  0  0  0  0  0  0  0  0  0
  138.9540   76.2600  221.5970 C   0  0  0  0  0  0  0  0  0  0  0  0
  138.5060   76.7072  220.6974 H   0  0  0  0  0  0  0  0  0  0  0  0
  138.3788   75.3741  221.9042 H   0  0  0  0  0  0  0  0  0  0  0  0
  138.9340   77.2870  222.7360 C   0  0  0  0  0  0  0  0  0  0  0  0
  137.9068   77.6639  222.8492 H   0  0  0  0  0  0  0  0  0  0  0  0
  139.2885   76.7764  223.6435 H   0  0  0  0  0  0  0  0  0  0  0  0
  139.8750   78.4900  222.4870 C   0  0  1  0  0  0  0  0  0  0  0  0
  139.4779   79.0656  221.6379 H   0  0  0  0  0  0  0  0  0  0  0  0
  139.9100   79.4090  223.7230 C   0  0  0  0  0  0  0  0  0  0  0  0
  138.8814   79.6950  223.9879 H   0  0  0  0  0  0  0  0  0  0  0  0
  140.3839   78.8633  224.5523 H   0  0  0  0  0  0  0  0  0  0  0  0
  140.7300   80.6820  223.4410 C   0  0  0  0  0  0  0  0  0  0  0  0
  140.0444   81.4755  223.1089 H   0  0  0  0  0  0  0  0  0  0  0  0
  141.2491   80.9550  224.3716 H   0  0  0  0  0  0  0  0  0  0  0  0
  141.8010   80.4720  222.3570 C   0  0  0  0  0  0  0  0  0  0  0  0
  141.3636   80.6907  221.3717 H   0  0  0  0  0  0  0  0  0  0  0  0
  142.6449   81.1473  222.5617 H   0  0  0  0  0  0  0  0  0  0  0  0
  142.3160   79.0280  222.3680 C   0  0  0  0  0  0  0  0  0  0  0  0
  143.0825   78.9215  221.5863 H   0  0  0  0  0  0  0  0  0  0  0  0
  142.7263   78.8285  223.3689 H   0  0  0  0  0  0  0  0  0  0  0  0
  141.2430   78.0380  222.1180 N   0  0  0  0  0  0  0  0  0  0  0  0
  141.4880   77.1630  222.6370 H   0  0  0  0  0  0  0  0  0  0  0  0
  141.2410   77.8070  221.0990 H   0  0  0  0  0  0  0  0  0  0  0  0
  140.2440   73.7460  222.2600 N   0  0  0  0  0  0  0  0  0  0  0  0
  139.2530   70.5070  222.6390 C   0  0  0  0  0  0  0  0  0  0  0  0
  139.8742   69.8082  222.0595 H   0  0  0  0  0  0  0  0  0  0  0  0
  138.5274   71.0359  222.0035 H   0  0  0  0  0  0  0  0  0  0  0  0
  138.4550   69.7060  223.6780 C   0  0  0  0  0  0  0  0  0  0  0  0
  138.0424   68.8052  223.2003 H   0  0  0  0  0  0  0  0  0  0  0  0
  137.6427   70.3388  224.0648 H   0  0  0  0  0  0  0  0  0  0  0  0
  1  2  1  0
  2  3  2  0
  3  4  1  0
  3  5  1  0
  5  6  1  0
  5  7  2  0
  7  8  1  0
  8  9  2  0
  9 10  1  0
  8 11  1  0
 11 12  1  0
 11 13  1  0
 11 14  1  0
 14 15  1  0
 15 16  1  0
 16 17  2  0
 17 18  1  0
 18 19  1  0
 19 20  1  0
 19 21  1  0
 19 22  1  0
 22 23  1  0
 22 24  1  0
 22 25  1  0
 25 26  1  0
 26 27  1  0
 26 28  1  0
 26 29  1  0
 29 30  1  0
 29 31  1  0
 17 32  1  0
 32 33  1  0
 32 34  1  0
 34 35  2  0
 35 36  1  0
 36 37  1  0
 36 38  1  0
 36 39  1  0
 39 40  1  0
 39 41  1  0
 39 42  1  0
 42 43  1  6
 42 44  1  0
 44 45  1  0
 44 46  1  0
 44 47  1  0
 47 48  1  0
 47 49  1  0
 47 50  1  0
 50 51  1  0
 50 52  1  0
 50 53  1  0
 53 54  1  0
 53 55  1  0
 53 56  1  0
 56 57  1  0
 56 58  1  0
 34 59  1  0
 14 60  1  0
 60 61  1  0
 60 62  1  0
 60 63  1  0
 63 64  1  0
 63 65  1  0
  9  2  1  0
 59 15  2  0
 63  7  1  0
 29 18  1  0
 56 42  1  0
M  CHG  1  56   1
M  END
>  <UniqueID>  (75) 
490

>  <SMILES>  (75) 
c1ccc2c(c1)CCN(c1nc(N3CCOCC3)[nH]/c(=N/CC[C@H]3CCCC[NH2+]3)n1)C2

>  <Energy>  (75) 
77.77218736182232

>  <Genealogy>  (75) 
c1ccc2c(c1)CCN(c1nc(NCCC3CCCC[NH2+]3)nc(N3CCOCC3)n1)C2 (protonated)
c1ccc2c(c1)CCN(c1nc(N3CCOCC3)[nH]c(=NCCC3CCCC[NH2+]3)n1)C2 (tautomer)
c1ccc2c(c1)CCN(c1nc(N3CCOCC3)[nH]c(=NCC[C@H]3CCCC[NH2+]3)n1)C2 (chirality)
c1ccc2c(c1)CCN(c1nc(N3CCOCC3)[nH]/c(=N/CC[C@H]3CCCC[NH2+]3)n1)C2 (cis-trans isomerization)
c1ccc2c(c1)CCN(c1nc(N3CCOCC3)[nH]/c(=N/CC[C@H]3CCCC[NH2+]3)n1)C2 (3D coordinates assigned)
c1ccc2c(c1)CCN(c1nc(N3CCOCC3)[nH]/c(=N/CC[C@H]3CCCC[NH2+]3)n1)C2 (nonaromatic ring conformer: 77.77218736182232 kcal/mol)

>  <smiles>  (75) 
c1ccc2c(c1)CCN(c1nc(NCCC3CCCCN3)nc(N3CCOCC3)n1)C2

>  <score_type>  (75) 
oracle

>  <origin>  (75) 
autodockgpu

>  <m_score__min__energy>  (75) 
-10.529999999999999

>  <m_primary>  (75) 
energy

>  <meeko>  (75) 
{"free_energy": -8.91, "intermolecular_energy": -10.7, "internal_energy": -1.61, "cluster_size": 11, "cluster_id": 1, "rank_in_cluster": 10}

>  <energy>  (75) 
-8.05

>  <cluster_rmsd>  (75) 
0.0

>  <rmsd>  (75) 
271.15

>  <cluster>  (75) 
3

$$$$
MXRVYNFLTYDQGX-PQYUSCEXNA-O
     RDKit          3D

 65 69  0  0  0  0  0  0  0  0999 V2000
  141.6963   68.2072  227.8268 H   0  0  0  0  0  0  0  0  0  0  0  0
  141.0260   68.5020  227.0060 C   0  0  0  0  0  0  0  0  0  0  0  0
  140.0840   67.5930  226.5130 C   0  0  0  0  0  0  0  0  0  0  0  0
  140.0144   66.5841  226.9458 H   0  0  0  0  0  0  0  0  0  0  0  0
  139.2300   67.9670  225.4690 C   0  0  0  0  0  0  0  0  0  0  0  0
  138.4792   67.2570  225.0920 H   0  0  0  0  0  0  0  0  0  0  0  0
  139.3310   69.2470  224.9030 C   0  0  0  0  0  0  0  0  0  0  0  0
  140.2750   70.1580  225.3980 C   0  0  0  0  0  0  0  0  0  0  0  0
  141.1170   69.7850  226.4570 C   0  0  0  0  0  0  0  0  0  0  0  0
  141.8493   70.5025  226.8556 H   0  0  0  0  0  0  0  0  0  0  0  0
  140.3250   71.5470  224.8170 C   0  0  0  0  0  0  0  0  0  0  0  0
  141.3249   71.9722  224.9884 H   0  0  0  0  0  0  0  0  0  0  0  0
  139.5547   72.1592  225.3089 H   0  0  0  0  0  0  0  0  0  0  0  0
  140.0520   71.5270  223.3670 N   0  0  0  0  0  0  0  0  0  0  0  0
  140.6460   72.5310  222.5170 C   0  0  0  0  0  0  0  0  0  0  0  0
  141.7910   72.2640  221.8370 N   0  0  0  0  0  0  0  0  0  0  0  0
  142.3460   73.1880  221.0110 C   0  0  0  0  0  0  0  0  0  0  0  0
  143.5600   72.8680  220.3000 N   0  0  0  0  0  0  0  0  0  0  0  0
  143.5940   71.7810  219.3150 C   0  0  0  0  0  0  0  0  0  0  0  0
  142.9035   70.9844  219.6291 H   0  0  0  0  0  0  0  0  0  0  0  0
  143.2906   72.1758  218.3342 H   0  0  0  0  0  0  0  0  0  0  0  0
  145.0110   71.2090  219.2070 C   0  0  0  0  0  0  0  0  0  0  0  0
  145.2572   70.6791  220.1390 H   0  0  0  0  0  0  0  0  0  0  0  0
  145.0465   70.5190  218.3510 H   0  0  0  0  0  0  0  0  0  0  0  0
  145.9580   72.2390  218.9960 O   0  0  0  0  0  0  0  0  0  0  0  0
  146.0010   73.0840  220.1310 C   0  0  0  0  0  0  0  0  0  0  0  0
  146.1951   72.4758  221.0268 H   0  0  0  0  0  0  0  0  0  0  0  0
  146.8029   73.8238  219.9907 H   0  0  0  0  0  0  0  0  0  0  0  0
  144.6730   73.8250  220.3050 C   0  0  0  0  0  0  0  0  0  0  0  0
  144.6817   74.3687  221.2612 H   0  0  0  0  0  0  0  0  0  0  0  0
  144.5434   74.5340  219.4740 H   0  0  0  0  0  0  0  0  0  0  0  0
  141.7440   74.4020  220.8680 N   0  0  0  0  0  0  0  0  0  0  0  0
  142.1660   75.1380  220.2580 H   0  0  0  0  0  0  0  0  0  0  0  0
  140.6010   74.6860  221.5510 C   0  0  0  0  0  0  0  0  0  0  0  0
  140.0440   75.8540  221.4060 N   0  0  0  0  0  0  0  0  0  0  0  0
  140.0970   76.6960  220.2080 C   0  0  0  0  0  0  0  0  0  0  0  0
  141.0865   76.5961  219.7379 H   0  0  0  0  0  0  0  0  0  0  0  0
  139.3125   76.3720  219.5083 H   0  0  0  0  0  0  0  0  0  0  0  0
  139.8590   78.1650  220.5780 C   0  0  0  0  0  0  0  0  0  0  0  0
  139.8423   78.7604  219.6532 H   0  0  0  0  0  0  0  0  0  0  0  0
  138.9023   78.2157  221.1186 H   0  0  0  0  0  0  0  0  0  0  0  0
  140.9490   78.7410  221.5150 C   0  0  1  0  0  0  0  0  0  0  0  0
  141.8819   78.8335  220.9396 H   0  0  0  0  0  0  0  0  0  0  0  0
  140.5440   80.1420  222.0120 C   0  0  0  0  0  0  0  0  0  0  0  0
  140.3179   80.7800  221.1449 H   0  0  0  0  0  0  0  0  0  0  0  0
  139.6592   80.0429  222.6580 H   0  0  0  0  0  0  0  0  0  0  0  0
  141.6790   80.7860  222.8290 C   0  0  0  0  0  0  0  0  0  0  0  0
  142.2867   81.4090  222.1562 H   0  0  0  0  0  0  0  0  0  0  0  0
  141.2148   81.3821  223.6285 H   0  0  0  0  0  0  0  0  0  0  0  0
  142.5950   79.7470  223.4980 C   0  0  0  0  0  0  0  0  0  0  0  0
  143.4128   79.4909  222.8083 H   0  0  0  0  0  0  0  0  0  0  0  0
  142.9961   80.1789  224.4267 H   0  0  0  0  0  0  0  0  0  0  0  0
  141.8160   78.4740  223.8470 C   0  0  0  0  0  0  0  0  0  0  0  0
  142.5026   77.7617  224.3279 H   0  0  0  0  0  0  0  0  0  0  0  0
  140.9930   78.7611  224.5180 H   0  0  0  0  0  0  0  0  0  0  0  0
  141.2180   77.8260  222.6560 N   0  0  0  0  0  0  0  0  0  0  0  0
  140.3350   77.3540  222.9580 H   0  0  0  0  0  0  0  0  0  0  0  0
  141.8730   77.0820  222.3240 H   0  0  0  0  0  0  0  0  0  0  0  0
  140.0580   73.7470  222.3730 N   0  0  0  0  0  0  0  0  0  0  0  0
  139.1460   70.5280  222.7680 C   0  0  0  0  0  0  0  0  0  0  0  0
  139.7396   69.8502  222.1370 H   0  0  0  0  0  0  0  0  0  0  0  0
  138.3912   71.0760  222.1849 H   0  0  0  0  0  0  0  0  0  0  0  0
  138.3980   69.6910  223.8170 C   0  0  0  0  0  0  0  0  0  0  0  0
  137.9634   68.8057  223.3298 H   0  0  0  0  0  0  0  0  0  0  0  0
  137.6046   70.3089  224.2627 H   0  0  0  0  0  0  0  0  0  0  0  0
  1  2  1  0
  2  3  2  0
  3  4  1  0
  3  5  1  0
  5  6  1  0
  5  7  2  0
  7  8  1  0
  8  9  2  0
  9 10  1  0
  8 11  1  0
 11 12  1  0
 11 13  1  0
 11 14  1  0
 14 15  1  0
 15 16  1  0
 16 17  2  0
 17 18  1  0
 18 19  1  0
 19 20  1  0
 19 21  1  0
 19 22  1  0
 22 23  1  0
 22 24  1  0
 22 25  1  0
 25 26  1  0
 26 27  1  0
 26 28  1  0
 26 29  1  0
 29 30  1  0
 29 31  1  0
 17 32  1  0
 32 33  1  0
 32 34  1  0
 34 35  2  0
 35 36  1  0
 36 37  1  0
 36 38  1  0
 36 39  1  0
 39 40  1  0
 39 41  1  0
 39 42  1  0
 42 43  1  6
 42 44  1  0
 44 45  1  0
 44 46  1  0
 44 47  1  0
 47 48  1  0
 47 49  1  0
 47 50  1  0
 50 51  1  0
 50 52  1  0
 50 53  1  0
 53 54  1  0
 53 55  1  0
 53 56  1  0
 56 57  1  0
 56 58  1  0
 34 59  1  0
 14 60  1  0
 60 61  1  0
 60 62  1  0
 60 63  1  0
 63 64  1  0
 63 65  1  0
  9  2  1  0
 59 15  2  0
 63  7  1  0
 29 18  1  0
 56 42  1  0
M  CHG  1  56   1
M  END
>  <UniqueID>  (76) 
490

>  <SMILES>  (76) 
c1ccc2c(c1)CCN(c1nc(N3CCOCC3)[nH]/c(=N/CC[C@H]3CCCC[NH2+]3)n1)C2

>  <Energy>  (76) 
77.77218736182232

>  <Genealogy>  (76) 
c1ccc2c(c1)CCN(c1nc(NCCC3CCCC[NH2+]3)nc(N3CCOCC3)n1)C2 (protonated)
c1ccc2c(c1)CCN(c1nc(N3CCOCC3)[nH]c(=NCCC3CCCC[NH2+]3)n1)C2 (tautomer)
c1ccc2c(c1)CCN(c1nc(N3CCOCC3)[nH]c(=NCC[C@H]3CCCC[NH2+]3)n1)C2 (chirality)
c1ccc2c(c1)CCN(c1nc(N3CCOCC3)[nH]/c(=N/CC[C@H]3CCCC[NH2+]3)n1)C2 (cis-trans isomerization)
c1ccc2c(c1)CCN(c1nc(N3CCOCC3)[nH]/c(=N/CC[C@H]3CCCC[NH2+]3)n1)C2 (3D coordinates assigned)
c1ccc2c(c1)CCN(c1nc(N3CCOCC3)[nH]/c(=N/CC[C@H]3CCCC[NH2+]3)n1)C2 (nonaromatic ring conformer: 77.77218736182232 kcal/mol)

>  <smiles>  (76) 
c1ccc2c(c1)CCN(c1nc(NCCC3CCCCN3)nc(N3CCOCC3)n1)C2

>  <score_type>  (76) 
oracle

>  <origin>  (76) 
autodockgpu

>  <m_score__min__energy>  (76) 
-10.529999999999999

>  <m_primary>  (76) 
energy

>  <meeko>  (76) 
{"free_energy": -9.36, "intermolecular_energy": -11.15, "internal_energy": -1.47, "cluster_size": 11, "cluster_id": 1, "rank_in_cluster": 3}

>  <energy>  (76) 
-8.04

>  <cluster_rmsd>  (76) 
0.15

>  <rmsd>  (76) 
271.12

>  <cluster>  (76) 
3

$$$$
MXRVYNFLTYDQGX-PQYUSCEXNA-O
     RDKit          3D

 65 69  0  0  0  0  0  0  0  0999 V2000
  143.3567   81.4687  223.5494 H   0  0  0  0  0  0  0  0  0  0  0  0
  142.4520   80.8830  223.3290 C   0  0  0  0  0  0  0  0  0  0  0  0
  141.2080   81.3150  223.8010 C   0  0  0  0  0  0  0  0  0  0  0  0
  141.1351   82.2404  224.3911 H   0  0  0  0  0  0  0  0  0  0  0  0
  140.0570   80.5710  223.5230 C   0  0  0  0  0  0  0  0  0  0  0  0
  139.0775   80.9195  223.8823 H   0  0  0  0  0  0  0  0  0  0  0  0
  140.1500   79.3800  222.7860 C   0  0  0  0  0  0  0  0  0  0  0  0
  141.3970   78.9480  222.3110 C   0  0  0  0  0  0  0  0  0  0  0  0
  142.5470   79.7070  222.5770 C   0  0  0  0  0  0  0  0  0  0  0  0
  143.5239   79.3771  222.1939 H   0  0  0  0  0  0  0  0  0  0  0  0
  141.4660   77.7000  221.4700 C   0  0  0  0  0  0  0  0  0  0  0  0
  142.4804   77.2794  221.5338 H   0  0  0  0  0  0  0  0  0  0  0  0
  141.2220   77.9652  220.4307 H   0  0  0  0  0  0  0  0  0  0  0  0
  140.4960   76.6910  221.9360 N   0  0  0  0  0  0  0  0  0  0  0  0
  140.7890   75.2880  221.7600 C   0  0  0  0  0  0  0  0  0  0  0  0
  141.9300   74.8980  221.1370 N   0  0  0  0  0  0  0  0  0  0  0  0
  142.2320   73.5830  220.9900 C   0  0  0  0  0  0  0  0  0  0  0  0
  143.4570   73.2050  220.3260 N   0  0  0  0  0  0  0  0  0  0  0  0
  143.4840   72.0940  219.3680 C   0  0  0  0  0  0  0  0  0  0  0  0
  142.7570   71.3289  219.6781 H   0  0  0  0  0  0  0  0  0  0  0  0
  143.2250   72.4748  218.3690 H   0  0  0  0  0  0  0  0  0  0  0  0
  144.8840   71.4720  219.3190 C   0  0  0  0  0  0  0  0  0  0  0  0
  145.0821   70.9562  220.2702 H   0  0  0  0  0  0  0  0  0  0  0  0
  144.9229   70.7614  218.4802 H   0  0  0  0  0  0  0  0  0  0  0  0
  145.8720   72.4640  219.1160 O   0  0  0  0  0  0  0  0  0  0  0  0
  145.9090   73.3330  220.2320 C   0  0  0  0  0  0  0  0  0  0  0  0
  146.0534   72.7398  221.1470 H   0  0  0  0  0  0  0  0  0  0  0  0
  146.7404   74.0414  220.1014 H   0  0  0  0  0  0  0  0  0  0  0  0
  144.6020   74.1230  220.3460 C   0  0  0  0  0  0  0  0  0  0  0  0
  144.5992   74.6883  221.2896 H   0  0  0  0  0  0  0  0  0  0  0  0
  144.5238   74.8162  219.4955 H   0  0  0  0  0  0  0  0  0  0  0  0
  141.3730   72.6420  221.4730 N   0  0  0  0  0  0  0  0  0  0  0  0
  141.5720   71.6240  221.3490 H   0  0  0  0  0  0  0  0  0  0  0  0
  140.2200   73.0190  222.0920 C   0  0  0  0  0  0  0  0  0  0  0  0
  139.4090   72.1060  222.5410 N   0  0  0  0  0  0  0  0  0  0  0  0
  138.5920   71.2000  221.7310 C   0  0  0  0  0  0  0  0  0  0  0  0
  139.2300   70.4011  221.3252 H   0  0  0  0  0  0  0  0  0  0  0  0
  137.8030   70.7675  222.3639 H   0  0  0  0  0  0  0  0  0  0  0  0
  137.9390   71.9640  220.5720 C   0  0  0  0  0  0  0  0  0  0  0  0
  138.7291   72.2954  219.8822 H   0  0  0  0  0  0  0  0  0  0  0  0
  137.2287   71.2784  220.0868 H   0  0  0  0  0  0  0  0  0  0  0  0
  137.1380   73.2050  221.0360 C   0  0  1  0  0  0  0  0  0  0  0  0
  137.5788   74.0948  220.5628 H   0  0  0  0  0  0  0  0  0  0  0  0
  135.6680   73.0940  220.5860 C   0  0  0  0  0  0  0  0  0  0  0  0
  135.6360   72.9227  219.4999 H   0  0  0  0  0  0  0  0  0  0  0  0
  135.1994   72.2554  221.1218 H   0  0  0  0  0  0  0  0  0  0  0  0
  134.8920   74.3830  220.9160 C   0  0  0  0  0  0  0  0  0  0  0  0
  134.9125   75.0412  220.0349 H   0  0  0  0  0  0  0  0  0  0  0  0
  133.8654   74.0928  221.1839 H   0  0  0  0  0  0  0  0  0  0  0  0
  135.4860   75.1450  222.1130 C   0  0  0  0  0  0  0  0  0  0  0  0
  136.2467   75.8510  221.7486 H   0  0  0  0  0  0  0  0  0  0  0  0
  134.6744   75.6838  222.6239 H   0  0  0  0  0  0  0  0  0  0  0  0
  136.1350   74.1790  223.1100 C   0  0  0  0  0  0  0  0  0  0  0  0
  136.5389   74.7607  223.9517 H   0  0  0  0  0  0  0  0  0  0  0  0
  135.3601   73.4712  223.4395 H   0  0  0  0  0  0  0  0  0  0  0  0
  137.2350   73.3900  222.5080 N   0  0  0  0  0  0  0  0  0  0  0  0
  137.2620   72.4610  222.9890 H   0  0  0  0  0  0  0  0  0  0  0  0
  138.1370   73.8760  222.7130 H   0  0  0  0  0  0  0  0  0  0  0  0
  139.9350   74.3420  222.2320 N   0  0  0  0  0  0  0  0  0  0  0  0
  139.2070   77.0820  222.5390 C   0  0  0  0  0  0  0  0  0  0  0  0
  139.2181   76.8020  223.6027 H   0  0  0  0  0  0  0  0  0  0  0  0
  138.4125   76.5597  221.9858 H   0  0  0  0  0  0  0  0  0  0  0  0
  138.9280   78.5890  222.4320 C   0  0  0  0  0  0  0  0  0  0  0  0
  138.1132   78.8553  223.1214 H   0  0  0  0  0  0  0  0  0  0  0  0
  138.6429   78.8233  221.3958 H   0  0  0  0  0  0  0  0  0  0  0  0
  1  2  1  0
  2  3  2  0
  3  4  1  0
  3  5  1  0
  5  6  1  0
  5  7  2  0
  7  8  1  0
  8  9  2  0
  9 10  1  0
  8 11  1  0
 11 12  1  0
 11 13  1  0
 11 14  1  0
 14 15  1  0
 15 16  1  0
 16 17  2  0
 17 18  1  0
 18 19  1  0
 19 20  1  0
 19 21  1  0
 19 22  1  0
 22 23  1  0
 22 24  1  0
 22 25  1  0
 25 26  1  0
 26 27  1  0
 26 28  1  0
 26 29  1  0
 29 30  1  0
 29 31  1  0
 17 32  1  0
 32 33  1  0
 32 34  1  0
 34 35  2  0
 35 36  1  0
 36 37  1  0
 36 38  1  0
 36 39  1  0
 39 40  1  0
 39 41  1  0
 39 42  1  0
 42 43  1  6
 42 44  1  0
 44 45  1  0
 44 46  1  0
 44 47  1  0
 47 48  1  0
 47 49  1  0
 47 50  1  0
 50 51  1  0
 50 52  1  0
 50 53  1  0
 53 54  1  0
 53 55  1  0
 53 56  1  0
 56 57  1  0
 56 58  1  0
 34 59  1  0
 14 60  1  0
 60 61  1  0
 60 62  1  0
 60 63  1  0
 63 64  1  0
 63 65  1  0
  9  2  1  0
 59 15  2  0
 63  7  1  0
 29 18  1  0
 56 42  1  0
M  CHG  1  56   1
M  END
>  <UniqueID>  (77) 
490

>  <SMILES>  (77) 
c1ccc2c(c1)CCN(c1nc(N3CCOCC3)[nH]/c(=N/CC[C@H]3CCCC[NH2+]3)n1)C2

>  <Energy>  (77) 
77.77218736182232

>  <Genealogy>  (77) 
c1ccc2c(c1)CCN(c1nc(NCCC3CCCC[NH2+]3)nc(N3CCOCC3)n1)C2 (protonated)
c1ccc2c(c1)CCN(c1nc(N3CCOCC3)[nH]c(=NCCC3CCCC[NH2+]3)n1)C2 (tautomer)
c1ccc2c(c1)CCN(c1nc(N3CCOCC3)[nH]c(=NCC[C@H]3CCCC[NH2+]3)n1)C2 (chirality)
c1ccc2c(c1)CCN(c1nc(N3CCOCC3)[nH]/c(=N/CC[C@H]3CCCC[NH2+]3)n1)C2 (cis-trans isomerization)
c1ccc2c(c1)CCN(c1nc(N3CCOCC3)[nH]/c(=N/CC[C@H]3CCCC[NH2+]3)n1)C2 (3D coordinates assigned)
c1ccc2c(c1)CCN(c1nc(N3CCOCC3)[nH]/c(=N/CC[C@H]3CCCC[NH2+]3)n1)C2 (nonaromatic ring conformer: 77.77218736182232 kcal/mol)

>  <smiles>  (77) 
c1ccc2c(c1)CCN(c1nc(NCCC3CCCCN3)nc(N3CCOCC3)n1)C2

>  <score_type>  (77) 
oracle

>  <origin>  (77) 
autodockgpu

>  <m_score__min__energy>  (77) 
-10.529999999999999

>  <m_primary>  (77) 
energy

>  <meeko>  (77) 
{"free_energy": -7.39, "intermolecular_energy": -9.18, "internal_energy": -2.54, "cluster_size": 6, "cluster_id": 3, "rank_in_cluster": 6}

>  <energy>  (77) 
-8.02

>  <cluster_rmsd>  (77) 
0.07

>  <rmsd>  (77) 
271.15

>  <cluster>  (77) 
3

$$$$
MXRVYNFLTYDQGX-PQYUSCEXNA-O
     RDKit          3D

 65 69  0  0  0  0  0  0  0  0999 V2000
  143.2009   81.3514  223.4665 H   0  0  0  0  0  0  0  0  0  0  0  0
  142.3250   80.7160  223.2690 C   0  0  0  0  0  0  0  0  0  0  0  0
  141.0800   81.0560  223.8080 C   0  0  0  0  0  0  0  0  0  0  0  0
  140.9774   81.9593  224.4273 H   0  0  0  0  0  0  0  0  0  0  0  0
  139.9650   80.2480  223.5600 C   0  0  0  0  0  0  0  0  0  0  0  0
  138.9834   80.5242  223.9726 H   0  0  0  0  0  0  0  0  0  0  0  0
  140.0980   79.0850  222.7850 C   0  0  0  0  0  0  0  0  0  0  0  0
  141.3450   78.7450  222.2420 C   0  0  0  0  0  0  0  0  0  0  0  0
  142.4580   79.5690  222.4790 C   0  0  0  0  0  0  0  0  0  0  0  0
  143.4347   79.3121  222.0431 H   0  0  0  0  0  0  0  0  0  0  0  0
  141.4530   77.5280  221.3630 C   0  0  0  0  0  0  0  0  0  0  0  0
  142.4937   77.1716  221.3693 H   0  0  0  0  0  0  0  0  0  0  0  0
  141.1450   77.8050  220.3440 H   0  0  0  0  0  0  0  0  0  0  0  0
  140.5710   76.4470  221.8410 N   0  0  0  0  0  0  0  0  0  0  0  0
  140.9410   75.0700  221.6110 C   0  0  0  0  0  0  0  0  0  0  0  0
  142.1370   74.7670  221.0440 N   0  0  0  0  0  0  0  0  0  0  0  0
  142.5120   73.4770  220.8480 C   0  0  0  0  0  0  0  0  0  0  0  0
  143.7930   73.1920  220.2470 N   0  0  0  0  0  0  0  0  0  0  0  0
  143.9190   72.2000  219.1740 C   0  0  0  0  0  0  0  0  0  0  0  0
  143.1856   71.3960  219.3344 H   0  0  0  0  0  0  0  0  0  0  0  0
  143.7325   72.6909  218.2074 H   0  0  0  0  0  0  0  0  0  0  0  0
  145.3300   71.6040  219.1680 C   0  0  0  0  0  0  0  0  0  0  0  0
  145.4626   70.9843  220.0671 H   0  0  0  0  0  0  0  0  0  0  0  0
  145.4497   70.9953  218.2596 H   0  0  0  0  0  0  0  0  0  0  0  0
  146.3110   72.6240  219.1600 O   0  0  0  0  0  0  0  0  0  0  0  0
  146.2410   73.3590  220.3670 C   0  0  0  0  0  0  0  0  0  0  0  0
  146.3244   72.6659  221.2171 H   0  0  0  0  0  0  0  0  0  0  0  0
  147.0652   74.0872  220.3858 H   0  0  0  0  0  0  0  0  0  0  0  0
  144.9130   74.1160  220.4640 C   0  0  0  0  0  0  0  0  0  0  0  0
  144.8237   74.5690  221.4624 H   0  0  0  0  0  0  0  0  0  0  0  0
  144.8877   74.9020  219.6949 H   0  0  0  0  0  0  0  0  0  0  0  0
  141.6700   72.4740  221.2240 N   0  0  0  0  0  0  0  0  0  0  0  0
  141.9260   71.4740  221.0600 H   0  0  0  0  0  0  0  0  0  0  0  0
  140.4640   72.7630  221.7850 C   0  0  0  0  0  0  0  0  0  0  0  0
  139.6710   71.7910  222.1320 N   0  0  0  0  0  0  0  0  0  0  0  0
  139.1760   71.5170  223.4830 C   0  0  0  0  0  0  0  0  0  0  0  0
  139.7582   70.6939  223.9228 H   0  0  0  0  0  0  0  0  0  0  0  0
  139.2849   72.4245  224.0950 H   0  0  0  0  0  0  0  0  0  0  0  0
  137.6950   71.1210  223.4370 C   0  0  0  0  0  0  0  0  0  0  0  0
  137.6059   70.1609  222.9076 H   0  0  0  0  0  0  0  0  0  0  0  0
  137.3417   71.0533  224.4765 H   0  0  0  0  0  0  0  0  0  0  0  0
  136.8080   72.1650  222.7160 C   0  0  1  0  0  0  0  0  0  0  0  0
  136.4310   71.7110  221.7877 H   0  0  0  0  0  0  0  0  0  0  0  0
  135.6010   72.5440  223.5950 C   0  0  0  0  0  0  0  0  0  0  0  0
  135.0659   71.6279  223.8855 H   0  0  0  0  0  0  0  0  0  0  0  0
  135.9691   73.0744  224.4856 H   0  0  0  0  0  0  0  0  0  0  0  0
  134.6350   73.4720  222.8360 C   0  0  0  0  0  0  0  0  0  0  0  0
  133.8548   72.8571  222.3637 H   0  0  0  0  0  0  0  0  0  0  0  0
  134.2112   74.1780  223.5654 H   0  0  0  0  0  0  0  0  0  0  0  0
  135.3380   74.2980  221.7450 C   0  0  0  0  0  0  0  0  0  0  0  0
  135.3282   73.7315  220.8022 H   0  0  0  0  0  0  0  0  0  0  0  0
  134.8022   75.2513  221.6265 H   0  0  0  0  0  0  0  0  0  0  0  0
  136.7900   74.5980  222.1350 C   0  0  0  0  0  0  0  0  0  0  0  0
  137.2535   75.1941  221.3351 H   0  0  0  0  0  0  0  0  0  0  0  0
  136.7722   75.1438  223.0899 H   0  0  0  0  0  0  0  0  0  0  0  0
  137.5920   73.3690  222.3360 N   0  0  0  0  0  0  0  0  0  0  0  0
  138.3150   73.5750  223.0640 H   0  0  0  0  0  0  0  0  0  0  0  0
  138.0970   73.1580  221.4450 H   0  0  0  0  0  0  0  0  0  0  0  0
  140.1070   74.0630  221.9760 N   0  0  0  0  0  0  0  0  0  0  0  0
  139.2890   76.7400  222.5120 C   0  0  0  0  0  0  0  0  0  0  0  0
  139.3667   76.4333  223.5655 H   0  0  0  0  0  0  0  0  0  0  0  0
  138.5040   76.1835  221.9791 H   0  0  0  0  0  0  0  0  0  0  0  0
  138.9120   78.2270  222.4620 C   0  0  0  0  0  0  0  0  0  0  0  0
  138.1148   78.4223  223.1943 H   0  0  0  0  0  0  0  0  0  0  0  0
  138.5653   78.4702  221.4468 H   0  0  0  0  0  0  0  0  0  0  0  0
  1  2  1  0
  2  3  2  0
  3  4  1  0
  3  5  1  0
  5  6  1  0
  5  7  2  0
  7  8  1  0
  8  9  2  0
  9 10  1  0
  8 11  1  0
 11 12  1  0
 11 13  1  0
 11 14  1  0
 14 15  1  0
 15 16  1  0
 16 17  2  0
 17 18  1  0
 18 19  1  0
 19 20  1  0
 19 21  1  0
 19 22  1  0
 22 23  1  0
 22 24  1  0
 22 25  1  0
 25 26  1  0
 26 27  1  0
 26 28  1  0
 26 29  1  0
 29 30  1  0
 29 31  1  0
 17 32  1  0
 32 33  1  0
 32 34  1  0
 34 35  2  0
 35 36  1  0
 36 37  1  0
 36 38  1  0
 36 39  1  0
 39 40  1  0
 39 41  1  0
 39 42  1  0
 42 43  1  6
 42 44  1  0
 44 45  1  0
 44 46  1  0
 44 47  1  0
 47 48  1  0
 47 49  1  0
 47 50  1  0
 50 51  1  0
 50 52  1  0
 50 53  1  0
 53 54  1  0
 53 55  1  0
 53 56  1  0
 56 57  1  0
 56 58  1  0
 34 59  1  0
 14 60  1  0
 60 61  1  0
 60 62  1  0
 60 63  1  0
 63 64  1  0
 63 65  1  0
  9  2  1  0
 59 15  2  0
 63  7  1  0
 29 18  1  0
 56 42  1  0
M  CHG  1  56   1
M  END
>  <UniqueID>  (78) 
490

>  <SMILES>  (78) 
c1ccc2c(c1)CCN(c1nc(N3CCOCC3)[nH]/c(=N/CC[C@H]3CCCC[NH2+]3)n1)C2

>  <Energy>  (78) 
77.77218736182232

>  <Genealogy>  (78) 
c1ccc2c(c1)CCN(c1nc(NCCC3CCCC[NH2+]3)nc(N3CCOCC3)n1)C2 (protonated)
c1ccc2c(c1)CCN(c1nc(N3CCOCC3)[nH]c(=NCCC3CCCC[NH2+]3)n1)C2 (tautomer)
c1ccc2c(c1)CCN(c1nc(N3CCOCC3)[nH]c(=NCC[C@H]3CCCC[NH2+]3)n1)C2 (chirality)
c1ccc2c(c1)CCN(c1nc(N3CCOCC3)[nH]/c(=N/CC[C@H]3CCCC[NH2+]3)n1)C2 (cis-trans isomerization)
c1ccc2c(c1)CCN(c1nc(N3CCOCC3)[nH]/c(=N/CC[C@H]3CCCC[NH2+]3)n1)C2 (3D coordinates assigned)
c1ccc2c(c1)CCN(c1nc(N3CCOCC3)[nH]/c(=N/CC[C@H]3CCCC[NH2+]3)n1)C2 (nonaromatic ring conformer: 77.77218736182232 kcal/mol)

>  <smiles>  (78) 
c1ccc2c(c1)CCN(c1nc(NCCC3CCCCN3)nc(N3CCOCC3)n1)C2

>  <score_type>  (78) 
oracle

>  <origin>  (78) 
autodockgpu

>  <m_score__min__energy>  (78) 
-10.529999999999999

>  <m_primary>  (78) 
energy

>  <meeko>  (78) 
{"free_energy": -8.0, "intermolecular_energy": -9.79, "internal_energy": -2.64, "cluster_size": 6, "cluster_id": 3, "rank_in_cluster": 4}

>  <energy>  (78) 
-8.0

>  <cluster_rmsd>  (78) 
0.21

>  <rmsd>  (78) 
271.1

>  <cluster>  (78) 
3

$$$$
MXRVYNFLTYDQGX-PQYUSCEXNA-O
     RDKit          3D

 65 69  0  0  0  0  0  0  0  0999 V2000
  143.4675   81.4660  223.3155 H   0  0  0  0  0  0  0  0  0  0  0  0
  142.5570   80.8650  223.1750 C   0  0  0  0  0  0  0  0  0  0  0  0
  141.3700   81.2370  223.8140 C   0  0  0  0  0  0  0  0  0  0  0  0
  141.3471   82.1302  224.4556 H   0  0  0  0  0  0  0  0  0  0  0  0
  140.2120   80.4730  223.6370 C   0  0  0  0  0  0  0  0  0  0  0  0
  139.2749   80.7750  224.1275 H   0  0  0  0  0  0  0  0  0  0  0  0
  140.2430   79.3220  222.8350 C   0  0  0  0  0  0  0  0  0  0  0  0
  141.4340   78.9500  222.1920 C   0  0  0  0  0  0  0  0  0  0  0  0
  142.5890   79.7310  222.3580 C   0  0  0  0  0  0  0  0  0  0  0  0
  143.5204   79.4502  221.8445 H   0  0  0  0  0  0  0  0  0  0  0  0
  141.4310   77.7470  221.2870 C   0  0  0  0  0  0  0  0  0  0  0  0
  142.4556   77.3546  221.2079 H   0  0  0  0  0  0  0  0  0  0  0  0
  141.0569   78.0542  220.2993 H   0  0  0  0  0  0  0  0  0  0  0  0
  140.5490   76.6880  221.8130 N   0  0  0  0  0  0  0  0  0  0  0  0
  140.8520   75.3050  221.5320 C   0  0  0  0  0  0  0  0  0  0  0  0
  142.0660   74.9560  221.0330 N   0  0  0  0  0  0  0  0  0  0  0  0
  142.3750   73.6560  220.7910 C   0  0  0  0  0  0  0  0  0  0  0  0
  143.6770   73.3210  220.2660 N   0  0  0  0  0  0  0  0  0  0  0  0
  143.8400   72.2500  219.2770 C   0  0  0  0  0  0  0  0  0  0  0  0
  143.0952   71.4632  219.4674 H   0  0  0  0  0  0  0  0  0  0  0  0
  143.6964   72.6671  218.2693 H   0  0  0  0  0  0  0  0  0  0  0  0
  145.2460   71.6500  219.3740 C   0  0  0  0  0  0  0  0  0  0  0  0
  145.3380   71.1006  220.3225 H   0  0  0  0  0  0  0  0  0  0  0  0
  145.3979   70.9731  218.5203 H   0  0  0  0  0  0  0  0  0  0  0  0
  146.2330   72.6620  219.3280 O   0  0  0  0  0  0  0  0  0  0  0  0
  146.1200   73.4870  220.4720 C   0  0  0  0  0  0  0  0  0  0  0  0
  146.1648   72.8603  221.3749 H   0  0  0  0  0  0  0  0  0  0  0  0
  146.9478   74.2114  220.4685 H   0  0  0  0  0  0  0  0  0  0  0  0
  144.7950   74.2540  220.4580 C   0  0  0  0  0  0  0  0  0  0  0  0
  144.6692   74.7814  221.4151 H   0  0  0  0  0  0  0  0  0  0  0  0
  144.8062   74.9794  219.6312 H   0  0  0  0  0  0  0  0  0  0  0  0
  141.4500   72.6900  221.0500 N   0  0  0  0  0  0  0  0  0  0  0  0
  141.6560   71.6860  220.8470 H   0  0  0  0  0  0  0  0  0  0  0  0
  140.2250   73.0270  221.5410 C   0  0  0  0  0  0  0  0  0  0  0  0
  139.3520   72.0910  221.7750 N   0  0  0  0  0  0  0  0  0  0  0  0
  139.0010   71.5430  223.0880 C   0  0  0  0  0  0  0  0  0  0  0  0
  139.5650   70.6136  223.2557 H   0  0  0  0  0  0  0  0  0  0  0  0
  139.2529   72.2822  223.8627 H   0  0  0  0  0  0  0  0  0  0  0  0
  137.4980   71.2420  223.1560 C   0  0  0  0  0  0  0  0  0  0  0  0
  137.2817   70.3885  222.4966 H   0  0  0  0  0  0  0  0  0  0  0  0
  137.2545   71.0232  224.2062 H   0  0  0  0  0  0  0  0  0  0  0  0
  136.6190   72.4380  222.7180 C   0  0  1  0  0  0  0  0  0  0  0  0
  136.0597   72.1403  221.8188 H   0  0  0  0  0  0  0  0  0  0  0  0
  135.6070   72.7940  223.8250 C   0  0  0  0  0  0  0  0  0  0  0  0
  135.0347   71.8935  224.0925 H   0  0  0  0  0  0  0  0  0  0  0  0
  136.1602   73.1720  224.6974 H   0  0  0  0  0  0  0  0  0  0  0  0
  134.6320   73.8880  223.3500 C   0  0  0  0  0  0  0  0  0  0  0  0
  133.7301   73.4043  222.9469 H   0  0  0  0  0  0  0  0  0  0  0  0
  134.4003   74.5247  224.2166 H   0  0  0  0  0  0  0  0  0  0  0  0
  135.2350   74.7900  222.2600 C   0  0  0  0  0  0  0  0  0  0  0  0
  135.0219   74.3536  221.2730 H   0  0  0  0  0  0  0  0  0  0  0  0
  134.7851   75.7903  222.3435 H   0  0  0  0  0  0  0  0  0  0  0  0
  136.7530   74.9200  222.4340 C   0  0  0  0  0  0  0  0  0  0  0  0
  137.1432   75.5769  221.6427 H   0  0  0  0  0  0  0  0  0  0  0  0
  136.9388   75.3357  223.4353 H   0  0  0  0  0  0  0  0  0  0  0  0
  137.4500   73.6160  222.3540 N   0  0  0  0  0  0  0  0  0  0  0  0
  138.2950   73.6670  222.9700 H   0  0  0  0  0  0  0  0  0  0  0  0
  137.7860   73.4830  221.3740 H   0  0  0  0  0  0  0  0  0  0  0  0
  139.9340   74.3350  221.7790 N   0  0  0  0  0  0  0  0  0  0  0  0
  139.3340   77.0110  222.5850 C   0  0  0  0  0  0  0  0  0  0  0  0
  139.4810   76.6815  223.6241 H   0  0  0  0  0  0  0  0  0  0  0  0
  138.4913   76.4919  222.1050 H   0  0  0  0  0  0  0  0  0  0  0  0
  139.0070   78.5120  222.5890 C   0  0  0  0  0  0  0  0  0  0  0  0
  138.2748   78.7200  223.3831 H   0  0  0  0  0  0  0  0  0  0  0  0
  138.5934   78.7867  221.6074 H   0  0  0  0  0  0  0  0  0  0  0  0
  1  2  1  0
  2  3  2  0
  3  4  1  0
  3  5  1  0
  5  6  1  0
  5  7  2  0
  7  8  1  0
  8  9  2  0
  9 10  1  0
  8 11  1  0
 11 12  1  0
 11 13  1  0
 11 14  1  0
 14 15  1  0
 15 16  1  0
 16 17  2  0
 17 18  1  0
 18 19  1  0
 19 20  1  0
 19 21  1  0
 19 22  1  0
 22 23  1  0
 22 24  1  0
 22 25  1  0
 25 26  1  0
 26 27  1  0
 26 28  1  0
 26 29  1  0
 29 30  1  0
 29 31  1  0
 17 32  1  0
 32 33  1  0
 32 34  1  0
 34 35  2  0
 35 36  1  0
 36 37  1  0
 36 38  1  0
 36 39  1  0
 39 40  1  0
 39 41  1  0
 39 42  1  0
 42 43  1  6
 42 44  1  0
 44 45  1  0
 44 46  1  0
 44 47  1  0
 47 48  1  0
 47 49  1  0
 47 50  1  0
 50 51  1  0
 50 52  1  0
 50 53  1  0
 53 54  1  0
 53 55  1  0
 53 56  1  0
 56 57  1  0
 56 58  1  0
 34 59  1  0
 14 60  1  0
 60 61  1  0
 60 62  1  0
 60 63  1  0
 63 64  1  0
 63 65  1  0
  9  2  1  0
 59 15  2  0
 63  7  1  0
 29 18  1  0
 56 42  1  0
M  CHG  1  56   1
M  END
>  <UniqueID>  (79) 
490

>  <SMILES>  (79) 
c1ccc2c(c1)CCN(c1nc(N3CCOCC3)[nH]/c(=N/CC[C@H]3CCCC[NH2+]3)n1)C2

>  <Energy>  (79) 
77.77218736182232

>  <Genealogy>  (79) 
c1ccc2c(c1)CCN(c1nc(NCCC3CCCC[NH2+]3)nc(N3CCOCC3)n1)C2 (protonated)
c1ccc2c(c1)CCN(c1nc(N3CCOCC3)[nH]c(=NCCC3CCCC[NH2+]3)n1)C2 (tautomer)
c1ccc2c(c1)CCN(c1nc(N3CCOCC3)[nH]c(=NCC[C@H]3CCCC[NH2+]3)n1)C2 (chirality)
c1ccc2c(c1)CCN(c1nc(N3CCOCC3)[nH]/c(=N/CC[C@H]3CCCC[NH2+]3)n1)C2 (cis-trans isomerization)
c1ccc2c(c1)CCN(c1nc(N3CCOCC3)[nH]/c(=N/CC[C@H]3CCCC[NH2+]3)n1)C2 (3D coordinates assigned)
c1ccc2c(c1)CCN(c1nc(N3CCOCC3)[nH]/c(=N/CC[C@H]3CCCC[NH2+]3)n1)C2 (nonaromatic ring conformer: 77.77218736182232 kcal/mol)

>  <smiles>  (79) 
c1ccc2c(c1)CCN(c1nc(NCCC3CCCCN3)nc(N3CCOCC3)n1)C2

>  <score_type>  (79) 
oracle

>  <origin>  (79) 
autodockgpu

>  <m_score__min__energy>  (79) 
-10.529999999999999

>  <m_primary>  (79) 
energy

>  <meeko>  (79) 
{"free_energy": -7.92, "intermolecular_energy": -9.71, "internal_energy": -2.67, "cluster_size": 6, "cluster_id": 3, "rank_in_cluster": 5}

>  <energy>  (79) 
-7.92

>  <cluster_rmsd>  (79) 
0.15

>  <rmsd>  (79) 
271.13

>  <cluster>  (79) 
3

$$$$
MXRVYNFLTYDQGX-PQYUSCEXNA-O
     RDKit          3D

 65 69  0  0  0  0  0  0  0  0999 V2000
  141.1600   68.6033  228.0735 H   0  0  0  0  0  0  0  0  0  0  0  0
  140.6730   68.7350  227.0960 C   0  0  0  0  0  0  0  0  0  0  0  0
  140.0640   67.6450  226.4670 C   0  0  0  0  0  0  0  0  0  0  0  0
  140.0705   66.6571  226.9508 H   0  0  0  0  0  0  0  0  0  0  0  0
  139.4460   67.8100  225.2220 C   0  0  0  0  0  0  0  0  0  0  0  0
  138.9545   66.9550  224.7348 H   0  0  0  0  0  0  0  0  0  0  0  0
  139.4530   69.0650  224.5950 C   0  0  0  0  0  0  0  0  0  0  0  0
  140.0610   70.1600  225.2270 C   0  0  0  0  0  0  0  0  0  0  0  0
  140.6640   69.9930  226.4840 C   0  0  0  0  0  0  0  0  0  0  0  0
  141.1299   70.8525  226.9882 H   0  0  0  0  0  0  0  0  0  0  0  0
  140.0030   71.5110  224.5660 C   0  0  0  0  0  0  0  0  0  0  0  0
  140.8338   72.1287  224.9376 H   0  0  0  0  0  0  0  0  0  0  0  0
  139.0364   71.9770  224.8078 H   0  0  0  0  0  0  0  0  0  0  0  0
  140.1110   71.3900  223.1000 N   0  0  0  0  0  0  0  0  0  0  0  0
  140.7070   72.4620  222.3380 C   0  0  0  0  0  0  0  0  0  0  0  0
  141.8330   72.2440  221.6110 N   0  0  0  0  0  0  0  0  0  0  0  0
  142.3890   73.2340  220.8680 C   0  0  0  0  0  0  0  0  0  0  0  0
  143.5830   72.9640  220.1030 N   0  0  0  0  0  0  0  0  0  0  0  0
  143.5650   72.0140  218.9850 C   0  0  0  0  0  0  0  0  0  0  0  0
  142.8475   71.2094  219.2033 H   0  0  0  0  0  0  0  0  0  0  0  0
  143.2672   72.5439  218.0682 H   0  0  0  0  0  0  0  0  0  0  0  0
  144.9580   71.4090  218.7830 C   0  0  0  0  0  0  0  0  0  0  0  0
  145.1926   70.7539  219.6349 H   0  0  0  0  0  0  0  0  0  0  0  0
  144.9582   70.8355  217.8443 H   0  0  0  0  0  0  0  0  0  0  0  0
  145.9420   72.4210  218.6930 O   0  0  0  0  0  0  0  0  0  0  0  0
  146.0300   73.1080  219.9270 C   0  0  0  0  0  0  0  0  0  0  0  0
  146.2090   72.3811  220.7330 H   0  0  0  0  0  0  0  0  0  0  0  0
  146.8590   73.8289  219.8722 H   0  0  0  0  0  0  0  0  0  0  0  0
  144.7330   73.8700  220.2160 C   0  0  0  0  0  0  0  0  0  0  0  0
  144.7725   74.2834  221.2346 H   0  0  0  0  0  0  0  0  0  0  0  0
  144.6232   74.6860  219.4865 H   0  0  0  0  0  0  0  0  0  0  0  0
  141.8080   74.4670  220.8570 N   0  0  0  0  0  0  0  0  0  0  0  0
  142.2330   75.2510  220.3130 H   0  0  0  0  0  0  0  0  0  0  0  0
  140.6850   74.7030  221.5880 C   0  0  0  0  0  0  0  0  0  0  0  0
  140.1480   75.8880  221.5700 N   0  0  0  0  0  0  0  0  0  0  0  0
  139.7560   76.6430  220.3770 C   0  0  0  0  0  0  0  0  0  0  0  0
  140.5410   76.5467  219.6125 H   0  0  0  0  0  0  0  0  0  0  0  0
  138.8063   76.2403  219.9950 H   0  0  0  0  0  0  0  0  0  0  0  0
  139.5660   78.1250  220.7230 C   0  0  0  0  0  0  0  0  0  0  0  0
  139.3697   78.6789  219.7932 H   0  0  0  0  0  0  0  0  0  0  0  0
  138.7244   78.1913  221.4282 H   0  0  0  0  0  0  0  0  0  0  0  0
  140.8000   78.7510  221.4180 C   0  0  1  0  0  0  0  0  0  0  0  0
  141.6239   78.7840  220.6899 H   0  0  0  0  0  0  0  0  0  0  0  0
  140.4900   80.1920  221.8660 C   0  0  0  0  0  0  0  0  0  0  0  0
  140.1248   80.7667  221.0021 H   0  0  0  0  0  0  0  0  0  0  0  0
  139.7255   80.1567  222.6562 H   0  0  0  0  0  0  0  0  0  0  0  0
  141.7490   80.8770  222.4310 C   0  0  0  0  0  0  0  0  0  0  0  0
  142.2380   81.4377  221.6208 H   0  0  0  0  0  0  0  0  0  0  0  0
  141.4280   81.5395  223.2484 H   0  0  0  0  0  0  0  0  0  0  0  0
  142.7590   79.8750  223.0150 C   0  0  0  0  0  0  0  0  0  0  0  0
  143.4481   79.5537  222.2200 H   0  0  0  0  0  0  0  0  0  0  0  0
  143.3126   80.3678  223.8278 H   0  0  0  0  0  0  0  0  0  0  0  0
  142.0430   78.6450  223.5860 C   0  0  0  0  0  0  0  0  0  0  0  0
  142.7970   77.9591  223.9996 H   0  0  0  0  0  0  0  0  0  0  0  0
  141.3449   78.9960  224.3602 H   0  0  0  0  0  0  0  0  0  0  0  0
  141.2520   77.9200  222.5650 N   0  0  0  0  0  0  0  0  0  0  0  0
  140.4300   77.4870  223.0460 H   0  0  0  0  0  0  0  0  0  0  0  0
  141.8390   77.1420  222.1870 H   0  0  0  0  0  0  0  0  0  0  0  0
  140.1400   73.6970  222.3260 N   0  0  0  0  0  0  0  0  0  0  0  0
  139.5800   70.2140  222.3830 C   0  0  0  0  0  0  0  0  0  0  0  0
  140.4253   69.6444  221.9695 H   0  0  0  0  0  0  0  0  0  0  0  0
  138.9096   70.5848  221.5936 H   0  0  0  0  0  0  0  0  0  0  0  0
  138.7570   69.2830  223.2850 C   0  0  0  0  0  0  0  0  0  0  0  0
  138.6252   68.3145  222.7803 H   0  0  0  0  0  0  0  0  0  0  0  0
  137.7792   69.7489  223.4767 H   0  0  0  0  0  0  0  0  0  0  0  0
  1  2  1  0
  2  3  2  0
  3  4  1  0
  3  5  1  0
  5  6  1  0
  5  7  2  0
  7  8  1  0
  8  9  2  0
  9 10  1  0
  8 11  1  0
 11 12  1  0
 11 13  1  0
 11 14  1  0
 14 15  1  0
 15 16  1  0
 16 17  2  0
 17 18  1  0
 18 19  1  0
 19 20  1  0
 19 21  1  0
 19 22  1  0
 22 23  1  0
 22 24  1  0
 22 25  1  0
 25 26  1  0
 26 27  1  0
 26 28  1  0
 26 29  1  0
 29 30  1  0
 29 31  1  0
 17 32  1  0
 32 33  1  0
 32 34  1  0
 34 35  2  0
 35 36  1  0
 36 37  1  0
 36 38  1  0
 36 39  1  0
 39 40  1  0
 39 41  1  0
 39 42  1  0
 42 43  1  6
 42 44  1  0
 44 45  1  0
 44 46  1  0
 44 47  1  0
 47 48  1  0
 47 49  1  0
 47 50  1  0
 50 51  1  0
 50 52  1  0
 50 53  1  0
 53 54  1  0
 53 55  1  0
 53 56  1  0
 56 57  1  0
 56 58  1  0
 34 59  1  0
 14 60  1  0
 60 61  1  0
 60 62  1  0
 60 63  1  0
 63 64  1  0
 63 65  1  0
  9  2  1  0
 59 15  2  0
 63  7  1  0
 29 18  1  0
 56 42  1  0
M  CHG  1  56   1
M  END
>  <UniqueID>  (80) 
490

>  <SMILES>  (80) 
c1ccc2c(c1)CCN(c1nc(N3CCOCC3)[nH]/c(=N/CC[C@H]3CCCC[NH2+]3)n1)C2

>  <Energy>  (80) 
77.77218736182232

>  <Genealogy>  (80) 
c1ccc2c(c1)CCN(c1nc(NCCC3CCCC[NH2+]3)nc(N3CCOCC3)n1)C2 (protonated)
c1ccc2c(c1)CCN(c1nc(N3CCOCC3)[nH]c(=NCCC3CCCC[NH2+]3)n1)C2 (tautomer)
c1ccc2c(c1)CCN(c1nc(N3CCOCC3)[nH]c(=NCC[C@H]3CCCC[NH2+]3)n1)C2 (chirality)
c1ccc2c(c1)CCN(c1nc(N3CCOCC3)[nH]/c(=N/CC[C@H]3CCCC[NH2+]3)n1)C2 (cis-trans isomerization)
c1ccc2c(c1)CCN(c1nc(N3CCOCC3)[nH]/c(=N/CC[C@H]3CCCC[NH2+]3)n1)C2 (3D coordinates assigned)
c1ccc2c(c1)CCN(c1nc(N3CCOCC3)[nH]/c(=N/CC[C@H]3CCCC[NH2+]3)n1)C2 (nonaromatic ring conformer: 77.77218736182232 kcal/mol)

>  <smiles>  (80) 
c1ccc2c(c1)CCN(c1nc(NCCC3CCCCN3)nc(N3CCOCC3)n1)C2

>  <score_type>  (80) 
oracle

>  <origin>  (80) 
autodockgpu

>  <m_score__min__energy>  (80) 
-10.529999999999999

>  <m_primary>  (80) 
energy

>  <meeko>  (80) 
{"free_energy": -9.2, "intermolecular_energy": -10.99, "internal_energy": -1.59, "cluster_size": 11, "cluster_id": 1, "rank_in_cluster": 7}

>  <energy>  (80) 
-7.39

>  <cluster_rmsd>  (80) 
0.88

>  <rmsd>  (80) 
270.93

>  <cluster>  (80) 
3

$$$$
