GPAYCMIUDLGOAY-UHFFFAOYNA-N
     RDKit          3D

 35 37  0  0  0  0  0  0  0  0999 V2000
  140.2030   71.7780  223.8900 S   0  0  0  0  0  0  0  0  0  0  0  0
  139.8190   70.2560  224.4160 C   0  0  0  0  0  0  0  0  0  0  0  0
  140.1200   69.8790  225.7520 C   0  0  0  0  0  0  0  0  0  0  0  0
  140.7890   70.7230  226.6690 C   0  0  0  0  0  0  0  0  0  0  0  0
  141.0690   70.2800  227.9660 C   0  0  0  0  0  0  0  0  0  0  0  0
  140.6880   69.0010  228.3700 C   0  0  0  0  0  0  0  0  0  0  0  0
  140.0240   68.1560  227.4800 C   0  0  0  0  0  0  0  0  0  0  0  0
  139.7410   68.5880  226.1780 C   0  0  0  0  0  0  0  0  0  0  0  0
  139.1000   67.7560  225.3280 N   0  0  0  0  0  0  0  0  0  0  0  0
  138.8310   68.1220  224.0530 C   0  0  0  0  0  0  0  0  0  0  0  0
  139.2140   69.3440  223.5720 N   0  0  0  0  0  0  0  0  0  0  0  0
  138.9580   69.6060  222.1380 C   0  0  0  0  0  0  0  0  0  0  0  0
  137.4520   69.6270  221.8100 C   0  0  0  0  0  0  0  0  0  0  0  0
  136.6280   70.6120  222.6620 C   0  0  0  0  0  0  0  0  0  0  0  0
  135.7610   69.9460  223.7070 C   0  0  0  0  0  0  0  0  0  0  0  0
  135.4750   70.5800  224.9280 C   0  0  0  0  0  0  0  0  0  0  0  0
  134.6840   69.9380  225.8820 C   0  0  0  0  0  0  0  0  0  0  0  0
  134.1580   68.6770  225.5980 C   0  0  0  0  0  0  0  0  0  0  0  0
  134.4020   68.0940  224.3950 N   0  0  0  0  0  0  0  0  0  0  0  0
  135.1720   68.6970  223.4500 C   0  0  0  0  0  0  0  0  0  0  0  0
  141.0911   71.7346  226.3601 H   0  0  0  0  0  0  0  0  0  0  0  0
  141.5921   70.9436  228.6703 H   0  0  0  0  0  0  0  0  0  0  0  0
  140.9110   68.6579  229.3910 H   0  0  0  0  0  0  0  0  0  0  0  0
  139.7221   67.1483  227.8016 H   0  0  0  0  0  0  0  0  0  0  0  0
  138.2951   67.4248  223.3921 H   0  0  0  0  0  0  0  0  0  0  0  0
  139.3919   70.5815  221.8731 H   0  0  0  0  0  0  0  0  0  0  0  0
  139.4186   68.7924  221.5585 H   0  0  0  0  0  0  0  0  0  0  0  0
  137.3342   69.9052  220.7523 H   0  0  0  0  0  0  0  0  0  0  0  0
  137.0680   68.6209  222.0344 H   0  0  0  0  0  0  0  0  0  0  0  0
  137.3242   71.2932  223.1732 H   0  0  0  0  0  0  0  0  0  0  0  0
  135.9496   71.1374  221.9737 H   0  0  0  0  0  0  0  0  0  0  0  0
  135.8752   71.5840  225.1323 H   0  0  0  0  0  0  0  0  0  0  0  0
  134.4772   70.4213  226.8483 H   0  0  0  0  0  0  0  0  0  0  0  0
  133.5458   68.1549  226.3481 H   0  0  0  0  0  0  0  0  0  0  0  0
  135.3343   68.2044  222.4800 H   0  0  0  0  0  0  0  0  0  0  0  0
  1  2  2  0
  2  3  1  0
  3  4  2  0
  4  5  1  0
  5  6  2  0
  6  7  1  0
  7  8  2  0
  8  9  1  0
  9 10  2  0
 10 11  1  0
 11 12  1  0
 12 13  1  0
 13 14  1  0
 14 15  1  0
 15 16  2  0
 16 17  1  0
 17 18  2  0
 18 19  1  0
 19 20  2  0
 11  2  1  0
 20 15  1  0
  8  3  1  0
  4 21  1  0
  5 22  1  0
  6 23  1  0
  7 24  1  0
 10 25  1  0
 12 26  1  0
 12 27  1  0
 13 28  1  0
 13 29  1  0
 14 30  1  0
 14 31  1  0
 16 32  1  0
 17 33  1  0
 18 34  1  0
 20 35  1  0
M  END
>  <UniqueID>  (1) 
488

>  <SMILES>  (1) 
S=c1c2ccccc2ncn1CCCc1cccnc1

>  <Energy>  (1) 
45.18153626428284

>  <Genealogy>  (1) 
S=c1c2ccccc2ncn1CCCc1cccnc1 (3D coordinates assigned)
S=c1c2ccccc2ncn1CCCc1cccnc1 (optimized conformer: 45.18153626428284 kcal/mol)

>  <smiles>  (1) 
S=c1c2ccccc2ncn1CCCc1cccnc1

>  <score_type>  (1) 
oracle

>  <origin>  (1) 
autodockgpu

>  <m_score__min__energy>  (1) 
-6.5599999999999996

>  <m_primary>  (1) 
energy

>  <meeko>  (1) 
{"free_energy": -6.19, "intermolecular_energy": -7.38, "internal_energy": -0.97, "cluster_size": 16, "cluster_id": 3, "rank_in_cluster": 11}

>  <energy>  (1) 
-6.56

>  <cluster_rmsd>  (1) 
0.0

>  <rmsd>  (1) 
273.45

>  <cluster>  (1) 
1

$$$$
GPAYCMIUDLGOAY-UHFFFAOYNA-N
     RDKit          3D

 35 37  0  0  0  0  0  0  0  0999 V2000
  140.3020   71.7690  223.8910 S   0  0  0  0  0  0  0  0  0  0  0  0
  139.8730   70.2590  224.4140 C   0  0  0  0  0  0  0  0  0  0  0  0
  140.1380   69.8790  225.7560 C   0  0  0  0  0  0  0  0  0  0  0  0
  140.8080   70.7110  226.6840 C   0  0  0  0  0  0  0  0  0  0  0  0
  141.0510   70.2670  227.9880 C   0  0  0  0  0  0  0  0  0  0  0  0
  140.6340   68.9980  228.3880 C   0  0  0  0  0  0  0  0  0  0  0  0
  139.9680   68.1650  227.4870 C   0  0  0  0  0  0  0  0  0  0  0  0
  139.7220   68.5990  226.1790 C   0  0  0  0  0  0  0  0  0  0  0  0
  139.0790   67.7790  225.3180 N   0  0  0  0  0  0  0  0  0  0  0  0
  138.8440   68.1460  224.0370 C   0  0  0  0  0  0  0  0  0  0  0  0
  139.2650   69.3570  223.5610 N   0  0  0  0  0  0  0  0  0  0  0  0
  139.0430   69.6200  222.1210 C   0  0  0  0  0  0  0  0  0  0  0  0
  137.5680   69.9360  221.8060 C   0  0  0  0  0  0  0  0  0  0  0  0
  136.8690   70.8260  222.8530 C   0  0  0  0  0  0  0  0  0  0  0  0
  135.9340   70.0760  223.7740 C   0  0  0  0  0  0  0  0  0  0  0  0
  135.4750   70.6500  224.9720 C   0  0  0  0  0  0  0  0  0  0  0  0
  134.6240   69.9300  225.8120 C   0  0  0  0  0  0  0  0  0  0  0  0
  134.2100   68.6520  225.4340 C   0  0  0  0  0  0  0  0  0  0  0  0
  134.6210   68.1260  224.2510 N   0  0  0  0  0  0  0  0  0  0  0  0
  135.4530   68.8050  223.4170 C   0  0  0  0  0  0  0  0  0  0  0  0
  141.1401   71.7140  226.3778 H   0  0  0  0  0  0  0  0  0  0  0  0
  141.5733   70.9218  228.7010 H   0  0  0  0  0  0  0  0  0  0  0  0
  140.8299   68.6530  229.4140 H   0  0  0  0  0  0  0  0  0  0  0  0
  139.6360   67.1658  227.8055 H   0  0  0  0  0  0  0  0  0  0  0  0
  138.3055   67.4591  223.3675 H   0  0  0  0  0  0  0  0  0  0  0  0
  139.6612   70.4781  221.8185 H   0  0  0  0  0  0  0  0  0  0  0  0
  139.3189   68.7113  221.5660 H   0  0  0  0  0  0  0  0  0  0  0  0
  137.5263   70.4504  220.8346 H   0  0  0  0  0  0  0  0  0  0  0  0
  137.0344   68.9741  221.8055 H   0  0  0  0  0  0  0  0  0  0  0  0
  137.6428   71.3109  223.4662 H   0  0  0  0  0  0  0  0  0  0  0  0
  136.2543   71.5484  222.2961 H   0  0  0  0  0  0  0  0  0  0  0  0
  135.7869   71.6681  225.2480 H   0  0  0  0  0  0  0  0  0  0  0  0
  134.2829   70.3657  226.7627 H   0  0  0  0  0  0  0  0  0  0  0  0
  133.5504   68.0702  226.0946 H   0  0  0  0  0  0  0  0  0  0  0  0
  135.7511   68.3569  222.4577 H   0  0  0  0  0  0  0  0  0  0  0  0
  1  2  2  0
  2  3  1  0
  3  4  2  0
  4  5  1  0
  5  6  2  0
  6  7  1  0
  7  8  2  0
  8  9  1  0
  9 10  2  0
 10 11  1  0
 11 12  1  0
 12 13  1  0
 13 14  1  0
 14 15  1  0
 15 16  2  0
 16 17  1  0
 17 18  2  0
 18 19  1  0
 19 20  2  0
 11  2  1  0
 20 15  1  0
  8  3  1  0
  4 21  1  0
  5 22  1  0
  6 23  1  0
  7 24  1  0
 10 25  1  0
 12 26  1  0
 12 27  1  0
 13 28  1  0
 13 29  1  0
 14 30  1  0
 14 31  1  0
 16 32  1  0
 17 33  1  0
 18 34  1  0
 20 35  1  0
M  END
>  <UniqueID>  (2) 
488

>  <SMILES>  (2) 
S=c1c2ccccc2ncn1CCCc1cccnc1

>  <Energy>  (2) 
45.18153626428284

>  <Genealogy>  (2) 
S=c1c2ccccc2ncn1CCCc1cccnc1 (3D coordinates assigned)
S=c1c2ccccc2ncn1CCCc1cccnc1 (optimized conformer: 45.18153626428284 kcal/mol)

>  <smiles>  (2) 
S=c1c2ccccc2ncn1CCCc1cccnc1

>  <score_type>  (2) 
oracle

>  <origin>  (2) 
autodockgpu

>  <m_score__min__energy>  (2) 
-6.5599999999999996

>  <m_primary>  (2) 
energy

>  <meeko>  (2) 
{"free_energy": -6.2, "intermolecular_energy": -7.39, "internal_energy": -1.0, "cluster_size": 16, "cluster_id": 3, "rank_in_cluster": 9}

>  <energy>  (2) 
-6.35

>  <cluster_rmsd>  (2) 
0.0

>  <rmsd>  (2) 
273.72

>  <cluster>  (2) 
2

$$$$
GPAYCMIUDLGOAY-UHFFFAOYNA-N
     RDKit          3D

 35 37  0  0  0  0  0  0  0  0999 V2000
  140.2800   71.7780  223.8740 S   0  0  0  0  0  0  0  0  0  0  0  0
  139.8660   70.2640  224.4010 C   0  0  0  0  0  0  0  0  0  0  0  0
  140.1190   69.8960  225.7490 C   0  0  0  0  0  0  0  0  0  0  0  0
  140.7660   70.7430  226.6800 C   0  0  0  0  0  0  0  0  0  0  0  0
  140.9990   70.3100  227.9890 C   0  0  0  0  0  0  0  0  0  0  0  0
  140.5940   69.0370  228.3920 C   0  0  0  0  0  0  0  0  0  0  0  0
  139.9510   68.1900  227.4870 C   0  0  0  0  0  0  0  0  0  0  0  0
  139.7160   68.6120  226.1740 C   0  0  0  0  0  0  0  0  0  0  0  0
  139.0950   67.7790  225.3100 N   0  0  0  0  0  0  0  0  0  0  0  0
  138.8710   68.1350  224.0240 C   0  0  0  0  0  0  0  0  0  0  0  0
  139.2810   69.3500  223.5450 N   0  0  0  0  0  0  0  0  0  0  0  0
  139.0740   69.6010  222.1010 C   0  0  0  0  0  0  0  0  0  0  0  0
  137.6070   69.9420  221.7740 C   0  0  0  0  0  0  0  0  0  0  0  0
  136.9050   70.8190  222.8300 C   0  0  0  0  0  0  0  0  0  0  0  0
  135.9720   70.0560  223.7420 C   0  0  0  0  0  0  0  0  0  0  0  0
  135.5330   70.6040  224.9600 C   0  0  0  0  0  0  0  0  0  0  0  0
  134.6840   69.8730  225.7910 C   0  0  0  0  0  0  0  0  0  0  0  0
  134.2520   68.6090  225.3870 C   0  0  0  0  0  0  0  0  0  0  0  0
  134.6440   68.1080  224.1860 N   0  0  0  0  0  0  0  0  0  0  0  0
  135.4740   68.7990  223.3600 C   0  0  0  0  0  0  0  0  0  0  0  0
  141.0878   71.7487  226.3718 H   0  0  0  0  0  0  0  0  0  0  0  0
  141.5038   70.9759  228.7043 H   0  0  0  0  0  0  0  0  0  0  0  0
  140.7812   68.7007  229.4225 H   0  0  0  0  0  0  0  0  0  0  0  0
  139.6284   67.1883  227.8073 H   0  0  0  0  0  0  0  0  0  0  0  0
  138.3507   67.4364  223.3522 H   0  0  0  0  0  0  0  0  0  0  0  0
  139.7107   70.4435  221.7930 H   0  0  0  0  0  0  0  0  0  0  0  0
  139.3363   68.6814  221.5573 H   0  0  0  0  0  0  0  0  0  0  0  0
  137.5843   70.4767  220.8130 H   0  0  0  0  0  0  0  0  0  0  0  0
  137.0618   68.9870  221.7472 H   0  0  0  0  0  0  0  0  0  0  0  0
  137.6770   71.2996  223.4489 H   0  0  0  0  0  0  0  0  0  0  0  0
  136.2887   71.5459  222.2807 H   0  0  0  0  0  0  0  0  0  0  0  0
  135.8597   71.6111  225.2582 H   0  0  0  0  0  0  0  0  0  0  0  0
  134.3581   70.2890  226.7557 H   0  0  0  0  0  0  0  0  0  0  0  0
  133.5939   68.0179  226.0409 H   0  0  0  0  0  0  0  0  0  0  0  0
  135.7573   68.3714  222.3869 H   0  0  0  0  0  0  0  0  0  0  0  0
  1  2  2  0
  2  3  1  0
  3  4  2  0
  4  5  1  0
  5  6  2  0
  6  7  1  0
  7  8  2  0
  8  9  1  0
  9 10  2  0
 10 11  1  0
 11 12  1  0
 12 13  1  0
 13 14  1  0
 14 15  1  0
 15 16  2  0
 16 17  1  0
 17 18  2  0
 18 19  1  0
 19 20  2  0
 11  2  1  0
 20 15  1  0
  8  3  1  0
  4 21  1  0
  5 22  1  0
  6 23  1  0
  7 24  1  0
 10 25  1  0
 12 26  1  0
 12 27  1  0
 13 28  1  0
 13 29  1  0
 14 30  1  0
 14 31  1  0
 16 32  1  0
 17 33  1  0
 18 34  1  0
 20 35  1  0
M  END
>  <UniqueID>  (3) 
488

>  <SMILES>  (3) 
S=c1c2ccccc2ncn1CCCc1cccnc1

>  <Energy>  (3) 
45.18153626428284

>  <Genealogy>  (3) 
S=c1c2ccccc2ncn1CCCc1cccnc1 (3D coordinates assigned)
S=c1c2ccccc2ncn1CCCc1cccnc1 (optimized conformer: 45.18153626428284 kcal/mol)

>  <smiles>  (3) 
S=c1c2ccccc2ncn1CCCc1cccnc1

>  <score_type>  (3) 
oracle

>  <origin>  (3) 
autodockgpu

>  <m_score__min__energy>  (3) 
-6.5599999999999996

>  <m_primary>  (3) 
energy

>  <meeko>  (3) 
{"free_energy": -6.17, "intermolecular_energy": -7.36, "internal_energy": -1.02, "cluster_size": 16, "cluster_id": 3, "rank_in_cluster": 12}

>  <energy>  (3) 
-6.22

>  <cluster_rmsd>  (3) 
0.0

>  <rmsd>  (3) 
272.93

>  <cluster>  (3) 
3

$$$$
GPAYCMIUDLGOAY-UHFFFAOYNA-N
     RDKit          3D

 35 37  0  0  0  0  0  0  0  0999 V2000
  140.2700   71.7700  223.8830 S   0  0  0  0  0  0  0  0  0  0  0  0
  139.8480   70.2560  224.4030 C   0  0  0  0  0  0  0  0  0  0  0  0
  140.1170   69.8740  225.7440 C   0  0  0  0  0  0  0  0  0  0  0  0
  140.7860   70.7050  226.6730 C   0  0  0  0  0  0  0  0  0  0  0  0
  141.0340   70.2580  227.9740 C   0  0  0  0  0  0  0  0  0  0  0  0
  140.6220   68.9870  228.3720 C   0  0  0  0  0  0  0  0  0  0  0  0
  139.9570   68.1550  227.4700 C   0  0  0  0  0  0  0  0  0  0  0  0
  139.7060   68.5910  226.1640 C   0  0  0  0  0  0  0  0  0  0  0  0
  139.0640   67.7720  225.3030 N   0  0  0  0  0  0  0  0  0  0  0  0
  138.8240   68.1420  224.0230 C   0  0  0  0  0  0  0  0  0  0  0  0
  139.2400   69.3560  223.5490 N   0  0  0  0  0  0  0  0  0  0  0  0
  139.0140   69.6220  222.1100 C   0  0  0  0  0  0  0  0  0  0  0  0
  137.5300   69.8920  221.7940 C   0  0  0  0  0  0  0  0  0  0  0  0
  136.8150   70.7990  222.8150 C   0  0  0  0  0  0  0  0  0  0  0  0
  135.8980   70.0570  223.7610 C   0  0  0  0  0  0  0  0  0  0  0  0
  135.4780   70.6350  224.9710 C   0  0  0  0  0  0  0  0  0  0  0  0
  134.6430   69.9230  225.8340 C   0  0  0  0  0  0  0  0  0  0  0  0
  134.2060   68.6500  225.4670 C   0  0  0  0  0  0  0  0  0  0  0  0
  134.5800   68.1200  224.2730 N   0  0  0  0  0  0  0  0  0  0  0  0
  135.3950   68.7920  223.4170 C   0  0  0  0  0  0  0  0  0  0  0  0
  141.1134   71.7103  226.3694 H   0  0  0  0  0  0  0  0  0  0  0  0
  141.5568   70.9122  228.6872 H   0  0  0  0  0  0  0  0  0  0  0  0
  140.8210   68.6399  229.3967 H   0  0  0  0  0  0  0  0  0  0  0  0
  139.6293   67.1538  227.7865 H   0  0  0  0  0  0  0  0  0  0  0  0
  138.2857   67.4553  223.3532 H   0  0  0  0  0  0  0  0  0  0  0  0
  139.6047   70.5019  221.8154 H   0  0  0  0  0  0  0  0  0  0  0  0
  139.3214   68.7273  221.5488 H   0  0  0  0  0  0  0  0  0  0  0  0
  137.4707   70.3727  220.8064 H   0  0  0  0  0  0  0  0  0  0  0  0
  137.0199   68.9180  221.8289 H   0  0  0  0  0  0  0  0  0  0  0  0
  137.5797   71.3186  223.4110 H   0  0  0  0  0  0  0  0  0  0  0  0
  136.1843   71.4916  222.2384 H   0  0  0  0  0  0  0  0  0  0  0  0
  135.8076   71.6498  225.2385 H   0  0  0  0  0  0  0  0  0  0  0  0
  134.3327   70.3614  226.7939 H   0  0  0  0  0  0  0  0  0  0  0  0
  133.5581   68.0748  226.1448 H   0  0  0  0  0  0  0  0  0  0  0  0
  135.6619   68.3421  222.4494 H   0  0  0  0  0  0  0  0  0  0  0  0
  1  2  2  0
  2  3  1  0
  3  4  2  0
  4  5  1  0
  5  6  2  0
  6  7  1  0
  7  8  2  0
  8  9  1  0
  9 10  2  0
 10 11  1  0
 11 12  1  0
 12 13  1  0
 13 14  1  0
 14 15  1  0
 15 16  2  0
 16 17  1  0
 17 18  2  0
 18 19  1  0
 19 20  2  0
 11  2  1  0
 20 15  1  0
  8  3  1  0
  4 21  1  0
  5 22  1  0
  6 23  1  0
  7 24  1  0
 10 25  1  0
 12 26  1  0
 12 27  1  0
 13 28  1  0
 13 29  1  0
 14 30  1  0
 14 31  1  0
 16 32  1  0
 17 33  1  0
 18 34  1  0
 20 35  1  0
M  END
>  <UniqueID>  (4) 
488

>  <SMILES>  (4) 
S=c1c2ccccc2ncn1CCCc1cccnc1

>  <Energy>  (4) 
45.18153626428284

>  <Genealogy>  (4) 
S=c1c2ccccc2ncn1CCCc1cccnc1 (3D coordinates assigned)
S=c1c2ccccc2ncn1CCCc1cccnc1 (optimized conformer: 45.18153626428284 kcal/mol)

>  <smiles>  (4) 
S=c1c2ccccc2ncn1CCCc1cccnc1

>  <score_type>  (4) 
oracle

>  <origin>  (4) 
autodockgpu

>  <m_score__min__energy>  (4) 
-6.5599999999999996

>  <m_primary>  (4) 
energy

>  <meeko>  (4) 
{"free_energy": -6.19, "intermolecular_energy": -7.38, "internal_energy": -1.0, "cluster_size": 16, "cluster_id": 3, "rank_in_cluster": 10}

>  <energy>  (4) 
-6.22

>  <cluster_rmsd>  (4) 
0.06

>  <rmsd>  (4) 
272.89

>  <cluster>  (4) 
3

$$$$
GPAYCMIUDLGOAY-UHFFFAOYNA-N
     RDKit          3D

 35 37  0  0  0  0  0  0  0  0999 V2000
  140.3200   71.7960  223.9180 S   0  0  0  0  0  0  0  0  0  0  0  0
  139.9230   70.2720  224.4270 C   0  0  0  0  0  0  0  0  0  0  0  0
  140.1750   69.8930  225.7720 C   0  0  0  0  0  0  0  0  0  0  0  0
  140.8060   70.7380  226.7150 C   0  0  0  0  0  0  0  0  0  0  0  0
  141.0400   70.2940  228.0210 C   0  0  0  0  0  0  0  0  0  0  0  0
  140.6490   69.0120  228.4080 C   0  0  0  0  0  0  0  0  0  0  0  0
  140.0220   68.1670  227.4920 C   0  0  0  0  0  0  0  0  0  0  0  0
  139.7860   68.6000  226.1820 C   0  0  0  0  0  0  0  0  0  0  0  0
  139.1800   67.7680  225.3070 N   0  0  0  0  0  0  0  0  0  0  0  0
  138.9560   68.1350  224.0230 C   0  0  0  0  0  0  0  0  0  0  0  0
  139.3530   69.3590  223.5600 N   0  0  0  0  0  0  0  0  0  0  0  0
  139.1490   69.6230  222.1180 C   0  0  0  0  0  0  0  0  0  0  0  0
  137.9660   70.5780  221.8610 C   0  0  0  0  0  0  0  0  0  0  0  0
  136.6060   69.8750  221.6820 C   0  0  0  0  0  0  0  0  0  0  0  0
  135.9190   69.5240  222.9830 C   0  0  0  0  0  0  0  0  0  0  0  0
  136.1180   70.2930  224.1420 C   0  0  0  0  0  0  0  0  0  0  0  0
  135.4830   69.9390  225.3340 C   0  0  0  0  0  0  0  0  0  0  0  0
  134.6280   68.8360  225.3530 C   0  0  0  0  0  0  0  0  0  0  0  0
  134.4060   68.1280  224.2150 N   0  0  0  0  0  0  0  0  0  0  0  0
  135.0150   68.4510  223.0420 C   0  0  0  0  0  0  0  0  0  0  0  0
  141.1149   71.7515  226.4193 H   0  0  0  0  0  0  0  0  0  0  0  0
  141.5341   70.9582  228.7453 H   0  0  0  0  0  0  0  0  0  0  0  0
  140.8352   68.6673  229.4359 H   0  0  0  0  0  0  0  0  0  0  0  0
  139.7122   67.1575  227.8001 H   0  0  0  0  0  0  0  0  0  0  0  0
  138.4467   67.4376  223.3416 H   0  0  0  0  0  0  0  0  0  0  0  0
  140.0642   70.0748  221.7079 H   0  0  0  0  0  0  0  0  0  0  0  0
  138.9210   68.6645  221.6288 H   0  0  0  0  0  0  0  0  0  0  0  0
  137.8876   71.2660  222.7157 H   0  0  0  0  0  0  0  0  0  0  0  0
  138.1795   71.0935  220.9130 H   0  0  0  0  0  0  0  0  0  0  0  0
  135.9442   70.5424  221.1105 H   0  0  0  0  0  0  0  0  0  0  0  0
  136.8040   68.9268  221.1608 H   0  0  0  0  0  0  0  0  0  0  0  0
  136.7747   71.1749  224.1102 H   0  0  0  0  0  0  0  0  0  0  0  0
  135.6550   70.5239  226.2496 H   0  0  0  0  0  0  0  0  0  0  0  0
  134.1336   68.5398  226.2899 H   0  0  0  0  0  0  0  0  0  0  0  0
  134.7980   67.8683  222.1346 H   0  0  0  0  0  0  0  0  0  0  0  0
  1  2  2  0
  2  3  1  0
  3  4  2  0
  4  5  1  0
  5  6  2  0
  6  7  1  0
  7  8  2  0
  8  9  1  0
  9 10  2  0
 10 11  1  0
 11 12  1  0
 12 13  1  0
 13 14  1  0
 14 15  1  0
 15 16  2  0
 16 17  1  0
 17 18  2  0
 18 19  1  0
 19 20  2  0
 11  2  1  0
 20 15  1  0
  8  3  1  0
  4 21  1  0
  5 22  1  0
  6 23  1  0
  7 24  1  0
 10 25  1  0
 12 26  1  0
 12 27  1  0
 13 28  1  0
 13 29  1  0
 14 30  1  0
 14 31  1  0
 16 32  1  0
 17 33  1  0
 18 34  1  0
 20 35  1  0
M  END
>  <UniqueID>  (5) 
488

>  <SMILES>  (5) 
S=c1c2ccccc2ncn1CCCc1cccnc1

>  <Energy>  (5) 
45.18153626428284

>  <Genealogy>  (5) 
S=c1c2ccccc2ncn1CCCc1cccnc1 (3D coordinates assigned)
S=c1c2ccccc2ncn1CCCc1cccnc1 (optimized conformer: 45.18153626428284 kcal/mol)

>  <smiles>  (5) 
S=c1c2ccccc2ncn1CCCc1cccnc1

>  <score_type>  (5) 
oracle

>  <origin>  (5) 
autodockgpu

>  <m_score__min__energy>  (5) 
-6.5599999999999996

>  <m_primary>  (5) 
energy

>  <meeko>  (5) 
{"free_energy": -6.06, "intermolecular_energy": -7.25, "internal_energy": -1.02, "cluster_size": 16, "cluster_id": 3, "rank_in_cluster": 14}

>  <energy>  (5) 
-6.22

>  <cluster_rmsd>  (5) 
0.09

>  <rmsd>  (5) 
272.89

>  <cluster>  (5) 
3

$$$$
GPAYCMIUDLGOAY-UHFFFAOYNA-N
     RDKit          3D

 35 37  0  0  0  0  0  0  0  0999 V2000
  140.2640   71.7720  223.8930 S   0  0  0  0  0  0  0  0  0  0  0  0
  139.8560   70.2570  224.4210 C   0  0  0  0  0  0  0  0  0  0  0  0
  140.1330   69.8840  225.7630 C   0  0  0  0  0  0  0  0  0  0  0  0
  140.7970   70.7250  226.6860 C   0  0  0  0  0  0  0  0  0  0  0  0
  141.0530   70.2870  227.9880 C   0  0  0  0  0  0  0  0  0  0  0  0
  140.6530   69.0140  228.3930 C   0  0  0  0  0  0  0  0  0  0  0  0
  139.9930   68.1720  227.4970 C   0  0  0  0  0  0  0  0  0  0  0  0
  139.7340   68.5990  226.1900 C   0  0  0  0  0  0  0  0  0  0  0  0
  139.0970   67.7700  225.3340 N   0  0  0  0  0  0  0  0  0  0  0  0
  138.8500   68.1320  224.0530 C   0  0  0  0  0  0  0  0  0  0  0  0
  139.2540   69.3470  223.5720 N   0  0  0  0  0  0  0  0  0  0  0  0
  139.0220   69.6050  222.1330 C   0  0  0  0  0  0  0  0  0  0  0  0
  137.6160   70.1740  221.8630 C   0  0  0  0  0  0  0  0  0  0  0  0
  137.0020   70.9470  223.0470 C   0  0  0  0  0  0  0  0  0  0  0  0
  136.0100   70.1450  223.8580 C   0  0  0  0  0  0  0  0  0  0  0  0
  135.4350   70.6670  225.0290 C   0  0  0  0  0  0  0  0  0  0  0  0
  134.5320   69.9000  225.7680 C   0  0  0  0  0  0  0  0  0  0  0  0
  134.1850   68.6270  225.3140 C   0  0  0  0  0  0  0  0  0  0  0  0
  134.7100   68.1510  224.1550 N   0  0  0  0  0  0  0  0  0  0  0  0
  135.5940   68.8770  223.4200 C   0  0  0  0  0  0  0  0  0  0  0  0
  141.1144   71.7317  226.3766 H   0  0  0  0  0  0  0  0  0  0  0  0
  141.5722   70.9492  228.6965 H   0  0  0  0  0  0  0  0  0  0  0  0
  140.8577   68.6735  229.4188 H   0  0  0  0  0  0  0  0  0  0  0  0
  139.6754   67.1694  227.8193 H   0  0  0  0  0  0  0  0  0  0  0  0
  138.3156   67.4375  223.3881 H   0  0  0  0  0  0  0  0  0  0  0  0
  139.7710   70.3279  221.7775 H   0  0  0  0  0  0  0  0  0  0  0  0
  139.1064   68.6464  221.6002 H   0  0  0  0  0  0  0  0  0  0  0  0
  137.6809   70.8570  221.0032 H   0  0  0  0  0  0  0  0  0  0  0  0
  136.9592   69.3113  221.6778 H   0  0  0  0  0  0  0  0  0  0  0  0
  137.8178   71.2635  223.7135 H   0  0  0  0  0  0  0  0  0  0  0  0
  136.4497   71.7968  222.6195 H   0  0  0  0  0  0  0  0  0  0  0  0
  135.6966   71.6815  225.3641 H   0  0  0  0  0  0  0  0  0  0  0  0
  134.0986   70.2953  226.6986 H   0  0  0  0  0  0  0  0  0  0  0  0
  133.4855   68.0082  225.8952 H   0  0  0  0  0  0  0  0  0  0  0  0
  135.9857   68.4688  222.4766 H   0  0  0  0  0  0  0  0  0  0  0  0
  1  2  2  0
  2  3  1  0
  3  4  2  0
  4  5  1  0
  5  6  2  0
  6  7  1  0
  7  8  2  0
  8  9  1  0
  9 10  2  0
 10 11  1  0
 11 12  1  0
 12 13  1  0
 13 14  1  0
 14 15  1  0
 15 16  2  0
 16 17  1  0
 17 18  2  0
 18 19  1  0
 19 20  2  0
 11  2  1  0
 20 15  1  0
  8  3  1  0
  4 21  1  0
  5 22  1  0
  6 23  1  0
  7 24  1  0
 10 25  1  0
 12 26  1  0
 12 27  1  0
 13 28  1  0
 13 29  1  0
 14 30  1  0
 14 31  1  0
 16 32  1  0
 17 33  1  0
 18 34  1  0
 20 35  1  0
M  END
>  <UniqueID>  (6) 
488

>  <SMILES>  (6) 
S=c1c2ccccc2ncn1CCCc1cccnc1

>  <Energy>  (6) 
45.18153626428284

>  <Genealogy>  (6) 
S=c1c2ccccc2ncn1CCCc1cccnc1 (3D coordinates assigned)
S=c1c2ccccc2ncn1CCCc1cccnc1 (optimized conformer: 45.18153626428284 kcal/mol)

>  <smiles>  (6) 
S=c1c2ccccc2ncn1CCCc1cccnc1

>  <score_type>  (6) 
oracle

>  <origin>  (6) 
autodockgpu

>  <m_score__min__energy>  (6) 
-6.5599999999999996

>  <m_primary>  (6) 
energy

>  <meeko>  (6) 
{"free_energy": -6.22, "intermolecular_energy": -7.41, "internal_energy": -0.97, "cluster_size": 16, "cluster_id": 3, "rank_in_cluster": 5}

>  <energy>  (6) 
-6.22

>  <cluster_rmsd>  (6) 
0.05

>  <rmsd>  (6) 
272.91

>  <cluster>  (6) 
3

$$$$
GPAYCMIUDLGOAY-UHFFFAOYNA-N
     RDKit          3D

 35 37  0  0  0  0  0  0  0  0999 V2000
  140.3210   71.7600  223.8750 S   0  0  0  0  0  0  0  0  0  0  0  0
  139.9140   70.2400  224.3890 C   0  0  0  0  0  0  0  0  0  0  0  0
  140.1770   69.8580  225.7300 C   0  0  0  0  0  0  0  0  0  0  0  0
  140.8300   70.6950  226.6660 C   0  0  0  0  0  0  0  0  0  0  0  0
  141.0740   70.2480  227.9680 C   0  0  0  0  0  0  0  0  0  0  0  0
  140.6740   68.9710  228.3600 C   0  0  0  0  0  0  0  0  0  0  0  0
  140.0260   68.1330  227.4520 C   0  0  0  0  0  0  0  0  0  0  0  0
  139.7790   68.5690  226.1440 C   0  0  0  0  0  0  0  0  0  0  0  0
  139.1530   67.7440  225.2770 N   0  0  0  0  0  0  0  0  0  0  0  0
  138.9180   68.1140  223.9960 C   0  0  0  0  0  0  0  0  0  0  0  0
  139.3230   69.3340  223.5280 N   0  0  0  0  0  0  0  0  0  0  0  0
  139.1040   69.6010  222.0880 C   0  0  0  0  0  0  0  0  0  0  0  0
  137.9250   70.5640  221.8460 C   0  0  0  0  0  0  0  0  0  0  0  0
  136.5590   69.8700  221.6780 C   0  0  0  0  0  0  0  0  0  0  0  0
  135.8850   69.5140  222.9840 C   0  0  0  0  0  0  0  0  0  0  0  0
  136.1130   70.2650  224.1500 C   0  0  0  0  0  0  0  0  0  0  0  0
  135.4900   69.9070  225.3460 C   0  0  0  0  0  0  0  0  0  0  0  0
  134.6170   68.8180  225.3640 C   0  0  0  0  0  0  0  0  0  0  0  0
  134.3680   68.1280  224.2210 N   0  0  0  0  0  0  0  0  0  0  0  0
  134.9650   68.4550  223.0430 C   0  0  0  0  0  0  0  0  0  0  0  0
  141.1479   71.7047  226.3668 H   0  0  0  0  0  0  0  0  0  0  0  0
  141.5839   70.9067  228.6865 H   0  0  0  0  0  0  0  0  0  0  0  0
  140.8694   68.6242  229.3855 H   0  0  0  0  0  0  0  0  0  0  0  0
  139.7082   67.1272  227.7641 H   0  0  0  0  0  0  0  0  0  0  0  0
  138.3929   67.4225  223.3207 H   0  0  0  0  0  0  0  0  0  0  0  0
  140.0175   70.0470  221.6677 H   0  0  0  0  0  0  0  0  0  0  0  0
  138.8639   68.6447  221.6004 H   0  0  0  0  0  0  0  0  0  0  0  0
  137.8593   71.2495  222.7038 H   0  0  0  0  0  0  0  0  0  0  0  0
  138.1325   71.0816  220.8978 H   0  0  0  0  0  0  0  0  0  0  0  0
  135.8946   70.5450  221.1187 H   0  0  0  0  0  0  0  0  0  0  0  0
  136.7457   68.9243  221.1482 H   0  0  0  0  0  0  0  0  0  0  0  0
  136.7837   71.1364  224.1196 H   0  0  0  0  0  0  0  0  0  0  0  0
  135.6850   70.4776  226.2660 H   0  0  0  0  0  0  0  0  0  0  0  0
  134.1306   68.5186  226.3041 H   0  0  0  0  0  0  0  0  0  0  0  0
  134.7257   67.8868  222.1321 H   0  0  0  0  0  0  0  0  0  0  0  0
  1  2  2  0
  2  3  1  0
  3  4  2  0
  4  5  1  0
  5  6  2  0
  6  7  1  0
  7  8  2  0
  8  9  1  0
  9 10  2  0
 10 11  1  0
 11 12  1  0
 12 13  1  0
 13 14  1  0
 14 15  1  0
 15 16  2  0
 16 17  1  0
 17 18  2  0
 18 19  1  0
 19 20  2  0
 11  2  1  0
 20 15  1  0
  8  3  1  0
  4 21  1  0
  5 22  1  0
  6 23  1  0
  7 24  1  0
 10 25  1  0
 12 26  1  0
 12 27  1  0
 13 28  1  0
 13 29  1  0
 14 30  1  0
 14 31  1  0
 16 32  1  0
 17 33  1  0
 18 34  1  0
 20 35  1  0
M  END
>  <UniqueID>  (7) 
488

>  <SMILES>  (7) 
S=c1c2ccccc2ncn1CCCc1cccnc1

>  <Energy>  (7) 
45.18153626428284

>  <Genealogy>  (7) 
S=c1c2ccccc2ncn1CCCc1cccnc1 (3D coordinates assigned)
S=c1c2ccccc2ncn1CCCc1cccnc1 (optimized conformer: 45.18153626428284 kcal/mol)

>  <smiles>  (7) 
S=c1c2ccccc2ncn1CCCc1cccnc1

>  <score_type>  (7) 
oracle

>  <origin>  (7) 
autodockgpu

>  <m_score__min__energy>  (7) 
-6.5599999999999996

>  <m_primary>  (7) 
energy

>  <meeko>  (7) 
{"free_energy": -6.05, "intermolecular_energy": -7.25, "internal_energy": -1.02, "cluster_size": 16, "cluster_id": 3, "rank_in_cluster": 15}

>  <energy>  (7) 
-6.22

>  <cluster_rmsd>  (7) 
0.08

>  <rmsd>  (7) 
272.92

>  <cluster>  (7) 
3

$$$$
GPAYCMIUDLGOAY-UHFFFAOYNA-N
     RDKit          3D

 35 37  0  0  0  0  0  0  0  0999 V2000
  140.2570   71.7720  223.8810 S   0  0  0  0  0  0  0  0  0  0  0  0
  139.8520   70.2560  224.4060 C   0  0  0  0  0  0  0  0  0  0  0  0
  140.1230   69.8820  225.7490 C   0  0  0  0  0  0  0  0  0  0  0  0
  140.7810   70.7240  226.6760 C   0  0  0  0  0  0  0  0  0  0  0  0
  141.0320   70.2850  227.9790 C   0  0  0  0  0  0  0  0  0  0  0  0
  140.6340   69.0100  228.3810 C   0  0  0  0  0  0  0  0  0  0  0  0
  139.9800   68.1670  227.4810 C   0  0  0  0  0  0  0  0  0  0  0  0
  139.7260   68.5950  226.1730 C   0  0  0  0  0  0  0  0  0  0  0  0
  139.0950   67.7650  225.3140 N   0  0  0  0  0  0  0  0  0  0  0  0
  138.8530   68.1280  224.0320 C   0  0  0  0  0  0  0  0  0  0  0  0
  139.2560   69.3450  223.5540 N   0  0  0  0  0  0  0  0  0  0  0  0
  139.0300   69.6030  222.1140 C   0  0  0  0  0  0  0  0  0  0  0  0
  137.5630   69.9670  221.8110 C   0  0  0  0  0  0  0  0  0  0  0  0
  136.8880   70.8420  222.8860 C   0  0  0  0  0  0  0  0  0  0  0  0
  135.9370   70.0860  223.7870 C   0  0  0  0  0  0  0  0  0  0  0  0
  135.4400   70.6620  224.9680 C   0  0  0  0  0  0  0  0  0  0  0  0
  134.5750   69.9370  225.7900 C   0  0  0  0  0  0  0  0  0  0  0  0
  134.1860   68.6520  225.4100 C   0  0  0  0  0  0  0  0  0  0  0  0
  134.6350   68.1240  224.2420 N   0  0  0  0  0  0  0  0  0  0  0  0
  135.4810   68.8080  223.4260 C   0  0  0  0  0  0  0  0  0  0  0  0
  141.0975   71.7318  226.3690 H   0  0  0  0  0  0  0  0  0  0  0  0
  141.5457   70.9480  228.6907 H   0  0  0  0  0  0  0  0  0  0  0  0
  140.8355   68.6689  229.4072 H   0  0  0  0  0  0  0  0  0  0  0  0
  139.6633   67.1633  227.8008 H   0  0  0  0  0  0  0  0  0  0  0  0
  138.3236   67.4328  223.3638 H   0  0  0  0  0  0  0  0  0  0  0  0
  139.6744   70.4366  221.7980 H   0  0  0  0  0  0  0  0  0  0  0  0
  139.2698   68.6810  221.5640 H   0  0  0  0  0  0  0  0  0  0  0  0
  137.5342   70.5121  220.8560 H   0  0  0  0  0  0  0  0  0  0  0  0
  137.0045   69.0198  221.7816 H   0  0  0  0  0  0  0  0  0  0  0  0
  137.6744   71.2898  223.5113 H   0  0  0  0  0  0  0  0  0  0  0  0
  136.2898   71.5957  222.3531 H   0  0  0  0  0  0  0  0  0  0  0  0
  135.7327   71.6854  225.2455 H   0  0  0  0  0  0  0  0  0  0  0  0
  134.2037   70.3747  226.7283 H   0  0  0  0  0  0  0  0  0  0  0  0
  133.5157   68.0666  226.0565 H   0  0  0  0  0  0  0  0  0  0  0  0
  135.8099   68.3576  222.4779 H   0  0  0  0  0  0  0  0  0  0  0  0
  1  2  2  0
  2  3  1  0
  3  4  2  0
  4  5  1  0
  5  6  2  0
  6  7  1  0
  7  8  2  0
  8  9  1  0
  9 10  2  0
 10 11  1  0
 11 12  1  0
 12 13  1  0
 13 14  1  0
 14 15  1  0
 15 16  2  0
 16 17  1  0
 17 18  2  0
 18 19  1  0
 19 20  2  0
 11  2  1  0
 20 15  1  0
  8  3  1  0
  4 21  1  0
  5 22  1  0
  6 23  1  0
  7 24  1  0
 10 25  1  0
 12 26  1  0
 12 27  1  0
 13 28  1  0
 13 29  1  0
 14 30  1  0
 14 31  1  0
 16 32  1  0
 17 33  1  0
 18 34  1  0
 20 35  1  0
M  END
>  <UniqueID>  (8) 
488

>  <SMILES>  (8) 
S=c1c2ccccc2ncn1CCCc1cccnc1

>  <Energy>  (8) 
45.18153626428284

>  <Genealogy>  (8) 
S=c1c2ccccc2ncn1CCCc1cccnc1 (3D coordinates assigned)
S=c1c2ccccc2ncn1CCCc1cccnc1 (optimized conformer: 45.18153626428284 kcal/mol)

>  <smiles>  (8) 
S=c1c2ccccc2ncn1CCCc1cccnc1

>  <score_type>  (8) 
oracle

>  <origin>  (8) 
autodockgpu

>  <m_score__min__energy>  (8) 
-6.5599999999999996

>  <m_primary>  (8) 
energy

>  <meeko>  (8) 
{"free_energy": -6.21, "intermolecular_energy": -7.41, "internal_energy": -0.99, "cluster_size": 16, "cluster_id": 3, "rank_in_cluster": 6}

>  <energy>  (8) 
-6.21

>  <cluster_rmsd>  (8) 
0.07

>  <rmsd>  (8) 
272.89

>  <cluster>  (8) 
3

$$$$
GPAYCMIUDLGOAY-UHFFFAOYNA-N
     RDKit          3D

 35 37  0  0  0  0  0  0  0  0999 V2000
  142.7990   71.9400  220.6470 S   0  0  0  0  0  0  0  0  0  0  0  0
  141.7520   73.1160  221.1600 C   0  0  0  0  0  0  0  0  0  0  0  0
  141.9740   74.4660  220.7820 C   0  0  0  0  0  0  0  0  0  0  0  0
  143.0880   74.8910  220.0210 C   0  0  0  0  0  0  0  0  0  0  0  0
  143.2540   76.2410  219.6990 C   0  0  0  0  0  0  0  0  0  0  0  0
  142.3200   77.1860  220.1240 C   0  0  0  0  0  0  0  0  0  0  0  0
  141.2120   76.7840  220.8720 C   0  0  0  0  0  0  0  0  0  0  0  0
  141.0380   75.4350  221.2030 C   0  0  0  0  0  0  0  0  0  0  0  0
  139.9620   75.0640  221.9310 N   0  0  0  0  0  0  0  0  0  0  0  0
  139.7680   73.7750  222.2960 C   0  0  0  0  0  0  0  0  0  0  0  0
  140.6660   72.8010  221.9550 N   0  0  0  0  0  0  0  0  0  0  0  0
  140.4100   71.4440  222.4860 C   0  0  0  0  0  0  0  0  0  0  0  0
  139.5690   71.4720  223.7770 C   0  0  0  0  0  0  0  0  0  0  0  0
  140.3840   71.2870  225.0730 C   0  0  0  0  0  0  0  0  0  0  0  0
  140.2240   69.9260  225.7120 C   0  0  0  0  0  0  0  0  0  0  0  0
  140.9090   69.5910  226.8930 C   0  0  0  0  0  0  0  0  0  0  0  0
  140.7560   68.3230  227.4550 C   0  0  0  0  0  0  0  0  0  0  0  0
  139.8930   67.4070  226.8510 C   0  0  0  0  0  0  0  0  0  0  0  0
  139.2000   67.7580  225.7370 N   0  0  0  0  0  0  0  0  0  0  0  0
  139.3340   68.9860  225.1680 C   0  0  0  0  0  0  0  0  0  0  0  0
  143.8294   74.1534  219.6800 H   0  0  0  0  0  0  0  0  0  0  0  0
  144.1251   76.5597  219.1078 H   0  0  0  0  0  0  0  0  0  0  0  0
  142.4565   78.2475  219.8698 H   0  0  0  0  0  0  0  0  0  0  0  0
  140.4735   77.5294  221.2022 H   0  0  0  0  0  0  0  0  0  0  0  0
  138.8732   73.5062  222.8766 H   0  0  0  0  0  0  0  0  0  0  0  0
  139.8704   70.8618  221.7245 H   0  0  0  0  0  0  0  0  0  0  0  0
  141.3814   70.9870  222.7261 H   0  0  0  0  0  0  0  0  0  0  0  0
  139.0533   72.4421  223.8305 H   0  0  0  0  0  0  0  0  0  0  0  0
  138.8756   70.6201  223.7182 H   0  0  0  0  0  0  0  0  0  0  0  0
  141.4480   71.4349  224.8364 H   0  0  0  0  0  0  0  0  0  0  0  0
  140.0038   72.0241  225.7956 H   0  0  0  0  0  0  0  0  0  0  0  0
  141.5666   70.3296  227.3748 H   0  0  0  0  0  0  0  0  0  0  0  0
  141.3098   68.0480  228.3648 H   0  0  0  0  0  0  0  0  0  0  0  0
  139.7742   66.4001  227.2777 H   0  0  0  0  0  0  0  0  0  0  0  0
  138.7423   69.2441  224.2773 H   0  0  0  0  0  0  0  0  0  0  0  0
  1  2  2  0
  2  3  1  0
  3  4  2  0
  4  5  1  0
  5  6  2  0
  6  7  1  0
  7  8  2  0
  8  9  1  0
  9 10  2  0
 10 11  1  0
 11 12  1  0
 12 13  1  0
 13 14  1  0
 14 15  1  0
 15 16  2  0
 16 17  1  0
 17 18  2  0
 18 19  1  0
 19 20  2  0
 11  2  1  0
 20 15  1  0
  8  3  1  0
  4 21  1  0
  5 22  1  0
  6 23  1  0
  7 24  1  0
 10 25  1  0
 12 26  1  0
 12 27  1  0
 13 28  1  0
 13 29  1  0
 14 30  1  0
 14 31  1  0
 16 32  1  0
 17 33  1  0
 18 34  1  0
 20 35  1  0
M  END
>  <UniqueID>  (9) 
488

>  <SMILES>  (9) 
S=c1c2ccccc2ncn1CCCc1cccnc1

>  <Energy>  (9) 
45.18153626428284

>  <Genealogy>  (9) 
S=c1c2ccccc2ncn1CCCc1cccnc1 (3D coordinates assigned)
S=c1c2ccccc2ncn1CCCc1cccnc1 (optimized conformer: 45.18153626428284 kcal/mol)

>  <smiles>  (9) 
S=c1c2ccccc2ncn1CCCc1cccnc1

>  <score_type>  (9) 
oracle

>  <origin>  (9) 
autodockgpu

>  <m_score__min__energy>  (9) 
-6.5599999999999996

>  <m_primary>  (9) 
energy

>  <meeko>  (9) 
{"free_energy": -6.56, "intermolecular_energy": -7.76, "internal_energy": -0.4, "cluster_size": 1, "cluster_id": 1, "rank_in_cluster": 1}

>  <energy>  (9) 
-6.2

>  <cluster_rmsd>  (9) 
0.08

>  <rmsd>  (9) 
272.87

>  <cluster>  (9) 
3

$$$$
GPAYCMIUDLGOAY-UHFFFAOYNA-N
     RDKit          3D

 35 37  0  0  0  0  0  0  0  0999 V2000
  140.2410   71.7690  223.7940 S   0  0  0  0  0  0  0  0  0  0  0  0
  139.8760   70.2570  224.3590 C   0  0  0  0  0  0  0  0  0  0  0  0
  140.1210   69.9380  225.7200 C   0  0  0  0  0  0  0  0  0  0  0  0
  140.7220   70.8340  226.6360 C   0  0  0  0  0  0  0  0  0  0  0  0
  140.9510   70.4470  227.9600 C   0  0  0  0  0  0  0  0  0  0  0  0
  140.5870   69.1730  228.3940 C   0  0  0  0  0  0  0  0  0  0  0  0
  139.9900   68.2770  227.5060 C   0  0  0  0  0  0  0  0  0  0  0  0
  139.7590   68.6520  226.1770 C   0  0  0  0  0  0  0  0  0  0  0  0
  139.1830   67.7720  225.3300 N   0  0  0  0  0  0  0  0  0  0  0  0
  138.9650   68.0820  224.0300 C   0  0  0  0  0  0  0  0  0  0  0  0
  139.3380   69.2970  223.5220 N   0  0  0  0  0  0  0  0  0  0  0  0
  139.1430   69.4990  222.0690 C   0  0  0  0  0  0  0  0  0  0  0  0
  137.6770   69.2940  221.6420 C   0  0  0  0  0  0  0  0  0  0  0  0
  136.6870   70.3030  222.2580 C   0  0  0  0  0  0  0  0  0  0  0  0
  135.8690   69.7430  223.4010 C   0  0  0  0  0  0  0  0  0  0  0  0
  135.8360   70.3800  224.6530 C   0  0  0  0  0  0  0  0  0  0  0  0
  135.0850   69.8360  225.6960 C   0  0  0  0  0  0  0  0  0  0  0  0
  134.3450   68.6740  225.4720 C   0  0  0  0  0  0  0  0  0  0  0  0
  134.3470   68.0930  224.2440 N   0  0  0  0  0  0  0  0  0  0  0  0
  135.0730   68.6020  223.2130 C   0  0  0  0  0  0  0  0  0  0  0  0
  141.0110   71.8421  226.3040 H   0  0  0  0  0  0  0  0  0  0  0  0
  141.4206   71.1511  228.6626 H   0  0  0  0  0  0  0  0  0  0  0  0
  140.7704   68.8740  229.4366 H   0  0  0  0  0  0  0  0  0  0  0  0
  139.7002   67.2736  227.8511 H   0  0  0  0  0  0  0  0  0  0  0  0
  138.4805   67.3457  223.3718 H   0  0  0  0  0  0  0  0  0  0  0  0
  139.4468   70.5241  221.8104 H   0  0  0  0  0  0  0  0  0  0  0  0
  139.7550   68.7534  221.5404 H   0  0  0  0  0  0  0  0  0  0  0  0
  137.6220   69.3828  220.5470 H   0  0  0  0  0  0  0  0  0  0  0  0
  137.3798   68.2998  222.0071 H   0  0  0  0  0  0  0  0  0  0  0  0
  137.2592   71.1648  222.6319 H   0  0  0  0  0  0  0  0  0  0  0  0
  135.9775   70.5781  221.4637 H   0  0  0  0  0  0  0  0  0  0  0  0
  136.4031   71.3091  224.8114 H   0  0  0  0  0  0  0  0  0  0  0  0
  135.0764   70.3182  226.6847 H   0  0  0  0  0  0  0  0  0  0  0  0
  133.7600   68.2285  226.2901 H   0  0  0  0  0  0  0  0  0  0  0  0
  135.0364   68.1171  222.2263 H   0  0  0  0  0  0  0  0  0  0  0  0
  1  2  2  0
  2  3  1  0
  3  4  2  0
  4  5  1  0
  5  6  2  0
  6  7  1  0
  7  8  2  0
  8  9  1  0
  9 10  2  0
 10 11  1  0
 11 12  1  0
 12 13  1  0
 13 14  1  0
 14 15  1  0
 15 16  2  0
 16 17  1  0
 17 18  2  0
 18 19  1  0
 19 20  2  0
 11  2  1  0
 20 15  1  0
  8  3  1  0
  4 21  1  0
  5 22  1  0
  6 23  1  0
  7 24  1  0
 10 25  1  0
 12 26  1  0
 12 27  1  0
 13 28  1  0
 13 29  1  0
 14 30  1  0
 14 31  1  0
 16 32  1  0
 17 33  1  0
 18 34  1  0
 20 35  1  0
M  END
>  <UniqueID>  (10) 
488

>  <SMILES>  (10) 
S=c1c2ccccc2ncn1CCCc1cccnc1

>  <Energy>  (10) 
45.18153626428284

>  <Genealogy>  (10) 
S=c1c2ccccc2ncn1CCCc1cccnc1 (3D coordinates assigned)
S=c1c2ccccc2ncn1CCCc1cccnc1 (optimized conformer: 45.18153626428284 kcal/mol)

>  <smiles>  (10) 
S=c1c2ccccc2ncn1CCCc1cccnc1

>  <score_type>  (10) 
oracle

>  <origin>  (10) 
autodockgpu

>  <m_score__min__energy>  (10) 
-6.5599999999999996

>  <m_primary>  (10) 
energy

>  <meeko>  (10) 
{"free_energy": -6.12, "intermolecular_energy": -7.31, "internal_energy": -1.02, "cluster_size": 16, "cluster_id": 3, "rank_in_cluster": 13}

>  <energy>  (10) 
-6.2

>  <cluster_rmsd>  (10) 
0.07

>  <rmsd>  (10) 
272.92

>  <cluster>  (10) 
3

$$$$
GPAYCMIUDLGOAY-UHFFFAOYNA-N
     RDKit          3D

 35 37  0  0  0  0  0  0  0  0999 V2000
  140.2800   71.7560  223.8440 S   0  0  0  0  0  0  0  0  0  0  0  0
  139.8530   70.2460  224.3710 C   0  0  0  0  0  0  0  0  0  0  0  0
  140.1110   69.8740  225.7160 C   0  0  0  0  0  0  0  0  0  0  0  0
  140.7740   70.7110  226.6440 C   0  0  0  0  0  0  0  0  0  0  0  0
  141.0120   70.2730  227.9510 C   0  0  0  0  0  0  0  0  0  0  0  0
  140.5960   69.0040  228.3540 C   0  0  0  0  0  0  0  0  0  0  0  0
  139.9370   68.1660  227.4530 C   0  0  0  0  0  0  0  0  0  0  0  0
  139.6960   68.5930  226.1420 C   0  0  0  0  0  0  0  0  0  0  0  0
  139.0600   67.7680  225.2820 N   0  0  0  0  0  0  0  0  0  0  0  0
  138.8300   68.1300  223.9970 C   0  0  0  0  0  0  0  0  0  0  0  0
  139.2510   69.3400  223.5180 N   0  0  0  0  0  0  0  0  0  0  0  0
  139.0360   69.5960  222.0760 C   0  0  0  0  0  0  0  0  0  0  0  0
  137.9660   70.6780  221.8290 C   0  0  0  0  0  0  0  0  0  0  0  0
  136.5320   70.1330  221.6760 C   0  0  0  0  0  0  0  0  0  0  0  0
  135.9040   69.6780  222.9740 C   0  0  0  0  0  0  0  0  0  0  0  0
  136.0510   70.4250  224.1550 C   0  0  0  0  0  0  0  0  0  0  0  0
  135.4740   69.9760  225.3440 C   0  0  0  0  0  0  0  0  0  0  0  0
  134.7250   68.7990  225.3390 C   0  0  0  0  0  0  0  0  0  0  0  0
  134.5490   68.1100  224.1810 N   0  0  0  0  0  0  0  0  0  0  0  0
  135.1040   68.5240  223.0110 C   0  0  0  0  0  0  0  0  0  0  0  0
  141.1048   71.7137  226.3355 H   0  0  0  0  0  0  0  0  0  0  0  0
  141.5293   70.9319  228.6639 H   0  0  0  0  0  0  0  0  0  0  0  0
  140.7874   68.6635  229.3823 H   0  0  0  0  0  0  0  0  0  0  0  0
  139.6062   67.1673  227.7741 H   0  0  0  0  0  0  0  0  0  0  0  0
  138.2959   67.4395  223.3278 H   0  0  0  0  0  0  0  0  0  0  0  0
  139.9851   69.9282  221.6300 H   0  0  0  0  0  0  0  0  0  0  0  0
  138.6827   68.6611  221.6164 H   0  0  0  0  0  0  0  0  0  0  0  0
  137.9799   71.3758  222.6792 H   0  0  0  0  0  0  0  0  0  0  0  0
  138.2220   71.1601  220.8740 H   0  0  0  0  0  0  0  0  0  0  0  0
  135.9038   70.9282  221.2481 H   0  0  0  0  0  0  0  0  0  0  0  0
  136.5962   69.2475  221.0266 H   0  0  0  0  0  0  0  0  0  0  0  0
  136.6218   71.3653  224.1425 H   0  0  0  0  0  0  0  0  0  0  0  0
  135.6085   70.5447  226.2759 H   0  0  0  0  0  0  0  0  0  0  0  0
  134.2768   68.4286  226.2727 H   0  0  0  0  0  0  0  0  0  0  0  0
  134.9256   67.9522  222.0884 H   0  0  0  0  0  0  0  0  0  0  0  0
  1  2  2  0
  2  3  1  0
  3  4  2  0
  4  5  1  0
  5  6  2  0
  6  7  1  0
  7  8  2  0
  8  9  1  0
  9 10  2  0
 10 11  1  0
 11 12  1  0
 12 13  1  0
 13 14  1  0
 14 15  1  0
 15 16  2  0
 16 17  1  0
 17 18  2  0
 18 19  1  0
 19 20  2  0
 11  2  1  0
 20 15  1  0
  8  3  1  0
  4 21  1  0
  5 22  1  0
  6 23  1  0
  7 24  1  0
 10 25  1  0
 12 26  1  0
 12 27  1  0
 13 28  1  0
 13 29  1  0
 14 30  1  0
 14 31  1  0
 16 32  1  0
 17 33  1  0
 18 34  1  0
 20 35  1  0
M  END
>  <UniqueID>  (11) 
488

>  <SMILES>  (11) 
S=c1c2ccccc2ncn1CCCc1cccnc1

>  <Energy>  (11) 
45.18153626428284

>  <Genealogy>  (11) 
S=c1c2ccccc2ncn1CCCc1cccnc1 (3D coordinates assigned)
S=c1c2ccccc2ncn1CCCc1cccnc1 (optimized conformer: 45.18153626428284 kcal/mol)

>  <smiles>  (11) 
S=c1c2ccccc2ncn1CCCc1cccnc1

>  <score_type>  (11) 
oracle

>  <origin>  (11) 
autodockgpu

>  <m_score__min__energy>  (11) 
-6.5599999999999996

>  <m_primary>  (11) 
energy

>  <meeko>  (11) 
{"free_energy": -6.01, "intermolecular_energy": -7.21, "internal_energy": -1.05, "cluster_size": 16, "cluster_id": 3, "rank_in_cluster": 16}

>  <energy>  (11) 
-6.2

>  <cluster_rmsd>  (11) 
0.08

>  <rmsd>  (11) 
272.89

>  <cluster>  (11) 
3

$$$$
GPAYCMIUDLGOAY-UHFFFAOYNA-N
     RDKit          3D

 35 37  0  0  0  0  0  0  0  0999 V2000
  140.3090   71.7730  223.9130 S   0  0  0  0  0  0  0  0  0  0  0  0
  139.8930   70.2550  224.4240 C   0  0  0  0  0  0  0  0  0  0  0  0
  140.1590   69.8680  225.7640 C   0  0  0  0  0  0  0  0  0  0  0  0
  140.8220   70.6980  226.6990 C   0  0  0  0  0  0  0  0  0  0  0  0
  141.0680   70.2470  227.9990 C   0  0  0  0  0  0  0  0  0  0  0  0
  140.6610   68.9720  228.3900 C   0  0  0  0  0  0  0  0  0  0  0  0
  140.0030   68.1400  227.4820 C   0  0  0  0  0  0  0  0  0  0  0  0
  139.7540   68.5810  226.1770 C   0  0  0  0  0  0  0  0  0  0  0  0
  139.1190   67.7620  225.3100 N   0  0  0  0  0  0  0  0  0  0  0  0
  138.8810   68.1370  224.0310 C   0  0  0  0  0  0  0  0  0  0  0  0
  139.2920   69.3550  223.5640 N   0  0  0  0  0  0  0  0  0  0  0  0
  139.0700   69.6270  222.1260 C   0  0  0  0  0  0  0  0  0  0  0  0
  137.5960   69.9530  221.8160 C   0  0  0  0  0  0  0  0  0  0  0  0
  136.9050   70.8430  222.8680 C   0  0  0  0  0  0  0  0  0  0  0  0
  135.9610   70.0960  223.7830 C   0  0  0  0  0  0  0  0  0  0  0  0
  135.4600   70.6890  224.9540 C   0  0  0  0  0  0  0  0  0  0  0  0
  134.6020   69.9720  225.7900 C   0  0  0  0  0  0  0  0  0  0  0  0
  134.2250   68.6760  225.4340 C   0  0  0  0  0  0  0  0  0  0  0  0
  134.6780   68.1300  224.2760 N   0  0  0  0  0  0  0  0  0  0  0  0
  135.5170   68.8060  223.4460 C   0  0  0  0  0  0  0  0  0  0  0  0
  141.1463   71.7058  226.4005 H   0  0  0  0  0  0  0  0  0  0  0  0
  141.5850   70.9009  228.7168 H   0  0  0  0  0  0  0  0  0  0  0  0
  140.8583   68.6216  229.4139 H   0  0  0  0  0  0  0  0  0  0  0  0
  139.6796   67.1356  227.7929 H   0  0  0  0  0  0  0  0  0  0  0  0
  138.3483   67.4507  223.3563 H   0  0  0  0  0  0  0  0  0  0  0  0
  139.6926   70.4832  221.8272 H   0  0  0  0  0  0  0  0  0  0  0  0
  139.3405   68.7202  221.5651 H   0  0  0  0  0  0  0  0  0  0  0  0
  137.5550   70.4713  220.8466 H   0  0  0  0  0  0  0  0  0  0  0  0
  137.0567   68.9943  221.8133 H   0  0  0  0  0  0  0  0  0  0  0  0
  137.6829   71.3158  223.4854 H   0  0  0  0  0  0  0  0  0  0  0  0
  136.2984   71.5756  222.3153 H   0  0  0  0  0  0  0  0  0  0  0  0
  135.7442   71.7197  225.2125 H   0  0  0  0  0  0  0  0  0  0  0  0
  134.2268   70.4239  226.7200 H   0  0  0  0  0  0  0  0  0  0  0  0
  133.5606   68.0966  226.0919 H   0  0  0  0  0  0  0  0  0  0  0  0
  135.8496   68.3407  222.5064 H   0  0  0  0  0  0  0  0  0  0  0  0
  1  2  2  0
  2  3  1  0
  3  4  2  0
  4  5  1  0
  5  6  2  0
  6  7  1  0
  7  8  2  0
  8  9  1  0
  9 10  2  0
 10 11  1  0
 11 12  1  0
 12 13  1  0
 13 14  1  0
 14 15  1  0
 15 16  2  0
 16 17  1  0
 17 18  2  0
 18 19  1  0
 19 20  2  0
 11  2  1  0
 20 15  1  0
  8  3  1  0
  4 21  1  0
  5 22  1  0
  6 23  1  0
  7 24  1  0
 10 25  1  0
 12 26  1  0
 12 27  1  0
 13 28  1  0
 13 29  1  0
 14 30  1  0
 14 31  1  0
 16 32  1  0
 17 33  1  0
 18 34  1  0
 20 35  1  0
M  END
>  <UniqueID>  (12) 
488

>  <SMILES>  (12) 
S=c1c2ccccc2ncn1CCCc1cccnc1

>  <Energy>  (12) 
45.18153626428284

>  <Genealogy>  (12) 
S=c1c2ccccc2ncn1CCCc1cccnc1 (3D coordinates assigned)
S=c1c2ccccc2ncn1CCCc1cccnc1 (optimized conformer: 45.18153626428284 kcal/mol)

>  <smiles>  (12) 
S=c1c2ccccc2ncn1CCCc1cccnc1

>  <score_type>  (12) 
oracle

>  <origin>  (12) 
autodockgpu

>  <m_score__min__energy>  (12) 
-6.5599999999999996

>  <m_primary>  (12) 
energy

>  <meeko>  (12) 
{"free_energy": -6.22, "intermolecular_energy": -7.41, "internal_energy": -0.99, "cluster_size": 16, "cluster_id": 3, "rank_in_cluster": 4}

>  <energy>  (12) 
-6.19

>  <cluster_rmsd>  (12) 
0.11

>  <rmsd>  (12) 
272.87

>  <cluster>  (12) 
3

$$$$
GPAYCMIUDLGOAY-UHFFFAOYNA-N
     RDKit          3D

 35 37  0  0  0  0  0  0  0  0999 V2000
  141.1310   79.1390  219.9890 S   0  0  0  0  0  0  0  0  0  0  0  0
  140.8050   77.6780  220.6950 C   0  0  0  0  0  0  0  0  0  0  0  0
  141.7050   76.5950  220.5160 C   0  0  0  0  0  0  0  0  0  0  0  0
  142.8650   76.6700  219.7100 C   0  0  0  0  0  0  0  0  0  0  0  0
  143.7000   75.5580  219.5630 C   0  0  0  0  0  0  0  0  0  0  0  0
  143.3980   74.3610  220.2120 C   0  0  0  0  0  0  0  0  0  0  0  0
  142.2590   74.2700  221.0140 C   0  0  0  0  0  0  0  0  0  0  0  0
  141.4150   75.3760  221.1660 C   0  0  0  0  0  0  0  0  0  0  0  0
  140.3150   75.2700  221.9430 N   0  0  0  0  0  0  0  0  0  0  0  0
  139.4570   76.3060  222.0970 C   0  0  0  0  0  0  0  0  0  0  0  0
  139.6640   77.4950  221.4540 N   0  0  0  0  0  0  0  0  0  0  0  0
  138.6160   78.5290  221.6120 C   0  0  0  0  0  0  0  0  0  0  0  0
  138.1620   78.6790  223.0780 C   0  0  0  0  0  0  0  0  0  0  0  0
  138.8230   79.8500  223.8330 C   0  0  0  0  0  0  0  0  0  0  0  0
  140.2770   80.0660  223.4800 C   0  0  0  0  0  0  0  0  0  0  0  0
  141.2510   79.0970  223.7760 C   0  0  0  0  0  0  0  0  0  0  0  0
  142.5890   79.3270  223.4530 C   0  0  0  0  0  0  0  0  0  0  0  0
  142.9430   80.5130  222.8080 C   0  0  0  0  0  0  0  0  0  0  0  0
  141.9870   81.4220  222.4850 N   0  0  0  0  0  0  0  0  0  0  0  0
  140.6770   81.2230  222.7910 C   0  0  0  0  0  0  0  0  0  0  0  0
  143.1121   77.6101  219.1950 H   0  0  0  0  0  0  0  0  0  0  0  0
  144.5989   75.6276  218.9328 H   0  0  0  0  0  0  0  0  0  0  0  0
  144.0573   73.4887  220.0919 H   0  0  0  0  0  0  0  0  0  0  0  0
  142.0242   73.3262  221.5280 H   0  0  0  0  0  0  0  0  0  0  0  0
  138.5794   76.1894  222.7498 H   0  0  0  0  0  0  0  0  0  0  0  0
  139.0146   79.4934  221.2642 H   0  0  0  0  0  0  0  0  0  0  0  0
  137.7434   78.2189  221.0183 H   0  0  0  0  0  0  0  0  0  0  0  0
  137.0731   78.8350  223.0867 H   0  0  0  0  0  0  0  0  0  0  0  0
  138.4675   77.7585  223.5970 H   0  0  0  0  0  0  0  0  0  0  0  0
  138.2692   80.7706  223.5968 H   0  0  0  0  0  0  0  0  0  0  0  0
  138.7891   79.5984  224.9033 H   0  0  0  0  0  0  0  0  0  0  0  0
  140.9581   78.1553  224.2633 H   0  0  0  0  0  0  0  0  0  0  0  0
  143.3572   78.5808  223.7043 H   0  0  0  0  0  0  0  0  0  0  0  0
  143.9964   80.7115  222.5612 H   0  0  0  0  0  0  0  0  0  0  0  0
  139.9267   81.9719  222.4975 H   0  0  0  0  0  0  0  0  0  0  0  0
  1  2  2  0
  2  3  1  0
  3  4  2  0
  4  5  1  0
  5  6  2  0
  6  7  1  0
  7  8  2  0
  8  9  1  0
  9 10  2  0
 10 11  1  0
 11 12  1  0
 12 13  1  0
 13 14  1  0
 14 15  1  0
 15 16  2  0
 16 17  1  0
 17 18  2  0
 18 19  1  0
 19 20  2  0
 11  2  1  0
 20 15  1  0
  8  3  1  0
  4 21  1  0
  5 22  1  0
  6 23  1  0
  7 24  1  0
 10 25  1  0
 12 26  1  0
 12 27  1  0
 13 28  1  0
 13 29  1  0
 14 30  1  0
 14 31  1  0
 16 32  1  0
 17 33  1  0
 18 34  1  0
 20 35  1  0
M  END
>  <UniqueID>  (13) 
488

>  <SMILES>  (13) 
S=c1c2ccccc2ncn1CCCc1cccnc1

>  <Energy>  (13) 
45.18153626428284

>  <Genealogy>  (13) 
S=c1c2ccccc2ncn1CCCc1cccnc1 (3D coordinates assigned)
S=c1c2ccccc2ncn1CCCc1cccnc1 (optimized conformer: 45.18153626428284 kcal/mol)

>  <smiles>  (13) 
S=c1c2ccccc2ncn1CCCc1cccnc1

>  <score_type>  (13) 
oracle

>  <origin>  (13) 
autodockgpu

>  <m_score__min__energy>  (13) 
-6.5599999999999996

>  <m_primary>  (13) 
energy

>  <meeko>  (13) 
{"free_energy": -5.59, "intermolecular_energy": -6.78, "internal_energy": -1.19, "cluster_size": 2, "cluster_id": 4, "rank_in_cluster": 1}

>  <energy>  (13) 
-6.19

>  <cluster_rmsd>  (13) 
0.23

>  <rmsd>  (13) 
272.85

>  <cluster>  (13) 
3

$$$$
GPAYCMIUDLGOAY-UHFFFAOYNA-N
     RDKit          3D

 35 37  0  0  0  0  0  0  0  0999 V2000
  140.2570   71.7830  223.8500 S   0  0  0  0  0  0  0  0  0  0  0  0
  139.8680   70.2640  224.3800 C   0  0  0  0  0  0  0  0  0  0  0  0
  140.1460   69.8960  225.7230 C   0  0  0  0  0  0  0  0  0  0  0  0
  140.7970   70.7470  226.6460 C   0  0  0  0  0  0  0  0  0  0  0  0
  141.0550   70.3140  227.9500 C   0  0  0  0  0  0  0  0  0  0  0  0
  140.6710   69.0360  228.3560 C   0  0  0  0  0  0  0  0  0  0  0  0
  140.0240   68.1840  227.4600 C   0  0  0  0  0  0  0  0  0  0  0  0
  139.7640   68.6060  226.1510 C   0  0  0  0  0  0  0  0  0  0  0  0
  139.1400   67.7680  225.2950 N   0  0  0  0  0  0  0  0  0  0  0  0
  138.8910   68.1250  224.0130 C   0  0  0  0  0  0  0  0  0  0  0  0
  139.2800   69.3440  223.5310 N   0  0  0  0  0  0  0  0  0  0  0  0
  139.0480   69.5970  222.0910 C   0  0  0  0  0  0  0  0  0  0  0  0
  137.6070   70.0640  221.8060 C   0  0  0  0  0  0  0  0  0  0  0  0
  136.9740   70.9020  222.9340 C   0  0  0  0  0  0  0  0  0  0  0  0
  135.9960   70.1360  223.7950 C   0  0  0  0  0  0  0  0  0  0  0  0
  135.4390   70.7100  224.9510 C   0  0  0  0  0  0  0  0  0  0  0  0
  134.5500   69.9760  225.7380 C   0  0  0  0  0  0  0  0  0  0  0  0
  134.1960   68.6840  225.3470 C   0  0  0  0  0  0  0  0  0  0  0  0
  134.7030   68.1570  224.2020 N   0  0  0  0  0  0  0  0  0  0  0  0
  135.5740   68.8500  223.4210 C   0  0  0  0  0  0  0  0  0  0  0  0
  141.1026   71.7571  226.3356 H   0  0  0  0  0  0  0  0  0  0  0  0
  141.5631   70.9842  228.6590 H   0  0  0  0  0  0  0  0  0  0  0  0
  140.8782   68.6997  229.3826 H   0  0  0  0  0  0  0  0  0  0  0  0
  139.7175   67.1782  227.7833 H   0  0  0  0  0  0  0  0  0  0  0  0
  138.3670   67.4227  223.3481 H   0  0  0  0  0  0  0  0  0  0  0  0
  139.7464   70.3760  221.7513 H   0  0  0  0  0  0  0  0  0  0  0  0
  139.2092   68.6517  221.5521 H   0  0  0  0  0  0  0  0  0  0  0  0
  137.6175   70.6727  220.8898 H   0  0  0  0  0  0  0  0  0  0  0  0
  136.9957   69.1546  221.7099 H   0  0  0  0  0  0  0  0  0  0  0  0
  137.7811   71.2791  223.5793 H   0  0  0  0  0  0  0  0  0  0  0  0
  136.4061   71.7100  222.4496 H   0  0  0  0  0  0  0  0  0  0  0  0
  135.7040   71.7389  225.2358 H   0  0  0  0  0  0  0  0  0  0  0  0
  134.1325   70.4118  226.6576 H   0  0  0  0  0  0  0  0  0  0  0  0
  133.5061   68.0919  225.9662 H   0  0  0  0  0  0  0  0  0  0  0  0
  135.9504   68.4004  222.4903 H   0  0  0  0  0  0  0  0  0  0  0  0
  1  2  2  0
  2  3  1  0
  3  4  2  0
  4  5  1  0
  5  6  2  0
  6  7  1  0
  7  8  2  0
  8  9  1  0
  9 10  2  0
 10 11  1  0
 11 12  1  0
 12 13  1  0
 13 14  1  0
 14 15  1  0
 15 16  2  0
 16 17  1  0
 17 18  2  0
 18 19  1  0
 19 20  2  0
 11  2  1  0
 20 15  1  0
  8  3  1  0
  4 21  1  0
  5 22  1  0
  6 23  1  0
  7 24  1  0
 10 25  1  0
 12 26  1  0
 12 27  1  0
 13 28  1  0
 13 29  1  0
 14 30  1  0
 14 31  1  0
 16 32  1  0
 17 33  1  0
 18 34  1  0
 20 35  1  0
M  END
>  <UniqueID>  (14) 
488

>  <SMILES>  (14) 
S=c1c2ccccc2ncn1CCCc1cccnc1

>  <Energy>  (14) 
45.18153626428284

>  <Genealogy>  (14) 
S=c1c2ccccc2ncn1CCCc1cccnc1 (3D coordinates assigned)
S=c1c2ccccc2ncn1CCCc1cccnc1 (optimized conformer: 45.18153626428284 kcal/mol)

>  <smiles>  (14) 
S=c1c2ccccc2ncn1CCCc1cccnc1

>  <score_type>  (14) 
oracle

>  <origin>  (14) 
autodockgpu

>  <m_score__min__energy>  (14) 
-6.5599999999999996

>  <m_primary>  (14) 
energy

>  <meeko>  (14) 
{"free_energy": -6.22, "intermolecular_energy": -7.42, "internal_energy": -0.98, "cluster_size": 16, "cluster_id": 3, "rank_in_cluster": 2}

>  <energy>  (14) 
-6.17

>  <cluster_rmsd>  (14) 
0.1

>  <rmsd>  (14) 
272.88

>  <cluster>  (14) 
3

$$$$
GPAYCMIUDLGOAY-UHFFFAOYNA-N
     RDKit          3D

 35 37  0  0  0  0  0  0  0  0999 V2000
  141.4120   76.1250  221.1570 S   0  0  0  0  0  0  0  0  0  0  0  0
  141.6720   77.7210  220.8040 C   0  0  0  0  0  0  0  0  0  0  0  0
  141.6890   78.6770  221.8530 C   0  0  0  0  0  0  0  0  0  0  0  0
  141.4390   78.3550  223.2080 C   0  0  0  0  0  0  0  0  0  0  0  0
  141.4540   79.3510  224.1890 C   0  0  0  0  0  0  0  0  0  0  0  0
  141.7170   80.6760  223.8420 C   0  0  0  0  0  0  0  0  0  0  0  0
  141.9690   81.0120  222.5110 C   0  0  0  0  0  0  0  0  0  0  0  0
  141.9540   80.0230  221.5210 C   0  0  0  0  0  0  0  0  0  0  0  0
  142.1970   80.3660  220.2370 N   0  0  0  0  0  0  0  0  0  0  0  0
  142.1670   79.4480  219.2430 C   0  0  0  0  0  0  0  0  0  0  0  0
  141.8700   78.1370  219.5010 N   0  0  0  0  0  0  0  0  0  0  0  0
  141.7670   77.2350  218.3320 C   0  0  0  0  0  0  0  0  0  0  0  0
  143.0370   76.3840  218.1390 C   0  0  0  0  0  0  0  0  0  0  0  0
  142.8570   74.8870  218.4640 C   0  0  0  0  0  0  0  0  0  0  0  0
  144.0650   74.2470  219.1100 C   0  0  0  0  0  0  0  0  0  0  0  0
  144.3840   74.4880  220.4570 C   0  0  0  0  0  0  0  0  0  0  0  0
  145.5140   73.8970  221.0250 C   0  0  0  0  0  0  0  0  0  0  0  0
  146.3010   73.0430  220.2530 C   0  0  0  0  0  0  0  0  0  0  0  0
  145.9560   72.7800  218.9650 N   0  0  0  0  0  0  0  0  0  0  0  0
  144.8630   73.3450  218.3870 C   0  0  0  0  0  0  0  0  0  0  0  0
  141.2312   77.3127  223.4918 H   0  0  0  0  0  0  0  0  0  0  0  0
  141.2575   79.0885  225.2390 H   0  0  0  0  0  0  0  0  0  0  0  0
  141.7258   81.4562  224.6173 H   0  0  0  0  0  0  0  0  0  0  0  0
  142.1799   82.0569  222.2395 H   0  0  0  0  0  0  0  0  0  0  0  0
  142.3848   79.7605  218.2111 H   0  0  0  0  0  0  0  0  0  0  0  0
  140.9089   76.5625  218.4781 H   0  0  0  0  0  0  0  0  0  0  0  0
  141.6391   77.8586  217.4349 H   0  0  0  0  0  0  0  0  0  0  0  0
  143.3540   76.4724  217.0894 H   0  0  0  0  0  0  0  0  0  0  0  0
  143.7846   76.7710  218.8471 H   0  0  0  0  0  0  0  0  0  0  0  0
  142.0026   74.7823  219.1489 H   0  0  0  0  0  0  0  0  0  0  0  0
  142.6983   74.3707  217.5057 H   0  0  0  0  0  0  0  0  0  0  0  0
  143.7426   75.1432  221.0647 H   0  0  0  0  0  0  0  0  0  0  0  0
  145.7812   74.1031  222.0720 H   0  0  0  0  0  0  0  0  0  0  0  0
  147.2009   72.5823  220.6865 H   0  0  0  0  0  0  0  0  0  0  0  0
  144.6022   73.0946  217.3481 H   0  0  0  0  0  0  0  0  0  0  0  0
  1  2  2  0
  2  3  1  0
  3  4  2  0
  4  5  1  0
  5  6  2  0
  6  7  1  0
  7  8  2  0
  8  9  1  0
  9 10  2  0
 10 11  1  0
 11 12  1  0
 12 13  1  0
 13 14  1  0
 14 15  1  0
 15 16  2  0
 16 17  1  0
 17 18  2  0
 18 19  1  0
 19 20  2  0
 11  2  1  0
 20 15  1  0
  8  3  1  0
  4 21  1  0
  5 22  1  0
  6 23  1  0
  7 24  1  0
 10 25  1  0
 12 26  1  0
 12 27  1  0
 13 28  1  0
 13 29  1  0
 14 30  1  0
 14 31  1  0
 16 32  1  0
 17 33  1  0
 18 34  1  0
 20 35  1  0
M  END
>  <UniqueID>  (15) 
488

>  <SMILES>  (15) 
S=c1c2ccccc2ncn1CCCc1cccnc1

>  <Energy>  (15) 
45.18153626428284

>  <Genealogy>  (15) 
S=c1c2ccccc2ncn1CCCc1cccnc1 (3D coordinates assigned)
S=c1c2ccccc2ncn1CCCc1cccnc1 (optimized conformer: 45.18153626428284 kcal/mol)

>  <smiles>  (15) 
S=c1c2ccccc2ncn1CCCc1cccnc1

>  <score_type>  (15) 
oracle

>  <origin>  (15) 
autodockgpu

>  <m_score__min__energy>  (15) 
-6.5599999999999996

>  <m_primary>  (15) 
energy

>  <meeko>  (15) 
{"free_energy": -6.35, "intermolecular_energy": -7.55, "internal_energy": -0.58, "cluster_size": 1, "cluster_id": 2, "rank_in_cluster": 1}

>  <energy>  (15) 
-6.12

>  <cluster_rmsd>  (15) 
0.41

>  <rmsd>  (15) 
272.79

>  <cluster>  (15) 
3

$$$$
GPAYCMIUDLGOAY-UHFFFAOYNA-N
     RDKit          3D

 35 37  0  0  0  0  0  0  0  0999 V2000
  140.3050   71.7720  223.9150 S   0  0  0  0  0  0  0  0  0  0  0  0
  139.8970   70.2530  224.4290 C   0  0  0  0  0  0  0  0  0  0  0  0
  140.1650   69.8700  225.7700 C   0  0  0  0  0  0  0  0  0  0  0  0
  140.8220   70.7060  226.7030 C   0  0  0  0  0  0  0  0  0  0  0  0
  141.0690   70.2580  228.0040 C   0  0  0  0  0  0  0  0  0  0  0  0
  140.6690   68.9820  228.3970 C   0  0  0  0  0  0  0  0  0  0  0  0
  140.0170   68.1450  227.4910 C   0  0  0  0  0  0  0  0  0  0  0  0
  139.7660   68.5810  226.1850 C   0  0  0  0  0  0  0  0  0  0  0  0
  139.1370   67.7570  225.3190 N   0  0  0  0  0  0  0  0  0  0  0  0
  138.8980   68.1280  224.0390 C   0  0  0  0  0  0  0  0  0  0  0  0
  139.3020   69.3480  223.5700 N   0  0  0  0  0  0  0  0  0  0  0  0
  139.0790   69.6150  222.1310 C   0  0  0  0  0  0  0  0  0  0  0  0
  137.6260   70.0350  221.8350 C   0  0  0  0  0  0  0  0  0  0  0  0
  136.9780   70.9050  222.9310 C   0  0  0  0  0  0  0  0  0  0  0  0
  136.0030   70.1570  223.8130 C   0  0  0  0  0  0  0  0  0  0  0  0
  135.4640   70.7490  224.9680 C   0  0  0  0  0  0  0  0  0  0  0  0
  134.5780   70.0320  225.7740 C   0  0  0  0  0  0  0  0  0  0  0  0
  134.2110   68.7380  225.4030 C   0  0  0  0  0  0  0  0  0  0  0  0
  134.7010   68.1930  224.2600 N   0  0  0  0  0  0  0  0  0  0  0  0
  135.5680   68.8690  223.4590 C   0  0  0  0  0  0  0  0  0  0  0  0
  141.1406   71.7152  226.4029 H   0  0  0  0  0  0  0  0  0  0  0  0
  141.5817   70.9159  228.7212 H   0  0  0  0  0  0  0  0  0  0  0  0
  140.8674   68.6348  229.4217 H   0  0  0  0  0  0  0  0  0  0  0  0
  139.6993   67.1395  227.8041 H   0  0  0  0  0  0  0  0  0  0  0  0
  138.3703   67.4371  223.3651 H   0  0  0  0  0  0  0  0  0  0  0  0
  139.7534   70.4234  221.8121 H   0  0  0  0  0  0  0  0  0  0  0  0
  139.2805   68.6846  221.5798 H   0  0  0  0  0  0  0  0  0  0  0  0
  137.6175   70.6045  220.8940 H   0  0  0  0  0  0  0  0  0  0  0  0
  137.0363   69.1080  221.7808 H   0  0  0  0  0  0  0  0  0  0  0  0
  137.7776   71.3126  223.5671 H   0  0  0  0  0  0  0  0  0  0  0  0
  136.4045   71.6903  222.4168 H   0  0  0  0  0  0  0  0  0  0  0  0
  135.7407   71.7790  225.2374 H   0  0  0  0  0  0  0  0  0  0  0  0
  134.1733   70.4826  226.6923 H   0  0  0  0  0  0  0  0  0  0  0  0
  133.5239   68.1587  226.0372 H   0  0  0  0  0  0  0  0  0  0  0  0
  135.9302   68.4050  222.5297 H   0  0  0  0  0  0  0  0  0  0  0  0
  1  2  2  0
  2  3  1  0
  3  4  2  0
  4  5  1  0
  5  6  2  0
  6  7  1  0
  7  8  2  0
  8  9  1  0
  9 10  2  0
 10 11  1  0
 11 12  1  0
 12 13  1  0
 13 14  1  0
 14 15  1  0
 15 16  2  0
 16 17  1  0
 17 18  2  0
 18 19  1  0
 19 20  2  0
 11  2  1  0
 20 15  1  0
  8  3  1  0
  4 21  1  0
  5 22  1  0
  6 23  1  0
  7 24  1  0
 10 25  1  0
 12 26  1  0
 12 27  1  0
 13 28  1  0
 13 29  1  0
 14 30  1  0
 14 31  1  0
 16 32  1  0
 17 33  1  0
 18 34  1  0
 20 35  1  0
M  END
>  <UniqueID>  (16) 
488

>  <SMILES>  (16) 
S=c1c2ccccc2ncn1CCCc1cccnc1

>  <Energy>  (16) 
45.18153626428284

>  <Genealogy>  (16) 
S=c1c2ccccc2ncn1CCCc1cccnc1 (3D coordinates assigned)
S=c1c2ccccc2ncn1CCCc1cccnc1 (optimized conformer: 45.18153626428284 kcal/mol)

>  <smiles>  (16) 
S=c1c2ccccc2ncn1CCCc1cccnc1

>  <score_type>  (16) 
oracle

>  <origin>  (16) 
autodockgpu

>  <m_score__min__energy>  (16) 
-6.5599999999999996

>  <m_primary>  (16) 
energy

>  <meeko>  (16) 
{"free_energy": -6.22, "intermolecular_energy": -7.42, "internal_energy": -0.98, "cluster_size": 16, "cluster_id": 3, "rank_in_cluster": 1}

>  <energy>  (16) 
-6.06

>  <cluster_rmsd>  (16) 
0.46

>  <rmsd>  (16) 
272.78

>  <cluster>  (16) 
3

$$$$
GPAYCMIUDLGOAY-UHFFFAOYNA-N
     RDKit          3D

 35 37  0  0  0  0  0  0  0  0999 V2000
  140.3070   71.7760  223.9270 S   0  0  0  0  0  0  0  0  0  0  0  0
  139.8860   70.2600  224.4420 C   0  0  0  0  0  0  0  0  0  0  0  0
  140.1480   69.8760  225.7830 C   0  0  0  0  0  0  0  0  0  0  0  0
  140.8100   70.7070  226.7170 C   0  0  0  0  0  0  0  0  0  0  0  0
  141.0520   70.2580  228.0190 C   0  0  0  0  0  0  0  0  0  0  0  0
  140.6400   68.9850  228.4120 C   0  0  0  0  0  0  0  0  0  0  0  0
  139.9830   68.1530  227.5050 C   0  0  0  0  0  0  0  0  0  0  0  0
  139.7380   68.5910  226.1980 C   0  0  0  0  0  0  0  0  0  0  0  0
  139.1030   67.7710  225.3320 N   0  0  0  0  0  0  0  0  0  0  0  0
  138.8700   68.1430  224.0510 C   0  0  0  0  0  0  0  0  0  0  0  0
  139.2850   69.3590  223.5820 N   0  0  0  0  0  0  0  0  0  0  0  0
  139.0670   69.6280  222.1430 C   0  0  0  0  0  0  0  0  0  0  0  0
  137.5880   69.9220  221.8220 C   0  0  0  0  0  0  0  0  0  0  0  0
  136.8800   70.8250  222.8520 C   0  0  0  0  0  0  0  0  0  0  0  0
  135.9470   70.0840  223.7830 C   0  0  0  0  0  0  0  0  0  0  0  0
  135.4830   70.6740  224.9710 C   0  0  0  0  0  0  0  0  0  0  0  0
  134.6340   69.9630  225.8210 C   0  0  0  0  0  0  0  0  0  0  0  0
  134.2290   68.6760  225.4630 C   0  0  0  0  0  0  0  0  0  0  0  0
  134.6450   68.1340  224.2890 N   0  0  0  0  0  0  0  0  0  0  0  0
  135.4750   68.8050  223.4450 C   0  0  0  0  0  0  0  0  0  0  0  0
  141.1367   71.7136  226.4169 H   0  0  0  0  0  0  0  0  0  0  0  0
  141.5696   70.9118  228.7364 H   0  0  0  0  0  0  0  0  0  0  0  0
  140.8331   68.6367  229.4374 H   0  0  0  0  0  0  0  0  0  0  0  0
  139.6566   67.1501  227.8177 H   0  0  0  0  0  0  0  0  0  0  0  0
  138.3382   67.4559  223.3764 H   0  0  0  0  0  0  0  0  0  0  0  0
  139.6727   70.4981  221.8497 H   0  0  0  0  0  0  0  0  0  0  0  0
  139.3611   68.7279  221.5833 H   0  0  0  0  0  0  0  0  0  0  0  0
  137.5407   70.4168  220.8407 H   0  0  0  0  0  0  0  0  0  0  0  0
  137.0645   68.9547  221.8402 H   0  0  0  0  0  0  0  0  0  0  0  0
  137.6488   71.3253  223.4592 H   0  0  0  0  0  0  0  0  0  0  0  0
  136.2622   71.5340  222.2813 H   0  0  0  0  0  0  0  0  0  0  0  0
  135.7893   71.6979  225.2316 H   0  0  0  0  0  0  0  0  0  0  0  0
  134.2877   70.4124  226.7634 H   0  0  0  0  0  0  0  0  0  0  0  0
  133.5725   68.1003  226.1321 H   0  0  0  0  0  0  0  0  0  0  0  0
  135.7778   68.3436  222.4935 H   0  0  0  0  0  0  0  0  0  0  0  0
  1  2  2  0
  2  3  1  0
  3  4  2  0
  4  5  1  0
  5  6  2  0
  6  7  1  0
  7  8  2  0
  8  9  1  0
  9 10  2  0
 10 11  1  0
 11 12  1  0
 12 13  1  0
 13 14  1  0
 14 15  1  0
 15 16  2  0
 16 17  1  0
 17 18  2  0
 18 19  1  0
 19 20  2  0
 11  2  1  0
 20 15  1  0
  8  3  1  0
  4 21  1  0
  5 22  1  0
  6 23  1  0
  7 24  1  0
 10 25  1  0
 12 26  1  0
 12 27  1  0
 13 28  1  0
 13 29  1  0
 14 30  1  0
 14 31  1  0
 16 32  1  0
 17 33  1  0
 18 34  1  0
 20 35  1  0
M  END
>  <UniqueID>  (17) 
488

>  <SMILES>  (17) 
S=c1c2ccccc2ncn1CCCc1cccnc1

>  <Energy>  (17) 
45.18153626428284

>  <Genealogy>  (17) 
S=c1c2ccccc2ncn1CCCc1cccnc1 (3D coordinates assigned)
S=c1c2ccccc2ncn1CCCc1cccnc1 (optimized conformer: 45.18153626428284 kcal/mol)

>  <smiles>  (17) 
S=c1c2ccccc2ncn1CCCc1cccnc1

>  <score_type>  (17) 
oracle

>  <origin>  (17) 
autodockgpu

>  <m_score__min__energy>  (17) 
-6.5599999999999996

>  <m_primary>  (17) 
energy

>  <meeko>  (17) 
{"free_energy": -6.2, "intermolecular_energy": -7.4, "internal_energy": -1.0, "cluster_size": 16, "cluster_id": 3, "rank_in_cluster": 8}

>  <energy>  (17) 
-6.05

>  <cluster_rmsd>  (17) 
0.46

>  <rmsd>  (17) 
272.75

>  <cluster>  (17) 
3

$$$$
GPAYCMIUDLGOAY-UHFFFAOYNA-N
     RDKit          3D

 35 37  0  0  0  0  0  0  0  0999 V2000
  141.1090   79.0850  220.0060 S   0  0  0  0  0  0  0  0  0  0  0  0
  140.7830   77.6240  220.7130 C   0  0  0  0  0  0  0  0  0  0  0  0
  141.6850   76.5430  220.5360 C   0  0  0  0  0  0  0  0  0  0  0  0
  142.8470   76.6180  219.7330 C   0  0  0  0  0  0  0  0  0  0  0  0
  143.6840   75.5070  219.5890 C   0  0  0  0  0  0  0  0  0  0  0  0
  143.3820   74.3110  220.2390 C   0  0  0  0  0  0  0  0  0  0  0  0
  142.2420   74.2190  221.0390 C   0  0  0  0  0  0  0  0  0  0  0  0
  141.3960   75.3240  221.1880 C   0  0  0  0  0  0  0  0  0  0  0  0
  140.2950   75.2170  221.9630 N   0  0  0  0  0  0  0  0  0  0  0  0
  139.4350   76.2520  222.1140 C   0  0  0  0  0  0  0  0  0  0  0  0
  139.6410   77.4410  221.4700 N   0  0  0  0  0  0  0  0  0  0  0  0
  138.5910   78.4730  221.6250 C   0  0  0  0  0  0  0  0  0  0  0  0
  138.1500   78.6410  223.0920 C   0  0  0  0  0  0  0  0  0  0  0  0
  138.8130   79.8240  223.8250 C   0  0  0  0  0  0  0  0  0  0  0  0
  140.2700   80.0260  223.4750 C   0  0  0  0  0  0  0  0  0  0  0  0
  141.2320   79.0430  223.7640 C   0  0  0  0  0  0  0  0  0  0  0  0
  142.5740   79.2610  223.4440 C   0  0  0  0  0  0  0  0  0  0  0  0
  142.9410   80.4470  222.8080 C   0  0  0  0  0  0  0  0  0  0  0  0
  141.9960   81.3700  222.4910 N   0  0  0  0  0  0  0  0  0  0  0  0
  140.6840   81.1840  222.7950 C   0  0  0  0  0  0  0  0  0  0  0  0
  143.0943   77.5578  219.2176 H   0  0  0  0  0  0  0  0  0  0  0  0
  144.5841   75.5769  218.9605 H   0  0  0  0  0  0  0  0  0  0  0  0
  144.0426   73.4394  220.1212 H   0  0  0  0  0  0  0  0  0  0  0  0
  142.0078   73.2755  221.5538 H   0  0  0  0  0  0  0  0  0  0  0  0
  138.5563   76.1346  222.7652 H   0  0  0  0  0  0  0  0  0  0  0  0
  138.9829   79.4342  221.2609 H   0  0  0  0  0  0  0  0  0  0  0  0
  137.7140   78.1515  221.0441 H   0  0  0  0  0  0  0  0  0  0  0  0
  137.0607   78.7930  223.1085 H   0  0  0  0  0  0  0  0  0  0  0  0
  138.4638   77.7287  223.6205 H   0  0  0  0  0  0  0  0  0  0  0  0
  138.2648   80.7420  223.5667 H   0  0  0  0  0  0  0  0  0  0  0  0
  138.7729   79.5949  224.9001 H   0  0  0  0  0  0  0  0  0  0  0  0
  140.9276   78.1006  224.2429 H   0  0  0  0  0  0  0  0  0  0  0  0
  143.3339   78.5050  223.6910 H   0  0  0  0  0  0  0  0  0  0  0  0
  143.9967   80.6351  222.5629 H   0  0  0  0  0  0  0  0  0  0  0  0
  139.9426   81.9439  222.5072 H   0  0  0  0  0  0  0  0  0  0  0  0
  1  2  2  0
  2  3  1  0
  3  4  2  0
  4  5  1  0
  5  6  2  0
  6  7  1  0
  7  8  2  0
  8  9  1  0
  9 10  2  0
 10 11  1  0
 11 12  1  0
 12 13  1  0
 13 14  1  0
 14 15  1  0
 15 16  2  0
 16 17  1  0
 17 18  2  0
 18 19  1  0
 19 20  2  0
 11  2  1  0
 20 15  1  0
  8  3  1  0
  4 21  1  0
  5 22  1  0
  6 23  1  0
  7 24  1  0
 10 25  1  0
 12 26  1  0
 12 27  1  0
 13 28  1  0
 13 29  1  0
 14 30  1  0
 14 31  1  0
 16 32  1  0
 17 33  1  0
 18 34  1  0
 20 35  1  0
M  END
>  <UniqueID>  (18) 
488

>  <SMILES>  (18) 
S=c1c2ccccc2ncn1CCCc1cccnc1

>  <Energy>  (18) 
45.18153626428284

>  <Genealogy>  (18) 
S=c1c2ccccc2ncn1CCCc1cccnc1 (3D coordinates assigned)
S=c1c2ccccc2ncn1CCCc1cccnc1 (optimized conformer: 45.18153626428284 kcal/mol)

>  <smiles>  (18) 
S=c1c2ccccc2ncn1CCCc1cccnc1

>  <score_type>  (18) 
oracle

>  <origin>  (18) 
autodockgpu

>  <m_score__min__energy>  (18) 
-6.5599999999999996

>  <m_primary>  (18) 
energy

>  <meeko>  (18) 
{"free_energy": -5.59, "intermolecular_energy": -6.78, "internal_energy": -1.19, "cluster_size": 2, "cluster_id": 4, "rank_in_cluster": 2}

>  <energy>  (18) 
-6.01

>  <cluster_rmsd>  (18) 
0.48

>  <rmsd>  (18) 
272.74

>  <cluster>  (18) 
3

$$$$
GPAYCMIUDLGOAY-UHFFFAOYNA-N
     RDKit          3D

 35 37  0  0  0  0  0  0  0  0999 V2000
  140.2530   71.7520  223.8230 S   0  0  0  0  0  0  0  0  0  0  0  0
  139.8470   70.2450  224.3730 C   0  0  0  0  0  0  0  0  0  0  0  0
  140.1340   69.8880  225.7170 C   0  0  0  0  0  0  0  0  0  0  0  0
  140.8090   70.7390  226.6230 C   0  0  0  0  0  0  0  0  0  0  0  0
  141.0760   70.3150  227.9290 C   0  0  0  0  0  0  0  0  0  0  0  0
  140.6760   69.0480  228.3530 C   0  0  0  0  0  0  0  0  0  0  0  0
  140.0060   68.1970  227.4740 C   0  0  0  0  0  0  0  0  0  0  0  0
  139.7370   68.6090  226.1630 C   0  0  0  0  0  0  0  0  0  0  0  0
  139.0890   67.7710  225.3240 N   0  0  0  0  0  0  0  0  0  0  0  0
  138.8320   68.1180  224.0410 C   0  0  0  0  0  0  0  0  0  0  0  0
  139.2350   69.3260  223.5410 N   0  0  0  0  0  0  0  0  0  0  0  0
  138.9900   69.5670  222.1020 C   0  0  0  0  0  0  0  0  0  0  0  0
  137.5990   70.1770  221.8400 C   0  0  0  0  0  0  0  0  0  0  0  0
  137.0070   70.9500  223.0360 C   0  0  0  0  0  0  0  0  0  0  0  0
  136.0040   70.1600  223.8450 C   0  0  0  0  0  0  0  0  0  0  0  0
  135.4050   70.7040  224.9940 C   0  0  0  0  0  0  0  0  0  0  0  0
  134.4930   69.9480  225.7330 C   0  0  0  0  0  0  0  0  0  0  0  0
  134.1610   68.6640  225.3000 C   0  0  0  0  0  0  0  0  0  0  0  0
  134.7090   68.1660  224.1610 N   0  0  0  0  0  0  0  0  0  0  0  0
  135.6030   68.8810  223.4260 C   0  0  0  0  0  0  0  0  0  0  0  0
  141.1261   71.7410  226.2984 H   0  0  0  0  0  0  0  0  0  0  0  0
  141.6038   70.9839  228.6247 H   0  0  0  0  0  0  0  0  0  0  0  0
  140.8889   68.7196  229.3810 H   0  0  0  0  0  0  0  0  0  0  0  0
  139.6881   67.1995  227.8116 H   0  0  0  0  0  0  0  0  0  0  0  0
  138.2900   67.4168  223.3894 H   0  0  0  0  0  0  0  0  0  0  0  0
  139.7568   70.2590  221.7236 H   0  0  0  0  0  0  0  0  0  0  0  0
  139.0348   68.5967  221.5857 H   0  0  0  0  0  0  0  0  0  0  0  0
  137.6817   70.8697  220.9895 H   0  0  0  0  0  0  0  0  0  0  0  0
  136.9191   69.3351  221.6426 H   0  0  0  0  0  0  0  0  0  0  0  0
  137.8329   71.2434  223.7007 H   0  0  0  0  0  0  0  0  0  0  0  0
  136.4690   71.8147  222.6202 H   0  0  0  0  0  0  0  0  0  0  0  0
  135.6550   71.7270  225.3116 H   0  0  0  0  0  0  0  0  0  0  0  0
  134.0410   70.3605  226.6471 H   0  0  0  0  0  0  0  0  0  0  0  0
  133.4544   68.0539  225.8818 H   0  0  0  0  0  0  0  0  0  0  0  0
  136.0139   68.4551  222.4987 H   0  0  0  0  0  0  0  0  0  0  0  0
  1  2  2  0
  2  3  1  0
  3  4  2  0
  4  5  1  0
  5  6  2  0
  6  7  1  0
  7  8  2  0
  8  9  1  0
  9 10  2  0
 10 11  1  0
 11 12  1  0
 12 13  1  0
 13 14  1  0
 14 15  1  0
 15 16  2  0
 16 17  1  0
 17 18  2  0
 18 19  1  0
 19 20  2  0
 11  2  1  0
 20 15  1  0
  8  3  1  0
  4 21  1  0
  5 22  1  0
  6 23  1  0
  7 24  1  0
 10 25  1  0
 12 26  1  0
 12 27  1  0
 13 28  1  0
 13 29  1  0
 14 30  1  0
 14 31  1  0
 16 32  1  0
 17 33  1  0
 18 34  1  0
 20 35  1  0
M  END
>  <UniqueID>  (19) 
488

>  <SMILES>  (19) 
S=c1c2ccccc2ncn1CCCc1cccnc1

>  <Energy>  (19) 
45.18153626428284

>  <Genealogy>  (19) 
S=c1c2ccccc2ncn1CCCc1cccnc1 (3D coordinates assigned)
S=c1c2ccccc2ncn1CCCc1cccnc1 (optimized conformer: 45.18153626428284 kcal/mol)

>  <smiles>  (19) 
S=c1c2ccccc2ncn1CCCc1cccnc1

>  <score_type>  (19) 
oracle

>  <origin>  (19) 
autodockgpu

>  <m_score__min__energy>  (19) 
-6.5599999999999996

>  <m_primary>  (19) 
energy

>  <meeko>  (19) 
{"free_energy": -6.22, "intermolecular_energy": -7.41, "internal_energy": -0.95, "cluster_size": 16, "cluster_id": 3, "rank_in_cluster": 3}

>  <energy>  (19) 
-5.59

>  <cluster_rmsd>  (19) 
0.0

>  <rmsd>  (19) 
274.0

>  <cluster>  (19) 
4

$$$$
GPAYCMIUDLGOAY-UHFFFAOYNA-N
     RDKit          3D

 35 37  0  0  0  0  0  0  0  0999 V2000
  140.3200   71.7470  223.8870 S   0  0  0  0  0  0  0  0  0  0  0  0
  139.8750   70.2400  224.4060 C   0  0  0  0  0  0  0  0  0  0  0  0
  140.1300   69.8560  225.7490 C   0  0  0  0  0  0  0  0  0  0  0  0
  140.8030   70.6800  226.6810 C   0  0  0  0  0  0  0  0  0  0  0  0
  141.0360   70.2310  227.9850 C   0  0  0  0  0  0  0  0  0  0  0  0
  140.6050   68.9660  228.3810 C   0  0  0  0  0  0  0  0  0  0  0  0
  139.9360   68.1410  227.4760 C   0  0  0  0  0  0  0  0  0  0  0  0
  139.7000   68.5780  226.1670 C   0  0  0  0  0  0  0  0  0  0  0  0
  139.0530   67.7660  225.3020 N   0  0  0  0  0  0  0  0  0  0  0  0
  138.8270   68.1380  224.0200 C   0  0  0  0  0  0  0  0  0  0  0  0
  139.2620   69.3460  223.5480 N   0  0  0  0  0  0  0  0  0  0  0  0
  139.0490   69.6130  222.1080 C   0  0  0  0  0  0  0  0  0  0  0  0
  137.5810   69.9550  221.7890 C   0  0  0  0  0  0  0  0  0  0  0  0
  136.8890   70.8420  222.8440 C   0  0  0  0  0  0  0  0  0  0  0  0
  135.9440   70.0910  223.7540 C   0  0  0  0  0  0  0  0  0  0  0  0
  135.4700   70.6660  224.9460 C   0  0  0  0  0  0  0  0  0  0  0  0
  134.6090   69.9460  225.7760 C   0  0  0  0  0  0  0  0  0  0  0  0
  134.2020   68.6670  225.3960 C   0  0  0  0  0  0  0  0  0  0  0  0
  134.6290   68.1390  224.2180 N   0  0  0  0  0  0  0  0  0  0  0  0
  135.4700   68.8190  223.3930 C   0  0  0  0  0  0  0  0  0  0  0  0
  141.1454   71.6806  226.3783 H   0  0  0  0  0  0  0  0  0  0  0  0
  141.5619   70.8793  228.7014 H   0  0  0  0  0  0  0  0  0  0  0  0
  140.7923   68.6178  229.4075 H   0  0  0  0  0  0  0  0  0  0  0  0
  139.5932   67.1447  227.7919 H   0  0  0  0  0  0  0  0  0  0  0  0
  138.2847   67.4577  223.3469 H   0  0  0  0  0  0  0  0  0  0  0  0
  139.6832   70.4600  221.8074 H   0  0  0  0  0  0  0  0  0  0  0  0
  139.3105   68.6997  221.5535 H   0  0  0  0  0  0  0  0  0  0  0  0
  137.5526   70.4825  220.8241 H   0  0  0  0  0  0  0  0  0  0  0  0
  137.0331   69.0013  221.7730 H   0  0  0  0  0  0  0  0  0  0  0  0
  137.6663   71.3120  223.4644 H   0  0  0  0  0  0  0  0  0  0  0  0
  136.2839   71.5777  222.2939 H   0  0  0  0  0  0  0  0  0  0  0  0
  135.7779   71.6845  225.2250 H   0  0  0  0  0  0  0  0  0  0  0  0
  134.2547   70.3832  226.7211 H   0  0  0  0  0  0  0  0  0  0  0  0
  133.5353   68.0853  226.0496 H   0  0  0  0  0  0  0  0  0  0  0  0
  135.7806   68.3703  222.4379 H   0  0  0  0  0  0  0  0  0  0  0  0
  1  2  2  0
  2  3  1  0
  3  4  2  0
  4  5  1  0
  5  6  2  0
  6  7  1  0
  7  8  2  0
  8  9  1  0
  9 10  2  0
 10 11  1  0
 11 12  1  0
 12 13  1  0
 13 14  1  0
 14 15  1  0
 15 16  2  0
 16 17  1  0
 17 18  2  0
 18 19  1  0
 19 20  2  0
 11  2  1  0
 20 15  1  0
  8  3  1  0
  4 21  1  0
  5 22  1  0
  6 23  1  0
  7 24  1  0
 10 25  1  0
 12 26  1  0
 12 27  1  0
 13 28  1  0
 13 29  1  0
 14 30  1  0
 14 31  1  0
 16 32  1  0
 17 33  1  0
 18 34  1  0
 20 35  1  0
M  END
>  <UniqueID>  (20) 
488

>  <SMILES>  (20) 
S=c1c2ccccc2ncn1CCCc1cccnc1

>  <Energy>  (20) 
45.18153626428284

>  <Genealogy>  (20) 
S=c1c2ccccc2ncn1CCCc1cccnc1 (3D coordinates assigned)
S=c1c2ccccc2ncn1CCCc1cccnc1 (optimized conformer: 45.18153626428284 kcal/mol)

>  <smiles>  (20) 
S=c1c2ccccc2ncn1CCCc1cccnc1

>  <score_type>  (20) 
oracle

>  <origin>  (20) 
autodockgpu

>  <m_score__min__energy>  (20) 
-6.5599999999999996

>  <m_primary>  (20) 
energy

>  <meeko>  (20) 
{"free_energy": -6.2, "intermolecular_energy": -7.4, "internal_energy": -1.0, "cluster_size": 16, "cluster_id": 3, "rank_in_cluster": 7}

>  <energy>  (20) 
-5.59

>  <cluster_rmsd>  (20) 
0.06

>  <rmsd>  (20) 
273.98

>  <cluster>  (20) 
4

$$$$
