CFPRWASAHFAXRY-FWJFTDBINA-M
     RDKit          3D

 33 36  0  0  0  0  0  0  0  0999 V2000
  146.5440   73.3940  219.1890 O   0  0  0  0  0  0  0  0  0  0  0  0
  145.5760   72.6170  219.4040 C   0  0  0  0  0  0  0  0  0  0  0  0
  145.7260   71.2730  219.2360 N   0  0  0  0  0  0  0  0  0  0  0  0
  144.6970   70.3960  219.4600 C   0  0  0  0  0  0  0  0  0  0  0  0
  144.8950   68.9780  219.2720 N   0  0  0  0  0  0  0  0  0  0  0  0
  146.2440   68.4080  219.3950 C   0  0  0  0  0  0  0  0  0  0  0  0
  146.3340   67.0760  218.6450 C   0  0  0  0  0  0  0  0  0  0  0  0
  145.2800   66.2130  219.0210 O   0  0  0  0  0  0  0  0  0  0  0  0
  144.0490   66.7620  218.5940 C   0  0  0  0  0  0  0  0  0  0  0  0
  143.7450   68.0660  219.3390 C   0  0  0  0  0  0  0  0  0  0  0  0
  143.4810   70.8740  219.8640 N   0  0  0  0  0  0  0  0  0  0  0  0
  143.3190   72.2070  220.0340 C   0  0  0  0  0  0  0  0  0  0  0  0
  141.9280   73.0050  220.5190 S   0  0  0  0  0  0  0  0  0  0  0  0
  142.6320   74.5480  220.4520 C   0  0  0  0  0  0  0  0  0  0  0  0
  141.9310   75.8020  220.7740 C   0  0  0  0  0  0  0  0  0  0  0  0
  142.1530   77.0460  220.1910 C   0  0  0  0  0  0  0  0  0  0  0  0
  141.3290   78.0540  220.7080 C   0  0  0  0  0  0  0  0  0  0  0  0
  140.4580   77.6130  221.6940 C   0  0  0  0  0  0  0  0  0  0  0  0
  140.7140   75.9680  221.9250 S   0  0  0  0  0  0  0  0  0  0  0  0
  143.9670   74.4360  220.0460 C   0  0  0  0  0  0  0  0  0  0  0  0
  144.3380   73.1070  219.8150 C   0  0  0  0  0  0  0  0  0  0  0  0
  146.9746   69.1124  218.9707 H   0  0  0  0  0  0  0  0  0  0  0  0
  146.4603   68.2323  220.4591 H   0  0  0  0  0  0  0  0  0  0  0  0
  146.2745   67.2671  217.5634 H   0  0  0  0  0  0  0  0  0  0  0  0
  147.2899   66.5941  218.8982 H   0  0  0  0  0  0  0  0  0  0  0  0
  144.1012   66.9675  217.5146 H   0  0  0  0  0  0  0  0  0  0  0  0
  143.2481   66.0392  218.8088 H   0  0  0  0  0  0  0  0  0  0  0  0
  142.8715   68.5507  218.8784 H   0  0  0  0  0  0  0  0  0  0  0  0
  143.5375   67.8326  220.3937 H   0  0  0  0  0  0  0  0  0  0  0  0
  142.9006   77.2203  219.4031 H   0  0  0  0  0  0  0  0  0  0  0  0
  141.3687   79.0982  220.3642 H   0  0  0  0  0  0  0  0  0  0  0  0
  139.7259   78.2333  222.2319 H   0  0  0  0  0  0  0  0  0  0  0  0
  144.6453   75.2931  219.9229 H   0  0  0  0  0  0  0  0  0  0  0  0
  1  2  2  0
  2  3  1  0
  3  4  2  0
  4  5  1  0
  5  6  1  0
  6  7  1  0
  7  8  1  0
  8  9  1  0
  9 10  1  0
  4 11  1  0
 11 12  1  0
 12 13  1  0
 13 14  1  0
 14 15  1  0
 15 16  2  0
 16 17  1  0
 17 18  2  0
 18 19  1  0
 14 20  2  0
 20 21  1  0
 21  2  1  0
 10  5  1  0
 21 12  2  0
 19 15  1  0
  6 22  1  0
  6 23  1  0
  7 24  1  0
  7 25  1  0
  9 26  1  0
  9 27  1  0
 10 28  1  0
 10 29  1  0
 16 30  1  0
 17 31  1  0
 18 32  1  0
 20 33  1  0
M  CHG  1  11  -1
M  END
>  <UniqueID>  (1) 
33

>  <SMILES>  (1) 
O=c1nc(N2CCOCC2)[n-]c2sc(-c3cccs3)cc12

>  <Energy>  (1) 
97.9093938313507

>  <Genealogy>  (1) 
O=c1nc(N2CCOCC2)[n-]c2sc(-c3cccs3)cc12 (protonated)
O=c1nc(N2CCOCC2)[n-]c2sc(-c3cccs3)cc12 (3D coordinates assigned)
O=c1nc(N2CCOCC2)[n-]c2sc(-c3cccs3)cc12 (nonaromatic ring conformer: 97.9093938313507 kcal/mol)

>  <smiles>  (1) 
O=c1nc(N2CCOCC2)[nH]c2sc(-c3cccs3)cc12

>  <score_type>  (1) 
oracle

>  <origin>  (1) 
autodockgpu

>  <m_score__min__energy>  (1) 
-5.9900000000000002

>  <m_primary>  (1) 
energy

>  <meeko>  (1) 
{"free_energy": -5.97, "intermolecular_energy": -6.56, "internal_energy": -0.43, "cluster_size": 16, "cluster_id": 1, "rank_in_cluster": 10}

>  <energy>  (1) 
-5.99

>  <cluster_rmsd>  (1) 
0.0

>  <rmsd>  (1) 
271.45

>  <cluster>  (1) 
1

$$$$
CFPRWASAHFAXRY-FWJFTDBINA-M
     RDKit          3D

 33 36  0  0  0  0  0  0  0  0999 V2000
  146.5550   73.3730  219.3130 O   0  0  0  0  0  0  0  0  0  0  0  0
  145.5840   72.5920  219.5000 C   0  0  0  0  0  0  0  0  0  0  0  0
  145.7400   71.2500  219.3210 N   0  0  0  0  0  0  0  0  0  0  0  0
  144.7080   70.3690  219.5140 C   0  0  0  0  0  0  0  0  0  0  0  0
  144.9130   68.9540  219.3150 N   0  0  0  0  0  0  0  0  0  0  0  0
  146.2750   68.4030  219.3450 C   0  0  0  0  0  0  0  0  0  0  0  0
  146.3320   67.0700  218.5930 C   0  0  0  0  0  0  0  0  0  0  0  0
  145.3180   66.1940  219.0410 O   0  0  0  0  0  0  0  0  0  0  0  0
  144.0540   66.7250  218.6990 C   0  0  0  0  0  0  0  0  0  0  0  0
  143.7830   68.0250  219.4620 C   0  0  0  0  0  0  0  0  0  0  0  0
  143.4830   70.8400  219.8990 N   0  0  0  0  0  0  0  0  0  0  0  0
  143.3160   72.1710  220.0800 C   0  0  0  0  0  0  0  0  0  0  0  0
  141.9130   72.9610  220.5460 S   0  0  0  0  0  0  0  0  0  0  0  0
  142.6150   74.5060  220.5110 C   0  0  0  0  0  0  0  0  0  0  0  0
  141.9060   75.7560  220.8320 C   0  0  0  0  0  0  0  0  0  0  0  0
  141.0330   75.9600  221.8960 C   0  0  0  0  0  0  0  0  0  0  0  0
  140.5110   77.2590  221.9420 C   0  0  0  0  0  0  0  0  0  0  0  0
  140.9660   78.0800  220.9200 C   0  0  0  0  0  0  0  0  0  0  0  0
  142.0190   77.1890  219.9590 S   0  0  0  0  0  0  0  0  0  0  0  0
  143.9590   74.4010  220.1300 C   0  0  0  0  0  0  0  0  0  0  0  0
  144.3370   73.0750  219.8920 C   0  0  0  0  0  0  0  0  0  0  0  0
  146.9644   69.1163  218.8698 H   0  0  0  0  0  0  0  0  0  0  0  0
  146.5667   68.2332  220.3919 H   0  0  0  0  0  0  0  0  0  0  0  0
  146.1967   67.2573  217.5175 H   0  0  0  0  0  0  0  0  0  0  0  0
  147.3093   66.6018  218.7818 H   0  0  0  0  0  0  0  0  0  0  0  0
  144.0297   66.9298  217.6185 H   0  0  0  0  0  0  0  0  0  0  0  0
  143.2799   65.9914  218.9684 H   0  0  0  0  0  0  0  0  0  0  0  0
  142.8728   68.4961  219.0625 H   0  0  0  0  0  0  0  0  0  0  0  0
  143.6520   67.7905  220.5287 H   0  0  0  0  0  0  0  0  0  0  0  0
  140.7782   75.1793  222.6278 H   0  0  0  0  0  0  0  0  0  0  0  0
  139.8062   77.5968  222.7160 H   0  0  0  0  0  0  0  0  0  0  0  0
  140.6860   79.1324  220.7653 H   0  0  0  0  0  0  0  0  0  0  0  0
  144.6379   75.2607  220.0297 H   0  0  0  0  0  0  0  0  0  0  0  0
  1  2  2  0
  2  3  1  0
  3  4  2  0
  4  5  1  0
  5  6  1  0
  6  7  1  0
  7  8  1  0
  8  9  1  0
  9 10  1  0
  4 11  1  0
 11 12  1  0
 12 13  1  0
 13 14  1  0
 14 15  1  0
 15 16  2  0
 16 17  1  0
 17 18  2  0
 18 19  1  0
 14 20  2  0
 20 21  1  0
 21  2  1  0
 10  5  1  0
 21 12  2  0
 19 15  1  0
  6 22  1  0
  6 23  1  0
  7 24  1  0
  7 25  1  0
  9 26  1  0
  9 27  1  0
 10 28  1  0
 10 29  1  0
 16 30  1  0
 17 31  1  0
 18 32  1  0
 20 33  1  0
M  CHG  1  11  -1
M  END
>  <UniqueID>  (2) 
33

>  <SMILES>  (2) 
O=c1nc(N2CCOCC2)[n-]c2sc(-c3cccs3)cc12

>  <Energy>  (2) 
97.9093938313507

>  <Genealogy>  (2) 
O=c1nc(N2CCOCC2)[n-]c2sc(-c3cccs3)cc12 (protonated)
O=c1nc(N2CCOCC2)[n-]c2sc(-c3cccs3)cc12 (3D coordinates assigned)
O=c1nc(N2CCOCC2)[n-]c2sc(-c3cccs3)cc12 (nonaromatic ring conformer: 97.9093938313507 kcal/mol)

>  <smiles>  (2) 
O=c1nc(N2CCOCC2)[nH]c2sc(-c3cccs3)cc12

>  <score_type>  (2) 
oracle

>  <origin>  (2) 
autodockgpu

>  <m_score__min__energy>  (2) 
-5.9900000000000002

>  <m_primary>  (2) 
energy

>  <meeko>  (2) 
{"free_energy": -5.95, "intermolecular_energy": -6.55, "internal_energy": -0.43, "cluster_size": 16, "cluster_id": 1, "rank_in_cluster": 12}

>  <energy>  (2) 
-5.99

>  <cluster_rmsd>  (2) 
0.06

>  <rmsd>  (2) 
271.43

>  <cluster>  (2) 
1

$$$$
CFPRWASAHFAXRY-FWJFTDBINA-M
     RDKit          3D

 33 36  0  0  0  0  0  0  0  0999 V2000
  146.6890   73.6640  219.4780 O   0  0  0  0  0  0  0  0  0  0  0  0
  145.7480   72.8280  219.5450 C   0  0  0  0  0  0  0  0  0  0  0  0
  145.9830   71.5110  219.2830 N   0  0  0  0  0  0  0  0  0  0  0  0
  144.9860   70.5720  219.3440 C   0  0  0  0  0  0  0  0  0  0  0  0
  145.2740   69.1860  219.0610 N   0  0  0  0  0  0  0  0  0  0  0  0
  146.2870   68.8430  218.0520 C   0  0  0  0  0  0  0  0  0  0  0  0
  146.0540   67.4270  217.5180 C   0  0  0  0  0  0  0  0  0  0  0  0
  145.9240   66.5030  218.5780 O   0  0  0  0  0  0  0  0  0  0  0  0
  144.7480   66.7890  219.3080 C   0  0  0  0  0  0  0  0  0  0  0  0
  144.8580   68.1450  220.0110 C   0  0  0  0  0  0  0  0  0  0  0  0
  143.7170   70.9580  219.6780 N   0  0  0  0  0  0  0  0  0  0  0  0
  143.4720   72.2620  219.9410 C   0  0  0  0  0  0  0  0  0  0  0  0
  142.0050   72.9520  220.3660 S   0  0  0  0  0  0  0  0  0  0  0  0
  142.6290   74.5250  220.4850 C   0  0  0  0  0  0  0  0  0  0  0  0
  141.8390   75.7150  220.8460 C   0  0  0  0  0  0  0  0  0  0  0  0
  140.9180   75.8120  221.8840 C   0  0  0  0  0  0  0  0  0  0  0  0
  140.3220   77.0760  221.9790 C   0  0  0  0  0  0  0  0  0  0  0  0
  140.7660   77.9760  221.0210 C   0  0  0  0  0  0  0  0  0  0  0  0
  141.9020   77.1990  220.0560 S   0  0  0  0  0  0  0  0  0  0  0  0
  143.9970   74.5100  220.1890 C   0  0  0  0  0  0  0  0  0  0  0  0
  144.4560   73.2240  219.8840 C   0  0  0  0  0  0  0  0  0  0  0  0
  146.2251   69.5588  217.2190 H   0  0  0  0  0  0  0  0  0  0  0  0
  147.2825   68.8883  218.5177 H   0  0  0  0  0  0  0  0  0  0  0  0
  145.1334   67.4162  216.9161 H   0  0  0  0  0  0  0  0  0  0  0  0
  146.9188   67.1368  216.9033 H   0  0  0  0  0  0  0  0  0  0  0  0
  143.8916   66.8094  218.6179 H   0  0  0  0  0  0  0  0  0  0  0  0
  144.6085   66.0081  220.0701 H   0  0  0  0  0  0  0  0  0  0  0  0
  143.8792   68.4129  220.4356 H   0  0  0  0  0  0  0  0  0  0  0  0
  145.6109   68.0712  220.8095 H   0  0  0  0  0  0  0  0  0  0  0  0
  140.6814   74.9791  222.5625 H   0  0  0  0  0  0  0  0  0  0  0  0
  139.5719   77.3313  222.7420 H   0  0  0  0  0  0  0  0  0  0  0  0
  140.4322   79.0184  220.9118 H   0  0  0  0  0  0  0  0  0  0  0  0
  144.6366   75.4049  220.1954 H   0  0  0  0  0  0  0  0  0  0  0  0
  1  2  2  0
  2  3  1  0
  3  4  2  0
  4  5  1  0
  5  6  1  0
  6  7  1  0
  7  8  1  0
  8  9  1  0
  9 10  1  0
  4 11  1  0
 11 12  1  0
 12 13  1  0
 13 14  1  0
 14 15  1  0
 15 16  2  0
 16 17  1  0
 17 18  2  0
 18 19  1  0
 14 20  2  0
 20 21  1  0
 21  2  1  0
 10  5  1  0
 21 12  2  0
 19 15  1  0
  6 22  1  0
  6 23  1  0
  7 24  1  0
  7 25  1  0
  9 26  1  0
  9 27  1  0
 10 28  1  0
 10 29  1  0
 16 30  1  0
 17 31  1  0
 18 32  1  0
 20 33  1  0
M  CHG  1  11  -1
M  END
>  <UniqueID>  (3) 
33

>  <SMILES>  (3) 
O=c1nc(N2CCOCC2)[n-]c2sc(-c3cccs3)cc12

>  <Energy>  (3) 
97.9093938313507

>  <Genealogy>  (3) 
O=c1nc(N2CCOCC2)[n-]c2sc(-c3cccs3)cc12 (protonated)
O=c1nc(N2CCOCC2)[n-]c2sc(-c3cccs3)cc12 (3D coordinates assigned)
O=c1nc(N2CCOCC2)[n-]c2sc(-c3cccs3)cc12 (nonaromatic ring conformer: 97.9093938313507 kcal/mol)

>  <smiles>  (3) 
O=c1nc(N2CCOCC2)[nH]c2sc(-c3cccs3)cc12

>  <score_type>  (3) 
oracle

>  <origin>  (3) 
autodockgpu

>  <m_score__min__energy>  (3) 
-5.9900000000000002

>  <m_primary>  (3) 
energy

>  <meeko>  (3) 
{"free_energy": -5.94, "intermolecular_energy": -6.54, "internal_energy": -0.43, "cluster_size": 16, "cluster_id": 1, "rank_in_cluster": 15}

>  <energy>  (3) 
-5.99

>  <cluster_rmsd>  (3) 
0.01

>  <rmsd>  (3) 
271.45

>  <cluster>  (3) 
1

$$$$
CFPRWASAHFAXRY-FWJFTDBINA-M
     RDKit          3D

 33 36  0  0  0  0  0  0  0  0999 V2000
  146.4930   73.3920  218.9780 O   0  0  0  0  0  0  0  0  0  0  0  0
  145.5570   72.6120  219.2950 C   0  0  0  0  0  0  0  0  0  0  0  0
  145.7190   71.2630  219.1780 N   0  0  0  0  0  0  0  0  0  0  0  0
  144.7240   70.3830  219.5120 C   0  0  0  0  0  0  0  0  0  0  0  0
  144.9340   68.9610  219.3750 N   0  0  0  0  0  0  0  0  0  0  0  0
  146.3030   68.4250  219.3530 C   0  0  0  0  0  0  0  0  0  0  0  0
  146.3310   67.0550  218.6680 C   0  0  0  0  0  0  0  0  0  0  0  0
  145.3570   66.1940  219.2210 O   0  0  0  0  0  0  0  0  0  0  0  0
  144.0680   66.6940  218.9280 C   0  0  0  0  0  0  0  0  0  0  0  0
  143.8270   68.0310  219.6370 C   0  0  0  0  0  0  0  0  0  0  0  0
  143.5300   70.8600  219.9780 N   0  0  0  0  0  0  0  0  0  0  0  0
  143.3560   72.1970  220.0990 C   0  0  0  0  0  0  0  0  0  0  0  0
  141.9870   72.9960  220.6430 S   0  0  0  0  0  0  0  0  0  0  0  0
  142.6570   74.5440  220.4580 C   0  0  0  0  0  0  0  0  0  0  0  0
  141.9580   75.8020  220.7720 C   0  0  0  0  0  0  0  0  0  0  0  0
  142.1800   77.0410  220.1790 C   0  0  0  0  0  0  0  0  0  0  0  0
  141.3570   78.0530  220.6880 C   0  0  0  0  0  0  0  0  0  0  0  0
  140.4880   77.6210  221.6800 C   0  0  0  0  0  0  0  0  0  0  0  0
  140.7430   75.9770  221.9220 S   0  0  0  0  0  0  0  0  0  0  0  0
  143.9630   74.4340  219.9650 C   0  0  0  0  0  0  0  0  0  0  0  0
  144.3410   73.1010  219.7690 C   0  0  0  0  0  0  0  0  0  0  0  0
  146.9547   69.1189  218.8018 H   0  0  0  0  0  0  0  0  0  0  0  0
  146.6582   68.3129  220.3880 H   0  0  0  0  0  0  0  0  0  0  0  0
  146.1288   67.1850  217.5946 H   0  0  0  0  0  0  0  0  0  0  0  0
  147.3236   66.6063  218.8208 H   0  0  0  0  0  0  0  0  0  0  0  0
  143.9767   66.8406  217.8416 H   0  0  0  0  0  0  0  0  0  0  0  0
  143.3205   65.9685  219.2814 H   0  0  0  0  0  0  0  0  0  0  0  0
  142.8891   68.4720  219.2683 H   0  0  0  0  0  0  0  0  0  0  0  0
  143.7626   67.8519  220.7204 H   0  0  0  0  0  0  0  0  0  0  0  0
  142.9272   77.2087  219.3894 H   0  0  0  0  0  0  0  0  0  0  0  0
  141.3957   79.0939  220.3344 H   0  0  0  0  0  0  0  0  0  0  0  0
  139.7584   78.2462  222.2155 H   0  0  0  0  0  0  0  0  0  0  0  0
  144.6154   75.2947  219.7562 H   0  0  0  0  0  0  0  0  0  0  0  0
  1  2  2  0
  2  3  1  0
  3  4  2  0
  4  5  1  0
  5  6  1  0
  6  7  1  0
  7  8  1  0
  8  9  1  0
  9 10  1  0
  4 11  1  0
 11 12  1  0
 12 13  1  0
 13 14  1  0
 14 15  1  0
 15 16  2  0
 16 17  1  0
 17 18  2  0
 18 19  1  0
 14 20  2  0
 20 21  1  0
 21  2  1  0
 10  5  1  0
 21 12  2  0
 19 15  1  0
  6 22  1  0
  6 23  1  0
  7 24  1  0
  7 25  1  0
  9 26  1  0
  9 27  1  0
 10 28  1  0
 10 29  1  0
 16 30  1  0
 17 31  1  0
 18 32  1  0
 20 33  1  0
M  CHG  1  11  -1
M  END
>  <UniqueID>  (4) 
33

>  <SMILES>  (4) 
O=c1nc(N2CCOCC2)[n-]c2sc(-c3cccs3)cc12

>  <Energy>  (4) 
97.9093938313507

>  <Genealogy>  (4) 
O=c1nc(N2CCOCC2)[n-]c2sc(-c3cccs3)cc12 (protonated)
O=c1nc(N2CCOCC2)[n-]c2sc(-c3cccs3)cc12 (3D coordinates assigned)
O=c1nc(N2CCOCC2)[n-]c2sc(-c3cccs3)cc12 (nonaromatic ring conformer: 97.9093938313507 kcal/mol)

>  <smiles>  (4) 
O=c1nc(N2CCOCC2)[nH]c2sc(-c3cccs3)cc12

>  <score_type>  (4) 
oracle

>  <origin>  (4) 
autodockgpu

>  <m_score__min__energy>  (4) 
-5.9900000000000002

>  <m_primary>  (4) 
energy

>  <meeko>  (4) 
{"free_energy": -5.99, "intermolecular_energy": -6.58, "internal_energy": -0.43, "cluster_size": 16, "cluster_id": 1, "rank_in_cluster": 2}

>  <energy>  (4) 
-5.99

>  <cluster_rmsd>  (4) 
0.04

>  <rmsd>  (4) 
271.44

>  <cluster>  (4) 
1

$$$$
CFPRWASAHFAXRY-FWJFTDBINA-M
     RDKit          3D

 33 36  0  0  0  0  0  0  0  0999 V2000
  146.6050   73.3960  219.2500 O   0  0  0  0  0  0  0  0  0  0  0  0
  145.6330   72.6230  219.4580 C   0  0  0  0  0  0  0  0  0  0  0  0
  145.7840   71.2760  219.3090 N   0  0  0  0  0  0  0  0  0  0  0  0
  144.7500   70.4030  219.5260 C   0  0  0  0  0  0  0  0  0  0  0  0
  144.9500   68.9830  219.3590 N   0  0  0  0  0  0  0  0  0  0  0  0
  146.3140   68.4400  219.3040 C   0  0  0  0  0  0  0  0  0  0  0  0
  146.3240   67.0830  218.5940 C   0  0  0  0  0  0  0  0  0  0  0  0
  145.3530   66.2180  219.1460 O   0  0  0  0  0  0  0  0  0  0  0  0
  144.0630   66.7310  218.8830 C   0  0  0  0  0  0  0  0  0  0  0  0
  143.8410   68.0550  219.6210 C   0  0  0  0  0  0  0  0  0  0  0  0
  143.5280   70.8870  219.9030 N   0  0  0  0  0  0  0  0  0  0  0  0
  143.3650   72.2220  220.0540 C   0  0  0  0  0  0  0  0  0  0  0  0
  141.9660   73.0270  220.5050 S   0  0  0  0  0  0  0  0  0  0  0  0
  142.6730   74.5690  220.4320 C   0  0  0  0  0  0  0  0  0  0  0  0
  141.9680   75.8280  220.7270 C   0  0  0  0  0  0  0  0  0  0  0  0
  142.1950   77.0620  220.1250 C   0  0  0  0  0  0  0  0  0  0  0  0
  141.3650   78.0780  220.6170 C   0  0  0  0  0  0  0  0  0  0  0  0
  140.4860   77.6530  221.6030 C   0  0  0  0  0  0  0  0  0  0  0  0
  140.7410   76.0110  221.8620 S   0  0  0  0  0  0  0  0  0  0  0  0
  144.0150   74.4500  220.0500 C   0  0  0  0  0  0  0  0  0  0  0  0
  144.3880   73.1180  219.8410 C   0  0  0  0  0  0  0  0  0  0  0  0
  146.9604   69.1404  218.7549 H   0  0  0  0  0  0  0  0  0  0  0  0
  146.6849   68.3065  220.3309 H   0  0  0  0  0  0  0  0  0  0  0  0
  146.1068   67.2336  217.5262 H   0  0  0  0  0  0  0  0  0  0  0  0
  147.3161   66.6259  218.7235 H   0  0  0  0  0  0  0  0  0  0  0  0
  143.9558   66.8992  217.8012 H   0  0  0  0  0  0  0  0  0  0  0  0
  143.3167   66.0032  219.2341 H   0  0  0  0  0  0  0  0  0  0  0  0
  142.9003   68.5086  219.2756 H   0  0  0  0  0  0  0  0  0  0  0  0
  143.7918   67.8558  220.7017 H   0  0  0  0  0  0  0  0  0  0  0  0
  142.9502   77.2235  219.3416 H   0  0  0  0  0  0  0  0  0  0  0  0
  141.4064   79.1160  220.2553 H   0  0  0  0  0  0  0  0  0  0  0  0
  139.7495   78.2816  222.1251 H   0  0  0  0  0  0  0  0  0  0  0  0
  144.6967   75.3047  219.9284 H   0  0  0  0  0  0  0  0  0  0  0  0
  1  2  2  0
  2  3  1  0
  3  4  2  0
  4  5  1  0
  5  6  1  0
  6  7  1  0
  7  8  1  0
  8  9  1  0
  9 10  1  0
  4 11  1  0
 11 12  1  0
 12 13  1  0
 13 14  1  0
 14 15  1  0
 15 16  2  0
 16 17  1  0
 17 18  2  0
 18 19  1  0
 14 20  2  0
 20 21  1  0
 21  2  1  0
 10  5  1  0
 21 12  2  0
 19 15  1  0
  6 22  1  0
  6 23  1  0
  7 24  1  0
  7 25  1  0
  9 26  1  0
  9 27  1  0
 10 28  1  0
 10 29  1  0
 16 30  1  0
 17 31  1  0
 18 32  1  0
 20 33  1  0
M  CHG  1  11  -1
M  END
>  <UniqueID>  (5) 
33

>  <SMILES>  (5) 
O=c1nc(N2CCOCC2)[n-]c2sc(-c3cccs3)cc12

>  <Energy>  (5) 
97.9093938313507

>  <Genealogy>  (5) 
O=c1nc(N2CCOCC2)[n-]c2sc(-c3cccs3)cc12 (protonated)
O=c1nc(N2CCOCC2)[n-]c2sc(-c3cccs3)cc12 (3D coordinates assigned)
O=c1nc(N2CCOCC2)[n-]c2sc(-c3cccs3)cc12 (nonaromatic ring conformer: 97.9093938313507 kcal/mol)

>  <smiles>  (5) 
O=c1nc(N2CCOCC2)[nH]c2sc(-c3cccs3)cc12

>  <score_type>  (5) 
oracle

>  <origin>  (5) 
autodockgpu

>  <m_score__min__energy>  (5) 
-5.9900000000000002

>  <m_primary>  (5) 
energy

>  <meeko>  (5) 
{"free_energy": -5.98, "intermolecular_energy": -6.58, "internal_energy": -0.43, "cluster_size": 16, "cluster_id": 1, "rank_in_cluster": 7}

>  <energy>  (5) 
-5.98

>  <cluster_rmsd>  (5) 
0.04

>  <rmsd>  (5) 
271.46

>  <cluster>  (5) 
1

$$$$
CFPRWASAHFAXRY-FWJFTDBINA-M
     RDKit          3D

 33 36  0  0  0  0  0  0  0  0999 V2000
  146.5200   73.3830  219.0320 O   0  0  0  0  0  0  0  0  0  0  0  0
  145.5750   72.6010  219.3190 C   0  0  0  0  0  0  0  0  0  0  0  0
  145.7350   71.2550  219.1830 N   0  0  0  0  0  0  0  0  0  0  0  0
  144.7300   70.3720  219.4850 C   0  0  0  0  0  0  0  0  0  0  0  0
  144.9370   68.9520  219.3290 N   0  0  0  0  0  0  0  0  0  0  0  0
  146.3040   68.4120  219.3150 C   0  0  0  0  0  0  0  0  0  0  0  0
  146.3370   67.0530  218.6100 C   0  0  0  0  0  0  0  0  0  0  0  0
  145.3530   66.1870  219.1370 O   0  0  0  0  0  0  0  0  0  0  0  0
  144.0700   66.6960  218.8360 C   0  0  0  0  0  0  0  0  0  0  0  0
  143.8240   68.0220  219.5620 C   0  0  0  0  0  0  0  0  0  0  0  0
  143.5300   70.8470  219.9370 N   0  0  0  0  0  0  0  0  0  0  0  0
  143.3590   72.1830  220.0760 C   0  0  0  0  0  0  0  0  0  0  0  0
  141.9830   72.9780  220.6090 S   0  0  0  0  0  0  0  0  0  0  0  0
  142.6620   74.5270  220.4610 C   0  0  0  0  0  0  0  0  0  0  0  0
  141.9620   75.7820  220.7820 C   0  0  0  0  0  0  0  0  0  0  0  0
  142.1840   77.0250  220.1980 C   0  0  0  0  0  0  0  0  0  0  0  0
  141.3600   78.0340  220.7130 C   0  0  0  0  0  0  0  0  0  0  0  0
  140.4910   77.5940  221.7010 C   0  0  0  0  0  0  0  0  0  0  0  0
  140.7470   75.9490  221.9330 S   0  0  0  0  0  0  0  0  0  0  0  0
  143.9760   74.4190  219.9900 C   0  0  0  0  0  0  0  0  0  0  0  0
  144.3530   73.0880  219.7790 C   0  0  0  0  0  0  0  0  0  0  0  0
  146.9643   69.1122  218.7823 H   0  0  0  0  0  0  0  0  0  0  0  0
  146.6459   68.2828  220.3525 H   0  0  0  0  0  0  0  0  0  0  0  0
  146.1495   67.1999  217.5361 H   0  0  0  0  0  0  0  0  0  0  0  0
  147.3261   66.5988  218.7691 H   0  0  0  0  0  0  0  0  0  0  0  0
  143.9930   66.8598  217.7510 H   0  0  0  0  0  0  0  0  0  0  0  0
  143.3159   65.9677  219.1691 H   0  0  0  0  0  0  0  0  0  0  0  0
  142.8925   68.4718  219.1879 H   0  0  0  0  0  0  0  0  0  0  0  0
  143.7447   67.8264  220.6416 H   0  0  0  0  0  0  0  0  0  0  0  0
  142.9320   77.1982  219.4103 H   0  0  0  0  0  0  0  0  0  0  0  0
  141.3983   79.0773  220.3666 H   0  0  0  0  0  0  0  0  0  0  0  0
  139.7602   78.2149  222.2399 H   0  0  0  0  0  0  0  0  0  0  0  0
  144.6354   75.2803  219.8071 H   0  0  0  0  0  0  0  0  0  0  0  0
  1  2  2  0
  2  3  1  0
  3  4  2  0
  4  5  1  0
  5  6  1  0
  6  7  1  0
  7  8  1  0
  8  9  1  0
  9 10  1  0
  4 11  1  0
 11 12  1  0
 12 13  1  0
 13 14  1  0
 14 15  1  0
 15 16  2  0
 16 17  1  0
 17 18  2  0
 18 19  1  0
 14 20  2  0
 20 21  1  0
 21  2  1  0
 10  5  1  0
 21 12  2  0
 19 15  1  0
  6 22  1  0
  6 23  1  0
  7 24  1  0
  7 25  1  0
  9 26  1  0
  9 27  1  0
 10 28  1  0
 10 29  1  0
 16 30  1  0
 17 31  1  0
 18 32  1  0
 20 33  1  0
M  CHG  1  11  -1
M  END
>  <UniqueID>  (6) 
33

>  <SMILES>  (6) 
O=c1nc(N2CCOCC2)[n-]c2sc(-c3cccs3)cc12

>  <Energy>  (6) 
97.9093938313507

>  <Genealogy>  (6) 
O=c1nc(N2CCOCC2)[n-]c2sc(-c3cccs3)cc12 (protonated)
O=c1nc(N2CCOCC2)[n-]c2sc(-c3cccs3)cc12 (3D coordinates assigned)
O=c1nc(N2CCOCC2)[n-]c2sc(-c3cccs3)cc12 (nonaromatic ring conformer: 97.9093938313507 kcal/mol)

>  <smiles>  (6) 
O=c1nc(N2CCOCC2)[nH]c2sc(-c3cccs3)cc12

>  <score_type>  (6) 
oracle

>  <origin>  (6) 
autodockgpu

>  <m_score__min__energy>  (6) 
-5.9900000000000002

>  <m_primary>  (6) 
energy

>  <meeko>  (6) 
{"free_energy": -5.98, "intermolecular_energy": -6.57, "internal_energy": -0.43, "cluster_size": 16, "cluster_id": 1, "rank_in_cluster": 8}

>  <energy>  (6) 
-5.98

>  <cluster_rmsd>  (6) 
0.04

>  <rmsd>  (6) 
271.42

>  <cluster>  (6) 
1

$$$$
CFPRWASAHFAXRY-FWJFTDBINA-M
     RDKit          3D

 33 36  0  0  0  0  0  0  0  0999 V2000
  146.8480   73.7840  220.1890 O   0  0  0  0  0  0  0  0  0  0  0  0
  145.9540   72.9510  219.8830 C   0  0  0  0  0  0  0  0  0  0  0  0
  146.2990   71.7160  219.4200 N   0  0  0  0  0  0  0  0  0  0  0  0
  145.3560   70.7820  219.0770 C   0  0  0  0  0  0  0  0  0  0  0  0
  145.7600   69.4840  218.5910 N   0  0  0  0  0  0  0  0  0  0  0  0
  146.3170   69.3530  217.2370 C   0  0  0  0  0  0  0  0  0  0  0  0
  146.1590   67.9180  216.7290 C   0  0  0  0  0  0  0  0  0  0  0  0
  146.6530   66.9910  217.6740 O   0  0  0  0  0  0  0  0  0  0  0  0
  145.8480   67.0310  218.8350 C   0  0  0  0  0  0  0  0  0  0  0  0
  145.9760   68.3840  219.5410 C   0  0  0  0  0  0  0  0  0  0  0  0
  144.0290   71.0890  219.2000 N   0  0  0  0  0  0  0  0  0  0  0  0
  143.6740   72.3110  219.6600 C   0  0  0  0  0  0  0  0  0  0  0  0
  142.1200   72.8960  219.8880 S   0  0  0  0  0  0  0  0  0  0  0  0
  142.6330   74.4130  220.4510 C   0  0  0  0  0  0  0  0  0  0  0  0
  141.7310   75.5020  220.8630 C   0  0  0  0  0  0  0  0  0  0  0  0
  141.8180   76.8370  220.4820 C   0  0  0  0  0  0  0  0  0  0  0  0
  140.8140   77.6390  221.0380 C   0  0  0  0  0  0  0  0  0  0  0  0
  139.9340   76.9440  221.8560 C   0  0  0  0  0  0  0  0  0  0  0  0
  140.4070   75.3310  221.8870 S   0  0  0  0  0  0  0  0  0  0  0  0
  144.0320   74.4610  220.4590 C   0  0  0  0  0  0  0  0  0  0  0  0
  144.6030   73.2650  220.0090 C   0  0  0  0  0  0  0  0  0  0  0  0
  145.7858   70.0375  216.5593 H   0  0  0  0  0  0  0  0  0  0  0  0
  147.3876   69.6040  217.2669 H   0  0  0  0  0  0  0  0  0  0  0  0
  145.0930   67.7151  216.5489 H   0  0  0  0  0  0  0  0  0  0  0  0
  146.7337   67.8099  215.7973 H   0  0  0  0  0  0  0  0  0  0  0  0
  144.7975   66.8708  218.5508 H   0  0  0  0  0  0  0  0  0  0  0  0
  146.1839   66.2416  219.5235 H   0  0  0  0  0  0  0  0  0  0  0  0
  145.2257   68.4460  220.3430 H   0  0  0  0  0  0  0  0  0  0  0  0
  146.9889   68.4711  219.9610 H   0  0  0  0  0  0  0  0  0  0  0  0
  142.5983   77.2243  219.8104 H   0  0  0  0  0  0  0  0  0  0  0  0
  140.7304   78.7186  220.8447 H   0  0  0  0  0  0  0  0  0  0  0  0
  139.0751   77.3744  222.3917 H   0  0  0  0  0  0  0  0  0  0  0  0
  144.6146   75.3366  220.7814 H   0  0  0  0  0  0  0  0  0  0  0  0
  1  2  2  0
  2  3  1  0
  3  4  2  0
  4  5  1  0
  5  6  1  0
  6  7  1  0
  7  8  1  0
  8  9  1  0
  9 10  1  0
  4 11  1  0
 11 12  1  0
 12 13  1  0
 13 14  1  0
 14 15  1  0
 15 16  2  0
 16 17  1  0
 17 18  2  0
 18 19  1  0
 14 20  2  0
 20 21  1  0
 21  2  1  0
 10  5  1  0
 21 12  2  0
 19 15  1  0
  6 22  1  0
  6 23  1  0
  7 24  1  0
  7 25  1  0
  9 26  1  0
  9 27  1  0
 10 28  1  0
 10 29  1  0
 16 30  1  0
 17 31  1  0
 18 32  1  0
 20 33  1  0
M  CHG  1  11  -1
M  END
>  <UniqueID>  (7) 
33

>  <SMILES>  (7) 
O=c1nc(N2CCOCC2)[n-]c2sc(-c3cccs3)cc12

>  <Energy>  (7) 
97.9093938313507

>  <Genealogy>  (7) 
O=c1nc(N2CCOCC2)[n-]c2sc(-c3cccs3)cc12 (protonated)
O=c1nc(N2CCOCC2)[n-]c2sc(-c3cccs3)cc12 (3D coordinates assigned)
O=c1nc(N2CCOCC2)[n-]c2sc(-c3cccs3)cc12 (nonaromatic ring conformer: 97.9093938313507 kcal/mol)

>  <smiles>  (7) 
O=c1nc(N2CCOCC2)[nH]c2sc(-c3cccs3)cc12

>  <score_type>  (7) 
oracle

>  <origin>  (7) 
autodockgpu

>  <m_score__min__energy>  (7) 
-5.9900000000000002

>  <m_primary>  (7) 
energy

>  <meeko>  (7) 
{"free_energy": -5.87, "intermolecular_energy": -6.47, "internal_energy": -0.42, "cluster_size": 16, "cluster_id": 1, "rank_in_cluster": 16}

>  <energy>  (7) 
-5.98

>  <cluster_rmsd>  (7) 
0.06

>  <rmsd>  (7) 
271.44

>  <cluster>  (7) 
1

$$$$
CFPRWASAHFAXRY-FWJFTDBINA-M
     RDKit          3D

 33 36  0  0  0  0  0  0  0  0999 V2000
  146.5510   73.3860  219.1510 O   0  0  0  0  0  0  0  0  0  0  0  0
  145.5940   72.6080  219.4080 C   0  0  0  0  0  0  0  0  0  0  0  0
  145.7520   71.2610  219.2760 N   0  0  0  0  0  0  0  0  0  0  0  0
  144.7340   70.3830  219.5470 C   0  0  0  0  0  0  0  0  0  0  0  0
  144.9400   68.9620  219.3950 N   0  0  0  0  0  0  0  0  0  0  0  0
  146.3070   68.4240  219.3420 C   0  0  0  0  0  0  0  0  0  0  0  0
  146.3200   67.0600  218.6480 C   0  0  0  0  0  0  0  0  0  0  0  0
  145.3560   66.1960  219.2140 O   0  0  0  0  0  0  0  0  0  0  0  0
  144.0620   66.7000  218.9500 C   0  0  0  0  0  0  0  0  0  0  0  0
  143.8370   68.0310  219.6730 C   0  0  0  0  0  0  0  0  0  0  0  0
  143.5230   70.8630  219.9620 N   0  0  0  0  0  0  0  0  0  0  0  0
  143.3550   72.1990  220.0980 C   0  0  0  0  0  0  0  0  0  0  0  0
  141.9670   73.0000  220.5890 S   0  0  0  0  0  0  0  0  0  0  0  0
  142.6570   74.5460  220.4630 C   0  0  0  0  0  0  0  0  0  0  0  0
  141.9530   75.8040  220.7630 C   0  0  0  0  0  0  0  0  0  0  0  0
  142.1690   77.0380  220.1570 C   0  0  0  0  0  0  0  0  0  0  0  0
  141.3430   78.0520  220.6570 C   0  0  0  0  0  0  0  0  0  0  0  0
  140.4770   77.6270  221.6540 C   0  0  0  0  0  0  0  0  0  0  0  0
  140.7390   75.9870  221.9140 S   0  0  0  0  0  0  0  0  0  0  0  0
  143.9840   74.4320  220.0320 C   0  0  0  0  0  0  0  0  0  0  0  0
  144.3610   73.1000  219.8310 C   0  0  0  0  0  0  0  0  0  0  0  0
  146.9487   69.1208  218.7828 H   0  0  0  0  0  0  0  0  0  0  0  0
  146.6820   68.3040  220.3691 H   0  0  0  0  0  0  0  0  0  0  0  0
  146.0970   67.1976  217.5797 H   0  0  0  0  0  0  0  0  0  0  0  0
  147.3149   66.6093  218.7784 H   0  0  0  0  0  0  0  0  0  0  0  0
  143.9497   66.8549  217.8668 H   0  0  0  0  0  0  0  0  0  0  0  0
  143.3205   65.9729  219.3126 H   0  0  0  0  0  0  0  0  0  0  0  0
  142.8923   68.4756  219.3268 H   0  0  0  0  0  0  0  0  0  0  0  0
  143.7943   67.8441  220.7562 H   0  0  0  0  0  0  0  0  0  0  0  0
  142.9142   77.2005  219.3644 H   0  0  0  0  0  0  0  0  0  0  0  0
  141.3775   79.0895  220.2930 H   0  0  0  0  0  0  0  0  0  0  0  0
  139.7451   78.2549  222.1832 H   0  0  0  0  0  0  0  0  0  0  0  0
  144.6527   75.2903  219.8702 H   0  0  0  0  0  0  0  0  0  0  0  0
  1  2  2  0
  2  3  1  0
  3  4  2  0
  4  5  1  0
  5  6  1  0
  6  7  1  0
  7  8  1  0
  8  9  1  0
  9 10  1  0
  4 11  1  0
 11 12  1  0
 12 13  1  0
 13 14  1  0
 14 15  1  0
 15 16  2  0
 16 17  1  0
 17 18  2  0
 18 19  1  0
 14 20  2  0
 20 21  1  0
 21  2  1  0
 10  5  1  0
 21 12  2  0
 19 15  1  0
  6 22  1  0
  6 23  1  0
  7 24  1  0
  7 25  1  0
  9 26  1  0
  9 27  1  0
 10 28  1  0
 10 29  1  0
 16 30  1  0
 17 31  1  0
 18 32  1  0
 20 33  1  0
M  CHG  1  11  -1
M  END
>  <UniqueID>  (8) 
33

>  <SMILES>  (8) 
O=c1nc(N2CCOCC2)[n-]c2sc(-c3cccs3)cc12

>  <Energy>  (8) 
97.9093938313507

>  <Genealogy>  (8) 
O=c1nc(N2CCOCC2)[n-]c2sc(-c3cccs3)cc12 (protonated)
O=c1nc(N2CCOCC2)[n-]c2sc(-c3cccs3)cc12 (3D coordinates assigned)
O=c1nc(N2CCOCC2)[n-]c2sc(-c3cccs3)cc12 (nonaromatic ring conformer: 97.9093938313507 kcal/mol)

>  <smiles>  (8) 
O=c1nc(N2CCOCC2)[nH]c2sc(-c3cccs3)cc12

>  <score_type>  (8) 
oracle

>  <origin>  (8) 
autodockgpu

>  <m_score__min__energy>  (8) 
-5.9900000000000002

>  <m_primary>  (8) 
energy

>  <meeko>  (8) 
{"free_energy": -5.99, "intermolecular_energy": -6.58, "internal_energy": -0.43, "cluster_size": 16, "cluster_id": 1, "rank_in_cluster": 3}

>  <energy>  (8) 
-5.98

>  <cluster_rmsd>  (8) 
0.06

>  <rmsd>  (8) 
271.42

>  <cluster>  (8) 
1

$$$$
CFPRWASAHFAXRY-FWJFTDBINA-M
     RDKit          3D

 33 36  0  0  0  0  0  0  0  0999 V2000
  139.7990   73.5390  222.3410 O   0  0  0  0  0  0  0  0  0  0  0  0
  140.6330   74.2830  221.7580 C   0  0  0  0  0  0  0  0  0  0  0  0
  141.6850   73.7360  221.0860 N   0  0  0  0  0  0  0  0  0  0  0  0
  142.6130   74.5120  220.4410 C   0  0  0  0  0  0  0  0  0  0  0  0
  143.7140   73.8960  219.7390 N   0  0  0  0  0  0  0  0  0  0  0  0
  143.8930   74.1450  218.3010 C   0  0  0  0  0  0  0  0  0  0  0  0
  144.7170   73.0240  217.6610 C   0  0  0  0  0  0  0  0  0  0  0  0
  145.9090   72.7970  218.3850 O   0  0  0  0  0  0  0  0  0  0  0  0
  145.5910   72.2960  219.6670 C   0  0  0  0  0  0  0  0  0  0  0  0
  144.8480   73.3480  220.4960 C   0  0  0  0  0  0  0  0  0  0  0  0
  142.4880   75.8730  220.4660 N   0  0  0  0  0  0  0  0  0  0  0  0
  141.4470   76.4280  221.1300 C   0  0  0  0  0  0  0  0  0  0  0  0
  141.1010   78.0590  221.2890 S   0  0  0  0  0  0  0  0  0  0  0  0
  139.7050   77.8070  222.2220 C   0  0  0  0  0  0  0  0  0  0  0  0
  138.8430   78.8790  222.7460 C   0  0  0  0  0  0  0  0  0  0  0  0
  137.4530   78.9120  222.7160 C   0  0  0  0  0  0  0  0  0  0  0  0
  136.9130   80.0680  223.2940 C   0  0  0  0  0  0  0  0  0  0  0  0
  137.8690   80.9470  223.7800 C   0  0  0  0  0  0  0  0  0  0  0  0
  139.3880   80.2860  223.4910 S   0  0  0  0  0  0  0  0  0  0  0  0
  139.5110   76.4330  222.4100 C   0  0  0  0  0  0  0  0  0  0  0  0
  140.5030   75.6700  221.7860 C   0  0  0  0  0  0  0  0  0  0  0  0
  142.9067   74.1913  217.8161 H   0  0  0  0  0  0  0  0  0  0  0  0
  144.4258   75.0982  218.1686 H   0  0  0  0  0  0  0  0  0  0  0  0
  144.1206   72.0998  217.6506 H   0  0  0  0  0  0  0  0  0  0  0  0
  144.9805   73.3233  216.6358 H   0  0  0  0  0  0  0  0  0  0  0  0
  144.9528   71.4067  219.5581 H   0  0  0  0  0  0  0  0  0  0  0  0
  146.5261   72.0366  220.1849 H   0  0  0  0  0  0  0  0  0  0  0  0
  144.4747   72.8826  221.4202 H   0  0  0  0  0  0  0  0  0  0  0  0
  145.5429   74.1662  220.7361 H   0  0  0  0  0  0  0  0  0  0  0  0
  136.8385   78.1098  222.2814 H   0  0  0  0  0  0  0  0  0  0  0  0
  135.8318   80.2605  223.3565 H   0  0  0  0  0  0  0  0  0  0  0  0
  137.6683   81.9110  224.2703 H   0  0  0  0  0  0  0  0  0  0  0  0
  138.6753   76.0037  222.9821 H   0  0  0  0  0  0  0  0  0  0  0  0
  1  2  2  0
  2  3  1  0
  3  4  2  0
  4  5  1  0
  5  6  1  0
  6  7  1  0
  7  8  1  0
  8  9  1  0
  9 10  1  0
  4 11  1  0
 11 12  1  0
 12 13  1  0
 13 14  1  0
 14 15  1  0
 15 16  2  0
 16 17  1  0
 17 18  2  0
 18 19  1  0
 14 20  2  0
 20 21  1  0
 21  2  1  0
 10  5  1  0
 21 12  2  0
 19 15  1  0
  6 22  1  0
  6 23  1  0
  7 24  1  0
  7 25  1  0
  9 26  1  0
  9 27  1  0
 10 28  1  0
 10 29  1  0
 16 30  1  0
 17 31  1  0
 18 32  1  0
 20 33  1  0
M  CHG  1  11  -1
M  END
>  <UniqueID>  (9) 
33

>  <SMILES>  (9) 
O=c1nc(N2CCOCC2)[n-]c2sc(-c3cccs3)cc12

>  <Energy>  (9) 
97.9093938313507

>  <Genealogy>  (9) 
O=c1nc(N2CCOCC2)[n-]c2sc(-c3cccs3)cc12 (protonated)
O=c1nc(N2CCOCC2)[n-]c2sc(-c3cccs3)cc12 (3D coordinates assigned)
O=c1nc(N2CCOCC2)[n-]c2sc(-c3cccs3)cc12 (nonaromatic ring conformer: 97.9093938313507 kcal/mol)

>  <smiles>  (9) 
O=c1nc(N2CCOCC2)[nH]c2sc(-c3cccs3)cc12

>  <score_type>  (9) 
oracle

>  <origin>  (9) 
autodockgpu

>  <m_score__min__energy>  (9) 
-5.9900000000000002

>  <m_primary>  (9) 
energy

>  <meeko>  (9) 
{"free_energy": -5.68, "intermolecular_energy": -6.28, "internal_energy": -0.42, "cluster_size": 4, "cluster_id": 2, "rank_in_cluster": 4}

>  <energy>  (9) 
-5.97

>  <cluster_rmsd>  (9) 
0.12

>  <rmsd>  (9) 
271.42

>  <cluster>  (9) 
1

$$$$
CFPRWASAHFAXRY-FWJFTDBINA-M
     RDKit          3D

 33 36  0  0  0  0  0  0  0  0999 V2000
  146.5720   73.3900  219.2580 O   0  0  0  0  0  0  0  0  0  0  0  0
  145.6070   72.6110  219.4810 C   0  0  0  0  0  0  0  0  0  0  0  0
  145.7660   71.2650  219.3370 N   0  0  0  0  0  0  0  0  0  0  0  0
  144.7410   70.3860  219.5700 C   0  0  0  0  0  0  0  0  0  0  0  0
  144.9480   68.9660  219.4070 N   0  0  0  0  0  0  0  0  0  0  0  0
  146.3150   68.4310  219.3490 C   0  0  0  0  0  0  0  0  0  0  0  0
  146.3290   67.0720  218.6430 C   0  0  0  0  0  0  0  0  0  0  0  0
  145.3660   66.2020  219.2020 O   0  0  0  0  0  0  0  0  0  0  0  0
  144.0720   66.7070  218.9430 C   0  0  0  0  0  0  0  0  0  0  0  0
  143.8460   68.0320  219.6770 C   0  0  0  0  0  0  0  0  0  0  0  0
  143.5200   70.8630  219.9600 N   0  0  0  0  0  0  0  0  0  0  0  0
  143.3500   72.1980  220.1080 C   0  0  0  0  0  0  0  0  0  0  0  0
  141.9520   72.9960  220.5730 S   0  0  0  0  0  0  0  0  0  0  0  0
  142.6470   74.5410  220.4840 C   0  0  0  0  0  0  0  0  0  0  0  0
  141.9380   75.7970  220.7810 C   0  0  0  0  0  0  0  0  0  0  0  0
  142.1450   77.0290  220.1690 C   0  0  0  0  0  0  0  0  0  0  0  0
  141.3160   78.0420  220.6670 C   0  0  0  0  0  0  0  0  0  0  0  0
  140.4560   77.6170  221.6690 C   0  0  0  0  0  0  0  0  0  0  0  0
  140.7270   75.9790  221.9350 S   0  0  0  0  0  0  0  0  0  0  0  0
  143.9850   74.4300  220.0860 C   0  0  0  0  0  0  0  0  0  0  0  0
  144.3650   73.1000  219.8780 C   0  0  0  0  0  0  0  0  0  0  0  0
  146.9555   69.1333  218.7953 H   0  0  0  0  0  0  0  0  0  0  0  0
  146.6911   68.3032  220.3748 H   0  0  0  0  0  0  0  0  0  0  0  0
  146.1054   67.2184  217.5760 H   0  0  0  0  0  0  0  0  0  0  0  0
  147.3244   66.6212  218.7693 H   0  0  0  0  0  0  0  0  0  0  0  0
  143.9591   66.8707  217.8611 H   0  0  0  0  0  0  0  0  0  0  0  0
  143.3314   65.9763  219.3002 H   0  0  0  0  0  0  0  0  0  0  0  0
  142.9010   68.4787  219.3343 H   0  0  0  0  0  0  0  0  0  0  0  0
  143.8034   67.8361  220.7586 H   0  0  0  0  0  0  0  0  0  0  0  0
  142.8864   77.1915  219.3728 H   0  0  0  0  0  0  0  0  0  0  0  0
  141.3442   79.0779  220.2980 H   0  0  0  0  0  0  0  0  0  0  0  0
  139.7230   78.2436  222.1983 H   0  0  0  0  0  0  0  0  0  0  0  0
  144.6590   75.2890  219.9524 H   0  0  0  0  0  0  0  0  0  0  0  0
  1  2  2  0
  2  3  1  0
  3  4  2  0
  4  5  1  0
  5  6  1  0
  6  7  1  0
  7  8  1  0
  8  9  1  0
  9 10  1  0
  4 11  1  0
 11 12  1  0
 12 13  1  0
 13 14  1  0
 14 15  1  0
 15 16  2  0
 16 17  1  0
 17 18  2  0
 18 19  1  0
 14 20  2  0
 20 21  1  0
 21  2  1  0
 10  5  1  0
 21 12  2  0
 19 15  1  0
  6 22  1  0
  6 23  1  0
  7 24  1  0
  7 25  1  0
  9 26  1  0
  9 27  1  0
 10 28  1  0
 10 29  1  0
 16 30  1  0
 17 31  1  0
 18 32  1  0
 20 33  1  0
M  CHG  1  11  -1
M  END
>  <UniqueID>  (10) 
33

>  <SMILES>  (10) 
O=c1nc(N2CCOCC2)[n-]c2sc(-c3cccs3)cc12

>  <Energy>  (10) 
97.9093938313507

>  <Genealogy>  (10) 
O=c1nc(N2CCOCC2)[n-]c2sc(-c3cccs3)cc12 (protonated)
O=c1nc(N2CCOCC2)[n-]c2sc(-c3cccs3)cc12 (3D coordinates assigned)
O=c1nc(N2CCOCC2)[n-]c2sc(-c3cccs3)cc12 (nonaromatic ring conformer: 97.9093938313507 kcal/mol)

>  <smiles>  (10) 
O=c1nc(N2CCOCC2)[nH]c2sc(-c3cccs3)cc12

>  <score_type>  (10) 
oracle

>  <origin>  (10) 
autodockgpu

>  <m_score__min__energy>  (10) 
-5.9900000000000002

>  <m_primary>  (10) 
energy

>  <meeko>  (10) 
{"free_energy": -5.98, "intermolecular_energy": -6.58, "internal_energy": -0.43, "cluster_size": 16, "cluster_id": 1, "rank_in_cluster": 5}

>  <energy>  (10) 
-5.97

>  <cluster_rmsd>  (10) 
0.14

>  <rmsd>  (10) 
271.39

>  <cluster>  (10) 
1

$$$$
CFPRWASAHFAXRY-FWJFTDBINA-M
     RDKit          3D

 33 36  0  0  0  0  0  0  0  0999 V2000
  146.5520   73.3900  219.1360 O   0  0  0  0  0  0  0  0  0  0  0  0
  145.5970   72.6110  219.4000 C   0  0  0  0  0  0  0  0  0  0  0  0
  145.7560   71.2640  219.2690 N   0  0  0  0  0  0  0  0  0  0  0  0
  144.7410   70.3850  219.5470 C   0  0  0  0  0  0  0  0  0  0  0  0
  144.9480   68.9640  219.3960 N   0  0  0  0  0  0  0  0  0  0  0  0
  146.3160   68.4280  219.3410 C   0  0  0  0  0  0  0  0  0  0  0  0
  146.3290   67.0630  218.6470 C   0  0  0  0  0  0  0  0  0  0  0  0
  145.3660   66.1990  219.2150 O   0  0  0  0  0  0  0  0  0  0  0  0
  144.0720   66.7010  218.9530 C   0  0  0  0  0  0  0  0  0  0  0  0
  143.8470   68.0330  219.6750 C   0  0  0  0  0  0  0  0  0  0  0  0
  143.5320   70.8640  219.9690 N   0  0  0  0  0  0  0  0  0  0  0  0
  143.3620   72.2000  220.1050 C   0  0  0  0  0  0  0  0  0  0  0  0
  141.9770   72.9990  220.6040 S   0  0  0  0  0  0  0  0  0  0  0  0
  142.6640   74.5460  220.4720 C   0  0  0  0  0  0  0  0  0  0  0  0
  141.9600   75.8040  220.7750 C   0  0  0  0  0  0  0  0  0  0  0  0
  142.1780   77.0390  220.1730 C   0  0  0  0  0  0  0  0  0  0  0  0
  141.3510   78.0520  220.6750 C   0  0  0  0  0  0  0  0  0  0  0  0
  140.4840   77.6240  221.6700 C   0  0  0  0  0  0  0  0  0  0  0  0
  140.7440   75.9830  221.9250 S   0  0  0  0  0  0  0  0  0  0  0  0
  143.9880   74.4340  220.0320 C   0  0  0  0  0  0  0  0  0  0  0  0
  144.3660   73.1020  219.8310 C   0  0  0  0  0  0  0  0  0  0  0  0
  146.9559   69.1254  218.7804 H   0  0  0  0  0  0  0  0  0  0  0  0
  146.6934   68.3092  220.3674 H   0  0  0  0  0  0  0  0  0  0  0  0
  146.1045   67.2000  217.5789 H   0  0  0  0  0  0  0  0  0  0  0  0
  147.3244   66.6128  218.7759 H   0  0  0  0  0  0  0  0  0  0  0  0
  143.9575   66.8545  217.8698 H   0  0  0  0  0  0  0  0  0  0  0  0
  143.3319   65.9736  219.3178 H   0  0  0  0  0  0  0  0  0  0  0  0
  142.9018   68.4767  219.3290 H   0  0  0  0  0  0  0  0  0  0  0  0
  143.8056   67.8469  220.7583 H   0  0  0  0  0  0  0  0  0  0  0  0
  142.9247   77.2035  219.3822 H   0  0  0  0  0  0  0  0  0  0  0  0
  141.3857   79.0904  220.3139 H   0  0  0  0  0  0  0  0  0  0  0  0
  139.7522   78.2508  222.2008 H   0  0  0  0  0  0  0  0  0  0  0  0
  144.6539   75.2933  219.8638 H   0  0  0  0  0  0  0  0  0  0  0  0
  1  2  2  0
  2  3  1  0
  3  4  2  0
  4  5  1  0
  5  6  1  0
  6  7  1  0
  7  8  1  0
  8  9  1  0
  9 10  1  0
  4 11  1  0
 11 12  1  0
 12 13  1  0
 13 14  1  0
 14 15  1  0
 15 16  2  0
 16 17  1  0
 17 18  2  0
 18 19  1  0
 14 20  2  0
 20 21  1  0
 21  2  1  0
 10  5  1  0
 21 12  2  0
 19 15  1  0
  6 22  1  0
  6 23  1  0
  7 24  1  0
  7 25  1  0
  9 26  1  0
  9 27  1  0
 10 28  1  0
 10 29  1  0
 16 30  1  0
 17 31  1  0
 18 32  1  0
 20 33  1  0
M  CHG  1  11  -1
M  END
>  <UniqueID>  (11) 
33

>  <SMILES>  (11) 
O=c1nc(N2CCOCC2)[n-]c2sc(-c3cccs3)cc12

>  <Energy>  (11) 
97.9093938313507

>  <Genealogy>  (11) 
O=c1nc(N2CCOCC2)[n-]c2sc(-c3cccs3)cc12 (protonated)
O=c1nc(N2CCOCC2)[n-]c2sc(-c3cccs3)cc12 (3D coordinates assigned)
O=c1nc(N2CCOCC2)[n-]c2sc(-c3cccs3)cc12 (nonaromatic ring conformer: 97.9093938313507 kcal/mol)

>  <smiles>  (11) 
O=c1nc(N2CCOCC2)[nH]c2sc(-c3cccs3)cc12

>  <score_type>  (11) 
oracle

>  <origin>  (11) 
autodockgpu

>  <m_score__min__energy>  (11) 
-5.9900000000000002

>  <m_primary>  (11) 
energy

>  <meeko>  (11) 
{"free_energy": -5.99, "intermolecular_energy": -6.59, "internal_energy": -0.43, "cluster_size": 16, "cluster_id": 1, "rank_in_cluster": 1}

>  <energy>  (11) 
-5.96

>  <cluster_rmsd>  (11) 
0.7

>  <rmsd>  (11) 
271.32

>  <cluster>  (11) 
1

$$$$
CFPRWASAHFAXRY-FWJFTDBINA-M
     RDKit          3D

 33 36  0  0  0  0  0  0  0  0999 V2000
  146.5370   73.3930  219.0400 O   0  0  0  0  0  0  0  0  0  0  0  0
  145.5890   72.6160  219.3330 C   0  0  0  0  0  0  0  0  0  0  0  0
  145.7480   71.2670  219.2150 N   0  0  0  0  0  0  0  0  0  0  0  0
  144.7400   70.3910  219.5250 C   0  0  0  0  0  0  0  0  0  0  0  0
  144.9470   68.9680  219.3870 N   0  0  0  0  0  0  0  0  0  0  0  0
  146.3140   68.4290  219.3540 C   0  0  0  0  0  0  0  0  0  0  0  0
  146.3340   67.0590  218.6720 C   0  0  0  0  0  0  0  0  0  0  0  0
  145.3620   66.2010  219.2330 O   0  0  0  0  0  0  0  0  0  0  0  0
  144.0720   66.7030  218.9500 C   0  0  0  0  0  0  0  0  0  0  0  0
  143.8400   68.0410  219.6590 C   0  0  0  0  0  0  0  0  0  0  0  0
  143.5390   70.8730  219.9650 N   0  0  0  0  0  0  0  0  0  0  0  0
  143.3700   72.2100  220.0870 C   0  0  0  0  0  0  0  0  0  0  0  0
  141.9930   73.0140  220.6040 S   0  0  0  0  0  0  0  0  0  0  0  0
  142.6750   74.5600  220.4390 C   0  0  0  0  0  0  0  0  0  0  0  0
  141.9750   75.8200  220.7410 C   0  0  0  0  0  0  0  0  0  0  0  0
  142.1980   77.0540  220.1390 C   0  0  0  0  0  0  0  0  0  0  0  0
  141.3750   78.0710  220.6390 C   0  0  0  0  0  0  0  0  0  0  0  0
  140.5040   77.6460  221.6320 C   0  0  0  0  0  0  0  0  0  0  0  0
  140.7580   76.0040  221.8880 S   0  0  0  0  0  0  0  0  0  0  0  0
  143.9910   74.4440  219.9750 C   0  0  0  0  0  0  0  0  0  0  0  0
  144.3660   73.1100  219.7820 C   0  0  0  0  0  0  0  0  0  0  0  0
  146.9624   69.1206  218.7960 H   0  0  0  0  0  0  0  0  0  0  0  0
  146.6774   68.3177  220.3863 H   0  0  0  0  0  0  0  0  0  0  0  0
  146.1247   67.1876  217.5998 H   0  0  0  0  0  0  0  0  0  0  0  0
  147.3266   66.6083  218.8190 H   0  0  0  0  0  0  0  0  0  0  0  0
  143.9720   66.8484  217.8642 H   0  0  0  0  0  0  0  0  0  0  0  0
  143.3258   65.9796  219.3104 H   0  0  0  0  0  0  0  0  0  0  0  0
  142.9003   68.4838  219.2973 H   0  0  0  0  0  0  0  0  0  0  0  0
  143.7839   67.8633  220.7431 H   0  0  0  0  0  0  0  0  0  0  0  0
  142.9462   77.2151  219.3489 H   0  0  0  0  0  0  0  0  0  0  0  0
  141.4153   79.1094  220.2783 H   0  0  0  0  0  0  0  0  0  0  0  0
  139.7730   78.2753  222.1608 H   0  0  0  0  0  0  0  0  0  0  0  0
  144.6528   75.3017  219.7845 H   0  0  0  0  0  0  0  0  0  0  0  0
  1  2  2  0
  2  3  1  0
  3  4  2  0
  4  5  1  0
  5  6  1  0
  6  7  1  0
  7  8  1  0
  8  9  1  0
  9 10  1  0
  4 11  1  0
 11 12  1  0
 12 13  1  0
 13 14  1  0
 14 15  1  0
 15 16  2  0
 16 17  1  0
 17 18  2  0
 18 19  1  0
 14 20  2  0
 20 21  1  0
 21  2  1  0
 10  5  1  0
 21 12  2  0
 19 15  1  0
  6 22  1  0
  6 23  1  0
  7 24  1  0
  7 25  1  0
  9 26  1  0
  9 27  1  0
 10 28  1  0
 10 29  1  0
 16 30  1  0
 17 31  1  0
 18 32  1  0
 20 33  1  0
M  CHG  1  11  -1
M  END
>  <UniqueID>  (12) 
33

>  <SMILES>  (12) 
O=c1nc(N2CCOCC2)[n-]c2sc(-c3cccs3)cc12

>  <Energy>  (12) 
97.9093938313507

>  <Genealogy>  (12) 
O=c1nc(N2CCOCC2)[n-]c2sc(-c3cccs3)cc12 (protonated)
O=c1nc(N2CCOCC2)[n-]c2sc(-c3cccs3)cc12 (3D coordinates assigned)
O=c1nc(N2CCOCC2)[n-]c2sc(-c3cccs3)cc12 (nonaromatic ring conformer: 97.9093938313507 kcal/mol)

>  <smiles>  (12) 
O=c1nc(N2CCOCC2)[nH]c2sc(-c3cccs3)cc12

>  <score_type>  (12) 
oracle

>  <origin>  (12) 
autodockgpu

>  <m_score__min__energy>  (12) 
-5.9900000000000002

>  <m_primary>  (12) 
energy

>  <meeko>  (12) 
{"free_energy": -5.99, "intermolecular_energy": -6.58, "internal_energy": -0.43, "cluster_size": 16, "cluster_id": 1, "rank_in_cluster": 4}

>  <energy>  (12) 
-5.95

>  <cluster_rmsd>  (12) 
0.68

>  <rmsd>  (12) 
271.42

>  <cluster>  (12) 
1

$$$$
CFPRWASAHFAXRY-FWJFTDBINA-M
     RDKit          3D

 33 36  0  0  0  0  0  0  0  0999 V2000
  146.5270   73.3760  219.2730 O   0  0  0  0  0  0  0  0  0  0  0  0
  145.5640   72.5870  219.4680 C   0  0  0  0  0  0  0  0  0  0  0  0
  145.7300   71.2470  219.2850 N   0  0  0  0  0  0  0  0  0  0  0  0
  144.7070   70.3570  219.4870 C   0  0  0  0  0  0  0  0  0  0  0  0
  144.9210   68.9440  219.2830 N   0  0  0  0  0  0  0  0  0  0  0  0
  146.2830   68.3950  219.3520 C   0  0  0  0  0  0  0  0  0  0  0  0
  146.3660   67.0690  218.5920 C   0  0  0  0  0  0  0  0  0  0  0  0
  145.3410   66.1870  219.0000 O   0  0  0  0  0  0  0  0  0  0  0  0
  144.0870   66.7180  218.6220 C   0  0  0  0  0  0  0  0  0  0  0  0
  143.7900   68.0120  219.3860 C   0  0  0  0  0  0  0  0  0  0  0  0
  143.4820   70.8170  219.8840 N   0  0  0  0  0  0  0  0  0  0  0  0
  143.3060   72.1460  220.0700 C   0  0  0  0  0  0  0  0  0  0  0  0
  141.9010   72.9240  220.5510 S   0  0  0  0  0  0  0  0  0  0  0  0
  142.5910   74.4750  220.5110 C   0  0  0  0  0  0  0  0  0  0  0  0
  141.8740   75.7180  220.8420 C   0  0  0  0  0  0  0  0  0  0  0  0
  140.9930   75.9080  221.9020 C   0  0  0  0  0  0  0  0  0  0  0  0
  140.4660   77.2040  221.9590 C   0  0  0  0  0  0  0  0  0  0  0  0
  140.9250   78.0380  220.9500 C   0  0  0  0  0  0  0  0  0  0  0  0
  141.9890   77.1620  219.9870 S   0  0  0  0  0  0  0  0  0  0  0  0
  143.9310   74.3810  220.1170 C   0  0  0  0  0  0  0  0  0  0  0  0
  144.3170   73.0590  219.8730 C   0  0  0  0  0  0  0  0  0  0  0  0
  146.9858   69.1132  218.9046 H   0  0  0  0  0  0  0  0  0  0  0  0
  146.5419   68.2174  220.4063 H   0  0  0  0  0  0  0  0  0  0  0  0
  146.2642   67.2650  217.5144 H   0  0  0  0  0  0  0  0  0  0  0  0
  147.3378   66.6012  218.8083 H   0  0  0  0  0  0  0  0  0  0  0  0
  144.0963   66.9307  217.5428 H   0  0  0  0  0  0  0  0  0  0  0  0
  143.3062   65.9810  218.8610 H   0  0  0  0  0  0  0  0  0  0  0  0
  142.8921   68.4847  218.9613 H   0  0  0  0  0  0  0  0  0  0  0  0
  143.6263   67.7685  220.4461 H   0  0  0  0  0  0  0  0  0  0  0  0
  140.7360   75.1185  222.6236 H   0  0  0  0  0  0  0  0  0  0  0  0
  139.7544   77.5303  222.7318 H   0  0  0  0  0  0  0  0  0  0  0  0
  140.6417   79.0909  220.8049 H   0  0  0  0  0  0  0  0  0  0  0  0
  144.6022   75.2461  220.0116 H   0  0  0  0  0  0  0  0  0  0  0  0
  1  2  2  0
  2  3  1  0
  3  4  2  0
  4  5  1  0
  5  6  1  0
  6  7  1  0
  7  8  1  0
  8  9  1  0
  9 10  1  0
  4 11  1  0
 11 12  1  0
 12 13  1  0
 13 14  1  0
 14 15  1  0
 15 16  2  0
 16 17  1  0
 17 18  2  0
 18 19  1  0
 14 20  2  0
 20 21  1  0
 21  2  1  0
 10  5  1  0
 21 12  2  0
 19 15  1  0
  6 22  1  0
  6 23  1  0
  7 24  1  0
  7 25  1  0
  9 26  1  0
  9 27  1  0
 10 28  1  0
 10 29  1  0
 16 30  1  0
 17 31  1  0
 18 32  1  0
 20 33  1  0
M  CHG  1  11  -1
M  END
>  <UniqueID>  (13) 
33

>  <SMILES>  (13) 
O=c1nc(N2CCOCC2)[n-]c2sc(-c3cccs3)cc12

>  <Energy>  (13) 
97.9093938313507

>  <Genealogy>  (13) 
O=c1nc(N2CCOCC2)[n-]c2sc(-c3cccs3)cc12 (protonated)
O=c1nc(N2CCOCC2)[n-]c2sc(-c3cccs3)cc12 (3D coordinates assigned)
O=c1nc(N2CCOCC2)[n-]c2sc(-c3cccs3)cc12 (nonaromatic ring conformer: 97.9093938313507 kcal/mol)

>  <smiles>  (13) 
O=c1nc(N2CCOCC2)[nH]c2sc(-c3cccs3)cc12

>  <score_type>  (13) 
oracle

>  <origin>  (13) 
autodockgpu

>  <m_score__min__energy>  (13) 
-5.9900000000000002

>  <m_primary>  (13) 
energy

>  <meeko>  (13) 
{"free_energy": -5.95, "intermolecular_energy": -6.54, "internal_energy": -0.43, "cluster_size": 16, "cluster_id": 1, "rank_in_cluster": 14}

>  <energy>  (13) 
-5.95

>  <cluster_rmsd>  (13) 
0.69

>  <rmsd>  (13) 
271.4

>  <cluster>  (13) 
1

$$$$
CFPRWASAHFAXRY-FWJFTDBINA-M
     RDKit          3D

 33 36  0  0  0  0  0  0  0  0999 V2000
  139.8670   73.6130  222.3370 O   0  0  0  0  0  0  0  0  0  0  0  0
  140.6850   74.3730  221.7540 C   0  0  0  0  0  0  0  0  0  0  0  0
  141.7500   73.8480  221.0840 N   0  0  0  0  0  0  0  0  0  0  0  0
  142.6610   74.6420  220.4380 C   0  0  0  0  0  0  0  0  0  0  0  0
  143.7760   74.0490  219.7380 N   0  0  0  0  0  0  0  0  0  0  0  0
  143.8310   74.1070  218.2700 C   0  0  0  0  0  0  0  0  0  0  0  0
  144.7330   72.9970  217.7230 C   0  0  0  0  0  0  0  0  0  0  0  0
  145.9880   73.0000  218.3720 O   0  0  0  0  0  0  0  0  0  0  0  0
  145.8140   72.6580  219.7320 C   0  0  0  0  0  0  0  0  0  0  0  0
  145.0130   73.7360  220.4680 C   0  0  0  0  0  0  0  0  0  0  0  0
  142.5060   76.0010  220.4590 N   0  0  0  0  0  0  0  0  0  0  0  0
  141.4530   76.5340  221.1210 C   0  0  0  0  0  0  0  0  0  0  0  0
  141.0710   78.1580  221.2760 S   0  0  0  0  0  0  0  0  0  0  0  0
  139.6800   77.8770  222.2070 C   0  0  0  0  0  0  0  0  0  0  0  0
  138.7940   78.9320  222.7280 C   0  0  0  0  0  0  0  0  0  0  0  0
  137.4030   78.9350  222.6940 C   0  0  0  0  0  0  0  0  0  0  0  0
  136.8380   80.0800  223.2690 C   0  0  0  0  0  0  0  0  0  0  0  0
  137.7740   80.9800  223.7570 C   0  0  0  0  0  0  0  0  0  0  0  0
  139.3070   80.3510  223.4730 S   0  0  0  0  0  0  0  0  0  0  0  0
  139.5150   76.5000  222.3990 C   0  0  0  0  0  0  0  0  0  0  0  0
  140.5250   75.7570  221.7780 C   0  0  0  0  0  0  0  0  0  0  0  0
  142.8162   73.9816  217.8645 H   0  0  0  0  0  0  0  0  0  0  0  0
  144.2424   75.0813  217.9676 H   0  0  0  0  0  0  0  0  0  0  0  0
  144.2459   72.0243  217.8859 H   0  0  0  0  0  0  0  0  0  0  0  0
  144.8929   73.1721  216.6489 H   0  0  0  0  0  0  0  0  0  0  0  0
  145.2748   71.7014  219.7967 H   0  0  0  0  0  0  0  0  0  0  0  0
  146.8045   72.5731  220.2027 H   0  0  0  0  0  0  0  0  0  0  0  0
  144.7571   73.3727  221.4742 H   0  0  0  0  0  0  0  0  0  0  0  0
  145.6247   74.6476  220.5373 H   0  0  0  0  0  0  0  0  0  0  0  0
  136.8067   78.1194  222.2589 H   0  0  0  0  0  0  0  0  0  0  0  0
  135.7528   80.2500  223.3282 H   0  0  0  0  0  0  0  0  0  0  0  0
  137.5515   81.9400  224.2457 H   0  0  0  0  0  0  0  0  0  0  0  0
  138.6880   76.0543  222.9712 H   0  0  0  0  0  0  0  0  0  0  0  0
  1  2  2  0
  2  3  1  0
  3  4  2  0
  4  5  1  0
  5  6  1  0
  6  7  1  0
  7  8  1  0
  8  9  1  0
  9 10  1  0
  4 11  1  0
 11 12  1  0
 12 13  1  0
 13 14  1  0
 14 15  1  0
 15 16  2  0
 16 17  1  0
 17 18  2  0
 18 19  1  0
 14 20  2  0
 20 21  1  0
 21  2  1  0
 10  5  1  0
 21 12  2  0
 19 15  1  0
  6 22  1  0
  6 23  1  0
  7 24  1  0
  7 25  1  0
  9 26  1  0
  9 27  1  0
 10 28  1  0
 10 29  1  0
 16 30  1  0
 17 31  1  0
 18 32  1  0
 20 33  1  0
M  CHG  1  11  -1
M  END
>  <UniqueID>  (14) 
33

>  <SMILES>  (14) 
O=c1nc(N2CCOCC2)[n-]c2sc(-c3cccs3)cc12

>  <Energy>  (14) 
97.9093938313507

>  <Genealogy>  (14) 
O=c1nc(N2CCOCC2)[n-]c2sc(-c3cccs3)cc12 (protonated)
O=c1nc(N2CCOCC2)[n-]c2sc(-c3cccs3)cc12 (3D coordinates assigned)
O=c1nc(N2CCOCC2)[n-]c2sc(-c3cccs3)cc12 (nonaromatic ring conformer: 97.9093938313507 kcal/mol)

>  <smiles>  (14) 
O=c1nc(N2CCOCC2)[nH]c2sc(-c3cccs3)cc12

>  <score_type>  (14) 
oracle

>  <origin>  (14) 
autodockgpu

>  <m_score__min__energy>  (14) 
-5.9900000000000002

>  <m_primary>  (14) 
energy

>  <meeko>  (14) 
{"free_energy": -5.69, "intermolecular_energy": -6.28, "internal_energy": -0.42, "cluster_size": 4, "cluster_id": 2, "rank_in_cluster": 2}

>  <energy>  (14) 
-5.95

>  <cluster_rmsd>  (14) 
0.68

>  <rmsd>  (14) 
271.4

>  <cluster>  (14) 
1

$$$$
CFPRWASAHFAXRY-FWJFTDBINA-M
     RDKit          3D

 33 36  0  0  0  0  0  0  0  0999 V2000
  139.8540   73.6340  222.3340 O   0  0  0  0  0  0  0  0  0  0  0  0
  140.6750   74.3900  221.7490 C   0  0  0  0  0  0  0  0  0  0  0  0
  141.7370   73.8600  221.0790 N   0  0  0  0  0  0  0  0  0  0  0  0
  142.6510   74.6500  220.4320 C   0  0  0  0  0  0  0  0  0  0  0  0
  143.7630   74.0510  219.7320 N   0  0  0  0  0  0  0  0  0  0  0  0
  143.8130   74.1000  218.2640 C   0  0  0  0  0  0  0  0  0  0  0  0
  144.7120   72.9860  217.7200 C   0  0  0  0  0  0  0  0  0  0  0  0
  145.9690   72.9920  218.3650 O   0  0  0  0  0  0  0  0  0  0  0  0
  145.7990   72.6580  219.7270 C   0  0  0  0  0  0  0  0  0  0  0  0
  145.0020   73.7420  220.4600 C   0  0  0  0  0  0  0  0  0  0  0  0
  142.5020   76.0090  220.4520 N   0  0  0  0  0  0  0  0  0  0  0  0
  141.4510   76.5470  221.1140 C   0  0  0  0  0  0  0  0  0  0  0  0
  141.0760   78.1730  221.2670 S   0  0  0  0  0  0  0  0  0  0  0  0
  139.6850   77.8990  222.2000 C   0  0  0  0  0  0  0  0  0  0  0  0
  138.8030   78.9580  222.7210 C   0  0  0  0  0  0  0  0  0  0  0  0
  137.4120   78.9690  222.6830 C   0  0  0  0  0  0  0  0  0  0  0  0
  136.8520   80.1160  223.2590 C   0  0  0  0  0  0  0  0  0  0  0  0
  137.7920   81.0100  223.7500 C   0  0  0  0  0  0  0  0  0  0  0  0
  139.3220   80.3730  223.4680 S   0  0  0  0  0  0  0  0  0  0  0  0
  139.5140   76.5230  222.3930 C   0  0  0  0  0  0  0  0  0  0  0  0
  140.5210   75.7750  221.7720 C   0  0  0  0  0  0  0  0  0  0  0  0
  142.7966   73.9732  217.8628 H   0  0  0  0  0  0  0  0  0  0  0  0
  144.2246   75.0720  217.9545 H   0  0  0  0  0  0  0  0  0  0  0  0
  144.2246   72.0146  217.8901 H   0  0  0  0  0  0  0  0  0  0  0  0
  144.8683   73.1545  216.6443 H   0  0  0  0  0  0  0  0  0  0  0  0
  145.2583   71.7027  219.7989 H   0  0  0  0  0  0  0  0  0  0  0  0
  146.7910   72.5740  220.1949 H   0  0  0  0  0  0  0  0  0  0  0  0
  144.7494   73.3853  221.4694 H   0  0  0  0  0  0  0  0  0  0  0  0
  145.6148   74.6534  220.5222 H   0  0  0  0  0  0  0  0  0  0  0  0
  136.8123   78.1578  222.2444 H   0  0  0  0  0  0  0  0  0  0  0  0
  135.7677   80.2916  223.3167 H   0  0  0  0  0  0  0  0  0  0  0  0
  137.5739   81.9705  224.2397 H   0  0  0  0  0  0  0  0  0  0  0  0
  138.6852   76.0813  222.9657 H   0  0  0  0  0  0  0  0  0  0  0  0
  1  2  2  0
  2  3  1  0
  3  4  2  0
  4  5  1  0
  5  6  1  0
  6  7  1  0
  7  8  1  0
  8  9  1  0
  9 10  1  0
  4 11  1  0
 11 12  1  0
 12 13  1  0
 13 14  1  0
 14 15  1  0
 15 16  2  0
 16 17  1  0
 17 18  2  0
 18 19  1  0
 14 20  2  0
 20 21  1  0
 21  2  1  0
 10  5  1  0
 21 12  2  0
 19 15  1  0
  6 22  1  0
  6 23  1  0
  7 24  1  0
  7 25  1  0
  9 26  1  0
  9 27  1  0
 10 28  1  0
 10 29  1  0
 16 30  1  0
 17 31  1  0
 18 32  1  0
 20 33  1  0
M  CHG  1  11  -1
M  END
>  <UniqueID>  (15) 
33

>  <SMILES>  (15) 
O=c1nc(N2CCOCC2)[n-]c2sc(-c3cccs3)cc12

>  <Energy>  (15) 
97.9093938313507

>  <Genealogy>  (15) 
O=c1nc(N2CCOCC2)[n-]c2sc(-c3cccs3)cc12 (protonated)
O=c1nc(N2CCOCC2)[n-]c2sc(-c3cccs3)cc12 (3D coordinates assigned)
O=c1nc(N2CCOCC2)[n-]c2sc(-c3cccs3)cc12 (nonaromatic ring conformer: 97.9093938313507 kcal/mol)

>  <smiles>  (15) 
O=c1nc(N2CCOCC2)[nH]c2sc(-c3cccs3)cc12

>  <score_type>  (15) 
oracle

>  <origin>  (15) 
autodockgpu

>  <m_score__min__energy>  (15) 
-5.9900000000000002

>  <m_primary>  (15) 
energy

>  <meeko>  (15) 
{"free_energy": -5.68, "intermolecular_energy": -6.28, "internal_energy": -0.42, "cluster_size": 4, "cluster_id": 2, "rank_in_cluster": 3}

>  <energy>  (15) 
-5.94

>  <cluster_rmsd>  (15) 
0.89

>  <rmsd>  (15) 
271.45

>  <cluster>  (15) 
1

$$$$
CFPRWASAHFAXRY-FWJFTDBINA-M
     RDKit          3D

 33 36  0  0  0  0  0  0  0  0999 V2000
  139.8680   73.6150  222.3400 O   0  0  0  0  0  0  0  0  0  0  0  0
  140.6870   74.3760  221.7600 C   0  0  0  0  0  0  0  0  0  0  0  0
  141.7560   73.8540  221.0950 N   0  0  0  0  0  0  0  0  0  0  0  0
  142.6680   74.6500  220.4520 C   0  0  0  0  0  0  0  0  0  0  0  0
  143.7870   74.0590  219.7570 N   0  0  0  0  0  0  0  0  0  0  0  0
  143.8370   74.0970  218.2880 C   0  0  0  0  0  0  0  0  0  0  0  0
  144.7480   72.9900  217.7530 C   0  0  0  0  0  0  0  0  0  0  0  0
  146.0050   73.0150  218.3980 O   0  0  0  0  0  0  0  0  0  0  0  0
  145.8380   72.6890  219.7630 C   0  0  0  0  0  0  0  0  0  0  0  0
  145.0280   73.7680  220.4870 C   0  0  0  0  0  0  0  0  0  0  0  0
  142.5090   76.0080  220.4730 N   0  0  0  0  0  0  0  0  0  0  0  0
  141.4520   76.5390  221.1290 C   0  0  0  0  0  0  0  0  0  0  0  0
  141.0660   78.1620  221.2830 S   0  0  0  0  0  0  0  0  0  0  0  0
  139.6720   77.8780  222.2090 C   0  0  0  0  0  0  0  0  0  0  0  0
  138.7820   78.9310  222.7260 C   0  0  0  0  0  0  0  0  0  0  0  0
  137.3900   78.9300  222.6880 C   0  0  0  0  0  0  0  0  0  0  0  0
  136.8200   80.0740  223.2600 C   0  0  0  0  0  0  0  0  0  0  0  0
  137.7520   80.9780  223.7490 C   0  0  0  0  0  0  0  0  0  0  0  0
  139.2880   80.3530  223.4690 S   0  0  0  0  0  0  0  0  0  0  0  0
  139.5090   76.5010  222.3990 C   0  0  0  0  0  0  0  0  0  0  0  0
  140.5230   75.7600  221.7830 C   0  0  0  0  0  0  0  0  0  0  0  0
  142.8223   73.9556  217.8876 H   0  0  0  0  0  0  0  0  0  0  0  0
  144.2378   75.0712  217.9712 H   0  0  0  0  0  0  0  0  0  0  0  0
  144.2716   72.0145  217.9305 H   0  0  0  0  0  0  0  0  0  0  0  0
  144.9026   73.1522  216.6761 H   0  0  0  0  0  0  0  0  0  0  0  0
  145.3089   71.7278  219.8417 H   0  0  0  0  0  0  0  0  0  0  0  0
  146.8306   72.6205  220.2321 H   0  0  0  0  0  0  0  0  0  0  0  0
  144.7783   73.4150  221.4985 H   0  0  0  0  0  0  0  0  0  0  0  0
  145.6306   74.6865  220.5428 H   0  0  0  0  0  0  0  0  0  0  0  0
  136.7973   78.1122  222.2522 H   0  0  0  0  0  0  0  0  0  0  0  0
  135.7341   80.2405  223.3164 H   0  0  0  0  0  0  0  0  0  0  0  0
  137.5253   81.9380  224.2359 H   0  0  0  0  0  0  0  0  0  0  0  0
  138.6799   76.0535  222.9667 H   0  0  0  0  0  0  0  0  0  0  0  0
  1  2  2  0
  2  3  1  0
  3  4  2  0
  4  5  1  0
  5  6  1  0
  6  7  1  0
  7  8  1  0
  8  9  1  0
  9 10  1  0
  4 11  1  0
 11 12  1  0
 12 13  1  0
 13 14  1  0
 14 15  1  0
 15 16  2  0
 16 17  1  0
 17 18  2  0
 18 19  1  0
 14 20  2  0
 20 21  1  0
 21  2  1  0
 10  5  1  0
 21 12  2  0
 19 15  1  0
  6 22  1  0
  6 23  1  0
  7 24  1  0
  7 25  1  0
  9 26  1  0
  9 27  1  0
 10 28  1  0
 10 29  1  0
 16 30  1  0
 17 31  1  0
 18 32  1  0
 20 33  1  0
M  CHG  1  11  -1
M  END
>  <UniqueID>  (16) 
33

>  <SMILES>  (16) 
O=c1nc(N2CCOCC2)[n-]c2sc(-c3cccs3)cc12

>  <Energy>  (16) 
97.9093938313507

>  <Genealogy>  (16) 
O=c1nc(N2CCOCC2)[n-]c2sc(-c3cccs3)cc12 (protonated)
O=c1nc(N2CCOCC2)[n-]c2sc(-c3cccs3)cc12 (3D coordinates assigned)
O=c1nc(N2CCOCC2)[n-]c2sc(-c3cccs3)cc12 (nonaromatic ring conformer: 97.9093938313507 kcal/mol)

>  <smiles>  (16) 
O=c1nc(N2CCOCC2)[nH]c2sc(-c3cccs3)cc12

>  <score_type>  (16) 
oracle

>  <origin>  (16) 
autodockgpu

>  <m_score__min__energy>  (16) 
-5.9900000000000002

>  <m_primary>  (16) 
energy

>  <meeko>  (16) 
{"free_energy": -5.69, "intermolecular_energy": -6.29, "internal_energy": -0.42, "cluster_size": 4, "cluster_id": 2, "rank_in_cluster": 1}

>  <energy>  (16) 
-5.87

>  <cluster_rmsd>  (16) 
1.06

>  <rmsd>  (16) 
271.45

>  <cluster>  (16) 
1

$$$$
CFPRWASAHFAXRY-FWJFTDBINA-M
     RDKit          3D

 33 36  0  0  0  0  0  0  0  0999 V2000
  146.6310   73.3860  219.3140 O   0  0  0  0  0  0  0  0  0  0  0  0
  145.6480   72.6170  219.4850 C   0  0  0  0  0  0  0  0  0  0  0  0
  145.7940   71.2720  219.3210 N   0  0  0  0  0  0  0  0  0  0  0  0
  144.7490   70.4030  219.4970 C   0  0  0  0  0  0  0  0  0  0  0  0
  144.9430   68.9840  219.3150 N   0  0  0  0  0  0  0  0  0  0  0  0
  146.3020   68.4240  219.3490 C   0  0  0  0  0  0  0  0  0  0  0  0
  146.3470   67.0820  218.6120 C   0  0  0  0  0  0  0  0  0  0  0  0
  145.3280   66.2190  219.0730 O   0  0  0  0  0  0  0  0  0  0  0  0
  144.0670   66.7540  218.7280 C   0  0  0  0  0  0  0  0  0  0  0  0
  143.8080   68.0660  219.4750 C   0  0  0  0  0  0  0  0  0  0  0  0
  143.5200   70.8900  219.8490 N   0  0  0  0  0  0  0  0  0  0  0  0
  143.3630   72.2240  220.0160 C   0  0  0  0  0  0  0  0  0  0  0  0
  141.9580   73.0320  220.4430 S   0  0  0  0  0  0  0  0  0  0  0  0
  142.6770   74.5700  220.4100 C   0  0  0  0  0  0  0  0  0  0  0  0
  141.9740   75.8300  220.7050 C   0  0  0  0  0  0  0  0  0  0  0  0
  142.1850   77.0590  220.0870 C   0  0  0  0  0  0  0  0  0  0  0  0
  141.3610   78.0760  220.5840 C   0  0  0  0  0  0  0  0  0  0  0  0
  140.5010   77.6580  221.5890 C   0  0  0  0  0  0  0  0  0  0  0  0
  140.7670   76.0210  221.8610 S   0  0  0  0  0  0  0  0  0  0  0  0
  144.0280   74.4480  220.0620 C   0  0  0  0  0  0  0  0  0  0  0  0
  144.3970   73.1160  219.8430 C   0  0  0  0  0  0  0  0  0  0  0  0
  146.9955   69.1268  218.8642 H   0  0  0  0  0  0  0  0  0  0  0  0
  146.5953   68.2646  220.3971 H   0  0  0  0  0  0  0  0  0  0  0  0
  146.2099   67.2579  217.5349 H   0  0  0  0  0  0  0  0  0  0  0  0
  147.3214   66.6087  218.8032 H   0  0  0  0  0  0  0  0  0  0  0  0
  144.0406   66.9447  217.6450 H   0  0  0  0  0  0  0  0  0  0  0  0
  143.2885   66.0295  219.0091 H   0  0  0  0  0  0  0  0  0  0  0  0
  142.9007   68.5390  219.0712 H   0  0  0  0  0  0  0  0  0  0  0  0
  143.6780   67.8455  220.5448 H   0  0  0  0  0  0  0  0  0  0  0  0
  142.9249   77.2156  219.2882 H   0  0  0  0  0  0  0  0  0  0  0  0
  141.3926   79.1107  220.2120 H   0  0  0  0  0  0  0  0  0  0  0  0
  139.7709   78.2891  222.1169 H   0  0  0  0  0  0  0  0  0  0  0  0
  144.7184   75.2996  219.9714 H   0  0  0  0  0  0  0  0  0  0  0  0
  1  2  2  0
  2  3  1  0
  3  4  2  0
  4  5  1  0
  5  6  1  0
  6  7  1  0
  7  8  1  0
  8  9  1  0
  9 10  1  0
  4 11  1  0
 11 12  1  0
 12 13  1  0
 13 14  1  0
 14 15  1  0
 15 16  2  0
 16 17  1  0
 17 18  2  0
 18 19  1  0
 14 20  2  0
 20 21  1  0
 21  2  1  0
 10  5  1  0
 21 12  2  0
 19 15  1  0
  6 22  1  0
  6 23  1  0
  7 24  1  0
  7 25  1  0
  9 26  1  0
  9 27  1  0
 10 28  1  0
 10 29  1  0
 16 30  1  0
 17 31  1  0
 18 32  1  0
 20 33  1  0
M  CHG  1  11  -1
M  END
>  <UniqueID>  (17) 
33

>  <SMILES>  (17) 
O=c1nc(N2CCOCC2)[n-]c2sc(-c3cccs3)cc12

>  <Energy>  (17) 
97.9093938313507

>  <Genealogy>  (17) 
O=c1nc(N2CCOCC2)[n-]c2sc(-c3cccs3)cc12 (protonated)
O=c1nc(N2CCOCC2)[n-]c2sc(-c3cccs3)cc12 (3D coordinates assigned)
O=c1nc(N2CCOCC2)[n-]c2sc(-c3cccs3)cc12 (nonaromatic ring conformer: 97.9093938313507 kcal/mol)

>  <smiles>  (17) 
O=c1nc(N2CCOCC2)[nH]c2sc(-c3cccs3)cc12

>  <score_type>  (17) 
oracle

>  <origin>  (17) 
autodockgpu

>  <m_score__min__energy>  (17) 
-5.9900000000000002

>  <m_primary>  (17) 
energy

>  <meeko>  (17) 
{"free_energy": -5.97, "intermolecular_energy": -6.56, "internal_energy": -0.43, "cluster_size": 16, "cluster_id": 1, "rank_in_cluster": 9}

>  <energy>  (17) 
-5.69

>  <cluster_rmsd>  (17) 
0.0

>  <rmsd>  (17) 
272.26

>  <cluster>  (17) 
2

$$$$
CFPRWASAHFAXRY-FWJFTDBINA-M
     RDKit          3D

 33 36  0  0  0  0  0  0  0  0999 V2000
  146.5210   73.3760  219.3230 O   0  0  0  0  0  0  0  0  0  0  0  0
  145.5510   72.5910  219.5020 C   0  0  0  0  0  0  0  0  0  0  0  0
  145.7110   71.2510  219.3100 N   0  0  0  0  0  0  0  0  0  0  0  0
  144.6810   70.3660  219.4940 C   0  0  0  0  0  0  0  0  0  0  0  0
  144.8890   68.9530  219.2810 N   0  0  0  0  0  0  0  0  0  0  0  0
  146.2480   68.3970  219.3490 C   0  0  0  0  0  0  0  0  0  0  0  0
  146.3270   67.0760  218.5800 C   0  0  0  0  0  0  0  0  0  0  0  0
  145.2960   66.1960  218.9810 O   0  0  0  0  0  0  0  0  0  0  0  0
  144.0460   66.7350  218.6040 C   0  0  0  0  0  0  0  0  0  0  0  0
  143.7530   68.0260  219.3760 C   0  0  0  0  0  0  0  0  0  0  0  0
  143.4540   70.8300  219.8810 N   0  0  0  0  0  0  0  0  0  0  0  0
  143.2830   72.1590  220.0750 C   0  0  0  0  0  0  0  0  0  0  0  0
  141.8790   72.9410  220.5460 S   0  0  0  0  0  0  0  0  0  0  0  0
  142.5770   74.4880  220.5270 C   0  0  0  0  0  0  0  0  0  0  0  0
  141.8650   75.7330  220.8590 C   0  0  0  0  0  0  0  0  0  0  0  0
  141.0040   75.9310  221.9340 C   0  0  0  0  0  0  0  0  0  0  0  0
  140.4750   77.2270  221.9890 C   0  0  0  0  0  0  0  0  0  0  0  0
  140.9130   78.0520  220.9630 C   0  0  0  0  0  0  0  0  0  0  0  0
  141.9590   77.1690  219.9880 S   0  0  0  0  0  0  0  0  0  0  0  0
  143.9210   74.3900  220.1470 C   0  0  0  0  0  0  0  0  0  0  0  0
  144.3030   73.0670  219.8960 C   0  0  0  0  0  0  0  0  0  0  0  0
  146.9552   69.1151  218.9082 H   0  0  0  0  0  0  0  0  0  0  0  0
  146.5033   68.2106  220.4026 H   0  0  0  0  0  0  0  0  0  0  0  0
  146.2282   67.2796  217.5035 H   0  0  0  0  0  0  0  0  0  0  0  0
  147.2963   66.6022  218.7943 H   0  0  0  0  0  0  0  0  0  0  0  0
  144.0586   66.9546  217.5262 H   0  0  0  0  0  0  0  0  0  0  0  0
  143.2613   66.0001  218.8367 H   0  0  0  0  0  0  0  0  0  0  0  0
  142.8583   68.5057  218.9524 H   0  0  0  0  0  0  0  0  0  0  0  0
  143.5855   67.7768  220.4342 H   0  0  0  0  0  0  0  0  0  0  0  0
  140.7627   75.1478  222.6677 H   0  0  0  0  0  0  0  0  0  0  0  0
  139.7778   77.5594  222.7722 H   0  0  0  0  0  0  0  0  0  0  0  0
  140.6251   79.1031  220.8135 H   0  0  0  0  0  0  0  0  0  0  0  0
  144.5979   75.2523  220.0563 H   0  0  0  0  0  0  0  0  0  0  0  0
  1  2  2  0
  2  3  1  0
  3  4  2  0
  4  5  1  0
  5  6  1  0
  6  7  1  0
  7  8  1  0
  8  9  1  0
  9 10  1  0
  4 11  1  0
 11 12  1  0
 12 13  1  0
 13 14  1  0
 14 15  1  0
 15 16  2  0
 16 17  1  0
 17 18  2  0
 18 19  1  0
 14 20  2  0
 20 21  1  0
 21  2  1  0
 10  5  1  0
 21 12  2  0
 19 15  1  0
  6 22  1  0
  6 23  1  0
  7 24  1  0
  7 25  1  0
  9 26  1  0
  9 27  1  0
 10 28  1  0
 10 29  1  0
 16 30  1  0
 17 31  1  0
 18 32  1  0
 20 33  1  0
M  CHG  1  11  -1
M  END
>  <UniqueID>  (18) 
33

>  <SMILES>  (18) 
O=c1nc(N2CCOCC2)[n-]c2sc(-c3cccs3)cc12

>  <Energy>  (18) 
97.9093938313507

>  <Genealogy>  (18) 
O=c1nc(N2CCOCC2)[n-]c2sc(-c3cccs3)cc12 (protonated)
O=c1nc(N2CCOCC2)[n-]c2sc(-c3cccs3)cc12 (3D coordinates assigned)
O=c1nc(N2CCOCC2)[n-]c2sc(-c3cccs3)cc12 (nonaromatic ring conformer: 97.9093938313507 kcal/mol)

>  <smiles>  (18) 
O=c1nc(N2CCOCC2)[nH]c2sc(-c3cccs3)cc12

>  <score_type>  (18) 
oracle

>  <origin>  (18) 
autodockgpu

>  <m_score__min__energy>  (18) 
-5.9900000000000002

>  <m_primary>  (18) 
energy

>  <meeko>  (18) 
{"free_energy": -5.95, "intermolecular_energy": -6.55, "internal_energy": -0.43, "cluster_size": 16, "cluster_id": 1, "rank_in_cluster": 13}

>  <energy>  (18) 
-5.69

>  <cluster_rmsd>  (18) 
0.02

>  <rmsd>  (18) 
272.25

>  <cluster>  (18) 
2

$$$$
CFPRWASAHFAXRY-FWJFTDBINA-M
     RDKit          3D

 33 36  0  0  0  0  0  0  0  0999 V2000
  146.5390   73.3840  219.1600 O   0  0  0  0  0  0  0  0  0  0  0  0
  145.5820   72.6020  219.4060 C   0  0  0  0  0  0  0  0  0  0  0  0
  145.7430   71.2560  219.2630 N   0  0  0  0  0  0  0  0  0  0  0  0
  144.7250   70.3750  219.5200 C   0  0  0  0  0  0  0  0  0  0  0  0
  144.9350   68.9550  219.3580 N   0  0  0  0  0  0  0  0  0  0  0  0
  146.3030   68.4210  219.3060 C   0  0  0  0  0  0  0  0  0  0  0  0
  146.3220   67.0620  218.6010 C   0  0  0  0  0  0  0  0  0  0  0  0
  145.3570   66.1920  219.1550 O   0  0  0  0  0  0  0  0  0  0  0  0
  144.0630   66.6950  218.8890 C   0  0  0  0  0  0  0  0  0  0  0  0
  143.8320   68.0200  219.6220 C   0  0  0  0  0  0  0  0  0  0  0  0
  143.5110   70.8490  219.9330 N   0  0  0  0  0  0  0  0  0  0  0  0
  143.3390   72.1830  220.0790 C   0  0  0  0  0  0  0  0  0  0  0  0
  141.9480   72.9780  220.5700 S   0  0  0  0  0  0  0  0  0  0  0  0
  142.6360   74.5260  220.4610 C   0  0  0  0  0  0  0  0  0  0  0  0
  141.9280   75.7800  220.7690 C   0  0  0  0  0  0  0  0  0  0  0  0
  142.1330   77.0160  220.1630 C   0  0  0  0  0  0  0  0  0  0  0  0
  141.3060   78.0250  220.6700 C   0  0  0  0  0  0  0  0  0  0  0  0
  140.4500   77.5950  221.6730 C   0  0  0  0  0  0  0  0  0  0  0  0
  140.7220   75.9550  221.9290 S   0  0  0  0  0  0  0  0  0  0  0  0
  143.9650   74.4180  220.0370 C   0  0  0  0  0  0  0  0  0  0  0  0
  144.3460   73.0880  219.8260 C   0  0  0  0  0  0  0  0  0  0  0  0
  146.9451   69.1237  218.7548 H   0  0  0  0  0  0  0  0  0  0  0  0
  146.6744   68.2938  220.3336 H   0  0  0  0  0  0  0  0  0  0  0  0
  146.1042   67.2077  217.5327 H   0  0  0  0  0  0  0  0  0  0  0  0
  147.3171   66.6121  218.7330 H   0  0  0  0  0  0  0  0  0  0  0  0
  143.9553   66.8584  217.8066 H   0  0  0  0  0  0  0  0  0  0  0  0
  143.3214   65.9633  219.2420 H   0  0  0  0  0  0  0  0  0  0  0  0
  142.8886   68.4661  219.2742 H   0  0  0  0  0  0  0  0  0  0  0  0
  143.7837   67.8240  220.7033 H   0  0  0  0  0  0  0  0  0  0  0  0
  142.8714   77.1833  219.3650 H   0  0  0  0  0  0  0  0  0  0  0  0
  141.3325   79.0629  220.3066 H   0  0  0  0  0  0  0  0  0  0  0  0
  139.7193   78.2188  222.2086 H   0  0  0  0  0  0  0  0  0  0  0  0
  144.6331   75.2789  219.8869 H   0  0  0  0  0  0  0  0  0  0  0  0
  1  2  2  0
  2  3  1  0
  3  4  2  0
  4  5  1  0
  5  6  1  0
  6  7  1  0
  7  8  1  0
  8  9  1  0
  9 10  1  0
  4 11  1  0
 11 12  1  0
 12 13  1  0
 13 14  1  0
 14 15  1  0
 15 16  2  0
 16 17  1  0
 17 18  2  0
 18 19  1  0
 14 20  2  0
 20 21  1  0
 21  2  1  0
 10  5  1  0
 21 12  2  0
 19 15  1  0
  6 22  1  0
  6 23  1  0
  7 24  1  0
  7 25  1  0
  9 26  1  0
  9 27  1  0
 10 28  1  0
 10 29  1  0
 16 30  1  0
 17 31  1  0
 18 32  1  0
 20 33  1  0
M  CHG  1  11  -1
M  END
>  <UniqueID>  (19) 
33

>  <SMILES>  (19) 
O=c1nc(N2CCOCC2)[n-]c2sc(-c3cccs3)cc12

>  <Energy>  (19) 
97.9093938313507

>  <Genealogy>  (19) 
O=c1nc(N2CCOCC2)[n-]c2sc(-c3cccs3)cc12 (protonated)
O=c1nc(N2CCOCC2)[n-]c2sc(-c3cccs3)cc12 (3D coordinates assigned)
O=c1nc(N2CCOCC2)[n-]c2sc(-c3cccs3)cc12 (nonaromatic ring conformer: 97.9093938313507 kcal/mol)

>  <smiles>  (19) 
O=c1nc(N2CCOCC2)[nH]c2sc(-c3cccs3)cc12

>  <score_type>  (19) 
oracle

>  <origin>  (19) 
autodockgpu

>  <m_score__min__energy>  (19) 
-5.9900000000000002

>  <m_primary>  (19) 
energy

>  <meeko>  (19) 
{"free_energy": -5.98, "intermolecular_energy": -6.58, "internal_energy": -0.43, "cluster_size": 16, "cluster_id": 1, "rank_in_cluster": 6}

>  <energy>  (19) 
-5.68

>  <cluster_rmsd>  (19) 
0.04

>  <rmsd>  (19) 
272.24

>  <cluster>  (19) 
2

$$$$
CFPRWASAHFAXRY-FWJFTDBINA-M
     RDKit          3D

 33 36  0  0  0  0  0  0  0  0999 V2000
  146.3160   73.3710  218.7270 O   0  0  0  0  0  0  0  0  0  0  0  0
  145.4200   72.5730  219.1110 C   0  0  0  0  0  0  0  0  0  0  0  0
  145.6000   71.2280  218.9810 N   0  0  0  0  0  0  0  0  0  0  0  0
  144.6490   70.3280  219.3880 C   0  0  0  0  0  0  0  0  0  0  0  0
  144.8760   68.9110  219.2340 N   0  0  0  0  0  0  0  0  0  0  0  0
  146.2420   68.3760  219.3350 C   0  0  0  0  0  0  0  0  0  0  0  0
  146.3430   67.0250  218.6210 C   0  0  0  0  0  0  0  0  0  0  0  0
  145.3210   66.1490  219.0500 O   0  0  0  0  0  0  0  0  0  0  0  0
  144.0660   66.6570  218.6430 C   0  0  0  0  0  0  0  0  0  0  0  0
  143.7510   67.9740  219.3590 C   0  0  0  0  0  0  0  0  0  0  0  0
  143.4840   70.7830  219.9400 N   0  0  0  0  0  0  0  0  0  0  0  0
  143.2940   72.1160  220.0750 C   0  0  0  0  0  0  0  0  0  0  0  0
  141.9530   72.8880  220.7190 S   0  0  0  0  0  0  0  0  0  0  0  0
  142.5770   74.4490  220.4870 C   0  0  0  0  0  0  0  0  0  0  0  0
  141.8780   75.6930  220.8520 C   0  0  0  0  0  0  0  0  0  0  0  0
  140.9880   75.8620  221.9080 C   0  0  0  0  0  0  0  0  0  0  0  0
  140.4830   77.1650  222.0020 C   0  0  0  0  0  0  0  0  0  0  0  0
  140.9680   78.0250  221.0280 C   0  0  0  0  0  0  0  0  0  0  0  0
  142.0280   77.1630  220.0470 S   0  0  0  0  0  0  0  0  0  0  0  0
  143.8450   74.3640  219.8990 C   0  0  0  0  0  0  0  0  0  0  0  0
  144.2330   73.0390  219.6740 C   0  0  0  0  0  0  0  0  0  0  0  0
  146.9435   69.0844  218.8702 H   0  0  0  0  0  0  0  0  0  0  0  0
  146.4919   68.2366  220.3971 H   0  0  0  0  0  0  0  0  0  0  0  0
  146.2496   67.1832  217.5365 H   0  0  0  0  0  0  0  0  0  0  0  0
  147.3165   66.5729  218.8616 H   0  0  0  0  0  0  0  0  0  0  0  0
  144.0835   66.8326  217.5573 H   0  0  0  0  0  0  0  0  0  0  0  0
  143.2891   65.9222  218.9010 H   0  0  0  0  0  0  0  0  0  0  0  0
  142.8535   68.4243  218.9098 H   0  0  0  0  0  0  0  0  0  0  0  0
  143.5786   67.7662  220.4253 H   0  0  0  0  0  0  0  0  0  0  0  0
  140.7090   75.0534  222.5996 H   0  0  0  0  0  0  0  0  0  0  0  0
  139.7676   77.4775  222.7770 H   0  0  0  0  0  0  0  0  0  0  0  0
  140.7049   79.0872  220.9164 H   0  0  0  0  0  0  0  0  0  0  0  0
  144.4636   75.2370  219.6439 H   0  0  0  0  0  0  0  0  0  0  0  0
  1  2  2  0
  2  3  1  0
  3  4  2  0
  4  5  1  0
  5  6  1  0
  6  7  1  0
  7  8  1  0
  8  9  1  0
  9 10  1  0
  4 11  1  0
 11 12  1  0
 12 13  1  0
 13 14  1  0
 14 15  1  0
 15 16  2  0
 16 17  1  0
 17 18  2  0
 18 19  1  0
 14 20  2  0
 20 21  1  0
 21  2  1  0
 10  5  1  0
 21 12  2  0
 19 15  1  0
  6 22  1  0
  6 23  1  0
  7 24  1  0
  7 25  1  0
  9 26  1  0
  9 27  1  0
 10 28  1  0
 10 29  1  0
 16 30  1  0
 17 31  1  0
 18 32  1  0
 20 33  1  0
M  CHG  1  11  -1
M  END
>  <UniqueID>  (20) 
33

>  <SMILES>  (20) 
O=c1nc(N2CCOCC2)[n-]c2sc(-c3cccs3)cc12

>  <Energy>  (20) 
97.9093938313507

>  <Genealogy>  (20) 
O=c1nc(N2CCOCC2)[n-]c2sc(-c3cccs3)cc12 (protonated)
O=c1nc(N2CCOCC2)[n-]c2sc(-c3cccs3)cc12 (3D coordinates assigned)
O=c1nc(N2CCOCC2)[n-]c2sc(-c3cccs3)cc12 (nonaromatic ring conformer: 97.9093938313507 kcal/mol)

>  <smiles>  (20) 
O=c1nc(N2CCOCC2)[nH]c2sc(-c3cccs3)cc12

>  <score_type>  (20) 
oracle

>  <origin>  (20) 
autodockgpu

>  <m_score__min__energy>  (20) 
-5.9900000000000002

>  <m_primary>  (20) 
energy

>  <meeko>  (20) 
{"free_energy": -5.96, "intermolecular_energy": -6.55, "internal_energy": -0.43, "cluster_size": 16, "cluster_id": 1, "rank_in_cluster": 11}

>  <energy>  (20) 
-5.68

>  <cluster_rmsd>  (20) 
0.18

>  <rmsd>  (20) 
272.21

>  <cluster>  (20) 
2

$$$$
CFPRWASAHFAXRY-FWJFTDBINA-M
     RDKit          3D

 33 36  0  0  0  0  0  0  0  0999 V2000
  146.5440   73.3940  219.1890 O   0  0  0  0  0  0  0  0  0  0  0  0
  145.5760   72.6170  219.4040 C   0  0  0  0  0  0  0  0  0  0  0  0
  145.7260   71.2730  219.2360 N   0  0  0  0  0  0  0  0  0  0  0  0
  144.6970   70.3960  219.4600 C   0  0  0  0  0  0  0  0  0  0  0  0
  144.8950   68.9780  219.2720 N   0  0  0  0  0  0  0  0  0  0  0  0
  146.2440   68.4080  219.3950 C   0  0  0  0  0  0  0  0  0  0  0  0
  146.3340   67.0760  218.6450 C   0  0  0  0  0  0  0  0  0  0  0  0
  145.2800   66.2130  219.0210 O   0  0  0  0  0  0  0  0  0  0  0  0
  144.0490   66.7620  218.5940 C   0  0  0  0  0  0  0  0  0  0  0  0
  143.7450   68.0660  219.3390 C   0  0  0  0  0  0  0  0  0  0  0  0
  143.4810   70.8740  219.8640 N   0  0  0  0  0  0  0  0  0  0  0  0
  143.3190   72.2070  220.0340 C   0  0  0  0  0  0  0  0  0  0  0  0
  141.9280   73.0050  220.5190 S   0  0  0  0  0  0  0  0  0  0  0  0
  142.6320   74.5480  220.4520 C   0  0  0  0  0  0  0  0  0  0  0  0
  141.9310   75.8020  220.7740 C   0  0  0  0  0  0  0  0  0  0  0  0
  142.1530   77.0460  220.1910 C   0  0  0  0  0  0  0  0  0  0  0  0
  141.3290   78.0540  220.7080 C   0  0  0  0  0  0  0  0  0  0  0  0
  140.4580   77.6130  221.6940 C   0  0  0  0  0  0  0  0  0  0  0  0
  140.7140   75.9680  221.9250 S   0  0  0  0  0  0  0  0  0  0  0  0
  143.9670   74.4360  220.0460 C   0  0  0  0  0  0  0  0  0  0  0  0
  144.3380   73.1070  219.8150 C   0  0  0  0  0  0  0  0  0  0  0  0
  146.9746   69.1124  218.9707 H   0  0  0  0  0  0  0  0  0  0  0  0
  146.4603   68.2323  220.4591 H   0  0  0  0  0  0  0  0  0  0  0  0
  146.2745   67.2671  217.5634 H   0  0  0  0  0  0  0  0  0  0  0  0
  147.2899   66.5941  218.8982 H   0  0  0  0  0  0  0  0  0  0  0  0
  144.1012   66.9675  217.5146 H   0  0  0  0  0  0  0  0  0  0  0  0
  143.2481   66.0392  218.8088 H   0  0  0  0  0  0  0  0  0  0  0  0
  142.8715   68.5507  218.8784 H   0  0  0  0  0  0  0  0  0  0  0  0
  143.5375   67.8326  220.3937 H   0  0  0  0  0  0  0  0  0  0  0  0
  142.9006   77.2203  219.4031 H   0  0  0  0  0  0  0  0  0  0  0  0
  141.3687   79.0982  220.3642 H   0  0  0  0  0  0  0  0  0  0  0  0
  139.7259   78.2333  222.2319 H   0  0  0  0  0  0  0  0  0  0  0  0
  144.6453   75.2931  219.9229 H   0  0  0  0  0  0  0  0  0  0  0  0
  1  2  2  0
  2  3  1  0
  3  4  2  0
  4  5  1  0
  5  6  1  0
  6  7  1  0
  7  8  1  0
  8  9  1  0
  9 10  1  0
  4 11  1  0
 11 12  1  0
 12 13  1  0
 13 14  1  0
 14 15  1  0
 15 16  2  0
 16 17  1  0
 17 18  2  0
 18 19  1  0
 14 20  2  0
 20 21  1  0
 21  2  1  0
 10  5  1  0
 21 12  2  0
 19 15  1  0
  6 22  1  0
  6 23  1  0
  7 24  1  0
  7 25  1  0
  9 26  1  0
  9 27  1  0
 10 28  1  0
 10 29  1  0
 16 30  1  0
 17 31  1  0
 18 32  1  0
 20 33  1  0
M  CHG  1  11  -1
M  END
>  <UniqueID>  (21) 
34

>  <SMILES>  (21) 
O=c1nc(N2CCOCC2)[n-]c2sc(-c3cccs3)cc12

>  <Energy>  (21) 
98.10198395118728

>  <Genealogy>  (21) 
O=c1nc(N2CCOCC2)[n-]c2sc(-c3cccs3)cc12 (protonated)
O=c1nc(N2CCOCC2)[n-]c2sc(-c3cccs3)cc12 (3D coordinates assigned)
O=c1nc(N2CCOCC2)[n-]c2sc(-c3cccs3)cc12 (nonaromatic ring conformer: 98.10198395118728 kcal/mol)

>  <smiles>  (21) 
O=c1nc(N2CCOCC2)[nH]c2sc(-c3cccs3)cc12

>  <score_type>  (21) 
oracle

>  <origin>  (21) 
autodockgpu

>  <m_score__min__energy>  (21) 
-5.9900000000000002

>  <m_primary>  (21) 
energy

>  <meeko>  (21) 
{"free_energy": -5.97, "intermolecular_energy": -6.56, "internal_energy": -0.43, "cluster_size": 16, "cluster_id": 1, "rank_in_cluster": 10}

>  <energy>  (21) 
-5.99

>  <cluster_rmsd>  (21) 
0.0

>  <rmsd>  (21) 
271.45

>  <cluster>  (21) 
1

$$$$
CFPRWASAHFAXRY-FWJFTDBINA-M
     RDKit          3D

 33 36  0  0  0  0  0  0  0  0999 V2000
  146.5550   73.3730  219.3130 O   0  0  0  0  0  0  0  0  0  0  0  0
  145.5840   72.5920  219.5000 C   0  0  0  0  0  0  0  0  0  0  0  0
  145.7400   71.2500  219.3210 N   0  0  0  0  0  0  0  0  0  0  0  0
  144.7080   70.3690  219.5140 C   0  0  0  0  0  0  0  0  0  0  0  0
  144.9130   68.9540  219.3150 N   0  0  0  0  0  0  0  0  0  0  0  0
  146.2750   68.4030  219.3450 C   0  0  0  0  0  0  0  0  0  0  0  0
  146.3320   67.0700  218.5930 C   0  0  0  0  0  0  0  0  0  0  0  0
  145.3180   66.1940  219.0410 O   0  0  0  0  0  0  0  0  0  0  0  0
  144.0540   66.7250  218.6990 C   0  0  0  0  0  0  0  0  0  0  0  0
  143.7830   68.0250  219.4620 C   0  0  0  0  0  0  0  0  0  0  0  0
  143.4830   70.8400  219.8990 N   0  0  0  0  0  0  0  0  0  0  0  0
  143.3160   72.1710  220.0800 C   0  0  0  0  0  0  0  0  0  0  0  0
  141.9130   72.9610  220.5460 S   0  0  0  0  0  0  0  0  0  0  0  0
  142.6150   74.5060  220.5110 C   0  0  0  0  0  0  0  0  0  0  0  0
  141.9060   75.7560  220.8320 C   0  0  0  0  0  0  0  0  0  0  0  0
  141.0330   75.9600  221.8960 C   0  0  0  0  0  0  0  0  0  0  0  0
  140.5110   77.2590  221.9420 C   0  0  0  0  0  0  0  0  0  0  0  0
  140.9660   78.0800  220.9200 C   0  0  0  0  0  0  0  0  0  0  0  0
  142.0190   77.1890  219.9590 S   0  0  0  0  0  0  0  0  0  0  0  0
  143.9590   74.4010  220.1300 C   0  0  0  0  0  0  0  0  0  0  0  0
  144.3370   73.0750  219.8920 C   0  0  0  0  0  0  0  0  0  0  0  0
  146.9644   69.1163  218.8698 H   0  0  0  0  0  0  0  0  0  0  0  0
  146.5667   68.2332  220.3919 H   0  0  0  0  0  0  0  0  0  0  0  0
  146.1967   67.2573  217.5175 H   0  0  0  0  0  0  0  0  0  0  0  0
  147.3093   66.6018  218.7818 H   0  0  0  0  0  0  0  0  0  0  0  0
  144.0297   66.9298  217.6185 H   0  0  0  0  0  0  0  0  0  0  0  0
  143.2799   65.9914  218.9684 H   0  0  0  0  0  0  0  0  0  0  0  0
  142.8728   68.4961  219.0625 H   0  0  0  0  0  0  0  0  0  0  0  0
  143.6520   67.7905  220.5287 H   0  0  0  0  0  0  0  0  0  0  0  0
  140.7782   75.1793  222.6278 H   0  0  0  0  0  0  0  0  0  0  0  0
  139.8062   77.5968  222.7160 H   0  0  0  0  0  0  0  0  0  0  0  0
  140.6860   79.1324  220.7653 H   0  0  0  0  0  0  0  0  0  0  0  0
  144.6379   75.2607  220.0297 H   0  0  0  0  0  0  0  0  0  0  0  0
  1  2  2  0
  2  3  1  0
  3  4  2  0
  4  5  1  0
  5  6  1  0
  6  7  1  0
  7  8  1  0
  8  9  1  0
  9 10  1  0
  4 11  1  0
 11 12  1  0
 12 13  1  0
 13 14  1  0
 14 15  1  0
 15 16  2  0
 16 17  1  0
 17 18  2  0
 18 19  1  0
 14 20  2  0
 20 21  1  0
 21  2  1  0
 10  5  1  0
 21 12  2  0
 19 15  1  0
  6 22  1  0
  6 23  1  0
  7 24  1  0
  7 25  1  0
  9 26  1  0
  9 27  1  0
 10 28  1  0
 10 29  1  0
 16 30  1  0
 17 31  1  0
 18 32  1  0
 20 33  1  0
M  CHG  1  11  -1
M  END
>  <UniqueID>  (22) 
34

>  <SMILES>  (22) 
O=c1nc(N2CCOCC2)[n-]c2sc(-c3cccs3)cc12

>  <Energy>  (22) 
98.10198395118728

>  <Genealogy>  (22) 
O=c1nc(N2CCOCC2)[n-]c2sc(-c3cccs3)cc12 (protonated)
O=c1nc(N2CCOCC2)[n-]c2sc(-c3cccs3)cc12 (3D coordinates assigned)
O=c1nc(N2CCOCC2)[n-]c2sc(-c3cccs3)cc12 (nonaromatic ring conformer: 98.10198395118728 kcal/mol)

>  <smiles>  (22) 
O=c1nc(N2CCOCC2)[nH]c2sc(-c3cccs3)cc12

>  <score_type>  (22) 
oracle

>  <origin>  (22) 
autodockgpu

>  <m_score__min__energy>  (22) 
-5.9900000000000002

>  <m_primary>  (22) 
energy

>  <meeko>  (22) 
{"free_energy": -5.95, "intermolecular_energy": -6.55, "internal_energy": -0.43, "cluster_size": 16, "cluster_id": 1, "rank_in_cluster": 12}

>  <energy>  (22) 
-5.99

>  <cluster_rmsd>  (22) 
0.06

>  <rmsd>  (22) 
271.43

>  <cluster>  (22) 
1

$$$$
CFPRWASAHFAXRY-FWJFTDBINA-M
     RDKit          3D

 33 36  0  0  0  0  0  0  0  0999 V2000
  146.6890   73.6640  219.4780 O   0  0  0  0  0  0  0  0  0  0  0  0
  145.7480   72.8280  219.5450 C   0  0  0  0  0  0  0  0  0  0  0  0
  145.9830   71.5110  219.2830 N   0  0  0  0  0  0  0  0  0  0  0  0
  144.9860   70.5720  219.3440 C   0  0  0  0  0  0  0  0  0  0  0  0
  145.2740   69.1860  219.0610 N   0  0  0  0  0  0  0  0  0  0  0  0
  146.2870   68.8430  218.0520 C   0  0  0  0  0  0  0  0  0  0  0  0
  146.0540   67.4270  217.5180 C   0  0  0  0  0  0  0  0  0  0  0  0
  145.9240   66.5030  218.5780 O   0  0  0  0  0  0  0  0  0  0  0  0
  144.7480   66.7890  219.3080 C   0  0  0  0  0  0  0  0  0  0  0  0
  144.8580   68.1450  220.0110 C   0  0  0  0  0  0  0  0  0  0  0  0
  143.7170   70.9580  219.6780 N   0  0  0  0  0  0  0  0  0  0  0  0
  143.4720   72.2620  219.9410 C   0  0  0  0  0  0  0  0  0  0  0  0
  142.0050   72.9520  220.3660 S   0  0  0  0  0  0  0  0  0  0  0  0
  142.6290   74.5250  220.4850 C   0  0  0  0  0  0  0  0  0  0  0  0
  141.8390   75.7150  220.8460 C   0  0  0  0  0  0  0  0  0  0  0  0
  140.9180   75.8120  221.8840 C   0  0  0  0  0  0  0  0  0  0  0  0
  140.3220   77.0760  221.9790 C   0  0  0  0  0  0  0  0  0  0  0  0
  140.7660   77.9760  221.0210 C   0  0  0  0  0  0  0  0  0  0  0  0
  141.9020   77.1990  220.0560 S   0  0  0  0  0  0  0  0  0  0  0  0
  143.9970   74.5100  220.1890 C   0  0  0  0  0  0  0  0  0  0  0  0
  144.4560   73.2240  219.8840 C   0  0  0  0  0  0  0  0  0  0  0  0
  146.2251   69.5588  217.2190 H   0  0  0  0  0  0  0  0  0  0  0  0
  147.2825   68.8883  218.5177 H   0  0  0  0  0  0  0  0  0  0  0  0
  145.1334   67.4162  216.9161 H   0  0  0  0  0  0  0  0  0  0  0  0
  146.9188   67.1368  216.9033 H   0  0  0  0  0  0  0  0  0  0  0  0
  143.8916   66.8094  218.6179 H   0  0  0  0  0  0  0  0  0  0  0  0
  144.6085   66.0081  220.0701 H   0  0  0  0  0  0  0  0  0  0  0  0
  143.8792   68.4129  220.4356 H   0  0  0  0  0  0  0  0  0  0  0  0
  145.6109   68.0712  220.8095 H   0  0  0  0  0  0  0  0  0  0  0  0
  140.6814   74.9791  222.5625 H   0  0  0  0  0  0  0  0  0  0  0  0
  139.5719   77.3313  222.7420 H   0  0  0  0  0  0  0  0  0  0  0  0
  140.4322   79.0184  220.9118 H   0  0  0  0  0  0  0  0  0  0  0  0
  144.6366   75.4049  220.1954 H   0  0  0  0  0  0  0  0  0  0  0  0
  1  2  2  0
  2  3  1  0
  3  4  2  0
  4  5  1  0
  5  6  1  0
  6  7  1  0
  7  8  1  0
  8  9  1  0
  9 10  1  0
  4 11  1  0
 11 12  1  0
 12 13  1  0
 13 14  1  0
 14 15  1  0
 15 16  2  0
 16 17  1  0
 17 18  2  0
 18 19  1  0
 14 20  2  0
 20 21  1  0
 21  2  1  0
 10  5  1  0
 21 12  2  0
 19 15  1  0
  6 22  1  0
  6 23  1  0
  7 24  1  0
  7 25  1  0
  9 26  1  0
  9 27  1  0
 10 28  1  0
 10 29  1  0
 16 30  1  0
 17 31  1  0
 18 32  1  0
 20 33  1  0
M  CHG  1  11  -1
M  END
>  <UniqueID>  (23) 
34

>  <SMILES>  (23) 
O=c1nc(N2CCOCC2)[n-]c2sc(-c3cccs3)cc12

>  <Energy>  (23) 
98.10198395118728

>  <Genealogy>  (23) 
O=c1nc(N2CCOCC2)[n-]c2sc(-c3cccs3)cc12 (protonated)
O=c1nc(N2CCOCC2)[n-]c2sc(-c3cccs3)cc12 (3D coordinates assigned)
O=c1nc(N2CCOCC2)[n-]c2sc(-c3cccs3)cc12 (nonaromatic ring conformer: 98.10198395118728 kcal/mol)

>  <smiles>  (23) 
O=c1nc(N2CCOCC2)[nH]c2sc(-c3cccs3)cc12

>  <score_type>  (23) 
oracle

>  <origin>  (23) 
autodockgpu

>  <m_score__min__energy>  (23) 
-5.9900000000000002

>  <m_primary>  (23) 
energy

>  <meeko>  (23) 
{"free_energy": -5.94, "intermolecular_energy": -6.54, "internal_energy": -0.43, "cluster_size": 16, "cluster_id": 1, "rank_in_cluster": 15}

>  <energy>  (23) 
-5.99

>  <cluster_rmsd>  (23) 
0.01

>  <rmsd>  (23) 
271.45

>  <cluster>  (23) 
1

$$$$
CFPRWASAHFAXRY-FWJFTDBINA-M
     RDKit          3D

 33 36  0  0  0  0  0  0  0  0999 V2000
  146.4930   73.3920  218.9780 O   0  0  0  0  0  0  0  0  0  0  0  0
  145.5570   72.6120  219.2950 C   0  0  0  0  0  0  0  0  0  0  0  0
  145.7190   71.2630  219.1780 N   0  0  0  0  0  0  0  0  0  0  0  0
  144.7240   70.3830  219.5120 C   0  0  0  0  0  0  0  0  0  0  0  0
  144.9340   68.9610  219.3750 N   0  0  0  0  0  0  0  0  0  0  0  0
  146.3030   68.4250  219.3530 C   0  0  0  0  0  0  0  0  0  0  0  0
  146.3310   67.0550  218.6680 C   0  0  0  0  0  0  0  0  0  0  0  0
  145.3570   66.1940  219.2210 O   0  0  0  0  0  0  0  0  0  0  0  0
  144.0680   66.6940  218.9280 C   0  0  0  0  0  0  0  0  0  0  0  0
  143.8270   68.0310  219.6370 C   0  0  0  0  0  0  0  0  0  0  0  0
  143.5300   70.8600  219.9780 N   0  0  0  0  0  0  0  0  0  0  0  0
  143.3560   72.1970  220.0990 C   0  0  0  0  0  0  0  0  0  0  0  0
  141.9870   72.9960  220.6430 S   0  0  0  0  0  0  0  0  0  0  0  0
  142.6570   74.5440  220.4580 C   0  0  0  0  0  0  0  0  0  0  0  0
  141.9580   75.8020  220.7720 C   0  0  0  0  0  0  0  0  0  0  0  0
  142.1800   77.0410  220.1790 C   0  0  0  0  0  0  0  0  0  0  0  0
  141.3570   78.0530  220.6880 C   0  0  0  0  0  0  0  0  0  0  0  0
  140.4880   77.6210  221.6800 C   0  0  0  0  0  0  0  0  0  0  0  0
  140.7430   75.9770  221.9220 S   0  0  0  0  0  0  0  0  0  0  0  0
  143.9630   74.4340  219.9650 C   0  0  0  0  0  0  0  0  0  0  0  0
  144.3410   73.1010  219.7690 C   0  0  0  0  0  0  0  0  0  0  0  0
  146.9547   69.1189  218.8018 H   0  0  0  0  0  0  0  0  0  0  0  0
  146.6582   68.3129  220.3880 H   0  0  0  0  0  0  0  0  0  0  0  0
  146.1288   67.1850  217.5946 H   0  0  0  0  0  0  0  0  0  0  0  0
  147.3236   66.6063  218.8208 H   0  0  0  0  0  0  0  0  0  0  0  0
  143.9767   66.8406  217.8416 H   0  0  0  0  0  0  0  0  0  0  0  0
  143.3205   65.9685  219.2814 H   0  0  0  0  0  0  0  0  0  0  0  0
  142.8891   68.4720  219.2683 H   0  0  0  0  0  0  0  0  0  0  0  0
  143.7626   67.8519  220.7204 H   0  0  0  0  0  0  0  0  0  0  0  0
  142.9272   77.2087  219.3894 H   0  0  0  0  0  0  0  0  0  0  0  0
  141.3957   79.0939  220.3344 H   0  0  0  0  0  0  0  0  0  0  0  0
  139.7584   78.2462  222.2155 H   0  0  0  0  0  0  0  0  0  0  0  0
  144.6154   75.2947  219.7562 H   0  0  0  0  0  0  0  0  0  0  0  0
  1  2  2  0
  2  3  1  0
  3  4  2  0
  4  5  1  0
  5  6  1  0
  6  7  1  0
  7  8  1  0
  8  9  1  0
  9 10  1  0
  4 11  1  0
 11 12  1  0
 12 13  1  0
 13 14  1  0
 14 15  1  0
 15 16  2  0
 16 17  1  0
 17 18  2  0
 18 19  1  0
 14 20  2  0
 20 21  1  0
 21  2  1  0
 10  5  1  0
 21 12  2  0
 19 15  1  0
  6 22  1  0
  6 23  1  0
  7 24  1  0
  7 25  1  0
  9 26  1  0
  9 27  1  0
 10 28  1  0
 10 29  1  0
 16 30  1  0
 17 31  1  0
 18 32  1  0
 20 33  1  0
M  CHG  1  11  -1
M  END
>  <UniqueID>  (24) 
34

>  <SMILES>  (24) 
O=c1nc(N2CCOCC2)[n-]c2sc(-c3cccs3)cc12

>  <Energy>  (24) 
98.10198395118728

>  <Genealogy>  (24) 
O=c1nc(N2CCOCC2)[n-]c2sc(-c3cccs3)cc12 (protonated)
O=c1nc(N2CCOCC2)[n-]c2sc(-c3cccs3)cc12 (3D coordinates assigned)
O=c1nc(N2CCOCC2)[n-]c2sc(-c3cccs3)cc12 (nonaromatic ring conformer: 98.10198395118728 kcal/mol)

>  <smiles>  (24) 
O=c1nc(N2CCOCC2)[nH]c2sc(-c3cccs3)cc12

>  <score_type>  (24) 
oracle

>  <origin>  (24) 
autodockgpu

>  <m_score__min__energy>  (24) 
-5.9900000000000002

>  <m_primary>  (24) 
energy

>  <meeko>  (24) 
{"free_energy": -5.99, "intermolecular_energy": -6.58, "internal_energy": -0.43, "cluster_size": 16, "cluster_id": 1, "rank_in_cluster": 2}

>  <energy>  (24) 
-5.99

>  <cluster_rmsd>  (24) 
0.04

>  <rmsd>  (24) 
271.44

>  <cluster>  (24) 
1

$$$$
CFPRWASAHFAXRY-FWJFTDBINA-M
     RDKit          3D

 33 36  0  0  0  0  0  0  0  0999 V2000
  146.6050   73.3960  219.2500 O   0  0  0  0  0  0  0  0  0  0  0  0
  145.6330   72.6230  219.4580 C   0  0  0  0  0  0  0  0  0  0  0  0
  145.7840   71.2760  219.3090 N   0  0  0  0  0  0  0  0  0  0  0  0
  144.7500   70.4030  219.5260 C   0  0  0  0  0  0  0  0  0  0  0  0
  144.9500   68.9830  219.3590 N   0  0  0  0  0  0  0  0  0  0  0  0
  146.3140   68.4400  219.3040 C   0  0  0  0  0  0  0  0  0  0  0  0
  146.3240   67.0830  218.5940 C   0  0  0  0  0  0  0  0  0  0  0  0
  145.3530   66.2180  219.1460 O   0  0  0  0  0  0  0  0  0  0  0  0
  144.0630   66.7310  218.8830 C   0  0  0  0  0  0  0  0  0  0  0  0
  143.8410   68.0550  219.6210 C   0  0  0  0  0  0  0  0  0  0  0  0
  143.5280   70.8870  219.9030 N   0  0  0  0  0  0  0  0  0  0  0  0
  143.3650   72.2220  220.0540 C   0  0  0  0  0  0  0  0  0  0  0  0
  141.9660   73.0270  220.5050 S   0  0  0  0  0  0  0  0  0  0  0  0
  142.6730   74.5690  220.4320 C   0  0  0  0  0  0  0  0  0  0  0  0
  141.9680   75.8280  220.7270 C   0  0  0  0  0  0  0  0  0  0  0  0
  142.1950   77.0620  220.1250 C   0  0  0  0  0  0  0  0  0  0  0  0
  141.3650   78.0780  220.6170 C   0  0  0  0  0  0  0  0  0  0  0  0
  140.4860   77.6530  221.6030 C   0  0  0  0  0  0  0  0  0  0  0  0
  140.7410   76.0110  221.8620 S   0  0  0  0  0  0  0  0  0  0  0  0
  144.0150   74.4500  220.0500 C   0  0  0  0  0  0  0  0  0  0  0  0
  144.3880   73.1180  219.8410 C   0  0  0  0  0  0  0  0  0  0  0  0
  146.9604   69.1404  218.7549 H   0  0  0  0  0  0  0  0  0  0  0  0
  146.6849   68.3065  220.3309 H   0  0  0  0  0  0  0  0  0  0  0  0
  146.1068   67.2336  217.5262 H   0  0  0  0  0  0  0  0  0  0  0  0
  147.3161   66.6259  218.7235 H   0  0  0  0  0  0  0  0  0  0  0  0
  143.9558   66.8992  217.8012 H   0  0  0  0  0  0  0  0  0  0  0  0
  143.3167   66.0032  219.2341 H   0  0  0  0  0  0  0  0  0  0  0  0
  142.9003   68.5086  219.2756 H   0  0  0  0  0  0  0  0  0  0  0  0
  143.7918   67.8558  220.7017 H   0  0  0  0  0  0  0  0  0  0  0  0
  142.9502   77.2235  219.3416 H   0  0  0  0  0  0  0  0  0  0  0  0
  141.4064   79.1160  220.2553 H   0  0  0  0  0  0  0  0  0  0  0  0
  139.7495   78.2816  222.1251 H   0  0  0  0  0  0  0  0  0  0  0  0
  144.6967   75.3047  219.9284 H   0  0  0  0  0  0  0  0  0  0  0  0
  1  2  2  0
  2  3  1  0
  3  4  2  0
  4  5  1  0
  5  6  1  0
  6  7  1  0
  7  8  1  0
  8  9  1  0
  9 10  1  0
  4 11  1  0
 11 12  1  0
 12 13  1  0
 13 14  1  0
 14 15  1  0
 15 16  2  0
 16 17  1  0
 17 18  2  0
 18 19  1  0
 14 20  2  0
 20 21  1  0
 21  2  1  0
 10  5  1  0
 21 12  2  0
 19 15  1  0
  6 22  1  0
  6 23  1  0
  7 24  1  0
  7 25  1  0
  9 26  1  0
  9 27  1  0
 10 28  1  0
 10 29  1  0
 16 30  1  0
 17 31  1  0
 18 32  1  0
 20 33  1  0
M  CHG  1  11  -1
M  END
>  <UniqueID>  (25) 
34

>  <SMILES>  (25) 
O=c1nc(N2CCOCC2)[n-]c2sc(-c3cccs3)cc12

>  <Energy>  (25) 
98.10198395118728

>  <Genealogy>  (25) 
O=c1nc(N2CCOCC2)[n-]c2sc(-c3cccs3)cc12 (protonated)
O=c1nc(N2CCOCC2)[n-]c2sc(-c3cccs3)cc12 (3D coordinates assigned)
O=c1nc(N2CCOCC2)[n-]c2sc(-c3cccs3)cc12 (nonaromatic ring conformer: 98.10198395118728 kcal/mol)

>  <smiles>  (25) 
O=c1nc(N2CCOCC2)[nH]c2sc(-c3cccs3)cc12

>  <score_type>  (25) 
oracle

>  <origin>  (25) 
autodockgpu

>  <m_score__min__energy>  (25) 
-5.9900000000000002

>  <m_primary>  (25) 
energy

>  <meeko>  (25) 
{"free_energy": -5.98, "intermolecular_energy": -6.58, "internal_energy": -0.43, "cluster_size": 16, "cluster_id": 1, "rank_in_cluster": 7}

>  <energy>  (25) 
-5.98

>  <cluster_rmsd>  (25) 
0.04

>  <rmsd>  (25) 
271.46

>  <cluster>  (25) 
1

$$$$
CFPRWASAHFAXRY-FWJFTDBINA-M
     RDKit          3D

 33 36  0  0  0  0  0  0  0  0999 V2000
  146.5200   73.3830  219.0320 O   0  0  0  0  0  0  0  0  0  0  0  0
  145.5750   72.6010  219.3190 C   0  0  0  0  0  0  0  0  0  0  0  0
  145.7350   71.2550  219.1830 N   0  0  0  0  0  0  0  0  0  0  0  0
  144.7300   70.3720  219.4850 C   0  0  0  0  0  0  0  0  0  0  0  0
  144.9370   68.9520  219.3290 N   0  0  0  0  0  0  0  0  0  0  0  0
  146.3040   68.4120  219.3150 C   0  0  0  0  0  0  0  0  0  0  0  0
  146.3370   67.0530  218.6100 C   0  0  0  0  0  0  0  0  0  0  0  0
  145.3530   66.1870  219.1370 O   0  0  0  0  0  0  0  0  0  0  0  0
  144.0700   66.6960  218.8360 C   0  0  0  0  0  0  0  0  0  0  0  0
  143.8240   68.0220  219.5620 C   0  0  0  0  0  0  0  0  0  0  0  0
  143.5300   70.8470  219.9370 N   0  0  0  0  0  0  0  0  0  0  0  0
  143.3590   72.1830  220.0760 C   0  0  0  0  0  0  0  0  0  0  0  0
  141.9830   72.9780  220.6090 S   0  0  0  0  0  0  0  0  0  0  0  0
  142.6620   74.5270  220.4610 C   0  0  0  0  0  0  0  0  0  0  0  0
  141.9620   75.7820  220.7820 C   0  0  0  0  0  0  0  0  0  0  0  0
  142.1840   77.0250  220.1980 C   0  0  0  0  0  0  0  0  0  0  0  0
  141.3600   78.0340  220.7130 C   0  0  0  0  0  0  0  0  0  0  0  0
  140.4910   77.5940  221.7010 C   0  0  0  0  0  0  0  0  0  0  0  0
  140.7470   75.9490  221.9330 S   0  0  0  0  0  0  0  0  0  0  0  0
  143.9760   74.4190  219.9900 C   0  0  0  0  0  0  0  0  0  0  0  0
  144.3530   73.0880  219.7790 C   0  0  0  0  0  0  0  0  0  0  0  0
  146.9643   69.1122  218.7823 H   0  0  0  0  0  0  0  0  0  0  0  0
  146.6459   68.2828  220.3525 H   0  0  0  0  0  0  0  0  0  0  0  0
  146.1495   67.1999  217.5361 H   0  0  0  0  0  0  0  0  0  0  0  0
  147.3261   66.5988  218.7691 H   0  0  0  0  0  0  0  0  0  0  0  0
  143.9930   66.8598  217.7510 H   0  0  0  0  0  0  0  0  0  0  0  0
  143.3159   65.9677  219.1691 H   0  0  0  0  0  0  0  0  0  0  0  0
  142.8925   68.4718  219.1879 H   0  0  0  0  0  0  0  0  0  0  0  0
  143.7447   67.8264  220.6416 H   0  0  0  0  0  0  0  0  0  0  0  0
  142.9320   77.1982  219.4103 H   0  0  0  0  0  0  0  0  0  0  0  0
  141.3983   79.0773  220.3666 H   0  0  0  0  0  0  0  0  0  0  0  0
  139.7602   78.2149  222.2399 H   0  0  0  0  0  0  0  0  0  0  0  0
  144.6354   75.2803  219.8071 H   0  0  0  0  0  0  0  0  0  0  0  0
  1  2  2  0
  2  3  1  0
  3  4  2  0
  4  5  1  0
  5  6  1  0
  6  7  1  0
  7  8  1  0
  8  9  1  0
  9 10  1  0
  4 11  1  0
 11 12  1  0
 12 13  1  0
 13 14  1  0
 14 15  1  0
 15 16  2  0
 16 17  1  0
 17 18  2  0
 18 19  1  0
 14 20  2  0
 20 21  1  0
 21  2  1  0
 10  5  1  0
 21 12  2  0
 19 15  1  0
  6 22  1  0
  6 23  1  0
  7 24  1  0
  7 25  1  0
  9 26  1  0
  9 27  1  0
 10 28  1  0
 10 29  1  0
 16 30  1  0
 17 31  1  0
 18 32  1  0
 20 33  1  0
M  CHG  1  11  -1
M  END
>  <UniqueID>  (26) 
34

>  <SMILES>  (26) 
O=c1nc(N2CCOCC2)[n-]c2sc(-c3cccs3)cc12

>  <Energy>  (26) 
98.10198395118728

>  <Genealogy>  (26) 
O=c1nc(N2CCOCC2)[n-]c2sc(-c3cccs3)cc12 (protonated)
O=c1nc(N2CCOCC2)[n-]c2sc(-c3cccs3)cc12 (3D coordinates assigned)
O=c1nc(N2CCOCC2)[n-]c2sc(-c3cccs3)cc12 (nonaromatic ring conformer: 98.10198395118728 kcal/mol)

>  <smiles>  (26) 
O=c1nc(N2CCOCC2)[nH]c2sc(-c3cccs3)cc12

>  <score_type>  (26) 
oracle

>  <origin>  (26) 
autodockgpu

>  <m_score__min__energy>  (26) 
-5.9900000000000002

>  <m_primary>  (26) 
energy

>  <meeko>  (26) 
{"free_energy": -5.98, "intermolecular_energy": -6.57, "internal_energy": -0.43, "cluster_size": 16, "cluster_id": 1, "rank_in_cluster": 8}

>  <energy>  (26) 
-5.98

>  <cluster_rmsd>  (26) 
0.04

>  <rmsd>  (26) 
271.42

>  <cluster>  (26) 
1

$$$$
CFPRWASAHFAXRY-FWJFTDBINA-M
     RDKit          3D

 33 36  0  0  0  0  0  0  0  0999 V2000
  146.8480   73.7840  220.1890 O   0  0  0  0  0  0  0  0  0  0  0  0
  145.9540   72.9510  219.8830 C   0  0  0  0  0  0  0  0  0  0  0  0
  146.2990   71.7160  219.4200 N   0  0  0  0  0  0  0  0  0  0  0  0
  145.3560   70.7820  219.0770 C   0  0  0  0  0  0  0  0  0  0  0  0
  145.7600   69.4840  218.5910 N   0  0  0  0  0  0  0  0  0  0  0  0
  146.3170   69.3530  217.2370 C   0  0  0  0  0  0  0  0  0  0  0  0
  146.1590   67.9180  216.7290 C   0  0  0  0  0  0  0  0  0  0  0  0
  146.6530   66.9910  217.6740 O   0  0  0  0  0  0  0  0  0  0  0  0
  145.8480   67.0310  218.8350 C   0  0  0  0  0  0  0  0  0  0  0  0
  145.9760   68.3840  219.5410 C   0  0  0  0  0  0  0  0  0  0  0  0
  144.0290   71.0890  219.2000 N   0  0  0  0  0  0  0  0  0  0  0  0
  143.6740   72.3110  219.6600 C   0  0  0  0  0  0  0  0  0  0  0  0
  142.1200   72.8960  219.8880 S   0  0  0  0  0  0  0  0  0  0  0  0
  142.6330   74.4130  220.4510 C   0  0  0  0  0  0  0  0  0  0  0  0
  141.7310   75.5020  220.8630 C   0  0  0  0  0  0  0  0  0  0  0  0
  141.8180   76.8370  220.4820 C   0  0  0  0  0  0  0  0  0  0  0  0
  140.8140   77.6390  221.0380 C   0  0  0  0  0  0  0  0  0  0  0  0
  139.9340   76.9440  221.8560 C   0  0  0  0  0  0  0  0  0  0  0  0
  140.4070   75.3310  221.8870 S   0  0  0  0  0  0  0  0  0  0  0  0
  144.0320   74.4610  220.4590 C   0  0  0  0  0  0  0  0  0  0  0  0
  144.6030   73.2650  220.0090 C   0  0  0  0  0  0  0  0  0  0  0  0
  145.7858   70.0375  216.5593 H   0  0  0  0  0  0  0  0  0  0  0  0
  147.3876   69.6040  217.2669 H   0  0  0  0  0  0  0  0  0  0  0  0
  145.0930   67.7151  216.5489 H   0  0  0  0  0  0  0  0  0  0  0  0
  146.7337   67.8099  215.7973 H   0  0  0  0  0  0  0  0  0  0  0  0
  144.7975   66.8708  218.5508 H   0  0  0  0  0  0  0  0  0  0  0  0
  146.1839   66.2416  219.5235 H   0  0  0  0  0  0  0  0  0  0  0  0
  145.2257   68.4460  220.3430 H   0  0  0  0  0  0  0  0  0  0  0  0
  146.9889   68.4711  219.9610 H   0  0  0  0  0  0  0  0  0  0  0  0
  142.5983   77.2243  219.8104 H   0  0  0  0  0  0  0  0  0  0  0  0
  140.7304   78.7186  220.8447 H   0  0  0  0  0  0  0  0  0  0  0  0
  139.0751   77.3744  222.3917 H   0  0  0  0  0  0  0  0  0  0  0  0
  144.6146   75.3366  220.7814 H   0  0  0  0  0  0  0  0  0  0  0  0
  1  2  2  0
  2  3  1  0
  3  4  2  0
  4  5  1  0
  5  6  1  0
  6  7  1  0
  7  8  1  0
  8  9  1  0
  9 10  1  0
  4 11  1  0
 11 12  1  0
 12 13  1  0
 13 14  1  0
 14 15  1  0
 15 16  2  0
 16 17  1  0
 17 18  2  0
 18 19  1  0
 14 20  2  0
 20 21  1  0
 21  2  1  0
 10  5  1  0
 21 12  2  0
 19 15  1  0
  6 22  1  0
  6 23  1  0
  7 24  1  0
  7 25  1  0
  9 26  1  0
  9 27  1  0
 10 28  1  0
 10 29  1  0
 16 30  1  0
 17 31  1  0
 18 32  1  0
 20 33  1  0
M  CHG  1  11  -1
M  END
>  <UniqueID>  (27) 
34

>  <SMILES>  (27) 
O=c1nc(N2CCOCC2)[n-]c2sc(-c3cccs3)cc12

>  <Energy>  (27) 
98.10198395118728

>  <Genealogy>  (27) 
O=c1nc(N2CCOCC2)[n-]c2sc(-c3cccs3)cc12 (protonated)
O=c1nc(N2CCOCC2)[n-]c2sc(-c3cccs3)cc12 (3D coordinates assigned)
O=c1nc(N2CCOCC2)[n-]c2sc(-c3cccs3)cc12 (nonaromatic ring conformer: 98.10198395118728 kcal/mol)

>  <smiles>  (27) 
O=c1nc(N2CCOCC2)[nH]c2sc(-c3cccs3)cc12

>  <score_type>  (27) 
oracle

>  <origin>  (27) 
autodockgpu

>  <m_score__min__energy>  (27) 
-5.9900000000000002

>  <m_primary>  (27) 
energy

>  <meeko>  (27) 
{"free_energy": -5.87, "intermolecular_energy": -6.47, "internal_energy": -0.42, "cluster_size": 16, "cluster_id": 1, "rank_in_cluster": 16}

>  <energy>  (27) 
-5.98

>  <cluster_rmsd>  (27) 
0.06

>  <rmsd>  (27) 
271.44

>  <cluster>  (27) 
1

$$$$
CFPRWASAHFAXRY-FWJFTDBINA-M
     RDKit          3D

 33 36  0  0  0  0  0  0  0  0999 V2000
  146.5510   73.3860  219.1510 O   0  0  0  0  0  0  0  0  0  0  0  0
  145.5940   72.6080  219.4080 C   0  0  0  0  0  0  0  0  0  0  0  0
  145.7520   71.2610  219.2760 N   0  0  0  0  0  0  0  0  0  0  0  0
  144.7340   70.3830  219.5470 C   0  0  0  0  0  0  0  0  0  0  0  0
  144.9400   68.9620  219.3950 N   0  0  0  0  0  0  0  0  0  0  0  0
  146.3070   68.4240  219.3420 C   0  0  0  0  0  0  0  0  0  0  0  0
  146.3200   67.0600  218.6480 C   0  0  0  0  0  0  0  0  0  0  0  0
  145.3560   66.1960  219.2140 O   0  0  0  0  0  0  0  0  0  0  0  0
  144.0620   66.7000  218.9500 C   0  0  0  0  0  0  0  0  0  0  0  0
  143.8370   68.0310  219.6730 C   0  0  0  0  0  0  0  0  0  0  0  0
  143.5230   70.8630  219.9620 N   0  0  0  0  0  0  0  0  0  0  0  0
  143.3550   72.1990  220.0980 C   0  0  0  0  0  0  0  0  0  0  0  0
  141.9670   73.0000  220.5890 S   0  0  0  0  0  0  0  0  0  0  0  0
  142.6570   74.5460  220.4630 C   0  0  0  0  0  0  0  0  0  0  0  0
  141.9530   75.8040  220.7630 C   0  0  0  0  0  0  0  0  0  0  0  0
  142.1690   77.0380  220.1570 C   0  0  0  0  0  0  0  0  0  0  0  0
  141.3430   78.0520  220.6570 C   0  0  0  0  0  0  0  0  0  0  0  0
  140.4770   77.6270  221.6540 C   0  0  0  0  0  0  0  0  0  0  0  0
  140.7390   75.9870  221.9140 S   0  0  0  0  0  0  0  0  0  0  0  0
  143.9840   74.4320  220.0320 C   0  0  0  0  0  0  0  0  0  0  0  0
  144.3610   73.1000  219.8310 C   0  0  0  0  0  0  0  0  0  0  0  0
  146.9487   69.1208  218.7828 H   0  0  0  0  0  0  0  0  0  0  0  0
  146.6820   68.3040  220.3691 H   0  0  0  0  0  0  0  0  0  0  0  0
  146.0970   67.1976  217.5797 H   0  0  0  0  0  0  0  0  0  0  0  0
  147.3149   66.6093  218.7784 H   0  0  0  0  0  0  0  0  0  0  0  0
  143.9497   66.8549  217.8668 H   0  0  0  0  0  0  0  0  0  0  0  0
  143.3205   65.9729  219.3126 H   0  0  0  0  0  0  0  0  0  0  0  0
  142.8923   68.4756  219.3268 H   0  0  0  0  0  0  0  0  0  0  0  0
  143.7943   67.8441  220.7562 H   0  0  0  0  0  0  0  0  0  0  0  0
  142.9142   77.2005  219.3644 H   0  0  0  0  0  0  0  0  0  0  0  0
  141.3775   79.0895  220.2930 H   0  0  0  0  0  0  0  0  0  0  0  0
  139.7451   78.2549  222.1832 H   0  0  0  0  0  0  0  0  0  0  0  0
  144.6527   75.2903  219.8702 H   0  0  0  0  0  0  0  0  0  0  0  0
  1  2  2  0
  2  3  1  0
  3  4  2  0
  4  5  1  0
  5  6  1  0
  6  7  1  0
  7  8  1  0
  8  9  1  0
  9 10  1  0
  4 11  1  0
 11 12  1  0
 12 13  1  0
 13 14  1  0
 14 15  1  0
 15 16  2  0
 16 17  1  0
 17 18  2  0
 18 19  1  0
 14 20  2  0
 20 21  1  0
 21  2  1  0
 10  5  1  0
 21 12  2  0
 19 15  1  0
  6 22  1  0
  6 23  1  0
  7 24  1  0
  7 25  1  0
  9 26  1  0
  9 27  1  0
 10 28  1  0
 10 29  1  0
 16 30  1  0
 17 31  1  0
 18 32  1  0
 20 33  1  0
M  CHG  1  11  -1
M  END
>  <UniqueID>  (28) 
34

>  <SMILES>  (28) 
O=c1nc(N2CCOCC2)[n-]c2sc(-c3cccs3)cc12

>  <Energy>  (28) 
98.10198395118728

>  <Genealogy>  (28) 
O=c1nc(N2CCOCC2)[n-]c2sc(-c3cccs3)cc12 (protonated)
O=c1nc(N2CCOCC2)[n-]c2sc(-c3cccs3)cc12 (3D coordinates assigned)
O=c1nc(N2CCOCC2)[n-]c2sc(-c3cccs3)cc12 (nonaromatic ring conformer: 98.10198395118728 kcal/mol)

>  <smiles>  (28) 
O=c1nc(N2CCOCC2)[nH]c2sc(-c3cccs3)cc12

>  <score_type>  (28) 
oracle

>  <origin>  (28) 
autodockgpu

>  <m_score__min__energy>  (28) 
-5.9900000000000002

>  <m_primary>  (28) 
energy

>  <meeko>  (28) 
{"free_energy": -5.99, "intermolecular_energy": -6.58, "internal_energy": -0.43, "cluster_size": 16, "cluster_id": 1, "rank_in_cluster": 3}

>  <energy>  (28) 
-5.98

>  <cluster_rmsd>  (28) 
0.06

>  <rmsd>  (28) 
271.42

>  <cluster>  (28) 
1

$$$$
CFPRWASAHFAXRY-FWJFTDBINA-M
     RDKit          3D

 33 36  0  0  0  0  0  0  0  0999 V2000
  139.7990   73.5390  222.3410 O   0  0  0  0  0  0  0  0  0  0  0  0
  140.6330   74.2830  221.7580 C   0  0  0  0  0  0  0  0  0  0  0  0
  141.6850   73.7360  221.0860 N   0  0  0  0  0  0  0  0  0  0  0  0
  142.6130   74.5120  220.4410 C   0  0  0  0  0  0  0  0  0  0  0  0
  143.7140   73.8960  219.7390 N   0  0  0  0  0  0  0  0  0  0  0  0
  143.8930   74.1450  218.3010 C   0  0  0  0  0  0  0  0  0  0  0  0
  144.7170   73.0240  217.6610 C   0  0  0  0  0  0  0  0  0  0  0  0
  145.9090   72.7970  218.3850 O   0  0  0  0  0  0  0  0  0  0  0  0
  145.5910   72.2960  219.6670 C   0  0  0  0  0  0  0  0  0  0  0  0
  144.8480   73.3480  220.4960 C   0  0  0  0  0  0  0  0  0  0  0  0
  142.4880   75.8730  220.4660 N   0  0  0  0  0  0  0  0  0  0  0  0
  141.4470   76.4280  221.1300 C   0  0  0  0  0  0  0  0  0  0  0  0
  141.1010   78.0590  221.2890 S   0  0  0  0  0  0  0  0  0  0  0  0
  139.7050   77.8070  222.2220 C   0  0  0  0  0  0  0  0  0  0  0  0
  138.8430   78.8790  222.7460 C   0  0  0  0  0  0  0  0  0  0  0  0
  137.4530   78.9120  222.7160 C   0  0  0  0  0  0  0  0  0  0  0  0
  136.9130   80.0680  223.2940 C   0  0  0  0  0  0  0  0  0  0  0  0
  137.8690   80.9470  223.7800 C   0  0  0  0  0  0  0  0  0  0  0  0
  139.3880   80.2860  223.4910 S   0  0  0  0  0  0  0  0  0  0  0  0
  139.5110   76.4330  222.4100 C   0  0  0  0  0  0  0  0  0  0  0  0
  140.5030   75.6700  221.7860 C   0  0  0  0  0  0  0  0  0  0  0  0
  142.9067   74.1913  217.8161 H   0  0  0  0  0  0  0  0  0  0  0  0
  144.4258   75.0982  218.1686 H   0  0  0  0  0  0  0  0  0  0  0  0
  144.1206   72.0998  217.6506 H   0  0  0  0  0  0  0  0  0  0  0  0
  144.9805   73.3233  216.6358 H   0  0  0  0  0  0  0  0  0  0  0  0
  144.9528   71.4067  219.5581 H   0  0  0  0  0  0  0  0  0  0  0  0
  146.5261   72.0366  220.1849 H   0  0  0  0  0  0  0  0  0  0  0  0
  144.4747   72.8826  221.4202 H   0  0  0  0  0  0  0  0  0  0  0  0
  145.5429   74.1662  220.7361 H   0  0  0  0  0  0  0  0  0  0  0  0
  136.8385   78.1098  222.2814 H   0  0  0  0  0  0  0  0  0  0  0  0
  135.8318   80.2605  223.3565 H   0  0  0  0  0  0  0  0  0  0  0  0
  137.6683   81.9110  224.2703 H   0  0  0  0  0  0  0  0  0  0  0  0
  138.6753   76.0037  222.9821 H   0  0  0  0  0  0  0  0  0  0  0  0
  1  2  2  0
  2  3  1  0
  3  4  2  0
  4  5  1  0
  5  6  1  0
  6  7  1  0
  7  8  1  0
  8  9  1  0
  9 10  1  0
  4 11  1  0
 11 12  1  0
 12 13  1  0
 13 14  1  0
 14 15  1  0
 15 16  2  0
 16 17  1  0
 17 18  2  0
 18 19  1  0
 14 20  2  0
 20 21  1  0
 21  2  1  0
 10  5  1  0
 21 12  2  0
 19 15  1  0
  6 22  1  0
  6 23  1  0
  7 24  1  0
  7 25  1  0
  9 26  1  0
  9 27  1  0
 10 28  1  0
 10 29  1  0
 16 30  1  0
 17 31  1  0
 18 32  1  0
 20 33  1  0
M  CHG  1  11  -1
M  END
>  <UniqueID>  (29) 
34

>  <SMILES>  (29) 
O=c1nc(N2CCOCC2)[n-]c2sc(-c3cccs3)cc12

>  <Energy>  (29) 
98.10198395118728

>  <Genealogy>  (29) 
O=c1nc(N2CCOCC2)[n-]c2sc(-c3cccs3)cc12 (protonated)
O=c1nc(N2CCOCC2)[n-]c2sc(-c3cccs3)cc12 (3D coordinates assigned)
O=c1nc(N2CCOCC2)[n-]c2sc(-c3cccs3)cc12 (nonaromatic ring conformer: 98.10198395118728 kcal/mol)

>  <smiles>  (29) 
O=c1nc(N2CCOCC2)[nH]c2sc(-c3cccs3)cc12

>  <score_type>  (29) 
oracle

>  <origin>  (29) 
autodockgpu

>  <m_score__min__energy>  (29) 
-5.9900000000000002

>  <m_primary>  (29) 
energy

>  <meeko>  (29) 
{"free_energy": -5.68, "intermolecular_energy": -6.28, "internal_energy": -0.42, "cluster_size": 4, "cluster_id": 2, "rank_in_cluster": 4}

>  <energy>  (29) 
-5.97

>  <cluster_rmsd>  (29) 
0.12

>  <rmsd>  (29) 
271.42

>  <cluster>  (29) 
1

$$$$
CFPRWASAHFAXRY-FWJFTDBINA-M
     RDKit          3D

 33 36  0  0  0  0  0  0  0  0999 V2000
  146.5720   73.3900  219.2580 O   0  0  0  0  0  0  0  0  0  0  0  0
  145.6070   72.6110  219.4810 C   0  0  0  0  0  0  0  0  0  0  0  0
  145.7660   71.2650  219.3370 N   0  0  0  0  0  0  0  0  0  0  0  0
  144.7410   70.3860  219.5700 C   0  0  0  0  0  0  0  0  0  0  0  0
  144.9480   68.9660  219.4070 N   0  0  0  0  0  0  0  0  0  0  0  0
  146.3150   68.4310  219.3490 C   0  0  0  0  0  0  0  0  0  0  0  0
  146.3290   67.0720  218.6430 C   0  0  0  0  0  0  0  0  0  0  0  0
  145.3660   66.2020  219.2020 O   0  0  0  0  0  0  0  0  0  0  0  0
  144.0720   66.7070  218.9430 C   0  0  0  0  0  0  0  0  0  0  0  0
  143.8460   68.0320  219.6770 C   0  0  0  0  0  0  0  0  0  0  0  0
  143.5200   70.8630  219.9600 N   0  0  0  0  0  0  0  0  0  0  0  0
  143.3500   72.1980  220.1080 C   0  0  0  0  0  0  0  0  0  0  0  0
  141.9520   72.9960  220.5730 S   0  0  0  0  0  0  0  0  0  0  0  0
  142.6470   74.5410  220.4840 C   0  0  0  0  0  0  0  0  0  0  0  0
  141.9380   75.7970  220.7810 C   0  0  0  0  0  0  0  0  0  0  0  0
  142.1450   77.0290  220.1690 C   0  0  0  0  0  0  0  0  0  0  0  0
  141.3160   78.0420  220.6670 C   0  0  0  0  0  0  0  0  0  0  0  0
  140.4560   77.6170  221.6690 C   0  0  0  0  0  0  0  0  0  0  0  0
  140.7270   75.9790  221.9350 S   0  0  0  0  0  0  0  0  0  0  0  0
  143.9850   74.4300  220.0860 C   0  0  0  0  0  0  0  0  0  0  0  0
  144.3650   73.1000  219.8780 C   0  0  0  0  0  0  0  0  0  0  0  0
  146.9555   69.1333  218.7953 H   0  0  0  0  0  0  0  0  0  0  0  0
  146.6911   68.3032  220.3748 H   0  0  0  0  0  0  0  0  0  0  0  0
  146.1054   67.2184  217.5760 H   0  0  0  0  0  0  0  0  0  0  0  0
  147.3244   66.6212  218.7693 H   0  0  0  0  0  0  0  0  0  0  0  0
  143.9591   66.8707  217.8611 H   0  0  0  0  0  0  0  0  0  0  0  0
  143.3314   65.9763  219.3002 H   0  0  0  0  0  0  0  0  0  0  0  0
  142.9010   68.4787  219.3343 H   0  0  0  0  0  0  0  0  0  0  0  0
  143.8034   67.8361  220.7586 H   0  0  0  0  0  0  0  0  0  0  0  0
  142.8864   77.1915  219.3728 H   0  0  0  0  0  0  0  0  0  0  0  0
  141.3442   79.0779  220.2980 H   0  0  0  0  0  0  0  0  0  0  0  0
  139.7230   78.2436  222.1983 H   0  0  0  0  0  0  0  0  0  0  0  0
  144.6590   75.2890  219.9524 H   0  0  0  0  0  0  0  0  0  0  0  0
  1  2  2  0
  2  3  1  0
  3  4  2  0
  4  5  1  0
  5  6  1  0
  6  7  1  0
  7  8  1  0
  8  9  1  0
  9 10  1  0
  4 11  1  0
 11 12  1  0
 12 13  1  0
 13 14  1  0
 14 15  1  0
 15 16  2  0
 16 17  1  0
 17 18  2  0
 18 19  1  0
 14 20  2  0
 20 21  1  0
 21  2  1  0
 10  5  1  0
 21 12  2  0
 19 15  1  0
  6 22  1  0
  6 23  1  0
  7 24  1  0
  7 25  1  0
  9 26  1  0
  9 27  1  0
 10 28  1  0
 10 29  1  0
 16 30  1  0
 17 31  1  0
 18 32  1  0
 20 33  1  0
M  CHG  1  11  -1
M  END
>  <UniqueID>  (30) 
34

>  <SMILES>  (30) 
O=c1nc(N2CCOCC2)[n-]c2sc(-c3cccs3)cc12

>  <Energy>  (30) 
98.10198395118728

>  <Genealogy>  (30) 
O=c1nc(N2CCOCC2)[n-]c2sc(-c3cccs3)cc12 (protonated)
O=c1nc(N2CCOCC2)[n-]c2sc(-c3cccs3)cc12 (3D coordinates assigned)
O=c1nc(N2CCOCC2)[n-]c2sc(-c3cccs3)cc12 (nonaromatic ring conformer: 98.10198395118728 kcal/mol)

>  <smiles>  (30) 
O=c1nc(N2CCOCC2)[nH]c2sc(-c3cccs3)cc12

>  <score_type>  (30) 
oracle

>  <origin>  (30) 
autodockgpu

>  <m_score__min__energy>  (30) 
-5.9900000000000002

>  <m_primary>  (30) 
energy

>  <meeko>  (30) 
{"free_energy": -5.98, "intermolecular_energy": -6.58, "internal_energy": -0.43, "cluster_size": 16, "cluster_id": 1, "rank_in_cluster": 5}

>  <energy>  (30) 
-5.97

>  <cluster_rmsd>  (30) 
0.14

>  <rmsd>  (30) 
271.39

>  <cluster>  (30) 
1

$$$$
CFPRWASAHFAXRY-FWJFTDBINA-M
     RDKit          3D

 33 36  0  0  0  0  0  0  0  0999 V2000
  146.5520   73.3900  219.1360 O   0  0  0  0  0  0  0  0  0  0  0  0
  145.5970   72.6110  219.4000 C   0  0  0  0  0  0  0  0  0  0  0  0
  145.7560   71.2640  219.2690 N   0  0  0  0  0  0  0  0  0  0  0  0
  144.7410   70.3850  219.5470 C   0  0  0  0  0  0  0  0  0  0  0  0
  144.9480   68.9640  219.3960 N   0  0  0  0  0  0  0  0  0  0  0  0
  146.3160   68.4280  219.3410 C   0  0  0  0  0  0  0  0  0  0  0  0
  146.3290   67.0630  218.6470 C   0  0  0  0  0  0  0  0  0  0  0  0
  145.3660   66.1990  219.2150 O   0  0  0  0  0  0  0  0  0  0  0  0
  144.0720   66.7010  218.9530 C   0  0  0  0  0  0  0  0  0  0  0  0
  143.8470   68.0330  219.6750 C   0  0  0  0  0  0  0  0  0  0  0  0
  143.5320   70.8640  219.9690 N   0  0  0  0  0  0  0  0  0  0  0  0
  143.3620   72.2000  220.1050 C   0  0  0  0  0  0  0  0  0  0  0  0
  141.9770   72.9990  220.6040 S   0  0  0  0  0  0  0  0  0  0  0  0
  142.6640   74.5460  220.4720 C   0  0  0  0  0  0  0  0  0  0  0  0
  141.9600   75.8040  220.7750 C   0  0  0  0  0  0  0  0  0  0  0  0
  142.1780   77.0390  220.1730 C   0  0  0  0  0  0  0  0  0  0  0  0
  141.3510   78.0520  220.6750 C   0  0  0  0  0  0  0  0  0  0  0  0
  140.4840   77.6240  221.6700 C   0  0  0  0  0  0  0  0  0  0  0  0
  140.7440   75.9830  221.9250 S   0  0  0  0  0  0  0  0  0  0  0  0
  143.9880   74.4340  220.0320 C   0  0  0  0  0  0  0  0  0  0  0  0
  144.3660   73.1020  219.8310 C   0  0  0  0  0  0  0  0  0  0  0  0
  146.9559   69.1254  218.7804 H   0  0  0  0  0  0  0  0  0  0  0  0
  146.6934   68.3092  220.3674 H   0  0  0  0  0  0  0  0  0  0  0  0
  146.1045   67.2000  217.5789 H   0  0  0  0  0  0  0  0  0  0  0  0
  147.3244   66.6128  218.7759 H   0  0  0  0  0  0  0  0  0  0  0  0
  143.9575   66.8545  217.8698 H   0  0  0  0  0  0  0  0  0  0  0  0
  143.3319   65.9736  219.3178 H   0  0  0  0  0  0  0  0  0  0  0  0
  142.9018   68.4767  219.3290 H   0  0  0  0  0  0  0  0  0  0  0  0
  143.8056   67.8469  220.7583 H   0  0  0  0  0  0  0  0  0  0  0  0
  142.9247   77.2035  219.3822 H   0  0  0  0  0  0  0  0  0  0  0  0
  141.3857   79.0904  220.3139 H   0  0  0  0  0  0  0  0  0  0  0  0
  139.7522   78.2508  222.2008 H   0  0  0  0  0  0  0  0  0  0  0  0
  144.6539   75.2933  219.8638 H   0  0  0  0  0  0  0  0  0  0  0  0
  1  2  2  0
  2  3  1  0
  3  4  2  0
  4  5  1  0
  5  6  1  0
  6  7  1  0
  7  8  1  0
  8  9  1  0
  9 10  1  0
  4 11  1  0
 11 12  1  0
 12 13  1  0
 13 14  1  0
 14 15  1  0
 15 16  2  0
 16 17  1  0
 17 18  2  0
 18 19  1  0
 14 20  2  0
 20 21  1  0
 21  2  1  0
 10  5  1  0
 21 12  2  0
 19 15  1  0
  6 22  1  0
  6 23  1  0
  7 24  1  0
  7 25  1  0
  9 26  1  0
  9 27  1  0
 10 28  1  0
 10 29  1  0
 16 30  1  0
 17 31  1  0
 18 32  1  0
 20 33  1  0
M  CHG  1  11  -1
M  END
>  <UniqueID>  (31) 
34

>  <SMILES>  (31) 
O=c1nc(N2CCOCC2)[n-]c2sc(-c3cccs3)cc12

>  <Energy>  (31) 
98.10198395118728

>  <Genealogy>  (31) 
O=c1nc(N2CCOCC2)[n-]c2sc(-c3cccs3)cc12 (protonated)
O=c1nc(N2CCOCC2)[n-]c2sc(-c3cccs3)cc12 (3D coordinates assigned)
O=c1nc(N2CCOCC2)[n-]c2sc(-c3cccs3)cc12 (nonaromatic ring conformer: 98.10198395118728 kcal/mol)

>  <smiles>  (31) 
O=c1nc(N2CCOCC2)[nH]c2sc(-c3cccs3)cc12

>  <score_type>  (31) 
oracle

>  <origin>  (31) 
autodockgpu

>  <m_score__min__energy>  (31) 
-5.9900000000000002

>  <m_primary>  (31) 
energy

>  <meeko>  (31) 
{"free_energy": -5.99, "intermolecular_energy": -6.59, "internal_energy": -0.43, "cluster_size": 16, "cluster_id": 1, "rank_in_cluster": 1}

>  <energy>  (31) 
-5.96

>  <cluster_rmsd>  (31) 
0.7

>  <rmsd>  (31) 
271.32

>  <cluster>  (31) 
1

$$$$
CFPRWASAHFAXRY-FWJFTDBINA-M
     RDKit          3D

 33 36  0  0  0  0  0  0  0  0999 V2000
  146.5370   73.3930  219.0400 O   0  0  0  0  0  0  0  0  0  0  0  0
  145.5890   72.6160  219.3330 C   0  0  0  0  0  0  0  0  0  0  0  0
  145.7480   71.2670  219.2150 N   0  0  0  0  0  0  0  0  0  0  0  0
  144.7400   70.3910  219.5250 C   0  0  0  0  0  0  0  0  0  0  0  0
  144.9470   68.9680  219.3870 N   0  0  0  0  0  0  0  0  0  0  0  0
  146.3140   68.4290  219.3540 C   0  0  0  0  0  0  0  0  0  0  0  0
  146.3340   67.0590  218.6720 C   0  0  0  0  0  0  0  0  0  0  0  0
  145.3620   66.2010  219.2330 O   0  0  0  0  0  0  0  0  0  0  0  0
  144.0720   66.7030  218.9500 C   0  0  0  0  0  0  0  0  0  0  0  0
  143.8400   68.0410  219.6590 C   0  0  0  0  0  0  0  0  0  0  0  0
  143.5390   70.8730  219.9650 N   0  0  0  0  0  0  0  0  0  0  0  0
  143.3700   72.2100  220.0870 C   0  0  0  0  0  0  0  0  0  0  0  0
  141.9930   73.0140  220.6040 S   0  0  0  0  0  0  0  0  0  0  0  0
  142.6750   74.5600  220.4390 C   0  0  0  0  0  0  0  0  0  0  0  0
  141.9750   75.8200  220.7410 C   0  0  0  0  0  0  0  0  0  0  0  0
  142.1980   77.0540  220.1390 C   0  0  0  0  0  0  0  0  0  0  0  0
  141.3750   78.0710  220.6390 C   0  0  0  0  0  0  0  0  0  0  0  0
  140.5040   77.6460  221.6320 C   0  0  0  0  0  0  0  0  0  0  0  0
  140.7580   76.0040  221.8880 S   0  0  0  0  0  0  0  0  0  0  0  0
  143.9910   74.4440  219.9750 C   0  0  0  0  0  0  0  0  0  0  0  0
  144.3660   73.1100  219.7820 C   0  0  0  0  0  0  0  0  0  0  0  0
  146.9624   69.1206  218.7960 H   0  0  0  0  0  0  0  0  0  0  0  0
  146.6774   68.3177  220.3863 H   0  0  0  0  0  0  0  0  0  0  0  0
  146.1247   67.1876  217.5998 H   0  0  0  0  0  0  0  0  0  0  0  0
  147.3266   66.6083  218.8190 H   0  0  0  0  0  0  0  0  0  0  0  0
  143.9720   66.8484  217.8642 H   0  0  0  0  0  0  0  0  0  0  0  0
  143.3258   65.9796  219.3104 H   0  0  0  0  0  0  0  0  0  0  0  0
  142.9003   68.4838  219.2973 H   0  0  0  0  0  0  0  0  0  0  0  0
  143.7839   67.8633  220.7431 H   0  0  0  0  0  0  0  0  0  0  0  0
  142.9462   77.2151  219.3489 H   0  0  0  0  0  0  0  0  0  0  0  0
  141.4153   79.1094  220.2783 H   0  0  0  0  0  0  0  0  0  0  0  0
  139.7730   78.2753  222.1608 H   0  0  0  0  0  0  0  0  0  0  0  0
  144.6528   75.3017  219.7845 H   0  0  0  0  0  0  0  0  0  0  0  0
  1  2  2  0
  2  3  1  0
  3  4  2  0
  4  5  1  0
  5  6  1  0
  6  7  1  0
  7  8  1  0
  8  9  1  0
  9 10  1  0
  4 11  1  0
 11 12  1  0
 12 13  1  0
 13 14  1  0
 14 15  1  0
 15 16  2  0
 16 17  1  0
 17 18  2  0
 18 19  1  0
 14 20  2  0
 20 21  1  0
 21  2  1  0
 10  5  1  0
 21 12  2  0
 19 15  1  0
  6 22  1  0
  6 23  1  0
  7 24  1  0
  7 25  1  0
  9 26  1  0
  9 27  1  0
 10 28  1  0
 10 29  1  0
 16 30  1  0
 17 31  1  0
 18 32  1  0
 20 33  1  0
M  CHG  1  11  -1
M  END
>  <UniqueID>  (32) 
34

>  <SMILES>  (32) 
O=c1nc(N2CCOCC2)[n-]c2sc(-c3cccs3)cc12

>  <Energy>  (32) 
98.10198395118728

>  <Genealogy>  (32) 
O=c1nc(N2CCOCC2)[n-]c2sc(-c3cccs3)cc12 (protonated)
O=c1nc(N2CCOCC2)[n-]c2sc(-c3cccs3)cc12 (3D coordinates assigned)
O=c1nc(N2CCOCC2)[n-]c2sc(-c3cccs3)cc12 (nonaromatic ring conformer: 98.10198395118728 kcal/mol)

>  <smiles>  (32) 
O=c1nc(N2CCOCC2)[nH]c2sc(-c3cccs3)cc12

>  <score_type>  (32) 
oracle

>  <origin>  (32) 
autodockgpu

>  <m_score__min__energy>  (32) 
-5.9900000000000002

>  <m_primary>  (32) 
energy

>  <meeko>  (32) 
{"free_energy": -5.99, "intermolecular_energy": -6.58, "internal_energy": -0.43, "cluster_size": 16, "cluster_id": 1, "rank_in_cluster": 4}

>  <energy>  (32) 
-5.95

>  <cluster_rmsd>  (32) 
0.68

>  <rmsd>  (32) 
271.42

>  <cluster>  (32) 
1

$$$$
CFPRWASAHFAXRY-FWJFTDBINA-M
     RDKit          3D

 33 36  0  0  0  0  0  0  0  0999 V2000
  146.5270   73.3760  219.2730 O   0  0  0  0  0  0  0  0  0  0  0  0
  145.5640   72.5870  219.4680 C   0  0  0  0  0  0  0  0  0  0  0  0
  145.7300   71.2470  219.2850 N   0  0  0  0  0  0  0  0  0  0  0  0
  144.7070   70.3570  219.4870 C   0  0  0  0  0  0  0  0  0  0  0  0
  144.9210   68.9440  219.2830 N   0  0  0  0  0  0  0  0  0  0  0  0
  146.2830   68.3950  219.3520 C   0  0  0  0  0  0  0  0  0  0  0  0
  146.3660   67.0690  218.5920 C   0  0  0  0  0  0  0  0  0  0  0  0
  145.3410   66.1870  219.0000 O   0  0  0  0  0  0  0  0  0  0  0  0
  144.0870   66.7180  218.6220 C   0  0  0  0  0  0  0  0  0  0  0  0
  143.7900   68.0120  219.3860 C   0  0  0  0  0  0  0  0  0  0  0  0
  143.4820   70.8170  219.8840 N   0  0  0  0  0  0  0  0  0  0  0  0
  143.3060   72.1460  220.0700 C   0  0  0  0  0  0  0  0  0  0  0  0
  141.9010   72.9240  220.5510 S   0  0  0  0  0  0  0  0  0  0  0  0
  142.5910   74.4750  220.5110 C   0  0  0  0  0  0  0  0  0  0  0  0
  141.8740   75.7180  220.8420 C   0  0  0  0  0  0  0  0  0  0  0  0
  140.9930   75.9080  221.9020 C   0  0  0  0  0  0  0  0  0  0  0  0
  140.4660   77.2040  221.9590 C   0  0  0  0  0  0  0  0  0  0  0  0
  140.9250   78.0380  220.9500 C   0  0  0  0  0  0  0  0  0  0  0  0
  141.9890   77.1620  219.9870 S   0  0  0  0  0  0  0  0  0  0  0  0
  143.9310   74.3810  220.1170 C   0  0  0  0  0  0  0  0  0  0  0  0
  144.3170   73.0590  219.8730 C   0  0  0  0  0  0  0  0  0  0  0  0
  146.9858   69.1132  218.9046 H   0  0  0  0  0  0  0  0  0  0  0  0
  146.5419   68.2174  220.4063 H   0  0  0  0  0  0  0  0  0  0  0  0
  146.2642   67.2650  217.5144 H   0  0  0  0  0  0  0  0  0  0  0  0
  147.3378   66.6012  218.8083 H   0  0  0  0  0  0  0  0  0  0  0  0
  144.0963   66.9307  217.5428 H   0  0  0  0  0  0  0  0  0  0  0  0
  143.3062   65.9810  218.8610 H   0  0  0  0  0  0  0  0  0  0  0  0
  142.8921   68.4847  218.9613 H   0  0  0  0  0  0  0  0  0  0  0  0
  143.6263   67.7685  220.4461 H   0  0  0  0  0  0  0  0  0  0  0  0
  140.7360   75.1185  222.6236 H   0  0  0  0  0  0  0  0  0  0  0  0
  139.7544   77.5303  222.7318 H   0  0  0  0  0  0  0  0  0  0  0  0
  140.6417   79.0909  220.8049 H   0  0  0  0  0  0  0  0  0  0  0  0
  144.6022   75.2461  220.0116 H   0  0  0  0  0  0  0  0  0  0  0  0
  1  2  2  0
  2  3  1  0
  3  4  2  0
  4  5  1  0
  5  6  1  0
  6  7  1  0
  7  8  1  0
  8  9  1  0
  9 10  1  0
  4 11  1  0
 11 12  1  0
 12 13  1  0
 13 14  1  0
 14 15  1  0
 15 16  2  0
 16 17  1  0
 17 18  2  0
 18 19  1  0
 14 20  2  0
 20 21  1  0
 21  2  1  0
 10  5  1  0
 21 12  2  0
 19 15  1  0
  6 22  1  0
  6 23  1  0
  7 24  1  0
  7 25  1  0
  9 26  1  0
  9 27  1  0
 10 28  1  0
 10 29  1  0
 16 30  1  0
 17 31  1  0
 18 32  1  0
 20 33  1  0
M  CHG  1  11  -1
M  END
>  <UniqueID>  (33) 
34

>  <SMILES>  (33) 
O=c1nc(N2CCOCC2)[n-]c2sc(-c3cccs3)cc12

>  <Energy>  (33) 
98.10198395118728

>  <Genealogy>  (33) 
O=c1nc(N2CCOCC2)[n-]c2sc(-c3cccs3)cc12 (protonated)
O=c1nc(N2CCOCC2)[n-]c2sc(-c3cccs3)cc12 (3D coordinates assigned)
O=c1nc(N2CCOCC2)[n-]c2sc(-c3cccs3)cc12 (nonaromatic ring conformer: 98.10198395118728 kcal/mol)

>  <smiles>  (33) 
O=c1nc(N2CCOCC2)[nH]c2sc(-c3cccs3)cc12

>  <score_type>  (33) 
oracle

>  <origin>  (33) 
autodockgpu

>  <m_score__min__energy>  (33) 
-5.9900000000000002

>  <m_primary>  (33) 
energy

>  <meeko>  (33) 
{"free_energy": -5.95, "intermolecular_energy": -6.54, "internal_energy": -0.43, "cluster_size": 16, "cluster_id": 1, "rank_in_cluster": 14}

>  <energy>  (33) 
-5.95

>  <cluster_rmsd>  (33) 
0.69

>  <rmsd>  (33) 
271.4

>  <cluster>  (33) 
1

$$$$
CFPRWASAHFAXRY-FWJFTDBINA-M
     RDKit          3D

 33 36  0  0  0  0  0  0  0  0999 V2000
  139.8670   73.6130  222.3370 O   0  0  0  0  0  0  0  0  0  0  0  0
  140.6850   74.3730  221.7540 C   0  0  0  0  0  0  0  0  0  0  0  0
  141.7500   73.8480  221.0840 N   0  0  0  0  0  0  0  0  0  0  0  0
  142.6610   74.6420  220.4380 C   0  0  0  0  0  0  0  0  0  0  0  0
  143.7760   74.0490  219.7380 N   0  0  0  0  0  0  0  0  0  0  0  0
  143.8310   74.1070  218.2700 C   0  0  0  0  0  0  0  0  0  0  0  0
  144.7330   72.9970  217.7230 C   0  0  0  0  0  0  0  0  0  0  0  0
  145.9880   73.0000  218.3720 O   0  0  0  0  0  0  0  0  0  0  0  0
  145.8140   72.6580  219.7320 C   0  0  0  0  0  0  0  0  0  0  0  0
  145.0130   73.7360  220.4680 C   0  0  0  0  0  0  0  0  0  0  0  0
  142.5060   76.0010  220.4590 N   0  0  0  0  0  0  0  0  0  0  0  0
  141.4530   76.5340  221.1210 C   0  0  0  0  0  0  0  0  0  0  0  0
  141.0710   78.1580  221.2760 S   0  0  0  0  0  0  0  0  0  0  0  0
  139.6800   77.8770  222.2070 C   0  0  0  0  0  0  0  0  0  0  0  0
  138.7940   78.9320  222.7280 C   0  0  0  0  0  0  0  0  0  0  0  0
  137.4030   78.9350  222.6940 C   0  0  0  0  0  0  0  0  0  0  0  0
  136.8380   80.0800  223.2690 C   0  0  0  0  0  0  0  0  0  0  0  0
  137.7740   80.9800  223.7570 C   0  0  0  0  0  0  0  0  0  0  0  0
  139.3070   80.3510  223.4730 S   0  0  0  0  0  0  0  0  0  0  0  0
  139.5150   76.5000  222.3990 C   0  0  0  0  0  0  0  0  0  0  0  0
  140.5250   75.7570  221.7780 C   0  0  0  0  0  0  0  0  0  0  0  0
  142.8162   73.9816  217.8645 H   0  0  0  0  0  0  0  0  0  0  0  0
  144.2424   75.0813  217.9676 H   0  0  0  0  0  0  0  0  0  0  0  0
  144.2459   72.0243  217.8859 H   0  0  0  0  0  0  0  0  0  0  0  0
  144.8929   73.1721  216.6489 H   0  0  0  0  0  0  0  0  0  0  0  0
  145.2748   71.7014  219.7967 H   0  0  0  0  0  0  0  0  0  0  0  0
  146.8045   72.5731  220.2027 H   0  0  0  0  0  0  0  0  0  0  0  0
  144.7571   73.3727  221.4742 H   0  0  0  0  0  0  0  0  0  0  0  0
  145.6247   74.6476  220.5373 H   0  0  0  0  0  0  0  0  0  0  0  0
  136.8067   78.1194  222.2589 H   0  0  0  0  0  0  0  0  0  0  0  0
  135.7528   80.2500  223.3282 H   0  0  0  0  0  0  0  0  0  0  0  0
  137.5515   81.9400  224.2457 H   0  0  0  0  0  0  0  0  0  0  0  0
  138.6880   76.0543  222.9712 H   0  0  0  0  0  0  0  0  0  0  0  0
  1  2  2  0
  2  3  1  0
  3  4  2  0
  4  5  1  0
  5  6  1  0
  6  7  1  0
  7  8  1  0
  8  9  1  0
  9 10  1  0
  4 11  1  0
 11 12  1  0
 12 13  1  0
 13 14  1  0
 14 15  1  0
 15 16  2  0
 16 17  1  0
 17 18  2  0
 18 19  1  0
 14 20  2  0
 20 21  1  0
 21  2  1  0
 10  5  1  0
 21 12  2  0
 19 15  1  0
  6 22  1  0
  6 23  1  0
  7 24  1  0
  7 25  1  0
  9 26  1  0
  9 27  1  0
 10 28  1  0
 10 29  1  0
 16 30  1  0
 17 31  1  0
 18 32  1  0
 20 33  1  0
M  CHG  1  11  -1
M  END
>  <UniqueID>  (34) 
34

>  <SMILES>  (34) 
O=c1nc(N2CCOCC2)[n-]c2sc(-c3cccs3)cc12

>  <Energy>  (34) 
98.10198395118728

>  <Genealogy>  (34) 
O=c1nc(N2CCOCC2)[n-]c2sc(-c3cccs3)cc12 (protonated)
O=c1nc(N2CCOCC2)[n-]c2sc(-c3cccs3)cc12 (3D coordinates assigned)
O=c1nc(N2CCOCC2)[n-]c2sc(-c3cccs3)cc12 (nonaromatic ring conformer: 98.10198395118728 kcal/mol)

>  <smiles>  (34) 
O=c1nc(N2CCOCC2)[nH]c2sc(-c3cccs3)cc12

>  <score_type>  (34) 
oracle

>  <origin>  (34) 
autodockgpu

>  <m_score__min__energy>  (34) 
-5.9900000000000002

>  <m_primary>  (34) 
energy

>  <meeko>  (34) 
{"free_energy": -5.69, "intermolecular_energy": -6.28, "internal_energy": -0.42, "cluster_size": 4, "cluster_id": 2, "rank_in_cluster": 2}

>  <energy>  (34) 
-5.95

>  <cluster_rmsd>  (34) 
0.68

>  <rmsd>  (34) 
271.4

>  <cluster>  (34) 
1

$$$$
CFPRWASAHFAXRY-FWJFTDBINA-M
     RDKit          3D

 33 36  0  0  0  0  0  0  0  0999 V2000
  139.8540   73.6340  222.3340 O   0  0  0  0  0  0  0  0  0  0  0  0
  140.6750   74.3900  221.7490 C   0  0  0  0  0  0  0  0  0  0  0  0
  141.7370   73.8600  221.0790 N   0  0  0  0  0  0  0  0  0  0  0  0
  142.6510   74.6500  220.4320 C   0  0  0  0  0  0  0  0  0  0  0  0
  143.7630   74.0510  219.7320 N   0  0  0  0  0  0  0  0  0  0  0  0
  143.8130   74.1000  218.2640 C   0  0  0  0  0  0  0  0  0  0  0  0
  144.7120   72.9860  217.7200 C   0  0  0  0  0  0  0  0  0  0  0  0
  145.9690   72.9920  218.3650 O   0  0  0  0  0  0  0  0  0  0  0  0
  145.7990   72.6580  219.7270 C   0  0  0  0  0  0  0  0  0  0  0  0
  145.0020   73.7420  220.4600 C   0  0  0  0  0  0  0  0  0  0  0  0
  142.5020   76.0090  220.4520 N   0  0  0  0  0  0  0  0  0  0  0  0
  141.4510   76.5470  221.1140 C   0  0  0  0  0  0  0  0  0  0  0  0
  141.0760   78.1730  221.2670 S   0  0  0  0  0  0  0  0  0  0  0  0
  139.6850   77.8990  222.2000 C   0  0  0  0  0  0  0  0  0  0  0  0
  138.8030   78.9580  222.7210 C   0  0  0  0  0  0  0  0  0  0  0  0
  137.4120   78.9690  222.6830 C   0  0  0  0  0  0  0  0  0  0  0  0
  136.8520   80.1160  223.2590 C   0  0  0  0  0  0  0  0  0  0  0  0
  137.7920   81.0100  223.7500 C   0  0  0  0  0  0  0  0  0  0  0  0
  139.3220   80.3730  223.4680 S   0  0  0  0  0  0  0  0  0  0  0  0
  139.5140   76.5230  222.3930 C   0  0  0  0  0  0  0  0  0  0  0  0
  140.5210   75.7750  221.7720 C   0  0  0  0  0  0  0  0  0  0  0  0
  142.7966   73.9732  217.8628 H   0  0  0  0  0  0  0  0  0  0  0  0
  144.2246   75.0720  217.9545 H   0  0  0  0  0  0  0  0  0  0  0  0
  144.2246   72.0146  217.8901 H   0  0  0  0  0  0  0  0  0  0  0  0
  144.8683   73.1545  216.6443 H   0  0  0  0  0  0  0  0  0  0  0  0
  145.2583   71.7027  219.7989 H   0  0  0  0  0  0  0  0  0  0  0  0
  146.7910   72.5740  220.1949 H   0  0  0  0  0  0  0  0  0  0  0  0
  144.7494   73.3853  221.4694 H   0  0  0  0  0  0  0  0  0  0  0  0
  145.6148   74.6534  220.5222 H   0  0  0  0  0  0  0  0  0  0  0  0
  136.8123   78.1578  222.2444 H   0  0  0  0  0  0  0  0  0  0  0  0
  135.7677   80.2916  223.3167 H   0  0  0  0  0  0  0  0  0  0  0  0
  137.5739   81.9705  224.2397 H   0  0  0  0  0  0  0  0  0  0  0  0
  138.6852   76.0813  222.9657 H   0  0  0  0  0  0  0  0  0  0  0  0
  1  2  2  0
  2  3  1  0
  3  4  2  0
  4  5  1  0
  5  6  1  0
  6  7  1  0
  7  8  1  0
  8  9  1  0
  9 10  1  0
  4 11  1  0
 11 12  1  0
 12 13  1  0
 13 14  1  0
 14 15  1  0
 15 16  2  0
 16 17  1  0
 17 18  2  0
 18 19  1  0
 14 20  2  0
 20 21  1  0
 21  2  1  0
 10  5  1  0
 21 12  2  0
 19 15  1  0
  6 22  1  0
  6 23  1  0
  7 24  1  0
  7 25  1  0
  9 26  1  0
  9 27  1  0
 10 28  1  0
 10 29  1  0
 16 30  1  0
 17 31  1  0
 18 32  1  0
 20 33  1  0
M  CHG  1  11  -1
M  END
>  <UniqueID>  (35) 
34

>  <SMILES>  (35) 
O=c1nc(N2CCOCC2)[n-]c2sc(-c3cccs3)cc12

>  <Energy>  (35) 
98.10198395118728

>  <Genealogy>  (35) 
O=c1nc(N2CCOCC2)[n-]c2sc(-c3cccs3)cc12 (protonated)
O=c1nc(N2CCOCC2)[n-]c2sc(-c3cccs3)cc12 (3D coordinates assigned)
O=c1nc(N2CCOCC2)[n-]c2sc(-c3cccs3)cc12 (nonaromatic ring conformer: 98.10198395118728 kcal/mol)

>  <smiles>  (35) 
O=c1nc(N2CCOCC2)[nH]c2sc(-c3cccs3)cc12

>  <score_type>  (35) 
oracle

>  <origin>  (35) 
autodockgpu

>  <m_score__min__energy>  (35) 
-5.9900000000000002

>  <m_primary>  (35) 
energy

>  <meeko>  (35) 
{"free_energy": -5.68, "intermolecular_energy": -6.28, "internal_energy": -0.42, "cluster_size": 4, "cluster_id": 2, "rank_in_cluster": 3}

>  <energy>  (35) 
-5.94

>  <cluster_rmsd>  (35) 
0.89

>  <rmsd>  (35) 
271.45

>  <cluster>  (35) 
1

$$$$
CFPRWASAHFAXRY-FWJFTDBINA-M
     RDKit          3D

 33 36  0  0  0  0  0  0  0  0999 V2000
  139.8680   73.6150  222.3400 O   0  0  0  0  0  0  0  0  0  0  0  0
  140.6870   74.3760  221.7600 C   0  0  0  0  0  0  0  0  0  0  0  0
  141.7560   73.8540  221.0950 N   0  0  0  0  0  0  0  0  0  0  0  0
  142.6680   74.6500  220.4520 C   0  0  0  0  0  0  0  0  0  0  0  0
  143.7870   74.0590  219.7570 N   0  0  0  0  0  0  0  0  0  0  0  0
  143.8370   74.0970  218.2880 C   0  0  0  0  0  0  0  0  0  0  0  0
  144.7480   72.9900  217.7530 C   0  0  0  0  0  0  0  0  0  0  0  0
  146.0050   73.0150  218.3980 O   0  0  0  0  0  0  0  0  0  0  0  0
  145.8380   72.6890  219.7630 C   0  0  0  0  0  0  0  0  0  0  0  0
  145.0280   73.7680  220.4870 C   0  0  0  0  0  0  0  0  0  0  0  0
  142.5090   76.0080  220.4730 N   0  0  0  0  0  0  0  0  0  0  0  0
  141.4520   76.5390  221.1290 C   0  0  0  0  0  0  0  0  0  0  0  0
  141.0660   78.1620  221.2830 S   0  0  0  0  0  0  0  0  0  0  0  0
  139.6720   77.8780  222.2090 C   0  0  0  0  0  0  0  0  0  0  0  0
  138.7820   78.9310  222.7260 C   0  0  0  0  0  0  0  0  0  0  0  0
  137.3900   78.9300  222.6880 C   0  0  0  0  0  0  0  0  0  0  0  0
  136.8200   80.0740  223.2600 C   0  0  0  0  0  0  0  0  0  0  0  0
  137.7520   80.9780  223.7490 C   0  0  0  0  0  0  0  0  0  0  0  0
  139.2880   80.3530  223.4690 S   0  0  0  0  0  0  0  0  0  0  0  0
  139.5090   76.5010  222.3990 C   0  0  0  0  0  0  0  0  0  0  0  0
  140.5230   75.7600  221.7830 C   0  0  0  0  0  0  0  0  0  0  0  0
  142.8223   73.9556  217.8876 H   0  0  0  0  0  0  0  0  0  0  0  0
  144.2378   75.0712  217.9712 H   0  0  0  0  0  0  0  0  0  0  0  0
  144.2716   72.0145  217.9305 H   0  0  0  0  0  0  0  0  0  0  0  0
  144.9026   73.1522  216.6761 H   0  0  0  0  0  0  0  0  0  0  0  0
  145.3089   71.7278  219.8417 H   0  0  0  0  0  0  0  0  0  0  0  0
  146.8306   72.6205  220.2321 H   0  0  0  0  0  0  0  0  0  0  0  0
  144.7783   73.4150  221.4985 H   0  0  0  0  0  0  0  0  0  0  0  0
  145.6306   74.6865  220.5428 H   0  0  0  0  0  0  0  0  0  0  0  0
  136.7973   78.1122  222.2522 H   0  0  0  0  0  0  0  0  0  0  0  0
  135.7341   80.2405  223.3164 H   0  0  0  0  0  0  0  0  0  0  0  0
  137.5253   81.9380  224.2359 H   0  0  0  0  0  0  0  0  0  0  0  0
  138.6799   76.0535  222.9667 H   0  0  0  0  0  0  0  0  0  0  0  0
  1  2  2  0
  2  3  1  0
  3  4  2  0
  4  5  1  0
  5  6  1  0
  6  7  1  0
  7  8  1  0
  8  9  1  0
  9 10  1  0
  4 11  1  0
 11 12  1  0
 12 13  1  0
 13 14  1  0
 14 15  1  0
 15 16  2  0
 16 17  1  0
 17 18  2  0
 18 19  1  0
 14 20  2  0
 20 21  1  0
 21  2  1  0
 10  5  1  0
 21 12  2  0
 19 15  1  0
  6 22  1  0
  6 23  1  0
  7 24  1  0
  7 25  1  0
  9 26  1  0
  9 27  1  0
 10 28  1  0
 10 29  1  0
 16 30  1  0
 17 31  1  0
 18 32  1  0
 20 33  1  0
M  CHG  1  11  -1
M  END
>  <UniqueID>  (36) 
34

>  <SMILES>  (36) 
O=c1nc(N2CCOCC2)[n-]c2sc(-c3cccs3)cc12

>  <Energy>  (36) 
98.10198395118728

>  <Genealogy>  (36) 
O=c1nc(N2CCOCC2)[n-]c2sc(-c3cccs3)cc12 (protonated)
O=c1nc(N2CCOCC2)[n-]c2sc(-c3cccs3)cc12 (3D coordinates assigned)
O=c1nc(N2CCOCC2)[n-]c2sc(-c3cccs3)cc12 (nonaromatic ring conformer: 98.10198395118728 kcal/mol)

>  <smiles>  (36) 
O=c1nc(N2CCOCC2)[nH]c2sc(-c3cccs3)cc12

>  <score_type>  (36) 
oracle

>  <origin>  (36) 
autodockgpu

>  <m_score__min__energy>  (36) 
-5.9900000000000002

>  <m_primary>  (36) 
energy

>  <meeko>  (36) 
{"free_energy": -5.69, "intermolecular_energy": -6.29, "internal_energy": -0.42, "cluster_size": 4, "cluster_id": 2, "rank_in_cluster": 1}

>  <energy>  (36) 
-5.87

>  <cluster_rmsd>  (36) 
1.06

>  <rmsd>  (36) 
271.45

>  <cluster>  (36) 
1

$$$$
CFPRWASAHFAXRY-FWJFTDBINA-M
     RDKit          3D

 33 36  0  0  0  0  0  0  0  0999 V2000
  146.6310   73.3860  219.3140 O   0  0  0  0  0  0  0  0  0  0  0  0
  145.6480   72.6170  219.4850 C   0  0  0  0  0  0  0  0  0  0  0  0
  145.7940   71.2720  219.3210 N   0  0  0  0  0  0  0  0  0  0  0  0
  144.7490   70.4030  219.4970 C   0  0  0  0  0  0  0  0  0  0  0  0
  144.9430   68.9840  219.3150 N   0  0  0  0  0  0  0  0  0  0  0  0
  146.3020   68.4240  219.3490 C   0  0  0  0  0  0  0  0  0  0  0  0
  146.3470   67.0820  218.6120 C   0  0  0  0  0  0  0  0  0  0  0  0
  145.3280   66.2190  219.0730 O   0  0  0  0  0  0  0  0  0  0  0  0
  144.0670   66.7540  218.7280 C   0  0  0  0  0  0  0  0  0  0  0  0
  143.8080   68.0660  219.4750 C   0  0  0  0  0  0  0  0  0  0  0  0
  143.5200   70.8900  219.8490 N   0  0  0  0  0  0  0  0  0  0  0  0
  143.3630   72.2240  220.0160 C   0  0  0  0  0  0  0  0  0  0  0  0
  141.9580   73.0320  220.4430 S   0  0  0  0  0  0  0  0  0  0  0  0
  142.6770   74.5700  220.4100 C   0  0  0  0  0  0  0  0  0  0  0  0
  141.9740   75.8300  220.7050 C   0  0  0  0  0  0  0  0  0  0  0  0
  142.1850   77.0590  220.0870 C   0  0  0  0  0  0  0  0  0  0  0  0
  141.3610   78.0760  220.5840 C   0  0  0  0  0  0  0  0  0  0  0  0
  140.5010   77.6580  221.5890 C   0  0  0  0  0  0  0  0  0  0  0  0
  140.7670   76.0210  221.8610 S   0  0  0  0  0  0  0  0  0  0  0  0
  144.0280   74.4480  220.0620 C   0  0  0  0  0  0  0  0  0  0  0  0
  144.3970   73.1160  219.8430 C   0  0  0  0  0  0  0  0  0  0  0  0
  146.9955   69.1268  218.8642 H   0  0  0  0  0  0  0  0  0  0  0  0
  146.5953   68.2646  220.3971 H   0  0  0  0  0  0  0  0  0  0  0  0
  146.2099   67.2579  217.5349 H   0  0  0  0  0  0  0  0  0  0  0  0
  147.3214   66.6087  218.8032 H   0  0  0  0  0  0  0  0  0  0  0  0
  144.0406   66.9447  217.6450 H   0  0  0  0  0  0  0  0  0  0  0  0
  143.2885   66.0295  219.0091 H   0  0  0  0  0  0  0  0  0  0  0  0
  142.9007   68.5390  219.0712 H   0  0  0  0  0  0  0  0  0  0  0  0
  143.6780   67.8455  220.5448 H   0  0  0  0  0  0  0  0  0  0  0  0
  142.9249   77.2156  219.2882 H   0  0  0  0  0  0  0  0  0  0  0  0
  141.3926   79.1107  220.2120 H   0  0  0  0  0  0  0  0  0  0  0  0
  139.7709   78.2891  222.1169 H   0  0  0  0  0  0  0  0  0  0  0  0
  144.7184   75.2996  219.9714 H   0  0  0  0  0  0  0  0  0  0  0  0
  1  2  2  0
  2  3  1  0
  3  4  2  0
  4  5  1  0
  5  6  1  0
  6  7  1  0
  7  8  1  0
  8  9  1  0
  9 10  1  0
  4 11  1  0
 11 12  1  0
 12 13  1  0
 13 14  1  0
 14 15  1  0
 15 16  2  0
 16 17  1  0
 17 18  2  0
 18 19  1  0
 14 20  2  0
 20 21  1  0
 21  2  1  0
 10  5  1  0
 21 12  2  0
 19 15  1  0
  6 22  1  0
  6 23  1  0
  7 24  1  0
  7 25  1  0
  9 26  1  0
  9 27  1  0
 10 28  1  0
 10 29  1  0
 16 30  1  0
 17 31  1  0
 18 32  1  0
 20 33  1  0
M  CHG  1  11  -1
M  END
>  <UniqueID>  (37) 
34

>  <SMILES>  (37) 
O=c1nc(N2CCOCC2)[n-]c2sc(-c3cccs3)cc12

>  <Energy>  (37) 
98.10198395118728

>  <Genealogy>  (37) 
O=c1nc(N2CCOCC2)[n-]c2sc(-c3cccs3)cc12 (protonated)
O=c1nc(N2CCOCC2)[n-]c2sc(-c3cccs3)cc12 (3D coordinates assigned)
O=c1nc(N2CCOCC2)[n-]c2sc(-c3cccs3)cc12 (nonaromatic ring conformer: 98.10198395118728 kcal/mol)

>  <smiles>  (37) 
O=c1nc(N2CCOCC2)[nH]c2sc(-c3cccs3)cc12

>  <score_type>  (37) 
oracle

>  <origin>  (37) 
autodockgpu

>  <m_score__min__energy>  (37) 
-5.9900000000000002

>  <m_primary>  (37) 
energy

>  <meeko>  (37) 
{"free_energy": -5.97, "intermolecular_energy": -6.56, "internal_energy": -0.43, "cluster_size": 16, "cluster_id": 1, "rank_in_cluster": 9}

>  <energy>  (37) 
-5.69

>  <cluster_rmsd>  (37) 
0.0

>  <rmsd>  (37) 
272.26

>  <cluster>  (37) 
2

$$$$
CFPRWASAHFAXRY-FWJFTDBINA-M
     RDKit          3D

 33 36  0  0  0  0  0  0  0  0999 V2000
  146.5210   73.3760  219.3230 O   0  0  0  0  0  0  0  0  0  0  0  0
  145.5510   72.5910  219.5020 C   0  0  0  0  0  0  0  0  0  0  0  0
  145.7110   71.2510  219.3100 N   0  0  0  0  0  0  0  0  0  0  0  0
  144.6810   70.3660  219.4940 C   0  0  0  0  0  0  0  0  0  0  0  0
  144.8890   68.9530  219.2810 N   0  0  0  0  0  0  0  0  0  0  0  0
  146.2480   68.3970  219.3490 C   0  0  0  0  0  0  0  0  0  0  0  0
  146.3270   67.0760  218.5800 C   0  0  0  0  0  0  0  0  0  0  0  0
  145.2960   66.1960  218.9810 O   0  0  0  0  0  0  0  0  0  0  0  0
  144.0460   66.7350  218.6040 C   0  0  0  0  0  0  0  0  0  0  0  0
  143.7530   68.0260  219.3760 C   0  0  0  0  0  0  0  0  0  0  0  0
  143.4540   70.8300  219.8810 N   0  0  0  0  0  0  0  0  0  0  0  0
  143.2830   72.1590  220.0750 C   0  0  0  0  0  0  0  0  0  0  0  0
  141.8790   72.9410  220.5460 S   0  0  0  0  0  0  0  0  0  0  0  0
  142.5770   74.4880  220.5270 C   0  0  0  0  0  0  0  0  0  0  0  0
  141.8650   75.7330  220.8590 C   0  0  0  0  0  0  0  0  0  0  0  0
  141.0040   75.9310  221.9340 C   0  0  0  0  0  0  0  0  0  0  0  0
  140.4750   77.2270  221.9890 C   0  0  0  0  0  0  0  0  0  0  0  0
  140.9130   78.0520  220.9630 C   0  0  0  0  0  0  0  0  0  0  0  0
  141.9590   77.1690  219.9880 S   0  0  0  0  0  0  0  0  0  0  0  0
  143.9210   74.3900  220.1470 C   0  0  0  0  0  0  0  0  0  0  0  0
  144.3030   73.0670  219.8960 C   0  0  0  0  0  0  0  0  0  0  0  0
  146.9552   69.1151  218.9082 H   0  0  0  0  0  0  0  0  0  0  0  0
  146.5033   68.2106  220.4026 H   0  0  0  0  0  0  0  0  0  0  0  0
  146.2282   67.2796  217.5035 H   0  0  0  0  0  0  0  0  0  0  0  0
  147.2963   66.6022  218.7943 H   0  0  0  0  0  0  0  0  0  0  0  0
  144.0586   66.9546  217.5262 H   0  0  0  0  0  0  0  0  0  0  0  0
  143.2613   66.0001  218.8367 H   0  0  0  0  0  0  0  0  0  0  0  0
  142.8583   68.5057  218.9524 H   0  0  0  0  0  0  0  0  0  0  0  0
  143.5855   67.7768  220.4342 H   0  0  0  0  0  0  0  0  0  0  0  0
  140.7627   75.1478  222.6677 H   0  0  0  0  0  0  0  0  0  0  0  0
  139.7778   77.5594  222.7722 H   0  0  0  0  0  0  0  0  0  0  0  0
  140.6251   79.1031  220.8135 H   0  0  0  0  0  0  0  0  0  0  0  0
  144.5979   75.2523  220.0563 H   0  0  0  0  0  0  0  0  0  0  0  0
  1  2  2  0
  2  3  1  0
  3  4  2  0
  4  5  1  0
  5  6  1  0
  6  7  1  0
  7  8  1  0
  8  9  1  0
  9 10  1  0
  4 11  1  0
 11 12  1  0
 12 13  1  0
 13 14  1  0
 14 15  1  0
 15 16  2  0
 16 17  1  0
 17 18  2  0
 18 19  1  0
 14 20  2  0
 20 21  1  0
 21  2  1  0
 10  5  1  0
 21 12  2  0
 19 15  1  0
  6 22  1  0
  6 23  1  0
  7 24  1  0
  7 25  1  0
  9 26  1  0
  9 27  1  0
 10 28  1  0
 10 29  1  0
 16 30  1  0
 17 31  1  0
 18 32  1  0
 20 33  1  0
M  CHG  1  11  -1
M  END
>  <UniqueID>  (38) 
34

>  <SMILES>  (38) 
O=c1nc(N2CCOCC2)[n-]c2sc(-c3cccs3)cc12

>  <Energy>  (38) 
98.10198395118728

>  <Genealogy>  (38) 
O=c1nc(N2CCOCC2)[n-]c2sc(-c3cccs3)cc12 (protonated)
O=c1nc(N2CCOCC2)[n-]c2sc(-c3cccs3)cc12 (3D coordinates assigned)
O=c1nc(N2CCOCC2)[n-]c2sc(-c3cccs3)cc12 (nonaromatic ring conformer: 98.10198395118728 kcal/mol)

>  <smiles>  (38) 
O=c1nc(N2CCOCC2)[nH]c2sc(-c3cccs3)cc12

>  <score_type>  (38) 
oracle

>  <origin>  (38) 
autodockgpu

>  <m_score__min__energy>  (38) 
-5.9900000000000002

>  <m_primary>  (38) 
energy

>  <meeko>  (38) 
{"free_energy": -5.95, "intermolecular_energy": -6.55, "internal_energy": -0.43, "cluster_size": 16, "cluster_id": 1, "rank_in_cluster": 13}

>  <energy>  (38) 
-5.69

>  <cluster_rmsd>  (38) 
0.02

>  <rmsd>  (38) 
272.25

>  <cluster>  (38) 
2

$$$$
CFPRWASAHFAXRY-FWJFTDBINA-M
     RDKit          3D

 33 36  0  0  0  0  0  0  0  0999 V2000
  146.5390   73.3840  219.1600 O   0  0  0  0  0  0  0  0  0  0  0  0
  145.5820   72.6020  219.4060 C   0  0  0  0  0  0  0  0  0  0  0  0
  145.7430   71.2560  219.2630 N   0  0  0  0  0  0  0  0  0  0  0  0
  144.7250   70.3750  219.5200 C   0  0  0  0  0  0  0  0  0  0  0  0
  144.9350   68.9550  219.3580 N   0  0  0  0  0  0  0  0  0  0  0  0
  146.3030   68.4210  219.3060 C   0  0  0  0  0  0  0  0  0  0  0  0
  146.3220   67.0620  218.6010 C   0  0  0  0  0  0  0  0  0  0  0  0
  145.3570   66.1920  219.1550 O   0  0  0  0  0  0  0  0  0  0  0  0
  144.0630   66.6950  218.8890 C   0  0  0  0  0  0  0  0  0  0  0  0
  143.8320   68.0200  219.6220 C   0  0  0  0  0  0  0  0  0  0  0  0
  143.5110   70.8490  219.9330 N   0  0  0  0  0  0  0  0  0  0  0  0
  143.3390   72.1830  220.0790 C   0  0  0  0  0  0  0  0  0  0  0  0
  141.9480   72.9780  220.5700 S   0  0  0  0  0  0  0  0  0  0  0  0
  142.6360   74.5260  220.4610 C   0  0  0  0  0  0  0  0  0  0  0  0
  141.9280   75.7800  220.7690 C   0  0  0  0  0  0  0  0  0  0  0  0
  142.1330   77.0160  220.1630 C   0  0  0  0  0  0  0  0  0  0  0  0
  141.3060   78.0250  220.6700 C   0  0  0  0  0  0  0  0  0  0  0  0
  140.4500   77.5950  221.6730 C   0  0  0  0  0  0  0  0  0  0  0  0
  140.7220   75.9550  221.9290 S   0  0  0  0  0  0  0  0  0  0  0  0
  143.9650   74.4180  220.0370 C   0  0  0  0  0  0  0  0  0  0  0  0
  144.3460   73.0880  219.8260 C   0  0  0  0  0  0  0  0  0  0  0  0
  146.9451   69.1237  218.7548 H   0  0  0  0  0  0  0  0  0  0  0  0
  146.6744   68.2938  220.3336 H   0  0  0  0  0  0  0  0  0  0  0  0
  146.1042   67.2077  217.5327 H   0  0  0  0  0  0  0  0  0  0  0  0
  147.3171   66.6121  218.7330 H   0  0  0  0  0  0  0  0  0  0  0  0
  143.9553   66.8584  217.8066 H   0  0  0  0  0  0  0  0  0  0  0  0
  143.3214   65.9633  219.2420 H   0  0  0  0  0  0  0  0  0  0  0  0
  142.8886   68.4661  219.2742 H   0  0  0  0  0  0  0  0  0  0  0  0
  143.7837   67.8240  220.7033 H   0  0  0  0  0  0  0  0  0  0  0  0
  142.8714   77.1833  219.3650 H   0  0  0  0  0  0  0  0  0  0  0  0
  141.3325   79.0629  220.3066 H   0  0  0  0  0  0  0  0  0  0  0  0
  139.7193   78.2188  222.2086 H   0  0  0  0  0  0  0  0  0  0  0  0
  144.6331   75.2789  219.8869 H   0  0  0  0  0  0  0  0  0  0  0  0
  1  2  2  0
  2  3  1  0
  3  4  2  0
  4  5  1  0
  5  6  1  0
  6  7  1  0
  7  8  1  0
  8  9  1  0
  9 10  1  0
  4 11  1  0
 11 12  1  0
 12 13  1  0
 13 14  1  0
 14 15  1  0
 15 16  2  0
 16 17  1  0
 17 18  2  0
 18 19  1  0
 14 20  2  0
 20 21  1  0
 21  2  1  0
 10  5  1  0
 21 12  2  0
 19 15  1  0
  6 22  1  0
  6 23  1  0
  7 24  1  0
  7 25  1  0
  9 26  1  0
  9 27  1  0
 10 28  1  0
 10 29  1  0
 16 30  1  0
 17 31  1  0
 18 32  1  0
 20 33  1  0
M  CHG  1  11  -1
M  END
>  <UniqueID>  (39) 
34

>  <SMILES>  (39) 
O=c1nc(N2CCOCC2)[n-]c2sc(-c3cccs3)cc12

>  <Energy>  (39) 
98.10198395118728

>  <Genealogy>  (39) 
O=c1nc(N2CCOCC2)[n-]c2sc(-c3cccs3)cc12 (protonated)
O=c1nc(N2CCOCC2)[n-]c2sc(-c3cccs3)cc12 (3D coordinates assigned)
O=c1nc(N2CCOCC2)[n-]c2sc(-c3cccs3)cc12 (nonaromatic ring conformer: 98.10198395118728 kcal/mol)

>  <smiles>  (39) 
O=c1nc(N2CCOCC2)[nH]c2sc(-c3cccs3)cc12

>  <score_type>  (39) 
oracle

>  <origin>  (39) 
autodockgpu

>  <m_score__min__energy>  (39) 
-5.9900000000000002

>  <m_primary>  (39) 
energy

>  <meeko>  (39) 
{"free_energy": -5.98, "intermolecular_energy": -6.58, "internal_energy": -0.43, "cluster_size": 16, "cluster_id": 1, "rank_in_cluster": 6}

>  <energy>  (39) 
-5.68

>  <cluster_rmsd>  (39) 
0.04

>  <rmsd>  (39) 
272.24

>  <cluster>  (39) 
2

$$$$
CFPRWASAHFAXRY-FWJFTDBINA-M
     RDKit          3D

 33 36  0  0  0  0  0  0  0  0999 V2000
  146.3160   73.3710  218.7270 O   0  0  0  0  0  0  0  0  0  0  0  0
  145.4200   72.5730  219.1110 C   0  0  0  0  0  0  0  0  0  0  0  0
  145.6000   71.2280  218.9810 N   0  0  0  0  0  0  0  0  0  0  0  0
  144.6490   70.3280  219.3880 C   0  0  0  0  0  0  0  0  0  0  0  0
  144.8760   68.9110  219.2340 N   0  0  0  0  0  0  0  0  0  0  0  0
  146.2420   68.3760  219.3350 C   0  0  0  0  0  0  0  0  0  0  0  0
  146.3430   67.0250  218.6210 C   0  0  0  0  0  0  0  0  0  0  0  0
  145.3210   66.1490  219.0500 O   0  0  0  0  0  0  0  0  0  0  0  0
  144.0660   66.6570  218.6430 C   0  0  0  0  0  0  0  0  0  0  0  0
  143.7510   67.9740  219.3590 C   0  0  0  0  0  0  0  0  0  0  0  0
  143.4840   70.7830  219.9400 N   0  0  0  0  0  0  0  0  0  0  0  0
  143.2940   72.1160  220.0750 C   0  0  0  0  0  0  0  0  0  0  0  0
  141.9530   72.8880  220.7190 S   0  0  0  0  0  0  0  0  0  0  0  0
  142.5770   74.4490  220.4870 C   0  0  0  0  0  0  0  0  0  0  0  0
  141.8780   75.6930  220.8520 C   0  0  0  0  0  0  0  0  0  0  0  0
  140.9880   75.8620  221.9080 C   0  0  0  0  0  0  0  0  0  0  0  0
  140.4830   77.1650  222.0020 C   0  0  0  0  0  0  0  0  0  0  0  0
  140.9680   78.0250  221.0280 C   0  0  0  0  0  0  0  0  0  0  0  0
  142.0280   77.1630  220.0470 S   0  0  0  0  0  0  0  0  0  0  0  0
  143.8450   74.3640  219.8990 C   0  0  0  0  0  0  0  0  0  0  0  0
  144.2330   73.0390  219.6740 C   0  0  0  0  0  0  0  0  0  0  0  0
  146.9435   69.0844  218.8702 H   0  0  0  0  0  0  0  0  0  0  0  0
  146.4919   68.2366  220.3971 H   0  0  0  0  0  0  0  0  0  0  0  0
  146.2496   67.1832  217.5365 H   0  0  0  0  0  0  0  0  0  0  0  0
  147.3165   66.5729  218.8616 H   0  0  0  0  0  0  0  0  0  0  0  0
  144.0835   66.8326  217.5573 H   0  0  0  0  0  0  0  0  0  0  0  0
  143.2891   65.9222  218.9010 H   0  0  0  0  0  0  0  0  0  0  0  0
  142.8535   68.4243  218.9098 H   0  0  0  0  0  0  0  0  0  0  0  0
  143.5786   67.7662  220.4253 H   0  0  0  0  0  0  0  0  0  0  0  0
  140.7090   75.0534  222.5996 H   0  0  0  0  0  0  0  0  0  0  0  0
  139.7676   77.4775  222.7770 H   0  0  0  0  0  0  0  0  0  0  0  0
  140.7049   79.0872  220.9164 H   0  0  0  0  0  0  0  0  0  0  0  0
  144.4636   75.2370  219.6439 H   0  0  0  0  0  0  0  0  0  0  0  0
  1  2  2  0
  2  3  1  0
  3  4  2  0
  4  5  1  0
  5  6  1  0
  6  7  1  0
  7  8  1  0
  8  9  1  0
  9 10  1  0
  4 11  1  0
 11 12  1  0
 12 13  1  0
 13 14  1  0
 14 15  1  0
 15 16  2  0
 16 17  1  0
 17 18  2  0
 18 19  1  0
 14 20  2  0
 20 21  1  0
 21  2  1  0
 10  5  1  0
 21 12  2  0
 19 15  1  0
  6 22  1  0
  6 23  1  0
  7 24  1  0
  7 25  1  0
  9 26  1  0
  9 27  1  0
 10 28  1  0
 10 29  1  0
 16 30  1  0
 17 31  1  0
 18 32  1  0
 20 33  1  0
M  CHG  1  11  -1
M  END
>  <UniqueID>  (40) 
34

>  <SMILES>  (40) 
O=c1nc(N2CCOCC2)[n-]c2sc(-c3cccs3)cc12

>  <Energy>  (40) 
98.10198395118728

>  <Genealogy>  (40) 
O=c1nc(N2CCOCC2)[n-]c2sc(-c3cccs3)cc12 (protonated)
O=c1nc(N2CCOCC2)[n-]c2sc(-c3cccs3)cc12 (3D coordinates assigned)
O=c1nc(N2CCOCC2)[n-]c2sc(-c3cccs3)cc12 (nonaromatic ring conformer: 98.10198395118728 kcal/mol)

>  <smiles>  (40) 
O=c1nc(N2CCOCC2)[nH]c2sc(-c3cccs3)cc12

>  <score_type>  (40) 
oracle

>  <origin>  (40) 
autodockgpu

>  <m_score__min__energy>  (40) 
-5.9900000000000002

>  <m_primary>  (40) 
energy

>  <meeko>  (40) 
{"free_energy": -5.96, "intermolecular_energy": -6.55, "internal_energy": -0.43, "cluster_size": 16, "cluster_id": 1, "rank_in_cluster": 11}

>  <energy>  (40) 
-5.68

>  <cluster_rmsd>  (40) 
0.18

>  <rmsd>  (40) 
272.21

>  <cluster>  (40) 
2

$$$$
CFPRWASAHFAXRY-FWJFTDBINA-M
     RDKit          3D

 33 36  0  0  0  0  0  0  0  0999 V2000
  146.5440   73.3940  219.1890 O   0  0  0  0  0  0  0  0  0  0  0  0
  145.5760   72.6170  219.4040 C   0  0  0  0  0  0  0  0  0  0  0  0
  145.7260   71.2730  219.2360 N   0  0  0  0  0  0  0  0  0  0  0  0
  144.6970   70.3960  219.4600 C   0  0  0  0  0  0  0  0  0  0  0  0
  144.8950   68.9780  219.2720 N   0  0  0  0  0  0  0  0  0  0  0  0
  146.2440   68.4080  219.3950 C   0  0  0  0  0  0  0  0  0  0  0  0
  146.3340   67.0760  218.6450 C   0  0  0  0  0  0  0  0  0  0  0  0
  145.2800   66.2130  219.0210 O   0  0  0  0  0  0  0  0  0  0  0  0
  144.0490   66.7620  218.5940 C   0  0  0  0  0  0  0  0  0  0  0  0
  143.7450   68.0660  219.3390 C   0  0  0  0  0  0  0  0  0  0  0  0
  143.4810   70.8740  219.8640 N   0  0  0  0  0  0  0  0  0  0  0  0
  143.3190   72.2070  220.0340 C   0  0  0  0  0  0  0  0  0  0  0  0
  141.9280   73.0050  220.5190 S   0  0  0  0  0  0  0  0  0  0  0  0
  142.6320   74.5480  220.4520 C   0  0  0  0  0  0  0  0  0  0  0  0
  141.9310   75.8020  220.7740 C   0  0  0  0  0  0  0  0  0  0  0  0
  142.1530   77.0460  220.1910 C   0  0  0  0  0  0  0  0  0  0  0  0
  141.3290   78.0540  220.7080 C   0  0  0  0  0  0  0  0  0  0  0  0
  140.4580   77.6130  221.6940 C   0  0  0  0  0  0  0  0  0  0  0  0
  140.7140   75.9680  221.9250 S   0  0  0  0  0  0  0  0  0  0  0  0
  143.9670   74.4360  220.0460 C   0  0  0  0  0  0  0  0  0  0  0  0
  144.3380   73.1070  219.8150 C   0  0  0  0  0  0  0  0  0  0  0  0
  146.9746   69.1124  218.9707 H   0  0  0  0  0  0  0  0  0  0  0  0
  146.4603   68.2323  220.4591 H   0  0  0  0  0  0  0  0  0  0  0  0
  146.2745   67.2671  217.5634 H   0  0  0  0  0  0  0  0  0  0  0  0
  147.2899   66.5941  218.8982 H   0  0  0  0  0  0  0  0  0  0  0  0
  144.1012   66.9675  217.5146 H   0  0  0  0  0  0  0  0  0  0  0  0
  143.2481   66.0392  218.8088 H   0  0  0  0  0  0  0  0  0  0  0  0
  142.8715   68.5507  218.8784 H   0  0  0  0  0  0  0  0  0  0  0  0
  143.5375   67.8326  220.3937 H   0  0  0  0  0  0  0  0  0  0  0  0
  142.9006   77.2203  219.4031 H   0  0  0  0  0  0  0  0  0  0  0  0
  141.3687   79.0982  220.3642 H   0  0  0  0  0  0  0  0  0  0  0  0
  139.7259   78.2333  222.2319 H   0  0  0  0  0  0  0  0  0  0  0  0
  144.6453   75.2931  219.9229 H   0  0  0  0  0  0  0  0  0  0  0  0
  1  2  2  0
  2  3  1  0
  3  4  2  0
  4  5  1  0
  5  6  1  0
  6  7  1  0
  7  8  1  0
  8  9  1  0
  9 10  1  0
  4 11  1  0
 11 12  1  0
 12 13  1  0
 13 14  1  0
 14 15  1  0
 15 16  2  0
 16 17  1  0
 17 18  2  0
 18 19  1  0
 14 20  2  0
 20 21  1  0
 21  2  1  0
 10  5  1  0
 21 12  2  0
 19 15  1  0
  6 22  1  0
  6 23  1  0
  7 24  1  0
  7 25  1  0
  9 26  1  0
  9 27  1  0
 10 28  1  0
 10 29  1  0
 16 30  1  0
 17 31  1  0
 18 32  1  0
 20 33  1  0
M  CHG  1  11  -1
M  END
>  <UniqueID>  (41) 
35

>  <SMILES>  (41) 
O=c1nc(N2CCOCC2)[n-]c2sc(-c3cccs3)cc12

>  <Energy>  (41) 
98.10198395345945

>  <Genealogy>  (41) 
O=c1nc(N2CCOCC2)[n-]c2sc(-c3cccs3)cc12 (protonated)
O=c1nc(N2CCOCC2)[n-]c2sc(-c3cccs3)cc12 (3D coordinates assigned)
O=c1nc(N2CCOCC2)[n-]c2sc(-c3cccs3)cc12 (nonaromatic ring conformer: 98.10198395345945 kcal/mol)

>  <smiles>  (41) 
O=c1nc(N2CCOCC2)[nH]c2sc(-c3cccs3)cc12

>  <score_type>  (41) 
oracle

>  <origin>  (41) 
autodockgpu

>  <m_score__min__energy>  (41) 
-5.9900000000000002

>  <m_primary>  (41) 
energy

>  <meeko>  (41) 
{"free_energy": -5.97, "intermolecular_energy": -6.56, "internal_energy": -0.43, "cluster_size": 16, "cluster_id": 1, "rank_in_cluster": 10}

>  <energy>  (41) 
-5.99

>  <cluster_rmsd>  (41) 
0.0

>  <rmsd>  (41) 
271.45

>  <cluster>  (41) 
1

$$$$
CFPRWASAHFAXRY-FWJFTDBINA-M
     RDKit          3D

 33 36  0  0  0  0  0  0  0  0999 V2000
  146.5550   73.3730  219.3130 O   0  0  0  0  0  0  0  0  0  0  0  0
  145.5840   72.5920  219.5000 C   0  0  0  0  0  0  0  0  0  0  0  0
  145.7400   71.2500  219.3210 N   0  0  0  0  0  0  0  0  0  0  0  0
  144.7080   70.3690  219.5140 C   0  0  0  0  0  0  0  0  0  0  0  0
  144.9130   68.9540  219.3150 N   0  0  0  0  0  0  0  0  0  0  0  0
  146.2750   68.4030  219.3450 C   0  0  0  0  0  0  0  0  0  0  0  0
  146.3320   67.0700  218.5930 C   0  0  0  0  0  0  0  0  0  0  0  0
  145.3180   66.1940  219.0410 O   0  0  0  0  0  0  0  0  0  0  0  0
  144.0540   66.7250  218.6990 C   0  0  0  0  0  0  0  0  0  0  0  0
  143.7830   68.0250  219.4620 C   0  0  0  0  0  0  0  0  0  0  0  0
  143.4830   70.8400  219.8990 N   0  0  0  0  0  0  0  0  0  0  0  0
  143.3160   72.1710  220.0800 C   0  0  0  0  0  0  0  0  0  0  0  0
  141.9130   72.9610  220.5460 S   0  0  0  0  0  0  0  0  0  0  0  0
  142.6150   74.5060  220.5110 C   0  0  0  0  0  0  0  0  0  0  0  0
  141.9060   75.7560  220.8320 C   0  0  0  0  0  0  0  0  0  0  0  0
  141.0330   75.9600  221.8960 C   0  0  0  0  0  0  0  0  0  0  0  0
  140.5110   77.2590  221.9420 C   0  0  0  0  0  0  0  0  0  0  0  0
  140.9660   78.0800  220.9200 C   0  0  0  0  0  0  0  0  0  0  0  0
  142.0190   77.1890  219.9590 S   0  0  0  0  0  0  0  0  0  0  0  0
  143.9590   74.4010  220.1300 C   0  0  0  0  0  0  0  0  0  0  0  0
  144.3370   73.0750  219.8920 C   0  0  0  0  0  0  0  0  0  0  0  0
  146.9644   69.1163  218.8698 H   0  0  0  0  0  0  0  0  0  0  0  0
  146.5667   68.2332  220.3919 H   0  0  0  0  0  0  0  0  0  0  0  0
  146.1967   67.2573  217.5175 H   0  0  0  0  0  0  0  0  0  0  0  0
  147.3093   66.6018  218.7818 H   0  0  0  0  0  0  0  0  0  0  0  0
  144.0297   66.9298  217.6185 H   0  0  0  0  0  0  0  0  0  0  0  0
  143.2799   65.9914  218.9684 H   0  0  0  0  0  0  0  0  0  0  0  0
  142.8728   68.4961  219.0625 H   0  0  0  0  0  0  0  0  0  0  0  0
  143.6520   67.7905  220.5287 H   0  0  0  0  0  0  0  0  0  0  0  0
  140.7782   75.1793  222.6278 H   0  0  0  0  0  0  0  0  0  0  0  0
  139.8062   77.5968  222.7160 H   0  0  0  0  0  0  0  0  0  0  0  0
  140.6860   79.1324  220.7653 H   0  0  0  0  0  0  0  0  0  0  0  0
  144.6379   75.2607  220.0297 H   0  0  0  0  0  0  0  0  0  0  0  0
  1  2  2  0
  2  3  1  0
  3  4  2  0
  4  5  1  0
  5  6  1  0
  6  7  1  0
  7  8  1  0
  8  9  1  0
  9 10  1  0
  4 11  1  0
 11 12  1  0
 12 13  1  0
 13 14  1  0
 14 15  1  0
 15 16  2  0
 16 17  1  0
 17 18  2  0
 18 19  1  0
 14 20  2  0
 20 21  1  0
 21  2  1  0
 10  5  1  0
 21 12  2  0
 19 15  1  0
  6 22  1  0
  6 23  1  0
  7 24  1  0
  7 25  1  0
  9 26  1  0
  9 27  1  0
 10 28  1  0
 10 29  1  0
 16 30  1  0
 17 31  1  0
 18 32  1  0
 20 33  1  0
M  CHG  1  11  -1
M  END
>  <UniqueID>  (42) 
35

>  <SMILES>  (42) 
O=c1nc(N2CCOCC2)[n-]c2sc(-c3cccs3)cc12

>  <Energy>  (42) 
98.10198395345945

>  <Genealogy>  (42) 
O=c1nc(N2CCOCC2)[n-]c2sc(-c3cccs3)cc12 (protonated)
O=c1nc(N2CCOCC2)[n-]c2sc(-c3cccs3)cc12 (3D coordinates assigned)
O=c1nc(N2CCOCC2)[n-]c2sc(-c3cccs3)cc12 (nonaromatic ring conformer: 98.10198395345945 kcal/mol)

>  <smiles>  (42) 
O=c1nc(N2CCOCC2)[nH]c2sc(-c3cccs3)cc12

>  <score_type>  (42) 
oracle

>  <origin>  (42) 
autodockgpu

>  <m_score__min__energy>  (42) 
-5.9900000000000002

>  <m_primary>  (42) 
energy

>  <meeko>  (42) 
{"free_energy": -5.95, "intermolecular_energy": -6.55, "internal_energy": -0.43, "cluster_size": 16, "cluster_id": 1, "rank_in_cluster": 12}

>  <energy>  (42) 
-5.99

>  <cluster_rmsd>  (42) 
0.06

>  <rmsd>  (42) 
271.43

>  <cluster>  (42) 
1

$$$$
CFPRWASAHFAXRY-FWJFTDBINA-M
     RDKit          3D

 33 36  0  0  0  0  0  0  0  0999 V2000
  146.6890   73.6640  219.4780 O   0  0  0  0  0  0  0  0  0  0  0  0
  145.7480   72.8280  219.5450 C   0  0  0  0  0  0  0  0  0  0  0  0
  145.9830   71.5110  219.2830 N   0  0  0  0  0  0  0  0  0  0  0  0
  144.9860   70.5720  219.3440 C   0  0  0  0  0  0  0  0  0  0  0  0
  145.2740   69.1860  219.0610 N   0  0  0  0  0  0  0  0  0  0  0  0
  146.2870   68.8430  218.0520 C   0  0  0  0  0  0  0  0  0  0  0  0
  146.0540   67.4270  217.5180 C   0  0  0  0  0  0  0  0  0  0  0  0
  145.9240   66.5030  218.5780 O   0  0  0  0  0  0  0  0  0  0  0  0
  144.7480   66.7890  219.3080 C   0  0  0  0  0  0  0  0  0  0  0  0
  144.8580   68.1450  220.0110 C   0  0  0  0  0  0  0  0  0  0  0  0
  143.7170   70.9580  219.6780 N   0  0  0  0  0  0  0  0  0  0  0  0
  143.4720   72.2620  219.9410 C   0  0  0  0  0  0  0  0  0  0  0  0
  142.0050   72.9520  220.3660 S   0  0  0  0  0  0  0  0  0  0  0  0
  142.6290   74.5250  220.4850 C   0  0  0  0  0  0  0  0  0  0  0  0
  141.8390   75.7150  220.8460 C   0  0  0  0  0  0  0  0  0  0  0  0
  140.9180   75.8120  221.8840 C   0  0  0  0  0  0  0  0  0  0  0  0
  140.3220   77.0760  221.9790 C   0  0  0  0  0  0  0  0  0  0  0  0
  140.7660   77.9760  221.0210 C   0  0  0  0  0  0  0  0  0  0  0  0
  141.9020   77.1990  220.0560 S   0  0  0  0  0  0  0  0  0  0  0  0
  143.9970   74.5100  220.1890 C   0  0  0  0  0  0  0  0  0  0  0  0
  144.4560   73.2240  219.8840 C   0  0  0  0  0  0  0  0  0  0  0  0
  146.2251   69.5588  217.2190 H   0  0  0  0  0  0  0  0  0  0  0  0
  147.2825   68.8883  218.5177 H   0  0  0  0  0  0  0  0  0  0  0  0
  145.1334   67.4162  216.9161 H   0  0  0  0  0  0  0  0  0  0  0  0
  146.9188   67.1368  216.9033 H   0  0  0  0  0  0  0  0  0  0  0  0
  143.8916   66.8094  218.6179 H   0  0  0  0  0  0  0  0  0  0  0  0
  144.6085   66.0081  220.0701 H   0  0  0  0  0  0  0  0  0  0  0  0
  143.8792   68.4129  220.4356 H   0  0  0  0  0  0  0  0  0  0  0  0
  145.6109   68.0712  220.8095 H   0  0  0  0  0  0  0  0  0  0  0  0
  140.6814   74.9791  222.5625 H   0  0  0  0  0  0  0  0  0  0  0  0
  139.5719   77.3313  222.7420 H   0  0  0  0  0  0  0  0  0  0  0  0
  140.4322   79.0184  220.9118 H   0  0  0  0  0  0  0  0  0  0  0  0
  144.6366   75.4049  220.1954 H   0  0  0  0  0  0  0  0  0  0  0  0
  1  2  2  0
  2  3  1  0
  3  4  2  0
  4  5  1  0
  5  6  1  0
  6  7  1  0
  7  8  1  0
  8  9  1  0
  9 10  1  0
  4 11  1  0
 11 12  1  0
 12 13  1  0
 13 14  1  0
 14 15  1  0
 15 16  2  0
 16 17  1  0
 17 18  2  0
 18 19  1  0
 14 20  2  0
 20 21  1  0
 21  2  1  0
 10  5  1  0
 21 12  2  0
 19 15  1  0
  6 22  1  0
  6 23  1  0
  7 24  1  0
  7 25  1  0
  9 26  1  0
  9 27  1  0
 10 28  1  0
 10 29  1  0
 16 30  1  0
 17 31  1  0
 18 32  1  0
 20 33  1  0
M  CHG  1  11  -1
M  END
>  <UniqueID>  (43) 
35

>  <SMILES>  (43) 
O=c1nc(N2CCOCC2)[n-]c2sc(-c3cccs3)cc12

>  <Energy>  (43) 
98.10198395345945

>  <Genealogy>  (43) 
O=c1nc(N2CCOCC2)[n-]c2sc(-c3cccs3)cc12 (protonated)
O=c1nc(N2CCOCC2)[n-]c2sc(-c3cccs3)cc12 (3D coordinates assigned)
O=c1nc(N2CCOCC2)[n-]c2sc(-c3cccs3)cc12 (nonaromatic ring conformer: 98.10198395345945 kcal/mol)

>  <smiles>  (43) 
O=c1nc(N2CCOCC2)[nH]c2sc(-c3cccs3)cc12

>  <score_type>  (43) 
oracle

>  <origin>  (43) 
autodockgpu

>  <m_score__min__energy>  (43) 
-5.9900000000000002

>  <m_primary>  (43) 
energy

>  <meeko>  (43) 
{"free_energy": -5.94, "intermolecular_energy": -6.54, "internal_energy": -0.43, "cluster_size": 16, "cluster_id": 1, "rank_in_cluster": 15}

>  <energy>  (43) 
-5.99

>  <cluster_rmsd>  (43) 
0.01

>  <rmsd>  (43) 
271.45

>  <cluster>  (43) 
1

$$$$
CFPRWASAHFAXRY-FWJFTDBINA-M
     RDKit          3D

 33 36  0  0  0  0  0  0  0  0999 V2000
  146.4930   73.3920  218.9780 O   0  0  0  0  0  0  0  0  0  0  0  0
  145.5570   72.6120  219.2950 C   0  0  0  0  0  0  0  0  0  0  0  0
  145.7190   71.2630  219.1780 N   0  0  0  0  0  0  0  0  0  0  0  0
  144.7240   70.3830  219.5120 C   0  0  0  0  0  0  0  0  0  0  0  0
  144.9340   68.9610  219.3750 N   0  0  0  0  0  0  0  0  0  0  0  0
  146.3030   68.4250  219.3530 C   0  0  0  0  0  0  0  0  0  0  0  0
  146.3310   67.0550  218.6680 C   0  0  0  0  0  0  0  0  0  0  0  0
  145.3570   66.1940  219.2210 O   0  0  0  0  0  0  0  0  0  0  0  0
  144.0680   66.6940  218.9280 C   0  0  0  0  0  0  0  0  0  0  0  0
  143.8270   68.0310  219.6370 C   0  0  0  0  0  0  0  0  0  0  0  0
  143.5300   70.8600  219.9780 N   0  0  0  0  0  0  0  0  0  0  0  0
  143.3560   72.1970  220.0990 C   0  0  0  0  0  0  0  0  0  0  0  0
  141.9870   72.9960  220.6430 S   0  0  0  0  0  0  0  0  0  0  0  0
  142.6570   74.5440  220.4580 C   0  0  0  0  0  0  0  0  0  0  0  0
  141.9580   75.8020  220.7720 C   0  0  0  0  0  0  0  0  0  0  0  0
  142.1800   77.0410  220.1790 C   0  0  0  0  0  0  0  0  0  0  0  0
  141.3570   78.0530  220.6880 C   0  0  0  0  0  0  0  0  0  0  0  0
  140.4880   77.6210  221.6800 C   0  0  0  0  0  0  0  0  0  0  0  0
  140.7430   75.9770  221.9220 S   0  0  0  0  0  0  0  0  0  0  0  0
  143.9630   74.4340  219.9650 C   0  0  0  0  0  0  0  0  0  0  0  0
  144.3410   73.1010  219.7690 C   0  0  0  0  0  0  0  0  0  0  0  0
  146.9547   69.1189  218.8018 H   0  0  0  0  0  0  0  0  0  0  0  0
  146.6582   68.3129  220.3880 H   0  0  0  0  0  0  0  0  0  0  0  0
  146.1288   67.1850  217.5946 H   0  0  0  0  0  0  0  0  0  0  0  0
  147.3236   66.6063  218.8208 H   0  0  0  0  0  0  0  0  0  0  0  0
  143.9767   66.8406  217.8416 H   0  0  0  0  0  0  0  0  0  0  0  0
  143.3205   65.9685  219.2814 H   0  0  0  0  0  0  0  0  0  0  0  0
  142.8891   68.4720  219.2683 H   0  0  0  0  0  0  0  0  0  0  0  0
  143.7626   67.8519  220.7204 H   0  0  0  0  0  0  0  0  0  0  0  0
  142.9272   77.2087  219.3894 H   0  0  0  0  0  0  0  0  0  0  0  0
  141.3957   79.0939  220.3344 H   0  0  0  0  0  0  0  0  0  0  0  0
  139.7584   78.2462  222.2155 H   0  0  0  0  0  0  0  0  0  0  0  0
  144.6154   75.2947  219.7562 H   0  0  0  0  0  0  0  0  0  0  0  0
  1  2  2  0
  2  3  1  0
  3  4  2  0
  4  5  1  0
  5  6  1  0
  6  7  1  0
  7  8  1  0
  8  9  1  0
  9 10  1  0
  4 11  1  0
 11 12  1  0
 12 13  1  0
 13 14  1  0
 14 15  1  0
 15 16  2  0
 16 17  1  0
 17 18  2  0
 18 19  1  0
 14 20  2  0
 20 21  1  0
 21  2  1  0
 10  5  1  0
 21 12  2  0
 19 15  1  0
  6 22  1  0
  6 23  1  0
  7 24  1  0
  7 25  1  0
  9 26  1  0
  9 27  1  0
 10 28  1  0
 10 29  1  0
 16 30  1  0
 17 31  1  0
 18 32  1  0
 20 33  1  0
M  CHG  1  11  -1
M  END
>  <UniqueID>  (44) 
35

>  <SMILES>  (44) 
O=c1nc(N2CCOCC2)[n-]c2sc(-c3cccs3)cc12

>  <Energy>  (44) 
98.10198395345945

>  <Genealogy>  (44) 
O=c1nc(N2CCOCC2)[n-]c2sc(-c3cccs3)cc12 (protonated)
O=c1nc(N2CCOCC2)[n-]c2sc(-c3cccs3)cc12 (3D coordinates assigned)
O=c1nc(N2CCOCC2)[n-]c2sc(-c3cccs3)cc12 (nonaromatic ring conformer: 98.10198395345945 kcal/mol)

>  <smiles>  (44) 
O=c1nc(N2CCOCC2)[nH]c2sc(-c3cccs3)cc12

>  <score_type>  (44) 
oracle

>  <origin>  (44) 
autodockgpu

>  <m_score__min__energy>  (44) 
-5.9900000000000002

>  <m_primary>  (44) 
energy

>  <meeko>  (44) 
{"free_energy": -5.99, "intermolecular_energy": -6.58, "internal_energy": -0.43, "cluster_size": 16, "cluster_id": 1, "rank_in_cluster": 2}

>  <energy>  (44) 
-5.99

>  <cluster_rmsd>  (44) 
0.04

>  <rmsd>  (44) 
271.44

>  <cluster>  (44) 
1

$$$$
CFPRWASAHFAXRY-FWJFTDBINA-M
     RDKit          3D

 33 36  0  0  0  0  0  0  0  0999 V2000
  146.6050   73.3960  219.2500 O   0  0  0  0  0  0  0  0  0  0  0  0
  145.6330   72.6230  219.4580 C   0  0  0  0  0  0  0  0  0  0  0  0
  145.7840   71.2760  219.3090 N   0  0  0  0  0  0  0  0  0  0  0  0
  144.7500   70.4030  219.5260 C   0  0  0  0  0  0  0  0  0  0  0  0
  144.9500   68.9830  219.3590 N   0  0  0  0  0  0  0  0  0  0  0  0
  146.3140   68.4400  219.3040 C   0  0  0  0  0  0  0  0  0  0  0  0
  146.3240   67.0830  218.5940 C   0  0  0  0  0  0  0  0  0  0  0  0
  145.3530   66.2180  219.1460 O   0  0  0  0  0  0  0  0  0  0  0  0
  144.0630   66.7310  218.8830 C   0  0  0  0  0  0  0  0  0  0  0  0
  143.8410   68.0550  219.6210 C   0  0  0  0  0  0  0  0  0  0  0  0
  143.5280   70.8870  219.9030 N   0  0  0  0  0  0  0  0  0  0  0  0
  143.3650   72.2220  220.0540 C   0  0  0  0  0  0  0  0  0  0  0  0
  141.9660   73.0270  220.5050 S   0  0  0  0  0  0  0  0  0  0  0  0
  142.6730   74.5690  220.4320 C   0  0  0  0  0  0  0  0  0  0  0  0
  141.9680   75.8280  220.7270 C   0  0  0  0  0  0  0  0  0  0  0  0
  142.1950   77.0620  220.1250 C   0  0  0  0  0  0  0  0  0  0  0  0
  141.3650   78.0780  220.6170 C   0  0  0  0  0  0  0  0  0  0  0  0
  140.4860   77.6530  221.6030 C   0  0  0  0  0  0  0  0  0  0  0  0
  140.7410   76.0110  221.8620 S   0  0  0  0  0  0  0  0  0  0  0  0
  144.0150   74.4500  220.0500 C   0  0  0  0  0  0  0  0  0  0  0  0
  144.3880   73.1180  219.8410 C   0  0  0  0  0  0  0  0  0  0  0  0
  146.9604   69.1404  218.7549 H   0  0  0  0  0  0  0  0  0  0  0  0
  146.6849   68.3065  220.3309 H   0  0  0  0  0  0  0  0  0  0  0  0
  146.1068   67.2336  217.5262 H   0  0  0  0  0  0  0  0  0  0  0  0
  147.3161   66.6259  218.7235 H   0  0  0  0  0  0  0  0  0  0  0  0
  143.9558   66.8992  217.8012 H   0  0  0  0  0  0  0  0  0  0  0  0
  143.3167   66.0032  219.2341 H   0  0  0  0  0  0  0  0  0  0  0  0
  142.9003   68.5086  219.2756 H   0  0  0  0  0  0  0  0  0  0  0  0
  143.7918   67.8558  220.7017 H   0  0  0  0  0  0  0  0  0  0  0  0
  142.9502   77.2235  219.3416 H   0  0  0  0  0  0  0  0  0  0  0  0
  141.4064   79.1160  220.2553 H   0  0  0  0  0  0  0  0  0  0  0  0
  139.7495   78.2816  222.1251 H   0  0  0  0  0  0  0  0  0  0  0  0
  144.6967   75.3047  219.9284 H   0  0  0  0  0  0  0  0  0  0  0  0
  1  2  2  0
  2  3  1  0
  3  4  2  0
  4  5  1  0
  5  6  1  0
  6  7  1  0
  7  8  1  0
  8  9  1  0
  9 10  1  0
  4 11  1  0
 11 12  1  0
 12 13  1  0
 13 14  1  0
 14 15  1  0
 15 16  2  0
 16 17  1  0
 17 18  2  0
 18 19  1  0
 14 20  2  0
 20 21  1  0
 21  2  1  0
 10  5  1  0
 21 12  2  0
 19 15  1  0
  6 22  1  0
  6 23  1  0
  7 24  1  0
  7 25  1  0
  9 26  1  0
  9 27  1  0
 10 28  1  0
 10 29  1  0
 16 30  1  0
 17 31  1  0
 18 32  1  0
 20 33  1  0
M  CHG  1  11  -1
M  END
>  <UniqueID>  (45) 
35

>  <SMILES>  (45) 
O=c1nc(N2CCOCC2)[n-]c2sc(-c3cccs3)cc12

>  <Energy>  (45) 
98.10198395345945

>  <Genealogy>  (45) 
O=c1nc(N2CCOCC2)[n-]c2sc(-c3cccs3)cc12 (protonated)
O=c1nc(N2CCOCC2)[n-]c2sc(-c3cccs3)cc12 (3D coordinates assigned)
O=c1nc(N2CCOCC2)[n-]c2sc(-c3cccs3)cc12 (nonaromatic ring conformer: 98.10198395345945 kcal/mol)

>  <smiles>  (45) 
O=c1nc(N2CCOCC2)[nH]c2sc(-c3cccs3)cc12

>  <score_type>  (45) 
oracle

>  <origin>  (45) 
autodockgpu

>  <m_score__min__energy>  (45) 
-5.9900000000000002

>  <m_primary>  (45) 
energy

>  <meeko>  (45) 
{"free_energy": -5.98, "intermolecular_energy": -6.58, "internal_energy": -0.43, "cluster_size": 16, "cluster_id": 1, "rank_in_cluster": 7}

>  <energy>  (45) 
-5.98

>  <cluster_rmsd>  (45) 
0.04

>  <rmsd>  (45) 
271.46

>  <cluster>  (45) 
1

$$$$
CFPRWASAHFAXRY-FWJFTDBINA-M
     RDKit          3D

 33 36  0  0  0  0  0  0  0  0999 V2000
  146.5200   73.3830  219.0320 O   0  0  0  0  0  0  0  0  0  0  0  0
  145.5750   72.6010  219.3190 C   0  0  0  0  0  0  0  0  0  0  0  0
  145.7350   71.2550  219.1830 N   0  0  0  0  0  0  0  0  0  0  0  0
  144.7300   70.3720  219.4850 C   0  0  0  0  0  0  0  0  0  0  0  0
  144.9370   68.9520  219.3290 N   0  0  0  0  0  0  0  0  0  0  0  0
  146.3040   68.4120  219.3150 C   0  0  0  0  0  0  0  0  0  0  0  0
  146.3370   67.0530  218.6100 C   0  0  0  0  0  0  0  0  0  0  0  0
  145.3530   66.1870  219.1370 O   0  0  0  0  0  0  0  0  0  0  0  0
  144.0700   66.6960  218.8360 C   0  0  0  0  0  0  0  0  0  0  0  0
  143.8240   68.0220  219.5620 C   0  0  0  0  0  0  0  0  0  0  0  0
  143.5300   70.8470  219.9370 N   0  0  0  0  0  0  0  0  0  0  0  0
  143.3590   72.1830  220.0760 C   0  0  0  0  0  0  0  0  0  0  0  0
  141.9830   72.9780  220.6090 S   0  0  0  0  0  0  0  0  0  0  0  0
  142.6620   74.5270  220.4610 C   0  0  0  0  0  0  0  0  0  0  0  0
  141.9620   75.7820  220.7820 C   0  0  0  0  0  0  0  0  0  0  0  0
  142.1840   77.0250  220.1980 C   0  0  0  0  0  0  0  0  0  0  0  0
  141.3600   78.0340  220.7130 C   0  0  0  0  0  0  0  0  0  0  0  0
  140.4910   77.5940  221.7010 C   0  0  0  0  0  0  0  0  0  0  0  0
  140.7470   75.9490  221.9330 S   0  0  0  0  0  0  0  0  0  0  0  0
  143.9760   74.4190  219.9900 C   0  0  0  0  0  0  0  0  0  0  0  0
  144.3530   73.0880  219.7790 C   0  0  0  0  0  0  0  0  0  0  0  0
  146.9643   69.1122  218.7823 H   0  0  0  0  0  0  0  0  0  0  0  0
  146.6459   68.2828  220.3525 H   0  0  0  0  0  0  0  0  0  0  0  0
  146.1495   67.1999  217.5361 H   0  0  0  0  0  0  0  0  0  0  0  0
  147.3261   66.5988  218.7691 H   0  0  0  0  0  0  0  0  0  0  0  0
  143.9930   66.8598  217.7510 H   0  0  0  0  0  0  0  0  0  0  0  0
  143.3159   65.9677  219.1691 H   0  0  0  0  0  0  0  0  0  0  0  0
  142.8925   68.4718  219.1879 H   0  0  0  0  0  0  0  0  0  0  0  0
  143.7447   67.8264  220.6416 H   0  0  0  0  0  0  0  0  0  0  0  0
  142.9320   77.1982  219.4103 H   0  0  0  0  0  0  0  0  0  0  0  0
  141.3983   79.0773  220.3666 H   0  0  0  0  0  0  0  0  0  0  0  0
  139.7602   78.2149  222.2399 H   0  0  0  0  0  0  0  0  0  0  0  0
  144.6354   75.2803  219.8071 H   0  0  0  0  0  0  0  0  0  0  0  0
  1  2  2  0
  2  3  1  0
  3  4  2  0
  4  5  1  0
  5  6  1  0
  6  7  1  0
  7  8  1  0
  8  9  1  0
  9 10  1  0
  4 11  1  0
 11 12  1  0
 12 13  1  0
 13 14  1  0
 14 15  1  0
 15 16  2  0
 16 17  1  0
 17 18  2  0
 18 19  1  0
 14 20  2  0
 20 21  1  0
 21  2  1  0
 10  5  1  0
 21 12  2  0
 19 15  1  0
  6 22  1  0
  6 23  1  0
  7 24  1  0
  7 25  1  0
  9 26  1  0
  9 27  1  0
 10 28  1  0
 10 29  1  0
 16 30  1  0
 17 31  1  0
 18 32  1  0
 20 33  1  0
M  CHG  1  11  -1
M  END
>  <UniqueID>  (46) 
35

>  <SMILES>  (46) 
O=c1nc(N2CCOCC2)[n-]c2sc(-c3cccs3)cc12

>  <Energy>  (46) 
98.10198395345945

>  <Genealogy>  (46) 
O=c1nc(N2CCOCC2)[n-]c2sc(-c3cccs3)cc12 (protonated)
O=c1nc(N2CCOCC2)[n-]c2sc(-c3cccs3)cc12 (3D coordinates assigned)
O=c1nc(N2CCOCC2)[n-]c2sc(-c3cccs3)cc12 (nonaromatic ring conformer: 98.10198395345945 kcal/mol)

>  <smiles>  (46) 
O=c1nc(N2CCOCC2)[nH]c2sc(-c3cccs3)cc12

>  <score_type>  (46) 
oracle

>  <origin>  (46) 
autodockgpu

>  <m_score__min__energy>  (46) 
-5.9900000000000002

>  <m_primary>  (46) 
energy

>  <meeko>  (46) 
{"free_energy": -5.98, "intermolecular_energy": -6.57, "internal_energy": -0.43, "cluster_size": 16, "cluster_id": 1, "rank_in_cluster": 8}

>  <energy>  (46) 
-5.98

>  <cluster_rmsd>  (46) 
0.04

>  <rmsd>  (46) 
271.42

>  <cluster>  (46) 
1

$$$$
CFPRWASAHFAXRY-FWJFTDBINA-M
     RDKit          3D

 33 36  0  0  0  0  0  0  0  0999 V2000
  146.8480   73.7840  220.1890 O   0  0  0  0  0  0  0  0  0  0  0  0
  145.9540   72.9510  219.8830 C   0  0  0  0  0  0  0  0  0  0  0  0
  146.2990   71.7160  219.4200 N   0  0  0  0  0  0  0  0  0  0  0  0
  145.3560   70.7820  219.0770 C   0  0  0  0  0  0  0  0  0  0  0  0
  145.7600   69.4840  218.5910 N   0  0  0  0  0  0  0  0  0  0  0  0
  146.3170   69.3530  217.2370 C   0  0  0  0  0  0  0  0  0  0  0  0
  146.1590   67.9180  216.7290 C   0  0  0  0  0  0  0  0  0  0  0  0
  146.6530   66.9910  217.6740 O   0  0  0  0  0  0  0  0  0  0  0  0
  145.8480   67.0310  218.8350 C   0  0  0  0  0  0  0  0  0  0  0  0
  145.9760   68.3840  219.5410 C   0  0  0  0  0  0  0  0  0  0  0  0
  144.0290   71.0890  219.2000 N   0  0  0  0  0  0  0  0  0  0  0  0
  143.6740   72.3110  219.6600 C   0  0  0  0  0  0  0  0  0  0  0  0
  142.1200   72.8960  219.8880 S   0  0  0  0  0  0  0  0  0  0  0  0
  142.6330   74.4130  220.4510 C   0  0  0  0  0  0  0  0  0  0  0  0
  141.7310   75.5020  220.8630 C   0  0  0  0  0  0  0  0  0  0  0  0
  141.8180   76.8370  220.4820 C   0  0  0  0  0  0  0  0  0  0  0  0
  140.8140   77.6390  221.0380 C   0  0  0  0  0  0  0  0  0  0  0  0
  139.9340   76.9440  221.8560 C   0  0  0  0  0  0  0  0  0  0  0  0
  140.4070   75.3310  221.8870 S   0  0  0  0  0  0  0  0  0  0  0  0
  144.0320   74.4610  220.4590 C   0  0  0  0  0  0  0  0  0  0  0  0
  144.6030   73.2650  220.0090 C   0  0  0  0  0  0  0  0  0  0  0  0
  145.7858   70.0375  216.5593 H   0  0  0  0  0  0  0  0  0  0  0  0
  147.3876   69.6040  217.2669 H   0  0  0  0  0  0  0  0  0  0  0  0
  145.0930   67.7151  216.5489 H   0  0  0  0  0  0  0  0  0  0  0  0
  146.7337   67.8099  215.7973 H   0  0  0  0  0  0  0  0  0  0  0  0
  144.7975   66.8708  218.5508 H   0  0  0  0  0  0  0  0  0  0  0  0
  146.1839   66.2416  219.5235 H   0  0  0  0  0  0  0  0  0  0  0  0
  145.2257   68.4460  220.3430 H   0  0  0  0  0  0  0  0  0  0  0  0
  146.9889   68.4711  219.9610 H   0  0  0  0  0  0  0  0  0  0  0  0
  142.5983   77.2243  219.8104 H   0  0  0  0  0  0  0  0  0  0  0  0
  140.7304   78.7186  220.8447 H   0  0  0  0  0  0  0  0  0  0  0  0
  139.0751   77.3744  222.3917 H   0  0  0  0  0  0  0  0  0  0  0  0
  144.6146   75.3366  220.7814 H   0  0  0  0  0  0  0  0  0  0  0  0
  1  2  2  0
  2  3  1  0
  3  4  2  0
  4  5  1  0
  5  6  1  0
  6  7  1  0
  7  8  1  0
  8  9  1  0
  9 10  1  0
  4 11  1  0
 11 12  1  0
 12 13  1  0
 13 14  1  0
 14 15  1  0
 15 16  2  0
 16 17  1  0
 17 18  2  0
 18 19  1  0
 14 20  2  0
 20 21  1  0
 21  2  1  0
 10  5  1  0
 21 12  2  0
 19 15  1  0
  6 22  1  0
  6 23  1  0
  7 24  1  0
  7 25  1  0
  9 26  1  0
  9 27  1  0
 10 28  1  0
 10 29  1  0
 16 30  1  0
 17 31  1  0
 18 32  1  0
 20 33  1  0
M  CHG  1  11  -1
M  END
>  <UniqueID>  (47) 
35

>  <SMILES>  (47) 
O=c1nc(N2CCOCC2)[n-]c2sc(-c3cccs3)cc12

>  <Energy>  (47) 
98.10198395345945

>  <Genealogy>  (47) 
O=c1nc(N2CCOCC2)[n-]c2sc(-c3cccs3)cc12 (protonated)
O=c1nc(N2CCOCC2)[n-]c2sc(-c3cccs3)cc12 (3D coordinates assigned)
O=c1nc(N2CCOCC2)[n-]c2sc(-c3cccs3)cc12 (nonaromatic ring conformer: 98.10198395345945 kcal/mol)

>  <smiles>  (47) 
O=c1nc(N2CCOCC2)[nH]c2sc(-c3cccs3)cc12

>  <score_type>  (47) 
oracle

>  <origin>  (47) 
autodockgpu

>  <m_score__min__energy>  (47) 
-5.9900000000000002

>  <m_primary>  (47) 
energy

>  <meeko>  (47) 
{"free_energy": -5.87, "intermolecular_energy": -6.47, "internal_energy": -0.42, "cluster_size": 16, "cluster_id": 1, "rank_in_cluster": 16}

>  <energy>  (47) 
-5.98

>  <cluster_rmsd>  (47) 
0.06

>  <rmsd>  (47) 
271.44

>  <cluster>  (47) 
1

$$$$
CFPRWASAHFAXRY-FWJFTDBINA-M
     RDKit          3D

 33 36  0  0  0  0  0  0  0  0999 V2000
  146.5510   73.3860  219.1510 O   0  0  0  0  0  0  0  0  0  0  0  0
  145.5940   72.6080  219.4080 C   0  0  0  0  0  0  0  0  0  0  0  0
  145.7520   71.2610  219.2760 N   0  0  0  0  0  0  0  0  0  0  0  0
  144.7340   70.3830  219.5470 C   0  0  0  0  0  0  0  0  0  0  0  0
  144.9400   68.9620  219.3950 N   0  0  0  0  0  0  0  0  0  0  0  0
  146.3070   68.4240  219.3420 C   0  0  0  0  0  0  0  0  0  0  0  0
  146.3200   67.0600  218.6480 C   0  0  0  0  0  0  0  0  0  0  0  0
  145.3560   66.1960  219.2140 O   0  0  0  0  0  0  0  0  0  0  0  0
  144.0620   66.7000  218.9500 C   0  0  0  0  0  0  0  0  0  0  0  0
  143.8370   68.0310  219.6730 C   0  0  0  0  0  0  0  0  0  0  0  0
  143.5230   70.8630  219.9620 N   0  0  0  0  0  0  0  0  0  0  0  0
  143.3550   72.1990  220.0980 C   0  0  0  0  0  0  0  0  0  0  0  0
  141.9670   73.0000  220.5890 S   0  0  0  0  0  0  0  0  0  0  0  0
  142.6570   74.5460  220.4630 C   0  0  0  0  0  0  0  0  0  0  0  0
  141.9530   75.8040  220.7630 C   0  0  0  0  0  0  0  0  0  0  0  0
  142.1690   77.0380  220.1570 C   0  0  0  0  0  0  0  0  0  0  0  0
  141.3430   78.0520  220.6570 C   0  0  0  0  0  0  0  0  0  0  0  0
  140.4770   77.6270  221.6540 C   0  0  0  0  0  0  0  0  0  0  0  0
  140.7390   75.9870  221.9140 S   0  0  0  0  0  0  0  0  0  0  0  0
  143.9840   74.4320  220.0320 C   0  0  0  0  0  0  0  0  0  0  0  0
  144.3610   73.1000  219.8310 C   0  0  0  0  0  0  0  0  0  0  0  0
  146.9487   69.1208  218.7828 H   0  0  0  0  0  0  0  0  0  0  0  0
  146.6820   68.3040  220.3691 H   0  0  0  0  0  0  0  0  0  0  0  0
  146.0970   67.1976  217.5797 H   0  0  0  0  0  0  0  0  0  0  0  0
  147.3149   66.6093  218.7784 H   0  0  0  0  0  0  0  0  0  0  0  0
  143.9497   66.8549  217.8668 H   0  0  0  0  0  0  0  0  0  0  0  0
  143.3205   65.9729  219.3126 H   0  0  0  0  0  0  0  0  0  0  0  0
  142.8923   68.4756  219.3268 H   0  0  0  0  0  0  0  0  0  0  0  0
  143.7943   67.8441  220.7562 H   0  0  0  0  0  0  0  0  0  0  0  0
  142.9142   77.2005  219.3644 H   0  0  0  0  0  0  0  0  0  0  0  0
  141.3775   79.0895  220.2930 H   0  0  0  0  0  0  0  0  0  0  0  0
  139.7451   78.2549  222.1832 H   0  0  0  0  0  0  0  0  0  0  0  0
  144.6527   75.2903  219.8702 H   0  0  0  0  0  0  0  0  0  0  0  0
  1  2  2  0
  2  3  1  0
  3  4  2  0
  4  5  1  0
  5  6  1  0
  6  7  1  0
  7  8  1  0
  8  9  1  0
  9 10  1  0
  4 11  1  0
 11 12  1  0
 12 13  1  0
 13 14  1  0
 14 15  1  0
 15 16  2  0
 16 17  1  0
 17 18  2  0
 18 19  1  0
 14 20  2  0
 20 21  1  0
 21  2  1  0
 10  5  1  0
 21 12  2  0
 19 15  1  0
  6 22  1  0
  6 23  1  0
  7 24  1  0
  7 25  1  0
  9 26  1  0
  9 27  1  0
 10 28  1  0
 10 29  1  0
 16 30  1  0
 17 31  1  0
 18 32  1  0
 20 33  1  0
M  CHG  1  11  -1
M  END
>  <UniqueID>  (48) 
35

>  <SMILES>  (48) 
O=c1nc(N2CCOCC2)[n-]c2sc(-c3cccs3)cc12

>  <Energy>  (48) 
98.10198395345945

>  <Genealogy>  (48) 
O=c1nc(N2CCOCC2)[n-]c2sc(-c3cccs3)cc12 (protonated)
O=c1nc(N2CCOCC2)[n-]c2sc(-c3cccs3)cc12 (3D coordinates assigned)
O=c1nc(N2CCOCC2)[n-]c2sc(-c3cccs3)cc12 (nonaromatic ring conformer: 98.10198395345945 kcal/mol)

>  <smiles>  (48) 
O=c1nc(N2CCOCC2)[nH]c2sc(-c3cccs3)cc12

>  <score_type>  (48) 
oracle

>  <origin>  (48) 
autodockgpu

>  <m_score__min__energy>  (48) 
-5.9900000000000002

>  <m_primary>  (48) 
energy

>  <meeko>  (48) 
{"free_energy": -5.99, "intermolecular_energy": -6.58, "internal_energy": -0.43, "cluster_size": 16, "cluster_id": 1, "rank_in_cluster": 3}

>  <energy>  (48) 
-5.98

>  <cluster_rmsd>  (48) 
0.06

>  <rmsd>  (48) 
271.42

>  <cluster>  (48) 
1

$$$$
CFPRWASAHFAXRY-FWJFTDBINA-M
     RDKit          3D

 33 36  0  0  0  0  0  0  0  0999 V2000
  139.7990   73.5390  222.3410 O   0  0  0  0  0  0  0  0  0  0  0  0
  140.6330   74.2830  221.7580 C   0  0  0  0  0  0  0  0  0  0  0  0
  141.6850   73.7360  221.0860 N   0  0  0  0  0  0  0  0  0  0  0  0
  142.6130   74.5120  220.4410 C   0  0  0  0  0  0  0  0  0  0  0  0
  143.7140   73.8960  219.7390 N   0  0  0  0  0  0  0  0  0  0  0  0
  143.8930   74.1450  218.3010 C   0  0  0  0  0  0  0  0  0  0  0  0
  144.7170   73.0240  217.6610 C   0  0  0  0  0  0  0  0  0  0  0  0
  145.9090   72.7970  218.3850 O   0  0  0  0  0  0  0  0  0  0  0  0
  145.5910   72.2960  219.6670 C   0  0  0  0  0  0  0  0  0  0  0  0
  144.8480   73.3480  220.4960 C   0  0  0  0  0  0  0  0  0  0  0  0
  142.4880   75.8730  220.4660 N   0  0  0  0  0  0  0  0  0  0  0  0
  141.4470   76.4280  221.1300 C   0  0  0  0  0  0  0  0  0  0  0  0
  141.1010   78.0590  221.2890 S   0  0  0  0  0  0  0  0  0  0  0  0
  139.7050   77.8070  222.2220 C   0  0  0  0  0  0  0  0  0  0  0  0
  138.8430   78.8790  222.7460 C   0  0  0  0  0  0  0  0  0  0  0  0
  137.4530   78.9120  222.7160 C   0  0  0  0  0  0  0  0  0  0  0  0
  136.9130   80.0680  223.2940 C   0  0  0  0  0  0  0  0  0  0  0  0
  137.8690   80.9470  223.7800 C   0  0  0  0  0  0  0  0  0  0  0  0
  139.3880   80.2860  223.4910 S   0  0  0  0  0  0  0  0  0  0  0  0
  139.5110   76.4330  222.4100 C   0  0  0  0  0  0  0  0  0  0  0  0
  140.5030   75.6700  221.7860 C   0  0  0  0  0  0  0  0  0  0  0  0
  142.9067   74.1913  217.8161 H   0  0  0  0  0  0  0  0  0  0  0  0
  144.4258   75.0982  218.1686 H   0  0  0  0  0  0  0  0  0  0  0  0
  144.1206   72.0998  217.6506 H   0  0  0  0  0  0  0  0  0  0  0  0
  144.9805   73.3233  216.6358 H   0  0  0  0  0  0  0  0  0  0  0  0
  144.9528   71.4067  219.5581 H   0  0  0  0  0  0  0  0  0  0  0  0
  146.5261   72.0366  220.1849 H   0  0  0  0  0  0  0  0  0  0  0  0
  144.4747   72.8826  221.4202 H   0  0  0  0  0  0  0  0  0  0  0  0
  145.5429   74.1662  220.7361 H   0  0  0  0  0  0  0  0  0  0  0  0
  136.8385   78.1098  222.2814 H   0  0  0  0  0  0  0  0  0  0  0  0
  135.8318   80.2605  223.3565 H   0  0  0  0  0  0  0  0  0  0  0  0
  137.6683   81.9110  224.2703 H   0  0  0  0  0  0  0  0  0  0  0  0
  138.6753   76.0037  222.9821 H   0  0  0  0  0  0  0  0  0  0  0  0
  1  2  2  0
  2  3  1  0
  3  4  2  0
  4  5  1  0
  5  6  1  0
  6  7  1  0
  7  8  1  0
  8  9  1  0
  9 10  1  0
  4 11  1  0
 11 12  1  0
 12 13  1  0
 13 14  1  0
 14 15  1  0
 15 16  2  0
 16 17  1  0
 17 18  2  0
 18 19  1  0
 14 20  2  0
 20 21  1  0
 21  2  1  0
 10  5  1  0
 21 12  2  0
 19 15  1  0
  6 22  1  0
  6 23  1  0
  7 24  1  0
  7 25  1  0
  9 26  1  0
  9 27  1  0
 10 28  1  0
 10 29  1  0
 16 30  1  0
 17 31  1  0
 18 32  1  0
 20 33  1  0
M  CHG  1  11  -1
M  END
>  <UniqueID>  (49) 
35

>  <SMILES>  (49) 
O=c1nc(N2CCOCC2)[n-]c2sc(-c3cccs3)cc12

>  <Energy>  (49) 
98.10198395345945

>  <Genealogy>  (49) 
O=c1nc(N2CCOCC2)[n-]c2sc(-c3cccs3)cc12 (protonated)
O=c1nc(N2CCOCC2)[n-]c2sc(-c3cccs3)cc12 (3D coordinates assigned)
O=c1nc(N2CCOCC2)[n-]c2sc(-c3cccs3)cc12 (nonaromatic ring conformer: 98.10198395345945 kcal/mol)

>  <smiles>  (49) 
O=c1nc(N2CCOCC2)[nH]c2sc(-c3cccs3)cc12

>  <score_type>  (49) 
oracle

>  <origin>  (49) 
autodockgpu

>  <m_score__min__energy>  (49) 
-5.9900000000000002

>  <m_primary>  (49) 
energy

>  <meeko>  (49) 
{"free_energy": -5.68, "intermolecular_energy": -6.28, "internal_energy": -0.42, "cluster_size": 4, "cluster_id": 2, "rank_in_cluster": 4}

>  <energy>  (49) 
-5.97

>  <cluster_rmsd>  (49) 
0.12

>  <rmsd>  (49) 
271.42

>  <cluster>  (49) 
1

$$$$
CFPRWASAHFAXRY-FWJFTDBINA-M
     RDKit          3D

 33 36  0  0  0  0  0  0  0  0999 V2000
  146.5720   73.3900  219.2580 O   0  0  0  0  0  0  0  0  0  0  0  0
  145.6070   72.6110  219.4810 C   0  0  0  0  0  0  0  0  0  0  0  0
  145.7660   71.2650  219.3370 N   0  0  0  0  0  0  0  0  0  0  0  0
  144.7410   70.3860  219.5700 C   0  0  0  0  0  0  0  0  0  0  0  0
  144.9480   68.9660  219.4070 N   0  0  0  0  0  0  0  0  0  0  0  0
  146.3150   68.4310  219.3490 C   0  0  0  0  0  0  0  0  0  0  0  0
  146.3290   67.0720  218.6430 C   0  0  0  0  0  0  0  0  0  0  0  0
  145.3660   66.2020  219.2020 O   0  0  0  0  0  0  0  0  0  0  0  0
  144.0720   66.7070  218.9430 C   0  0  0  0  0  0  0  0  0  0  0  0
  143.8460   68.0320  219.6770 C   0  0  0  0  0  0  0  0  0  0  0  0
  143.5200   70.8630  219.9600 N   0  0  0  0  0  0  0  0  0  0  0  0
  143.3500   72.1980  220.1080 C   0  0  0  0  0  0  0  0  0  0  0  0
  141.9520   72.9960  220.5730 S   0  0  0  0  0  0  0  0  0  0  0  0
  142.6470   74.5410  220.4840 C   0  0  0  0  0  0  0  0  0  0  0  0
  141.9380   75.7970  220.7810 C   0  0  0  0  0  0  0  0  0  0  0  0
  142.1450   77.0290  220.1690 C   0  0  0  0  0  0  0  0  0  0  0  0
  141.3160   78.0420  220.6670 C   0  0  0  0  0  0  0  0  0  0  0  0
  140.4560   77.6170  221.6690 C   0  0  0  0  0  0  0  0  0  0  0  0
  140.7270   75.9790  221.9350 S   0  0  0  0  0  0  0  0  0  0  0  0
  143.9850   74.4300  220.0860 C   0  0  0  0  0  0  0  0  0  0  0  0
  144.3650   73.1000  219.8780 C   0  0  0  0  0  0  0  0  0  0  0  0
  146.9555   69.1333  218.7953 H   0  0  0  0  0  0  0  0  0  0  0  0
  146.6911   68.3032  220.3748 H   0  0  0  0  0  0  0  0  0  0  0  0
  146.1054   67.2184  217.5760 H   0  0  0  0  0  0  0  0  0  0  0  0
  147.3244   66.6212  218.7693 H   0  0  0  0  0  0  0  0  0  0  0  0
  143.9591   66.8707  217.8611 H   0  0  0  0  0  0  0  0  0  0  0  0
  143.3314   65.9763  219.3002 H   0  0  0  0  0  0  0  0  0  0  0  0
  142.9010   68.4787  219.3343 H   0  0  0  0  0  0  0  0  0  0  0  0
  143.8034   67.8361  220.7586 H   0  0  0  0  0  0  0  0  0  0  0  0
  142.8864   77.1915  219.3728 H   0  0  0  0  0  0  0  0  0  0  0  0
  141.3442   79.0779  220.2980 H   0  0  0  0  0  0  0  0  0  0  0  0
  139.7230   78.2436  222.1983 H   0  0  0  0  0  0  0  0  0  0  0  0
  144.6590   75.2890  219.9524 H   0  0  0  0  0  0  0  0  0  0  0  0
  1  2  2  0
  2  3  1  0
  3  4  2  0
  4  5  1  0
  5  6  1  0
  6  7  1  0
  7  8  1  0
  8  9  1  0
  9 10  1  0
  4 11  1  0
 11 12  1  0
 12 13  1  0
 13 14  1  0
 14 15  1  0
 15 16  2  0
 16 17  1  0
 17 18  2  0
 18 19  1  0
 14 20  2  0
 20 21  1  0
 21  2  1  0
 10  5  1  0
 21 12  2  0
 19 15  1  0
  6 22  1  0
  6 23  1  0
  7 24  1  0
  7 25  1  0
  9 26  1  0
  9 27  1  0
 10 28  1  0
 10 29  1  0
 16 30  1  0
 17 31  1  0
 18 32  1  0
 20 33  1  0
M  CHG  1  11  -1
M  END
>  <UniqueID>  (50) 
35

>  <SMILES>  (50) 
O=c1nc(N2CCOCC2)[n-]c2sc(-c3cccs3)cc12

>  <Energy>  (50) 
98.10198395345945

>  <Genealogy>  (50) 
O=c1nc(N2CCOCC2)[n-]c2sc(-c3cccs3)cc12 (protonated)
O=c1nc(N2CCOCC2)[n-]c2sc(-c3cccs3)cc12 (3D coordinates assigned)
O=c1nc(N2CCOCC2)[n-]c2sc(-c3cccs3)cc12 (nonaromatic ring conformer: 98.10198395345945 kcal/mol)

>  <smiles>  (50) 
O=c1nc(N2CCOCC2)[nH]c2sc(-c3cccs3)cc12

>  <score_type>  (50) 
oracle

>  <origin>  (50) 
autodockgpu

>  <m_score__min__energy>  (50) 
-5.9900000000000002

>  <m_primary>  (50) 
energy

>  <meeko>  (50) 
{"free_energy": -5.98, "intermolecular_energy": -6.58, "internal_energy": -0.43, "cluster_size": 16, "cluster_id": 1, "rank_in_cluster": 5}

>  <energy>  (50) 
-5.97

>  <cluster_rmsd>  (50) 
0.14

>  <rmsd>  (50) 
271.39

>  <cluster>  (50) 
1

$$$$
CFPRWASAHFAXRY-FWJFTDBINA-M
     RDKit          3D

 33 36  0  0  0  0  0  0  0  0999 V2000
  146.5520   73.3900  219.1360 O   0  0  0  0  0  0  0  0  0  0  0  0
  145.5970   72.6110  219.4000 C   0  0  0  0  0  0  0  0  0  0  0  0
  145.7560   71.2640  219.2690 N   0  0  0  0  0  0  0  0  0  0  0  0
  144.7410   70.3850  219.5470 C   0  0  0  0  0  0  0  0  0  0  0  0
  144.9480   68.9640  219.3960 N   0  0  0  0  0  0  0  0  0  0  0  0
  146.3160   68.4280  219.3410 C   0  0  0  0  0  0  0  0  0  0  0  0
  146.3290   67.0630  218.6470 C   0  0  0  0  0  0  0  0  0  0  0  0
  145.3660   66.1990  219.2150 O   0  0  0  0  0  0  0  0  0  0  0  0
  144.0720   66.7010  218.9530 C   0  0  0  0  0  0  0  0  0  0  0  0
  143.8470   68.0330  219.6750 C   0  0  0  0  0  0  0  0  0  0  0  0
  143.5320   70.8640  219.9690 N   0  0  0  0  0  0  0  0  0  0  0  0
  143.3620   72.2000  220.1050 C   0  0  0  0  0  0  0  0  0  0  0  0
  141.9770   72.9990  220.6040 S   0  0  0  0  0  0  0  0  0  0  0  0
  142.6640   74.5460  220.4720 C   0  0  0  0  0  0  0  0  0  0  0  0
  141.9600   75.8040  220.7750 C   0  0  0  0  0  0  0  0  0  0  0  0
  142.1780   77.0390  220.1730 C   0  0  0  0  0  0  0  0  0  0  0  0
  141.3510   78.0520  220.6750 C   0  0  0  0  0  0  0  0  0  0  0  0
  140.4840   77.6240  221.6700 C   0  0  0  0  0  0  0  0  0  0  0  0
  140.7440   75.9830  221.9250 S   0  0  0  0  0  0  0  0  0  0  0  0
  143.9880   74.4340  220.0320 C   0  0  0  0  0  0  0  0  0  0  0  0
  144.3660   73.1020  219.8310 C   0  0  0  0  0  0  0  0  0  0  0  0
  146.9559   69.1254  218.7804 H   0  0  0  0  0  0  0  0  0  0  0  0
  146.6934   68.3092  220.3674 H   0  0  0  0  0  0  0  0  0  0  0  0
  146.1045   67.2000  217.5789 H   0  0  0  0  0  0  0  0  0  0  0  0
  147.3244   66.6128  218.7759 H   0  0  0  0  0  0  0  0  0  0  0  0
  143.9575   66.8545  217.8698 H   0  0  0  0  0  0  0  0  0  0  0  0
  143.3319   65.9736  219.3178 H   0  0  0  0  0  0  0  0  0  0  0  0
  142.9018   68.4767  219.3290 H   0  0  0  0  0  0  0  0  0  0  0  0
  143.8056   67.8469  220.7583 H   0  0  0  0  0  0  0  0  0  0  0  0
  142.9247   77.2035  219.3822 H   0  0  0  0  0  0  0  0  0  0  0  0
  141.3857   79.0904  220.3139 H   0  0  0  0  0  0  0  0  0  0  0  0
  139.7522   78.2508  222.2008 H   0  0  0  0  0  0  0  0  0  0  0  0
  144.6539   75.2933  219.8638 H   0  0  0  0  0  0  0  0  0  0  0  0
  1  2  2  0
  2  3  1  0
  3  4  2  0
  4  5  1  0
  5  6  1  0
  6  7  1  0
  7  8  1  0
  8  9  1  0
  9 10  1  0
  4 11  1  0
 11 12  1  0
 12 13  1  0
 13 14  1  0
 14 15  1  0
 15 16  2  0
 16 17  1  0
 17 18  2  0
 18 19  1  0
 14 20  2  0
 20 21  1  0
 21  2  1  0
 10  5  1  0
 21 12  2  0
 19 15  1  0
  6 22  1  0
  6 23  1  0
  7 24  1  0
  7 25  1  0
  9 26  1  0
  9 27  1  0
 10 28  1  0
 10 29  1  0
 16 30  1  0
 17 31  1  0
 18 32  1  0
 20 33  1  0
M  CHG  1  11  -1
M  END
>  <UniqueID>  (51) 
35

>  <SMILES>  (51) 
O=c1nc(N2CCOCC2)[n-]c2sc(-c3cccs3)cc12

>  <Energy>  (51) 
98.10198395345945

>  <Genealogy>  (51) 
O=c1nc(N2CCOCC2)[n-]c2sc(-c3cccs3)cc12 (protonated)
O=c1nc(N2CCOCC2)[n-]c2sc(-c3cccs3)cc12 (3D coordinates assigned)
O=c1nc(N2CCOCC2)[n-]c2sc(-c3cccs3)cc12 (nonaromatic ring conformer: 98.10198395345945 kcal/mol)

>  <smiles>  (51) 
O=c1nc(N2CCOCC2)[nH]c2sc(-c3cccs3)cc12

>  <score_type>  (51) 
oracle

>  <origin>  (51) 
autodockgpu

>  <m_score__min__energy>  (51) 
-5.9900000000000002

>  <m_primary>  (51) 
energy

>  <meeko>  (51) 
{"free_energy": -5.99, "intermolecular_energy": -6.59, "internal_energy": -0.43, "cluster_size": 16, "cluster_id": 1, "rank_in_cluster": 1}

>  <energy>  (51) 
-5.96

>  <cluster_rmsd>  (51) 
0.7

>  <rmsd>  (51) 
271.32

>  <cluster>  (51) 
1

$$$$
CFPRWASAHFAXRY-FWJFTDBINA-M
     RDKit          3D

 33 36  0  0  0  0  0  0  0  0999 V2000
  146.5370   73.3930  219.0400 O   0  0  0  0  0  0  0  0  0  0  0  0
  145.5890   72.6160  219.3330 C   0  0  0  0  0  0  0  0  0  0  0  0
  145.7480   71.2670  219.2150 N   0  0  0  0  0  0  0  0  0  0  0  0
  144.7400   70.3910  219.5250 C   0  0  0  0  0  0  0  0  0  0  0  0
  144.9470   68.9680  219.3870 N   0  0  0  0  0  0  0  0  0  0  0  0
  146.3140   68.4290  219.3540 C   0  0  0  0  0  0  0  0  0  0  0  0
  146.3340   67.0590  218.6720 C   0  0  0  0  0  0  0  0  0  0  0  0
  145.3620   66.2010  219.2330 O   0  0  0  0  0  0  0  0  0  0  0  0
  144.0720   66.7030  218.9500 C   0  0  0  0  0  0  0  0  0  0  0  0
  143.8400   68.0410  219.6590 C   0  0  0  0  0  0  0  0  0  0  0  0
  143.5390   70.8730  219.9650 N   0  0  0  0  0  0  0  0  0  0  0  0
  143.3700   72.2100  220.0870 C   0  0  0  0  0  0  0  0  0  0  0  0
  141.9930   73.0140  220.6040 S   0  0  0  0  0  0  0  0  0  0  0  0
  142.6750   74.5600  220.4390 C   0  0  0  0  0  0  0  0  0  0  0  0
  141.9750   75.8200  220.7410 C   0  0  0  0  0  0  0  0  0  0  0  0
  142.1980   77.0540  220.1390 C   0  0  0  0  0  0  0  0  0  0  0  0
  141.3750   78.0710  220.6390 C   0  0  0  0  0  0  0  0  0  0  0  0
  140.5040   77.6460  221.6320 C   0  0  0  0  0  0  0  0  0  0  0  0
  140.7580   76.0040  221.8880 S   0  0  0  0  0  0  0  0  0  0  0  0
  143.9910   74.4440  219.9750 C   0  0  0  0  0  0  0  0  0  0  0  0
  144.3660   73.1100  219.7820 C   0  0  0  0  0  0  0  0  0  0  0  0
  146.9624   69.1206  218.7960 H   0  0  0  0  0  0  0  0  0  0  0  0
  146.6774   68.3177  220.3863 H   0  0  0  0  0  0  0  0  0  0  0  0
  146.1247   67.1876  217.5998 H   0  0  0  0  0  0  0  0  0  0  0  0
  147.3266   66.6083  218.8190 H   0  0  0  0  0  0  0  0  0  0  0  0
  143.9720   66.8484  217.8642 H   0  0  0  0  0  0  0  0  0  0  0  0
  143.3258   65.9796  219.3104 H   0  0  0  0  0  0  0  0  0  0  0  0
  142.9003   68.4838  219.2973 H   0  0  0  0  0  0  0  0  0  0  0  0
  143.7839   67.8633  220.7431 H   0  0  0  0  0  0  0  0  0  0  0  0
  142.9462   77.2151  219.3489 H   0  0  0  0  0  0  0  0  0  0  0  0
  141.4153   79.1094  220.2783 H   0  0  0  0  0  0  0  0  0  0  0  0
  139.7730   78.2753  222.1608 H   0  0  0  0  0  0  0  0  0  0  0  0
  144.6528   75.3017  219.7845 H   0  0  0  0  0  0  0  0  0  0  0  0
  1  2  2  0
  2  3  1  0
  3  4  2  0
  4  5  1  0
  5  6  1  0
  6  7  1  0
  7  8  1  0
  8  9  1  0
  9 10  1  0
  4 11  1  0
 11 12  1  0
 12 13  1  0
 13 14  1  0
 14 15  1  0
 15 16  2  0
 16 17  1  0
 17 18  2  0
 18 19  1  0
 14 20  2  0
 20 21  1  0
 21  2  1  0
 10  5  1  0
 21 12  2  0
 19 15  1  0
  6 22  1  0
  6 23  1  0
  7 24  1  0
  7 25  1  0
  9 26  1  0
  9 27  1  0
 10 28  1  0
 10 29  1  0
 16 30  1  0
 17 31  1  0
 18 32  1  0
 20 33  1  0
M  CHG  1  11  -1
M  END
>  <UniqueID>  (52) 
35

>  <SMILES>  (52) 
O=c1nc(N2CCOCC2)[n-]c2sc(-c3cccs3)cc12

>  <Energy>  (52) 
98.10198395345945

>  <Genealogy>  (52) 
O=c1nc(N2CCOCC2)[n-]c2sc(-c3cccs3)cc12 (protonated)
O=c1nc(N2CCOCC2)[n-]c2sc(-c3cccs3)cc12 (3D coordinates assigned)
O=c1nc(N2CCOCC2)[n-]c2sc(-c3cccs3)cc12 (nonaromatic ring conformer: 98.10198395345945 kcal/mol)

>  <smiles>  (52) 
O=c1nc(N2CCOCC2)[nH]c2sc(-c3cccs3)cc12

>  <score_type>  (52) 
oracle

>  <origin>  (52) 
autodockgpu

>  <m_score__min__energy>  (52) 
-5.9900000000000002

>  <m_primary>  (52) 
energy

>  <meeko>  (52) 
{"free_energy": -5.99, "intermolecular_energy": -6.58, "internal_energy": -0.43, "cluster_size": 16, "cluster_id": 1, "rank_in_cluster": 4}

>  <energy>  (52) 
-5.95

>  <cluster_rmsd>  (52) 
0.68

>  <rmsd>  (52) 
271.42

>  <cluster>  (52) 
1

$$$$
CFPRWASAHFAXRY-FWJFTDBINA-M
     RDKit          3D

 33 36  0  0  0  0  0  0  0  0999 V2000
  146.5270   73.3760  219.2730 O   0  0  0  0  0  0  0  0  0  0  0  0
  145.5640   72.5870  219.4680 C   0  0  0  0  0  0  0  0  0  0  0  0
  145.7300   71.2470  219.2850 N   0  0  0  0  0  0  0  0  0  0  0  0
  144.7070   70.3570  219.4870 C   0  0  0  0  0  0  0  0  0  0  0  0
  144.9210   68.9440  219.2830 N   0  0  0  0  0  0  0  0  0  0  0  0
  146.2830   68.3950  219.3520 C   0  0  0  0  0  0  0  0  0  0  0  0
  146.3660   67.0690  218.5920 C   0  0  0  0  0  0  0  0  0  0  0  0
  145.3410   66.1870  219.0000 O   0  0  0  0  0  0  0  0  0  0  0  0
  144.0870   66.7180  218.6220 C   0  0  0  0  0  0  0  0  0  0  0  0
  143.7900   68.0120  219.3860 C   0  0  0  0  0  0  0  0  0  0  0  0
  143.4820   70.8170  219.8840 N   0  0  0  0  0  0  0  0  0  0  0  0
  143.3060   72.1460  220.0700 C   0  0  0  0  0  0  0  0  0  0  0  0
  141.9010   72.9240  220.5510 S   0  0  0  0  0  0  0  0  0  0  0  0
  142.5910   74.4750  220.5110 C   0  0  0  0  0  0  0  0  0  0  0  0
  141.8740   75.7180  220.8420 C   0  0  0  0  0  0  0  0  0  0  0  0
  140.9930   75.9080  221.9020 C   0  0  0  0  0  0  0  0  0  0  0  0
  140.4660   77.2040  221.9590 C   0  0  0  0  0  0  0  0  0  0  0  0
  140.9250   78.0380  220.9500 C   0  0  0  0  0  0  0  0  0  0  0  0
  141.9890   77.1620  219.9870 S   0  0  0  0  0  0  0  0  0  0  0  0
  143.9310   74.3810  220.1170 C   0  0  0  0  0  0  0  0  0  0  0  0
  144.3170   73.0590  219.8730 C   0  0  0  0  0  0  0  0  0  0  0  0
  146.9858   69.1132  218.9046 H   0  0  0  0  0  0  0  0  0  0  0  0
  146.5419   68.2174  220.4063 H   0  0  0  0  0  0  0  0  0  0  0  0
  146.2642   67.2650  217.5144 H   0  0  0  0  0  0  0  0  0  0  0  0
  147.3378   66.6012  218.8083 H   0  0  0  0  0  0  0  0  0  0  0  0
  144.0963   66.9307  217.5428 H   0  0  0  0  0  0  0  0  0  0  0  0
  143.3062   65.9810  218.8610 H   0  0  0  0  0  0  0  0  0  0  0  0
  142.8921   68.4847  218.9613 H   0  0  0  0  0  0  0  0  0  0  0  0
  143.6263   67.7685  220.4461 H   0  0  0  0  0  0  0  0  0  0  0  0
  140.7360   75.1185  222.6236 H   0  0  0  0  0  0  0  0  0  0  0  0
  139.7544   77.5303  222.7318 H   0  0  0  0  0  0  0  0  0  0  0  0
  140.6417   79.0909  220.8049 H   0  0  0  0  0  0  0  0  0  0  0  0
  144.6022   75.2461  220.0116 H   0  0  0  0  0  0  0  0  0  0  0  0
  1  2  2  0
  2  3  1  0
  3  4  2  0
  4  5  1  0
  5  6  1  0
  6  7  1  0
  7  8  1  0
  8  9  1  0
  9 10  1  0
  4 11  1  0
 11 12  1  0
 12 13  1  0
 13 14  1  0
 14 15  1  0
 15 16  2  0
 16 17  1  0
 17 18  2  0
 18 19  1  0
 14 20  2  0
 20 21  1  0
 21  2  1  0
 10  5  1  0
 21 12  2  0
 19 15  1  0
  6 22  1  0
  6 23  1  0
  7 24  1  0
  7 25  1  0
  9 26  1  0
  9 27  1  0
 10 28  1  0
 10 29  1  0
 16 30  1  0
 17 31  1  0
 18 32  1  0
 20 33  1  0
M  CHG  1  11  -1
M  END
>  <UniqueID>  (53) 
35

>  <SMILES>  (53) 
O=c1nc(N2CCOCC2)[n-]c2sc(-c3cccs3)cc12

>  <Energy>  (53) 
98.10198395345945

>  <Genealogy>  (53) 
O=c1nc(N2CCOCC2)[n-]c2sc(-c3cccs3)cc12 (protonated)
O=c1nc(N2CCOCC2)[n-]c2sc(-c3cccs3)cc12 (3D coordinates assigned)
O=c1nc(N2CCOCC2)[n-]c2sc(-c3cccs3)cc12 (nonaromatic ring conformer: 98.10198395345945 kcal/mol)

>  <smiles>  (53) 
O=c1nc(N2CCOCC2)[nH]c2sc(-c3cccs3)cc12

>  <score_type>  (53) 
oracle

>  <origin>  (53) 
autodockgpu

>  <m_score__min__energy>  (53) 
-5.9900000000000002

>  <m_primary>  (53) 
energy

>  <meeko>  (53) 
{"free_energy": -5.95, "intermolecular_energy": -6.54, "internal_energy": -0.43, "cluster_size": 16, "cluster_id": 1, "rank_in_cluster": 14}

>  <energy>  (53) 
-5.95

>  <cluster_rmsd>  (53) 
0.69

>  <rmsd>  (53) 
271.4

>  <cluster>  (53) 
1

$$$$
CFPRWASAHFAXRY-FWJFTDBINA-M
     RDKit          3D

 33 36  0  0  0  0  0  0  0  0999 V2000
  139.8670   73.6130  222.3370 O   0  0  0  0  0  0  0  0  0  0  0  0
  140.6850   74.3730  221.7540 C   0  0  0  0  0  0  0  0  0  0  0  0
  141.7500   73.8480  221.0840 N   0  0  0  0  0  0  0  0  0  0  0  0
  142.6610   74.6420  220.4380 C   0  0  0  0  0  0  0  0  0  0  0  0
  143.7760   74.0490  219.7380 N   0  0  0  0  0  0  0  0  0  0  0  0
  143.8310   74.1070  218.2700 C   0  0  0  0  0  0  0  0  0  0  0  0
  144.7330   72.9970  217.7230 C   0  0  0  0  0  0  0  0  0  0  0  0
  145.9880   73.0000  218.3720 O   0  0  0  0  0  0  0  0  0  0  0  0
  145.8140   72.6580  219.7320 C   0  0  0  0  0  0  0  0  0  0  0  0
  145.0130   73.7360  220.4680 C   0  0  0  0  0  0  0  0  0  0  0  0
  142.5060   76.0010  220.4590 N   0  0  0  0  0  0  0  0  0  0  0  0
  141.4530   76.5340  221.1210 C   0  0  0  0  0  0  0  0  0  0  0  0
  141.0710   78.1580  221.2760 S   0  0  0  0  0  0  0  0  0  0  0  0
  139.6800   77.8770  222.2070 C   0  0  0  0  0  0  0  0  0  0  0  0
  138.7940   78.9320  222.7280 C   0  0  0  0  0  0  0  0  0  0  0  0
  137.4030   78.9350  222.6940 C   0  0  0  0  0  0  0  0  0  0  0  0
  136.8380   80.0800  223.2690 C   0  0  0  0  0  0  0  0  0  0  0  0
  137.7740   80.9800  223.7570 C   0  0  0  0  0  0  0  0  0  0  0  0
  139.3070   80.3510  223.4730 S   0  0  0  0  0  0  0  0  0  0  0  0
  139.5150   76.5000  222.3990 C   0  0  0  0  0  0  0  0  0  0  0  0
  140.5250   75.7570  221.7780 C   0  0  0  0  0  0  0  0  0  0  0  0
  142.8162   73.9816  217.8645 H   0  0  0  0  0  0  0  0  0  0  0  0
  144.2424   75.0813  217.9676 H   0  0  0  0  0  0  0  0  0  0  0  0
  144.2459   72.0243  217.8859 H   0  0  0  0  0  0  0  0  0  0  0  0
  144.8929   73.1721  216.6489 H   0  0  0  0  0  0  0  0  0  0  0  0
  145.2748   71.7014  219.7967 H   0  0  0  0  0  0  0  0  0  0  0  0
  146.8045   72.5731  220.2027 H   0  0  0  0  0  0  0  0  0  0  0  0
  144.7571   73.3727  221.4742 H   0  0  0  0  0  0  0  0  0  0  0  0
  145.6247   74.6476  220.5373 H   0  0  0  0  0  0  0  0  0  0  0  0
  136.8067   78.1194  222.2589 H   0  0  0  0  0  0  0  0  0  0  0  0
  135.7528   80.2500  223.3282 H   0  0  0  0  0  0  0  0  0  0  0  0
  137.5515   81.9400  224.2457 H   0  0  0  0  0  0  0  0  0  0  0  0
  138.6880   76.0543  222.9712 H   0  0  0  0  0  0  0  0  0  0  0  0
  1  2  2  0
  2  3  1  0
  3  4  2  0
  4  5  1  0
  5  6  1  0
  6  7  1  0
  7  8  1  0
  8  9  1  0
  9 10  1  0
  4 11  1  0
 11 12  1  0
 12 13  1  0
 13 14  1  0
 14 15  1  0
 15 16  2  0
 16 17  1  0
 17 18  2  0
 18 19  1  0
 14 20  2  0
 20 21  1  0
 21  2  1  0
 10  5  1  0
 21 12  2  0
 19 15  1  0
  6 22  1  0
  6 23  1  0
  7 24  1  0
  7 25  1  0
  9 26  1  0
  9 27  1  0
 10 28  1  0
 10 29  1  0
 16 30  1  0
 17 31  1  0
 18 32  1  0
 20 33  1  0
M  CHG  1  11  -1
M  END
>  <UniqueID>  (54) 
35

>  <SMILES>  (54) 
O=c1nc(N2CCOCC2)[n-]c2sc(-c3cccs3)cc12

>  <Energy>  (54) 
98.10198395345945

>  <Genealogy>  (54) 
O=c1nc(N2CCOCC2)[n-]c2sc(-c3cccs3)cc12 (protonated)
O=c1nc(N2CCOCC2)[n-]c2sc(-c3cccs3)cc12 (3D coordinates assigned)
O=c1nc(N2CCOCC2)[n-]c2sc(-c3cccs3)cc12 (nonaromatic ring conformer: 98.10198395345945 kcal/mol)

>  <smiles>  (54) 
O=c1nc(N2CCOCC2)[nH]c2sc(-c3cccs3)cc12

>  <score_type>  (54) 
oracle

>  <origin>  (54) 
autodockgpu

>  <m_score__min__energy>  (54) 
-5.9900000000000002

>  <m_primary>  (54) 
energy

>  <meeko>  (54) 
{"free_energy": -5.69, "intermolecular_energy": -6.28, "internal_energy": -0.42, "cluster_size": 4, "cluster_id": 2, "rank_in_cluster": 2}

>  <energy>  (54) 
-5.95

>  <cluster_rmsd>  (54) 
0.68

>  <rmsd>  (54) 
271.4

>  <cluster>  (54) 
1

$$$$
CFPRWASAHFAXRY-FWJFTDBINA-M
     RDKit          3D

 33 36  0  0  0  0  0  0  0  0999 V2000
  139.8540   73.6340  222.3340 O   0  0  0  0  0  0  0  0  0  0  0  0
  140.6750   74.3900  221.7490 C   0  0  0  0  0  0  0  0  0  0  0  0
  141.7370   73.8600  221.0790 N   0  0  0  0  0  0  0  0  0  0  0  0
  142.6510   74.6500  220.4320 C   0  0  0  0  0  0  0  0  0  0  0  0
  143.7630   74.0510  219.7320 N   0  0  0  0  0  0  0  0  0  0  0  0
  143.8130   74.1000  218.2640 C   0  0  0  0  0  0  0  0  0  0  0  0
  144.7120   72.9860  217.7200 C   0  0  0  0  0  0  0  0  0  0  0  0
  145.9690   72.9920  218.3650 O   0  0  0  0  0  0  0  0  0  0  0  0
  145.7990   72.6580  219.7270 C   0  0  0  0  0  0  0  0  0  0  0  0
  145.0020   73.7420  220.4600 C   0  0  0  0  0  0  0  0  0  0  0  0
  142.5020   76.0090  220.4520 N   0  0  0  0  0  0  0  0  0  0  0  0
  141.4510   76.5470  221.1140 C   0  0  0  0  0  0  0  0  0  0  0  0
  141.0760   78.1730  221.2670 S   0  0  0  0  0  0  0  0  0  0  0  0
  139.6850   77.8990  222.2000 C   0  0  0  0  0  0  0  0  0  0  0  0
  138.8030   78.9580  222.7210 C   0  0  0  0  0  0  0  0  0  0  0  0
  137.4120   78.9690  222.6830 C   0  0  0  0  0  0  0  0  0  0  0  0
  136.8520   80.1160  223.2590 C   0  0  0  0  0  0  0  0  0  0  0  0
  137.7920   81.0100  223.7500 C   0  0  0  0  0  0  0  0  0  0  0  0
  139.3220   80.3730  223.4680 S   0  0  0  0  0  0  0  0  0  0  0  0
  139.5140   76.5230  222.3930 C   0  0  0  0  0  0  0  0  0  0  0  0
  140.5210   75.7750  221.7720 C   0  0  0  0  0  0  0  0  0  0  0  0
  142.7966   73.9732  217.8628 H   0  0  0  0  0  0  0  0  0  0  0  0
  144.2246   75.0720  217.9545 H   0  0  0  0  0  0  0  0  0  0  0  0
  144.2246   72.0146  217.8901 H   0  0  0  0  0  0  0  0  0  0  0  0
  144.8683   73.1545  216.6443 H   0  0  0  0  0  0  0  0  0  0  0  0
  145.2583   71.7027  219.7989 H   0  0  0  0  0  0  0  0  0  0  0  0
  146.7910   72.5740  220.1949 H   0  0  0  0  0  0  0  0  0  0  0  0
  144.7494   73.3853  221.4694 H   0  0  0  0  0  0  0  0  0  0  0  0
  145.6148   74.6534  220.5222 H   0  0  0  0  0  0  0  0  0  0  0  0
  136.8123   78.1578  222.2444 H   0  0  0  0  0  0  0  0  0  0  0  0
  135.7677   80.2916  223.3167 H   0  0  0  0  0  0  0  0  0  0  0  0
  137.5739   81.9705  224.2397 H   0  0  0  0  0  0  0  0  0  0  0  0
  138.6852   76.0813  222.9657 H   0  0  0  0  0  0  0  0  0  0  0  0
  1  2  2  0
  2  3  1  0
  3  4  2  0
  4  5  1  0
  5  6  1  0
  6  7  1  0
  7  8  1  0
  8  9  1  0
  9 10  1  0
  4 11  1  0
 11 12  1  0
 12 13  1  0
 13 14  1  0
 14 15  1  0
 15 16  2  0
 16 17  1  0
 17 18  2  0
 18 19  1  0
 14 20  2  0
 20 21  1  0
 21  2  1  0
 10  5  1  0
 21 12  2  0
 19 15  1  0
  6 22  1  0
  6 23  1  0
  7 24  1  0
  7 25  1  0
  9 26  1  0
  9 27  1  0
 10 28  1  0
 10 29  1  0
 16 30  1  0
 17 31  1  0
 18 32  1  0
 20 33  1  0
M  CHG  1  11  -1
M  END
>  <UniqueID>  (55) 
35

>  <SMILES>  (55) 
O=c1nc(N2CCOCC2)[n-]c2sc(-c3cccs3)cc12

>  <Energy>  (55) 
98.10198395345945

>  <Genealogy>  (55) 
O=c1nc(N2CCOCC2)[n-]c2sc(-c3cccs3)cc12 (protonated)
O=c1nc(N2CCOCC2)[n-]c2sc(-c3cccs3)cc12 (3D coordinates assigned)
O=c1nc(N2CCOCC2)[n-]c2sc(-c3cccs3)cc12 (nonaromatic ring conformer: 98.10198395345945 kcal/mol)

>  <smiles>  (55) 
O=c1nc(N2CCOCC2)[nH]c2sc(-c3cccs3)cc12

>  <score_type>  (55) 
oracle

>  <origin>  (55) 
autodockgpu

>  <m_score__min__energy>  (55) 
-5.9900000000000002

>  <m_primary>  (55) 
energy

>  <meeko>  (55) 
{"free_energy": -5.68, "intermolecular_energy": -6.28, "internal_energy": -0.42, "cluster_size": 4, "cluster_id": 2, "rank_in_cluster": 3}

>  <energy>  (55) 
-5.94

>  <cluster_rmsd>  (55) 
0.89

>  <rmsd>  (55) 
271.45

>  <cluster>  (55) 
1

$$$$
CFPRWASAHFAXRY-FWJFTDBINA-M
     RDKit          3D

 33 36  0  0  0  0  0  0  0  0999 V2000
  139.8680   73.6150  222.3400 O   0  0  0  0  0  0  0  0  0  0  0  0
  140.6870   74.3760  221.7600 C   0  0  0  0  0  0  0  0  0  0  0  0
  141.7560   73.8540  221.0950 N   0  0  0  0  0  0  0  0  0  0  0  0
  142.6680   74.6500  220.4520 C   0  0  0  0  0  0  0  0  0  0  0  0
  143.7870   74.0590  219.7570 N   0  0  0  0  0  0  0  0  0  0  0  0
  143.8370   74.0970  218.2880 C   0  0  0  0  0  0  0  0  0  0  0  0
  144.7480   72.9900  217.7530 C   0  0  0  0  0  0  0  0  0  0  0  0
  146.0050   73.0150  218.3980 O   0  0  0  0  0  0  0  0  0  0  0  0
  145.8380   72.6890  219.7630 C   0  0  0  0  0  0  0  0  0  0  0  0
  145.0280   73.7680  220.4870 C   0  0  0  0  0  0  0  0  0  0  0  0
  142.5090   76.0080  220.4730 N   0  0  0  0  0  0  0  0  0  0  0  0
  141.4520   76.5390  221.1290 C   0  0  0  0  0  0  0  0  0  0  0  0
  141.0660   78.1620  221.2830 S   0  0  0  0  0  0  0  0  0  0  0  0
  139.6720   77.8780  222.2090 C   0  0  0  0  0  0  0  0  0  0  0  0
  138.7820   78.9310  222.7260 C   0  0  0  0  0  0  0  0  0  0  0  0
  137.3900   78.9300  222.6880 C   0  0  0  0  0  0  0  0  0  0  0  0
  136.8200   80.0740  223.2600 C   0  0  0  0  0  0  0  0  0  0  0  0
  137.7520   80.9780  223.7490 C   0  0  0  0  0  0  0  0  0  0  0  0
  139.2880   80.3530  223.4690 S   0  0  0  0  0  0  0  0  0  0  0  0
  139.5090   76.5010  222.3990 C   0  0  0  0  0  0  0  0  0  0  0  0
  140.5230   75.7600  221.7830 C   0  0  0  0  0  0  0  0  0  0  0  0
  142.8223   73.9556  217.8876 H   0  0  0  0  0  0  0  0  0  0  0  0
  144.2378   75.0712  217.9712 H   0  0  0  0  0  0  0  0  0  0  0  0
  144.2716   72.0145  217.9305 H   0  0  0  0  0  0  0  0  0  0  0  0
  144.9026   73.1522  216.6761 H   0  0  0  0  0  0  0  0  0  0  0  0
  145.3089   71.7278  219.8417 H   0  0  0  0  0  0  0  0  0  0  0  0
  146.8306   72.6205  220.2321 H   0  0  0  0  0  0  0  0  0  0  0  0
  144.7783   73.4150  221.4985 H   0  0  0  0  0  0  0  0  0  0  0  0
  145.6306   74.6865  220.5428 H   0  0  0  0  0  0  0  0  0  0  0  0
  136.7973   78.1122  222.2522 H   0  0  0  0  0  0  0  0  0  0  0  0
  135.7341   80.2405  223.3164 H   0  0  0  0  0  0  0  0  0  0  0  0
  137.5253   81.9380  224.2359 H   0  0  0  0  0  0  0  0  0  0  0  0
  138.6799   76.0535  222.9667 H   0  0  0  0  0  0  0  0  0  0  0  0
  1  2  2  0
  2  3  1  0
  3  4  2  0
  4  5  1  0
  5  6  1  0
  6  7  1  0
  7  8  1  0
  8  9  1  0
  9 10  1  0
  4 11  1  0
 11 12  1  0
 12 13  1  0
 13 14  1  0
 14 15  1  0
 15 16  2  0
 16 17  1  0
 17 18  2  0
 18 19  1  0
 14 20  2  0
 20 21  1  0
 21  2  1  0
 10  5  1  0
 21 12  2  0
 19 15  1  0
  6 22  1  0
  6 23  1  0
  7 24  1  0
  7 25  1  0
  9 26  1  0
  9 27  1  0
 10 28  1  0
 10 29  1  0
 16 30  1  0
 17 31  1  0
 18 32  1  0
 20 33  1  0
M  CHG  1  11  -1
M  END
>  <UniqueID>  (56) 
35

>  <SMILES>  (56) 
O=c1nc(N2CCOCC2)[n-]c2sc(-c3cccs3)cc12

>  <Energy>  (56) 
98.10198395345945

>  <Genealogy>  (56) 
O=c1nc(N2CCOCC2)[n-]c2sc(-c3cccs3)cc12 (protonated)
O=c1nc(N2CCOCC2)[n-]c2sc(-c3cccs3)cc12 (3D coordinates assigned)
O=c1nc(N2CCOCC2)[n-]c2sc(-c3cccs3)cc12 (nonaromatic ring conformer: 98.10198395345945 kcal/mol)

>  <smiles>  (56) 
O=c1nc(N2CCOCC2)[nH]c2sc(-c3cccs3)cc12

>  <score_type>  (56) 
oracle

>  <origin>  (56) 
autodockgpu

>  <m_score__min__energy>  (56) 
-5.9900000000000002

>  <m_primary>  (56) 
energy

>  <meeko>  (56) 
{"free_energy": -5.69, "intermolecular_energy": -6.29, "internal_energy": -0.42, "cluster_size": 4, "cluster_id": 2, "rank_in_cluster": 1}

>  <energy>  (56) 
-5.87

>  <cluster_rmsd>  (56) 
1.06

>  <rmsd>  (56) 
271.45

>  <cluster>  (56) 
1

$$$$
CFPRWASAHFAXRY-FWJFTDBINA-M
     RDKit          3D

 33 36  0  0  0  0  0  0  0  0999 V2000
  146.6310   73.3860  219.3140 O   0  0  0  0  0  0  0  0  0  0  0  0
  145.6480   72.6170  219.4850 C   0  0  0  0  0  0  0  0  0  0  0  0
  145.7940   71.2720  219.3210 N   0  0  0  0  0  0  0  0  0  0  0  0
  144.7490   70.4030  219.4970 C   0  0  0  0  0  0  0  0  0  0  0  0
  144.9430   68.9840  219.3150 N   0  0  0  0  0  0  0  0  0  0  0  0
  146.3020   68.4240  219.3490 C   0  0  0  0  0  0  0  0  0  0  0  0
  146.3470   67.0820  218.6120 C   0  0  0  0  0  0  0  0  0  0  0  0
  145.3280   66.2190  219.0730 O   0  0  0  0  0  0  0  0  0  0  0  0
  144.0670   66.7540  218.7280 C   0  0  0  0  0  0  0  0  0  0  0  0
  143.8080   68.0660  219.4750 C   0  0  0  0  0  0  0  0  0  0  0  0
  143.5200   70.8900  219.8490 N   0  0  0  0  0  0  0  0  0  0  0  0
  143.3630   72.2240  220.0160 C   0  0  0  0  0  0  0  0  0  0  0  0
  141.9580   73.0320  220.4430 S   0  0  0  0  0  0  0  0  0  0  0  0
  142.6770   74.5700  220.4100 C   0  0  0  0  0  0  0  0  0  0  0  0
  141.9740   75.8300  220.7050 C   0  0  0  0  0  0  0  0  0  0  0  0
  142.1850   77.0590  220.0870 C   0  0  0  0  0  0  0  0  0  0  0  0
  141.3610   78.0760  220.5840 C   0  0  0  0  0  0  0  0  0  0  0  0
  140.5010   77.6580  221.5890 C   0  0  0  0  0  0  0  0  0  0  0  0
  140.7670   76.0210  221.8610 S   0  0  0  0  0  0  0  0  0  0  0  0
  144.0280   74.4480  220.0620 C   0  0  0  0  0  0  0  0  0  0  0  0
  144.3970   73.1160  219.8430 C   0  0  0  0  0  0  0  0  0  0  0  0
  146.9955   69.1268  218.8642 H   0  0  0  0  0  0  0  0  0  0  0  0
  146.5953   68.2646  220.3971 H   0  0  0  0  0  0  0  0  0  0  0  0
  146.2099   67.2579  217.5349 H   0  0  0  0  0  0  0  0  0  0  0  0
  147.3214   66.6087  218.8032 H   0  0  0  0  0  0  0  0  0  0  0  0
  144.0406   66.9447  217.6450 H   0  0  0  0  0  0  0  0  0  0  0  0
  143.2885   66.0295  219.0091 H   0  0  0  0  0  0  0  0  0  0  0  0
  142.9007   68.5390  219.0712 H   0  0  0  0  0  0  0  0  0  0  0  0
  143.6780   67.8455  220.5448 H   0  0  0  0  0  0  0  0  0  0  0  0
  142.9249   77.2156  219.2882 H   0  0  0  0  0  0  0  0  0  0  0  0
  141.3926   79.1107  220.2120 H   0  0  0  0  0  0  0  0  0  0  0  0
  139.7709   78.2891  222.1169 H   0  0  0  0  0  0  0  0  0  0  0  0
  144.7184   75.2996  219.9714 H   0  0  0  0  0  0  0  0  0  0  0  0
  1  2  2  0
  2  3  1  0
  3  4  2  0
  4  5  1  0
  5  6  1  0
  6  7  1  0
  7  8  1  0
  8  9  1  0
  9 10  1  0
  4 11  1  0
 11 12  1  0
 12 13  1  0
 13 14  1  0
 14 15  1  0
 15 16  2  0
 16 17  1  0
 17 18  2  0
 18 19  1  0
 14 20  2  0
 20 21  1  0
 21  2  1  0
 10  5  1  0
 21 12  2  0
 19 15  1  0
  6 22  1  0
  6 23  1  0
  7 24  1  0
  7 25  1  0
  9 26  1  0
  9 27  1  0
 10 28  1  0
 10 29  1  0
 16 30  1  0
 17 31  1  0
 18 32  1  0
 20 33  1  0
M  CHG  1  11  -1
M  END
>  <UniqueID>  (57) 
35

>  <SMILES>  (57) 
O=c1nc(N2CCOCC2)[n-]c2sc(-c3cccs3)cc12

>  <Energy>  (57) 
98.10198395345945

>  <Genealogy>  (57) 
O=c1nc(N2CCOCC2)[n-]c2sc(-c3cccs3)cc12 (protonated)
O=c1nc(N2CCOCC2)[n-]c2sc(-c3cccs3)cc12 (3D coordinates assigned)
O=c1nc(N2CCOCC2)[n-]c2sc(-c3cccs3)cc12 (nonaromatic ring conformer: 98.10198395345945 kcal/mol)

>  <smiles>  (57) 
O=c1nc(N2CCOCC2)[nH]c2sc(-c3cccs3)cc12

>  <score_type>  (57) 
oracle

>  <origin>  (57) 
autodockgpu

>  <m_score__min__energy>  (57) 
-5.9900000000000002

>  <m_primary>  (57) 
energy

>  <meeko>  (57) 
{"free_energy": -5.97, "intermolecular_energy": -6.56, "internal_energy": -0.43, "cluster_size": 16, "cluster_id": 1, "rank_in_cluster": 9}

>  <energy>  (57) 
-5.69

>  <cluster_rmsd>  (57) 
0.0

>  <rmsd>  (57) 
272.26

>  <cluster>  (57) 
2

$$$$
CFPRWASAHFAXRY-FWJFTDBINA-M
     RDKit          3D

 33 36  0  0  0  0  0  0  0  0999 V2000
  146.5210   73.3760  219.3230 O   0  0  0  0  0  0  0  0  0  0  0  0
  145.5510   72.5910  219.5020 C   0  0  0  0  0  0  0  0  0  0  0  0
  145.7110   71.2510  219.3100 N   0  0  0  0  0  0  0  0  0  0  0  0
  144.6810   70.3660  219.4940 C   0  0  0  0  0  0  0  0  0  0  0  0
  144.8890   68.9530  219.2810 N   0  0  0  0  0  0  0  0  0  0  0  0
  146.2480   68.3970  219.3490 C   0  0  0  0  0  0  0  0  0  0  0  0
  146.3270   67.0760  218.5800 C   0  0  0  0  0  0  0  0  0  0  0  0
  145.2960   66.1960  218.9810 O   0  0  0  0  0  0  0  0  0  0  0  0
  144.0460   66.7350  218.6040 C   0  0  0  0  0  0  0  0  0  0  0  0
  143.7530   68.0260  219.3760 C   0  0  0  0  0  0  0  0  0  0  0  0
  143.4540   70.8300  219.8810 N   0  0  0  0  0  0  0  0  0  0  0  0
  143.2830   72.1590  220.0750 C   0  0  0  0  0  0  0  0  0  0  0  0
  141.8790   72.9410  220.5460 S   0  0  0  0  0  0  0  0  0  0  0  0
  142.5770   74.4880  220.5270 C   0  0  0  0  0  0  0  0  0  0  0  0
  141.8650   75.7330  220.8590 C   0  0  0  0  0  0  0  0  0  0  0  0
  141.0040   75.9310  221.9340 C   0  0  0  0  0  0  0  0  0  0  0  0
  140.4750   77.2270  221.9890 C   0  0  0  0  0  0  0  0  0  0  0  0
  140.9130   78.0520  220.9630 C   0  0  0  0  0  0  0  0  0  0  0  0
  141.9590   77.1690  219.9880 S   0  0  0  0  0  0  0  0  0  0  0  0
  143.9210   74.3900  220.1470 C   0  0  0  0  0  0  0  0  0  0  0  0
  144.3030   73.0670  219.8960 C   0  0  0  0  0  0  0  0  0  0  0  0
  146.9552   69.1151  218.9082 H   0  0  0  0  0  0  0  0  0  0  0  0
  146.5033   68.2106  220.4026 H   0  0  0  0  0  0  0  0  0  0  0  0
  146.2282   67.2796  217.5035 H   0  0  0  0  0  0  0  0  0  0  0  0
  147.2963   66.6022  218.7943 H   0  0  0  0  0  0  0  0  0  0  0  0
  144.0586   66.9546  217.5262 H   0  0  0  0  0  0  0  0  0  0  0  0
  143.2613   66.0001  218.8367 H   0  0  0  0  0  0  0  0  0  0  0  0
  142.8583   68.5057  218.9524 H   0  0  0  0  0  0  0  0  0  0  0  0
  143.5855   67.7768  220.4342 H   0  0  0  0  0  0  0  0  0  0  0  0
  140.7627   75.1478  222.6677 H   0  0  0  0  0  0  0  0  0  0  0  0
  139.7778   77.5594  222.7722 H   0  0  0  0  0  0  0  0  0  0  0  0
  140.6251   79.1031  220.8135 H   0  0  0  0  0  0  0  0  0  0  0  0
  144.5979   75.2523  220.0563 H   0  0  0  0  0  0  0  0  0  0  0  0
  1  2  2  0
  2  3  1  0
  3  4  2  0
  4  5  1  0
  5  6  1  0
  6  7  1  0
  7  8  1  0
  8  9  1  0
  9 10  1  0
  4 11  1  0
 11 12  1  0
 12 13  1  0
 13 14  1  0
 14 15  1  0
 15 16  2  0
 16 17  1  0
 17 18  2  0
 18 19  1  0
 14 20  2  0
 20 21  1  0
 21  2  1  0
 10  5  1  0
 21 12  2  0
 19 15  1  0
  6 22  1  0
  6 23  1  0
  7 24  1  0
  7 25  1  0
  9 26  1  0
  9 27  1  0
 10 28  1  0
 10 29  1  0
 16 30  1  0
 17 31  1  0
 18 32  1  0
 20 33  1  0
M  CHG  1  11  -1
M  END
>  <UniqueID>  (58) 
35

>  <SMILES>  (58) 
O=c1nc(N2CCOCC2)[n-]c2sc(-c3cccs3)cc12

>  <Energy>  (58) 
98.10198395345945

>  <Genealogy>  (58) 
O=c1nc(N2CCOCC2)[n-]c2sc(-c3cccs3)cc12 (protonated)
O=c1nc(N2CCOCC2)[n-]c2sc(-c3cccs3)cc12 (3D coordinates assigned)
O=c1nc(N2CCOCC2)[n-]c2sc(-c3cccs3)cc12 (nonaromatic ring conformer: 98.10198395345945 kcal/mol)

>  <smiles>  (58) 
O=c1nc(N2CCOCC2)[nH]c2sc(-c3cccs3)cc12

>  <score_type>  (58) 
oracle

>  <origin>  (58) 
autodockgpu

>  <m_score__min__energy>  (58) 
-5.9900000000000002

>  <m_primary>  (58) 
energy

>  <meeko>  (58) 
{"free_energy": -5.95, "intermolecular_energy": -6.55, "internal_energy": -0.43, "cluster_size": 16, "cluster_id": 1, "rank_in_cluster": 13}

>  <energy>  (58) 
-5.69

>  <cluster_rmsd>  (58) 
0.02

>  <rmsd>  (58) 
272.25

>  <cluster>  (58) 
2

$$$$
CFPRWASAHFAXRY-FWJFTDBINA-M
     RDKit          3D

 33 36  0  0  0  0  0  0  0  0999 V2000
  146.5390   73.3840  219.1600 O   0  0  0  0  0  0  0  0  0  0  0  0
  145.5820   72.6020  219.4060 C   0  0  0  0  0  0  0  0  0  0  0  0
  145.7430   71.2560  219.2630 N   0  0  0  0  0  0  0  0  0  0  0  0
  144.7250   70.3750  219.5200 C   0  0  0  0  0  0  0  0  0  0  0  0
  144.9350   68.9550  219.3580 N   0  0  0  0  0  0  0  0  0  0  0  0
  146.3030   68.4210  219.3060 C   0  0  0  0  0  0  0  0  0  0  0  0
  146.3220   67.0620  218.6010 C   0  0  0  0  0  0  0  0  0  0  0  0
  145.3570   66.1920  219.1550 O   0  0  0  0  0  0  0  0  0  0  0  0
  144.0630   66.6950  218.8890 C   0  0  0  0  0  0  0  0  0  0  0  0
  143.8320   68.0200  219.6220 C   0  0  0  0  0  0  0  0  0  0  0  0
  143.5110   70.8490  219.9330 N   0  0  0  0  0  0  0  0  0  0  0  0
  143.3390   72.1830  220.0790 C   0  0  0  0  0  0  0  0  0  0  0  0
  141.9480   72.9780  220.5700 S   0  0  0  0  0  0  0  0  0  0  0  0
  142.6360   74.5260  220.4610 C   0  0  0  0  0  0  0  0  0  0  0  0
  141.9280   75.7800  220.7690 C   0  0  0  0  0  0  0  0  0  0  0  0
  142.1330   77.0160  220.1630 C   0  0  0  0  0  0  0  0  0  0  0  0
  141.3060   78.0250  220.6700 C   0  0  0  0  0  0  0  0  0  0  0  0
  140.4500   77.5950  221.6730 C   0  0  0  0  0  0  0  0  0  0  0  0
  140.7220   75.9550  221.9290 S   0  0  0  0  0  0  0  0  0  0  0  0
  143.9650   74.4180  220.0370 C   0  0  0  0  0  0  0  0  0  0  0  0
  144.3460   73.0880  219.8260 C   0  0  0  0  0  0  0  0  0  0  0  0
  146.9451   69.1237  218.7548 H   0  0  0  0  0  0  0  0  0  0  0  0
  146.6744   68.2938  220.3336 H   0  0  0  0  0  0  0  0  0  0  0  0
  146.1042   67.2077  217.5327 H   0  0  0  0  0  0  0  0  0  0  0  0
  147.3171   66.6121  218.7330 H   0  0  0  0  0  0  0  0  0  0  0  0
  143.9553   66.8584  217.8066 H   0  0  0  0  0  0  0  0  0  0  0  0
  143.3214   65.9633  219.2420 H   0  0  0  0  0  0  0  0  0  0  0  0
  142.8886   68.4661  219.2742 H   0  0  0  0  0  0  0  0  0  0  0  0
  143.7837   67.8240  220.7033 H   0  0  0  0  0  0  0  0  0  0  0  0
  142.8714   77.1833  219.3650 H   0  0  0  0  0  0  0  0  0  0  0  0
  141.3325   79.0629  220.3066 H   0  0  0  0  0  0  0  0  0  0  0  0
  139.7193   78.2188  222.2086 H   0  0  0  0  0  0  0  0  0  0  0  0
  144.6331   75.2789  219.8869 H   0  0  0  0  0  0  0  0  0  0  0  0
  1  2  2  0
  2  3  1  0
  3  4  2  0
  4  5  1  0
  5  6  1  0
  6  7  1  0
  7  8  1  0
  8  9  1  0
  9 10  1  0
  4 11  1  0
 11 12  1  0
 12 13  1  0
 13 14  1  0
 14 15  1  0
 15 16  2  0
 16 17  1  0
 17 18  2  0
 18 19  1  0
 14 20  2  0
 20 21  1  0
 21  2  1  0
 10  5  1  0
 21 12  2  0
 19 15  1  0
  6 22  1  0
  6 23  1  0
  7 24  1  0
  7 25  1  0
  9 26  1  0
  9 27  1  0
 10 28  1  0
 10 29  1  0
 16 30  1  0
 17 31  1  0
 18 32  1  0
 20 33  1  0
M  CHG  1  11  -1
M  END
>  <UniqueID>  (59) 
35

>  <SMILES>  (59) 
O=c1nc(N2CCOCC2)[n-]c2sc(-c3cccs3)cc12

>  <Energy>  (59) 
98.10198395345945

>  <Genealogy>  (59) 
O=c1nc(N2CCOCC2)[n-]c2sc(-c3cccs3)cc12 (protonated)
O=c1nc(N2CCOCC2)[n-]c2sc(-c3cccs3)cc12 (3D coordinates assigned)
O=c1nc(N2CCOCC2)[n-]c2sc(-c3cccs3)cc12 (nonaromatic ring conformer: 98.10198395345945 kcal/mol)

>  <smiles>  (59) 
O=c1nc(N2CCOCC2)[nH]c2sc(-c3cccs3)cc12

>  <score_type>  (59) 
oracle

>  <origin>  (59) 
autodockgpu

>  <m_score__min__energy>  (59) 
-5.9900000000000002

>  <m_primary>  (59) 
energy

>  <meeko>  (59) 
{"free_energy": -5.98, "intermolecular_energy": -6.58, "internal_energy": -0.43, "cluster_size": 16, "cluster_id": 1, "rank_in_cluster": 6}

>  <energy>  (59) 
-5.68

>  <cluster_rmsd>  (59) 
0.04

>  <rmsd>  (59) 
272.24

>  <cluster>  (59) 
2

$$$$
CFPRWASAHFAXRY-FWJFTDBINA-M
     RDKit          3D

 33 36  0  0  0  0  0  0  0  0999 V2000
  146.3160   73.3710  218.7270 O   0  0  0  0  0  0  0  0  0  0  0  0
  145.4200   72.5730  219.1110 C   0  0  0  0  0  0  0  0  0  0  0  0
  145.6000   71.2280  218.9810 N   0  0  0  0  0  0  0  0  0  0  0  0
  144.6490   70.3280  219.3880 C   0  0  0  0  0  0  0  0  0  0  0  0
  144.8760   68.9110  219.2340 N   0  0  0  0  0  0  0  0  0  0  0  0
  146.2420   68.3760  219.3350 C   0  0  0  0  0  0  0  0  0  0  0  0
  146.3430   67.0250  218.6210 C   0  0  0  0  0  0  0  0  0  0  0  0
  145.3210   66.1490  219.0500 O   0  0  0  0  0  0  0  0  0  0  0  0
  144.0660   66.6570  218.6430 C   0  0  0  0  0  0  0  0  0  0  0  0
  143.7510   67.9740  219.3590 C   0  0  0  0  0  0  0  0  0  0  0  0
  143.4840   70.7830  219.9400 N   0  0  0  0  0  0  0  0  0  0  0  0
  143.2940   72.1160  220.0750 C   0  0  0  0  0  0  0  0  0  0  0  0
  141.9530   72.8880  220.7190 S   0  0  0  0  0  0  0  0  0  0  0  0
  142.5770   74.4490  220.4870 C   0  0  0  0  0  0  0  0  0  0  0  0
  141.8780   75.6930  220.8520 C   0  0  0  0  0  0  0  0  0  0  0  0
  140.9880   75.8620  221.9080 C   0  0  0  0  0  0  0  0  0  0  0  0
  140.4830   77.1650  222.0020 C   0  0  0  0  0  0  0  0  0  0  0  0
  140.9680   78.0250  221.0280 C   0  0  0  0  0  0  0  0  0  0  0  0
  142.0280   77.1630  220.0470 S   0  0  0  0  0  0  0  0  0  0  0  0
  143.8450   74.3640  219.8990 C   0  0  0  0  0  0  0  0  0  0  0  0
  144.2330   73.0390  219.6740 C   0  0  0  0  0  0  0  0  0  0  0  0
  146.9435   69.0844  218.8702 H   0  0  0  0  0  0  0  0  0  0  0  0
  146.4919   68.2366  220.3971 H   0  0  0  0  0  0  0  0  0  0  0  0
  146.2496   67.1832  217.5365 H   0  0  0  0  0  0  0  0  0  0  0  0
  147.3165   66.5729  218.8616 H   0  0  0  0  0  0  0  0  0  0  0  0
  144.0835   66.8326  217.5573 H   0  0  0  0  0  0  0  0  0  0  0  0
  143.2891   65.9222  218.9010 H   0  0  0  0  0  0  0  0  0  0  0  0
  142.8535   68.4243  218.9098 H   0  0  0  0  0  0  0  0  0  0  0  0
  143.5786   67.7662  220.4253 H   0  0  0  0  0  0  0  0  0  0  0  0
  140.7090   75.0534  222.5996 H   0  0  0  0  0  0  0  0  0  0  0  0
  139.7676   77.4775  222.7770 H   0  0  0  0  0  0  0  0  0  0  0  0
  140.7049   79.0872  220.9164 H   0  0  0  0  0  0  0  0  0  0  0  0
  144.4636   75.2370  219.6439 H   0  0  0  0  0  0  0  0  0  0  0  0
  1  2  2  0
  2  3  1  0
  3  4  2  0
  4  5  1  0
  5  6  1  0
  6  7  1  0
  7  8  1  0
  8  9  1  0
  9 10  1  0
  4 11  1  0
 11 12  1  0
 12 13  1  0
 13 14  1  0
 14 15  1  0
 15 16  2  0
 16 17  1  0
 17 18  2  0
 18 19  1  0
 14 20  2  0
 20 21  1  0
 21  2  1  0
 10  5  1  0
 21 12  2  0
 19 15  1  0
  6 22  1  0
  6 23  1  0
  7 24  1  0
  7 25  1  0
  9 26  1  0
  9 27  1  0
 10 28  1  0
 10 29  1  0
 16 30  1  0
 17 31  1  0
 18 32  1  0
 20 33  1  0
M  CHG  1  11  -1
M  END
>  <UniqueID>  (60) 
35

>  <SMILES>  (60) 
O=c1nc(N2CCOCC2)[n-]c2sc(-c3cccs3)cc12

>  <Energy>  (60) 
98.10198395345945

>  <Genealogy>  (60) 
O=c1nc(N2CCOCC2)[n-]c2sc(-c3cccs3)cc12 (protonated)
O=c1nc(N2CCOCC2)[n-]c2sc(-c3cccs3)cc12 (3D coordinates assigned)
O=c1nc(N2CCOCC2)[n-]c2sc(-c3cccs3)cc12 (nonaromatic ring conformer: 98.10198395345945 kcal/mol)

>  <smiles>  (60) 
O=c1nc(N2CCOCC2)[nH]c2sc(-c3cccs3)cc12

>  <score_type>  (60) 
oracle

>  <origin>  (60) 
autodockgpu

>  <m_score__min__energy>  (60) 
-5.9900000000000002

>  <m_primary>  (60) 
energy

>  <meeko>  (60) 
{"free_energy": -5.96, "intermolecular_energy": -6.55, "internal_energy": -0.43, "cluster_size": 16, "cluster_id": 1, "rank_in_cluster": 11}

>  <energy>  (60) 
-5.68

>  <cluster_rmsd>  (60) 
0.18

>  <rmsd>  (60) 
272.21

>  <cluster>  (60) 
2

$$$$
CFPRWASAHFAXRY-FWJFTDBINA-M
     RDKit          3D

 33 36  0  0  0  0  0  0  0  0999 V2000
  146.5440   73.3940  219.1890 O   0  0  0  0  0  0  0  0  0  0  0  0
  145.5760   72.6170  219.4040 C   0  0  0  0  0  0  0  0  0  0  0  0
  145.7260   71.2730  219.2360 N   0  0  0  0  0  0  0  0  0  0  0  0
  144.6970   70.3960  219.4600 C   0  0  0  0  0  0  0  0  0  0  0  0
  144.8950   68.9780  219.2720 N   0  0  0  0  0  0  0  0  0  0  0  0
  146.2440   68.4080  219.3950 C   0  0  0  0  0  0  0  0  0  0  0  0
  146.3340   67.0760  218.6450 C   0  0  0  0  0  0  0  0  0  0  0  0
  145.2800   66.2130  219.0210 O   0  0  0  0  0  0  0  0  0  0  0  0
  144.0490   66.7620  218.5940 C   0  0  0  0  0  0  0  0  0  0  0  0
  143.7450   68.0660  219.3390 C   0  0  0  0  0  0  0  0  0  0  0  0
  143.4810   70.8740  219.8640 N   0  0  0  0  0  0  0  0  0  0  0  0
  143.3190   72.2070  220.0340 C   0  0  0  0  0  0  0  0  0  0  0  0
  141.9280   73.0050  220.5190 S   0  0  0  0  0  0  0  0  0  0  0  0
  142.6320   74.5480  220.4520 C   0  0  0  0  0  0  0  0  0  0  0  0
  141.9310   75.8020  220.7740 C   0  0  0  0  0  0  0  0  0  0  0  0
  142.1530   77.0460  220.1910 C   0  0  0  0  0  0  0  0  0  0  0  0
  141.3290   78.0540  220.7080 C   0  0  0  0  0  0  0  0  0  0  0  0
  140.4580   77.6130  221.6940 C   0  0  0  0  0  0  0  0  0  0  0  0
  140.7140   75.9680  221.9250 S   0  0  0  0  0  0  0  0  0  0  0  0
  143.9670   74.4360  220.0460 C   0  0  0  0  0  0  0  0  0  0  0  0
  144.3380   73.1070  219.8150 C   0  0  0  0  0  0  0  0  0  0  0  0
  146.9746   69.1124  218.9707 H   0  0  0  0  0  0  0  0  0  0  0  0
  146.4603   68.2323  220.4591 H   0  0  0  0  0  0  0  0  0  0  0  0
  146.2745   67.2671  217.5634 H   0  0  0  0  0  0  0  0  0  0  0  0
  147.2899   66.5941  218.8982 H   0  0  0  0  0  0  0  0  0  0  0  0
  144.1012   66.9675  217.5146 H   0  0  0  0  0  0  0  0  0  0  0  0
  143.2481   66.0392  218.8088 H   0  0  0  0  0  0  0  0  0  0  0  0
  142.8715   68.5507  218.8784 H   0  0  0  0  0  0  0  0  0  0  0  0
  143.5375   67.8326  220.3937 H   0  0  0  0  0  0  0  0  0  0  0  0
  142.9006   77.2203  219.4031 H   0  0  0  0  0  0  0  0  0  0  0  0
  141.3687   79.0982  220.3642 H   0  0  0  0  0  0  0  0  0  0  0  0
  139.7259   78.2333  222.2319 H   0  0  0  0  0  0  0  0  0  0  0  0
  144.6453   75.2931  219.9229 H   0  0  0  0  0  0  0  0  0  0  0  0
  1  2  2  0
  2  3  1  0
  3  4  2  0
  4  5  1  0
  5  6  1  0
  6  7  1  0
  7  8  1  0
  8  9  1  0
  9 10  1  0
  4 11  1  0
 11 12  1  0
 12 13  1  0
 13 14  1  0
 14 15  1  0
 15 16  2  0
 16 17  1  0
 17 18  2  0
 18 19  1  0
 14 20  2  0
 20 21  1  0
 21  2  1  0
 10  5  1  0
 21 12  2  0
 19 15  1  0
  6 22  1  0
  6 23  1  0
  7 24  1  0
  7 25  1  0
  9 26  1  0
  9 27  1  0
 10 28  1  0
 10 29  1  0
 16 30  1  0
 17 31  1  0
 18 32  1  0
 20 33  1  0
M  CHG  1  11  -1
M  END
>  <UniqueID>  (61) 
36

>  <SMILES>  (61) 
O=c1nc(N2CCOCC2)[n-]c2sc(-c3cccs3)cc12

>  <Energy>  (61) 
98.10198403876991

>  <Genealogy>  (61) 
O=c1nc(N2CCOCC2)[n-]c2sc(-c3cccs3)cc12 (protonated)
O=c1nc(N2CCOCC2)[n-]c2sc(-c3cccs3)cc12 (3D coordinates assigned)
O=c1nc(N2CCOCC2)[n-]c2sc(-c3cccs3)cc12 (nonaromatic ring conformer: 98.10198403876991 kcal/mol)

>  <smiles>  (61) 
O=c1nc(N2CCOCC2)[nH]c2sc(-c3cccs3)cc12

>  <score_type>  (61) 
oracle

>  <origin>  (61) 
autodockgpu

>  <m_score__min__energy>  (61) 
-5.9900000000000002

>  <m_primary>  (61) 
energy

>  <meeko>  (61) 
{"free_energy": -5.97, "intermolecular_energy": -6.56, "internal_energy": -0.43, "cluster_size": 16, "cluster_id": 1, "rank_in_cluster": 10}

>  <energy>  (61) 
-5.99

>  <cluster_rmsd>  (61) 
0.0

>  <rmsd>  (61) 
271.45

>  <cluster>  (61) 
1

$$$$
CFPRWASAHFAXRY-FWJFTDBINA-M
     RDKit          3D

 33 36  0  0  0  0  0  0  0  0999 V2000
  146.5550   73.3730  219.3130 O   0  0  0  0  0  0  0  0  0  0  0  0
  145.5840   72.5920  219.5000 C   0  0  0  0  0  0  0  0  0  0  0  0
  145.7400   71.2500  219.3210 N   0  0  0  0  0  0  0  0  0  0  0  0
  144.7080   70.3690  219.5140 C   0  0  0  0  0  0  0  0  0  0  0  0
  144.9130   68.9540  219.3150 N   0  0  0  0  0  0  0  0  0  0  0  0
  146.2750   68.4030  219.3450 C   0  0  0  0  0  0  0  0  0  0  0  0
  146.3320   67.0700  218.5930 C   0  0  0  0  0  0  0  0  0  0  0  0
  145.3180   66.1940  219.0410 O   0  0  0  0  0  0  0  0  0  0  0  0
  144.0540   66.7250  218.6990 C   0  0  0  0  0  0  0  0  0  0  0  0
  143.7830   68.0250  219.4620 C   0  0  0  0  0  0  0  0  0  0  0  0
  143.4830   70.8400  219.8990 N   0  0  0  0  0  0  0  0  0  0  0  0
  143.3160   72.1710  220.0800 C   0  0  0  0  0  0  0  0  0  0  0  0
  141.9130   72.9610  220.5460 S   0  0  0  0  0  0  0  0  0  0  0  0
  142.6150   74.5060  220.5110 C   0  0  0  0  0  0  0  0  0  0  0  0
  141.9060   75.7560  220.8320 C   0  0  0  0  0  0  0  0  0  0  0  0
  141.0330   75.9600  221.8960 C   0  0  0  0  0  0  0  0  0  0  0  0
  140.5110   77.2590  221.9420 C   0  0  0  0  0  0  0  0  0  0  0  0
  140.9660   78.0800  220.9200 C   0  0  0  0  0  0  0  0  0  0  0  0
  142.0190   77.1890  219.9590 S   0  0  0  0  0  0  0  0  0  0  0  0
  143.9590   74.4010  220.1300 C   0  0  0  0  0  0  0  0  0  0  0  0
  144.3370   73.0750  219.8920 C   0  0  0  0  0  0  0  0  0  0  0  0
  146.9644   69.1163  218.8698 H   0  0  0  0  0  0  0  0  0  0  0  0
  146.5667   68.2332  220.3919 H   0  0  0  0  0  0  0  0  0  0  0  0
  146.1967   67.2573  217.5175 H   0  0  0  0  0  0  0  0  0  0  0  0
  147.3093   66.6018  218.7818 H   0  0  0  0  0  0  0  0  0  0  0  0
  144.0297   66.9298  217.6185 H   0  0  0  0  0  0  0  0  0  0  0  0
  143.2799   65.9914  218.9684 H   0  0  0  0  0  0  0  0  0  0  0  0
  142.8728   68.4961  219.0625 H   0  0  0  0  0  0  0  0  0  0  0  0
  143.6520   67.7905  220.5287 H   0  0  0  0  0  0  0  0  0  0  0  0
  140.7782   75.1793  222.6278 H   0  0  0  0  0  0  0  0  0  0  0  0
  139.8062   77.5968  222.7160 H   0  0  0  0  0  0  0  0  0  0  0  0
  140.6860   79.1324  220.7653 H   0  0  0  0  0  0  0  0  0  0  0  0
  144.6379   75.2607  220.0297 H   0  0  0  0  0  0  0  0  0  0  0  0
  1  2  2  0
  2  3  1  0
  3  4  2  0
  4  5  1  0
  5  6  1  0
  6  7  1  0
  7  8  1  0
  8  9  1  0
  9 10  1  0
  4 11  1  0
 11 12  1  0
 12 13  1  0
 13 14  1  0
 14 15  1  0
 15 16  2  0
 16 17  1  0
 17 18  2  0
 18 19  1  0
 14 20  2  0
 20 21  1  0
 21  2  1  0
 10  5  1  0
 21 12  2  0
 19 15  1  0
  6 22  1  0
  6 23  1  0
  7 24  1  0
  7 25  1  0
  9 26  1  0
  9 27  1  0
 10 28  1  0
 10 29  1  0
 16 30  1  0
 17 31  1  0
 18 32  1  0
 20 33  1  0
M  CHG  1  11  -1
M  END
>  <UniqueID>  (62) 
36

>  <SMILES>  (62) 
O=c1nc(N2CCOCC2)[n-]c2sc(-c3cccs3)cc12

>  <Energy>  (62) 
98.10198403876991

>  <Genealogy>  (62) 
O=c1nc(N2CCOCC2)[n-]c2sc(-c3cccs3)cc12 (protonated)
O=c1nc(N2CCOCC2)[n-]c2sc(-c3cccs3)cc12 (3D coordinates assigned)
O=c1nc(N2CCOCC2)[n-]c2sc(-c3cccs3)cc12 (nonaromatic ring conformer: 98.10198403876991 kcal/mol)

>  <smiles>  (62) 
O=c1nc(N2CCOCC2)[nH]c2sc(-c3cccs3)cc12

>  <score_type>  (62) 
oracle

>  <origin>  (62) 
autodockgpu

>  <m_score__min__energy>  (62) 
-5.9900000000000002

>  <m_primary>  (62) 
energy

>  <meeko>  (62) 
{"free_energy": -5.95, "intermolecular_energy": -6.55, "internal_energy": -0.43, "cluster_size": 16, "cluster_id": 1, "rank_in_cluster": 12}

>  <energy>  (62) 
-5.99

>  <cluster_rmsd>  (62) 
0.06

>  <rmsd>  (62) 
271.43

>  <cluster>  (62) 
1

$$$$
CFPRWASAHFAXRY-FWJFTDBINA-M
     RDKit          3D

 33 36  0  0  0  0  0  0  0  0999 V2000
  146.6890   73.6640  219.4780 O   0  0  0  0  0  0  0  0  0  0  0  0
  145.7480   72.8280  219.5450 C   0  0  0  0  0  0  0  0  0  0  0  0
  145.9830   71.5110  219.2830 N   0  0  0  0  0  0  0  0  0  0  0  0
  144.9860   70.5720  219.3440 C   0  0  0  0  0  0  0  0  0  0  0  0
  145.2740   69.1860  219.0610 N   0  0  0  0  0  0  0  0  0  0  0  0
  146.2870   68.8430  218.0520 C   0  0  0  0  0  0  0  0  0  0  0  0
  146.0540   67.4270  217.5180 C   0  0  0  0  0  0  0  0  0  0  0  0
  145.9240   66.5030  218.5780 O   0  0  0  0  0  0  0  0  0  0  0  0
  144.7480   66.7890  219.3080 C   0  0  0  0  0  0  0  0  0  0  0  0
  144.8580   68.1450  220.0110 C   0  0  0  0  0  0  0  0  0  0  0  0
  143.7170   70.9580  219.6780 N   0  0  0  0  0  0  0  0  0  0  0  0
  143.4720   72.2620  219.9410 C   0  0  0  0  0  0  0  0  0  0  0  0
  142.0050   72.9520  220.3660 S   0  0  0  0  0  0  0  0  0  0  0  0
  142.6290   74.5250  220.4850 C   0  0  0  0  0  0  0  0  0  0  0  0
  141.8390   75.7150  220.8460 C   0  0  0  0  0  0  0  0  0  0  0  0
  140.9180   75.8120  221.8840 C   0  0  0  0  0  0  0  0  0  0  0  0
  140.3220   77.0760  221.9790 C   0  0  0  0  0  0  0  0  0  0  0  0
  140.7660   77.9760  221.0210 C   0  0  0  0  0  0  0  0  0  0  0  0
  141.9020   77.1990  220.0560 S   0  0  0  0  0  0  0  0  0  0  0  0
  143.9970   74.5100  220.1890 C   0  0  0  0  0  0  0  0  0  0  0  0
  144.4560   73.2240  219.8840 C   0  0  0  0  0  0  0  0  0  0  0  0
  146.2251   69.5588  217.2190 H   0  0  0  0  0  0  0  0  0  0  0  0
  147.2825   68.8883  218.5177 H   0  0  0  0  0  0  0  0  0  0  0  0
  145.1334   67.4162  216.9161 H   0  0  0  0  0  0  0  0  0  0  0  0
  146.9188   67.1368  216.9033 H   0  0  0  0  0  0  0  0  0  0  0  0
  143.8916   66.8094  218.6179 H   0  0  0  0  0  0  0  0  0  0  0  0
  144.6085   66.0081  220.0701 H   0  0  0  0  0  0  0  0  0  0  0  0
  143.8792   68.4129  220.4356 H   0  0  0  0  0  0  0  0  0  0  0  0
  145.6109   68.0712  220.8095 H   0  0  0  0  0  0  0  0  0  0  0  0
  140.6814   74.9791  222.5625 H   0  0  0  0  0  0  0  0  0  0  0  0
  139.5719   77.3313  222.7420 H   0  0  0  0  0  0  0  0  0  0  0  0
  140.4322   79.0184  220.9118 H   0  0  0  0  0  0  0  0  0  0  0  0
  144.6366   75.4049  220.1954 H   0  0  0  0  0  0  0  0  0  0  0  0
  1  2  2  0
  2  3  1  0
  3  4  2  0
  4  5  1  0
  5  6  1  0
  6  7  1  0
  7  8  1  0
  8  9  1  0
  9 10  1  0
  4 11  1  0
 11 12  1  0
 12 13  1  0
 13 14  1  0
 14 15  1  0
 15 16  2  0
 16 17  1  0
 17 18  2  0
 18 19  1  0
 14 20  2  0
 20 21  1  0
 21  2  1  0
 10  5  1  0
 21 12  2  0
 19 15  1  0
  6 22  1  0
  6 23  1  0
  7 24  1  0
  7 25  1  0
  9 26  1  0
  9 27  1  0
 10 28  1  0
 10 29  1  0
 16 30  1  0
 17 31  1  0
 18 32  1  0
 20 33  1  0
M  CHG  1  11  -1
M  END
>  <UniqueID>  (63) 
36

>  <SMILES>  (63) 
O=c1nc(N2CCOCC2)[n-]c2sc(-c3cccs3)cc12

>  <Energy>  (63) 
98.10198403876991

>  <Genealogy>  (63) 
O=c1nc(N2CCOCC2)[n-]c2sc(-c3cccs3)cc12 (protonated)
O=c1nc(N2CCOCC2)[n-]c2sc(-c3cccs3)cc12 (3D coordinates assigned)
O=c1nc(N2CCOCC2)[n-]c2sc(-c3cccs3)cc12 (nonaromatic ring conformer: 98.10198403876991 kcal/mol)

>  <smiles>  (63) 
O=c1nc(N2CCOCC2)[nH]c2sc(-c3cccs3)cc12

>  <score_type>  (63) 
oracle

>  <origin>  (63) 
autodockgpu

>  <m_score__min__energy>  (63) 
-5.9900000000000002

>  <m_primary>  (63) 
energy

>  <meeko>  (63) 
{"free_energy": -5.94, "intermolecular_energy": -6.54, "internal_energy": -0.43, "cluster_size": 16, "cluster_id": 1, "rank_in_cluster": 15}

>  <energy>  (63) 
-5.99

>  <cluster_rmsd>  (63) 
0.01

>  <rmsd>  (63) 
271.45

>  <cluster>  (63) 
1

$$$$
CFPRWASAHFAXRY-FWJFTDBINA-M
     RDKit          3D

 33 36  0  0  0  0  0  0  0  0999 V2000
  146.4930   73.3920  218.9780 O   0  0  0  0  0  0  0  0  0  0  0  0
  145.5570   72.6120  219.2950 C   0  0  0  0  0  0  0  0  0  0  0  0
  145.7190   71.2630  219.1780 N   0  0  0  0  0  0  0  0  0  0  0  0
  144.7240   70.3830  219.5120 C   0  0  0  0  0  0  0  0  0  0  0  0
  144.9340   68.9610  219.3750 N   0  0  0  0  0  0  0  0  0  0  0  0
  146.3030   68.4250  219.3530 C   0  0  0  0  0  0  0  0  0  0  0  0
  146.3310   67.0550  218.6680 C   0  0  0  0  0  0  0  0  0  0  0  0
  145.3570   66.1940  219.2210 O   0  0  0  0  0  0  0  0  0  0  0  0
  144.0680   66.6940  218.9280 C   0  0  0  0  0  0  0  0  0  0  0  0
  143.8270   68.0310  219.6370 C   0  0  0  0  0  0  0  0  0  0  0  0
  143.5300   70.8600  219.9780 N   0  0  0  0  0  0  0  0  0  0  0  0
  143.3560   72.1970  220.0990 C   0  0  0  0  0  0  0  0  0  0  0  0
  141.9870   72.9960  220.6430 S   0  0  0  0  0  0  0  0  0  0  0  0
  142.6570   74.5440  220.4580 C   0  0  0  0  0  0  0  0  0  0  0  0
  141.9580   75.8020  220.7720 C   0  0  0  0  0  0  0  0  0  0  0  0
  142.1800   77.0410  220.1790 C   0  0  0  0  0  0  0  0  0  0  0  0
  141.3570   78.0530  220.6880 C   0  0  0  0  0  0  0  0  0  0  0  0
  140.4880   77.6210  221.6800 C   0  0  0  0  0  0  0  0  0  0  0  0
  140.7430   75.9770  221.9220 S   0  0  0  0  0  0  0  0  0  0  0  0
  143.9630   74.4340  219.9650 C   0  0  0  0  0  0  0  0  0  0  0  0
  144.3410   73.1010  219.7690 C   0  0  0  0  0  0  0  0  0  0  0  0
  146.9547   69.1189  218.8018 H   0  0  0  0  0  0  0  0  0  0  0  0
  146.6582   68.3129  220.3880 H   0  0  0  0  0  0  0  0  0  0  0  0
  146.1288   67.1850  217.5946 H   0  0  0  0  0  0  0  0  0  0  0  0
  147.3236   66.6063  218.8208 H   0  0  0  0  0  0  0  0  0  0  0  0
  143.9767   66.8406  217.8416 H   0  0  0  0  0  0  0  0  0  0  0  0
  143.3205   65.9685  219.2814 H   0  0  0  0  0  0  0  0  0  0  0  0
  142.8891   68.4720  219.2683 H   0  0  0  0  0  0  0  0  0  0  0  0
  143.7626   67.8519  220.7204 H   0  0  0  0  0  0  0  0  0  0  0  0
  142.9272   77.2087  219.3894 H   0  0  0  0  0  0  0  0  0  0  0  0
  141.3957   79.0939  220.3344 H   0  0  0  0  0  0  0  0  0  0  0  0
  139.7584   78.2462  222.2155 H   0  0  0  0  0  0  0  0  0  0  0  0
  144.6154   75.2947  219.7562 H   0  0  0  0  0  0  0  0  0  0  0  0
  1  2  2  0
  2  3  1  0
  3  4  2  0
  4  5  1  0
  5  6  1  0
  6  7  1  0
  7  8  1  0
  8  9  1  0
  9 10  1  0
  4 11  1  0
 11 12  1  0
 12 13  1  0
 13 14  1  0
 14 15  1  0
 15 16  2  0
 16 17  1  0
 17 18  2  0
 18 19  1  0
 14 20  2  0
 20 21  1  0
 21  2  1  0
 10  5  1  0
 21 12  2  0
 19 15  1  0
  6 22  1  0
  6 23  1  0
  7 24  1  0
  7 25  1  0
  9 26  1  0
  9 27  1  0
 10 28  1  0
 10 29  1  0
 16 30  1  0
 17 31  1  0
 18 32  1  0
 20 33  1  0
M  CHG  1  11  -1
M  END
>  <UniqueID>  (64) 
36

>  <SMILES>  (64) 
O=c1nc(N2CCOCC2)[n-]c2sc(-c3cccs3)cc12

>  <Energy>  (64) 
98.10198403876991

>  <Genealogy>  (64) 
O=c1nc(N2CCOCC2)[n-]c2sc(-c3cccs3)cc12 (protonated)
O=c1nc(N2CCOCC2)[n-]c2sc(-c3cccs3)cc12 (3D coordinates assigned)
O=c1nc(N2CCOCC2)[n-]c2sc(-c3cccs3)cc12 (nonaromatic ring conformer: 98.10198403876991 kcal/mol)

>  <smiles>  (64) 
O=c1nc(N2CCOCC2)[nH]c2sc(-c3cccs3)cc12

>  <score_type>  (64) 
oracle

>  <origin>  (64) 
autodockgpu

>  <m_score__min__energy>  (64) 
-5.9900000000000002

>  <m_primary>  (64) 
energy

>  <meeko>  (64) 
{"free_energy": -5.99, "intermolecular_energy": -6.58, "internal_energy": -0.43, "cluster_size": 16, "cluster_id": 1, "rank_in_cluster": 2}

>  <energy>  (64) 
-5.99

>  <cluster_rmsd>  (64) 
0.04

>  <rmsd>  (64) 
271.44

>  <cluster>  (64) 
1

$$$$
CFPRWASAHFAXRY-FWJFTDBINA-M
     RDKit          3D

 33 36  0  0  0  0  0  0  0  0999 V2000
  146.6050   73.3960  219.2500 O   0  0  0  0  0  0  0  0  0  0  0  0
  145.6330   72.6230  219.4580 C   0  0  0  0  0  0  0  0  0  0  0  0
  145.7840   71.2760  219.3090 N   0  0  0  0  0  0  0  0  0  0  0  0
  144.7500   70.4030  219.5260 C   0  0  0  0  0  0  0  0  0  0  0  0
  144.9500   68.9830  219.3590 N   0  0  0  0  0  0  0  0  0  0  0  0
  146.3140   68.4400  219.3040 C   0  0  0  0  0  0  0  0  0  0  0  0
  146.3240   67.0830  218.5940 C   0  0  0  0  0  0  0  0  0  0  0  0
  145.3530   66.2180  219.1460 O   0  0  0  0  0  0  0  0  0  0  0  0
  144.0630   66.7310  218.8830 C   0  0  0  0  0  0  0  0  0  0  0  0
  143.8410   68.0550  219.6210 C   0  0  0  0  0  0  0  0  0  0  0  0
  143.5280   70.8870  219.9030 N   0  0  0  0  0  0  0  0  0  0  0  0
  143.3650   72.2220  220.0540 C   0  0  0  0  0  0  0  0  0  0  0  0
  141.9660   73.0270  220.5050 S   0  0  0  0  0  0  0  0  0  0  0  0
  142.6730   74.5690  220.4320 C   0  0  0  0  0  0  0  0  0  0  0  0
  141.9680   75.8280  220.7270 C   0  0  0  0  0  0  0  0  0  0  0  0
  142.1950   77.0620  220.1250 C   0  0  0  0  0  0  0  0  0  0  0  0
  141.3650   78.0780  220.6170 C   0  0  0  0  0  0  0  0  0  0  0  0
  140.4860   77.6530  221.6030 C   0  0  0  0  0  0  0  0  0  0  0  0
  140.7410   76.0110  221.8620 S   0  0  0  0  0  0  0  0  0  0  0  0
  144.0150   74.4500  220.0500 C   0  0  0  0  0  0  0  0  0  0  0  0
  144.3880   73.1180  219.8410 C   0  0  0  0  0  0  0  0  0  0  0  0
  146.9604   69.1404  218.7549 H   0  0  0  0  0  0  0  0  0  0  0  0
  146.6849   68.3065  220.3309 H   0  0  0  0  0  0  0  0  0  0  0  0
  146.1068   67.2336  217.5262 H   0  0  0  0  0  0  0  0  0  0  0  0
  147.3161   66.6259  218.7235 H   0  0  0  0  0  0  0  0  0  0  0  0
  143.9558   66.8992  217.8012 H   0  0  0  0  0  0  0  0  0  0  0  0
  143.3167   66.0032  219.2341 H   0  0  0  0  0  0  0  0  0  0  0  0
  142.9003   68.5086  219.2756 H   0  0  0  0  0  0  0  0  0  0  0  0
  143.7918   67.8558  220.7017 H   0  0  0  0  0  0  0  0  0  0  0  0
  142.9502   77.2235  219.3416 H   0  0  0  0  0  0  0  0  0  0  0  0
  141.4064   79.1160  220.2553 H   0  0  0  0  0  0  0  0  0  0  0  0
  139.7495   78.2816  222.1251 H   0  0  0  0  0  0  0  0  0  0  0  0
  144.6967   75.3047  219.9284 H   0  0  0  0  0  0  0  0  0  0  0  0
  1  2  2  0
  2  3  1  0
  3  4  2  0
  4  5  1  0
  5  6  1  0
  6  7  1  0
  7  8  1  0
  8  9  1  0
  9 10  1  0
  4 11  1  0
 11 12  1  0
 12 13  1  0
 13 14  1  0
 14 15  1  0
 15 16  2  0
 16 17  1  0
 17 18  2  0
 18 19  1  0
 14 20  2  0
 20 21  1  0
 21  2  1  0
 10  5  1  0
 21 12  2  0
 19 15  1  0
  6 22  1  0
  6 23  1  0
  7 24  1  0
  7 25  1  0
  9 26  1  0
  9 27  1  0
 10 28  1  0
 10 29  1  0
 16 30  1  0
 17 31  1  0
 18 32  1  0
 20 33  1  0
M  CHG  1  11  -1
M  END
>  <UniqueID>  (65) 
36

>  <SMILES>  (65) 
O=c1nc(N2CCOCC2)[n-]c2sc(-c3cccs3)cc12

>  <Energy>  (65) 
98.10198403876991

>  <Genealogy>  (65) 
O=c1nc(N2CCOCC2)[n-]c2sc(-c3cccs3)cc12 (protonated)
O=c1nc(N2CCOCC2)[n-]c2sc(-c3cccs3)cc12 (3D coordinates assigned)
O=c1nc(N2CCOCC2)[n-]c2sc(-c3cccs3)cc12 (nonaromatic ring conformer: 98.10198403876991 kcal/mol)

>  <smiles>  (65) 
O=c1nc(N2CCOCC2)[nH]c2sc(-c3cccs3)cc12

>  <score_type>  (65) 
oracle

>  <origin>  (65) 
autodockgpu

>  <m_score__min__energy>  (65) 
-5.9900000000000002

>  <m_primary>  (65) 
energy

>  <meeko>  (65) 
{"free_energy": -5.98, "intermolecular_energy": -6.58, "internal_energy": -0.43, "cluster_size": 16, "cluster_id": 1, "rank_in_cluster": 7}

>  <energy>  (65) 
-5.98

>  <cluster_rmsd>  (65) 
0.04

>  <rmsd>  (65) 
271.46

>  <cluster>  (65) 
1

$$$$
CFPRWASAHFAXRY-FWJFTDBINA-M
     RDKit          3D

 33 36  0  0  0  0  0  0  0  0999 V2000
  146.5200   73.3830  219.0320 O   0  0  0  0  0  0  0  0  0  0  0  0
  145.5750   72.6010  219.3190 C   0  0  0  0  0  0  0  0  0  0  0  0
  145.7350   71.2550  219.1830 N   0  0  0  0  0  0  0  0  0  0  0  0
  144.7300   70.3720  219.4850 C   0  0  0  0  0  0  0  0  0  0  0  0
  144.9370   68.9520  219.3290 N   0  0  0  0  0  0  0  0  0  0  0  0
  146.3040   68.4120  219.3150 C   0  0  0  0  0  0  0  0  0  0  0  0
  146.3370   67.0530  218.6100 C   0  0  0  0  0  0  0  0  0  0  0  0
  145.3530   66.1870  219.1370 O   0  0  0  0  0  0  0  0  0  0  0  0
  144.0700   66.6960  218.8360 C   0  0  0  0  0  0  0  0  0  0  0  0
  143.8240   68.0220  219.5620 C   0  0  0  0  0  0  0  0  0  0  0  0
  143.5300   70.8470  219.9370 N   0  0  0  0  0  0  0  0  0  0  0  0
  143.3590   72.1830  220.0760 C   0  0  0  0  0  0  0  0  0  0  0  0
  141.9830   72.9780  220.6090 S   0  0  0  0  0  0  0  0  0  0  0  0
  142.6620   74.5270  220.4610 C   0  0  0  0  0  0  0  0  0  0  0  0
  141.9620   75.7820  220.7820 C   0  0  0  0  0  0  0  0  0  0  0  0
  142.1840   77.0250  220.1980 C   0  0  0  0  0  0  0  0  0  0  0  0
  141.3600   78.0340  220.7130 C   0  0  0  0  0  0  0  0  0  0  0  0
  140.4910   77.5940  221.7010 C   0  0  0  0  0  0  0  0  0  0  0  0
  140.7470   75.9490  221.9330 S   0  0  0  0  0  0  0  0  0  0  0  0
  143.9760   74.4190  219.9900 C   0  0  0  0  0  0  0  0  0  0  0  0
  144.3530   73.0880  219.7790 C   0  0  0  0  0  0  0  0  0  0  0  0
  146.9643   69.1122  218.7823 H   0  0  0  0  0  0  0  0  0  0  0  0
  146.6459   68.2828  220.3525 H   0  0  0  0  0  0  0  0  0  0  0  0
  146.1495   67.1999  217.5361 H   0  0  0  0  0  0  0  0  0  0  0  0
  147.3261   66.5988  218.7691 H   0  0  0  0  0  0  0  0  0  0  0  0
  143.9930   66.8598  217.7510 H   0  0  0  0  0  0  0  0  0  0  0  0
  143.3159   65.9677  219.1691 H   0  0  0  0  0  0  0  0  0  0  0  0
  142.8925   68.4718  219.1879 H   0  0  0  0  0  0  0  0  0  0  0  0
  143.7447   67.8264  220.6416 H   0  0  0  0  0  0  0  0  0  0  0  0
  142.9320   77.1982  219.4103 H   0  0  0  0  0  0  0  0  0  0  0  0
  141.3983   79.0773  220.3666 H   0  0  0  0  0  0  0  0  0  0  0  0
  139.7602   78.2149  222.2399 H   0  0  0  0  0  0  0  0  0  0  0  0
  144.6354   75.2803  219.8071 H   0  0  0  0  0  0  0  0  0  0  0  0
  1  2  2  0
  2  3  1  0
  3  4  2  0
  4  5  1  0
  5  6  1  0
  6  7  1  0
  7  8  1  0
  8  9  1  0
  9 10  1  0
  4 11  1  0
 11 12  1  0
 12 13  1  0
 13 14  1  0
 14 15  1  0
 15 16  2  0
 16 17  1  0
 17 18  2  0
 18 19  1  0
 14 20  2  0
 20 21  1  0
 21  2  1  0
 10  5  1  0
 21 12  2  0
 19 15  1  0
  6 22  1  0
  6 23  1  0
  7 24  1  0
  7 25  1  0
  9 26  1  0
  9 27  1  0
 10 28  1  0
 10 29  1  0
 16 30  1  0
 17 31  1  0
 18 32  1  0
 20 33  1  0
M  CHG  1  11  -1
M  END
>  <UniqueID>  (66) 
36

>  <SMILES>  (66) 
O=c1nc(N2CCOCC2)[n-]c2sc(-c3cccs3)cc12

>  <Energy>  (66) 
98.10198403876991

>  <Genealogy>  (66) 
O=c1nc(N2CCOCC2)[n-]c2sc(-c3cccs3)cc12 (protonated)
O=c1nc(N2CCOCC2)[n-]c2sc(-c3cccs3)cc12 (3D coordinates assigned)
O=c1nc(N2CCOCC2)[n-]c2sc(-c3cccs3)cc12 (nonaromatic ring conformer: 98.10198403876991 kcal/mol)

>  <smiles>  (66) 
O=c1nc(N2CCOCC2)[nH]c2sc(-c3cccs3)cc12

>  <score_type>  (66) 
oracle

>  <origin>  (66) 
autodockgpu

>  <m_score__min__energy>  (66) 
-5.9900000000000002

>  <m_primary>  (66) 
energy

>  <meeko>  (66) 
{"free_energy": -5.98, "intermolecular_energy": -6.57, "internal_energy": -0.43, "cluster_size": 16, "cluster_id": 1, "rank_in_cluster": 8}

>  <energy>  (66) 
-5.98

>  <cluster_rmsd>  (66) 
0.04

>  <rmsd>  (66) 
271.42

>  <cluster>  (66) 
1

$$$$
CFPRWASAHFAXRY-FWJFTDBINA-M
     RDKit          3D

 33 36  0  0  0  0  0  0  0  0999 V2000
  146.8480   73.7840  220.1890 O   0  0  0  0  0  0  0  0  0  0  0  0
  145.9540   72.9510  219.8830 C   0  0  0  0  0  0  0  0  0  0  0  0
  146.2990   71.7160  219.4200 N   0  0  0  0  0  0  0  0  0  0  0  0
  145.3560   70.7820  219.0770 C   0  0  0  0  0  0  0  0  0  0  0  0
  145.7600   69.4840  218.5910 N   0  0  0  0  0  0  0  0  0  0  0  0
  146.3170   69.3530  217.2370 C   0  0  0  0  0  0  0  0  0  0  0  0
  146.1590   67.9180  216.7290 C   0  0  0  0  0  0  0  0  0  0  0  0
  146.6530   66.9910  217.6740 O   0  0  0  0  0  0  0  0  0  0  0  0
  145.8480   67.0310  218.8350 C   0  0  0  0  0  0  0  0  0  0  0  0
  145.9760   68.3840  219.5410 C   0  0  0  0  0  0  0  0  0  0  0  0
  144.0290   71.0890  219.2000 N   0  0  0  0  0  0  0  0  0  0  0  0
  143.6740   72.3110  219.6600 C   0  0  0  0  0  0  0  0  0  0  0  0
  142.1200   72.8960  219.8880 S   0  0  0  0  0  0  0  0  0  0  0  0
  142.6330   74.4130  220.4510 C   0  0  0  0  0  0  0  0  0  0  0  0
  141.7310   75.5020  220.8630 C   0  0  0  0  0  0  0  0  0  0  0  0
  141.8180   76.8370  220.4820 C   0  0  0  0  0  0  0  0  0  0  0  0
  140.8140   77.6390  221.0380 C   0  0  0  0  0  0  0  0  0  0  0  0
  139.9340   76.9440  221.8560 C   0  0  0  0  0  0  0  0  0  0  0  0
  140.4070   75.3310  221.8870 S   0  0  0  0  0  0  0  0  0  0  0  0
  144.0320   74.4610  220.4590 C   0  0  0  0  0  0  0  0  0  0  0  0
  144.6030   73.2650  220.0090 C   0  0  0  0  0  0  0  0  0  0  0  0
  145.7858   70.0375  216.5593 H   0  0  0  0  0  0  0  0  0  0  0  0
  147.3876   69.6040  217.2669 H   0  0  0  0  0  0  0  0  0  0  0  0
  145.0930   67.7151  216.5489 H   0  0  0  0  0  0  0  0  0  0  0  0
  146.7337   67.8099  215.7973 H   0  0  0  0  0  0  0  0  0  0  0  0
  144.7975   66.8708  218.5508 H   0  0  0  0  0  0  0  0  0  0  0  0
  146.1839   66.2416  219.5235 H   0  0  0  0  0  0  0  0  0  0  0  0
  145.2257   68.4460  220.3430 H   0  0  0  0  0  0  0  0  0  0  0  0
  146.9889   68.4711  219.9610 H   0  0  0  0  0  0  0  0  0  0  0  0
  142.5983   77.2243  219.8104 H   0  0  0  0  0  0  0  0  0  0  0  0
  140.7304   78.7186  220.8447 H   0  0  0  0  0  0  0  0  0  0  0  0
  139.0751   77.3744  222.3917 H   0  0  0  0  0  0  0  0  0  0  0  0
  144.6146   75.3366  220.7814 H   0  0  0  0  0  0  0  0  0  0  0  0
  1  2  2  0
  2  3  1  0
  3  4  2  0
  4  5  1  0
  5  6  1  0
  6  7  1  0
  7  8  1  0
  8  9  1  0
  9 10  1  0
  4 11  1  0
 11 12  1  0
 12 13  1  0
 13 14  1  0
 14 15  1  0
 15 16  2  0
 16 17  1  0
 17 18  2  0
 18 19  1  0
 14 20  2  0
 20 21  1  0
 21  2  1  0
 10  5  1  0
 21 12  2  0
 19 15  1  0
  6 22  1  0
  6 23  1  0
  7 24  1  0
  7 25  1  0
  9 26  1  0
  9 27  1  0
 10 28  1  0
 10 29  1  0
 16 30  1  0
 17 31  1  0
 18 32  1  0
 20 33  1  0
M  CHG  1  11  -1
M  END
>  <UniqueID>  (67) 
36

>  <SMILES>  (67) 
O=c1nc(N2CCOCC2)[n-]c2sc(-c3cccs3)cc12

>  <Energy>  (67) 
98.10198403876991

>  <Genealogy>  (67) 
O=c1nc(N2CCOCC2)[n-]c2sc(-c3cccs3)cc12 (protonated)
O=c1nc(N2CCOCC2)[n-]c2sc(-c3cccs3)cc12 (3D coordinates assigned)
O=c1nc(N2CCOCC2)[n-]c2sc(-c3cccs3)cc12 (nonaromatic ring conformer: 98.10198403876991 kcal/mol)

>  <smiles>  (67) 
O=c1nc(N2CCOCC2)[nH]c2sc(-c3cccs3)cc12

>  <score_type>  (67) 
oracle

>  <origin>  (67) 
autodockgpu

>  <m_score__min__energy>  (67) 
-5.9900000000000002

>  <m_primary>  (67) 
energy

>  <meeko>  (67) 
{"free_energy": -5.87, "intermolecular_energy": -6.47, "internal_energy": -0.42, "cluster_size": 16, "cluster_id": 1, "rank_in_cluster": 16}

>  <energy>  (67) 
-5.98

>  <cluster_rmsd>  (67) 
0.06

>  <rmsd>  (67) 
271.44

>  <cluster>  (67) 
1

$$$$
CFPRWASAHFAXRY-FWJFTDBINA-M
     RDKit          3D

 33 36  0  0  0  0  0  0  0  0999 V2000
  146.5510   73.3860  219.1510 O   0  0  0  0  0  0  0  0  0  0  0  0
  145.5940   72.6080  219.4080 C   0  0  0  0  0  0  0  0  0  0  0  0
  145.7520   71.2610  219.2760 N   0  0  0  0  0  0  0  0  0  0  0  0
  144.7340   70.3830  219.5470 C   0  0  0  0  0  0  0  0  0  0  0  0
  144.9400   68.9620  219.3950 N   0  0  0  0  0  0  0  0  0  0  0  0
  146.3070   68.4240  219.3420 C   0  0  0  0  0  0  0  0  0  0  0  0
  146.3200   67.0600  218.6480 C   0  0  0  0  0  0  0  0  0  0  0  0
  145.3560   66.1960  219.2140 O   0  0  0  0  0  0  0  0  0  0  0  0
  144.0620   66.7000  218.9500 C   0  0  0  0  0  0  0  0  0  0  0  0
  143.8370   68.0310  219.6730 C   0  0  0  0  0  0  0  0  0  0  0  0
  143.5230   70.8630  219.9620 N   0  0  0  0  0  0  0  0  0  0  0  0
  143.3550   72.1990  220.0980 C   0  0  0  0  0  0  0  0  0  0  0  0
  141.9670   73.0000  220.5890 S   0  0  0  0  0  0  0  0  0  0  0  0
  142.6570   74.5460  220.4630 C   0  0  0  0  0  0  0  0  0  0  0  0
  141.9530   75.8040  220.7630 C   0  0  0  0  0  0  0  0  0  0  0  0
  142.1690   77.0380  220.1570 C   0  0  0  0  0  0  0  0  0  0  0  0
  141.3430   78.0520  220.6570 C   0  0  0  0  0  0  0  0  0  0  0  0
  140.4770   77.6270  221.6540 C   0  0  0  0  0  0  0  0  0  0  0  0
  140.7390   75.9870  221.9140 S   0  0  0  0  0  0  0  0  0  0  0  0
  143.9840   74.4320  220.0320 C   0  0  0  0  0  0  0  0  0  0  0  0
  144.3610   73.1000  219.8310 C   0  0  0  0  0  0  0  0  0  0  0  0
  146.9487   69.1208  218.7828 H   0  0  0  0  0  0  0  0  0  0  0  0
  146.6820   68.3040  220.3691 H   0  0  0  0  0  0  0  0  0  0  0  0
  146.0970   67.1976  217.5797 H   0  0  0  0  0  0  0  0  0  0  0  0
  147.3149   66.6093  218.7784 H   0  0  0  0  0  0  0  0  0  0  0  0
  143.9497   66.8549  217.8668 H   0  0  0  0  0  0  0  0  0  0  0  0
  143.3205   65.9729  219.3126 H   0  0  0  0  0  0  0  0  0  0  0  0
  142.8923   68.4756  219.3268 H   0  0  0  0  0  0  0  0  0  0  0  0
  143.7943   67.8441  220.7562 H   0  0  0  0  0  0  0  0  0  0  0  0
  142.9142   77.2005  219.3644 H   0  0  0  0  0  0  0  0  0  0  0  0
  141.3775   79.0895  220.2930 H   0  0  0  0  0  0  0  0  0  0  0  0
  139.7451   78.2549  222.1832 H   0  0  0  0  0  0  0  0  0  0  0  0
  144.6527   75.2903  219.8702 H   0  0  0  0  0  0  0  0  0  0  0  0
  1  2  2  0
  2  3  1  0
  3  4  2  0
  4  5  1  0
  5  6  1  0
  6  7  1  0
  7  8  1  0
  8  9  1  0
  9 10  1  0
  4 11  1  0
 11 12  1  0
 12 13  1  0
 13 14  1  0
 14 15  1  0
 15 16  2  0
 16 17  1  0
 17 18  2  0
 18 19  1  0
 14 20  2  0
 20 21  1  0
 21  2  1  0
 10  5  1  0
 21 12  2  0
 19 15  1  0
  6 22  1  0
  6 23  1  0
  7 24  1  0
  7 25  1  0
  9 26  1  0
  9 27  1  0
 10 28  1  0
 10 29  1  0
 16 30  1  0
 17 31  1  0
 18 32  1  0
 20 33  1  0
M  CHG  1  11  -1
M  END
>  <UniqueID>  (68) 
36

>  <SMILES>  (68) 
O=c1nc(N2CCOCC2)[n-]c2sc(-c3cccs3)cc12

>  <Energy>  (68) 
98.10198403876991

>  <Genealogy>  (68) 
O=c1nc(N2CCOCC2)[n-]c2sc(-c3cccs3)cc12 (protonated)
O=c1nc(N2CCOCC2)[n-]c2sc(-c3cccs3)cc12 (3D coordinates assigned)
O=c1nc(N2CCOCC2)[n-]c2sc(-c3cccs3)cc12 (nonaromatic ring conformer: 98.10198403876991 kcal/mol)

>  <smiles>  (68) 
O=c1nc(N2CCOCC2)[nH]c2sc(-c3cccs3)cc12

>  <score_type>  (68) 
oracle

>  <origin>  (68) 
autodockgpu

>  <m_score__min__energy>  (68) 
-5.9900000000000002

>  <m_primary>  (68) 
energy

>  <meeko>  (68) 
{"free_energy": -5.99, "intermolecular_energy": -6.58, "internal_energy": -0.43, "cluster_size": 16, "cluster_id": 1, "rank_in_cluster": 3}

>  <energy>  (68) 
-5.98

>  <cluster_rmsd>  (68) 
0.06

>  <rmsd>  (68) 
271.42

>  <cluster>  (68) 
1

$$$$
CFPRWASAHFAXRY-FWJFTDBINA-M
     RDKit          3D

 33 36  0  0  0  0  0  0  0  0999 V2000
  139.7990   73.5390  222.3410 O   0  0  0  0  0  0  0  0  0  0  0  0
  140.6330   74.2830  221.7580 C   0  0  0  0  0  0  0  0  0  0  0  0
  141.6850   73.7360  221.0860 N   0  0  0  0  0  0  0  0  0  0  0  0
  142.6130   74.5120  220.4410 C   0  0  0  0  0  0  0  0  0  0  0  0
  143.7140   73.8960  219.7390 N   0  0  0  0  0  0  0  0  0  0  0  0
  143.8930   74.1450  218.3010 C   0  0  0  0  0  0  0  0  0  0  0  0
  144.7170   73.0240  217.6610 C   0  0  0  0  0  0  0  0  0  0  0  0
  145.9090   72.7970  218.3850 O   0  0  0  0  0  0  0  0  0  0  0  0
  145.5910   72.2960  219.6670 C   0  0  0  0  0  0  0  0  0  0  0  0
  144.8480   73.3480  220.4960 C   0  0  0  0  0  0  0  0  0  0  0  0
  142.4880   75.8730  220.4660 N   0  0  0  0  0  0  0  0  0  0  0  0
  141.4470   76.4280  221.1300 C   0  0  0  0  0  0  0  0  0  0  0  0
  141.1010   78.0590  221.2890 S   0  0  0  0  0  0  0  0  0  0  0  0
  139.7050   77.8070  222.2220 C   0  0  0  0  0  0  0  0  0  0  0  0
  138.8430   78.8790  222.7460 C   0  0  0  0  0  0  0  0  0  0  0  0
  137.4530   78.9120  222.7160 C   0  0  0  0  0  0  0  0  0  0  0  0
  136.9130   80.0680  223.2940 C   0  0  0  0  0  0  0  0  0  0  0  0
  137.8690   80.9470  223.7800 C   0  0  0  0  0  0  0  0  0  0  0  0
  139.3880   80.2860  223.4910 S   0  0  0  0  0  0  0  0  0  0  0  0
  139.5110   76.4330  222.4100 C   0  0  0  0  0  0  0  0  0  0  0  0
  140.5030   75.6700  221.7860 C   0  0  0  0  0  0  0  0  0  0  0  0
  142.9067   74.1913  217.8161 H   0  0  0  0  0  0  0  0  0  0  0  0
  144.4258   75.0982  218.1686 H   0  0  0  0  0  0  0  0  0  0  0  0
  144.1206   72.0998  217.6506 H   0  0  0  0  0  0  0  0  0  0  0  0
  144.9805   73.3233  216.6358 H   0  0  0  0  0  0  0  0  0  0  0  0
  144.9528   71.4067  219.5581 H   0  0  0  0  0  0  0  0  0  0  0  0
  146.5261   72.0366  220.1849 H   0  0  0  0  0  0  0  0  0  0  0  0
  144.4747   72.8826  221.4202 H   0  0  0  0  0  0  0  0  0  0  0  0
  145.5429   74.1662  220.7361 H   0  0  0  0  0  0  0  0  0  0  0  0
  136.8385   78.1098  222.2814 H   0  0  0  0  0  0  0  0  0  0  0  0
  135.8318   80.2605  223.3565 H   0  0  0  0  0  0  0  0  0  0  0  0
  137.6683   81.9110  224.2703 H   0  0  0  0  0  0  0  0  0  0  0  0
  138.6753   76.0037  222.9821 H   0  0  0  0  0  0  0  0  0  0  0  0
  1  2  2  0
  2  3  1  0
  3  4  2  0
  4  5  1  0
  5  6  1  0
  6  7  1  0
  7  8  1  0
  8  9  1  0
  9 10  1  0
  4 11  1  0
 11 12  1  0
 12 13  1  0
 13 14  1  0
 14 15  1  0
 15 16  2  0
 16 17  1  0
 17 18  2  0
 18 19  1  0
 14 20  2  0
 20 21  1  0
 21  2  1  0
 10  5  1  0
 21 12  2  0
 19 15  1  0
  6 22  1  0
  6 23  1  0
  7 24  1  0
  7 25  1  0
  9 26  1  0
  9 27  1  0
 10 28  1  0
 10 29  1  0
 16 30  1  0
 17 31  1  0
 18 32  1  0
 20 33  1  0
M  CHG  1  11  -1
M  END
>  <UniqueID>  (69) 
36

>  <SMILES>  (69) 
O=c1nc(N2CCOCC2)[n-]c2sc(-c3cccs3)cc12

>  <Energy>  (69) 
98.10198403876991

>  <Genealogy>  (69) 
O=c1nc(N2CCOCC2)[n-]c2sc(-c3cccs3)cc12 (protonated)
O=c1nc(N2CCOCC2)[n-]c2sc(-c3cccs3)cc12 (3D coordinates assigned)
O=c1nc(N2CCOCC2)[n-]c2sc(-c3cccs3)cc12 (nonaromatic ring conformer: 98.10198403876991 kcal/mol)

>  <smiles>  (69) 
O=c1nc(N2CCOCC2)[nH]c2sc(-c3cccs3)cc12

>  <score_type>  (69) 
oracle

>  <origin>  (69) 
autodockgpu

>  <m_score__min__energy>  (69) 
-5.9900000000000002

>  <m_primary>  (69) 
energy

>  <meeko>  (69) 
{"free_energy": -5.68, "intermolecular_energy": -6.28, "internal_energy": -0.42, "cluster_size": 4, "cluster_id": 2, "rank_in_cluster": 4}

>  <energy>  (69) 
-5.97

>  <cluster_rmsd>  (69) 
0.12

>  <rmsd>  (69) 
271.42

>  <cluster>  (69) 
1

$$$$
CFPRWASAHFAXRY-FWJFTDBINA-M
     RDKit          3D

 33 36  0  0  0  0  0  0  0  0999 V2000
  146.5720   73.3900  219.2580 O   0  0  0  0  0  0  0  0  0  0  0  0
  145.6070   72.6110  219.4810 C   0  0  0  0  0  0  0  0  0  0  0  0
  145.7660   71.2650  219.3370 N   0  0  0  0  0  0  0  0  0  0  0  0
  144.7410   70.3860  219.5700 C   0  0  0  0  0  0  0  0  0  0  0  0
  144.9480   68.9660  219.4070 N   0  0  0  0  0  0  0  0  0  0  0  0
  146.3150   68.4310  219.3490 C   0  0  0  0  0  0  0  0  0  0  0  0
  146.3290   67.0720  218.6430 C   0  0  0  0  0  0  0  0  0  0  0  0
  145.3660   66.2020  219.2020 O   0  0  0  0  0  0  0  0  0  0  0  0
  144.0720   66.7070  218.9430 C   0  0  0  0  0  0  0  0  0  0  0  0
  143.8460   68.0320  219.6770 C   0  0  0  0  0  0  0  0  0  0  0  0
  143.5200   70.8630  219.9600 N   0  0  0  0  0  0  0  0  0  0  0  0
  143.3500   72.1980  220.1080 C   0  0  0  0  0  0  0  0  0  0  0  0
  141.9520   72.9960  220.5730 S   0  0  0  0  0  0  0  0  0  0  0  0
  142.6470   74.5410  220.4840 C   0  0  0  0  0  0  0  0  0  0  0  0
  141.9380   75.7970  220.7810 C   0  0  0  0  0  0  0  0  0  0  0  0
  142.1450   77.0290  220.1690 C   0  0  0  0  0  0  0  0  0  0  0  0
  141.3160   78.0420  220.6670 C   0  0  0  0  0  0  0  0  0  0  0  0
  140.4560   77.6170  221.6690 C   0  0  0  0  0  0  0  0  0  0  0  0
  140.7270   75.9790  221.9350 S   0  0  0  0  0  0  0  0  0  0  0  0
  143.9850   74.4300  220.0860 C   0  0  0  0  0  0  0  0  0  0  0  0
  144.3650   73.1000  219.8780 C   0  0  0  0  0  0  0  0  0  0  0  0
  146.9555   69.1333  218.7953 H   0  0  0  0  0  0  0  0  0  0  0  0
  146.6911   68.3032  220.3748 H   0  0  0  0  0  0  0  0  0  0  0  0
  146.1054   67.2184  217.5760 H   0  0  0  0  0  0  0  0  0  0  0  0
  147.3244   66.6212  218.7693 H   0  0  0  0  0  0  0  0  0  0  0  0
  143.9591   66.8707  217.8611 H   0  0  0  0  0  0  0  0  0  0  0  0
  143.3314   65.9763  219.3002 H   0  0  0  0  0  0  0  0  0  0  0  0
  142.9010   68.4787  219.3343 H   0  0  0  0  0  0  0  0  0  0  0  0
  143.8034   67.8361  220.7586 H   0  0  0  0  0  0  0  0  0  0  0  0
  142.8864   77.1915  219.3728 H   0  0  0  0  0  0  0  0  0  0  0  0
  141.3442   79.0779  220.2980 H   0  0  0  0  0  0  0  0  0  0  0  0
  139.7230   78.2436  222.1983 H   0  0  0  0  0  0  0  0  0  0  0  0
  144.6590   75.2890  219.9524 H   0  0  0  0  0  0  0  0  0  0  0  0
  1  2  2  0
  2  3  1  0
  3  4  2  0
  4  5  1  0
  5  6  1  0
  6  7  1  0
  7  8  1  0
  8  9  1  0
  9 10  1  0
  4 11  1  0
 11 12  1  0
 12 13  1  0
 13 14  1  0
 14 15  1  0
 15 16  2  0
 16 17  1  0
 17 18  2  0
 18 19  1  0
 14 20  2  0
 20 21  1  0
 21  2  1  0
 10  5  1  0
 21 12  2  0
 19 15  1  0
  6 22  1  0
  6 23  1  0
  7 24  1  0
  7 25  1  0
  9 26  1  0
  9 27  1  0
 10 28  1  0
 10 29  1  0
 16 30  1  0
 17 31  1  0
 18 32  1  0
 20 33  1  0
M  CHG  1  11  -1
M  END
>  <UniqueID>  (70) 
36

>  <SMILES>  (70) 
O=c1nc(N2CCOCC2)[n-]c2sc(-c3cccs3)cc12

>  <Energy>  (70) 
98.10198403876991

>  <Genealogy>  (70) 
O=c1nc(N2CCOCC2)[n-]c2sc(-c3cccs3)cc12 (protonated)
O=c1nc(N2CCOCC2)[n-]c2sc(-c3cccs3)cc12 (3D coordinates assigned)
O=c1nc(N2CCOCC2)[n-]c2sc(-c3cccs3)cc12 (nonaromatic ring conformer: 98.10198403876991 kcal/mol)

>  <smiles>  (70) 
O=c1nc(N2CCOCC2)[nH]c2sc(-c3cccs3)cc12

>  <score_type>  (70) 
oracle

>  <origin>  (70) 
autodockgpu

>  <m_score__min__energy>  (70) 
-5.9900000000000002

>  <m_primary>  (70) 
energy

>  <meeko>  (70) 
{"free_energy": -5.98, "intermolecular_energy": -6.58, "internal_energy": -0.43, "cluster_size": 16, "cluster_id": 1, "rank_in_cluster": 5}

>  <energy>  (70) 
-5.97

>  <cluster_rmsd>  (70) 
0.14

>  <rmsd>  (70) 
271.39

>  <cluster>  (70) 
1

$$$$
CFPRWASAHFAXRY-FWJFTDBINA-M
     RDKit          3D

 33 36  0  0  0  0  0  0  0  0999 V2000
  146.5520   73.3900  219.1360 O   0  0  0  0  0  0  0  0  0  0  0  0
  145.5970   72.6110  219.4000 C   0  0  0  0  0  0  0  0  0  0  0  0
  145.7560   71.2640  219.2690 N   0  0  0  0  0  0  0  0  0  0  0  0
  144.7410   70.3850  219.5470 C   0  0  0  0  0  0  0  0  0  0  0  0
  144.9480   68.9640  219.3960 N   0  0  0  0  0  0  0  0  0  0  0  0
  146.3160   68.4280  219.3410 C   0  0  0  0  0  0  0  0  0  0  0  0
  146.3290   67.0630  218.6470 C   0  0  0  0  0  0  0  0  0  0  0  0
  145.3660   66.1990  219.2150 O   0  0  0  0  0  0  0  0  0  0  0  0
  144.0720   66.7010  218.9530 C   0  0  0  0  0  0  0  0  0  0  0  0
  143.8470   68.0330  219.6750 C   0  0  0  0  0  0  0  0  0  0  0  0
  143.5320   70.8640  219.9690 N   0  0  0  0  0  0  0  0  0  0  0  0
  143.3620   72.2000  220.1050 C   0  0  0  0  0  0  0  0  0  0  0  0
  141.9770   72.9990  220.6040 S   0  0  0  0  0  0  0  0  0  0  0  0
  142.6640   74.5460  220.4720 C   0  0  0  0  0  0  0  0  0  0  0  0
  141.9600   75.8040  220.7750 C   0  0  0  0  0  0  0  0  0  0  0  0
  142.1780   77.0390  220.1730 C   0  0  0  0  0  0  0  0  0  0  0  0
  141.3510   78.0520  220.6750 C   0  0  0  0  0  0  0  0  0  0  0  0
  140.4840   77.6240  221.6700 C   0  0  0  0  0  0  0  0  0  0  0  0
  140.7440   75.9830  221.9250 S   0  0  0  0  0  0  0  0  0  0  0  0
  143.9880   74.4340  220.0320 C   0  0  0  0  0  0  0  0  0  0  0  0
  144.3660   73.1020  219.8310 C   0  0  0  0  0  0  0  0  0  0  0  0
  146.9559   69.1254  218.7804 H   0  0  0  0  0  0  0  0  0  0  0  0
  146.6934   68.3092  220.3674 H   0  0  0  0  0  0  0  0  0  0  0  0
  146.1045   67.2000  217.5789 H   0  0  0  0  0  0  0  0  0  0  0  0
  147.3244   66.6128  218.7759 H   0  0  0  0  0  0  0  0  0  0  0  0
  143.9575   66.8545  217.8698 H   0  0  0  0  0  0  0  0  0  0  0  0
  143.3319   65.9736  219.3178 H   0  0  0  0  0  0  0  0  0  0  0  0
  142.9018   68.4767  219.3290 H   0  0  0  0  0  0  0  0  0  0  0  0
  143.8056   67.8469  220.7583 H   0  0  0  0  0  0  0  0  0  0  0  0
  142.9247   77.2035  219.3822 H   0  0  0  0  0  0  0  0  0  0  0  0
  141.3857   79.0904  220.3139 H   0  0  0  0  0  0  0  0  0  0  0  0
  139.7522   78.2508  222.2008 H   0  0  0  0  0  0  0  0  0  0  0  0
  144.6539   75.2933  219.8638 H   0  0  0  0  0  0  0  0  0  0  0  0
  1  2  2  0
  2  3  1  0
  3  4  2  0
  4  5  1  0
  5  6  1  0
  6  7  1  0
  7  8  1  0
  8  9  1  0
  9 10  1  0
  4 11  1  0
 11 12  1  0
 12 13  1  0
 13 14  1  0
 14 15  1  0
 15 16  2  0
 16 17  1  0
 17 18  2  0
 18 19  1  0
 14 20  2  0
 20 21  1  0
 21  2  1  0
 10  5  1  0
 21 12  2  0
 19 15  1  0
  6 22  1  0
  6 23  1  0
  7 24  1  0
  7 25  1  0
  9 26  1  0
  9 27  1  0
 10 28  1  0
 10 29  1  0
 16 30  1  0
 17 31  1  0
 18 32  1  0
 20 33  1  0
M  CHG  1  11  -1
M  END
>  <UniqueID>  (71) 
36

>  <SMILES>  (71) 
O=c1nc(N2CCOCC2)[n-]c2sc(-c3cccs3)cc12

>  <Energy>  (71) 
98.10198403876991

>  <Genealogy>  (71) 
O=c1nc(N2CCOCC2)[n-]c2sc(-c3cccs3)cc12 (protonated)
O=c1nc(N2CCOCC2)[n-]c2sc(-c3cccs3)cc12 (3D coordinates assigned)
O=c1nc(N2CCOCC2)[n-]c2sc(-c3cccs3)cc12 (nonaromatic ring conformer: 98.10198403876991 kcal/mol)

>  <smiles>  (71) 
O=c1nc(N2CCOCC2)[nH]c2sc(-c3cccs3)cc12

>  <score_type>  (71) 
oracle

>  <origin>  (71) 
autodockgpu

>  <m_score__min__energy>  (71) 
-5.9900000000000002

>  <m_primary>  (71) 
energy

>  <meeko>  (71) 
{"free_energy": -5.99, "intermolecular_energy": -6.59, "internal_energy": -0.43, "cluster_size": 16, "cluster_id": 1, "rank_in_cluster": 1}

>  <energy>  (71) 
-5.96

>  <cluster_rmsd>  (71) 
0.7

>  <rmsd>  (71) 
271.32

>  <cluster>  (71) 
1

$$$$
CFPRWASAHFAXRY-FWJFTDBINA-M
     RDKit          3D

 33 36  0  0  0  0  0  0  0  0999 V2000
  146.5370   73.3930  219.0400 O   0  0  0  0  0  0  0  0  0  0  0  0
  145.5890   72.6160  219.3330 C   0  0  0  0  0  0  0  0  0  0  0  0
  145.7480   71.2670  219.2150 N   0  0  0  0  0  0  0  0  0  0  0  0
  144.7400   70.3910  219.5250 C   0  0  0  0  0  0  0  0  0  0  0  0
  144.9470   68.9680  219.3870 N   0  0  0  0  0  0  0  0  0  0  0  0
  146.3140   68.4290  219.3540 C   0  0  0  0  0  0  0  0  0  0  0  0
  146.3340   67.0590  218.6720 C   0  0  0  0  0  0  0  0  0  0  0  0
  145.3620   66.2010  219.2330 O   0  0  0  0  0  0  0  0  0  0  0  0
  144.0720   66.7030  218.9500 C   0  0  0  0  0  0  0  0  0  0  0  0
  143.8400   68.0410  219.6590 C   0  0  0  0  0  0  0  0  0  0  0  0
  143.5390   70.8730  219.9650 N   0  0  0  0  0  0  0  0  0  0  0  0
  143.3700   72.2100  220.0870 C   0  0  0  0  0  0  0  0  0  0  0  0
  141.9930   73.0140  220.6040 S   0  0  0  0  0  0  0  0  0  0  0  0
  142.6750   74.5600  220.4390 C   0  0  0  0  0  0  0  0  0  0  0  0
  141.9750   75.8200  220.7410 C   0  0  0  0  0  0  0  0  0  0  0  0
  142.1980   77.0540  220.1390 C   0  0  0  0  0  0  0  0  0  0  0  0
  141.3750   78.0710  220.6390 C   0  0  0  0  0  0  0  0  0  0  0  0
  140.5040   77.6460  221.6320 C   0  0  0  0  0  0  0  0  0  0  0  0
  140.7580   76.0040  221.8880 S   0  0  0  0  0  0  0  0  0  0  0  0
  143.9910   74.4440  219.9750 C   0  0  0  0  0  0  0  0  0  0  0  0
  144.3660   73.1100  219.7820 C   0  0  0  0  0  0  0  0  0  0  0  0
  146.9624   69.1206  218.7960 H   0  0  0  0  0  0  0  0  0  0  0  0
  146.6774   68.3177  220.3863 H   0  0  0  0  0  0  0  0  0  0  0  0
  146.1247   67.1876  217.5998 H   0  0  0  0  0  0  0  0  0  0  0  0
  147.3266   66.6083  218.8190 H   0  0  0  0  0  0  0  0  0  0  0  0
  143.9720   66.8484  217.8642 H   0  0  0  0  0  0  0  0  0  0  0  0
  143.3258   65.9796  219.3104 H   0  0  0  0  0  0  0  0  0  0  0  0
  142.9003   68.4838  219.2973 H   0  0  0  0  0  0  0  0  0  0  0  0
  143.7839   67.8633  220.7431 H   0  0  0  0  0  0  0  0  0  0  0  0
  142.9462   77.2151  219.3489 H   0  0  0  0  0  0  0  0  0  0  0  0
  141.4153   79.1094  220.2783 H   0  0  0  0  0  0  0  0  0  0  0  0
  139.7730   78.2753  222.1608 H   0  0  0  0  0  0  0  0  0  0  0  0
  144.6528   75.3017  219.7845 H   0  0  0  0  0  0  0  0  0  0  0  0
  1  2  2  0
  2  3  1  0
  3  4  2  0
  4  5  1  0
  5  6  1  0
  6  7  1  0
  7  8  1  0
  8  9  1  0
  9 10  1  0
  4 11  1  0
 11 12  1  0
 12 13  1  0
 13 14  1  0
 14 15  1  0
 15 16  2  0
 16 17  1  0
 17 18  2  0
 18 19  1  0
 14 20  2  0
 20 21  1  0
 21  2  1  0
 10  5  1  0
 21 12  2  0
 19 15  1  0
  6 22  1  0
  6 23  1  0
  7 24  1  0
  7 25  1  0
  9 26  1  0
  9 27  1  0
 10 28  1  0
 10 29  1  0
 16 30  1  0
 17 31  1  0
 18 32  1  0
 20 33  1  0
M  CHG  1  11  -1
M  END
>  <UniqueID>  (72) 
36

>  <SMILES>  (72) 
O=c1nc(N2CCOCC2)[n-]c2sc(-c3cccs3)cc12

>  <Energy>  (72) 
98.10198403876991

>  <Genealogy>  (72) 
O=c1nc(N2CCOCC2)[n-]c2sc(-c3cccs3)cc12 (protonated)
O=c1nc(N2CCOCC2)[n-]c2sc(-c3cccs3)cc12 (3D coordinates assigned)
O=c1nc(N2CCOCC2)[n-]c2sc(-c3cccs3)cc12 (nonaromatic ring conformer: 98.10198403876991 kcal/mol)

>  <smiles>  (72) 
O=c1nc(N2CCOCC2)[nH]c2sc(-c3cccs3)cc12

>  <score_type>  (72) 
oracle

>  <origin>  (72) 
autodockgpu

>  <m_score__min__energy>  (72) 
-5.9900000000000002

>  <m_primary>  (72) 
energy

>  <meeko>  (72) 
{"free_energy": -5.99, "intermolecular_energy": -6.58, "internal_energy": -0.43, "cluster_size": 16, "cluster_id": 1, "rank_in_cluster": 4}

>  <energy>  (72) 
-5.95

>  <cluster_rmsd>  (72) 
0.68

>  <rmsd>  (72) 
271.42

>  <cluster>  (72) 
1

$$$$
CFPRWASAHFAXRY-FWJFTDBINA-M
     RDKit          3D

 33 36  0  0  0  0  0  0  0  0999 V2000
  146.5270   73.3760  219.2730 O   0  0  0  0  0  0  0  0  0  0  0  0
  145.5640   72.5870  219.4680 C   0  0  0  0  0  0  0  0  0  0  0  0
  145.7300   71.2470  219.2850 N   0  0  0  0  0  0  0  0  0  0  0  0
  144.7070   70.3570  219.4870 C   0  0  0  0  0  0  0  0  0  0  0  0
  144.9210   68.9440  219.2830 N   0  0  0  0  0  0  0  0  0  0  0  0
  146.2830   68.3950  219.3520 C   0  0  0  0  0  0  0  0  0  0  0  0
  146.3660   67.0690  218.5920 C   0  0  0  0  0  0  0  0  0  0  0  0
  145.3410   66.1870  219.0000 O   0  0  0  0  0  0  0  0  0  0  0  0
  144.0870   66.7180  218.6220 C   0  0  0  0  0  0  0  0  0  0  0  0
  143.7900   68.0120  219.3860 C   0  0  0  0  0  0  0  0  0  0  0  0
  143.4820   70.8170  219.8840 N   0  0  0  0  0  0  0  0  0  0  0  0
  143.3060   72.1460  220.0700 C   0  0  0  0  0  0  0  0  0  0  0  0
  141.9010   72.9240  220.5510 S   0  0  0  0  0  0  0  0  0  0  0  0
  142.5910   74.4750  220.5110 C   0  0  0  0  0  0  0  0  0  0  0  0
  141.8740   75.7180  220.8420 C   0  0  0  0  0  0  0  0  0  0  0  0
  140.9930   75.9080  221.9020 C   0  0  0  0  0  0  0  0  0  0  0  0
  140.4660   77.2040  221.9590 C   0  0  0  0  0  0  0  0  0  0  0  0
  140.9250   78.0380  220.9500 C   0  0  0  0  0  0  0  0  0  0  0  0
  141.9890   77.1620  219.9870 S   0  0  0  0  0  0  0  0  0  0  0  0
  143.9310   74.3810  220.1170 C   0  0  0  0  0  0  0  0  0  0  0  0
  144.3170   73.0590  219.8730 C   0  0  0  0  0  0  0  0  0  0  0  0
  146.9858   69.1132  218.9046 H   0  0  0  0  0  0  0  0  0  0  0  0
  146.5419   68.2174  220.4063 H   0  0  0  0  0  0  0  0  0  0  0  0
  146.2642   67.2650  217.5144 H   0  0  0  0  0  0  0  0  0  0  0  0
  147.3378   66.6012  218.8083 H   0  0  0  0  0  0  0  0  0  0  0  0
  144.0963   66.9307  217.5428 H   0  0  0  0  0  0  0  0  0  0  0  0
  143.3062   65.9810  218.8610 H   0  0  0  0  0  0  0  0  0  0  0  0
  142.8921   68.4847  218.9613 H   0  0  0  0  0  0  0  0  0  0  0  0
  143.6263   67.7685  220.4461 H   0  0  0  0  0  0  0  0  0  0  0  0
  140.7360   75.1185  222.6236 H   0  0  0  0  0  0  0  0  0  0  0  0
  139.7544   77.5303  222.7318 H   0  0  0  0  0  0  0  0  0  0  0  0
  140.6417   79.0909  220.8049 H   0  0  0  0  0  0  0  0  0  0  0  0
  144.6022   75.2461  220.0116 H   0  0  0  0  0  0  0  0  0  0  0  0
  1  2  2  0
  2  3  1  0
  3  4  2  0
  4  5  1  0
  5  6  1  0
  6  7  1  0
  7  8  1  0
  8  9  1  0
  9 10  1  0
  4 11  1  0
 11 12  1  0
 12 13  1  0
 13 14  1  0
 14 15  1  0
 15 16  2  0
 16 17  1  0
 17 18  2  0
 18 19  1  0
 14 20  2  0
 20 21  1  0
 21  2  1  0
 10  5  1  0
 21 12  2  0
 19 15  1  0
  6 22  1  0
  6 23  1  0
  7 24  1  0
  7 25  1  0
  9 26  1  0
  9 27  1  0
 10 28  1  0
 10 29  1  0
 16 30  1  0
 17 31  1  0
 18 32  1  0
 20 33  1  0
M  CHG  1  11  -1
M  END
>  <UniqueID>  (73) 
36

>  <SMILES>  (73) 
O=c1nc(N2CCOCC2)[n-]c2sc(-c3cccs3)cc12

>  <Energy>  (73) 
98.10198403876991

>  <Genealogy>  (73) 
O=c1nc(N2CCOCC2)[n-]c2sc(-c3cccs3)cc12 (protonated)
O=c1nc(N2CCOCC2)[n-]c2sc(-c3cccs3)cc12 (3D coordinates assigned)
O=c1nc(N2CCOCC2)[n-]c2sc(-c3cccs3)cc12 (nonaromatic ring conformer: 98.10198403876991 kcal/mol)

>  <smiles>  (73) 
O=c1nc(N2CCOCC2)[nH]c2sc(-c3cccs3)cc12

>  <score_type>  (73) 
oracle

>  <origin>  (73) 
autodockgpu

>  <m_score__min__energy>  (73) 
-5.9900000000000002

>  <m_primary>  (73) 
energy

>  <meeko>  (73) 
{"free_energy": -5.95, "intermolecular_energy": -6.54, "internal_energy": -0.43, "cluster_size": 16, "cluster_id": 1, "rank_in_cluster": 14}

>  <energy>  (73) 
-5.95

>  <cluster_rmsd>  (73) 
0.69

>  <rmsd>  (73) 
271.4

>  <cluster>  (73) 
1

$$$$
CFPRWASAHFAXRY-FWJFTDBINA-M
     RDKit          3D

 33 36  0  0  0  0  0  0  0  0999 V2000
  139.8670   73.6130  222.3370 O   0  0  0  0  0  0  0  0  0  0  0  0
  140.6850   74.3730  221.7540 C   0  0  0  0  0  0  0  0  0  0  0  0
  141.7500   73.8480  221.0840 N   0  0  0  0  0  0  0  0  0  0  0  0
  142.6610   74.6420  220.4380 C   0  0  0  0  0  0  0  0  0  0  0  0
  143.7760   74.0490  219.7380 N   0  0  0  0  0  0  0  0  0  0  0  0
  143.8310   74.1070  218.2700 C   0  0  0  0  0  0  0  0  0  0  0  0
  144.7330   72.9970  217.7230 C   0  0  0  0  0  0  0  0  0  0  0  0
  145.9880   73.0000  218.3720 O   0  0  0  0  0  0  0  0  0  0  0  0
  145.8140   72.6580  219.7320 C   0  0  0  0  0  0  0  0  0  0  0  0
  145.0130   73.7360  220.4680 C   0  0  0  0  0  0  0  0  0  0  0  0
  142.5060   76.0010  220.4590 N   0  0  0  0  0  0  0  0  0  0  0  0
  141.4530   76.5340  221.1210 C   0  0  0  0  0  0  0  0  0  0  0  0
  141.0710   78.1580  221.2760 S   0  0  0  0  0  0  0  0  0  0  0  0
  139.6800   77.8770  222.2070 C   0  0  0  0  0  0  0  0  0  0  0  0
  138.7940   78.9320  222.7280 C   0  0  0  0  0  0  0  0  0  0  0  0
  137.4030   78.9350  222.6940 C   0  0  0  0  0  0  0  0  0  0  0  0
  136.8380   80.0800  223.2690 C   0  0  0  0  0  0  0  0  0  0  0  0
  137.7740   80.9800  223.7570 C   0  0  0  0  0  0  0  0  0  0  0  0
  139.3070   80.3510  223.4730 S   0  0  0  0  0  0  0  0  0  0  0  0
  139.5150   76.5000  222.3990 C   0  0  0  0  0  0  0  0  0  0  0  0
  140.5250   75.7570  221.7780 C   0  0  0  0  0  0  0  0  0  0  0  0
  142.8162   73.9816  217.8645 H   0  0  0  0  0  0  0  0  0  0  0  0
  144.2424   75.0813  217.9676 H   0  0  0  0  0  0  0  0  0  0  0  0
  144.2459   72.0243  217.8859 H   0  0  0  0  0  0  0  0  0  0  0  0
  144.8929   73.1721  216.6489 H   0  0  0  0  0  0  0  0  0  0  0  0
  145.2748   71.7014  219.7967 H   0  0  0  0  0  0  0  0  0  0  0  0
  146.8045   72.5731  220.2027 H   0  0  0  0  0  0  0  0  0  0  0  0
  144.7571   73.3727  221.4742 H   0  0  0  0  0  0  0  0  0  0  0  0
  145.6247   74.6476  220.5373 H   0  0  0  0  0  0  0  0  0  0  0  0
  136.8067   78.1194  222.2589 H   0  0  0  0  0  0  0  0  0  0  0  0
  135.7528   80.2500  223.3282 H   0  0  0  0  0  0  0  0  0  0  0  0
  137.5515   81.9400  224.2457 H   0  0  0  0  0  0  0  0  0  0  0  0
  138.6880   76.0543  222.9712 H   0  0  0  0  0  0  0  0  0  0  0  0
  1  2  2  0
  2  3  1  0
  3  4  2  0
  4  5  1  0
  5  6  1  0
  6  7  1  0
  7  8  1  0
  8  9  1  0
  9 10  1  0
  4 11  1  0
 11 12  1  0
 12 13  1  0
 13 14  1  0
 14 15  1  0
 15 16  2  0
 16 17  1  0
 17 18  2  0
 18 19  1  0
 14 20  2  0
 20 21  1  0
 21  2  1  0
 10  5  1  0
 21 12  2  0
 19 15  1  0
  6 22  1  0
  6 23  1  0
  7 24  1  0
  7 25  1  0
  9 26  1  0
  9 27  1  0
 10 28  1  0
 10 29  1  0
 16 30  1  0
 17 31  1  0
 18 32  1  0
 20 33  1  0
M  CHG  1  11  -1
M  END
>  <UniqueID>  (74) 
36

>  <SMILES>  (74) 
O=c1nc(N2CCOCC2)[n-]c2sc(-c3cccs3)cc12

>  <Energy>  (74) 
98.10198403876991

>  <Genealogy>  (74) 
O=c1nc(N2CCOCC2)[n-]c2sc(-c3cccs3)cc12 (protonated)
O=c1nc(N2CCOCC2)[n-]c2sc(-c3cccs3)cc12 (3D coordinates assigned)
O=c1nc(N2CCOCC2)[n-]c2sc(-c3cccs3)cc12 (nonaromatic ring conformer: 98.10198403876991 kcal/mol)

>  <smiles>  (74) 
O=c1nc(N2CCOCC2)[nH]c2sc(-c3cccs3)cc12

>  <score_type>  (74) 
oracle

>  <origin>  (74) 
autodockgpu

>  <m_score__min__energy>  (74) 
-5.9900000000000002

>  <m_primary>  (74) 
energy

>  <meeko>  (74) 
{"free_energy": -5.69, "intermolecular_energy": -6.28, "internal_energy": -0.42, "cluster_size": 4, "cluster_id": 2, "rank_in_cluster": 2}

>  <energy>  (74) 
-5.95

>  <cluster_rmsd>  (74) 
0.68

>  <rmsd>  (74) 
271.4

>  <cluster>  (74) 
1

$$$$
CFPRWASAHFAXRY-FWJFTDBINA-M
     RDKit          3D

 33 36  0  0  0  0  0  0  0  0999 V2000
  139.8540   73.6340  222.3340 O   0  0  0  0  0  0  0  0  0  0  0  0
  140.6750   74.3900  221.7490 C   0  0  0  0  0  0  0  0  0  0  0  0
  141.7370   73.8600  221.0790 N   0  0  0  0  0  0  0  0  0  0  0  0
  142.6510   74.6500  220.4320 C   0  0  0  0  0  0  0  0  0  0  0  0
  143.7630   74.0510  219.7320 N   0  0  0  0  0  0  0  0  0  0  0  0
  143.8130   74.1000  218.2640 C   0  0  0  0  0  0  0  0  0  0  0  0
  144.7120   72.9860  217.7200 C   0  0  0  0  0  0  0  0  0  0  0  0
  145.9690   72.9920  218.3650 O   0  0  0  0  0  0  0  0  0  0  0  0
  145.7990   72.6580  219.7270 C   0  0  0  0  0  0  0  0  0  0  0  0
  145.0020   73.7420  220.4600 C   0  0  0  0  0  0  0  0  0  0  0  0
  142.5020   76.0090  220.4520 N   0  0  0  0  0  0  0  0  0  0  0  0
  141.4510   76.5470  221.1140 C   0  0  0  0  0  0  0  0  0  0  0  0
  141.0760   78.1730  221.2670 S   0  0  0  0  0  0  0  0  0  0  0  0
  139.6850   77.8990  222.2000 C   0  0  0  0  0  0  0  0  0  0  0  0
  138.8030   78.9580  222.7210 C   0  0  0  0  0  0  0  0  0  0  0  0
  137.4120   78.9690  222.6830 C   0  0  0  0  0  0  0  0  0  0  0  0
  136.8520   80.1160  223.2590 C   0  0  0  0  0  0  0  0  0  0  0  0
  137.7920   81.0100  223.7500 C   0  0  0  0  0  0  0  0  0  0  0  0
  139.3220   80.3730  223.4680 S   0  0  0  0  0  0  0  0  0  0  0  0
  139.5140   76.5230  222.3930 C   0  0  0  0  0  0  0  0  0  0  0  0
  140.5210   75.7750  221.7720 C   0  0  0  0  0  0  0  0  0  0  0  0
  142.7966   73.9732  217.8628 H   0  0  0  0  0  0  0  0  0  0  0  0
  144.2246   75.0720  217.9545 H   0  0  0  0  0  0  0  0  0  0  0  0
  144.2246   72.0146  217.8901 H   0  0  0  0  0  0  0  0  0  0  0  0
  144.8683   73.1545  216.6443 H   0  0  0  0  0  0  0  0  0  0  0  0
  145.2583   71.7027  219.7989 H   0  0  0  0  0  0  0  0  0  0  0  0
  146.7910   72.5740  220.1949 H   0  0  0  0  0  0  0  0  0  0  0  0
  144.7494   73.3853  221.4694 H   0  0  0  0  0  0  0  0  0  0  0  0
  145.6148   74.6534  220.5222 H   0  0  0  0  0  0  0  0  0  0  0  0
  136.8123   78.1578  222.2444 H   0  0  0  0  0  0  0  0  0  0  0  0
  135.7677   80.2916  223.3167 H   0  0  0  0  0  0  0  0  0  0  0  0
  137.5739   81.9705  224.2397 H   0  0  0  0  0  0  0  0  0  0  0  0
  138.6852   76.0813  222.9657 H   0  0  0  0  0  0  0  0  0  0  0  0
  1  2  2  0
  2  3  1  0
  3  4  2  0
  4  5  1  0
  5  6  1  0
  6  7  1  0
  7  8  1  0
  8  9  1  0
  9 10  1  0
  4 11  1  0
 11 12  1  0
 12 13  1  0
 13 14  1  0
 14 15  1  0
 15 16  2  0
 16 17  1  0
 17 18  2  0
 18 19  1  0
 14 20  2  0
 20 21  1  0
 21  2  1  0
 10  5  1  0
 21 12  2  0
 19 15  1  0
  6 22  1  0
  6 23  1  0
  7 24  1  0
  7 25  1  0
  9 26  1  0
  9 27  1  0
 10 28  1  0
 10 29  1  0
 16 30  1  0
 17 31  1  0
 18 32  1  0
 20 33  1  0
M  CHG  1  11  -1
M  END
>  <UniqueID>  (75) 
36

>  <SMILES>  (75) 
O=c1nc(N2CCOCC2)[n-]c2sc(-c3cccs3)cc12

>  <Energy>  (75) 
98.10198403876991

>  <Genealogy>  (75) 
O=c1nc(N2CCOCC2)[n-]c2sc(-c3cccs3)cc12 (protonated)
O=c1nc(N2CCOCC2)[n-]c2sc(-c3cccs3)cc12 (3D coordinates assigned)
O=c1nc(N2CCOCC2)[n-]c2sc(-c3cccs3)cc12 (nonaromatic ring conformer: 98.10198403876991 kcal/mol)

>  <smiles>  (75) 
O=c1nc(N2CCOCC2)[nH]c2sc(-c3cccs3)cc12

>  <score_type>  (75) 
oracle

>  <origin>  (75) 
autodockgpu

>  <m_score__min__energy>  (75) 
-5.9900000000000002

>  <m_primary>  (75) 
energy

>  <meeko>  (75) 
{"free_energy": -5.68, "intermolecular_energy": -6.28, "internal_energy": -0.42, "cluster_size": 4, "cluster_id": 2, "rank_in_cluster": 3}

>  <energy>  (75) 
-5.94

>  <cluster_rmsd>  (75) 
0.89

>  <rmsd>  (75) 
271.45

>  <cluster>  (75) 
1

$$$$
CFPRWASAHFAXRY-FWJFTDBINA-M
     RDKit          3D

 33 36  0  0  0  0  0  0  0  0999 V2000
  139.8680   73.6150  222.3400 O   0  0  0  0  0  0  0  0  0  0  0  0
  140.6870   74.3760  221.7600 C   0  0  0  0  0  0  0  0  0  0  0  0
  141.7560   73.8540  221.0950 N   0  0  0  0  0  0  0  0  0  0  0  0
  142.6680   74.6500  220.4520 C   0  0  0  0  0  0  0  0  0  0  0  0
  143.7870   74.0590  219.7570 N   0  0  0  0  0  0  0  0  0  0  0  0
  143.8370   74.0970  218.2880 C   0  0  0  0  0  0  0  0  0  0  0  0
  144.7480   72.9900  217.7530 C   0  0  0  0  0  0  0  0  0  0  0  0
  146.0050   73.0150  218.3980 O   0  0  0  0  0  0  0  0  0  0  0  0
  145.8380   72.6890  219.7630 C   0  0  0  0  0  0  0  0  0  0  0  0
  145.0280   73.7680  220.4870 C   0  0  0  0  0  0  0  0  0  0  0  0
  142.5090   76.0080  220.4730 N   0  0  0  0  0  0  0  0  0  0  0  0
  141.4520   76.5390  221.1290 C   0  0  0  0  0  0  0  0  0  0  0  0
  141.0660   78.1620  221.2830 S   0  0  0  0  0  0  0  0  0  0  0  0
  139.6720   77.8780  222.2090 C   0  0  0  0  0  0  0  0  0  0  0  0
  138.7820   78.9310  222.7260 C   0  0  0  0  0  0  0  0  0  0  0  0
  137.3900   78.9300  222.6880 C   0  0  0  0  0  0  0  0  0  0  0  0
  136.8200   80.0740  223.2600 C   0  0  0  0  0  0  0  0  0  0  0  0
  137.7520   80.9780  223.7490 C   0  0  0  0  0  0  0  0  0  0  0  0
  139.2880   80.3530  223.4690 S   0  0  0  0  0  0  0  0  0  0  0  0
  139.5090   76.5010  222.3990 C   0  0  0  0  0  0  0  0  0  0  0  0
  140.5230   75.7600  221.7830 C   0  0  0  0  0  0  0  0  0  0  0  0
  142.8223   73.9556  217.8876 H   0  0  0  0  0  0  0  0  0  0  0  0
  144.2378   75.0712  217.9712 H   0  0  0  0  0  0  0  0  0  0  0  0
  144.2716   72.0145  217.9305 H   0  0  0  0  0  0  0  0  0  0  0  0
  144.9026   73.1522  216.6761 H   0  0  0  0  0  0  0  0  0  0  0  0
  145.3089   71.7278  219.8417 H   0  0  0  0  0  0  0  0  0  0  0  0
  146.8306   72.6205  220.2321 H   0  0  0  0  0  0  0  0  0  0  0  0
  144.7783   73.4150  221.4985 H   0  0  0  0  0  0  0  0  0  0  0  0
  145.6306   74.6865  220.5428 H   0  0  0  0  0  0  0  0  0  0  0  0
  136.7973   78.1122  222.2522 H   0  0  0  0  0  0  0  0  0  0  0  0
  135.7341   80.2405  223.3164 H   0  0  0  0  0  0  0  0  0  0  0  0
  137.5253   81.9380  224.2359 H   0  0  0  0  0  0  0  0  0  0  0  0
  138.6799   76.0535  222.9667 H   0  0  0  0  0  0  0  0  0  0  0  0
  1  2  2  0
  2  3  1  0
  3  4  2  0
  4  5  1  0
  5  6  1  0
  6  7  1  0
  7  8  1  0
  8  9  1  0
  9 10  1  0
  4 11  1  0
 11 12  1  0
 12 13  1  0
 13 14  1  0
 14 15  1  0
 15 16  2  0
 16 17  1  0
 17 18  2  0
 18 19  1  0
 14 20  2  0
 20 21  1  0
 21  2  1  0
 10  5  1  0
 21 12  2  0
 19 15  1  0
  6 22  1  0
  6 23  1  0
  7 24  1  0
  7 25  1  0
  9 26  1  0
  9 27  1  0
 10 28  1  0
 10 29  1  0
 16 30  1  0
 17 31  1  0
 18 32  1  0
 20 33  1  0
M  CHG  1  11  -1
M  END
>  <UniqueID>  (76) 
36

>  <SMILES>  (76) 
O=c1nc(N2CCOCC2)[n-]c2sc(-c3cccs3)cc12

>  <Energy>  (76) 
98.10198403876991

>  <Genealogy>  (76) 
O=c1nc(N2CCOCC2)[n-]c2sc(-c3cccs3)cc12 (protonated)
O=c1nc(N2CCOCC2)[n-]c2sc(-c3cccs3)cc12 (3D coordinates assigned)
O=c1nc(N2CCOCC2)[n-]c2sc(-c3cccs3)cc12 (nonaromatic ring conformer: 98.10198403876991 kcal/mol)

>  <smiles>  (76) 
O=c1nc(N2CCOCC2)[nH]c2sc(-c3cccs3)cc12

>  <score_type>  (76) 
oracle

>  <origin>  (76) 
autodockgpu

>  <m_score__min__energy>  (76) 
-5.9900000000000002

>  <m_primary>  (76) 
energy

>  <meeko>  (76) 
{"free_energy": -5.69, "intermolecular_energy": -6.29, "internal_energy": -0.42, "cluster_size": 4, "cluster_id": 2, "rank_in_cluster": 1}

>  <energy>  (76) 
-5.87

>  <cluster_rmsd>  (76) 
1.06

>  <rmsd>  (76) 
271.45

>  <cluster>  (76) 
1

$$$$
CFPRWASAHFAXRY-FWJFTDBINA-M
     RDKit          3D

 33 36  0  0  0  0  0  0  0  0999 V2000
  146.6310   73.3860  219.3140 O   0  0  0  0  0  0  0  0  0  0  0  0
  145.6480   72.6170  219.4850 C   0  0  0  0  0  0  0  0  0  0  0  0
  145.7940   71.2720  219.3210 N   0  0  0  0  0  0  0  0  0  0  0  0
  144.7490   70.4030  219.4970 C   0  0  0  0  0  0  0  0  0  0  0  0
  144.9430   68.9840  219.3150 N   0  0  0  0  0  0  0  0  0  0  0  0
  146.3020   68.4240  219.3490 C   0  0  0  0  0  0  0  0  0  0  0  0
  146.3470   67.0820  218.6120 C   0  0  0  0  0  0  0  0  0  0  0  0
  145.3280   66.2190  219.0730 O   0  0  0  0  0  0  0  0  0  0  0  0
  144.0670   66.7540  218.7280 C   0  0  0  0  0  0  0  0  0  0  0  0
  143.8080   68.0660  219.4750 C   0  0  0  0  0  0  0  0  0  0  0  0
  143.5200   70.8900  219.8490 N   0  0  0  0  0  0  0  0  0  0  0  0
  143.3630   72.2240  220.0160 C   0  0  0  0  0  0  0  0  0  0  0  0
  141.9580   73.0320  220.4430 S   0  0  0  0  0  0  0  0  0  0  0  0
  142.6770   74.5700  220.4100 C   0  0  0  0  0  0  0  0  0  0  0  0
  141.9740   75.8300  220.7050 C   0  0  0  0  0  0  0  0  0  0  0  0
  142.1850   77.0590  220.0870 C   0  0  0  0  0  0  0  0  0  0  0  0
  141.3610   78.0760  220.5840 C   0  0  0  0  0  0  0  0  0  0  0  0
  140.5010   77.6580  221.5890 C   0  0  0  0  0  0  0  0  0  0  0  0
  140.7670   76.0210  221.8610 S   0  0  0  0  0  0  0  0  0  0  0  0
  144.0280   74.4480  220.0620 C   0  0  0  0  0  0  0  0  0  0  0  0
  144.3970   73.1160  219.8430 C   0  0  0  0  0  0  0  0  0  0  0  0
  146.9955   69.1268  218.8642 H   0  0  0  0  0  0  0  0  0  0  0  0
  146.5953   68.2646  220.3971 H   0  0  0  0  0  0  0  0  0  0  0  0
  146.2099   67.2579  217.5349 H   0  0  0  0  0  0  0  0  0  0  0  0
  147.3214   66.6087  218.8032 H   0  0  0  0  0  0  0  0  0  0  0  0
  144.0406   66.9447  217.6450 H   0  0  0  0  0  0  0  0  0  0  0  0
  143.2885   66.0295  219.0091 H   0  0  0  0  0  0  0  0  0  0  0  0
  142.9007   68.5390  219.0712 H   0  0  0  0  0  0  0  0  0  0  0  0
  143.6780   67.8455  220.5448 H   0  0  0  0  0  0  0  0  0  0  0  0
  142.9249   77.2156  219.2882 H   0  0  0  0  0  0  0  0  0  0  0  0
  141.3926   79.1107  220.2120 H   0  0  0  0  0  0  0  0  0  0  0  0
  139.7709   78.2891  222.1169 H   0  0  0  0  0  0  0  0  0  0  0  0
  144.7184   75.2996  219.9714 H   0  0  0  0  0  0  0  0  0  0  0  0
  1  2  2  0
  2  3  1  0
  3  4  2  0
  4  5  1  0
  5  6  1  0
  6  7  1  0
  7  8  1  0
  8  9  1  0
  9 10  1  0
  4 11  1  0
 11 12  1  0
 12 13  1  0
 13 14  1  0
 14 15  1  0
 15 16  2  0
 16 17  1  0
 17 18  2  0
 18 19  1  0
 14 20  2  0
 20 21  1  0
 21  2  1  0
 10  5  1  0
 21 12  2  0
 19 15  1  0
  6 22  1  0
  6 23  1  0
  7 24  1  0
  7 25  1  0
  9 26  1  0
  9 27  1  0
 10 28  1  0
 10 29  1  0
 16 30  1  0
 17 31  1  0
 18 32  1  0
 20 33  1  0
M  CHG  1  11  -1
M  END
>  <UniqueID>  (77) 
36

>  <SMILES>  (77) 
O=c1nc(N2CCOCC2)[n-]c2sc(-c3cccs3)cc12

>  <Energy>  (77) 
98.10198403876991

>  <Genealogy>  (77) 
O=c1nc(N2CCOCC2)[n-]c2sc(-c3cccs3)cc12 (protonated)
O=c1nc(N2CCOCC2)[n-]c2sc(-c3cccs3)cc12 (3D coordinates assigned)
O=c1nc(N2CCOCC2)[n-]c2sc(-c3cccs3)cc12 (nonaromatic ring conformer: 98.10198403876991 kcal/mol)

>  <smiles>  (77) 
O=c1nc(N2CCOCC2)[nH]c2sc(-c3cccs3)cc12

>  <score_type>  (77) 
oracle

>  <origin>  (77) 
autodockgpu

>  <m_score__min__energy>  (77) 
-5.9900000000000002

>  <m_primary>  (77) 
energy

>  <meeko>  (77) 
{"free_energy": -5.97, "intermolecular_energy": -6.56, "internal_energy": -0.43, "cluster_size": 16, "cluster_id": 1, "rank_in_cluster": 9}

>  <energy>  (77) 
-5.69

>  <cluster_rmsd>  (77) 
0.0

>  <rmsd>  (77) 
272.26

>  <cluster>  (77) 
2

$$$$
CFPRWASAHFAXRY-FWJFTDBINA-M
     RDKit          3D

 33 36  0  0  0  0  0  0  0  0999 V2000
  146.5210   73.3760  219.3230 O   0  0  0  0  0  0  0  0  0  0  0  0
  145.5510   72.5910  219.5020 C   0  0  0  0  0  0  0  0  0  0  0  0
  145.7110   71.2510  219.3100 N   0  0  0  0  0  0  0  0  0  0  0  0
  144.6810   70.3660  219.4940 C   0  0  0  0  0  0  0  0  0  0  0  0
  144.8890   68.9530  219.2810 N   0  0  0  0  0  0  0  0  0  0  0  0
  146.2480   68.3970  219.3490 C   0  0  0  0  0  0  0  0  0  0  0  0
  146.3270   67.0760  218.5800 C   0  0  0  0  0  0  0  0  0  0  0  0
  145.2960   66.1960  218.9810 O   0  0  0  0  0  0  0  0  0  0  0  0
  144.0460   66.7350  218.6040 C   0  0  0  0  0  0  0  0  0  0  0  0
  143.7530   68.0260  219.3760 C   0  0  0  0  0  0  0  0  0  0  0  0
  143.4540   70.8300  219.8810 N   0  0  0  0  0  0  0  0  0  0  0  0
  143.2830   72.1590  220.0750 C   0  0  0  0  0  0  0  0  0  0  0  0
  141.8790   72.9410  220.5460 S   0  0  0  0  0  0  0  0  0  0  0  0
  142.5770   74.4880  220.5270 C   0  0  0  0  0  0  0  0  0  0  0  0
  141.8650   75.7330  220.8590 C   0  0  0  0  0  0  0  0  0  0  0  0
  141.0040   75.9310  221.9340 C   0  0  0  0  0  0  0  0  0  0  0  0
  140.4750   77.2270  221.9890 C   0  0  0  0  0  0  0  0  0  0  0  0
  140.9130   78.0520  220.9630 C   0  0  0  0  0  0  0  0  0  0  0  0
  141.9590   77.1690  219.9880 S   0  0  0  0  0  0  0  0  0  0  0  0
  143.9210   74.3900  220.1470 C   0  0  0  0  0  0  0  0  0  0  0  0
  144.3030   73.0670  219.8960 C   0  0  0  0  0  0  0  0  0  0  0  0
  146.9552   69.1151  218.9082 H   0  0  0  0  0  0  0  0  0  0  0  0
  146.5033   68.2106  220.4026 H   0  0  0  0  0  0  0  0  0  0  0  0
  146.2282   67.2796  217.5035 H   0  0  0  0  0  0  0  0  0  0  0  0
  147.2963   66.6022  218.7943 H   0  0  0  0  0  0  0  0  0  0  0  0
  144.0586   66.9546  217.5262 H   0  0  0  0  0  0  0  0  0  0  0  0
  143.2613   66.0001  218.8367 H   0  0  0  0  0  0  0  0  0  0  0  0
  142.8583   68.5057  218.9524 H   0  0  0  0  0  0  0  0  0  0  0  0
  143.5855   67.7768  220.4342 H   0  0  0  0  0  0  0  0  0  0  0  0
  140.7627   75.1478  222.6677 H   0  0  0  0  0  0  0  0  0  0  0  0
  139.7778   77.5594  222.7722 H   0  0  0  0  0  0  0  0  0  0  0  0
  140.6251   79.1031  220.8135 H   0  0  0  0  0  0  0  0  0  0  0  0
  144.5979   75.2523  220.0563 H   0  0  0  0  0  0  0  0  0  0  0  0
  1  2  2  0
  2  3  1  0
  3  4  2  0
  4  5  1  0
  5  6  1  0
  6  7  1  0
  7  8  1  0
  8  9  1  0
  9 10  1  0
  4 11  1  0
 11 12  1  0
 12 13  1  0
 13 14  1  0
 14 15  1  0
 15 16  2  0
 16 17  1  0
 17 18  2  0
 18 19  1  0
 14 20  2  0
 20 21  1  0
 21  2  1  0
 10  5  1  0
 21 12  2  0
 19 15  1  0
  6 22  1  0
  6 23  1  0
  7 24  1  0
  7 25  1  0
  9 26  1  0
  9 27  1  0
 10 28  1  0
 10 29  1  0
 16 30  1  0
 17 31  1  0
 18 32  1  0
 20 33  1  0
M  CHG  1  11  -1
M  END
>  <UniqueID>  (78) 
36

>  <SMILES>  (78) 
O=c1nc(N2CCOCC2)[n-]c2sc(-c3cccs3)cc12

>  <Energy>  (78) 
98.10198403876991

>  <Genealogy>  (78) 
O=c1nc(N2CCOCC2)[n-]c2sc(-c3cccs3)cc12 (protonated)
O=c1nc(N2CCOCC2)[n-]c2sc(-c3cccs3)cc12 (3D coordinates assigned)
O=c1nc(N2CCOCC2)[n-]c2sc(-c3cccs3)cc12 (nonaromatic ring conformer: 98.10198403876991 kcal/mol)

>  <smiles>  (78) 
O=c1nc(N2CCOCC2)[nH]c2sc(-c3cccs3)cc12

>  <score_type>  (78) 
oracle

>  <origin>  (78) 
autodockgpu

>  <m_score__min__energy>  (78) 
-5.9900000000000002

>  <m_primary>  (78) 
energy

>  <meeko>  (78) 
{"free_energy": -5.95, "intermolecular_energy": -6.55, "internal_energy": -0.43, "cluster_size": 16, "cluster_id": 1, "rank_in_cluster": 13}

>  <energy>  (78) 
-5.69

>  <cluster_rmsd>  (78) 
0.02

>  <rmsd>  (78) 
272.25

>  <cluster>  (78) 
2

$$$$
CFPRWASAHFAXRY-FWJFTDBINA-M
     RDKit          3D

 33 36  0  0  0  0  0  0  0  0999 V2000
  146.5390   73.3840  219.1600 O   0  0  0  0  0  0  0  0  0  0  0  0
  145.5820   72.6020  219.4060 C   0  0  0  0  0  0  0  0  0  0  0  0
  145.7430   71.2560  219.2630 N   0  0  0  0  0  0  0  0  0  0  0  0
  144.7250   70.3750  219.5200 C   0  0  0  0  0  0  0  0  0  0  0  0
  144.9350   68.9550  219.3580 N   0  0  0  0  0  0  0  0  0  0  0  0
  146.3030   68.4210  219.3060 C   0  0  0  0  0  0  0  0  0  0  0  0
  146.3220   67.0620  218.6010 C   0  0  0  0  0  0  0  0  0  0  0  0
  145.3570   66.1920  219.1550 O   0  0  0  0  0  0  0  0  0  0  0  0
  144.0630   66.6950  218.8890 C   0  0  0  0  0  0  0  0  0  0  0  0
  143.8320   68.0200  219.6220 C   0  0  0  0  0  0  0  0  0  0  0  0
  143.5110   70.8490  219.9330 N   0  0  0  0  0  0  0  0  0  0  0  0
  143.3390   72.1830  220.0790 C   0  0  0  0  0  0  0  0  0  0  0  0
  141.9480   72.9780  220.5700 S   0  0  0  0  0  0  0  0  0  0  0  0
  142.6360   74.5260  220.4610 C   0  0  0  0  0  0  0  0  0  0  0  0
  141.9280   75.7800  220.7690 C   0  0  0  0  0  0  0  0  0  0  0  0
  142.1330   77.0160  220.1630 C   0  0  0  0  0  0  0  0  0  0  0  0
  141.3060   78.0250  220.6700 C   0  0  0  0  0  0  0  0  0  0  0  0
  140.4500   77.5950  221.6730 C   0  0  0  0  0  0  0  0  0  0  0  0
  140.7220   75.9550  221.9290 S   0  0  0  0  0  0  0  0  0  0  0  0
  143.9650   74.4180  220.0370 C   0  0  0  0  0  0  0  0  0  0  0  0
  144.3460   73.0880  219.8260 C   0  0  0  0  0  0  0  0  0  0  0  0
  146.9451   69.1237  218.7548 H   0  0  0  0  0  0  0  0  0  0  0  0
  146.6744   68.2938  220.3336 H   0  0  0  0  0  0  0  0  0  0  0  0
  146.1042   67.2077  217.5327 H   0  0  0  0  0  0  0  0  0  0  0  0
  147.3171   66.6121  218.7330 H   0  0  0  0  0  0  0  0  0  0  0  0
  143.9553   66.8584  217.8066 H   0  0  0  0  0  0  0  0  0  0  0  0
  143.3214   65.9633  219.2420 H   0  0  0  0  0  0  0  0  0  0  0  0
  142.8886   68.4661  219.2742 H   0  0  0  0  0  0  0  0  0  0  0  0
  143.7837   67.8240  220.7033 H   0  0  0  0  0  0  0  0  0  0  0  0
  142.8714   77.1833  219.3650 H   0  0  0  0  0  0  0  0  0  0  0  0
  141.3325   79.0629  220.3066 H   0  0  0  0  0  0  0  0  0  0  0  0
  139.7193   78.2188  222.2086 H   0  0  0  0  0  0  0  0  0  0  0  0
  144.6331   75.2789  219.8869 H   0  0  0  0  0  0  0  0  0  0  0  0
  1  2  2  0
  2  3  1  0
  3  4  2  0
  4  5  1  0
  5  6  1  0
  6  7  1  0
  7  8  1  0
  8  9  1  0
  9 10  1  0
  4 11  1  0
 11 12  1  0
 12 13  1  0
 13 14  1  0
 14 15  1  0
 15 16  2  0
 16 17  1  0
 17 18  2  0
 18 19  1  0
 14 20  2  0
 20 21  1  0
 21  2  1  0
 10  5  1  0
 21 12  2  0
 19 15  1  0
  6 22  1  0
  6 23  1  0
  7 24  1  0
  7 25  1  0
  9 26  1  0
  9 27  1  0
 10 28  1  0
 10 29  1  0
 16 30  1  0
 17 31  1  0
 18 32  1  0
 20 33  1  0
M  CHG  1  11  -1
M  END
>  <UniqueID>  (79) 
36

>  <SMILES>  (79) 
O=c1nc(N2CCOCC2)[n-]c2sc(-c3cccs3)cc12

>  <Energy>  (79) 
98.10198403876991

>  <Genealogy>  (79) 
O=c1nc(N2CCOCC2)[n-]c2sc(-c3cccs3)cc12 (protonated)
O=c1nc(N2CCOCC2)[n-]c2sc(-c3cccs3)cc12 (3D coordinates assigned)
O=c1nc(N2CCOCC2)[n-]c2sc(-c3cccs3)cc12 (nonaromatic ring conformer: 98.10198403876991 kcal/mol)

>  <smiles>  (79) 
O=c1nc(N2CCOCC2)[nH]c2sc(-c3cccs3)cc12

>  <score_type>  (79) 
oracle

>  <origin>  (79) 
autodockgpu

>  <m_score__min__energy>  (79) 
-5.9900000000000002

>  <m_primary>  (79) 
energy

>  <meeko>  (79) 
{"free_energy": -5.98, "intermolecular_energy": -6.58, "internal_energy": -0.43, "cluster_size": 16, "cluster_id": 1, "rank_in_cluster": 6}

>  <energy>  (79) 
-5.68

>  <cluster_rmsd>  (79) 
0.04

>  <rmsd>  (79) 
272.24

>  <cluster>  (79) 
2

$$$$
CFPRWASAHFAXRY-FWJFTDBINA-M
     RDKit          3D

 33 36  0  0  0  0  0  0  0  0999 V2000
  146.3160   73.3710  218.7270 O   0  0  0  0  0  0  0  0  0  0  0  0
  145.4200   72.5730  219.1110 C   0  0  0  0  0  0  0  0  0  0  0  0
  145.6000   71.2280  218.9810 N   0  0  0  0  0  0  0  0  0  0  0  0
  144.6490   70.3280  219.3880 C   0  0  0  0  0  0  0  0  0  0  0  0
  144.8760   68.9110  219.2340 N   0  0  0  0  0  0  0  0  0  0  0  0
  146.2420   68.3760  219.3350 C   0  0  0  0  0  0  0  0  0  0  0  0
  146.3430   67.0250  218.6210 C   0  0  0  0  0  0  0  0  0  0  0  0
  145.3210   66.1490  219.0500 O   0  0  0  0  0  0  0  0  0  0  0  0
  144.0660   66.6570  218.6430 C   0  0  0  0  0  0  0  0  0  0  0  0
  143.7510   67.9740  219.3590 C   0  0  0  0  0  0  0  0  0  0  0  0
  143.4840   70.7830  219.9400 N   0  0  0  0  0  0  0  0  0  0  0  0
  143.2940   72.1160  220.0750 C   0  0  0  0  0  0  0  0  0  0  0  0
  141.9530   72.8880  220.7190 S   0  0  0  0  0  0  0  0  0  0  0  0
  142.5770   74.4490  220.4870 C   0  0  0  0  0  0  0  0  0  0  0  0
  141.8780   75.6930  220.8520 C   0  0  0  0  0  0  0  0  0  0  0  0
  140.9880   75.8620  221.9080 C   0  0  0  0  0  0  0  0  0  0  0  0
  140.4830   77.1650  222.0020 C   0  0  0  0  0  0  0  0  0  0  0  0
  140.9680   78.0250  221.0280 C   0  0  0  0  0  0  0  0  0  0  0  0
  142.0280   77.1630  220.0470 S   0  0  0  0  0  0  0  0  0  0  0  0
  143.8450   74.3640  219.8990 C   0  0  0  0  0  0  0  0  0  0  0  0
  144.2330   73.0390  219.6740 C   0  0  0  0  0  0  0  0  0  0  0  0
  146.9435   69.0844  218.8702 H   0  0  0  0  0  0  0  0  0  0  0  0
  146.4919   68.2366  220.3971 H   0  0  0  0  0  0  0  0  0  0  0  0
  146.2496   67.1832  217.5365 H   0  0  0  0  0  0  0  0  0  0  0  0
  147.3165   66.5729  218.8616 H   0  0  0  0  0  0  0  0  0  0  0  0
  144.0835   66.8326  217.5573 H   0  0  0  0  0  0  0  0  0  0  0  0
  143.2891   65.9222  218.9010 H   0  0  0  0  0  0  0  0  0  0  0  0
  142.8535   68.4243  218.9098 H   0  0  0  0  0  0  0  0  0  0  0  0
  143.5786   67.7662  220.4253 H   0  0  0  0  0  0  0  0  0  0  0  0
  140.7090   75.0534  222.5996 H   0  0  0  0  0  0  0  0  0  0  0  0
  139.7676   77.4775  222.7770 H   0  0  0  0  0  0  0  0  0  0  0  0
  140.7049   79.0872  220.9164 H   0  0  0  0  0  0  0  0  0  0  0  0
  144.4636   75.2370  219.6439 H   0  0  0  0  0  0  0  0  0  0  0  0
  1  2  2  0
  2  3  1  0
  3  4  2  0
  4  5  1  0
  5  6  1  0
  6  7  1  0
  7  8  1  0
  8  9  1  0
  9 10  1  0
  4 11  1  0
 11 12  1  0
 12 13  1  0
 13 14  1  0
 14 15  1  0
 15 16  2  0
 16 17  1  0
 17 18  2  0
 18 19  1  0
 14 20  2  0
 20 21  1  0
 21  2  1  0
 10  5  1  0
 21 12  2  0
 19 15  1  0
  6 22  1  0
  6 23  1  0
  7 24  1  0
  7 25  1  0
  9 26  1  0
  9 27  1  0
 10 28  1  0
 10 29  1  0
 16 30  1  0
 17 31  1  0
 18 32  1  0
 20 33  1  0
M  CHG  1  11  -1
M  END
>  <UniqueID>  (80) 
36

>  <SMILES>  (80) 
O=c1nc(N2CCOCC2)[n-]c2sc(-c3cccs3)cc12

>  <Energy>  (80) 
98.10198403876991

>  <Genealogy>  (80) 
O=c1nc(N2CCOCC2)[n-]c2sc(-c3cccs3)cc12 (protonated)
O=c1nc(N2CCOCC2)[n-]c2sc(-c3cccs3)cc12 (3D coordinates assigned)
O=c1nc(N2CCOCC2)[n-]c2sc(-c3cccs3)cc12 (nonaromatic ring conformer: 98.10198403876991 kcal/mol)

>  <smiles>  (80) 
O=c1nc(N2CCOCC2)[nH]c2sc(-c3cccs3)cc12

>  <score_type>  (80) 
oracle

>  <origin>  (80) 
autodockgpu

>  <m_score__min__energy>  (80) 
-5.9900000000000002

>  <m_primary>  (80) 
energy

>  <meeko>  (80) 
{"free_energy": -5.96, "intermolecular_energy": -6.55, "internal_energy": -0.43, "cluster_size": 16, "cluster_id": 1, "rank_in_cluster": 11}

>  <energy>  (80) 
-5.68

>  <cluster_rmsd>  (80) 
0.18

>  <rmsd>  (80) 
272.21

>  <cluster>  (80) 
2

$$$$
