
     RDKit          3D

 47 50  0  0  0  0  0  0  0  0999 V2000
  138.8160   67.9900  225.6900 O   0  0  0  0  0  0  0  0  0  0  0  0
  139.1530   69.1530  225.3830 C   0  0  0  0  0  0  0  0  0  0  0  0
  139.9150   69.8510  226.2920 C   0  0  0  0  0  0  0  0  0  0  0  0
  140.2770   69.2800  227.4750 C   0  0  0  0  0  0  0  0  0  0  0  0
  141.0380   70.0220  228.3480 C   0  0  0  0  0  0  0  0  0  0  0  0
  141.3980   71.3020  227.9850 C   0  0  0  0  0  0  0  0  0  0  0  0
  141.0360   71.8860  226.7900 C   0  0  0  0  0  0  0  0  0  0  0  0
  140.2750   71.1250  225.9320 C   0  0  0  0  0  0  0  0  0  0  0  0
  139.8990   71.6150  224.7890 N   0  0  0  0  0  0  0  0  0  0  0  0
  139.1400   70.9560  223.8540 C   0  0  0  0  0  0  0  0  0  0  0  0
  138.8930   71.6770  222.6470 C   0  0  0  0  0  0  0  0  0  0  0  0
  138.0540   72.6140  222.3400 C   0  0  0  0  0  0  0  0  0  0  0  0
  136.6560   72.6020  222.8200 C   0  0  0  0  0  0  0  0  0  0  0  0
  135.6090   71.8300  222.3030 C   0  0  0  0  0  0  0  0  0  0  0  0
  134.4720   72.1200  223.0360 C   0  0  0  0  0  0  0  0  0  0  0  0
  134.8940   73.0630  223.9690 C   0  0  0  0  0  0  0  0  0  0  0  0
  134.0320   73.6550  224.9510 N   0  0  0  0  0  0  0  0  0  0  0  0
  134.3580   73.6200  226.1530 O   0  0  0  0  0  0  0  0  0  0  0  0
  132.8650   74.2480  224.5250 O   0  0  0  0  0  0  0  0  0  0  0  0
  136.1540   73.3060  223.8030 O   0  0  0  0  0  0  0  0  0  0  0  0
  138.7790   69.7200  224.1800 N   0  0  0  0  0  0  0  0  0  0  0  0
  137.9610   68.8460  223.3680 C   0  0  0  0  0  0  0  0  0  0  0  0
  136.5410   68.8740  223.7580 C   0  0  0  0  0  0  0  0  0  0  0  0
  135.6080   68.3850  222.8210 C   0  0  0  0  0  0  0  0  0  0  0  0
  134.2640   68.3380  223.0770 C   0  0  0  0  0  0  0  0  0  0  0  0
  133.7570   68.7760  224.2830 C   0  0  0  0  0  0  0  0  0  0  0  0
  134.6440   69.2530  225.2020 C   0  0  0  0  0  0  0  0  0  0  0  0
  134.1680   69.7080  226.4410 O   0  0  0  0  0  0  0  0  0  0  0  0
  133.0010   70.5290  226.4760 C   0  0  0  0  0  0  0  0  0  0  0  0
  131.8460   69.7780  226.5520 F   0  0  0  0  0  0  0  0  0  0  0  0
  133.0380   71.2870  225.3170 F   0  0  0  0  0  0  0  0  0  0  0  0
  133.1510   71.3910  227.5360 F   0  0  0  0  0  0  0  0  0  0  0  0
  136.0070   69.2970  224.9350 C   0  0  0  0  0  0  0  0  0  0  0  0
  139.9691   68.2540  227.7250 H   0  0  0  0  0  0  0  0  0  0  0  0
  141.3526   69.6029  229.3152 H   0  0  0  0  0  0  0  0  0  0  0  0
  142.0075   71.8896  228.6873 H   0  0  0  0  0  0  0  0  0  0  0  0
  141.3408   72.9115  226.5342 H   0  0  0  0  0  0  0  0  0  0  0  0
  139.5443   71.3772  221.8128 H   0  0  0  0  0  0  0  0  0  0  0  0
  138.3918   73.4444  221.7025 H   0  0  0  0  0  0  0  0  0  0  0  0
  135.6778   71.1207  221.4650 H   0  0  0  0  0  0  0  0  0  0  0  0
  133.4630   71.7004  222.9100 H   0  0  0  0  0  0  0  0  0  0  0  0
  138.0440   69.1615  222.3175 H   0  0  0  0  0  0  0  0  0  0  0  0
  138.3259   67.8185  223.5135 H   0  0  0  0  0  0  0  0  0  0  0  0
  135.9739   68.0276  221.8471 H   0  0  0  0  0  0  0  0  0  0  0  0
  133.5791   67.9457  222.3108 H   0  0  0  0  0  0  0  0  0  0  0  0
  132.6782   68.7417  224.4951 H   0  0  0  0  0  0  0  0  0  0  0  0
  136.6827   69.6907  225.7086 H   0  0  0  0  0  0  0  0  0  0  0  0
  1  2  2  0
  2  3  1  0
  3  4  2  0
  4  5  1  0
  5  6  2  0
  6  7  1  0
  7  8  2  0
  8  9  1  0
  9 10  2  0
 10 11  1  0
 11 12  2  0
 12 13  1  0
 13 14  2  0
 14 15  1  0
 15 16  2  0
 16 17  1  0
 17 18  2  0
 17 19  1  0
 16 20  1  0
 10 21  1  0
 21 22  1  0
 22 23  1  0
 23 24  2  0
 24 25  1  0
 25 26  2  0
 26 27  1  0
 27 28  1  0
 28 29  1  0
 29 30  1  0
 29 31  1  0
 29 32  1  0
 27 33  2  0
 21  2  1  0
 33 23  1  0
  8  3  1  0
 20 13  1  0
  4 34  1  0
  5 35  1  0
  6 36  1  0
  7 37  1  0
 11 38  1  0
 12 39  1  0
 14 40  1  0
 15 41  1  0
 22 42  1  0
 22 43  1  0
 24 44  1  0
 25 45  1  0
 26 46  1  0
 33 47  1  0
M  CHG  2  17   1  19  -1
M  END
>  <smiles>  (1) 
O=c1c2ccccc2nc(/C=C/c2ccc([N+](=O)[O-])o2)n1Cc1cccc(OC(F)(F)F)c1

>  <score_type>  (1) 
oracle

>  <origin>  (1) 
autodockgpu

>  <m_score__min__energy>  (1) 
-8.2599999999999998

>  <m_primary>  (1) 
energy

>  <meeko>  (1) 
{"free_energy": -6.44, "intermolecular_energy": -8.83, "internal_energy": -2.35, "cluster_size": 8, "cluster_id": 4, "rank_in_cluster": 8}

>  <energy>  (1) 
-8.26

>  <cluster_rmsd>  (1) 
0.0

>  <rmsd>  (1) 
268.37

>  <cluster>  (1) 
1

$$$$

     RDKit          3D

 47 50  0  0  0  0  0  0  0  0999 V2000
  141.2510   71.0900  221.2110 O   0  0  0  0  0  0  0  0  0  0  0  0
  141.3820   72.3310  221.2660 C   0  0  0  0  0  0  0  0  0  0  0  0
  142.5640   72.8640  220.8070 C   0  0  0  0  0  0  0  0  0  0  0  0
  143.5430   72.0550  220.3150 C   0  0  0  0  0  0  0  0  0  0  0  0
  144.7060   72.6390  219.8700 C   0  0  0  0  0  0  0  0  0  0  0  0
  144.8240   74.0100  219.9410 C   0  0  0  0  0  0  0  0  0  0  0  0
  143.8370   74.8360  220.4370 C   0  0  0  0  0  0  0  0  0  0  0  0
  142.6820   74.2290  220.8770 C   0  0  0  0  0  0  0  0  0  0  0  0
  141.7130   74.9490  221.3570 N   0  0  0  0  0  0  0  0  0  0  0  0
  140.5190   74.4600  221.8250 C   0  0  0  0  0  0  0  0  0  0  0  0
  139.5810   75.4460  222.2570 C   0  0  0  0  0  0  0  0  0  0  0  0
  139.3680   76.6710  221.8990 C   0  0  0  0  0  0  0  0  0  0  0  0
  140.4120   77.7120  222.0040 C   0  0  0  0  0  0  0  0  0  0  0  0
  141.4390   77.9500  221.0840 C   0  0  0  0  0  0  0  0  0  0  0  0
  142.1930   79.0080  221.5600 C   0  0  0  0  0  0  0  0  0  0  0  0
  141.5760   79.3600  222.7570 C   0  0  0  0  0  0  0  0  0  0  0  0
  142.0270   80.4260  223.6050 N   0  0  0  0  0  0  0  0  0  0  0  0
  141.2000   81.2380  224.0600 O   0  0  0  0  0  0  0  0  0  0  0  0
  143.3720   80.5120  223.8870 O   0  0  0  0  0  0  0  0  0  0  0  0
  140.5600   78.5870  222.9670 O   0  0  0  0  0  0  0  0  0  0  0  0
  140.3800   73.1400  221.7670 N   0  0  0  0  0  0  0  0  0  0  0  0
  139.2240   72.4000  222.2250 C   0  0  0  0  0  0  0  0  0  0  0  0
  139.5270   71.5290  223.3740 C   0  0  0  0  0  0  0  0  0  0  0  0
  138.8920   70.2700  223.4100 C   0  0  0  0  0  0  0  0  0  0  0  0
  139.1100   69.3650  224.4120 C   0  0  0  0  0  0  0  0  0  0  0  0
  139.9760   69.6500  225.4480 C   0  0  0  0  0  0  0  0  0  0  0  0
  140.6000   70.8620  225.4310 C   0  0  0  0  0  0  0  0  0  0  0  0
  141.4880   71.1890  226.4660 O   0  0  0  0  0  0  0  0  0  0  0  0
  140.9620   71.6350  227.7150 C   0  0  0  0  0  0  0  0  0  0  0  0
  141.7930   71.3130  228.7680 F   0  0  0  0  0  0  0  0  0  0  0  0
  139.7230   71.0270  227.8420 F   0  0  0  0  0  0  0  0  0  0  0  0
  140.7450   72.9870  227.5970 F   0  0  0  0  0  0  0  0  0  0  0  0
  140.3730   71.7760  224.4090 C   0  0  0  0  0  0  0  0  0  0  0  0
  143.4072   70.9642  220.2746 H   0  0  0  0  0  0  0  0  0  0  0  0
  145.5243   72.0248  219.4661 H   0  0  0  0  0  0  0  0  0  0  0  0
  145.7562   74.4709  219.5825 H   0  0  0  0  0  0  0  0  0  0  0  0
  143.9664   75.9276  220.4791 H   0  0  0  0  0  0  0  0  0  0  0  0
  138.9059   75.0947  223.0513 H   0  0  0  0  0  0  0  0  0  0  0  0
  138.3789   76.9463  221.5041 H   0  0  0  0  0  0  0  0  0  0  0  0
  141.6152   77.3957  220.1503 H   0  0  0  0  0  0  0  0  0  0  0  0
  143.0792   79.4669  221.0973 H   0  0  0  0  0  0  0  0  0  0  0  0
  138.4428   73.1153  222.5217 H   0  0  0  0  0  0  0  0  0  0  0  0
  138.8917   71.7560  221.3975 H   0  0  0  0  0  0  0  0  0  0  0  0
  138.1948   70.0059  222.6012 H   0  0  0  0  0  0  0  0  0  0  0  0
  138.5880   68.3969  224.3918 H   0  0  0  0  0  0  0  0  0  0  0  0
  140.1560   68.9266  226.2569 H   0  0  0  0  0  0  0  0  0  0  0  0
  140.9006   72.7408  224.4389 H   0  0  0  0  0  0  0  0  0  0  0  0
  1  2  2  0
  2  3  1  0
  3  4  2  0
  4  5  1  0
  5  6  2  0
  6  7  1  0
  7  8  2  0
  8  9  1  0
  9 10  2  0
 10 11  1  0
 11 12  2  0
 12 13  1  0
 13 14  2  0
 14 15  1  0
 15 16  2  0
 16 17  1  0
 17 18  2  0
 17 19  1  0
 16 20  1  0
 10 21  1  0
 21 22  1  0
 22 23  1  0
 23 24  2  0
 24 25  1  0
 25 26  2  0
 26 27  1  0
 27 28  1  0
 28 29  1  0
 29 30  1  0
 29 31  1  0
 29 32  1  0
 27 33  2  0
 21  2  1  0
 33 23  1  0
  8  3  1  0
 20 13  1  0
  4 34  1  0
  5 35  1  0
  6 36  1  0
  7 37  1  0
 11 38  1  0
 12 39  1  0
 14 40  1  0
 15 41  1  0
 22 42  1  0
 22 43  1  0
 24 44  1  0
 25 45  1  0
 26 46  1  0
 33 47  1  0
M  CHG  2  17   1  19  -1
M  END
>  <smiles>  (2) 
O=c1c2ccccc2nc(/C=C/c2ccc([N+](=O)[O-])o2)n1Cc1cccc(OC(F)(F)F)c1

>  <score_type>  (2) 
oracle

>  <origin>  (2) 
autodockgpu

>  <m_score__min__energy>  (2) 
-8.2599999999999998

>  <m_primary>  (2) 
energy

>  <meeko>  (2) 
{"free_energy": -7.27, "intermolecular_energy": -9.66, "internal_energy": -1.37, "cluster_size": 1, "cluster_id": 6, "rank_in_cluster": 1}

>  <energy>  (2) 
-7.84

>  <cluster_rmsd>  (2) 
0.62

>  <rmsd>  (2) 
268.24

>  <cluster>  (2) 
1

$$$$

     RDKit          3D

 47 50  0  0  0  0  0  0  0  0999 V2000
  139.1710   68.1430  225.0310 O   0  0  0  0  0  0  0  0  0  0  0  0
  139.6420   69.2920  224.8950 C   0  0  0  0  0  0  0  0  0  0  0  0
  140.1100   69.9220  226.0250 C   0  0  0  0  0  0  0  0  0  0  0  0
  140.0540   69.3020  227.2370 C   0  0  0  0  0  0  0  0  0  0  0  0
  140.5340   69.9760  228.3340 C   0  0  0  0  0  0  0  0  0  0  0  0
  141.0500   71.2430  228.1570 C   0  0  0  0  0  0  0  0  0  0  0  0
  141.1110   71.8760  226.9340 C   0  0  0  0  0  0  0  0  0  0  0  0
  140.6240   71.1820  225.8490 C   0  0  0  0  0  0  0  0  0  0  0  0
  140.6510   71.7220  224.6680 N   0  0  0  0  0  0  0  0  0  0  0  0
  140.1950   71.1310  223.5160 C   0  0  0  0  0  0  0  0  0  0  0  0
  140.3750   71.8950  222.3230 C   0  0  0  0  0  0  0  0  0  0  0  0
  141.1220   71.7300  221.2790 C   0  0  0  0  0  0  0  0  0  0  0  0
  142.2550   72.6300  220.9760 C   0  0  0  0  0  0  0  0  0  0  0  0
  142.1730   73.9960  220.6850 C   0  0  0  0  0  0  0  0  0  0  0  0
  143.4590   74.4570  220.4630 C   0  0  0  0  0  0  0  0  0  0  0  0
  144.2620   73.3330  220.6340 C   0  0  0  0  0  0  0  0  0  0  0  0
  145.6900   73.3430  220.4970 N   0  0  0  0  0  0  0  0  0  0  0  0
  146.3970   73.6420  221.4780 O   0  0  0  0  0  0  0  0  0  0  0  0
  146.2320   73.0180  219.2740 O   0  0  0  0  0  0  0  0  0  0  0  0
  143.5250   72.3100  220.9270 O   0  0  0  0  0  0  0  0  0  0  0  0
  139.6930   69.9090  223.6600 N   0  0  0  0  0  0  0  0  0  0  0  0
  139.1330   69.1050  222.5960 C   0  0  0  0  0  0  0  0  0  0  0  0
  137.6680   68.9730  222.6960 C   0  0  0  0  0  0  0  0  0  0  0  0
  137.0840   67.8370  222.0990 C   0  0  0  0  0  0  0  0  0  0  0  0
  135.7390   67.5920  222.1450 C   0  0  0  0  0  0  0  0  0  0  0  0
  134.8820   68.4610  222.7890 C   0  0  0  0  0  0  0  0  0  0  0  0
  135.4280   69.5650  223.3730 C   0  0  0  0  0  0  0  0  0  0  0  0
  134.5910   70.4730  224.0380 O   0  0  0  0  0  0  0  0  0  0  0  0
  134.8430   71.8710  223.9090 C   0  0  0  0  0  0  0  0  0  0  0  0
  135.9760   72.2540  224.5960 F   0  0  0  0  0  0  0  0  0  0  0  0
  133.7130   72.5060  224.4000 F   0  0  0  0  0  0  0  0  0  0  0  0
  134.9140   72.1410  222.5630 F   0  0  0  0  0  0  0  0  0  0  0  0
  136.7960   69.8070  223.3220 C   0  0  0  0  0  0  0  0  0  0  0  0
  139.6358   68.2893  227.3346 H   0  0  0  0  0  0  0  0  0  0  0  0
  140.5073   69.5149  229.3323 H   0  0  0  0  0  0  0  0  0  0  0  0
  141.4334   71.7768  229.0391 H   0  0  0  0  0  0  0  0  0  0  0  0
  141.5291   72.8881  226.8297 H   0  0  0  0  0  0  0  0  0  0  0  0
  139.7563   72.8036  222.2835 H   0  0  0  0  0  0  0  0  0  0  0  0
  140.9073   70.8946  220.5963 H   0  0  0  0  0  0  0  0  0  0  0  0
  141.2520   74.5958  220.6406 H   0  0  0  0  0  0  0  0  0  0  0  0
  143.7748   75.4796  220.2090 H   0  0  0  0  0  0  0  0  0  0  0  0
  139.3794   69.5748  221.6324 H   0  0  0  0  0  0  0  0  0  0  0  0
  139.5647   68.0966  222.6779 H   0  0  0  0  0  0  0  0  0  0  0  0
  137.7347   67.1205  221.5764 H   0  0  0  0  0  0  0  0  0  0  0  0
  135.3350   66.6900  221.6621 H   0  0  0  0  0  0  0  0  0  0  0  0
  133.7995   68.2700  222.8295 H   0  0  0  0  0  0  0  0  0  0  0  0
  137.1894   70.7116  223.8088 H   0  0  0  0  0  0  0  0  0  0  0  0
  1  2  2  0
  2  3  1  0
  3  4  2  0
  4  5  1  0
  5  6  2  0
  6  7  1  0
  7  8  2  0
  8  9  1  0
  9 10  2  0
 10 11  1  0
 11 12  2  0
 12 13  1  0
 13 14  2  0
 14 15  1  0
 15 16  2  0
 16 17  1  0
 17 18  2  0
 17 19  1  0
 16 20  1  0
 10 21  1  0
 21 22  1  0
 22 23  1  0
 23 24  2  0
 24 25  1  0
 25 26  2  0
 26 27  1  0
 27 28  1  0
 28 29  1  0
 29 30  1  0
 29 31  1  0
 29 32  1  0
 27 33  2  0
 21  2  1  0
 33 23  1  0
  8  3  1  0
 20 13  1  0
  4 34  1  0
  5 35  1  0
  6 36  1  0
  7 37  1  0
 11 38  1  0
 12 39  1  0
 14 40  1  0
 15 41  1  0
 22 42  1  0
 22 43  1  0
 24 44  1  0
 25 45  1  0
 26 46  1  0
 33 47  1  0
M  CHG  2  17   1  19  -1
M  END
>  <smiles>  (3) 
O=c1c2ccccc2nc(/C=C/c2ccc([N+](=O)[O-])o2)n1Cc1cccc(OC(F)(F)F)c1

>  <score_type>  (3) 
oracle

>  <origin>  (3) 
autodockgpu

>  <m_score__min__energy>  (3) 
-8.2599999999999998

>  <m_primary>  (3) 
energy

>  <meeko>  (3) 
{"free_energy": -7.68, "intermolecular_energy": -10.06, "internal_energy": -1.29, "cluster_size": 3, "cluster_id": 1, "rank_in_cluster": 3}

>  <energy>  (3) 
-7.68

>  <cluster_rmsd>  (3) 
1.39

>  <rmsd>  (3) 
268.37

>  <cluster>  (3) 
1

$$$$

     RDKit          3D

 47 50  0  0  0  0  0  0  0  0999 V2000
  138.8380   67.9160  225.6040 O   0  0  0  0  0  0  0  0  0  0  0  0
  139.1900   69.0880  225.3520 C   0  0  0  0  0  0  0  0  0  0  0  0
  139.9500   69.7370  226.2970 C   0  0  0  0  0  0  0  0  0  0  0  0
  140.2950   69.1110  227.4570 C   0  0  0  0  0  0  0  0  0  0  0  0
  141.0550   69.8050  228.3690 C   0  0  0  0  0  0  0  0  0  0  0  0
  141.4320   71.0970  228.0660 C   0  0  0  0  0  0  0  0  0  0  0  0
  141.0860   71.7360  226.8940 C   0  0  0  0  0  0  0  0  0  0  0  0
  140.3260   71.0220  225.9970 C   0  0  0  0  0  0  0  0  0  0  0  0
  139.9650   71.5660  224.8740 N   0  0  0  0  0  0  0  0  0  0  0  0
  139.2090   70.9560  223.9040 C   0  0  0  0  0  0  0  0  0  0  0  0
  138.9800   71.7320  222.7280 C   0  0  0  0  0  0  0  0  0  0  0  0
  139.7530   72.1100  221.7610 C   0  0  0  0  0  0  0  0  0  0  0  0
  140.2620   73.4940  221.6590 C   0  0  0  0  0  0  0  0  0  0  0  0
  141.3090   73.9340  220.8420 C   0  0  0  0  0  0  0  0  0  0  0  0
  141.4620   75.2930  221.0490 C   0  0  0  0  0  0  0  0  0  0  0  0
  140.4890   75.6100  221.9930 C   0  0  0  0  0  0  0  0  0  0  0  0
  140.2800   76.9310  222.5120 N   0  0  0  0  0  0  0  0  0  0  0  0
  139.1180   77.3450  222.6810 O   0  0  0  0  0  0  0  0  0  0  0  0
  141.3840   77.6990  222.8080 O   0  0  0  0  0  0  0  0  0  0  0  0
  139.8270   74.5440  222.3110 O   0  0  0  0  0  0  0  0  0  0  0  0
  138.8330   69.7100  224.1720 N   0  0  0  0  0  0  0  0  0  0  0  0
  138.0130   68.8820  223.3140 C   0  0  0  0  0  0  0  0  0  0  0  0
  136.5920   68.8960  223.7030 C   0  0  0  0  0  0  0  0  0  0  0  0
  135.6510   68.5700  222.7050 C   0  0  0  0  0  0  0  0  0  0  0  0
  134.3060   68.5270  222.9490 C   0  0  0  0  0  0  0  0  0  0  0  0
  133.8040   68.8040  224.2040 C   0  0  0  0  0  0  0  0  0  0  0  0
  134.6980   69.1210  225.1830 C   0  0  0  0  0  0  0  0  0  0  0  0
  134.2280   69.4100  226.4730 O   0  0  0  0  0  0  0  0  0  0  0  0
  133.9260   70.7610  226.8130 C   0  0  0  0  0  0  0  0  0  0  0  0
  134.5010   71.6550  225.9330 F   0  0  0  0  0  0  0  0  0  0  0  0
  134.4020   70.9420  228.1020 F   0  0  0  0  0  0  0  0  0  0  0  0
  132.5560   70.8640  226.8630 F   0  0  0  0  0  0  0  0  0  0  0  0
  136.0630   69.1630  224.9270 C   0  0  0  0  0  0  0  0  0  0  0  0
  139.9742   68.0783  227.6585 H   0  0  0  0  0  0  0  0  0  0  0  0
  141.3558   69.3401  229.3195 H   0  0  0  0  0  0  0  0  0  0  0  0
  142.0412   71.6469  228.7985 H   0  0  0  0  0  0  0  0  0  0  0  0
  141.4030   72.7686  226.6861 H   0  0  0  0  0  0  0  0  0  0  0  0
  137.9409   72.0771  222.6227 H   0  0  0  0  0  0  0  0  0  0  0  0
  140.0401   71.3785  220.9912 H   0  0  0  0  0  0  0  0  0  0  0  0
  141.9038   73.3110  220.1578 H   0  0  0  0  0  0  0  0  0  0  0  0
  142.1880   75.9700  220.5751 H   0  0  0  0  0  0  0  0  0  0  0  0
  138.0992   69.2510  222.2813 H   0  0  0  0  0  0  0  0  0  0  0  0
  138.3736   67.8469  223.4064 H   0  0  0  0  0  0  0  0  0  0  0  0
  136.0124   68.3415  221.6915 H   0  0  0  0  0  0  0  0  0  0  0  0
  133.6148   68.2680  222.1334 H   0  0  0  0  0  0  0  0  0  0  0  0
  132.7234   68.7703  224.4068 H   0  0  0  0  0  0  0  0  0  0  0  0
  136.7451   69.4234  225.7498 H   0  0  0  0  0  0  0  0  0  0  0  0
  1  2  2  0
  2  3  1  0
  3  4  2  0
  4  5  1  0
  5  6  2  0
  6  7  1  0
  7  8  2  0
  8  9  1  0
  9 10  2  0
 10 11  1  0
 11 12  2  0
 12 13  1  0
 13 14  2  0
 14 15  1  0
 15 16  2  0
 16 17  1  0
 17 18  2  0
 17 19  1  0
 16 20  1  0
 10 21  1  0
 21 22  1  0
 22 23  1  0
 23 24  2  0
 24 25  1  0
 25 26  2  0
 26 27  1  0
 27 28  1  0
 28 29  1  0
 29 30  1  0
 29 31  1  0
 29 32  1  0
 27 33  2  0
 21  2  1  0
 33 23  1  0
  8  3  1  0
 20 13  1  0
  4 34  1  0
  5 35  1  0
  6 36  1  0
  7 37  1  0
 11 38  1  0
 12 39  1  0
 14 40  1  0
 15 41  1  0
 22 42  1  0
 22 43  1  0
 24 44  1  0
 25 45  1  0
 26 46  1  0
 33 47  1  0
M  CHG  2  17   1  19  -1
M  END
>  <smiles>  (4) 
O=c1c2ccccc2nc(/C=C/c2ccc([N+](=O)[O-])o2)n1Cc1cccc(OC(F)(F)F)c1

>  <score_type>  (4) 
oracle

>  <origin>  (4) 
autodockgpu

>  <m_score__min__energy>  (4) 
-8.2599999999999998

>  <m_primary>  (4) 
energy

>  <meeko>  (4) 
{"free_energy": -8.11, "intermolecular_energy": -10.5, "internal_energy": -1.28, "cluster_size": 3, "cluster_id": 2, "rank_in_cluster": 1}

>  <energy>  (4) 
-8.11

>  <cluster_rmsd>  (4) 
0.0

>  <rmsd>  (4) 
268.65

>  <cluster>  (4) 
2

$$$$

     RDKit          3D

 47 50  0  0  0  0  0  0  0  0999 V2000
  138.8100   67.7710  225.7060 O   0  0  0  0  0  0  0  0  0  0  0  0
  139.0440   68.9710  225.4520 C   0  0  0  0  0  0  0  0  0  0  0  0
  139.8110   69.6710  226.3530 C   0  0  0  0  0  0  0  0  0  0  0  0
  140.2890   69.0630  227.4750 C   0  0  0  0  0  0  0  0  0  0  0  0
  141.0500   69.8090  228.3440 C   0  0  0  0  0  0  0  0  0  0  0  0
  141.2940   71.1310  228.0390 C   0  0  0  0  0  0  0  0  0  0  0  0
  140.8150   71.7530  226.9060 C   0  0  0  0  0  0  0  0  0  0  0  0
  140.0560   70.9870  226.0510 C   0  0  0  0  0  0  0  0  0  0  0  0
  139.5730   71.5120  224.9650 N   0  0  0  0  0  0  0  0  0  0  0  0
  138.8040   70.8520  224.0390 C   0  0  0  0  0  0  0  0  0  0  0  0
  138.4280   71.6190  222.8960 C   0  0  0  0  0  0  0  0  0  0  0  0
  137.2870   71.8530  222.3310 C   0  0  0  0  0  0  0  0  0  0  0  0
  136.1290   72.3710  223.0900 C   0  0  0  0  0  0  0  0  0  0  0  0
  134.7790   72.1400  222.8010 C   0  0  0  0  0  0  0  0  0  0  0  0
  134.0260   72.8030  223.7530 C   0  0  0  0  0  0  0  0  0  0  0  0
  134.9680   73.4090  224.5780 C   0  0  0  0  0  0  0  0  0  0  0  0
  134.6340   74.2130  225.7170 N   0  0  0  0  0  0  0  0  0  0  0  0
  135.2300   75.2910  225.9030 O   0  0  0  0  0  0  0  0  0  0  0  0
  133.6540   73.7600  226.5720 O   0  0  0  0  0  0  0  0  0  0  0  0
  136.1600   73.1310  224.1560 O   0  0  0  0  0  0  0  0  0  0  0  0
  138.5530   69.5750  224.3100 N   0  0  0  0  0  0  0  0  0  0  0  0
  137.7480   68.6900  223.4970 C   0  0  0  0  0  0  0  0  0  0  0  0
  136.3100   68.7950  223.7990 C   0  0  0  0  0  0  0  0  0  0  0  0
  135.4150   68.6330  222.7210 C   0  0  0  0  0  0  0  0  0  0  0  0
  134.0570   68.6860  222.8800 C   0  0  0  0  0  0  0  0  0  0  0  0
  133.4960   68.9040  224.1210 C   0  0  0  0  0  0  0  0  0  0  0  0
  134.3450   69.0630  225.1760 C   0  0  0  0  0  0  0  0  0  0  0  0
  133.8140   69.2870  226.4540 O   0  0  0  0  0  0  0  0  0  0  0  0
  133.9280   70.5850  227.0340 C   0  0  0  0  0  0  0  0  0  0  0  0
  134.4610   70.5350  228.3060 F   0  0  0  0  0  0  0  0  0  0  0  0
  132.6460   71.1100  227.0420 F   0  0  0  0  0  0  0  0  0  0  0  0
  134.6780   71.3450  226.1680 F   0  0  0  0  0  0  0  0  0  0  0  0
  135.7230   69.0080  225.0070 C   0  0  0  0  0  0  0  0  0  0  0  0
  140.0720   68.0043  227.6800 H   0  0  0  0  0  0  0  0  0  0  0  0
  141.4554   69.3604  229.2629 H   0  0  0  0  0  0  0  0  0  0  0  0
  141.9043   71.7218  228.7379 H   0  0  0  0  0  0  0  0  0  0  0  0
  141.0292   72.8112  226.6953 H   0  0  0  0  0  0  0  0  0  0  0  0
  139.2763   72.1088  222.3955 H   0  0  0  0  0  0  0  0  0  0  0  0
  137.1758   71.6606  221.2537 H   0  0  0  0  0  0  0  0  0  0  0  0
  134.3875   71.5393  221.9668 H   0  0  0  0  0  0  0  0  0  0  0  0
  132.9300   72.8423  223.8385 H   0  0  0  0  0  0  0  0  0  0  0  0
  137.9051   68.9438  222.4383 H   0  0  0  0  0  0  0  0  0  0  0  0
  138.0604   67.6586  223.7175 H   0  0  0  0  0  0  0  0  0  0  0  0
  135.8239   68.4575  221.7150 H   0  0  0  0  0  0  0  0  0  0  0  0
  133.4033   68.5528  222.0054 H   0  0  0  0  0  0  0  0  0  0  0  0
  132.4050   68.9479  224.2546 H   0  0  0  0  0  0  0  0  0  0  0  0
  136.3670   69.1426  225.8885 H   0  0  0  0  0  0  0  0  0  0  0  0
  1  2  2  0
  2  3  1  0
  3  4  2  0
  4  5  1  0
  5  6  2  0
  6  7  1  0
  7  8  2  0
  8  9  1  0
  9 10  2  0
 10 11  1  0
 11 12  2  0
 12 13  1  0
 13 14  2  0
 14 15  1  0
 15 16  2  0
 16 17  1  0
 17 18  2  0
 17 19  1  0
 16 20  1  0
 10 21  1  0
 21 22  1  0
 22 23  1  0
 23 24  2  0
 24 25  1  0
 25 26  2  0
 26 27  1  0
 27 28  1  0
 28 29  1  0
 29 30  1  0
 29 31  1  0
 29 32  1  0
 27 33  2  0
 21  2  1  0
 33 23  1  0
  8  3  1  0
 20 13  1  0
  4 34  1  0
  5 35  1  0
  6 36  1  0
  7 37  1  0
 11 38  1  0
 12 39  1  0
 14 40  1  0
 15 41  1  0
 22 42  1  0
 22 43  1  0
 24 44  1  0
 25 45  1  0
 26 46  1  0
 33 47  1  0
M  CHG  2  17   1  19  -1
M  END
>  <smiles>  (5) 
O=c1c2ccccc2nc(/C=C/c2ccc([N+](=O)[O-])o2)n1Cc1cccc(OC(F)(F)F)c1

>  <score_type>  (5) 
oracle

>  <origin>  (5) 
autodockgpu

>  <m_score__min__energy>  (5) 
-8.2599999999999998

>  <m_primary>  (5) 
energy

>  <meeko>  (5) 
{"free_energy": -7.24, "intermolecular_energy": -9.63, "internal_energy": -2.38, "cluster_size": 8, "cluster_id": 4, "rank_in_cluster": 5}

>  <energy>  (5) 
-8.05

>  <cluster_rmsd>  (5) 
0.2

>  <rmsd>  (5) 
268.62

>  <cluster>  (5) 
2

$$$$

     RDKit          3D

 47 50  0  0  0  0  0  0  0  0999 V2000
  138.8380   67.7030  225.5540 O   0  0  0  0  0  0  0  0  0  0  0  0
  139.0660   68.9220  225.4040 C   0  0  0  0  0  0  0  0  0  0  0  0
  139.8370   69.5430  226.3590 C   0  0  0  0  0  0  0  0  0  0  0  0
  140.3250   68.8410  227.4200 C   0  0  0  0  0  0  0  0  0  0  0  0
  141.0890   69.5110  228.3450 C   0  0  0  0  0  0  0  0  0  0  0  0
  141.3260   70.8560  228.1560 C   0  0  0  0  0  0  0  0  0  0  0  0
  140.8370   71.5730  227.0850 C   0  0  0  0  0  0  0  0  0  0  0  0
  140.0740   70.8820  226.1710 C   0  0  0  0  0  0  0  0  0  0  0  0
  139.5820   71.4980  225.1380 N   0  0  0  0  0  0  0  0  0  0  0  0
  138.8080   70.9180  224.1640 C   0  0  0  0  0  0  0  0  0  0  0  0
  138.4220   71.7810  223.0940 C   0  0  0  0  0  0  0  0  0  0  0  0
  137.3020   71.9600  222.4710 C   0  0  0  0  0  0  0  0  0  0  0  0
  136.1340   72.5890  223.1230 C   0  0  0  0  0  0  0  0  0  0  0  0
  134.8310   72.6440  222.6150 C   0  0  0  0  0  0  0  0  0  0  0  0
  134.0490   73.3180  223.5350 C   0  0  0  0  0  0  0  0  0  0  0  0
  134.9280   73.6410  224.5650 C   0  0  0  0  0  0  0  0  0  0  0  0
  134.5440   74.3550  225.7480 N   0  0  0  0  0  0  0  0  0  0  0  0
  135.0810   75.4490  226.0040 O   0  0  0  0  0  0  0  0  0  0  0  0
  133.5870   73.7980  226.5660 O   0  0  0  0  0  0  0  0  0  0  0  0
  136.1110   73.2010  224.2810 O   0  0  0  0  0  0  0  0  0  0  0  0
  138.5650   69.6220  224.3230 N   0  0  0  0  0  0  0  0  0  0  0  0
  137.7570   68.8080  223.4410 C   0  0  0  0  0  0  0  0  0  0  0  0
  136.3230   68.8610  223.7740 C   0  0  0  0  0  0  0  0  0  0  0  0
  135.4120   68.6070  222.7290 C   0  0  0  0  0  0  0  0  0  0  0  0
  134.0570   68.6060  222.9200 C   0  0  0  0  0  0  0  0  0  0  0  0
  133.5160   68.8580  224.1640 C   0  0  0  0  0  0  0  0  0  0  0  0
  134.3810   69.1060  225.1870 C   0  0  0  0  0  0  0  0  0  0  0  0
  133.8710   69.3670  226.4680 O   0  0  0  0  0  0  0  0  0  0  0  0
  133.8360   70.7120  226.9390 C   0  0  0  0  0  0  0  0  0  0  0  0
  132.5520   71.2160  226.9630 F   0  0  0  0  0  0  0  0  0  0  0  0
  134.6480   71.4350  226.0790 F   0  0  0  0  0  0  0  0  0  0  0  0
  134.4380   70.7190  228.1740 F   0  0  0  0  0  0  0  0  0  0  0  0
  135.7560   69.1050  224.9860 C   0  0  0  0  0  0  0  0  0  0  0  0
  140.1132   67.7675  227.5329 H   0  0  0  0  0  0  0  0  0  0  0  0
  141.5029   68.9852  229.2181 H   0  0  0  0  0  0  0  0  0  0  0  0
  141.9386   71.3858  228.9003 H   0  0  0  0  0  0  0  0  0  0  0  0
  141.0465   72.6463  226.9664 H   0  0  0  0  0  0  0  0  0  0  0  0
  139.2383   72.4202  222.7265 H   0  0  0  0  0  0  0  0  0  0  0  0
  137.2165   71.6340  221.4239 H   0  0  0  0  0  0  0  0  0  0  0  0
  134.4902   72.2262  221.6562 H   0  0  0  0  0  0  0  0  0  0  0  0
  132.9752   73.5471  223.4681 H   0  0  0  0  0  0  0  0  0  0  0  0
  137.8923   69.1656  222.4096 H   0  0  0  0  0  0  0  0  0  0  0  0
  138.0867   67.7649  223.5562 H   0  0  0  0  0  0  0  0  0  0  0  0
  135.8049   68.4019  221.7223 H   0  0  0  0  0  0  0  0  0  0  0  0
  133.3897   68.4014  222.0698 H   0  0  0  0  0  0  0  0  0  0  0  0
  132.4277   68.8587  224.3238 H   0  0  0  0  0  0  0  0  0  0  0  0
  136.4138   69.3103  225.8434 H   0  0  0  0  0  0  0  0  0  0  0  0
  1  2  2  0
  2  3  1  0
  3  4  2  0
  4  5  1  0
  5  6  2  0
  6  7  1  0
  7  8  2  0
  8  9  1  0
  9 10  2  0
 10 11  1  0
 11 12  2  0
 12 13  1  0
 13 14  2  0
 14 15  1  0
 15 16  2  0
 16 17  1  0
 17 18  2  0
 17 19  1  0
 16 20  1  0
 10 21  1  0
 21 22  1  0
 22 23  1  0
 23 24  2  0
 24 25  1  0
 25 26  2  0
 26 27  1  0
 27 28  1  0
 28 29  1  0
 29 30  1  0
 29 31  1  0
 29 32  1  0
 27 33  2  0
 21  2  1  0
 33 23  1  0
  8  3  1  0
 20 13  1  0
  4 34  1  0
  5 35  1  0
  6 36  1  0
  7 37  1  0
 11 38  1  0
 12 39  1  0
 14 40  1  0
 15 41  1  0
 22 42  1  0
 22 43  1  0
 24 44  1  0
 25 45  1  0
 26 46  1  0
 33 47  1  0
M  CHG  2  17   1  19  -1
M  END
>  <smiles>  (6) 
O=c1c2ccccc2nc(/C=C/c2ccc([N+](=O)[O-])o2)n1Cc1cccc(OC(F)(F)F)c1

>  <score_type>  (6) 
oracle

>  <origin>  (6) 
autodockgpu

>  <m_score__min__energy>  (6) 
-8.2599999999999998

>  <m_primary>  (6) 
energy

>  <meeko>  (6) 
{"free_energy": -7.4, "intermolecular_energy": -9.79, "internal_energy": -2.3, "cluster_size": 8, "cluster_id": 4, "rank_in_cluster": 2}

>  <energy>  (6) 
-7.61

>  <cluster_rmsd>  (6) 
0.88

>  <rmsd>  (6) 
268.54

>  <cluster>  (6) 
2

$$$$

     RDKit          3D

 47 50  0  0  0  0  0  0  0  0999 V2000
  138.9440   68.2810  225.0190 O   0  0  0  0  0  0  0  0  0  0  0  0
  139.4460   69.4130  224.8560 C   0  0  0  0  0  0  0  0  0  0  0  0
  139.9950   70.0260  225.9580 C   0  0  0  0  0  0  0  0  0  0  0  0
  139.9820   69.4080  227.1730 C   0  0  0  0  0  0  0  0  0  0  0  0
  140.5430   70.0660  228.2420 C   0  0  0  0  0  0  0  0  0  0  0  0
  141.0920   71.3130  228.0350 C   0  0  0  0  0  0  0  0  0  0  0  0
  141.1100   71.9440  226.8090 C   0  0  0  0  0  0  0  0  0  0  0  0
  140.5430   71.2670  225.7530 C   0  0  0  0  0  0  0  0  0  0  0  0
  140.5260   71.8050  224.5710 N   0  0  0  0  0  0  0  0  0  0  0  0
  139.9890   71.2310  223.4460 C   0  0  0  0  0  0  0  0  0  0  0  0
  140.1320   71.9880  222.2440 C   0  0  0  0  0  0  0  0  0  0  0  0
  141.0000   72.8670  221.8580 C   0  0  0  0  0  0  0  0  0  0  0  0
  142.2730   72.4820  221.2130 C   0  0  0  0  0  0  0  0  0  0  0  0
  142.5170   71.3030  220.5010 C   0  0  0  0  0  0  0  0  0  0  0  0
  143.8300   71.3380  220.0660 C   0  0  0  0  0  0  0  0  0  0  0  0
  144.3190   72.5500  220.5430 C   0  0  0  0  0  0  0  0  0  0  0  0
  145.6590   73.0120  220.3260 N   0  0  0  0  0  0  0  0  0  0  0  0
  146.3240   73.4390  221.2890 O   0  0  0  0  0  0  0  0  0  0  0  0
  146.1680   72.9670  219.0470 O   0  0  0  0  0  0  0  0  0  0  0  0
  143.3880   73.1700  221.1940 O   0  0  0  0  0  0  0  0  0  0  0  0
  139.4530   70.0270  223.6190 N   0  0  0  0  0  0  0  0  0  0  0  0
  138.8100   69.2420  222.5880 C   0  0  0  0  0  0  0  0  0  0  0  0
  137.3390   69.3160  222.6540 C   0  0  0  0  0  0  0  0  0  0  0  0
  136.7110   70.3100  221.8760 C   0  0  0  0  0  0  0  0  0  0  0  0
  135.3520   70.4620  221.8370 C   0  0  0  0  0  0  0  0  0  0  0  0
  134.5250   69.6360  222.5700 C   0  0  0  0  0  0  0  0  0  0  0  0
  135.1140   68.6690  223.3280 C   0  0  0  0  0  0  0  0  0  0  0  0
  134.3070   67.8090  224.0880 O   0  0  0  0  0  0  0  0  0  0  0  0
  133.8490   68.2390  225.3680 C   0  0  0  0  0  0  0  0  0  0  0  0
  132.5530   68.7080  225.3200 F   0  0  0  0  0  0  0  0  0  0  0  0
  134.7320   69.2280  225.7730 F   0  0  0  0  0  0  0  0  0  0  0  0
  134.0030   67.1760  226.2260 F   0  0  0  0  0  0  0  0  0  0  0  0
  136.4950   68.5200  223.3630 C   0  0  0  0  0  0  0  0  0  0  0  0
  139.5350   68.4103  227.2948 H   0  0  0  0  0  0  0  0  0  0  0  0
  140.5534   69.6067  229.2415 H   0  0  0  0  0  0  0  0  0  0  0  0
  141.5401   71.8332  228.8944 H   0  0  0  0  0  0  0  0  0  0  0  0
  141.5563   72.9412  226.6809 H   0  0  0  0  0  0  0  0  0  0  0  0
  139.3495   71.7837  221.4983 H   0  0  0  0  0  0  0  0  0  0  0  0
  140.7836   73.9340  222.0149 H   0  0  0  0  0  0  0  0  0  0  0  0
  141.7948   70.4934  220.3195 H   0  0  0  0  0  0  0  0  0  0  0  0
  144.3658   70.5794  219.4766 H   0  0  0  0  0  0  0  0  0  0  0  0
  139.1378   69.6139  221.6060 H   0  0  0  0  0  0  0  0  0  0  0  0
  139.0981   68.1914  222.7406 H   0  0  0  0  0  0  0  0  0  0  0  0
  137.3371   70.9886  221.2781 H   0  0  0  0  0  0  0  0  0  0  0  0
  134.9125   71.2538  221.2126 H   0  0  0  0  0  0  0  0  0  0  0  0
  133.4316   69.7536  222.5435 H   0  0  0  0  0  0  0  0  0  0  0  0
  136.9234   67.7247  223.9906 H   0  0  0  0  0  0  0  0  0  0  0  0
  1  2  2  0
  2  3  1  0
  3  4  2  0
  4  5  1  0
  5  6  2  0
  6  7  1  0
  7  8  2  0
  8  9  1  0
  9 10  2  0
 10 11  1  0
 11 12  2  0
 12 13  1  0
 13 14  2  0
 14 15  1  0
 15 16  2  0
 16 17  1  0
 17 18  2  0
 17 19  1  0
 16 20  1  0
 10 21  1  0
 21 22  1  0
 22 23  1  0
 23 24  2  0
 24 25  1  0
 25 26  2  0
 26 27  1  0
 27 28  1  0
 28 29  1  0
 29 30  1  0
 29 31  1  0
 29 32  1  0
 27 33  2  0
 21  2  1  0
 33 23  1  0
  8  3  1  0
 20 13  1  0
  4 34  1  0
  5 35  1  0
  6 36  1  0
  7 37  1  0
 11 38  1  0
 12 39  1  0
 14 40  1  0
 15 41  1  0
 22 42  1  0
 22 43  1  0
 24 44  1  0
 25 45  1  0
 26 46  1  0
 33 47  1  0
M  CHG  2  17   1  19  -1
M  END
>  <smiles>  (7) 
O=c1c2ccccc2nc(/C=C/c2ccc([N+](=O)[O-])o2)n1Cc1cccc(OC(F)(F)F)c1

>  <score_type>  (7) 
oracle

>  <origin>  (7) 
autodockgpu

>  <m_score__min__energy>  (7) 
-8.2599999999999998

>  <m_primary>  (7) 
energy

>  <meeko>  (7) 
{"free_energy": -7.84, "intermolecular_energy": -10.22, "internal_energy": -1.36, "cluster_size": 3, "cluster_id": 1, "rank_in_cluster": 2}

>  <energy>  (7) 
-7.8

>  <cluster_rmsd>  (7) 
0.0

>  <rmsd>  (7) 
269.06

>  <cluster>  (7) 
3

$$$$

     RDKit          3D

 47 50  0  0  0  0  0  0  0  0999 V2000
  137.5960   78.7670  222.4520 O   0  0  0  0  0  0  0  0  0  0  0  0
  138.6680   78.1280  222.4970 C   0  0  0  0  0  0  0  0  0  0  0  0
  139.7800   78.7900  222.9640 C   0  0  0  0  0  0  0  0  0  0  0  0
  139.6970   80.0910  223.3580 C   0  0  0  0  0  0  0  0  0  0  0  0
  140.8380   80.7060  223.8160 C   0  0  0  0  0  0  0  0  0  0  0  0
  142.0080   79.9780  223.8560 C   0  0  0  0  0  0  0  0  0  0  0  0
  142.1000   78.6600  223.4600 C   0  0  0  0  0  0  0  0  0  0  0  0
  140.9450   78.0660  223.0060 C   0  0  0  0  0  0  0  0  0  0  0  0
  140.9620   76.8260  222.6160 N   0  0  0  0  0  0  0  0  0  0  0  0
  139.8790   76.1290  222.1440 C   0  0  0  0  0  0  0  0  0  0  0  0
  140.1250   74.7590  221.8230 C   0  0  0  0  0  0  0  0  0  0  0  0
  140.7410   74.1850  220.8400 C   0  0  0  0  0  0  0  0  0  0  0  0
  142.1640   74.4500  220.5440 C   0  0  0  0  0  0  0  0  0  0  0  0
  142.7020   75.6500  220.0650 C   0  0  0  0  0  0  0  0  0  0  0  0
  144.0670   75.4730  219.9250 C   0  0  0  0  0  0  0  0  0  0  0  0
  144.2880   74.1600  220.3300 C   0  0  0  0  0  0  0  0  0  0  0  0
  145.5800   73.5370  220.3490 N   0  0  0  0  0  0  0  0  0  0  0  0
  145.9860   72.9390  219.3350 O   0  0  0  0  0  0  0  0  0  0  0  0
  146.3300   73.6240  221.5000 O   0  0  0  0  0  0  0  0  0  0  0  0
  143.1660   73.6160  220.6760 O   0  0  0  0  0  0  0  0  0  0  0  0
  138.7380   76.8080  222.0950 N   0  0  0  0  0  0  0  0  0  0  0  0
  137.4770   76.2910  221.6110 C   0  0  0  0  0  0  0  0  0  0  0  0
  136.7590   75.5040  222.6290 C   0  0  0  0  0  0  0  0  0  0  0  0
  136.5730   74.1310  222.3650 C   0  0  0  0  0  0  0  0  0  0  0  0
  135.9430   73.2930  223.2440 C   0  0  0  0  0  0  0  0  0  0  0  0
  135.4540   73.7630  224.4450 C   0  0  0  0  0  0  0  0  0  0  0  0
  135.6240   75.0880  224.7180 C   0  0  0  0  0  0  0  0  0  0  0  0
  135.1410   75.6050  225.9300 O   0  0  0  0  0  0  0  0  0  0  0  0
  133.7450   75.5210  226.2110 C   0  0  0  0  0  0  0  0  0  0  0  0
  133.3580   74.2320  226.5150 F   0  0  0  0  0  0  0  0  0  0  0  0
  133.1020   75.9900  225.0770 F   0  0  0  0  0  0  0  0  0  0  0  0
  133.4880   76.4110  227.2260 F   0  0  0  0  0  0  0  0  0  0  0  0
  136.2660   75.9330  223.8210 C   0  0  0  0  0  0  0  0  0  0  0  0
  138.7423   80.6353  223.3110 H   0  0  0  0  0  0  0  0  0  0  0  0
  140.8179   81.7560  224.1434 H   0  0  0  0  0  0  0  0  0  0  0  0
  142.9177   80.4753  224.2237 H   0  0  0  0  0  0  0  0  0  0  0  0
  143.0515   78.1099  223.5050 H   0  0  0  0  0  0  0  0  0  0  0  0
  139.7087   74.0523  222.5560 H   0  0  0  0  0  0  0  0  0  0  0  0
  140.1876   73.4776  220.2049 H   0  0  0  0  0  0  0  0  0  0  0  0
  142.1405   76.5688  219.8402 H   0  0  0  0  0  0  0  0  0  0  0  0
  144.8095   76.2044  219.5732 H   0  0  0  0  0  0  0  0  0  0  0  0
  136.8426   77.1369  221.3076 H   0  0  0  0  0  0  0  0  0  0  0  0
  137.6938   75.6224  220.7648 H   0  0  0  0  0  0  0  0  0  0  0  0
  136.9485   73.7185  221.4169 H   0  0  0  0  0  0  0  0  0  0  0  0
  135.8248   72.2294  222.9893 H   0  0  0  0  0  0  0  0  0  0  0  0
  134.9462   73.0943  225.1556 H   0  0  0  0  0  0  0  0  0  0  0  0
  136.3802   76.9943  224.0868 H   0  0  0  0  0  0  0  0  0  0  0  0
  1  2  2  0
  2  3  1  0
  3  4  2  0
  4  5  1  0
  5  6  2  0
  6  7  1  0
  7  8  2  0
  8  9  1  0
  9 10  2  0
 10 11  1  0
 11 12  2  0
 12 13  1  0
 13 14  2  0
 14 15  1  0
 15 16  2  0
 16 17  1  0
 17 18  2  0
 17 19  1  0
 16 20  1  0
 10 21  1  0
 21 22  1  0
 22 23  1  0
 23 24  2  0
 24 25  1  0
 25 26  2  0
 26 27  1  0
 27 28  1  0
 28 29  1  0
 29 30  1  0
 29 31  1  0
 29 32  1  0
 27 33  2  0
 21  2  1  0
 33 23  1  0
  8  3  1  0
 20 13  1  0
  4 34  1  0
  5 35  1  0
  6 36  1  0
  7 37  1  0
 11 38  1  0
 12 39  1  0
 14 40  1  0
 15 41  1  0
 22 42  1  0
 22 43  1  0
 24 44  1  0
 25 45  1  0
 26 46  1  0
 33 47  1  0
M  CHG  2  17   1  19  -1
M  END
>  <smiles>  (8) 
O=c1c2ccccc2nc(/C=C/c2ccc([N+](=O)[O-])o2)n1Cc1cccc(OC(F)(F)F)c1

>  <score_type>  (8) 
oracle

>  <origin>  (8) 
autodockgpu

>  <m_score__min__energy>  (8) 
-8.2599999999999998

>  <m_primary>  (8) 
energy

>  <meeko>  (8) 
{"free_energy": -7.42, "intermolecular_energy": -9.8, "internal_energy": -1.49, "cluster_size": 1, "cluster_id": 5, "rank_in_cluster": 1}

>  <energy>  (8) 
-7.42

>  <cluster_rmsd>  (8) 
0.0

>  <rmsd>  (8) 
268.28

>  <cluster>  (8) 
4

$$$$

     RDKit          3D

 47 50  0  0  0  0  0  0  0  0999 V2000
  138.7900   68.0450  225.7410 O   0  0  0  0  0  0  0  0  0  0  0  0
  139.1860   69.1720  225.3750 C   0  0  0  0  0  0  0  0  0  0  0  0
  139.9480   69.8940  226.2640 C   0  0  0  0  0  0  0  0  0  0  0  0
  140.2490   69.3850  227.4910 C   0  0  0  0  0  0  0  0  0  0  0  0
  141.0130   70.1490  228.3420 C   0  0  0  0  0  0  0  0  0  0  0  0
  141.4390   71.3880  227.9130 C   0  0  0  0  0  0  0  0  0  0  0  0
  141.1390   71.9100  226.6720 C   0  0  0  0  0  0  0  0  0  0  0  0
  140.3730   71.1280  225.8380 C   0  0  0  0  0  0  0  0  0  0  0  0
  140.0540   71.5600  224.6550 N   0  0  0  0  0  0  0  0  0  0  0  0
  139.2970   70.8750  223.7380 C   0  0  0  0  0  0  0  0  0  0  0  0
  139.1180   71.5270  222.4810 C   0  0  0  0  0  0  0  0  0  0  0  0
  139.9510   71.9580  221.5890 C   0  0  0  0  0  0  0  0  0  0  0  0
  140.4160   73.3610  221.5630 C   0  0  0  0  0  0  0  0  0  0  0  0
  141.5050   73.8590  220.8390 C   0  0  0  0  0  0  0  0  0  0  0  0
  141.5930   75.2170  221.0940 C   0  0  0  0  0  0  0  0  0  0  0  0
  140.5420   75.4720  221.9690 C   0  0  0  0  0  0  0  0  0  0  0  0
  140.2470   76.7690  222.5060 N   0  0  0  0  0  0  0  0  0  0  0  0
  141.1800   77.5560  222.7540 O   0  0  0  0  0  0  0  0  0  0  0  0
  138.9290   77.1010  222.7290 O   0  0  0  0  0  0  0  0  0  0  0  0
  139.8960   74.3760  222.2070 O   0  0  0  0  0  0  0  0  0  0  0  0
  138.8740   69.6760  224.1270 N   0  0  0  0  0  0  0  0  0  0  0  0
  138.0450   68.7870  223.3430 C   0  0  0  0  0  0  0  0  0  0  0  0
  136.6180   68.8780  223.7020 C   0  0  0  0  0  0  0  0  0  0  0  0
  135.6820   68.6860  222.6650 C   0  0  0  0  0  0  0  0  0  0  0  0
  134.3320   68.7240  222.8790 C   0  0  0  0  0  0  0  0  0  0  0  0
  133.8190   68.9560  224.1390 C   0  0  0  0  0  0  0  0  0  0  0  0
  134.7090   69.1440  225.1540 C   0  0  0  0  0  0  0  0  0  0  0  0
  134.2270   69.3830  226.4500 O   0  0  0  0  0  0  0  0  0  0  0  0
  133.9340   70.7220  226.8440 C   0  0  0  0  0  0  0  0  0  0  0  0
  134.5030   71.6460  225.9920 F   0  0  0  0  0  0  0  0  0  0  0  0
  134.4230   70.8530  228.1340 F   0  0  0  0  0  0  0  0  0  0  0  0
  132.5650   70.8280  226.9120 F   0  0  0  0  0  0  0  0  0  0  0  0
  136.0790   69.1040  224.9300 C   0  0  0  0  0  0  0  0  0  0  0  0
  139.8907   68.3898  227.7931 H   0  0  0  0  0  0  0  0  0  0  0  0
  141.2785   69.7794  229.3434 H   0  0  0  0  0  0  0  0  0  0  0  0
  142.0514   71.9932  228.5976 H   0  0  0  0  0  0  0  0  0  0  0  0
  141.4951   72.9040  226.3636 H   0  0  0  0  0  0  0  0  0  0  0  0
  138.0634   71.6968  222.2183 H   0  0  0  0  0  0  0  0  0  0  0  0
  140.3245   71.2586  220.8266 H   0  0  0  0  0  0  0  0  0  0  0  0
  142.1710   73.2767  220.1853 H   0  0  0  0  0  0  0  0  0  0  0  0
  142.3275   75.9322  220.6951 H   0  0  0  0  0  0  0  0  0  0  0  0
  138.1580   69.0461  222.2799 H   0  0  0  0  0  0  0  0  0  0  0  0
  138.3747   67.7577  223.5472 H   0  0  0  0  0  0  0  0  0  0  0  0
  136.0516   68.4987  221.6460 H   0  0  0  0  0  0  0  0  0  0  0  0
  133.6448   68.5674  222.0345 H   0  0  0  0  0  0  0  0  0  0  0  0
  132.7340   68.9880  224.3172 H   0  0  0  0  0  0  0  0  0  0  0  0
  136.7568   69.2618  225.7818 H   0  0  0  0  0  0  0  0  0  0  0  0
  1  2  2  0
  2  3  1  0
  3  4  2  0
  4  5  1  0
  5  6  2  0
  6  7  1  0
  7  8  2  0
  8  9  1  0
  9 10  2  0
 10 11  1  0
 11 12  2  0
 12 13  1  0
 13 14  2  0
 14 15  1  0
 15 16  2  0
 16 17  1  0
 17 18  2  0
 17 19  1  0
 16 20  1  0
 10 21  1  0
 21 22  1  0
 22 23  1  0
 23 24  2  0
 24 25  1  0
 25 26  2  0
 26 27  1  0
 27 28  1  0
 28 29  1  0
 29 30  1  0
 29 31  1  0
 29 32  1  0
 27 33  2  0
 21  2  1  0
 33 23  1  0
  8  3  1  0
 20 13  1  0
  4 34  1  0
  5 35  1  0
  6 36  1  0
  7 37  1  0
 11 38  1  0
 12 39  1  0
 14 40  1  0
 15 41  1  0
 22 42  1  0
 22 43  1  0
 24 44  1  0
 25 45  1  0
 26 46  1  0
 33 47  1  0
M  CHG  2  17   1  19  -1
M  END
>  <smiles>  (9) 
O=c1c2ccccc2nc(/C=C/c2ccc([N+](=O)[O-])o2)n1Cc1cccc(OC(F)(F)F)c1

>  <score_type>  (9) 
oracle

>  <origin>  (9) 
autodockgpu

>  <m_score__min__energy>  (9) 
-8.2599999999999998

>  <m_primary>  (9) 
energy

>  <meeko>  (9) 
{"free_energy": -8.05, "intermolecular_energy": -10.44, "internal_energy": -1.27, "cluster_size": 3, "cluster_id": 2, "rank_in_cluster": 2}

>  <energy>  (9) 
-7.4

>  <cluster_rmsd>  (9) 
0.06

>  <rmsd>  (9) 
268.3

>  <cluster>  (9) 
4

$$$$

     RDKit          3D

 47 50  0  0  0  0  0  0  0  0999 V2000
  138.7940   67.7960  225.6360 O   0  0  0  0  0  0  0  0  0  0  0  0
  139.0460   68.9980  225.4030 C   0  0  0  0  0  0  0  0  0  0  0  0
  139.8260   69.6690  226.3160 C   0  0  0  0  0  0  0  0  0  0  0  0
  140.2970   69.0330  227.4250 C   0  0  0  0  0  0  0  0  0  0  0  0
  141.0710   69.7500  228.3050 C   0  0  0  0  0  0  0  0  0  0  0  0
  141.3350   71.0740  228.0250 C   0  0  0  0  0  0  0  0  0  0  0  0
  140.8630   71.7250  226.9040 C   0  0  0  0  0  0  0  0  0  0  0  0
  140.0900   70.9860  226.0370 C   0  0  0  0  0  0  0  0  0  0  0  0
  139.6120   71.5390  224.9620 N   0  0  0  0  0  0  0  0  0  0  0  0
  138.8310   70.9080  224.0260 C   0  0  0  0  0  0  0  0  0  0  0  0
  138.4650   71.7020  222.8980 C   0  0  0  0  0  0  0  0  0  0  0  0
  137.3360   71.9130  222.3020 C   0  0  0  0  0  0  0  0  0  0  0  0
  136.1750   72.4970  223.0060 C   0  0  0  0  0  0  0  0  0  0  0  0
  134.8340   72.3970  222.6180 C   0  0  0  0  0  0  0  0  0  0  0  0
  134.0740   73.0820  223.5490 C   0  0  0  0  0  0  0  0  0  0  0  0
  135.0040   73.5680  224.4630 C   0  0  0  0  0  0  0  0  0  0  0  0
  134.6590   74.3500  225.6150 N   0  0  0  0  0  0  0  0  0  0  0  0
  135.2340   75.4380  225.8110 O   0  0  0  0  0  0  0  0  0  0  0  0
  133.6950   73.8650  226.4700 O   0  0  0  0  0  0  0  0  0  0  0  0
  136.1950   73.2050  224.1080 O   0  0  0  0  0  0  0  0  0  0  0  0
  138.5620   69.6300  224.2740 N   0  0  0  0  0  0  0  0  0  0  0  0
  137.7420   68.7730  223.4460 C   0  0  0  0  0  0  0  0  0  0  0  0
  136.3100   68.8590  223.7850 C   0  0  0  0  0  0  0  0  0  0  0  0
  135.3890   68.6240  222.7440 C   0  0  0  0  0  0  0  0  0  0  0  0
  134.0350   68.6530  222.9400 C   0  0  0  0  0  0  0  0  0  0  0  0
  133.5050   68.9180  224.1860 C   0  0  0  0  0  0  0  0  0  0  0  0
  134.3800   69.1480  225.2060 C   0  0  0  0  0  0  0  0  0  0  0  0
  133.8800   69.4210  226.4880 O   0  0  0  0  0  0  0  0  0  0  0  0
  133.9170   70.7610  226.9740 C   0  0  0  0  0  0  0  0  0  0  0  0
  134.6920   71.5770  226.1760 F   0  0  0  0  0  0  0  0  0  0  0  0
  134.4240   70.6830  228.2610 F   0  0  0  0  0  0  0  0  0  0  0  0
  132.6140   71.1870  227.0720 F   0  0  0  0  0  0  0  0  0  0  0  0
  135.7540   69.1170  224.9990 C   0  0  0  0  0  0  0  0  0  0  0  0
  140.0639   67.9742  227.6108 H   0  0  0  0  0  0  0  0  0  0  0  0
  141.4717   69.2776  229.2140 H   0  0  0  0  0  0  0  0  0  0  0  0
  141.9556   71.6419  228.7338 H   0  0  0  0  0  0  0  0  0  0  0  0
  141.0932   72.7834  226.7122 H   0  0  0  0  0  0  0  0  0  0  0  0
  139.3101   72.2415  222.4456 H   0  0  0  0  0  0  0  0  0  0  0  0
  137.2372   71.6496  221.2386 H   0  0  0  0  0  0  0  0  0  0  0  0
  134.4528   71.8685  221.7318 H   0  0  0  0  0  0  0  0  0  0  0  0
  132.9819   73.2129  223.5635 H   0  0  0  0  0  0  0  0  0  0  0  0
  137.8735   69.0683  222.3946 H   0  0  0  0  0  0  0  0  0  0  0  0
  138.0637   67.7354  223.6192 H   0  0  0  0  0  0  0  0  0  0  0  0
  135.7733   68.4092  221.7359 H   0  0  0  0  0  0  0  0  0  0  0  0
  133.3600   68.4624  222.0926 H   0  0  0  0  0  0  0  0  0  0  0  0
  132.4176   68.9428  224.3503 H   0  0  0  0  0  0  0  0  0  0  0  0
  136.4199   69.3093  225.8532 H   0  0  0  0  0  0  0  0  0  0  0  0
  1  2  2  0
  2  3  1  0
  3  4  2  0
  4  5  1  0
  5  6  2  0
  6  7  1  0
  7  8  2  0
  8  9  1  0
  9 10  2  0
 10 11  1  0
 11 12  2  0
 12 13  1  0
 13 14  2  0
 14 15  1  0
 15 16  2  0
 16 17  1  0
 17 18  2  0
 17 19  1  0
 16 20  1  0
 10 21  1  0
 21 22  1  0
 22 23  1  0
 23 24  2  0
 24 25  1  0
 25 26  2  0
 26 27  1  0
 27 28  1  0
 28 29  1  0
 29 30  1  0
 29 31  1  0
 29 32  1  0
 27 33  2  0
 21  2  1  0
 33 23  1  0
  8  3  1  0
 20 13  1  0
  4 34  1  0
  5 35  1  0
  6 36  1  0
  7 37  1  0
 11 38  1  0
 12 39  1  0
 14 40  1  0
 15 41  1  0
 22 42  1  0
 22 43  1  0
 24 44  1  0
 25 45  1  0
 26 46  1  0
 33 47  1  0
M  CHG  2  17   1  19  -1
M  END
>  <smiles>  (10) 
O=c1c2ccccc2nc(/C=C/c2ccc([N+](=O)[O-])o2)n1Cc1cccc(OC(F)(F)F)c1

>  <score_type>  (10) 
oracle

>  <origin>  (10) 
autodockgpu

>  <m_score__min__energy>  (10) 
-8.2599999999999998

>  <m_primary>  (10) 
energy

>  <meeko>  (10) 
{"free_energy": -7.3, "intermolecular_energy": -9.68, "internal_energy": -2.32, "cluster_size": 8, "cluster_id": 4, "rank_in_cluster": 4}

>  <energy>  (10) 
-7.38

>  <cluster_rmsd>  (10) 
0.1

>  <rmsd>  (10) 
268.31

>  <cluster>  (10) 
4

$$$$

     RDKit          3D

 47 50  0  0  0  0  0  0  0  0999 V2000
  138.7810   68.0740  225.8360 O   0  0  0  0  0  0  0  0  0  0  0  0
  139.1630   69.1940  225.4360 C   0  0  0  0  0  0  0  0  0  0  0  0
  139.9370   69.9420  226.2930 C   0  0  0  0  0  0  0  0  0  0  0  0
  140.2650   69.4640  227.5260 C   0  0  0  0  0  0  0  0  0  0  0  0
  141.0410   70.2520  228.3430 C   0  0  0  0  0  0  0  0  0  0  0  0
  141.4490   71.4840  227.8770 C   0  0  0  0  0  0  0  0  0  0  0  0
  141.1220   71.9740  226.6300 C   0  0  0  0  0  0  0  0  0  0  0  0
  140.3450   71.1670  225.8290 C   0  0  0  0  0  0  0  0  0  0  0  0
  140.0010   71.5690  224.6430 N   0  0  0  0  0  0  0  0  0  0  0  0
  139.2310   70.8580  223.7580 C   0  0  0  0  0  0  0  0  0  0  0  0
  139.0230   71.4800  222.4890 C   0  0  0  0  0  0  0  0  0  0  0  0
  138.2040   72.3960  222.0840 C   0  0  0  0  0  0  0  0  0  0  0  0
  138.5960   73.8190  222.0070 C   0  0  0  0  0  0  0  0  0  0  0  0
  137.7320   74.9100  221.8600 C   0  0  0  0  0  0  0  0  0  0  0  0
  138.5040   76.0580  221.8320 C   0  0  0  0  0  0  0  0  0  0  0  0
  139.8110   75.5970  221.9630 C   0  0  0  0  0  0  0  0  0  0  0  0
  140.9610   76.4540  221.9840 N   0  0  0  0  0  0  0  0  0  0  0  0
  141.1820   77.1590  222.9870 O   0  0  0  0  0  0  0  0  0  0  0  0
  141.7880   76.4660  220.8830 O   0  0  0  0  0  0  0  0  0  0  0  0
  139.8110   74.3070  222.0600 O   0  0  0  0  0  0  0  0  0  0  0  0
  138.8230   69.6670  224.1830 N   0  0  0  0  0  0  0  0  0  0  0  0
  137.9850   68.7540  223.4360 C   0  0  0  0  0  0  0  0  0  0  0  0
  136.5550   68.9040  223.7600 C   0  0  0  0  0  0  0  0  0  0  0  0
  135.6410   68.7980  222.6910 C   0  0  0  0  0  0  0  0  0  0  0  0
  134.2890   68.8960  222.8690 C   0  0  0  0  0  0  0  0  0  0  0  0
  133.7520   69.1080  224.1230 C   0  0  0  0  0  0  0  0  0  0  0  0
  134.6200   69.2130  225.1690 C   0  0  0  0  0  0  0  0  0  0  0  0
  134.1140   69.4280  226.4590 O   0  0  0  0  0  0  0  0  0  0  0  0
  133.9480   70.7660  226.9240 C   0  0  0  0  0  0  0  0  0  0  0  0
  134.4810   70.9420  228.1850 F   0  0  0  0  0  0  0  0  0  0  0  0
  132.5830   71.0050  226.9130 F   0  0  0  0  0  0  0  0  0  0  0  0
  134.5170   71.5900  225.9820 F   0  0  0  0  0  0  0  0  0  0  0  0
  135.9930   69.1120  224.9800 C   0  0  0  0  0  0  0  0  0  0  0  0
  139.9184   68.4745  227.8588 H   0  0  0  0  0  0  0  0  0  0  0  0
  141.3301   69.9070  229.3467 H   0  0  0  0  0  0  0  0  0  0  0  0
  142.0690   72.1100  228.5356 H   0  0  0  0  0  0  0  0  0  0  0  0
  141.4655   72.9626  226.2913 H   0  0  0  0  0  0  0  0  0  0  0  0
  139.6917   71.1061  221.6997 H   0  0  0  0  0  0  0  0  0  0  0  0
  137.1848   72.1069  221.7879 H   0  0  0  0  0  0  0  0  0  0  0  0
  136.6358   74.8633  221.7809 H   0  0  0  0  0  0  0  0  0  0  0  0
  138.1625   77.0986  221.7295 H   0  0  0  0  0  0  0  0  0  0  0  0
  138.1250   68.9458  222.3619 H   0  0  0  0  0  0  0  0  0  0  0  0
  138.2827   67.7304  223.7073 H   0  0  0  0  0  0  0  0  0  0  0  0
  136.0306   68.6302  221.6761 H   0  0  0  0  0  0  0  0  0  0  0  0
  133.6197   68.8047  222.0008 H   0  0  0  0  0  0  0  0  0  0  0  0
  132.6652   69.1891  224.2725 H   0  0  0  0  0  0  0  0  0  0  0  0
  136.6532   69.2043  225.8550 H   0  0  0  0  0  0  0  0  0  0  0  0
  1  2  2  0
  2  3  1  0
  3  4  2  0
  4  5  1  0
  5  6  2  0
  6  7  1  0
  7  8  2  0
  8  9  1  0
  9 10  2  0
 10 11  1  0
 11 12  2  0
 12 13  1  0
 13 14  2  0
 14 15  1  0
 15 16  2  0
 16 17  1  0
 17 18  2  0
 17 19  1  0
 16 20  1  0
 10 21  1  0
 21 22  1  0
 22 23  1  0
 23 24  2  0
 24 25  1  0
 25 26  2  0
 26 27  1  0
 27 28  1  0
 28 29  1  0
 29 30  1  0
 29 31  1  0
 29 32  1  0
 27 33  2  0
 21  2  1  0
 33 23  1  0
  8  3  1  0
 20 13  1  0
  4 34  1  0
  5 35  1  0
  6 36  1  0
  7 37  1  0
 11 38  1  0
 12 39  1  0
 14 40  1  0
 15 41  1  0
 22 42  1  0
 22 43  1  0
 24 44  1  0
 25 45  1  0
 26 46  1  0
 33 47  1  0
M  CHG  2  17   1  19  -1
M  END
>  <smiles>  (11) 
O=c1c2ccccc2nc(/C=C/c2ccc([N+](=O)[O-])o2)n1Cc1cccc(OC(F)(F)F)c1

>  <score_type>  (11) 
oracle

>  <origin>  (11) 
autodockgpu

>  <m_score__min__energy>  (11) 
-8.2599999999999998

>  <m_primary>  (11) 
energy

>  <meeko>  (11) 
{"free_energy": -7.61, "intermolecular_energy": -10.0, "internal_energy": -1.38, "cluster_size": 3, "cluster_id": 2, "rank_in_cluster": 3}

>  <energy>  (11) 
-7.3

>  <cluster_rmsd>  (11) 
0.14

>  <rmsd>  (11) 
268.28

>  <cluster>  (11) 
4

$$$$

     RDKit          3D

 47 50  0  0  0  0  0  0  0  0999 V2000
  138.8290   67.7280  225.5630 O   0  0  0  0  0  0  0  0  0  0  0  0
  139.0640   68.9430  225.3940 C   0  0  0  0  0  0  0  0  0  0  0  0
  139.8330   69.5760  226.3440 C   0  0  0  0  0  0  0  0  0  0  0  0
  140.3090   68.8890  227.4200 C   0  0  0  0  0  0  0  0  0  0  0  0
  141.0710   69.5700  228.3390 C   0  0  0  0  0  0  0  0  0  0  0  0
  141.3170   70.9100  228.1300 C   0  0  0  0  0  0  0  0  0  0  0  0
  140.8390   71.6120  227.0440 C   0  0  0  0  0  0  0  0  0  0  0  0
  140.0790   70.9100  226.1360 C   0  0  0  0  0  0  0  0  0  0  0  0
  139.5960   71.5110  225.0900 N   0  0  0  0  0  0  0  0  0  0  0  0
  138.8270   70.9200  224.1200 C   0  0  0  0  0  0  0  0  0  0  0  0
  138.4520   71.7680  223.0340 C   0  0  0  0  0  0  0  0  0  0  0  0
  137.3340   71.9520  222.4090 C   0  0  0  0  0  0  0  0  0  0  0  0
  136.1600   72.5630  223.0670 C   0  0  0  0  0  0  0  0  0  0  0  0
  134.8550   72.6020  222.5640 C   0  0  0  0  0  0  0  0  0  0  0  0
  134.0660   73.2630  223.4890 C   0  0  0  0  0  0  0  0  0  0  0  0
  134.9450   73.5940  224.5160 C   0  0  0  0  0  0  0  0  0  0  0  0
  134.5560   74.3000  225.7030 N   0  0  0  0  0  0  0  0  0  0  0  0
  135.0960   75.3890  225.9730 O   0  0  0  0  0  0  0  0  0  0  0  0
  133.5900   73.7400  226.5100 O   0  0  0  0  0  0  0  0  0  0  0  0
  136.1330   73.1710  224.2270 O   0  0  0  0  0  0  0  0  0  0  0  0
  138.5750   69.6280  224.2990 N   0  0  0  0  0  0  0  0  0  0  0  0
  137.7680   68.8040  223.4240 C   0  0  0  0  0  0  0  0  0  0  0  0
  136.3380   68.8360  223.7760 C   0  0  0  0  0  0  0  0  0  0  0  0
  135.4190   68.5320  222.7500 C   0  0  0  0  0  0  0  0  0  0  0  0
  134.0670   68.5070  222.9590 C   0  0  0  0  0  0  0  0  0  0  0  0
  133.5360   68.7830  224.2030 C   0  0  0  0  0  0  0  0  0  0  0  0
  134.4090   69.0790  225.2070 C   0  0  0  0  0  0  0  0  0  0  0  0
  133.9090   69.3650  226.4860 O   0  0  0  0  0  0  0  0  0  0  0  0
  133.8110   70.7250  226.9030 C   0  0  0  0  0  0  0  0  0  0  0  0
  132.5130   71.1880  226.8470 F   0  0  0  0  0  0  0  0  0  0  0  0
  134.6420   71.4420  226.0560 F   0  0  0  0  0  0  0  0  0  0  0  0
  134.3520   70.7970  228.1650 F   0  0  0  0  0  0  0  0  0  0  0  0
  135.7810   69.1020  224.9870 C   0  0  0  0  0  0  0  0  0  0  0  0
  140.0895   67.8189  227.5496 H   0  0  0  0  0  0  0  0  0  0  0  0
  141.4762   69.0562  229.2232 H   0  0  0  0  0  0  0  0  0  0  0  0
  141.9277   71.4484  228.8697 H   0  0  0  0  0  0  0  0  0  0  0  0
  141.0547   72.6822  226.9095 H   0  0  0  0  0  0  0  0  0  0  0  0
  139.2772   72.3877  222.6532 H   0  0  0  0  0  0  0  0  0  0  0  0
  137.2549   71.6443  221.3559 H   0  0  0  0  0  0  0  0  0  0  0  0
  134.5168   72.1824  221.6051 H   0  0  0  0  0  0  0  0  0  0  0  0
  132.9890   73.4779  223.4267 H   0  0  0  0  0  0  0  0  0  0  0  0
  137.8850   69.1662  222.3920 H   0  0  0  0  0  0  0  0  0  0  0  0
  138.1144   67.7655  223.5310 H   0  0  0  0  0  0  0  0  0  0  0  0
  135.8036   68.3066  221.7444 H   0  0  0  0  0  0  0  0  0  0  0  0
  133.3937   68.2635  222.1239 H   0  0  0  0  0  0  0  0  0  0  0  0
  132.4500   68.7647  224.3773 H   0  0  0  0  0  0  0  0  0  0  0  0
  136.4450   69.3460  225.8294 H   0  0  0  0  0  0  0  0  0  0  0  0
  1  2  2  0
  2  3  1  0
  3  4  2  0
  4  5  1  0
  5  6  2  0
  6  7  1  0
  7  8  2  0
  8  9  1  0
  9 10  2  0
 10 11  1  0
 11 12  2  0
 12 13  1  0
 13 14  2  0
 14 15  1  0
 15 16  2  0
 16 17  1  0
 17 18  2  0
 17 19  1  0
 16 20  1  0
 10 21  1  0
 21 22  1  0
 22 23  1  0
 23 24  2  0
 24 25  1  0
 25 26  2  0
 26 27  1  0
 27 28  1  0
 28 29  1  0
 29 30  1  0
 29 31  1  0
 29 32  1  0
 27 33  2  0
 21  2  1  0
 33 23  1  0
  8  3  1  0
 20 13  1  0
  4 34  1  0
  5 35  1  0
  6 36  1  0
  7 37  1  0
 11 38  1  0
 12 39  1  0
 14 40  1  0
 15 41  1  0
 22 42  1  0
 22 43  1  0
 24 44  1  0
 25 45  1  0
 26 46  1  0
 33 47  1  0
M  CHG  2  17   1  19  -1
M  END
>  <smiles>  (12) 
O=c1c2ccccc2nc(/C=C/c2ccc([N+](=O)[O-])o2)n1Cc1cccc(OC(F)(F)F)c1

>  <score_type>  (12) 
oracle

>  <origin>  (12) 
autodockgpu

>  <m_score__min__energy>  (12) 
-8.2599999999999998

>  <m_primary>  (12) 
energy

>  <meeko>  (12) 
{"free_energy": -7.42, "intermolecular_energy": -9.8, "internal_energy": -2.28, "cluster_size": 8, "cluster_id": 4, "rank_in_cluster": 1}

>  <energy>  (12) 
-7.24

>  <cluster_rmsd>  (12) 
0.21

>  <rmsd>  (12) 
268.28

>  <cluster>  (12) 
4

$$$$

     RDKit          3D

 47 50  0  0  0  0  0  0  0  0999 V2000
  140.2980   71.8200  225.0440 O   0  0  0  0  0  0  0  0  0  0  0  0
  139.9240   70.6280  225.0300 C   0  0  0  0  0  0  0  0  0  0  0  0
  140.1660   69.8750  226.1560 C   0  0  0  0  0  0  0  0  0  0  0  0
  140.7910   70.4250  227.2350 C   0  0  0  0  0  0  0  0  0  0  0  0
  141.0090   69.6290  228.3340 C   0  0  0  0  0  0  0  0  0  0  0  0
  140.5860   68.3170  228.2940 C   0  0  0  0  0  0  0  0  0  0  0  0
  139.9530   67.7540  227.2060 C   0  0  0  0  0  0  0  0  0  0  0  0
  139.7450   68.5700  226.1170 C   0  0  0  0  0  0  0  0  0  0  0  0
  139.1540   68.1020  225.0590 N   0  0  0  0  0  0  0  0  0  0  0  0
  138.8930   68.8150  223.9160 C   0  0  0  0  0  0  0  0  0  0  0  0
  138.1860   68.1060  222.8990 C   0  0  0  0  0  0  0  0  0  0  0  0
  137.0310   68.2870  222.3430 C   0  0  0  0  0  0  0  0  0  0  0  0
  135.8480   68.7190  223.1160 C   0  0  0  0  0  0  0  0  0  0  0  0
  134.7410   69.4150  222.6180 C   0  0  0  0  0  0  0  0  0  0  0  0
  133.8650   69.6210  223.6690 C   0  0  0  0  0  0  0  0  0  0  0  0
  134.4940   69.0320  224.7620 C   0  0  0  0  0  0  0  0  0  0  0  0
  133.9390   69.0060  226.0840 N   0  0  0  0  0  0  0  0  0  0  0  0
  134.1590   69.9550  226.8600 O   0  0  0  0  0  0  0  0  0  0  0  0
  133.1740   67.9210  226.4510 O   0  0  0  0  0  0  0  0  0  0  0  0
  135.6280   68.5290  224.3940 O   0  0  0  0  0  0  0  0  0  0  0  0
  139.2920   70.0830  223.9290 N   0  0  0  0  0  0  0  0  0  0  0  0
  139.1480   71.0170  222.8330 C   0  0  0  0  0  0  0  0  0  0  0  0
  137.9170   71.8210  222.9320 C   0  0  0  0  0  0  0  0  0  0  0  0
  137.7050   72.7930  221.9330 C   0  0  0  0  0  0  0  0  0  0  0  0
  136.5890   73.5850  221.9040 C   0  0  0  0  0  0  0  0  0  0  0  0
  135.6080   73.4640  222.8670 C   0  0  0  0  0  0  0  0  0  0  0  0
  135.7960   72.5280  223.8410 C   0  0  0  0  0  0  0  0  0  0  0  0
  134.8210   72.3740  224.8380 O   0  0  0  0  0  0  0  0  0  0  0  0
  134.1580   73.5310  225.3440 C   0  0  0  0  0  0  0  0  0  0  0  0
  135.0260   74.5910  225.5070 F   0  0  0  0  0  0  0  0  0  0  0  0
  133.5940   73.1470  226.5500 F   0  0  0  0  0  0  0  0  0  0  0  0
  133.1260   73.8100  224.4790 F   0  0  0  0  0  0  0  0  0  0  0  0
  136.9310   71.7280  223.8640 C   0  0  0  0  0  0  0  0  0  0  0  0
  141.1121   71.4770  227.2265 H   0  0  0  0  0  0  0  0  0  0  0  0
  141.5105   70.0301  229.2271 H   0  0  0  0  0  0  0  0  0  0  0  0
  140.7630   67.6858  229.1773 H   0  0  0  0  0  0  0  0  0  0  0  0
  139.6296   66.7026  227.2081 H   0  0  0  0  0  0  0  0  0  0  0  0
  138.7304   67.2326  222.5106 H   0  0  0  0  0  0  0  0  0  0  0  0
  136.9270   68.1139  221.2617 H   0  0  0  0  0  0  0  0  0  0  0  0
  134.5936   69.7401  221.5775 H   0  0  0  0  0  0  0  0  0  0  0  0
  132.8922   70.1339  223.6460 H   0  0  0  0  0  0  0  0  0  0  0  0
  140.0133   71.6961  222.8328 H   0  0  0  0  0  0  0  0  0  0  0  0
  139.0906   70.4329  221.9027 H   0  0  0  0  0  0  0  0  0  0  0  0
  138.4647   72.9196  221.1476 H   0  0  0  0  0  0  0  0  0  0  0  0
  136.4725   74.3285  221.1017 H   0  0  0  0  0  0  0  0  0  0  0  0
  134.7092   74.0979  222.8497 H   0  0  0  0  0  0  0  0  0  0  0  0
  137.0370   70.9875  224.6705 H   0  0  0  0  0  0  0  0  0  0  0  0
  1  2  2  0
  2  3  1  0
  3  4  2  0
  4  5  1  0
  5  6  2  0
  6  7  1  0
  7  8  2  0
  8  9  1  0
  9 10  2  0
 10 11  1  0
 11 12  2  0
 12 13  1  0
 13 14  2  0
 14 15  1  0
 15 16  2  0
 16 17  1  0
 17 18  2  0
 17 19  1  0
 16 20  1  0
 10 21  1  0
 21 22  1  0
 22 23  1  0
 23 24  2  0
 24 25  1  0
 25 26  2  0
 26 27  1  0
 27 28  1  0
 28 29  1  0
 29 30  1  0
 29 31  1  0
 29 32  1  0
 27 33  2  0
 21  2  1  0
 33 23  1  0
  8  3  1  0
 20 13  1  0
  4 34  1  0
  5 35  1  0
  6 36  1  0
  7 37  1  0
 11 38  1  0
 12 39  1  0
 14 40  1  0
 15 41  1  0
 22 42  1  0
 22 43  1  0
 24 44  1  0
 25 45  1  0
 26 46  1  0
 33 47  1  0
M  CHG  2  17   1  19  -1
M  END
>  <smiles>  (13) 
O=c1c2ccccc2nc(/C=C/c2ccc([N+](=O)[O-])o2)n1Cc1cccc(OC(F)(F)F)c1

>  <score_type>  (13) 
oracle

>  <origin>  (13) 
autodockgpu

>  <m_score__min__energy>  (13) 
-8.2599999999999998

>  <m_primary>  (13) 
energy

>  <meeko>  (13) 
{"free_energy": -7.06, "intermolecular_energy": -9.45, "internal_energy": -2.4, "cluster_size": 2, "cluster_id": 7, "rank_in_cluster": 1}

>  <energy>  (13) 
-7.23

>  <cluster_rmsd>  (13) 
0.22

>  <rmsd>  (13) 
268.29

>  <cluster>  (13) 
4

$$$$

     RDKit          3D

 47 50  0  0  0  0  0  0  0  0999 V2000
  140.7130   71.6390  224.7030 O   0  0  0  0  0  0  0  0  0  0  0  0
  140.1380   70.5330  224.7810 C   0  0  0  0  0  0  0  0  0  0  0  0
  140.1910   69.8760  225.9880 C   0  0  0  0  0  0  0  0  0  0  0  0
  140.8500   70.4240  227.0470 C   0  0  0  0  0  0  0  0  0  0  0  0
  140.8740   69.7250  228.2300 C   0  0  0  0  0  0  0  0  0  0  0  0
  140.2310   68.5070  228.2900 C   0  0  0  0  0  0  0  0  0  0  0  0
  139.5610   67.9460  227.2230 C   0  0  0  0  0  0  0  0  0  0  0  0
  139.5510   68.6640  226.0490 C   0  0  0  0  0  0  0  0  0  0  0  0
  138.9380   68.1920  225.0050 N   0  0  0  0  0  0  0  0  0  0  0  0
  138.8600   68.8120  223.7830 C   0  0  0  0  0  0  0  0  0  0  0  0
  138.0890   68.1270  222.7960 C   0  0  0  0  0  0  0  0  0  0  0  0
  136.9490   68.3840  222.2390 C   0  0  0  0  0  0  0  0  0  0  0  0
  135.7310   68.6530  223.0320 C   0  0  0  0  0  0  0  0  0  0  0  0
  134.5040   69.1070  222.5380 C   0  0  0  0  0  0  0  0  0  0  0  0
  133.6370   69.2270  223.6090 C   0  0  0  0  0  0  0  0  0  0  0  0
  134.3930   68.8350  224.7100 C   0  0  0  0  0  0  0  0  0  0  0  0
  133.8900   68.8020  226.0530 N   0  0  0  0  0  0  0  0  0  0  0  0
  134.1950   69.7160  226.8430 O   0  0  0  0  0  0  0  0  0  0  0  0
  133.0820   67.7510  226.4230 O   0  0  0  0  0  0  0  0  0  0  0  0
  135.5870   68.5150  224.3270 O   0  0  0  0  0  0  0  0  0  0  0  0
  139.4730   69.9880  223.6990 N   0  0  0  0  0  0  0  0  0  0  0  0
  139.5460   70.8100  222.5110 C   0  0  0  0  0  0  0  0  0  0  0  0
  138.5380   71.8850  222.5020 C   0  0  0  0  0  0  0  0  0  0  0  0
  138.9500   73.1470  222.0270 C   0  0  0  0  0  0  0  0  0  0  0  0
  138.0990   74.2160  221.9480 C   0  0  0  0  0  0  0  0  0  0  0  0
  136.7800   74.1020  222.3380 C   0  0  0  0  0  0  0  0  0  0  0  0
  136.3630   72.8890  222.8000 C   0  0  0  0  0  0  0  0  0  0  0  0
  135.0300   72.7330  223.2060 O   0  0  0  0  0  0  0  0  0  0  0  0
  134.7430   72.5650  224.5930 C   0  0  0  0  0  0  0  0  0  0  0  0
  135.0520   73.6930  225.3230 F   0  0  0  0  0  0  0  0  0  0  0  0
  135.4910   71.4730  225.0040 F   0  0  0  0  0  0  0  0  0  0  0  0
  133.4170   72.2120  224.6870 F   0  0  0  0  0  0  0  0  0  0  0  0
  137.2330   71.8080  222.8760 C   0  0  0  0  0  0  0  0  0  0  0  0
  141.3496   71.3999  226.9575 H   0  0  0  0  0  0  0  0  0  0  0  0
  141.3953   70.1288  229.1105 H   0  0  0  0  0  0  0  0  0  0  0  0
  140.2535   67.9528  229.2399 H   0  0  0  0  0  0  0  0  0  0  0  0
  139.0585   66.9710  227.3064 H   0  0  0  0  0  0  0  0  0  0  0  0
  138.5556   67.1974  222.4381 H   0  0  0  0  0  0  0  0  0  0  0  0
  136.8848   68.4028  221.1410 H   0  0  0  0  0  0  0  0  0  0  0  0
  134.2703   69.3289  221.4863 H   0  0  0  0  0  0  0  0  0  0  0  0
  132.5879   69.5573  223.5940 H   0  0  0  0  0  0  0  0  0  0  0  0
  140.5462   71.2647  222.4583 H   0  0  0  0  0  0  0  0  0  0  0  0
  139.3486   70.1614  221.6448 H   0  0  0  0  0  0  0  0  0  0  0  0
  139.9946   73.2773  221.7079 H   0  0  0  0  0  0  0  0  0  0  0  0
  138.4713   75.1790  221.5686 H   0  0  0  0  0  0  0  0  0  0  0  0
  136.0912   74.9576  222.2783 H   0  0  0  0  0  0  0  0  0  0  0  0
  136.8496   70.8491  223.2549 H   0  0  0  0  0  0  0  0  0  0  0  0
  1  2  2  0
  2  3  1  0
  3  4  2  0
  4  5  1  0
  5  6  2  0
  6  7  1  0
  7  8  2  0
  8  9  1  0
  9 10  2  0
 10 11  1  0
 11 12  2  0
 12 13  1  0
 13 14  2  0
 14 15  1  0
 15 16  2  0
 16 17  1  0
 17 18  2  0
 17 19  1  0
 16 20  1  0
 10 21  1  0
 21 22  1  0
 22 23  1  0
 23 24  2  0
 24 25  1  0
 25 26  2  0
 26 27  1  0
 27 28  1  0
 28 29  1  0
 29 30  1  0
 29 31  1  0
 29 32  1  0
 27 33  2  0
 21  2  1  0
 33 23  1  0
  8  3  1  0
 20 13  1  0
  4 34  1  0
  5 35  1  0
  6 36  1  0
  7 37  1  0
 11 38  1  0
 12 39  1  0
 14 40  1  0
 15 41  1  0
 22 42  1  0
 22 43  1  0
 24 44  1  0
 25 45  1  0
 26 46  1  0
 33 47  1  0
M  CHG  2  17   1  19  -1
M  END
>  <smiles>  (14) 
O=c1c2ccccc2nc(/C=C/c2ccc([N+](=O)[O-])o2)n1Cc1cccc(OC(F)(F)F)c1

>  <score_type>  (14) 
oracle

>  <origin>  (14) 
autodockgpu

>  <m_score__min__energy>  (14) 
-8.2599999999999998

>  <m_primary>  (14) 
energy

>  <meeko>  (14) 
{"free_energy": -6.8, "intermolecular_energy": -9.19, "internal_energy": -2.33, "cluster_size": 2, "cluster_id": 7, "rank_in_cluster": 2}

>  <energy>  (14) 
-6.78

>  <cluster_rmsd>  (14) 
0.62

>  <rmsd>  (14) 
268.16

>  <cluster>  (14) 
4

$$$$

     RDKit          3D

 47 50  0  0  0  0  0  0  0  0999 V2000
  139.0950   68.2370  225.0310 O   0  0  0  0  0  0  0  0  0  0  0  0
  139.5880   69.3780  224.9090 C   0  0  0  0  0  0  0  0  0  0  0  0
  140.0840   69.9770  226.0430 C   0  0  0  0  0  0  0  0  0  0  0  0
  140.0300   69.3370  227.2450 C   0  0  0  0  0  0  0  0  0  0  0  0
  140.5380   69.9820  228.3480 C   0  0  0  0  0  0  0  0  0  0  0  0
  141.0780   71.2400  228.1860 C   0  0  0  0  0  0  0  0  0  0  0  0
  141.1370   71.8940  226.9730 C   0  0  0  0  0  0  0  0  0  0  0  0
  140.6220   71.2290  225.8830 C   0  0  0  0  0  0  0  0  0  0  0  0
  140.6450   71.7890  224.7110 N   0  0  0  0  0  0  0  0  0  0  0  0
  140.1630   71.2290  223.5550 C   0  0  0  0  0  0  0  0  0  0  0  0
  140.3440   72.0100  222.3740 C   0  0  0  0  0  0  0  0  0  0  0  0
  141.0560   71.8370  221.3070 C   0  0  0  0  0  0  0  0  0  0  0  0
  142.2230   72.6900  220.9970 C   0  0  0  0  0  0  0  0  0  0  0  0
  142.1920   74.0540  220.6890 C   0  0  0  0  0  0  0  0  0  0  0  0
  143.4950   74.4640  220.4650 C   0  0  0  0  0  0  0  0  0  0  0  0
  144.2550   73.3140  220.6520 C   0  0  0  0  0  0  0  0  0  0  0  0
  145.6830   73.2690  220.5190 N   0  0  0  0  0  0  0  0  0  0  0  0
  146.3980   73.4890  221.5150 O   0  0  0  0  0  0  0  0  0  0  0  0
  146.2160   72.9820  219.2820 O   0  0  0  0  0  0  0  0  0  0  0  0
  143.4800   72.3230  220.9550 O   0  0  0  0  0  0  0  0  0  0  0  0
  139.6370   70.0160  223.6840 N   0  0  0  0  0  0  0  0  0  0  0  0
  139.0460   69.2420  222.6140 C   0  0  0  0  0  0  0  0  0  0  0  0
  137.5750   69.3300  222.5960 C   0  0  0  0  0  0  0  0  0  0  0  0
  136.9950   70.1720  221.6250 C   0  0  0  0  0  0  0  0  0  0  0  0
  135.6410   70.3180  221.4940 C   0  0  0  0  0  0  0  0  0  0  0  0
  134.7710   69.6380  222.3210 C   0  0  0  0  0  0  0  0  0  0  0  0
  135.3130   68.8190  223.2660 C   0  0  0  0  0  0  0  0  0  0  0  0
  134.4620   68.1090  224.1270 O   0  0  0  0  0  0  0  0  0  0  0  0
  134.1290   68.6750  225.3930 C   0  0  0  0  0  0  0  0  0  0  0  0
  133.9410   67.7050  226.3560 F   0  0  0  0  0  0  0  0  0  0  0  0
  132.9750   69.4130  225.1850 F   0  0  0  0  0  0  0  0  0  0  0  0
  135.1310   69.5600  225.7110 F   0  0  0  0  0  0  0  0  0  0  0  0
  136.6900   68.6750  223.3930 C   0  0  0  0  0  0  0  0  0  0  0  0
  139.5919   68.3316  227.3305 H   0  0  0  0  0  0  0  0  0  0  0  0
  140.5140   69.5043  229.3386 H   0  0  0  0  0  0  0  0  0  0  0  0
  141.4839   71.7499  229.0722 H   0  0  0  0  0  0  0  0  0  0  0  0
  141.5746   72.8990  226.8809 H   0  0  0  0  0  0  0  0  0  0  0  0
  139.7632   72.9442  222.3698 H   0  0  0  0  0  0  0  0  0  0  0  0
  140.7845   71.0308  220.6097 H   0  0  0  0  0  0  0  0  0  0  0  0
  141.2940   74.6869  220.6346 H   0  0  0  0  0  0  0  0  0  0  0  0
  143.8492   75.4710  220.1993 H   0  0  0  0  0  0  0  0  0  0  0  0
  139.4330   69.6150  221.6542 H   0  0  0  0  0  0  0  0  0  0  0  0
  139.3146   68.1879  222.7779 H   0  0  0  0  0  0  0  0  0  0  0  0
  137.6559   70.7325  220.9475 H   0  0  0  0  0  0  0  0  0  0  0  0
  135.2404   70.9871  220.7182 H   0  0  0  0  0  0  0  0  0  0  0  0
  133.6815   69.7524  222.2215 H   0  0  0  0  0  0  0  0  0  0  0  0
  137.0797   68.0026  224.1714 H   0  0  0  0  0  0  0  0  0  0  0  0
  1  2  2  0
  2  3  1  0
  3  4  2  0
  4  5  1  0
  5  6  2  0
  6  7  1  0
  7  8  2  0
  8  9  1  0
  9 10  2  0
 10 11  1  0
 11 12  2  0
 12 13  1  0
 13 14  2  0
 14 15  1  0
 15 16  2  0
 16 17  1  0
 17 18  2  0
 17 19  1  0
 16 20  1  0
 10 21  1  0
 21 22  1  0
 22 23  1  0
 23 24  2  0
 24 25  1  0
 25 26  2  0
 26 27  1  0
 27 28  1  0
 28 29  1  0
 29 30  1  0
 29 31  1  0
 29 32  1  0
 27 33  2  0
 21  2  1  0
 33 23  1  0
  8  3  1  0
 20 13  1  0
  4 34  1  0
  5 35  1  0
  6 36  1  0
  7 37  1  0
 11 38  1  0
 12 39  1  0
 14 40  1  0
 15 41  1  0
 22 42  1  0
 22 43  1  0
 24 44  1  0
 25 45  1  0
 26 46  1  0
 33 47  1  0
M  CHG  2  17   1  19  -1
M  END
>  <smiles>  (15) 
O=c1c2ccccc2nc(/C=C/c2ccc([N+](=O)[O-])o2)n1Cc1cccc(OC(F)(F)F)c1

>  <score_type>  (15) 
oracle

>  <origin>  (15) 
autodockgpu

>  <m_score__min__energy>  (15) 
-8.2599999999999998

>  <m_primary>  (15) 
energy

>  <meeko>  (15) 
{"free_energy": -8.26, "intermolecular_energy": -10.64, "internal_energy": -1.29, "cluster_size": 3, "cluster_id": 1, "rank_in_cluster": 1}

>  <energy>  (15) 
-6.44

>  <cluster_rmsd>  (15) 
0.78

>  <rmsd>  (15) 
268.06

>  <cluster>  (15) 
4

$$$$

     RDKit          3D

 47 50  0  0  0  0  0  0  0  0999 V2000
  138.8190   67.7780  225.6290 O   0  0  0  0  0  0  0  0  0  0  0  0
  139.0750   68.9830  225.4250 C   0  0  0  0  0  0  0  0  0  0  0  0
  139.8560   69.6300  226.3560 C   0  0  0  0  0  0  0  0  0  0  0  0
  140.3210   68.9650  227.4510 C   0  0  0  0  0  0  0  0  0  0  0  0
  141.0960   69.6590  228.3500 C   0  0  0  0  0  0  0  0  0  0  0  0
  141.3650   70.9880  228.1020 C   0  0  0  0  0  0  0  0  0  0  0  0
  140.8980   71.6670  226.9970 C   0  0  0  0  0  0  0  0  0  0  0  0
  140.1250   70.9520  226.1100 C   0  0  0  0  0  0  0  0  0  0  0  0
  139.6520   71.5320  225.0470 N   0  0  0  0  0  0  0  0  0  0  0  0
  138.8710   70.9270  224.0950 C   0  0  0  0  0  0  0  0  0  0  0  0
  138.5110   71.7500  222.9850 C   0  0  0  0  0  0  0  0  0  0  0  0
  137.3920   71.9470  222.3660 C   0  0  0  0  0  0  0  0  0  0  0  0
  136.2090   72.5160  223.0460 C   0  0  0  0  0  0  0  0  0  0  0  0
  134.8850   72.4530  222.5970 C   0  0  0  0  0  0  0  0  0  0  0  0
  134.0950   73.1070  223.5250 C   0  0  0  0  0  0  0  0  0  0  0  0
  134.9910   73.5360  224.5000 C   0  0  0  0  0  0  0  0  0  0  0  0
  134.6060   74.2700  225.6710 N   0  0  0  0  0  0  0  0  0  0  0  0
  135.1710   75.3480  225.9310 O   0  0  0  0  0  0  0  0  0  0  0  0
  133.6150   73.7480  226.4730 O   0  0  0  0  0  0  0  0  0  0  0  0
  136.1900   73.1730  224.1790 O   0  0  0  0  0  0  0  0  0  0  0  0
  138.5970   69.6450  224.3110 N   0  0  0  0  0  0  0  0  0  0  0  0
  137.7750   68.8110  223.4610 C   0  0  0  0  0  0  0  0  0  0  0  0
  136.3430   68.8930  223.7990 C   0  0  0  0  0  0  0  0  0  0  0  0
  135.4240   68.6860  222.7510 C   0  0  0  0  0  0  0  0  0  0  0  0
  134.0700   68.7140  222.9440 C   0  0  0  0  0  0  0  0  0  0  0  0
  133.5380   68.9520  224.1950 C   0  0  0  0  0  0  0  0  0  0  0  0
  134.4110   69.1550  225.2220 C   0  0  0  0  0  0  0  0  0  0  0  0
  133.9100   69.3990  226.5090 O   0  0  0  0  0  0  0  0  0  0  0  0
  133.9310   70.7310  227.0190 C   0  0  0  0  0  0  0  0  0  0  0  0
  134.3800   70.7760  228.3220 F   0  0  0  0  0  0  0  0  0  0  0  0
  132.6290   71.1970  226.9150 F   0  0  0  0  0  0  0  0  0  0  0  0
  134.7030   71.4760  226.1590 F   0  0  0  0  0  0  0  0  0  0  0  0
  135.7850   69.1240  225.0170 C   0  0  0  0  0  0  0  0  0  0  0  0
  140.0830   67.9030  227.6110 H   0  0  0  0  0  0  0  0  0  0  0  0
  141.4931   69.1640  229.2485 H   0  0  0  0  0  0  0  0  0  0  0  0
  141.9862   71.5366  228.8253 H   0  0  0  0  0  0  0  0  0  0  0  0
  141.1317   72.7291  226.8318 H   0  0  0  0  0  0  0  0  0  0  0  0
  139.3505   72.3310  222.5755 H   0  0  0  0  0  0  0  0  0  0  0  0
  137.3186   71.6829  221.3007 H   0  0  0  0  0  0  0  0  0  0  0  0
  134.5355   71.9702  221.6724 H   0  0  0  0  0  0  0  0  0  0  0  0
  133.0053   73.2547  223.4985 H   0  0  0  0  0  0  0  0  0  0  0  0
  137.9093   69.1314  222.4173 H   0  0  0  0  0  0  0  0  0  0  0  0
  138.0929   67.7685  223.6101 H   0  0  0  0  0  0  0  0  0  0  0  0
  135.8102   68.4946  221.7390 H   0  0  0  0  0  0  0  0  0  0  0  0
  133.3965   68.5446  222.0910 H   0  0  0  0  0  0  0  0  0  0  0  0
  132.4503   68.9770  224.3573 H   0  0  0  0  0  0  0  0  0  0  0  0
  136.4496   69.2936  225.8770 H   0  0  0  0  0  0  0  0  0  0  0  0
  1  2  2  0
  2  3  1  0
  3  4  2  0
  4  5  1  0
  5  6  2  0
  6  7  1  0
  7  8  2  0
  8  9  1  0
  9 10  2  0
 10 11  1  0
 11 12  2  0
 12 13  1  0
 13 14  2  0
 14 15  1  0
 15 16  2  0
 16 17  1  0
 17 18  2  0
 17 19  1  0
 16 20  1  0
 10 21  1  0
 21 22  1  0
 22 23  1  0
 23 24  2  0
 24 25  1  0
 25 26  2  0
 26 27  1  0
 27 28  1  0
 28 29  1  0
 29 30  1  0
 29 31  1  0
 29 32  1  0
 27 33  2  0
 21  2  1  0
 33 23  1  0
  8  3  1  0
 20 13  1  0
  4 34  1  0
  5 35  1  0
  6 36  1  0
  7 37  1  0
 11 38  1  0
 12 39  1  0
 14 40  1  0
 15 41  1  0
 22 42  1  0
 22 43  1  0
 24 44  1  0
 25 45  1  0
 26 46  1  0
 33 47  1  0
M  CHG  2  17   1  19  -1
M  END
>  <smiles>  (16) 
O=c1c2ccccc2nc(/C=C/c2ccc([N+](=O)[O-])o2)n1Cc1cccc(OC(F)(F)F)c1

>  <score_type>  (16) 
oracle

>  <origin>  (16) 
autodockgpu

>  <m_score__min__energy>  (16) 
-8.2599999999999998

>  <m_primary>  (16) 
energy

>  <meeko>  (16) 
{"free_energy": -7.38, "intermolecular_energy": -9.77, "internal_energy": -2.35, "cluster_size": 8, "cluster_id": 4, "rank_in_cluster": 3}

>  <energy>  (16) 
-7.42

>  <cluster_rmsd>  (16) 
0.0

>  <rmsd>  (16) 
269.01

>  <cluster>  (16) 
5

$$$$

     RDKit          3D

 47 50  0  0  0  0  0  0  0  0999 V2000
  142.4770   75.9570  219.1000 O   0  0  0  0  0  0  0  0  0  0  0  0
  141.7670   75.7670  220.1100 C   0  0  0  0  0  0  0  0  0  0  0  0
  141.4290   76.8690  220.8610 C   0  0  0  0  0  0  0  0  0  0  0  0
  141.8600   78.1110  220.5020 C   0  0  0  0  0  0  0  0  0  0  0  0
  141.4940   79.1780  221.2870 C   0  0  0  0  0  0  0  0  0  0  0  0
  140.7090   78.9420  222.3960 C   0  0  0  0  0  0  0  0  0  0  0  0
  140.2680   77.6890  222.7660 C   0  0  0  0  0  0  0  0  0  0  0  0
  140.6470   76.6360  221.9640 C   0  0  0  0  0  0  0  0  0  0  0  0
  140.2660   75.4280  222.2560 N   0  0  0  0  0  0  0  0  0  0  0  0
  140.5800   74.3030  221.5360 C   0  0  0  0  0  0  0  0  0  0  0  0
  140.0060   73.0880  222.0180 C   0  0  0  0  0  0  0  0  0  0  0  0
  140.5230   71.9700  222.4180 C   0  0  0  0  0  0  0  0  0  0  0  0
  140.4040   71.5080  223.8170 C   0  0  0  0  0  0  0  0  0  0  0  0
  139.8120   70.3160  224.2480 C   0  0  0  0  0  0  0  0  0  0  0  0
  139.9130   70.2700  225.6270 C   0  0  0  0  0  0  0  0  0  0  0  0
  140.5670   71.4510  225.9640 C   0  0  0  0  0  0  0  0  0  0  0  0
  140.8890   71.8310  227.3090 N   0  0  0  0  0  0  0  0  0  0  0  0
  141.8280   72.6230  227.5140 O   0  0  0  0  0  0  0  0  0  0  0  0
  140.1400   71.2990  228.3350 O   0  0  0  0  0  0  0  0  0  0  0  0
  140.8280   72.1260  224.8910 O   0  0  0  0  0  0  0  0  0  0  0  0
  141.3360   74.5030  220.4620 N   0  0  0  0  0  0  0  0  0  0  0  0
  141.8120   73.4680  219.5700 C   0  0  0  0  0  0  0  0  0  0  0  0
  143.2330   73.1440  219.7840 C   0  0  0  0  0  0  0  0  0  0  0  0
  143.8940   73.8180  220.8320 C   0  0  0  0  0  0  0  0  0  0  0  0
  145.2060   73.5860  221.1440 C   0  0  0  0  0  0  0  0  0  0  0  0
  145.9510   72.6670  220.4340 C   0  0  0  0  0  0  0  0  0  0  0  0
  145.3300   72.0040  219.4170 C   0  0  0  0  0  0  0  0  0  0  0  0
  146.0530   71.0620  218.6710 O   0  0  0  0  0  0  0  0  0  0  0  0
  145.7940   69.6740  218.8720 C   0  0  0  0  0  0  0  0  0  0  0  0
  145.7150   68.9870  217.6780 F   0  0  0  0  0  0  0  0  0  0  0  0
  144.6010   69.6090  219.5740 F   0  0  0  0  0  0  0  0  0  0  0  0
  146.7830   69.1980  219.7000 F   0  0  0  0  0  0  0  0  0  0  0  0
  143.9970   72.2450  219.1070 C   0  0  0  0  0  0  0  0  0  0  0  0
  142.4841   78.2556  219.6078 H   0  0  0  0  0  0  0  0  0  0  0  0
  141.8201   80.1982  221.0362 H   0  0  0  0  0  0  0  0  0  0  0  0
  140.4187   79.8004  223.0196 H   0  0  0  0  0  0  0  0  0  0  0  0
  139.6435   77.5380  223.6589 H   0  0  0  0  0  0  0  0  0  0  0  0
  138.9068   73.1047  222.0575 H   0  0  0  0  0  0  0  0  0  0  0  0
  141.0673   71.3452  221.6946 H   0  0  0  0  0  0  0  0  0  0  0  0
  139.3492   69.5523  223.6057 H   0  0  0  0  0  0  0  0  0  0  0  0
  139.5570   69.4791  226.3036 H   0  0  0  0  0  0  0  0  0  0  0  0
  141.2149   72.5590  219.7349 H   0  0  0  0  0  0  0  0  0  0  0  0
  141.7072   73.8417  218.5407 H   0  0  0  0  0  0  0  0  0  0  0  0
  143.3333   74.5586  221.4211 H   0  0  0  0  0  0  0  0  0  0  0  0
  145.6730   74.1396  221.9719 H   0  0  0  0  0  0  0  0  0  0  0  0
  147.0063   72.4763  220.6791 H   0  0  0  0  0  0  0  0  0  0  0  0
  143.5399   71.6845  218.2782 H   0  0  0  0  0  0  0  0  0  0  0  0
  1  2  2  0
  2  3  1  0
  3  4  2  0
  4  5  1  0
  5  6  2  0
  6  7  1  0
  7  8  2  0
  8  9  1  0
  9 10  2  0
 10 11  1  0
 11 12  2  0
 12 13  1  0
 13 14  2  0
 14 15  1  0
 15 16  2  0
 16 17  1  0
 17 18  2  0
 17 19  1  0
 16 20  1  0
 10 21  1  0
 21 22  1  0
 22 23  1  0
 23 24  2  0
 24 25  1  0
 25 26  2  0
 26 27  1  0
 27 28  1  0
 28 29  1  0
 29 30  1  0
 29 31  1  0
 29 32  1  0
 27 33  2  0
 21  2  1  0
 33 23  1  0
  8  3  1  0
 20 13  1  0
  4 34  1  0
  5 35  1  0
  6 36  1  0
  7 37  1  0
 11 38  1  0
 12 39  1  0
 14 40  1  0
 15 41  1  0
 22 42  1  0
 22 43  1  0
 24 44  1  0
 25 45  1  0
 26 46  1  0
 33 47  1  0
M  CHG  2  17   1  19  -1
M  END
>  <smiles>  (17) 
O=c1c2ccccc2nc(/C=C/c2ccc([N+](=O)[O-])o2)n1Cc1cccc(OC(F)(F)F)c1

>  <score_type>  (17) 
oracle

>  <origin>  (17) 
autodockgpu

>  <m_score__min__energy>  (17) 
-8.2599999999999998

>  <m_primary>  (17) 
energy

>  <meeko>  (17) 
{"free_energy": -7.8, "intermolecular_energy": -10.19, "internal_energy": -1.19, "cluster_size": 1, "cluster_id": 3, "rank_in_cluster": 1}

>  <energy>  (17) 
-7.27

>  <cluster_rmsd>  (17) 
0.0

>  <rmsd>  (17) 
269.78

>  <cluster>  (17) 
6

$$$$

     RDKit          3D

 47 50  0  0  0  0  0  0  0  0999 V2000
  138.8270   67.7080  225.5520 O   0  0  0  0  0  0  0  0  0  0  0  0
  139.0860   68.9220  225.4060 C   0  0  0  0  0  0  0  0  0  0  0  0
  139.8610   69.5240  226.3700 C   0  0  0  0  0  0  0  0  0  0  0  0
  140.3190   68.8090  227.4350 C   0  0  0  0  0  0  0  0  0  0  0  0
  141.0890   69.4600  228.3710 C   0  0  0  0  0  0  0  0  0  0  0  0
  141.3610   70.7990  228.1850 C   0  0  0  0  0  0  0  0  0  0  0  0
  140.9010   71.5280  227.1090 C   0  0  0  0  0  0  0  0  0  0  0  0
  140.1320   70.8560  226.1860 C   0  0  0  0  0  0  0  0  0  0  0  0
  139.6670   71.4840  225.1490 N   0  0  0  0  0  0  0  0  0  0  0  0
  138.8910   70.9240  224.1650 C   0  0  0  0  0  0  0  0  0  0  0  0
  138.5380   71.7970  223.0920 C   0  0  0  0  0  0  0  0  0  0  0  0
  137.4420   71.9690  222.4240 C   0  0  0  0  0  0  0  0  0  0  0  0
  136.2240   72.5290  223.0470 C   0  0  0  0  0  0  0  0  0  0  0  0
  134.9060   72.3080  222.6340 C   0  0  0  0  0  0  0  0  0  0  0  0
  134.0740   73.0130  223.4850 C   0  0  0  0  0  0  0  0  0  0  0  0
  134.9420   73.6330  224.3790 C   0  0  0  0  0  0  0  0  0  0  0  0
  134.5100   74.4810  225.4530 N   0  0  0  0  0  0  0  0  0  0  0  0
  133.9950   73.9720  226.4660 O   0  0  0  0  0  0  0  0  0  0  0  0
  134.6840   75.8410  225.3230 O   0  0  0  0  0  0  0  0  0  0  0  0
  136.1640   73.3240  224.0860 O   0  0  0  0  0  0  0  0  0  0  0  0
  138.6140   69.6340  224.3200 N   0  0  0  0  0  0  0  0  0  0  0  0
  137.7970   68.8400  223.4280 C   0  0  0  0  0  0  0  0  0  0  0  0
  136.3650   68.9010  223.7660 C   0  0  0  0  0  0  0  0  0  0  0  0
  135.4490   68.6360  222.7280 C   0  0  0  0  0  0  0  0  0  0  0  0
  134.0950   68.6400  222.9240 C   0  0  0  0  0  0  0  0  0  0  0  0
  133.5590   68.9080  224.1670 C   0  0  0  0  0  0  0  0  0  0  0  0
  134.4290   69.1670  225.1840 C   0  0  0  0  0  0  0  0  0  0  0  0
  133.9240   69.4450  226.4630 O   0  0  0  0  0  0  0  0  0  0  0  0
  133.9180   70.7930  226.9270 C   0  0  0  0  0  0  0  0  0  0  0  0
  134.6920   71.6140  226.1340 F   0  0  0  0  0  0  0  0  0  0  0  0
  134.3950   70.7480  228.2270 F   0  0  0  0  0  0  0  0  0  0  0  0
  132.6030   71.1890  226.9860 F   0  0  0  0  0  0  0  0  0  0  0  0
  135.8030   69.1610  224.9770 C   0  0  0  0  0  0  0  0  0  0  0  0
  140.0799   67.7408  227.5437 H   0  0  0  0  0  0  0  0  0  0  0  0
  141.4792   68.9240  229.2487 H   0  0  0  0  0  0  0  0  0  0  0  0
  141.9785   71.3135  228.9360 H   0  0  0  0  0  0  0  0  0  0  0  0
  141.1373   72.5961  226.9935 H   0  0  0  0  0  0  0  0  0  0  0  0
  139.3594   72.4533  222.7687 H   0  0  0  0  0  0  0  0  0  0  0  0
  137.4166   71.6898  221.3603 H   0  0  0  0  0  0  0  0  0  0  0  0
  134.5881   71.6853  221.7848 H   0  0  0  0  0  0  0  0  0  0  0  0
  132.9758   73.0705  223.4607 H   0  0  0  0  0  0  0  0  0  0  0  0
  137.9328   69.2115  222.4016 H   0  0  0  0  0  0  0  0  0  0  0  0
  138.1180   67.7925  223.5263 H   0  0  0  0  0  0  0  0  0  0  0  0
  135.8375   68.4177  221.7223 H   0  0  0  0  0  0  0  0  0  0  0  0
  133.4241   68.4266  222.0788 H   0  0  0  0  0  0  0  0  0  0  0  0
  132.4713   68.9125  224.3309 H   0  0  0  0  0  0  0  0  0  0  0  0
  136.4646   69.3758  225.8291 H   0  0  0  0  0  0  0  0  0  0  0  0
  1  2  2  0
  2  3  1  0
  3  4  2  0
  4  5  1  0
  5  6  2  0
  6  7  1  0
  7  8  2  0
  8  9  1  0
  9 10  2  0
 10 11  1  0
 11 12  2  0
 12 13  1  0
 13 14  2  0
 14 15  1  0
 15 16  2  0
 16 17  1  0
 17 18  2  0
 17 19  1  0
 16 20  1  0
 10 21  1  0
 21 22  1  0
 22 23  1  0
 23 24  2  0
 24 25  1  0
 25 26  2  0
 26 27  1  0
 27 28  1  0
 28 29  1  0
 29 30  1  0
 29 31  1  0
 29 32  1  0
 27 33  2  0
 21  2  1  0
 33 23  1  0
  8  3  1  0
 20 13  1  0
  4 34  1  0
  5 35  1  0
  6 36  1  0
  7 37  1  0
 11 38  1  0
 12 39  1  0
 14 40  1  0
 15 41  1  0
 22 42  1  0
 22 43  1  0
 24 44  1  0
 25 45  1  0
 26 46  1  0
 33 47  1  0
M  CHG  2  17   1  19  -1
M  END
>  <smiles>  (18) 
O=c1c2ccccc2nc(/C=C/c2ccc([N+](=O)[O-])o2)n1Cc1cccc(OC(F)(F)F)c1

>  <score_type>  (18) 
oracle

>  <origin>  (18) 
autodockgpu

>  <m_score__min__energy>  (18) 
-8.2599999999999998

>  <m_primary>  (18) 
energy

>  <meeko>  (18) 
{"free_energy": -7.23, "intermolecular_energy": -9.61, "internal_energy": -2.27, "cluster_size": 8, "cluster_id": 4, "rank_in_cluster": 6}

>  <energy>  (18) 
-7.06

>  <cluster_rmsd>  (18) 
0.0

>  <rmsd>  (18) 
268.0

>  <cluster>  (18) 
7

$$$$

     RDKit          3D

 47 50  0  0  0  0  0  0  0  0999 V2000
  141.0760   76.1250  222.4130 O   0  0  0  0  0  0  0  0  0  0  0  0
  141.3010   77.0330  221.5850 C   0  0  0  0  0  0  0  0  0  0  0  0
  141.4510   78.3100  222.0730 C   0  0  0  0  0  0  0  0  0  0  0  0
  141.3540   78.5570  223.4100 C   0  0  0  0  0  0  0  0  0  0  0  0
  141.5110   79.8520  223.8440 C   0  0  0  0  0  0  0  0  0  0  0  0
  141.7600   80.8350  222.9110 C   0  0  0  0  0  0  0  0  0  0  0  0
  141.8600   80.5930  221.5570 C   0  0  0  0  0  0  0  0  0  0  0  0
  141.6990   79.2900  221.1450 C   0  0  0  0  0  0  0  0  0  0  0  0
  141.7810   78.9930  219.8830 N   0  0  0  0  0  0  0  0  0  0  0  0
  141.6380   77.7350  219.3530 C   0  0  0  0  0  0  0  0  0  0  0  0
  141.8200   77.6410  217.9400 C   0  0  0  0  0  0  0  0  0  0  0  0
  142.8680   77.7140  217.1840 C   0  0  0  0  0  0  0  0  0  0  0  0
  143.6390   76.5140  216.7940 C   0  0  0  0  0  0  0  0  0  0  0  0
  144.4590   76.3860  215.6680 C   0  0  0  0  0  0  0  0  0  0  0  0
  144.9910   75.1090  215.6780 C   0  0  0  0  0  0  0  0  0  0  0  0
  144.4600   74.5240  216.8230 C   0  0  0  0  0  0  0  0  0  0  0  0
  144.7440   73.1800  217.2380 N   0  0  0  0  0  0  0  0  0  0  0  0
  143.8990   72.2870  217.0440 O   0  0  0  0  0  0  0  0  0  0  0  0
  145.9550   72.9250  217.8430 O   0  0  0  0  0  0  0  0  0  0  0  0
  143.6910   75.3700  217.4290 O   0  0  0  0  0  0  0  0  0  0  0  0
  141.3970   76.7680  220.2330 N   0  0  0  0  0  0  0  0  0  0  0  0
  141.1860   75.3740  219.9070 C   0  0  0  0  0  0  0  0  0  0  0  0
  142.3830   74.5490  220.1460 C   0  0  0  0  0  0  0  0  0  0  0  0
  143.6200   75.2220  220.2310 C   0  0  0  0  0  0  0  0  0  0  0  0
  144.7970   74.5680  220.4720 C   0  0  0  0  0  0  0  0  0  0  0  0
  144.8250   73.2000  220.6460 C   0  0  0  0  0  0  0  0  0  0  0  0
  143.6390   72.5320  220.5670 C   0  0  0  0  0  0  0  0  0  0  0  0
  143.6260   71.1390  220.7380 O   0  0  0  0  0  0  0  0  0  0  0  0
  143.9490   70.3020  219.6290 C   0  0  0  0  0  0  0  0  0  0  0  0
  142.9830   70.3560  218.6450 F   0  0  0  0  0  0  0  0  0  0  0  0
  144.0750   69.0220  220.1460 F   0  0  0  0  0  0  0  0  0  0  0  0
  145.1900   70.6900  219.1840 F   0  0  0  0  0  0  0  0  0  0  0  0
  142.4480   73.2020  220.3220 C   0  0  0  0  0  0  0  0  0  0  0  0
  141.1555   77.7425  224.1222 H   0  0  0  0  0  0  0  0  0  0  0  0
  141.4394   80.0983  224.9137 H   0  0  0  0  0  0  0  0  0  0  0  0
  141.8858   81.8687  223.2654 H   0  0  0  0  0  0  0  0  0  0  0  0
  142.0591   81.4033  220.8402 H   0  0  0  0  0  0  0  0  0  0  0  0
  140.8855   77.4736  217.3845 H   0  0  0  0  0  0  0  0  0  0  0  0
  143.1953   78.6992  216.8203 H   0  0  0  0  0  0  0  0  0  0  0  0
  144.6470   77.1613  214.9107 H   0  0  0  0  0  0  0  0  0  0  0  0
  145.6780   74.6584  214.9465 H   0  0  0  0  0  0  0  0  0  0  0  0
  140.3627   74.9881  220.5261 H   0  0  0  0  0  0  0  0  0  0  0  0
  140.9492   75.3147  218.8344 H   0  0  0  0  0  0  0  0  0  0  0  0
  143.6387   76.3138  220.0985 H   0  0  0  0  0  0  0  0  0  0  0  0
  145.7343   75.1411  220.5278 H   0  0  0  0  0  0  0  0  0  0  0  0
  145.7680   72.6683  220.8410 H   0  0  0  0  0  0  0  0  0  0  0  0
  141.5171   72.6184  220.2679 H   0  0  0  0  0  0  0  0  0  0  0  0
  1  2  2  0
  2  3  1  0
  3  4  2  0
  4  5  1  0
  5  6  2  0
  6  7  1  0
  7  8  2  0
  8  9  1  0
  9 10  2  0
 10 11  1  0
 11 12  2  0
 12 13  1  0
 13 14  2  0
 14 15  1  0
 15 16  2  0
 16 17  1  0
 17 18  2  0
 17 19  1  0
 16 20  1  0
 10 21  1  0
 21 22  1  0
 22 23  1  0
 23 24  2  0
 24 25  1  0
 25 26  2  0
 26 27  1  0
 27 28  1  0
 28 29  1  0
 29 30  1  0
 29 31  1  0
 29 32  1  0
 27 33  2  0
 21  2  1  0
 33 23  1  0
  8  3  1  0
 20 13  1  0
  4 34  1  0
  5 35  1  0
  6 36  1  0
  7 37  1  0
 11 38  1  0
 12 39  1  0
 14 40  1  0
 15 41  1  0
 22 42  1  0
 22 43  1  0
 24 44  1  0
 25 45  1  0
 26 46  1  0
 33 47  1  0
M  CHG  2  17   1  19  -1
M  END
>  <smiles>  (19) 
O=c1c2ccccc2nc(/C=C/c2ccc([N+](=O)[O-])o2)n1Cc1cccc(OC(F)(F)F)c1

>  <score_type>  (19) 
oracle

>  <origin>  (19) 
autodockgpu

>  <m_score__min__energy>  (19) 
-8.2599999999999998

>  <m_primary>  (19) 
energy

>  <meeko>  (19) 
{"free_energy": -6.2, "intermolecular_energy": -8.59, "internal_energy": -2.46, "cluster_size": 1, "cluster_id": 8, "rank_in_cluster": 1}

>  <energy>  (19) 
-6.8

>  <cluster_rmsd>  (19) 
0.88

>  <rmsd>  (19) 
267.85

>  <cluster>  (19) 
7

$$$$

     RDKit          3D

 47 50  0  0  0  0  0  0  0  0999 V2000
  138.6930   67.9460  225.6820 O   0  0  0  0  0  0  0  0  0  0  0  0
  139.0290   69.1060  225.3650 C   0  0  0  0  0  0  0  0  0  0  0  0
  139.8010   69.8080  226.2620 C   0  0  0  0  0  0  0  0  0  0  0  0
  140.1740   69.2440  227.4450 C   0  0  0  0  0  0  0  0  0  0  0  0
  140.9440   69.9900  228.3060 C   0  0  0  0  0  0  0  0  0  0  0  0
  141.3020   71.2680  227.9320 C   0  0  0  0  0  0  0  0  0  0  0  0
  140.9300   71.8450  226.7360 C   0  0  0  0  0  0  0  0  0  0  0  0
  140.1590   71.0800  225.8910 C   0  0  0  0  0  0  0  0  0  0  0  0
  139.7730   71.5640  224.7480 N   0  0  0  0  0  0  0  0  0  0  0  0
  139.0040   70.9000  223.8250 C   0  0  0  0  0  0  0  0  0  0  0  0
  138.7460   71.6140  222.6160 C   0  0  0  0  0  0  0  0  0  0  0  0
  137.9660   72.6080  222.3330 C   0  0  0  0  0  0  0  0  0  0  0  0
  136.5870   72.6970  222.8570 C   0  0  0  0  0  0  0  0  0  0  0  0
  135.5130   71.8720  222.5060 C   0  0  0  0  0  0  0  0  0  0  0  0
  134.4070   72.2930  223.2240 C   0  0  0  0  0  0  0  0  0  0  0  0
  134.8750   73.3630  223.9810 C   0  0  0  0  0  0  0  0  0  0  0  0
  134.0590   74.1180  224.8870 N   0  0  0  0  0  0  0  0  0  0  0  0
  133.1410   74.8290  224.4380 O   0  0  0  0  0  0  0  0  0  0  0  0
  134.3230   74.0260  226.2360 O   0  0  0  0  0  0  0  0  0  0  0  0
  136.1310   73.5550  223.7350 O   0  0  0  0  0  0  0  0  0  0  0  0
  138.6440   69.6660  224.1620 N   0  0  0  0  0  0  0  0  0  0  0  0
  137.8170   68.7880  223.3630 C   0  0  0  0  0  0  0  0  0  0  0  0
  136.3940   68.8540  223.7390 C   0  0  0  0  0  0  0  0  0  0  0  0
  135.4500   68.6010  222.7230 C   0  0  0  0  0  0  0  0  0  0  0  0
  134.1010   68.6100  222.9540 C   0  0  0  0  0  0  0  0  0  0  0  0
  133.5990   68.8710  224.2120 C   0  0  0  0  0  0  0  0  0  0  0  0
  134.4970   69.1180  225.2080 C   0  0  0  0  0  0  0  0  0  0  0  0
  134.0260   69.3880  226.5020 O   0  0  0  0  0  0  0  0  0  0  0  0
  133.9740   70.7410  226.9510 C   0  0  0  0  0  0  0  0  0  0  0  0
  134.4240   70.8700  228.2490 F   0  0  0  0  0  0  0  0  0  0  0  0
  132.6480   71.1270  226.8340 F   0  0  0  0  0  0  0  0  0  0  0  0
  134.6990   71.4890  226.0550 F   0  0  0  0  0  0  0  0  0  0  0  0
  135.8650   69.1070  224.9660 C   0  0  0  0  0  0  0  0  0  0  0  0
  139.8675   68.2199  227.7042 H   0  0  0  0  0  0  0  0  0  0  0  0
  141.2675   69.5761  229.2725 H   0  0  0  0  0  0  0  0  0  0  0  0
  141.9179   71.8595  228.6254 H   0  0  0  0  0  0  0  0  0  0  0  0
  141.2350   72.8679  226.4701 H   0  0  0  0  0  0  0  0  0  0  0  0
  139.3239   71.2473  221.7549 H   0  0  0  0  0  0  0  0  0  0  0  0
  138.3415   73.4114  221.6822 H   0  0  0  0  0  0  0  0  0  0  0  0
  135.5422   71.0387  221.7885 H   0  0  0  0  0  0  0  0  0  0  0  0
  133.3892   71.8764  223.2014 H   0  0  0  0  0  0  0  0  0  0  0  0
  137.9160   69.0759  222.3060 H   0  0  0  0  0  0  0  0  0  0  0  0
  138.1603   67.7574  223.5362 H   0  0  0  0  0  0  0  0  0  0  0  0
  135.8113   68.3883  221.7060 H   0  0  0  0  0  0  0  0  0  0  0  0
  133.4074   68.4063  222.1249 H   0  0  0  0  0  0  0  0  0  0  0  0
  132.5160   68.8796  224.4044 H   0  0  0  0  0  0  0  0  0  0  0  0
  136.5494   69.3117  225.8025 H   0  0  0  0  0  0  0  0  0  0  0  0
  1  2  2  0
  2  3  1  0
  3  4  2  0
  4  5  1  0
  5  6  2  0
  6  7  1  0
  7  8  2  0
  8  9  1  0
  9 10  2  0
 10 11  1  0
 11 12  2  0
 12 13  1  0
 13 14  2  0
 14 15  1  0
 15 16  2  0
 16 17  1  0
 17 18  2  0
 17 19  1  0
 16 20  1  0
 10 21  1  0
 21 22  1  0
 22 23  1  0
 23 24  2  0
 24 25  1  0
 25 26  2  0
 26 27  1  0
 27 28  1  0
 28 29  1  0
 29 30  1  0
 29 31  1  0
 29 32  1  0
 27 33  2  0
 21  2  1  0
 33 23  1  0
  8  3  1  0
 20 13  1  0
  4 34  1  0
  5 35  1  0
  6 36  1  0
  7 37  1  0
 11 38  1  0
 12 39  1  0
 14 40  1  0
 15 41  1  0
 22 42  1  0
 22 43  1  0
 24 44  1  0
 25 45  1  0
 26 46  1  0
 33 47  1  0
M  CHG  2  17   1  19  -1
M  END
>  <smiles>  (20) 
O=c1c2ccccc2nc(/C=C/c2ccc([N+](=O)[O-])o2)n1Cc1cccc(OC(F)(F)F)c1

>  <score_type>  (20) 
oracle

>  <origin>  (20) 
autodockgpu

>  <m_score__min__energy>  (20) 
-8.2599999999999998

>  <m_primary>  (20) 
energy

>  <meeko>  (20) 
{"free_energy": -6.78, "intermolecular_energy": -9.17, "internal_energy": -2.3, "cluster_size": 8, "cluster_id": 4, "rank_in_cluster": 7}

>  <energy>  (20) 
-6.2

>  <cluster_rmsd>  (20) 
0.0

>  <rmsd>  (20) 
268.21

>  <cluster>  (20) 
8

$$$$
