
     RDKit          3D

 48 51  0  0  0  0  0  0  0  0999 V2000
  140.0210   72.0510  220.7500 O   0  0  0  0  0  0  0  0  0  0  0  0
  139.6680   72.4240  221.9150 C   0  0  0  0  0  0  0  0  0  0  0  0
  139.1310   73.7240  222.0960 N   0  0  0  0  0  0  0  0  0  0  0  0
  138.9650   74.6640  220.9800 C   0  0  0  0  0  0  0  0  0  0  0  0
  139.1860   76.0410  221.4070 C   0  0  0  0  0  0  0  0  0  0  0  0
  138.3960   76.5040  222.2970 O   0  0  0  0  0  0  0  0  0  0  0  0
  140.1800   76.9310  220.9460 N   0  0  0  0  0  0  0  0  0  0  0  0
  140.2660   77.2620  219.5030 C   0  0  0  0  0  0  0  0  0  0  0  0
  141.1510   78.4590  219.4000 C   0  0  2  0  0  0  0  0  0  0  0  0
  142.4370   78.0250  219.1040 F   0  0  0  0  0  0  0  0  0  0  0  0
  141.1590   79.0060  220.8120 C   0  0  0  0  0  0  0  0  0  0  0  0
  141.2220   77.6750  221.5830 C   0  0  1  0  0  0  0  0  0  0  0  0
  141.0820   77.9040  223.0480 C   0  0  0  0  0  0  0  0  0  0  0  0
  141.6620   79.2390  223.3040 N   0  0  0  0  0  0  0  0  0  0  0  0
  140.9630   80.3390  223.6890 C   0  0  0  0  0  0  0  0  0  0  0  0
  141.8920   81.3560  223.8120 C   0  0  0  0  0  0  0  0  0  0  0  0
  143.1360   80.8480  223.4980 C   0  0  0  0  0  0  0  0  0  0  0  0
  142.9460   79.5490  223.1940 N   0  0  0  0  0  0  0  0  0  0  0  0
  139.8110   71.5290  223.0600 C   0  0  0  0  0  0  0  0  0  0  0  0
  139.4090   70.2110  222.9360 C   0  0  0  0  0  0  0  0  0  0  0  0
  139.5060   69.2950  223.9640 C   0  0  0  0  0  0  0  0  0  0  0  0
  140.0300   69.7340  225.1590 C   0  0  0  0  0  0  0  0  0  0  0  0
  140.1480   68.8570  226.2170 C   0  0  0  0  0  0  0  0  0  0  0  0
  140.6750   69.3140  227.4080 C   0  0  0  0  0  0  0  0  0  0  0  0
  140.8180   68.1750  228.7500 Cl  0  0  0  0  0  0  0  0  0  0  0  0
  141.0740   70.6290  227.5280 C   0  0  0  0  0  0  0  0  0  0  0  0
  140.9460   71.4830  226.4580 C   0  0  0  0  0  0  0  0  0  0  0  0
  140.4220   71.0530  225.2540 C   0  0  0  0  0  0  0  0  0  0  0  0
  140.3170   71.9260  224.2380 N   0  0  0  0  0  0  0  0  0  0  0  0
  138.8530   73.9850  223.0750 H   0  0  0  0  0  0  0  0  0  0  0  0
  139.6887   74.4136  220.1904 H   0  0  0  0  0  0  0  0  0  0  0  0
  137.9341   74.5787  220.6058 H   0  0  0  0  0  0  0  0  0  0  0  0
  140.6987   76.4192  218.9440 H   0  0  0  0  0  0  0  0  0  0  0  0
  139.2711   77.4626  219.0788 H   0  0  0  0  0  0  0  0  0  0  0  0
  140.8254   79.1849  218.6403 H   0  0  0  0  0  0  0  0  0  0  0  0
  142.0390   79.6371  221.0053 H   0  0  0  0  0  0  0  0  0  0  0  0
  140.3160   79.6638  221.0702 H   0  0  0  0  0  0  0  0  0  0  0  0
  142.1742   77.1258  221.5418 H   0  0  0  0  0  0  0  0  0  0  0  0
  140.0214   77.8849  223.3391 H   0  0  0  0  0  0  0  0  0  0  0  0
  141.5919   77.1225  223.6305 H   0  0  0  0  0  0  0  0  0  0  0  0
  139.8795   80.4066  223.8665 H   0  0  0  0  0  0  0  0  0  0  0  0
  141.6762   82.3928  224.1093 H   0  0  0  0  0  0  0  0  0  0  0  0
  144.0910   81.3938  223.4962 H   0  0  0  0  0  0  0  0  0  0  0  0
  138.9929   69.8777  221.9738 H   0  0  0  0  0  0  0  0  0  0  0  0
  139.1770   68.2535  223.8334 H   0  0  0  0  0  0  0  0  0  0  0  0
  139.8272   67.8100  226.1132 H   0  0  0  0  0  0  0  0  0  0  0  0
  141.4935   70.9935  228.4773 H   0  0  0  0  0  0  0  0  0  0  0  0
  141.2673   72.5298  226.5626 H   0  0  0  0  0  0  0  0  0  0  0  0
  1  2  2  0
  2  3  1  0
  3  4  1  0
  4  5  1  0
  5  6  2  0
  5  7  1  0
  7  8  1  0
  8  9  1  0
  9 10  1  0
  9 11  1  0
 11 12  1  0
 12 13  1  0
 13 14  1  0
 14 15  1  0
 15 16  2  0
 16 17  1  0
 17 18  2  0
  2 19  1  0
 19 20  2  0
 20 21  1  0
 21 22  2  0
 22 23  1  0
 23 24  2  0
 24 25  1  0
 24 26  1  0
 26 27  2  0
 27 28  1  0
 28 29  2  0
 12  7  1  0
 18 14  1  0
 29 19  1  0
 28 22  1  0
  3 30  1  0
  4 31  1  0
  4 32  1  0
  8 33  1  0
  8 34  1  0
  9 35  1  6
 11 36  1  0
 11 37  1  0
 12 38  1  1
 13 39  1  0
 13 40  1  0
 15 41  1  0
 16 42  1  0
 17 43  1  0
 20 44  1  0
 21 45  1  0
 23 46  1  0
 26 47  1  0
 27 48  1  0
M  END
>  <smiles>  (1) 
O=C(NCC(=O)N1C[C@H](F)C[C@H]1Cn1cccn1)c1ccc2cc(Cl)ccc2n1

>  <score_type>  (1) 
oracle

>  <origin>  (1) 
autodockgpu

>  <m_score__min__energy>  (1) 
-8.2300000000000004

>  <m_primary>  (1) 
energy

>  <meeko>  (1) 
{"free_energy": -7.96, "intermolecular_energy": -9.75, "internal_energy": -1.3, "cluster_size": 14, "cluster_id": 1, "rank_in_cluster": 5}

>  <energy>  (1) 
-8.23

>  <cluster_rmsd>  (1) 
0.0

>  <rmsd>  (1) 
271.93

>  <cluster>  (1) 
1

$$$$

     RDKit          3D

 48 51  0  0  0  0  0  0  0  0999 V2000
  139.2970   71.9650  220.8420 O   0  0  0  0  0  0  0  0  0  0  0  0
  139.4520   72.4240  222.0180 C   0  0  0  0  0  0  0  0  0  0  0  0
  139.4200   73.8260  222.2270 N   0  0  0  0  0  0  0  0  0  0  0  0
  139.2130   74.7770  221.1270 C   0  0  0  0  0  0  0  0  0  0  0  0
  139.5680   76.1350  221.5230 C   0  0  0  0  0  0  0  0  0  0  0  0
  139.9970   76.2970  222.7150 O   0  0  0  0  0  0  0  0  0  0  0  0
  139.4920   77.3030  220.7350 N   0  0  0  0  0  0  0  0  0  0  0  0
  138.1710   77.8890  220.4050 C   0  0  0  0  0  0  0  0  0  0  0  0
  138.4390   79.2640  219.8880 C   0  0  2  0  0  0  0  0  0  0  0  0
  138.4630   79.2100  218.5000 F   0  0  0  0  0  0  0  0  0  0  0  0
  139.8470   79.5440  220.3670 C   0  0  0  0  0  0  0  0  0  0  0  0
  140.4640   78.1550  220.1220 C   0  0  1  0  0  0  0  0  0  0  0  0
  141.8500   78.0870  220.6620 C   0  0  0  0  0  0  0  0  0  0  0  0
  141.8730   78.9950  221.8280 N   0  0  0  0  0  0  0  0  0  0  0  0
  141.4880   78.6660  223.0880 C   0  0  0  0  0  0  0  0  0  0  0  0
  141.6730   79.8040  223.8520 C   0  0  0  0  0  0  0  0  0  0  0  0
  142.1680   80.7990  223.0350 C   0  0  0  0  0  0  0  0  0  0  0  0
  142.2740   80.2590  221.8060 N   0  0  0  0  0  0  0  0  0  0  0  0
  139.6610   71.5240  223.1500 C   0  0  0  0  0  0  0  0  0  0  0  0
  139.3050   70.1930  223.0230 C   0  0  0  0  0  0  0  0  0  0  0  0
  139.4650   69.2720  224.0370 C   0  0  0  0  0  0  0  0  0  0  0  0
  140.0070   69.7180  225.2210 C   0  0  0  0  0  0  0  0  0  0  0  0
  140.1890   68.8360  226.2660 C   0  0  0  0  0  0  0  0  0  0  0  0
  140.7340   69.3000  227.4460 C   0  0  0  0  0  0  0  0  0  0  0  0
  140.9580   68.1550  228.7710 Cl  0  0  0  0  0  0  0  0  0  0  0  0
  141.0890   70.6280  227.5690 C   0  0  0  0  0  0  0  0  0  0  0  0
  140.8970   71.4870  226.5110 C   0  0  0  0  0  0  0  0  0  0  0  0
  140.3540   71.0490  225.3190 C   0  0  0  0  0  0  0  0  0  0  0  0
  140.1880   71.9280  224.3170 N   0  0  0  0  0  0  0  0  0  0  0  0
  139.5520   74.1580  223.2160 H   0  0  0  0  0  0  0  0  0  0  0  0
  139.8388   74.4782  220.2731 H   0  0  0  0  0  0  0  0  0  0  0  0
  138.1475   74.7636  220.8540 H   0  0  0  0  0  0  0  0  0  0  0  0
  137.6677   77.2845  219.6361 H   0  0  0  0  0  0  0  0  0  0  0  0
  137.5139   77.9148  221.2868 H   0  0  0  0  0  0  0  0  0  0  0  0
  137.6988   80.0104  220.2121 H   0  0  0  0  0  0  0  0  0  0  0  0
  140.3387   80.3253  219.7688 H   0  0  0  0  0  0  0  0  0  0  0  0
  139.9304   79.9244  221.3958 H   0  0  0  0  0  0  0  0  0  0  0  0
  140.6289   77.8670  219.0733 H   0  0  0  0  0  0  0  0  0  0  0  0
  142.0903   77.0593  220.9720 H   0  0  0  0  0  0  0  0  0  0  0  0
  142.5937   78.3797  219.9062 H   0  0  0  0  0  0  0  0  0  0  0  0
  141.1068   77.6929  223.4311 H   0  0  0  0  0  0  0  0  0  0  0  0
  141.4615   79.8993  224.9273 H   0  0  0  0  0  0  0  0  0  0  0  0
  142.4247   81.8275  223.3286 H   0  0  0  0  0  0  0  0  0  0  0  0
  138.8745   69.8538  222.0693 H   0  0  0  0  0  0  0  0  0  0  0  0
  139.1705   68.2205  223.9045 H   0  0  0  0  0  0  0  0  0  0  0  0
  139.9040   67.7788  226.1604 H   0  0  0  0  0  0  0  0  0  0  0  0
  141.5238   70.9985  228.5091 H   0  0  0  0  0  0  0  0  0  0  0  0
  141.1819   72.5442  226.6169 H   0  0  0  0  0  0  0  0  0  0  0  0
  1  2  2  0
  2  3  1  0
  3  4  1  0
  4  5  1  0
  5  6  2  0
  5  7  1  0
  7  8  1  0
  8  9  1  0
  9 10  1  0
  9 11  1  0
 11 12  1  0
 12 13  1  0
 13 14  1  0
 14 15  1  0
 15 16  2  0
 16 17  1  0
 17 18  2  0
  2 19  1  0
 19 20  2  0
 20 21  1  0
 21 22  2  0
 22 23  1  0
 23 24  2  0
 24 25  1  0
 24 26  1  0
 26 27  2  0
 27 28  1  0
 28 29  2  0
 12  7  1  0
 18 14  1  0
 29 19  1  0
 28 22  1  0
  3 30  1  0
  4 31  1  0
  4 32  1  0
  8 33  1  0
  8 34  1  0
  9 35  1  6
 11 36  1  0
 11 37  1  0
 12 38  1  6
 13 39  1  0
 13 40  1  0
 15 41  1  0
 16 42  1  0
 17 43  1  0
 20 44  1  0
 21 45  1  0
 23 46  1  0
 26 47  1  0
 27 48  1  0
M  END
>  <smiles>  (2) 
O=C(NCC(=O)N1C[C@H](F)C[C@H]1Cn1cccn1)c1ccc2cc(Cl)ccc2n1

>  <score_type>  (2) 
oracle

>  <origin>  (2) 
autodockgpu

>  <m_score__min__energy>  (2) 
-8.2300000000000004

>  <m_primary>  (2) 
energy

>  <meeko>  (2) 
{"free_energy": -7.39, "intermolecular_energy": -9.18, "internal_energy": -1.96, "cluster_size": 14, "cluster_id": 1, "rank_in_cluster": 13}

>  <energy>  (2) 
-8.15

>  <cluster_rmsd>  (2) 
0.64

>  <rmsd>  (2) 
272.04

>  <cluster>  (2) 
1

$$$$

     RDKit          3D

 48 51  0  0  0  0  0  0  0  0999 V2000
  139.8980   72.1550  220.7790 O   0  0  0  0  0  0  0  0  0  0  0  0
  139.8180   72.5830  221.9750 C   0  0  0  0  0  0  0  0  0  0  0  0
  139.6290   73.9690  222.2070 N   0  0  0  0  0  0  0  0  0  0  0  0
  139.5210   74.9380  221.1080 C   0  0  0  0  0  0  0  0  0  0  0  0
  140.0510   76.2420  221.4950 C   0  0  0  0  0  0  0  0  0  0  0  0
  139.8700   76.6040  222.7050 O   0  0  0  0  0  0  0  0  0  0  0  0
  140.7480   77.1580  220.6780 N   0  0  0  0  0  0  0  0  0  0  0  0
  141.2340   76.7380  219.3420 C   0  0  0  0  0  0  0  0  0  0  0  0
  141.5930   77.9900  218.6130 C   0  0  2  0  0  0  0  0  0  0  0  0
  142.9600   78.1970  218.7510 F   0  0  0  0  0  0  0  0  0  0  0  0
  140.8790   79.0660  219.4030 C   0  0  0  0  0  0  0  0  0  0  0  0
  141.1320   78.5280  220.8230 C   0  0  1  0  0  0  0  0  0  0  0  0
  140.3880   79.3290  221.8340 C   0  0  0  0  0  0  0  0  0  0  0  0
  141.4190   79.9970  222.6560 N   0  0  0  0  0  0  0  0  0  0  0  0
  142.7200   79.6170  222.7480 C   0  0  0  0  0  0  0  0  0  0  0  0
  143.3170   80.5130  223.6150 C   0  0  0  0  0  0  0  0  0  0  0  0
  142.3620   81.4180  224.0290 C   0  0  0  0  0  0  0  0  0  0  0  0
  141.2170   81.0640  223.4170 N   0  0  0  0  0  0  0  0  0  0  0  0
  139.9190   71.6630  223.1050 C   0  0  0  0  0  0  0  0  0  0  0  0
  139.4990   70.3550  222.9450 C   0  0  0  0  0  0  0  0  0  0  0  0
  139.5560   69.4180  223.9560 C   0  0  0  0  0  0  0  0  0  0  0  0
  140.0580   69.8240  225.1710 C   0  0  0  0  0  0  0  0  0  0  0  0
  140.1370   68.9240  226.2140 C   0  0  0  0  0  0  0  0  0  0  0  0
  140.6430   69.3480  227.4260 C   0  0  0  0  0  0  0  0  0  0  0  0
  140.7350   68.1800  228.7480 Cl  0  0  0  0  0  0  0  0  0  0  0  0
  141.0610   70.6530  227.5820 C   0  0  0  0  0  0  0  0  0  0  0  0
  140.9720   71.5310  226.5270 C   0  0  0  0  0  0  0  0  0  0  0  0
  140.4700   71.1330  225.3030 C   0  0  0  0  0  0  0  0  0  0  0  0
  140.4040   72.0280  224.3030 N   0  0  0  0  0  0  0  0  0  0  0  0
  139.5690   74.2750  223.2110 H   0  0  0  0  0  0  0  0  0  0  0  0
  140.0881   74.5633  220.2432 H   0  0  0  0  0  0  0  0  0  0  0  0
  138.4573   75.0575  220.8545 H   0  0  0  0  0  0  0  0  0  0  0  0
  142.1173   76.0905  219.4445 H   0  0  0  0  0  0  0  0  0  0  0  0
  140.4668   76.1661  218.7996 H   0  0  0  0  0  0  0  0  0  0  0  0
  141.3315   77.9698  217.5447 H   0  0  0  0  0  0  0  0  0  0  0  0
  141.3301   80.0576  219.2509 H   0  0  0  0  0  0  0  0  0  0  0  0
  139.8234   79.2262  219.1383 H   0  0  0  0  0  0  0  0  0  0  0  0
  142.1611   78.6058  221.2036 H   0  0  0  0  0  0  0  0  0  0  0  0
  139.7507   80.0757  221.3377 H   0  0  0  0  0  0  0  0  0  0  0  0
  139.7288   78.6964  222.4466 H   0  0  0  0  0  0  0  0  0  0  0  0
  143.2003   78.7695  222.2370 H   0  0  0  0  0  0  0  0  0  0  0  0
  144.3732   80.5055  223.9222 H   0  0  0  0  0  0  0  0  0  0  0  0
  142.5073   82.2606  224.7210 H   0  0  0  0  0  0  0  0  0  0  0  0
  139.1012   70.0476  221.9666 H   0  0  0  0  0  0  0  0  0  0  0  0
  139.2130   68.3851  223.7967 H   0  0  0  0  0  0  0  0  0  0  0  0
  139.8018   67.8847  226.0815 H   0  0  0  0  0  0  0  0  0  0  0  0
  141.4646   70.9909  228.5479 H   0  0  0  0  0  0  0  0  0  0  0  0
  141.3070   72.5702  226.6604 H   0  0  0  0  0  0  0  0  0  0  0  0
  1  2  2  0
  2  3  1  0
  3  4  1  0
  4  5  1  0
  5  6  2  0
  5  7  1  0
  7  8  1  0
  8  9  1  0
  9 10  1  0
  9 11  1  0
 11 12  1  0
 12 13  1  0
 13 14  1  0
 14 15  1  0
 15 16  2  0
 16 17  1  0
 17 18  2  0
  2 19  1  0
 19 20  2  0
 20 21  1  0
 21 22  2  0
 22 23  1  0
 23 24  2  0
 24 25  1  0
 24 26  1  0
 26 27  2  0
 27 28  1  0
 28 29  2  0
 12  7  1  0
 18 14  1  0
 29 19  1  0
 28 22  1  0
  3 30  1  0
  4 31  1  0
  4 32  1  0
  8 33  1  0
  8 34  1  0
  9 35  1  6
 11 36  1  0
 11 37  1  0
 12 38  1  1
 13 39  1  0
 13 40  1  0
 15 41  1  0
 16 42  1  0
 17 43  1  0
 20 44  1  0
 21 45  1  0
 23 46  1  0
 26 47  1  0
 27 48  1  0
M  END
>  <smiles>  (3) 
O=C(NCC(=O)N1C[C@H](F)C[C@H]1Cn1cccn1)c1ccc2cc(Cl)ccc2n1

>  <score_type>  (3) 
oracle

>  <origin>  (3) 
autodockgpu

>  <m_score__min__energy>  (3) 
-8.2300000000000004

>  <m_primary>  (3) 
energy

>  <meeko>  (3) 
{"free_energy": -7.93, "intermolecular_energy": -9.72, "internal_energy": -1.68, "cluster_size": 14, "cluster_id": 1, "rank_in_cluster": 7}

>  <energy>  (3) 
-8.06

>  <cluster_rmsd>  (3) 
0.6

>  <rmsd>  (3) 
272.01

>  <cluster>  (3) 
1

$$$$

     RDKit          3D

 48 51  0  0  0  0  0  0  0  0999 V2000
  134.7940   68.5230  225.0920 O   0  0  0  0  0  0  0  0  0  0  0  0
  135.2600   69.7060  225.1430 C   0  0  0  0  0  0  0  0  0  0  0  0
  136.5730   69.9570  224.6670 N   0  0  0  0  0  0  0  0  0  0  0  0
  137.4210   68.8940  224.1140 C   0  0  0  0  0  0  0  0  0  0  0  0
  138.6620   68.7560  224.8700 C   0  0  0  0  0  0  0  0  0  0  0  0
  139.1570   67.5830  224.9600 O   0  0  0  0  0  0  0  0  0  0  0  0
  139.3850   69.7790  225.5190 N   0  0  0  0  0  0  0  0  0  0  0  0
  139.6070   69.7130  226.9840 C   0  0  0  0  0  0  0  0  0  0  0  0
  140.6720   70.7130  227.2920 C   0  0  2  0  0  0  0  0  0  0  0  0
  140.0590   71.8880  227.7070 F   0  0  0  0  0  0  0  0  0  0  0  0
  141.3050   70.9710  225.9410 C   0  0  0  0  0  0  0  0  0  0  0  0
  140.0310   70.9770  225.0780 C   0  0  1  0  0  0  0  0  0  0  0  0
  140.3710   71.0590  223.6300 C   0  0  0  0  0  0  0  0  0  0  0  0
  139.3310   71.9150  223.0210 N   0  0  0  0  0  0  0  0  0  0  0  0
  139.5610   73.0720  222.3470 C   0  0  0  0  0  0  0  0  0  0  0  0
  138.3190   73.5360  221.9540 C   0  0  0  0  0  0  0  0  0  0  0  0
  137.3620   72.6470  222.4000 C   0  0  0  0  0  0  0  0  0  0  0  0
  138.0280   71.6710  223.0480 N   0  0  0  0  0  0  0  0  0  0  0  0
  134.4590   70.8010  225.6830 C   0  0  0  0  0  0  0  0  0  0  0  0
  133.3630   70.5050  226.4730 C   0  0  0  0  0  0  0  0  0  0  0  0
  132.5500   71.4730  227.0240 C   0  0  0  0  0  0  0  0  0  0  0  0
  132.8620   72.7880  226.7660 C   0  0  0  0  0  0  0  0  0  0  0  0
  132.0800   73.7950  227.2950 C   0  0  0  0  0  0  0  0  0  0  0  0
  132.4080   75.1080  227.0250 C   0  0  0  0  0  0  0  0  0  0  0  0
  131.3940   76.3800  227.7130 Cl  0  0  0  0  0  0  0  0  0  0  0  0
  133.5020   75.4000  226.2380 C   0  0  0  0  0  0  0  0  0  0  0  0
  134.2660   74.3780  225.7220 C   0  0  0  0  0  0  0  0  0  0  0  0
  133.9610   73.0550  225.9760 C   0  0  0  0  0  0  0  0  0  0  0  0
  134.7380   72.0940  225.4500 N   0  0  0  0  0  0  0  0  0  0  0  0
  136.9130   70.9500  224.7290 H   0  0  0  0  0  0  0  0  0  0  0  0
  136.8714   67.9419  224.1511 H   0  0  0  0  0  0  0  0  0  0  0  0
  137.6748   69.1577  223.0767 H   0  0  0  0  0  0  0  0  0  0  0  0
  138.6809   69.9652  227.5213 H   0  0  0  0  0  0  0  0  0  0  0  0
  139.9052   68.7018  227.2980 H   0  0  0  0  0  0  0  0  0  0  0  0
  141.3820   70.3788  228.0629 H   0  0  0  0  0  0  0  0  0  0  0  0
  141.8300   71.9371  225.9088 H   0  0  0  0  0  0  0  0  0  0  0  0
  142.0805   70.2529  225.6361 H   0  0  0  0  0  0  0  0  0  0  0  0
  139.3640   71.8443  225.1916 H   0  0  0  0  0  0  0  0  0  0  0  0
  141.3655   71.5092  223.4948 H   0  0  0  0  0  0  0  0  0  0  0  0
  140.4006   70.0632  223.1636 H   0  0  0  0  0  0  0  0  0  0  0  0
  140.5359   73.5433  222.1535 H   0  0  0  0  0  0  0  0  0  0  0  0
  138.1266   74.4565  221.3833 H   0  0  0  0  0  0  0  0  0  0  0  0
  136.2740   72.7204  222.2555 H   0  0  0  0  0  0  0  0  0  0  0  0
  133.1290   69.4486  226.6710 H   0  0  0  0  0  0  0  0  0  0  0  0
  131.6841   71.2038  227.6467 H   0  0  0  0  0  0  0  0  0  0  0  0
  131.2088   73.5546  227.9221 H   0  0  0  0  0  0  0  0  0  0  0  0
  133.7634   76.4467  226.0232 H   0  0  0  0  0  0  0  0  0  0  0  0
  135.1368   74.6196  225.0949 H   0  0  0  0  0  0  0  0  0  0  0  0
  1  2  2  0
  2  3  1  0
  3  4  1  0
  4  5  1  0
  5  6  2  0
  5  7  1  0
  7  8  1  0
  8  9  1  0
  9 10  1  0
  9 11  1  0
 11 12  1  0
 12 13  1  0
 13 14  1  0
 14 15  1  0
 15 16  2  0
 16 17  1  0
 17 18  2  0
  2 19  1  0
 19 20  2  0
 20 21  1  0
 21 22  2  0
 22 23  1  0
 23 24  2  0
 24 25  1  0
 24 26  1  0
 26 27  2  0
 27 28  1  0
 28 29  2  0
 12  7  1  0
 18 14  1  0
 29 19  1  0
 28 22  1  0
  3 30  1  0
  4 31  1  0
  4 32  1  0
  8 33  1  0
  8 34  1  0
  9 35  1  1
 11 36  1  0
 11 37  1  0
 12 38  1  1
 13 39  1  0
 13 40  1  0
 15 41  1  0
 16 42  1  0
 17 43  1  0
 20 44  1  0
 21 45  1  0
 23 46  1  0
 26 47  1  0
 27 48  1  0
M  END
>  <smiles>  (4) 
O=C(NCC(=O)N1C[C@H](F)C[C@H]1Cn1cccn1)c1ccc2cc(Cl)ccc2n1

>  <score_type>  (4) 
oracle

>  <origin>  (4) 
autodockgpu

>  <m_score__min__energy>  (4) 
-8.2300000000000004

>  <m_primary>  (4) 
energy

>  <meeko>  (4) 
{"free_energy": -7.04, "intermolecular_energy": -8.83, "internal_energy": -2.43, "cluster_size": 1, "cluster_id": 5, "rank_in_cluster": 1}

>  <energy>  (4) 
-8.06

>  <cluster_rmsd>  (4) 
0.46

>  <rmsd>  (4) 
271.95

>  <cluster>  (4) 
1

$$$$

     RDKit          3D

 48 51  0  0  0  0  0  0  0  0999 V2000
  140.2130   72.3920  220.7550 O   0  0  0  0  0  0  0  0  0  0  0  0
  140.0090   72.7970  221.9440 C   0  0  0  0  0  0  0  0  0  0  0  0
  139.7370   74.1690  222.1750 N   0  0  0  0  0  0  0  0  0  0  0  0
  139.6810   75.1500  221.0830 C   0  0  0  0  0  0  0  0  0  0  0  0
  140.3380   76.3980  221.4560 C   0  0  0  0  0  0  0  0  0  0  0  0
  140.4020   76.6690  222.7010 O   0  0  0  0  0  0  0  0  0  0  0  0
  140.9160   77.3510  220.5900 N   0  0  0  0  0  0  0  0  0  0  0  0
  141.3830   76.9420  219.2440 C   0  0  0  0  0  0  0  0  0  0  0  0
  141.5990   78.2020  218.4740 C   0  0  2  0  0  0  0  0  0  0  0  0
  142.9470   78.5320  218.5480 F   0  0  0  0  0  0  0  0  0  0  0  0
  140.8250   79.2300  219.2700 C   0  0  0  0  0  0  0  0  0  0  0  0
  141.1820   78.7530  220.6890 C   0  0  1  0  0  0  0  0  0  0  0  0
  140.4110   79.5110  221.7130 C   0  0  0  0  0  0  0  0  0  0  0  0
  141.4190   80.1040  222.6180 N   0  0  0  0  0  0  0  0  0  0  0  0
  142.7090   79.6960  222.7330 C   0  0  0  0  0  0  0  0  0  0  0  0
  143.2850   80.5190  223.6830 C   0  0  0  0  0  0  0  0  0  0  0  0
  142.3280   81.4110  224.1210 C   0  0  0  0  0  0  0  0  0  0  0  0
  141.2020   81.1190  223.4420 N   0  0  0  0  0  0  0  0  0  0  0  0
  140.0530   71.8640  223.0670 C   0  0  0  0  0  0  0  0  0  0  0  0
  139.5820   70.5760  222.8880 C   0  0  0  0  0  0  0  0  0  0  0  0
  139.5840   69.6280  223.8910 C   0  0  0  0  0  0  0  0  0  0  0  0
  140.0830   70.0030  225.1180 C   0  0  0  0  0  0  0  0  0  0  0  0
  140.1070   69.0910  226.1540 C   0  0  0  0  0  0  0  0  0  0  0  0
  140.6110   69.4840  227.3780 C   0  0  0  0  0  0  0  0  0  0  0  0
  140.6330   68.3020  228.6900 Cl  0  0  0  0  0  0  0  0  0  0  0  0
  141.0800   70.7690  227.5530 C   0  0  0  0  0  0  0  0  0  0  0  0
  141.0450   71.6590  226.5040 C   0  0  0  0  0  0  0  0  0  0  0  0
  140.5460   71.2930  225.2680 C   0  0  0  0  0  0  0  0  0  0  0  0
  140.5340   72.1980  224.2760 N   0  0  0  0  0  0  0  0  0  0  0  0
  139.5750   74.4550  223.1740 H   0  0  0  0  0  0  0  0  0  0  0  0
  140.1838   74.7309  220.1989 H   0  0  0  0  0  0  0  0  0  0  0  0
  138.6247   75.3660  220.8648 H   0  0  0  0  0  0  0  0  0  0  0  0
  142.3240   76.3778  219.3226 H   0  0  0  0  0  0  0  0  0  0  0  0
  140.6486   76.2910  218.7471 H   0  0  0  0  0  0  0  0  0  0  0  0
  141.2968   78.1321  217.4186 H   0  0  0  0  0  0  0  0  0  0  0  0
  141.1794   80.2534  219.0773 H   0  0  0  0  0  0  0  0  0  0  0  0
  139.7495   79.2896  219.0472 H   0  0  0  0  0  0  0  0  0  0  0  0
  142.2145   78.9308  221.0240 H   0  0  0  0  0  0  0  0  0  0  0  0
  139.8131   80.3011  221.2352 H   0  0  0  0  0  0  0  0  0  0  0  0
  139.7111   78.8598  222.2572 H   0  0  0  0  0  0  0  0  0  0  0  0
  143.1963   78.8777  222.1827 H   0  0  0  0  0  0  0  0  0  0  0  0
  144.3277   80.4708  224.0301 H   0  0  0  0  0  0  0  0  0  0  0  0
  142.4584   82.2022  224.8740 H   0  0  0  0  0  0  0  0  0  0  0  0
  139.1876   70.2942  221.9006 H   0  0  0  0  0  0  0  0  0  0  0  0
  139.2015   68.6115  223.7167 H   0  0  0  0  0  0  0  0  0  0  0  0
  139.7307   68.0679  226.0069 H   0  0  0  0  0  0  0  0  0  0  0  0
  141.4810   71.0817  228.5284 H   0  0  0  0  0  0  0  0  0  0  0  0
  141.4216   72.6819  226.6520 H   0  0  0  0  0  0  0  0  0  0  0  0
  1  2  2  0
  2  3  1  0
  3  4  1  0
  4  5  1  0
  5  6  2  0
  5  7  1  0
  7  8  1  0
  8  9  1  0
  9 10  1  0
  9 11  1  0
 11 12  1  0
 12 13  1  0
 13 14  1  0
 14 15  1  0
 15 16  2  0
 16 17  1  0
 17 18  2  0
  2 19  1  0
 19 20  2  0
 20 21  1  0
 21 22  2  0
 22 23  1  0
 23 24  2  0
 24 25  1  0
 24 26  1  0
 26 27  2  0
 27 28  1  0
 28 29  2  0
 12  7  1  0
 18 14  1  0
 29 19  1  0
 28 22  1  0
  3 30  1  0
  4 31  1  0
  4 32  1  0
  8 33  1  0
  8 34  1  0
  9 35  1  6
 11 36  1  0
 11 37  1  0
 12 38  1  1
 13 39  1  0
 13 40  1  0
 15 41  1  0
 16 42  1  0
 17 43  1  0
 20 44  1  0
 21 45  1  0
 23 46  1  0
 26 47  1  0
 27 48  1  0
M  END
>  <smiles>  (5) 
O=C(NCC(=O)N1C[C@H](F)C[C@H]1Cn1cccn1)c1ccc2cc(Cl)ccc2n1

>  <score_type>  (5) 
oracle

>  <origin>  (5) 
autodockgpu

>  <m_score__min__energy>  (5) 
-8.2300000000000004

>  <m_primary>  (5) 
energy

>  <meeko>  (5) 
{"free_energy": -7.93, "intermolecular_energy": -9.72, "internal_energy": -1.68, "cluster_size": 14, "cluster_id": 1, "rank_in_cluster": 8}

>  <energy>  (5) 
-7.96

>  <cluster_rmsd>  (5) 
1.18

>  <rmsd>  (5) 
272.0

>  <cluster>  (5) 
1

$$$$

     RDKit          3D

 48 51  0  0  0  0  0  0  0  0999 V2000
  140.1510   72.3940  220.7220 O   0  0  0  0  0  0  0  0  0  0  0  0
  139.9240   72.8060  221.9050 C   0  0  0  0  0  0  0  0  0  0  0  0
  139.5990   74.1700  222.1160 N   0  0  0  0  0  0  0  0  0  0  0  0
  139.5140   75.1340  221.0110 C   0  0  0  0  0  0  0  0  0  0  0  0
  139.2550   76.4840  221.5020 C   0  0  0  0  0  0  0  0  0  0  0  0
  138.8930   76.5970  222.7210 O   0  0  0  0  0  0  0  0  0  0  0  0
  139.3580   77.6910  220.7780 N   0  0  0  0  0  0  0  0  0  0  0  0
  138.1460   78.5040  220.5180 C   0  0  0  0  0  0  0  0  0  0  0  0
  138.6280   79.8420  220.0660 C   0  0  2  0  0  0  0  0  0  0  0  0
  138.6140   79.8630  218.6770 F   0  0  0  0  0  0  0  0  0  0  0  0
  140.0730   79.8600  220.5160 C   0  0  0  0  0  0  0  0  0  0  0  0
  140.4450   78.4040  220.1820 C   0  0  1  0  0  0  0  0  0  0  0  0
  141.8110   78.0790  220.6760 C   0  0  0  0  0  0  0  0  0  0  0  0
  141.9460   78.7720  221.9740 N   0  0  0  0  0  0  0  0  0  0  0  0
  141.4570   78.3240  223.1600 C   0  0  0  0  0  0  0  0  0  0  0  0
  141.8080   79.2760  224.1000 C   0  0  0  0  0  0  0  0  0  0  0  0
  142.5050   80.2810  223.4610 C   0  0  0  0  0  0  0  0  0  0  0  0
  142.5640   79.9300  222.1620 N   0  0  0  0  0  0  0  0  0  0  0  0
  139.9940   71.8900  223.0410 C   0  0  0  0  0  0  0  0  0  0  0  0
  139.5420   70.5920  222.8850 C   0  0  0  0  0  0  0  0  0  0  0  0
  139.5690   69.6590  223.9010 C   0  0  0  0  0  0  0  0  0  0  0  0
  140.0740   70.0590  225.1170 C   0  0  0  0  0  0  0  0  0  0  0  0
  140.1240   69.1630  226.1660 C   0  0  0  0  0  0  0  0  0  0  0  0
  140.6330   69.5810  227.3780 C   0  0  0  0  0  0  0  0  0  0  0  0
  140.6880   68.4180  228.7060 Cl  0  0  0  0  0  0  0  0  0  0  0  0
  141.0830   70.8760  227.5300 C   0  0  0  0  0  0  0  0  0  0  0  0
  141.0230   71.7500  226.4690 C   0  0  0  0  0  0  0  0  0  0  0  0
  140.5180   71.3580  225.2440 C   0  0  0  0  0  0  0  0  0  0  0  0
  140.4810   72.2490  224.2390 N   0  0  0  0  0  0  0  0  0  0  0  0
  139.4200   74.4620  223.1100 H   0  0  0  0  0  0  0  0  0  0  0  0
  140.4652   75.1302  220.4586 H   0  0  0  0  0  0  0  0  0  0  0  0
  138.6815   74.8378  220.3558 H   0  0  0  0  0  0  0  0  0  0  0  0
  137.5337   78.0349  219.7338 H   0  0  0  0  0  0  0  0  0  0  0  0
  137.5201   78.5879  221.4187 H   0  0  0  0  0  0  0  0  0  0  0  0
  138.0288   80.6802  220.4512 H   0  0  0  0  0  0  0  0  0  0  0  0
  140.6746   80.5815  219.9437 H   0  0  0  0  0  0  0  0  0  0  0  0
  140.2406   80.1645  221.5597 H   0  0  0  0  0  0  0  0  0  0  0  0
  140.5378   78.1512  219.1155 H   0  0  0  0  0  0  0  0  0  0  0  0
  141.9218   76.9927  220.8086 H   0  0  0  0  0  0  0  0  0  0  0  0
  142.5856   78.3995  219.9638 H   0  0  0  0  0  0  0  0  0  0  0  0
  140.8965   77.3941  223.3365 H   0  0  0  0  0  0  0  0  0  0  0  0
  141.5718   79.2384  225.1737 H   0  0  0  0  0  0  0  0  0  0  0  0
  142.9276   81.1868  223.9203 H   0  0  0  0  0  0  0  0  0  0  0  0
  139.1426   70.2897  221.9057 H   0  0  0  0  0  0  0  0  0  0  0  0
  139.2008   68.6343  223.7450 H   0  0  0  0  0  0  0  0  0  0  0  0
  139.7635   68.1317  226.0374 H   0  0  0  0  0  0  0  0  0  0  0  0
  141.4887   71.2091  228.4967 H   0  0  0  0  0  0  0  0  0  0  0  0
  141.3841   72.7809  226.5985 H   0  0  0  0  0  0  0  0  0  0  0  0
  1  2  2  0
  2  3  1  0
  3  4  1  0
  4  5  1  0
  5  6  2  0
  5  7  1  0
  7  8  1  0
  8  9  1  0
  9 10  1  0
  9 11  1  0
 11 12  1  0
 12 13  1  0
 13 14  1  0
 14 15  1  0
 15 16  2  0
 16 17  1  0
 17 18  2  0
  2 19  1  0
 19 20  2  0
 20 21  1  0
 21 22  2  0
 22 23  1  0
 23 24  2  0
 24 25  1  0
 24 26  1  0
 26 27  2  0
 27 28  1  0
 28 29  2  0
 12  7  1  0
 18 14  1  0
 29 19  1  0
 28 22  1  0
  3 30  1  0
  4 31  1  0
  4 32  1  0
  8 33  1  0
  8 34  1  0
  9 35  1  1
 11 36  1  0
 11 37  1  0
 12 38  1  6
 13 39  1  0
 13 40  1  0
 15 41  1  0
 16 42  1  0
 17 43  1  0
 20 44  1  0
 21 45  1  0
 23 46  1  0
 26 47  1  0
 27 48  1  0
M  END
>  <smiles>  (6) 
O=C(NCC(=O)N1C[C@H](F)C[C@H]1Cn1cccn1)c1ccc2cc(Cl)ccc2n1

>  <score_type>  (6) 
oracle

>  <origin>  (6) 
autodockgpu

>  <m_score__min__energy>  (6) 
-8.2300000000000004

>  <m_primary>  (6) 
energy

>  <meeko>  (6) 
{"free_energy": -7.45, "intermolecular_energy": -9.24, "internal_energy": -2.01, "cluster_size": 14, "cluster_id": 1, "rank_in_cluster": 9}

>  <energy>  (6) 
-7.93

>  <cluster_rmsd>  (6) 
1.03

>  <rmsd>  (6) 
272.0

>  <cluster>  (6) 
1

$$$$

     RDKit          3D

 48 51  0  0  0  0  0  0  0  0999 V2000
  139.0940   75.8730  222.8150 O   0  0  0  0  0  0  0  0  0  0  0  0
  139.8400   76.3700  221.9110 C   0  0  0  0  0  0  0  0  0  0  0  0
  139.6020   77.6940  221.4640 N   0  0  0  0  0  0  0  0  0  0  0  0
  138.5170   78.5210  222.0080 C   0  0  0  0  0  0  0  0  0  0  0  0
  139.0390   79.6120  222.8240 C   0  0  0  0  0  0  0  0  0  0  0  0
  138.2030   80.2310  223.5650 O   0  0  0  0  0  0  0  0  0  0  0  0
  140.3730   80.0680  222.8910 N   0  0  0  0  0  0  0  0  0  0  0  0
  141.3240   79.4380  223.8390 C   0  0  0  0  0  0  0  0  0  0  0  0
  142.6870   79.8830  223.4230 C   0  0  2  0  0  0  0  0  0  0  0  0
  143.0460   80.9740  224.2040 F   0  0  0  0  0  0  0  0  0  0  0  0
  142.4720   80.3750  222.0080 C   0  0  0  0  0  0  0  0  0  0  0  0
  141.1160   81.0760  222.2010 C   0  0  1  0  0  0  0  0  0  0  0  0
  140.5660   81.5380  220.8970 C   0  0  0  0  0  0  0  0  0  0  0  0
  141.2270   80.7100  219.8660 N   0  0  0  0  0  0  0  0  0  0  0  0
  142.1330   81.1580  218.9590 C   0  0  0  0  0  0  0  0  0  0  0  0
  142.4860   80.0590  218.1980 C   0  0  0  0  0  0  0  0  0  0  0  0
  141.7840   78.9660  218.6640 C   0  0  0  0  0  0  0  0  0  0  0  0
  141.0260   79.4120  219.6840 N   0  0  0  0  0  0  0  0  0  0  0  0
  140.9330   75.5910  221.3350 C   0  0  0  0  0  0  0  0  0  0  0  0
  141.8670   76.2310  220.5400 C   0  0  0  0  0  0  0  0  0  0  0  0
  142.9310   75.5770  219.9550 C   0  0  0  0  0  0  0  0  0  0  0  0
  143.0520   74.2260  220.1870 C   0  0  0  0  0  0  0  0  0  0  0  0
  144.0990   73.5260  219.6240 C   0  0  0  0  0  0  0  0  0  0  0  0
  144.2050   72.1710  219.8680 C   0  0  0  0  0  0  0  0  0  0  0  0
  145.5540   71.2950  219.1390 Cl  0  0  0  0  0  0  0  0  0  0  0  0
  143.2730   71.5360  220.6610 C   0  0  0  0  0  0  0  0  0  0  0  0
  142.2370   72.2570  221.2100 C   0  0  0  0  0  0  0  0  0  0  0  0
  142.1070   73.6140  220.9840 C   0  0  0  0  0  0  0  0  0  0  0  0
  141.0790   74.2730  221.5430 N   0  0  0  0  0  0  0  0  0  0  0  0
  140.2450   78.0600  220.7160 H   0  0  0  0  0  0  0  0  0  0  0  0
  137.9362   78.9432  221.1747 H   0  0  0  0  0  0  0  0  0  0  0  0
  137.8820   77.8860  222.6432 H   0  0  0  0  0  0  0  0  0  0  0  0
  141.1126   79.7685  224.8667 H   0  0  0  0  0  0  0  0  0  0  0  0
  141.2387   78.3415  223.8214 H   0  0  0  0  0  0  0  0  0  0  0  0
  143.4544   79.1002  223.5136 H   0  0  0  0  0  0  0  0  0  0  0  0
  143.2578   81.0766  221.6913 H   0  0  0  0  0  0  0  0  0  0  0  0
  142.4972   79.5995  221.2283 H   0  0  0  0  0  0  0  0  0  0  0  0
  141.1246   82.0150  222.7739 H   0  0  0  0  0  0  0  0  0  0  0  0
  139.4764   81.3901  220.8667 H   0  0  0  0  0  0  0  0  0  0  0  0
  140.7516   82.6102  220.7360 H   0  0  0  0  0  0  0  0  0  0  0  0
  142.5094   82.1860  218.8516 H   0  0  0  0  0  0  0  0  0  0  0  0
  143.2034   80.0563  217.3641 H   0  0  0  0  0  0  0  0  0  0  0  0
  141.8336   77.9366  218.2794 H   0  0  0  0  0  0  0  0  0  0  0  0
  141.7558   77.3115  220.3664 H   0  0  0  0  0  0  0  0  0  0  0  0
  143.6558   76.1152  219.3265 H   0  0  0  0  0  0  0  0  0  0  0  0
  144.8377   74.0391  218.9907 H   0  0  0  0  0  0  0  0  0  0  0  0
  143.3571   70.4564  220.8544 H   0  0  0  0  0  0  0  0  0  0  0  0
  141.4976   71.7426  221.8414 H   0  0  0  0  0  0  0  0  0  0  0  0
  1  2  2  0
  2  3  1  0
  3  4  1  0
  4  5  1  0
  5  6  2  0
  5  7  1  0
  7  8  1  0
  8  9  1  0
  9 10  1  0
  9 11  1  0
 11 12  1  0
 12 13  1  0
 13 14  1  0
 14 15  1  0
 15 16  2  0
 16 17  1  0
 17 18  2  0
  2 19  1  0
 19 20  2  0
 20 21  1  0
 21 22  2  0
 22 23  1  0
 23 24  2  0
 24 25  1  0
 24 26  1  0
 26 27  2  0
 27 28  1  0
 28 29  2  0
 12  7  1  0
 18 14  1  0
 29 19  1  0
 28 22  1  0
  3 30  1  0
  4 31  1  0
  4 32  1  0
  8 33  1  0
  8 34  1  0
  9 35  1  6
 11 36  1  0
 11 37  1  0
 12 38  1  1
 13 39  1  0
 13 40  1  0
 15 41  1  0
 16 42  1  0
 17 43  1  0
 20 44  1  0
 21 45  1  0
 23 46  1  0
 26 47  1  0
 27 48  1  0
M  END
>  <smiles>  (7) 
O=C(NCC(=O)N1C[C@H](F)C[C@H]1Cn1cccn1)c1ccc2cc(Cl)ccc2n1

>  <score_type>  (7) 
oracle

>  <origin>  (7) 
autodockgpu

>  <m_score__min__energy>  (7) 
-8.2300000000000004

>  <m_primary>  (7) 
energy

>  <meeko>  (7) 
{"free_energy": -6.1, "intermolecular_energy": -7.89, "internal_energy": -2.51, "cluster_size": 1, "cluster_id": 6, "rank_in_cluster": 1}

>  <energy>  (7) 
-7.93

>  <cluster_rmsd>  (7) 
1.04

>  <rmsd>  (7) 
272.02

>  <cluster>  (7) 
1

$$$$

     RDKit          3D

 48 51  0  0  0  0  0  0  0  0999 V2000
  139.9950   72.5300  220.8700 O   0  0  0  0  0  0  0  0  0  0  0  0
  139.7730   72.8810  222.0740 C   0  0  0  0  0  0  0  0  0  0  0  0
  139.4140   74.2240  222.3510 N   0  0  0  0  0  0  0  0  0  0  0  0
  139.2870   75.2350  221.2930 C   0  0  0  0  0  0  0  0  0  0  0  0
  140.1830   76.3620  221.5250 C   0  0  0  0  0  0  0  0  0  0  0  0
  139.9860   77.0510  222.5820 O   0  0  0  0  0  0  0  0  0  0  0  0
  141.2530   76.7860  220.7080 N   0  0  0  0  0  0  0  0  0  0  0  0
  142.0210   75.7930  219.9200 C   0  0  0  0  0  0  0  0  0  0  0  0
  142.8150   76.5710  218.9240 C   0  0  2  0  0  0  0  0  0  0  0  0
  144.0930   76.7570  219.4350 F   0  0  0  0  0  0  0  0  0  0  0  0
  142.1220   77.9170  218.9050 C   0  0  0  0  0  0  0  0  0  0  0  0
  141.8350   78.0590  220.4110 C   0  0  1  0  0  0  0  0  0  0  0  0
  140.9960   79.2580  220.6810 C   0  0  0  0  0  0  0  0  0  0  0  0
  141.5360   79.8570  221.9200 N   0  0  0  0  0  0  0  0  0  0  0  0
  142.5940   79.3820  222.6260 C   0  0  0  0  0  0  0  0  0  0  0  0
  142.7510   80.2390  223.7000 C   0  0  0  0  0  0  0  0  0  0  0  0
  141.7800   81.2170  223.6190 C   0  0  0  0  0  0  0  0  0  0  0  0
  141.0600   80.9420  222.5140 N   0  0  0  0  0  0  0  0  0  0  0  0
  139.8850   71.9160  223.1650 C   0  0  0  0  0  0  0  0  0  0  0  0
  139.4720   70.6130  222.9530 C   0  0  0  0  0  0  0  0  0  0  0  0
  139.5400   69.6360  223.9250 C   0  0  0  0  0  0  0  0  0  0  0  0
  140.0460   69.9950  225.1530 C   0  0  0  0  0  0  0  0  0  0  0  0
  140.1350   69.0540  226.1590 C   0  0  0  0  0  0  0  0  0  0  0  0
  140.6440   69.4310  227.3840 C   0  0  0  0  0  0  0  0  0  0  0  0
  140.7500   68.2120  228.6570 Cl  0  0  0  0  0  0  0  0  0  0  0  0
  141.0550   70.7320  227.5920 C   0  0  0  0  0  0  0  0  0  0  0  0
  140.9560   71.6510  226.5730 C   0  0  0  0  0  0  0  0  0  0  0  0
  140.4500   71.3010  225.3360 C   0  0  0  0  0  0  0  0  0  0  0  0
  140.3740   72.2350  224.3740 N   0  0  0  0  0  0  0  0  0  0  0  0
  139.2400   74.4650  223.3600 H   0  0  0  0  0  0  0  0  0  0  0  0
  139.5347   74.7739  220.3255 H   0  0  0  0  0  0  0  0  0  0  0  0
  138.2525   75.6089  221.2932 H   0  0  0  0  0  0  0  0  0  0  0  0
  142.6915   75.2209  220.5782 H   0  0  0  0  0  0  0  0  0  0  0  0
  141.3528   75.0736  219.4240 H   0  0  0  0  0  0  0  0  0  0  0  0
  142.8820   76.0874  217.9383 H   0  0  0  0  0  0  0  0  0  0  0  0
  142.7811   78.7154  218.5333 H   0  0  0  0  0  0  0  0  0  0  0  0
  141.2438   77.9886  218.2465 H   0  0  0  0  0  0  0  0  0  0  0  0
  142.7006   78.2534  221.0613 H   0  0  0  0  0  0  0  0  0  0  0  0
  141.0686   79.9719  219.8473 H   0  0  0  0  0  0  0  0  0  0  0  0
  139.9339   78.9928  220.7891 H   0  0  0  0  0  0  0  0  0  0  0  0
  143.2023   78.4960  222.3915 H   0  0  0  0  0  0  0  0  0  0  0  0
  143.5179   80.1557  224.4842 H   0  0  0  0  0  0  0  0  0  0  0  0
  141.6252   82.0532  224.3168 H   0  0  0  0  0  0  0  0  0  0  0  0
  139.0712   70.3434  221.9647 H   0  0  0  0  0  0  0  0  0  0  0  0
  139.2022   68.6083  223.7255 H   0  0  0  0  0  0  0  0  0  0  0  0
  139.8049   68.0190  225.9862 H   0  0  0  0  0  0  0  0  0  0  0  0
  141.4604   71.0331  228.5692 H   0  0  0  0  0  0  0  0  0  0  0  0
  141.2865   72.6857  226.7467 H   0  0  0  0  0  0  0  0  0  0  0  0
  1  2  2  0
  2  3  1  0
  3  4  1  0
  4  5  1  0
  5  6  2  0
  5  7  1  0
  7  8  1  0
  8  9  1  0
  9 10  1  0
  9 11  1  0
 11 12  1  0
 12 13  1  0
 13 14  1  0
 14 15  1  0
 15 16  2  0
 16 17  1  0
 17 18  2  0
  2 19  1  0
 19 20  2  0
 20 21  1  0
 21 22  2  0
 22 23  1  0
 23 24  2  0
 24 25  1  0
 24 26  1  0
 26 27  2  0
 27 28  1  0
 28 29  2  0
 12  7  1  0
 18 14  1  0
 29 19  1  0
 28 22  1  0
  3 30  1  0
  4 31  1  0
  4 32  1  0
  8 33  1  0
  8 34  1  0
  9 35  1  6
 11 36  1  0
 11 37  1  0
 12 38  1  1
 13 39  1  0
 13 40  1  0
 15 41  1  0
 16 42  1  0
 17 43  1  0
 20 44  1  0
 21 45  1  0
 23 46  1  0
 26 47  1  0
 27 48  1  0
M  END
>  <smiles>  (8) 
O=C(NCC(=O)N1C[C@H](F)C[C@H]1Cn1cccn1)c1ccc2cc(Cl)ccc2n1

>  <score_type>  (8) 
oracle

>  <origin>  (8) 
autodockgpu

>  <m_score__min__energy>  (8) 
-8.2300000000000004

>  <m_primary>  (8) 
energy

>  <meeko>  (8) 
{"free_energy": -8.06, "intermolecular_energy": -9.85, "internal_energy": -1.52, "cluster_size": 14, "cluster_id": 1, "rank_in_cluster": 3}

>  <energy>  (8) 
-7.93

>  <cluster_rmsd>  (8) 
1.09

>  <rmsd>  (8) 
272.06

>  <cluster>  (8) 
1

$$$$

     RDKit          3D

 48 51  0  0  0  0  0  0  0  0999 V2000
  139.6660   72.0790  220.8910 O   0  0  0  0  0  0  0  0  0  0  0  0
  139.6500   72.5110  222.0880 C   0  0  0  0  0  0  0  0  0  0  0  0
  139.4790   73.8990  222.3240 N   0  0  0  0  0  0  0  0  0  0  0  0
  139.3180   74.8650  221.2300 C   0  0  0  0  0  0  0  0  0  0  0  0
  140.0440   76.1010  221.5010 C   0  0  0  0  0  0  0  0  0  0  0  0
  139.6210   76.8210  222.4650 O   0  0  0  0  0  0  0  0  0  0  0  0
  141.1710   76.5990  220.8130 N   0  0  0  0  0  0  0  0  0  0  0  0
  142.0100   75.6810  220.0030 C   0  0  0  0  0  0  0  0  0  0  0  0
  142.8720   76.5480  219.1470 C   0  0  2  0  0  0  0  0  0  0  0  0
  144.1040   76.6910  219.7730 F   0  0  0  0  0  0  0  0  0  0  0  0
  142.1690   77.8880  219.1920 C   0  0  0  0  0  0  0  0  0  0  0  0
  141.7620   77.8940  220.6770 C   0  0  1  0  0  0  0  0  0  0  0  0
  140.8920   79.0630  220.9840 C   0  0  0  0  0  0  0  0  0  0  0  0
  141.5300   79.7500  222.1260 N   0  0  0  0  0  0  0  0  0  0  0  0
  142.7060   79.3900  222.7040 C   0  0  0  0  0  0  0  0  0  0  0  0
  142.9220   80.2980  223.7240 C   0  0  0  0  0  0  0  0  0  0  0  0
  141.8690   81.1900  223.7410 C   0  0  0  0  0  0  0  0  0  0  0  0
  141.0420   80.8160  222.7470 N   0  0  0  0  0  0  0  0  0  0  0  0
  139.8050   71.5940  223.2150 C   0  0  0  0  0  0  0  0  0  0  0  0
  139.4320   70.2710  223.0590 C   0  0  0  0  0  0  0  0  0  0  0  0
  139.5420   69.3360  224.0670 C   0  0  0  0  0  0  0  0  0  0  0  0
  140.0500   69.7590  225.2740 C   0  0  0  0  0  0  0  0  0  0  0  0
  140.1810   68.8610  226.3140 C   0  0  0  0  0  0  0  0  0  0  0  0
  140.6930   69.3020  227.5180 C   0  0  0  0  0  0  0  0  0  0  0  0
  140.8520   68.1380  228.8350 Cl  0  0  0  0  0  0  0  0  0  0  0  0
  141.0650   70.6220  227.6690 C   0  0  0  0  0  0  0  0  0  0  0  0
  140.9240   71.4970  226.6160 C   0  0  0  0  0  0  0  0  0  0  0  0
  140.4150   71.0820  225.4010 C   0  0  0  0  0  0  0  0  0  0  0  0
  140.2980   71.9750  224.4040 N   0  0  0  0  0  0  0  0  0  0  0  0
  139.4720   74.2070  223.3300 H   0  0  0  0  0  0  0  0  0  0  0  0
  139.7026   74.4204  220.3003 H   0  0  0  0  0  0  0  0  0  0  0  0
  138.2488   75.1051  221.1343 H   0  0  0  0  0  0  0  0  0  0  0  0
  142.6321   75.0545  220.6592 H   0  0  0  0  0  0  0  0  0  0  0  0
  141.3910   75.0061  219.3936 H   0  0  0  0  0  0  0  0  0  0  0  0
  143.0216   76.1552  218.1305 H   0  0  0  0  0  0  0  0  0  0  0  0
  142.8473   78.7185  218.9465 H   0  0  0  0  0  0  0  0  0  0  0  0
  141.3452   78.0154  218.4743 H   0  0  0  0  0  0  0  0  0  0  0  0
  142.5714   78.0315  221.4091 H   0  0  0  0  0  0  0  0  0  0  0  0
  140.8341   79.7360  220.1158 H   0  0  0  0  0  0  0  0  0  0  0  0
  139.8640   78.7517  221.2214 H   0  0  0  0  0  0  0  0  0  0  0  0
  143.3538   78.5481  222.4186 H   0  0  0  0  0  0  0  0  0  0  0  0
  143.7854   80.3078  224.4054 H   0  0  0  0  0  0  0  0  0  0  0  0
  141.7328   82.0372  224.4292 H   0  0  0  0  0  0  0  0  0  0  0  0
  139.0294   69.9501  222.0869 H   0  0  0  0  0  0  0  0  0  0  0  0
  139.2351   68.2911  223.9119 H   0  0  0  0  0  0  0  0  0  0  0  0
  139.8821   67.8102  226.1855 H   0  0  0  0  0  0  0  0  0  0  0  0
  141.4730   70.9740  228.6280 H   0  0  0  0  0  0  0  0  0  0  0  0
  141.2227   72.5478  226.7447 H   0  0  0  0  0  0  0  0  0  0  0  0
  1  2  2  0
  2  3  1  0
  3  4  1  0
  4  5  1  0
  5  6  2  0
  5  7  1  0
  7  8  1  0
  8  9  1  0
  9 10  1  0
  9 11  1  0
 11 12  1  0
 12 13  1  0
 13 14  1  0
 14 15  1  0
 15 16  2  0
 16 17  1  0
 17 18  2  0
  2 19  1  0
 19 20  2  0
 20 21  1  0
 21 22  2  0
 22 23  1  0
 23 24  2  0
 24 25  1  0
 24 26  1  0
 26 27  2  0
 27 28  1  0
 28 29  2  0
 12  7  1  0
 18 14  1  0
 29 19  1  0
 28 22  1  0
  3 30  1  0
  4 31  1  0
  4 32  1  0
  8 33  1  0
  8 34  1  0
  9 35  1  6
 11 36  1  0
 11 37  1  0
 12 38  1  1
 13 39  1  0
 13 40  1  0
 15 41  1  0
 16 42  1  0
 17 43  1  0
 20 44  1  0
 21 45  1  0
 23 46  1  0
 26 47  1  0
 27 48  1  0
M  END
>  <smiles>  (9) 
O=C(NCC(=O)N1C[C@H](F)C[C@H]1Cn1cccn1)c1ccc2cc(Cl)ccc2n1

>  <score_type>  (9) 
oracle

>  <origin>  (9) 
autodockgpu

>  <m_score__min__energy>  (9) 
-8.2300000000000004

>  <m_primary>  (9) 
energy

>  <meeko>  (9) 
{"free_energy": -8.15, "intermolecular_energy": -9.94, "internal_energy": -1.5, "cluster_size": 14, "cluster_id": 1, "rank_in_cluster": 2}

>  <energy>  (9) 
-7.45

>  <cluster_rmsd>  (9) 
1.71

>  <rmsd>  (9) 
271.79

>  <cluster>  (9) 
1

$$$$

     RDKit          3D

 48 51  0  0  0  0  0  0  0  0999 V2000
  139.8920   72.0930  220.7290 O   0  0  0  0  0  0  0  0  0  0  0  0
  139.7240   72.5180  221.9180 C   0  0  0  0  0  0  0  0  0  0  0  0
  139.4040   73.8830  222.1290 N   0  0  0  0  0  0  0  0  0  0  0  0
  139.2590   74.8340  221.0200 C   0  0  0  0  0  0  0  0  0  0  0  0
  140.3410   75.8130  221.0130 C   0  0  0  0  0  0  0  0  0  0  0  0
  140.2900   76.7380  221.8920 O   0  0  0  0  0  0  0  0  0  0  0  0
  141.4490   75.8570  220.1400 N   0  0  0  0  0  0  0  0  0  0  0  0
  141.7120   77.0780  219.3390 C   0  0  0  0  0  0  0  0  0  0  0  0
  143.1030   76.9430  218.8150 C   0  0  2  0  0  0  0  0  0  0  0  0
  143.0340   76.4350  217.5240 F   0  0  0  0  0  0  0  0  0  0  0  0
  143.7050   75.8760  219.7030 C   0  0  0  0  0  0  0  0  0  0  0  0
  142.4900   74.9360  219.8050 C   0  0  1  0  0  0  0  0  0  0  0  0
  142.7490   73.8370  220.7760 C   0  0  0  0  0  0  0  0  0  0  0  0
  144.1410   73.4040  220.5310 N   0  0  0  0  0  0  0  0  0  0  0  0
  144.5370   72.5420  219.5590 C   0  0  0  0  0  0  0  0  0  0  0  0
  145.9080   72.4210  219.6920 C   0  0  0  0  0  0  0  0  0  0  0  0
  146.3130   73.2160  220.7450 C   0  0  0  0  0  0  0  0  0  0  0  0
  145.1980   73.7980  221.2280 N   0  0  0  0  0  0  0  0  0  0  0  0
  139.8560   71.6150  223.0580 C   0  0  0  0  0  0  0  0  0  0  0  0
  139.4470   70.3010  222.9250 C   0  0  0  0  0  0  0  0  0  0  0  0
  139.5330   69.3780  223.9470 C   0  0  0  0  0  0  0  0  0  0  0  0
  140.0550   69.8070  225.1460 C   0  0  0  0  0  0  0  0  0  0  0  0
  140.1630   68.9230  226.2010 C   0  0  0  0  0  0  0  0  0  0  0  0
  140.6880   69.3690  227.3960 C   0  0  0  0  0  0  0  0  0  0  0  0
  140.8180   68.2210  228.7320 Cl  0  0  0  0  0  0  0  0  0  0  0  0
  141.0960   70.6800  227.5260 C   0  0  0  0  0  0  0  0  0  0  0  0
  140.9770   71.5420  226.4600 C   0  0  0  0  0  0  0  0  0  0  0  0
  140.4550   71.1220  225.2520 C   0  0  0  0  0  0  0  0  0  0  0  0
  140.3600   72.0020  224.2410 N   0  0  0  0  0  0  0  0  0  0  0  0
  139.2750   74.1860  223.1280 H   0  0  0  0  0  0  0  0  0  0  0  0
  139.2714   74.2801  220.0697 H   0  0  0  0  0  0  0  0  0  0  0  0
  138.3073   75.3709  221.1466 H   0  0  0  0  0  0  0  0  0  0  0  0
  140.9965   77.1490  218.5065 H   0  0  0  0  0  0  0  0  0  0  0  0
  141.6003   77.9875  219.9476 H   0  0  0  0  0  0  0  0  0  0  0  0
  143.6657   77.8881  218.8068 H   0  0  0  0  0  0  0  0  0  0  0  0
  144.5684   75.3847  219.2306 H   0  0  0  0  0  0  0  0  0  0  0  0
  144.1108   76.2312  220.6617 H   0  0  0  0  0  0  0  0  0  0  0  0
  142.2308   74.3661  218.9005 H   0  0  0  0  0  0  0  0  0  0  0  0
  142.6373   74.2027  221.8074 H   0  0  0  0  0  0  0  0  0  0  0  0
  142.0381   73.0074  220.6481 H   0  0  0  0  0  0  0  0  0  0  0  0
  143.8973   72.0419  218.8170 H   0  0  0  0  0  0  0  0  0  0  0  0
  146.5635   71.7979  219.0659 H   0  0  0  0  0  0  0  0  0  0  0  0
  147.3402   73.3480  221.1156 H   0  0  0  0  0  0  0  0  0  0  0  0
  139.0335   69.9761  221.9588 H   0  0  0  0  0  0  0  0  0  0  0  0
  139.1974   68.3396  223.8088 H   0  0  0  0  0  0  0  0  0  0  0  0
  139.8353   67.8788  226.0902 H   0  0  0  0  0  0  0  0  0  0  0  0
  141.5152   71.0355  228.4788 H   0  0  0  0  0  0  0  0  0  0  0  0
  141.3041   72.5863  226.5720 H   0  0  0  0  0  0  0  0  0  0  0  0
  1  2  2  0
  2  3  1  0
  3  4  1  0
  4  5  1  0
  5  6  2  0
  5  7  1  0
  7  8  1  0
  8  9  1  0
  9 10  1  0
  9 11  1  0
 11 12  1  0
 12 13  1  0
 13 14  1  0
 14 15  1  0
 15 16  2  0
 16 17  1  0
 17 18  2  0
  2 19  1  0
 19 20  2  0
 20 21  1  0
 21 22  2  0
 22 23  1  0
 23 24  2  0
 24 25  1  0
 24 26  1  0
 26 27  2  0
 27 28  1  0
 28 29  2  0
 12  7  1  0
 18 14  1  0
 29 19  1  0
 28 22  1  0
  3 30  1  0
  4 31  1  0
  4 32  1  0
  8 33  1  0
  8 34  1  0
  9 35  1  6
 11 36  1  0
 11 37  1  0
 12 38  1  6
 13 39  1  0
 13 40  1  0
 15 41  1  0
 16 42  1  0
 17 43  1  0
 20 44  1  0
 21 45  1  0
 23 46  1  0
 26 47  1  0
 27 48  1  0
M  END
>  <smiles>  (10) 
O=C(NCC(=O)N1C[C@H](F)C[C@H]1Cn1cccn1)c1ccc2cc(Cl)ccc2n1

>  <score_type>  (10) 
oracle

>  <origin>  (10) 
autodockgpu

>  <m_score__min__energy>  (10) 
-8.2300000000000004

>  <m_primary>  (10) 
energy

>  <meeko>  (10) 
{"free_energy": -7.72, "intermolecular_energy": -9.51, "internal_energy": -1.6, "cluster_size": 2, "cluster_id": 2, "rank_in_cluster": 1}

>  <energy>  (10) 
-7.44

>  <cluster_rmsd>  (10) 
1.8

>  <rmsd>  (10) 
271.8

>  <cluster>  (10) 
1

$$$$

     RDKit          3D

 48 51  0  0  0  0  0  0  0  0999 V2000
  140.0390   72.1940  220.7590 O   0  0  0  0  0  0  0  0  0  0  0  0
  139.9060   72.6110  221.9540 C   0  0  0  0  0  0  0  0  0  0  0  0
  139.6830   73.9920  222.1880 N   0  0  0  0  0  0  0  0  0  0  0  0
  139.5980   74.9670  221.0930 C   0  0  0  0  0  0  0  0  0  0  0  0
  140.2030   76.2410  221.4670 C   0  0  0  0  0  0  0  0  0  0  0  0
  140.1550   76.5640  222.7010 O   0  0  0  0  0  0  0  0  0  0  0  0
  140.8400   77.1680  220.6140 N   0  0  0  0  0  0  0  0  0  0  0  0
  141.3350   76.7330  219.2860 C   0  0  0  0  0  0  0  0  0  0  0  0
  141.6190   77.9800  218.5160 C   0  0  2  0  0  0  0  0  0  0  0  0
  142.9740   78.2630  218.6310 F   0  0  0  0  0  0  0  0  0  0  0  0
  140.8560   79.0400  219.2810 C   0  0  0  0  0  0  0  0  0  0  0  0
  141.1520   78.5600  220.7140 C   0  0  1  0  0  0  0  0  0  0  0  0
  140.3770   79.3510  221.7090 C   0  0  0  0  0  0  0  0  0  0  0  0
  141.3820   80.0090  222.5700 N   0  0  0  0  0  0  0  0  0  0  0  0
  142.6700   79.6070  222.7240 C   0  0  0  0  0  0  0  0  0  0  0  0
  143.2440   80.5000  223.6100 C   0  0  0  0  0  0  0  0  0  0  0  0
  142.2870   81.4260  223.9740 C   0  0  0  0  0  0  0  0  0  0  0  0
  141.1640   81.0850  223.3130 N   0  0  0  0  0  0  0  0  0  0  0  0
  139.9810   71.6850  223.0810 C   0  0  0  0  0  0  0  0  0  0  0  0
  139.5350   70.3870  222.9140 C   0  0  0  0  0  0  0  0  0  0  0  0
  139.5670   69.4450  223.9210 C   0  0  0  0  0  0  0  0  0  0  0  0
  140.0720   69.8350  225.1400 C   0  0  0  0  0  0  0  0  0  0  0  0
  140.1260   68.9300  226.1800 C   0  0  0  0  0  0  0  0  0  0  0  0
  140.6350   69.3380  227.3960 C   0  0  0  0  0  0  0  0  0  0  0  0
  140.6960   68.1630  228.7140 Cl  0  0  0  0  0  0  0  0  0  0  0  0
  141.0800   70.6330  227.5600 C   0  0  0  0  0  0  0  0  0  0  0  0
  141.0150   71.5170  226.5070 C   0  0  0  0  0  0  0  0  0  0  0  0
  140.5100   71.1350  225.2790 C   0  0  0  0  0  0  0  0  0  0  0  0
  140.4690   72.0350  224.2830 N   0  0  0  0  0  0  0  0  0  0  0  0
  139.5790   74.2890  223.1910 H   0  0  0  0  0  0  0  0  0  0  0  0
  140.1239   74.5652  220.2143 H   0  0  0  0  0  0  0  0  0  0  0  0
  138.5359   75.1413  220.8660 H   0  0  0  0  0  0  0  0  0  0  0  0
  142.2528   76.1371  219.3980 H   0  0  0  0  0  0  0  0  0  0  0  0
  140.5949   76.1040  218.7697 H   0  0  0  0  0  0  0  0  0  0  0  0
  141.3480   77.9138  217.4520 H   0  0  0  0  0  0  0  0  0  0  0  0
  141.2515   80.0492  219.0938 H   0  0  0  0  0  0  0  0  0  0  0  0
  139.7908   79.1354  219.0238 H   0  0  0  0  0  0  0  0  0  0  0  0
  142.1791   78.7038  221.0804 H   0  0  0  0  0  0  0  0  0  0  0  0
  139.7563   80.1035  221.2006 H   0  0  0  0  0  0  0  0  0  0  0  0
  139.6980   78.7129  222.2937 H   0  0  0  0  0  0  0  0  0  0  0  0
  143.1572   78.7465  222.2422 H   0  0  0  0  0  0  0  0  0  0  0  0
  144.2851   80.4766  223.9642 H   0  0  0  0  0  0  0  0  0  0  0  0
  142.4157   82.2722  224.6649 H   0  0  0  0  0  0  0  0  0  0  0  0
  139.1361   70.0918  221.9323 H   0  0  0  0  0  0  0  0  0  0  0  0
  139.2025   68.4204  223.7557 H   0  0  0  0  0  0  0  0  0  0  0  0
  139.7687   67.8988  226.0419 H   0  0  0  0  0  0  0  0  0  0  0  0
  141.4856   70.9584  228.5293 H   0  0  0  0  0  0  0  0  0  0  0  0
  141.3722   72.5481  226.6459 H   0  0  0  0  0  0  0  0  0  0  0  0
  1  2  2  0
  2  3  1  0
  3  4  1  0
  4  5  1  0
  5  6  2  0
  5  7  1  0
  7  8  1  0
  8  9  1  0
  9 10  1  0
  9 11  1  0
 11 12  1  0
 12 13  1  0
 13 14  1  0
 14 15  1  0
 15 16  2  0
 16 17  1  0
 17 18  2  0
  2 19  1  0
 19 20  2  0
 20 21  1  0
 21 22  2  0
 22 23  1  0
 23 24  2  0
 24 25  1  0
 24 26  1  0
 26 27  2  0
 27 28  1  0
 28 29  2  0
 12  7  1  0
 18 14  1  0
 29 19  1  0
 28 22  1  0
  3 30  1  0
  4 31  1  0
  4 32  1  0
  8 33  1  0
  8 34  1  0
  9 35  1  6
 11 36  1  0
 11 37  1  0
 12 38  1  1
 13 39  1  0
 13 40  1  0
 15 41  1  0
 16 42  1  0
 17 43  1  0
 20 44  1  0
 21 45  1  0
 23 46  1  0
 26 47  1  0
 27 48  1  0
M  END
>  <smiles>  (11) 
O=C(NCC(=O)N1C[C@H](F)C[C@H]1Cn1cccn1)c1ccc2cc(Cl)ccc2n1

>  <score_type>  (11) 
oracle

>  <origin>  (11) 
autodockgpu

>  <m_score__min__energy>  (11) 
-8.2300000000000004

>  <m_primary>  (11) 
energy

>  <meeko>  (11) 
{"free_energy": -7.93, "intermolecular_energy": -9.72, "internal_energy": -1.68, "cluster_size": 14, "cluster_id": 1, "rank_in_cluster": 6}

>  <energy>  (11) 
-7.43

>  <cluster_rmsd>  (11) 
1.7

>  <rmsd>  (11) 
271.81

>  <cluster>  (11) 
1

$$$$

     RDKit          3D

 48 51  0  0  0  0  0  0  0  0999 V2000
  139.9910   72.0280  220.7750 O   0  0  0  0  0  0  0  0  0  0  0  0
  139.8670   72.4660  221.9640 C   0  0  0  0  0  0  0  0  0  0  0  0
  139.6420   73.8510  222.1740 N   0  0  0  0  0  0  0  0  0  0  0  0
  139.5460   74.8060  221.0620 C   0  0  0  0  0  0  0  0  0  0  0  0
  140.7180   75.6730  221.0040 C   0  0  0  0  0  0  0  0  0  0  0  0
  141.1330   76.1590  222.1090 O   0  0  0  0  0  0  0  0  0  0  0  0
  141.4520   76.0430  219.8570 N   0  0  0  0  0  0  0  0  0  0  0  0
  141.7800   77.4680  219.6150 C   0  0  0  0  0  0  0  0  0  0  0  0
  142.8320   77.4820  218.5560 C   0  0  2  0  0  0  0  0  0  0  0  0
  142.2120   77.6940  217.3310 F   0  0  0  0  0  0  0  0  0  0  0  0
  143.3570   76.0630  218.5710 C   0  0  0  0  0  0  0  0  0  0  0  0
  142.0250   75.3170  218.7660 C   0  0  1  0  0  0  0  0  0  0  0  0
  142.2570   73.8620  218.9780 C   0  0  0  0  0  0  0  0  0  0  0  0
  143.6130   73.7510  219.5560 N   0  0  0  0  0  0  0  0  0  0  0  0
  143.9380   74.0020  220.8510 C   0  0  0  0  0  0  0  0  0  0  0  0
  145.2980   73.7750  220.9530 C   0  0  0  0  0  0  0  0  0  0  0  0
  145.7670   73.3890  219.7140 C   0  0  0  0  0  0  0  0  0  0  0  0
  144.7010   73.3880  218.8910 N   0  0  0  0  0  0  0  0  0  0  0  0
  139.9540   71.5600  223.1060 C   0  0  0  0  0  0  0  0  0  0  0  0
  139.5120   70.2570  222.9640 C   0  0  0  0  0  0  0  0  0  0  0  0
  139.5550   69.3330  223.9880 C   0  0  0  0  0  0  0  0  0  0  0  0
  140.0650   69.7480  225.1970 C   0  0  0  0  0  0  0  0  0  0  0  0
  140.1300   68.8610  226.2520 C   0  0  0  0  0  0  0  0  0  0  0  0
  140.6440   69.2930  227.4580 C   0  0  0  0  0  0  0  0  0  0  0  0
  140.7180   68.1430  228.7950 Cl  0  0  0  0  0  0  0  0  0  0  0  0
  141.0840   70.5940  227.5960 C   0  0  0  0  0  0  0  0  0  0  0  0
  141.0080   71.4580  226.5280 C   0  0  0  0  0  0  0  0  0  0  0  0
  140.4980   71.0520  225.3100 C   0  0  0  0  0  0  0  0  0  0  0  0
  140.4460   71.9340  224.2980 N   0  0  0  0  0  0  0  0  0  0  0  0
  139.5460   74.1650  223.1730 H   0  0  0  0  0  0  0  0  0  0  0  0
  139.4657   74.2486  220.1171 H   0  0  0  0  0  0  0  0  0  0  0  0
  138.6572   75.4345  221.2203 H   0  0  0  0  0  0  0  0  0  0  0  0
  140.8872   78.0114  219.2721 H   0  0  0  0  0  0  0  0  0  0  0  0
  142.1318   77.9589  220.5344 H   0  0  0  0  0  0  0  0  0  0  0  0
  143.6064   78.2474  218.7125 H   0  0  0  0  0  0  0  0  0  0  0  0
  143.8458   75.7938  217.6231 H   0  0  0  0  0  0  0  0  0  0  0  0
  144.1320   75.8527  219.3227 H   0  0  0  0  0  0  0  0  0  0  0  0
  141.3393   75.3006  217.9060 H   0  0  0  0  0  0  0  0  0  0  0  0
  141.5095   73.4521  219.6731 H   0  0  0  0  0  0  0  0  0  0  0  0
  142.1696   73.2967  218.0384 H   0  0  0  0  0  0  0  0  0  0  0  0
  143.2578   74.3208  221.6545 H   0  0  0  0  0  0  0  0  0  0  0  0
  145.9026   73.8835  221.8655 H   0  0  0  0  0  0  0  0  0  0  0  0
  146.8041   73.1333  219.4511 H   0  0  0  0  0  0  0  0  0  0  0  0
  139.1078   69.9430  221.9903 H   0  0  0  0  0  0  0  0  0  0  0  0
  139.1952   68.3036  223.8434 H   0  0  0  0  0  0  0  0  0  0  0  0
  139.7777   67.8257  226.1338 H   0  0  0  0  0  0  0  0  0  0  0  0
  141.4941   70.9389  228.5567 H   0  0  0  0  0  0  0  0  0  0  0  0
  141.3605   72.4932  226.6464 H   0  0  0  0  0  0  0  0  0  0  0  0
  1  2  2  0
  2  3  1  0
  3  4  1  0
  4  5  1  0
  5  6  2  0
  5  7  1  0
  7  8  1  0
  8  9  1  0
  9 10  1  0
  9 11  1  0
 11 12  1  0
 12 13  1  0
 13 14  1  0
 14 15  1  0
 15 16  2  0
 16 17  1  0
 17 18  2  0
  2 19  1  0
 19 20  2  0
 20 21  1  0
 21 22  2  0
 22 23  1  0
 23 24  2  0
 24 25  1  0
 24 26  1  0
 26 27  2  0
 27 28  1  0
 28 29  2  0
 12  7  1  0
 18 14  1  0
 29 19  1  0
 28 22  1  0
  3 30  1  0
  4 31  1  0
  4 32  1  0
  8 33  1  0
  8 34  1  0
  9 35  1  1
 11 36  1  0
 11 37  1  0
 12 38  1  6
 13 39  1  0
 13 40  1  0
 15 41  1  0
 16 42  1  0
 17 43  1  0
 20 44  1  0
 21 45  1  0
 23 46  1  0
 26 47  1  0
 27 48  1  0
M  END
>  <smiles>  (12) 
O=C(NCC(=O)N1C[C@H](F)C[C@H]1Cn1cccn1)c1ccc2cc(Cl)ccc2n1

>  <score_type>  (12) 
oracle

>  <origin>  (12) 
autodockgpu

>  <m_score__min__energy>  (12) 
-8.2300000000000004

>  <m_primary>  (12) 
energy

>  <meeko>  (12) 
{"free_energy": -7.35, "intermolecular_energy": -9.14, "internal_energy": -1.78, "cluster_size": 2, "cluster_id": 2, "rank_in_cluster": 2}

>  <energy>  (12) 
-7.4

>  <cluster_rmsd>  (12) 
1.77

>  <rmsd>  (12) 
271.74

>  <cluster>  (12) 
1

$$$$

     RDKit          3D

 48 51  0  0  0  0  0  0  0  0999 V2000
  139.7670   72.2680  220.6880 O   0  0  0  0  0  0  0  0  0  0  0  0
  139.7350   72.7120  221.8800 C   0  0  0  0  0  0  0  0  0  0  0  0
  139.5640   74.1030  222.1000 N   0  0  0  0  0  0  0  0  0  0  0  0
  139.4210   75.0580  220.9930 C   0  0  0  0  0  0  0  0  0  0  0  0
  139.3120   76.4270  221.4830 C   0  0  0  0  0  0  0  0  0  0  0  0
  139.1170   76.5800  222.7360 O   0  0  0  0  0  0  0  0  0  0  0  0
  139.3960   77.6160  220.7270 N   0  0  0  0  0  0  0  0  0  0  0  0
  138.1660   78.3780  220.4060 C   0  0  0  0  0  0  0  0  0  0  0  0
  138.6160   79.7190  219.9280 C   0  0  2  0  0  0  0  0  0  0  0  0
  138.6450   79.6980  218.5390 F   0  0  0  0  0  0  0  0  0  0  0  0
  140.0450   79.7990  220.4210 C   0  0  0  0  0  0  0  0  0  0  0  0
  140.4760   78.3480  220.1420 C   0  0  1  0  0  0  0  0  0  0  0  0
  141.8370   78.0850  220.6870 C   0  0  0  0  0  0  0  0  0  0  0  0
  141.8710   78.7330  222.0140 N   0  0  0  0  0  0  0  0  0  0  0  0
  142.5200   79.8890  222.3090 C   0  0  0  0  0  0  0  0  0  0  0  0
  142.2890   80.1250  223.6520 C   0  0  0  0  0  0  0  0  0  0  0  0
  141.5010   79.1030  224.1410 C   0  0  0  0  0  0  0  0  0  0  0  0
  141.2710   78.2750  223.1040 N   0  0  0  0  0  0  0  0  0  0  0  0
  139.8710   71.8060  223.0180 C   0  0  0  0  0  0  0  0  0  0  0  0
  139.4850   70.4860  222.8750 C   0  0  0  0  0  0  0  0  0  0  0  0
  139.5770   69.5610  223.8940 C   0  0  0  0  0  0  0  0  0  0  0  0
  140.0800   69.9920  225.1000 C   0  0  0  0  0  0  0  0  0  0  0  0
  140.1930   69.1050  226.1520 C   0  0  0  0  0  0  0  0  0  0  0  0
  140.7000   69.5550  227.3540 C   0  0  0  0  0  0  0  0  0  0  0  0
  140.8370   68.4030  228.6860 Cl  0  0  0  0  0  0  0  0  0  0  0  0
  141.0850   70.8720  227.4930 C   0  0  0  0  0  0  0  0  0  0  0  0
  140.9620   71.7370  226.4300 C   0  0  0  0  0  0  0  0  0  0  0  0
  140.4580   71.3140  225.2150 C   0  0  0  0  0  0  0  0  0  0  0  0
  140.3590   72.1960  224.2070 N   0  0  0  0  0  0  0  0  0  0  0  0
  139.5430   74.4210  223.1020 H   0  0  0  0  0  0  0  0  0  0  0  0
  140.3014   74.9812  220.3380 H   0  0  0  0  0  0  0  0  0  0  0  0
  138.5016   74.8133  220.4409 H   0  0  0  0  0  0  0  0  0  0  0  0
  137.5949   77.8649  219.6183 H   0  0  0  0  0  0  0  0  0  0  0  0
  137.5100   78.4664  221.2845 H   0  0  0  0  0  0  0  0  0  0  0  0
  137.9773   80.5473  220.2686 H   0  0  0  0  0  0  0  0  0  0  0  0
  140.6399   80.5240  219.8462 H   0  0  0  0  0  0  0  0  0  0  0  0
  140.1693   80.1385  221.4599 H   0  0  0  0  0  0  0  0  0  0  0  0
  140.6102   78.0675  219.0869 H   0  0  0  0  0  0  0  0  0  0  0  0
  142.0080   77.0028  220.7846 H   0  0  0  0  0  0  0  0  0  0  0  0
  142.6217   78.4784  220.0240 H   0  0  0  0  0  0  0  0  0  0  0  0
  143.1097   80.5112  221.6197 H   0  0  0  0  0  0  0  0  0  0  0  0
  142.6681   80.9801  224.2308 H   0  0  0  0  0  0  0  0  0  0  0  0
  141.1342   78.9877  225.1716 H   0  0  0  0  0  0  0  0  0  0  0  0
  139.0861   70.1584  221.9036 H   0  0  0  0  0  0  0  0  0  0  0  0
  139.2601   68.5178  223.7480 H   0  0  0  0  0  0  0  0  0  0  0  0
  139.8837   68.0560  226.0339 H   0  0  0  0  0  0  0  0  0  0  0  0
  141.4894   71.2300  228.4513 H   0  0  0  0  0  0  0  0  0  0  0  0
  141.2710   72.7859  226.5498 H   0  0  0  0  0  0  0  0  0  0  0  0
  1  2  2  0
  2  3  1  0
  3  4  1  0
  4  5  1  0
  5  6  2  0
  5  7  1  0
  7  8  1  0
  8  9  1  0
  9 10  1  0
  9 11  1  0
 11 12  1  0
 12 13  1  0
 13 14  1  0
 14 15  1  0
 15 16  2  0
 16 17  1  0
 17 18  2  0
  2 19  1  0
 19 20  2  0
 20 21  1  0
 21 22  2  0
 22 23  1  0
 23 24  2  0
 24 25  1  0
 24 26  1  0
 26 27  2  0
 27 28  1  0
 28 29  2  0
 12  7  1  0
 18 14  1  0
 29 19  1  0
 28 22  1  0
  3 30  1  0
  4 31  1  0
  4 32  1  0
  8 33  1  0
  8 34  1  0
  9 35  1  6
 11 36  1  0
 11 37  1  0
 12 38  1  6
 13 39  1  0
 13 40  1  0
 15 41  1  0
 16 42  1  0
 17 43  1  0
 20 44  1  0
 21 45  1  0
 23 46  1  0
 26 47  1  0
 27 48  1  0
M  END
>  <smiles>  (13) 
O=C(NCC(=O)N1C[C@H](F)C[C@H]1Cn1cccn1)c1ccc2cc(Cl)ccc2n1

>  <score_type>  (13) 
oracle

>  <origin>  (13) 
autodockgpu

>  <m_score__min__energy>  (13) 
-8.2300000000000004

>  <m_primary>  (13) 
energy

>  <meeko>  (13) 
{"free_energy": -7.4, "intermolecular_energy": -9.19, "internal_energy": -2.0, "cluster_size": 14, "cluster_id": 1, "rank_in_cluster": 12}

>  <energy>  (13) 
-7.39

>  <cluster_rmsd>  (13) 
1.66

>  <rmsd>  (13) 
271.68

>  <cluster>  (13) 
1

$$$$

     RDKit          3D

 48 51  0  0  0  0  0  0  0  0999 V2000
  141.6680   73.0490  220.6240 O   0  0  0  0  0  0  0  0  0  0  0  0
  141.0130   73.8140  221.4010 C   0  0  0  0  0  0  0  0  0  0  0  0
  140.1010   73.2480  222.3280 N   0  0  0  0  0  0  0  0  0  0  0  0
  139.8820   71.7990  222.4240 C   0  0  0  0  0  0  0  0  0  0  0  0
  139.5150   71.4060  223.7800 C   0  0  0  0  0  0  0  0  0  0  0  0
  140.3330   71.7070  224.7120 O   0  0  0  0  0  0  0  0  0  0  0  0
  138.3480   70.7230  224.1860 N   0  0  0  0  0  0  0  0  0  0  0  0
  137.0130   71.2780  223.8570 C   0  0  0  0  0  0  0  0  0  0  0  0
  136.0320   70.1790  224.0980 C   0  0  2  0  0  0  0  0  0  0  0  0
  135.4930   70.3470  225.3680 F   0  0  0  0  0  0  0  0  0  0  0  0
  136.9000   68.9390  224.1220 C   0  0  0  0  0  0  0  0  0  0  0  0
  138.1040   69.5050  224.8960 C   0  0  1  0  0  0  0  0  0  0  0  0
  139.2190   68.5190  224.9380 C   0  0  0  0  0  0  0  0  0  0  0  0
  139.8040   68.6310  226.2910 N   0  0  0  0  0  0  0  0  0  0  0  0
  139.5900   69.6540  227.1580 C   0  0  0  0  0  0  0  0  0  0  0  0
  140.3240   69.3530  228.2900 C   0  0  0  0  0  0  0  0  0  0  0  0
  140.9680   68.1500  228.0830 C   0  0  0  0  0  0  0  0  0  0  0  0
  140.6200   67.7460  226.8460 N   0  0  0  0  0  0  0  0  0  0  0  0
  141.1920   75.2630  221.3480 C   0  0  0  0  0  0  0  0  0  0  0  0
  141.9480   75.8090  220.3260 C   0  0  0  0  0  0  0  0  0  0  0  0
  142.1710   77.1640  220.1970 C   0  0  0  0  0  0  0  0  0  0  0  0
  141.6050   77.9930  221.1380 C   0  0  0  0  0  0  0  0  0  0  0  0
  141.7970   79.3570  221.0530 C   0  0  0  0  0  0  0  0  0  0  0  0
  141.2230   80.1740  222.0050 C   0  0  0  0  0  0  0  0  0  0  0  0
  141.4810   81.9160  221.8770 Cl  0  0  0  0  0  0  0  0  0  0  0  0
  140.4700   79.6270  223.0230 C   0  0  0  0  0  0  0  0  0  0  0  0
  140.2920   78.2640  223.0860 C   0  0  0  0  0  0  0  0  0  0  0  0
  140.8560   77.4220  222.1460 C   0  0  0  0  0  0  0  0  0  0  0  0
  140.6530   76.0980  222.2510 N   0  0  0  0  0  0  0  0  0  0  0  0
  139.5830   73.9200  222.9490 H   0  0  0  0  0  0  0  0  0  0  0  0
  139.0722   71.5129  221.7367 H   0  0  0  0  0  0  0  0  0  0  0  0
  140.8189   71.2883  222.1566 H   0  0  0  0  0  0  0  0  0  0  0  0
  136.7880   72.1383  224.5045 H   0  0  0  0  0  0  0  0  0  0  0  0
  136.9716   71.6299  222.8156 H   0  0  0  0  0  0  0  0  0  0  0  0
  135.2195   70.1424  223.3574 H   0  0  0  0  0  0  0  0  0  0  0  0
  136.4181   68.1082  224.6583 H   0  0  0  0  0  0  0  0  0  0  0  0
  137.1312   68.5035  223.1387 H   0  0  0  0  0  0  0  0  0  0  0  0
  137.9527   69.7021  225.9676 H   0  0  0  0  0  0  0  0  0  0  0  0
  138.8372   67.5014  224.7687 H   0  0  0  0  0  0  0  0  0  0  0  0
  139.9661   68.7187  224.1558 H   0  0  0  0  0  0  0  0  0  0  0  0
  138.9609   70.5412  226.9932 H   0  0  0  0  0  0  0  0  0  0  0  0
  140.3845   69.9674  229.2004 H   0  0  0  0  0  0  0  0  0  0  0  0
  141.6319   67.6264  228.7866 H   0  0  0  0  0  0  0  0  0  0  0  0
  142.3917   75.1311  219.5819 H   0  0  0  0  0  0  0  0  0  0  0  0
  142.7784   77.5666  219.3730 H   0  0  0  0  0  0  0  0  0  0  0  0
  142.3987   79.7863  220.2384 H   0  0  0  0  0  0  0  0  0  0  0  0
  140.0130   80.2786  223.7824 H   0  0  0  0  0  0  0  0  0  0  0  0
  139.6890   77.8361  223.9004 H   0  0  0  0  0  0  0  0  0  0  0  0
  1  2  2  0
  2  3  1  0
  3  4  1  0
  4  5  1  0
  5  6  2  0
  5  7  1  0
  7  8  1  0
  8  9  1  0
  9 10  1  0
  9 11  1  0
 11 12  1  0
 12 13  1  0
 13 14  1  0
 14 15  1  0
 15 16  2  0
 16 17  1  0
 17 18  2  0
  2 19  1  0
 19 20  2  0
 20 21  1  0
 21 22  2  0
 22 23  1  0
 23 24  2  0
 24 25  1  0
 24 26  1  0
 26 27  2  0
 27 28  1  0
 28 29  2  0
 12  7  1  0
 18 14  1  0
 29 19  1  0
 28 22  1  0
  3 30  1  0
  4 31  1  0
  4 32  1  0
  8 33  1  0
  8 34  1  0
  9 35  1  6
 11 36  1  0
 11 37  1  0
 12 38  1  1
 13 39  1  0
 13 40  1  0
 15 41  1  0
 16 42  1  0
 17 43  1  0
 20 44  1  0
 21 45  1  0
 23 46  1  0
 26 47  1  0
 27 48  1  0
M  END
>  <smiles>  (14) 
O=C(NCC(=O)N1C[C@H](F)C[C@H]1Cn1cccn1)c1ccc2cc(Cl)ccc2n1

>  <score_type>  (14) 
oracle

>  <origin>  (14) 
autodockgpu

>  <m_score__min__energy>  (14) 
-8.2300000000000004

>  <m_primary>  (14) 
energy

>  <meeko>  (14) 
{"free_energy": -7.42, "intermolecular_energy": -9.21, "internal_energy": -1.52, "cluster_size": 1, "cluster_id": 3, "rank_in_cluster": 1}

>  <energy>  (14) 
-7.36

>  <cluster_rmsd>  (14) 
1.65

>  <rmsd>  (14) 
271.62

>  <cluster>  (14) 
1

$$$$

     RDKit          3D

 48 51  0  0  0  0  0  0  0  0999 V2000
  140.7040   72.6260  221.0080 O   0  0  0  0  0  0  0  0  0  0  0  0
  140.0440   72.8400  222.0750 C   0  0  0  0  0  0  0  0  0  0  0  0
  139.2680   74.0220  222.1870 N   0  0  0  0  0  0  0  0  0  0  0  0
  139.1970   75.0170  221.1090 C   0  0  0  0  0  0  0  0  0  0  0  0
  140.1020   76.1340  221.3560 C   0  0  0  0  0  0  0  0  0  0  0  0
  139.7360   76.9940  222.2260 O   0  0  0  0  0  0  0  0  0  0  0  0
  141.3470   76.3790  220.7390 N   0  0  0  0  0  0  0  0  0  0  0  0
  142.1680   75.2440  220.2520 C   0  0  0  0  0  0  0  0  0  0  0  0
  143.2110   75.8330  219.3610 C   0  0  2  0  0  0  0  0  0  0  0  0
  144.3720   76.0060  220.1050 F   0  0  0  0  0  0  0  0  0  0  0  0
  142.6570   77.2040  219.0400 C   0  0  0  0  0  0  0  0  0  0  0  0
  142.0870   77.5620  220.4230 C   0  0  1  0  0  0  0  0  0  0  0  0
  141.3190   78.8370  220.3670 C   0  0  0  0  0  0  0  0  0  0  0  0
  141.4710   79.4570  221.7000 N   0  0  0  0  0  0  0  0  0  0  0  0
  142.4990   79.2340  222.5590 C   0  0  0  0  0  0  0  0  0  0  0  0
  142.2400   80.0110  223.6730 C   0  0  0  0  0  0  0  0  0  0  0  0
  141.0580   80.6900  223.4630 C   0  0  0  0  0  0  0  0  0  0  0  0
  140.6230   80.3200  222.2430 N   0  0  0  0  0  0  0  0  0  0  0  0
  140.0780   71.8840  223.1780 C   0  0  0  0  0  0  0  0  0  0  0  0
  139.5920   70.6060  222.9740 C   0  0  0  0  0  0  0  0  0  0  0  0
  139.5830   69.6380  223.9570 C   0  0  0  0  0  0  0  0  0  0  0  0
  140.0880   69.9810  225.1900 C   0  0  0  0  0  0  0  0  0  0  0  0
  140.1020   69.0480  226.2080 C   0  0  0  0  0  0  0  0  0  0  0  0
  140.6120   69.4100  227.4380 C   0  0  0  0  0  0  0  0  0  0  0  0
  140.6210   68.2010  228.7260 Cl  0  0  0  0  0  0  0  0  0  0  0  0
  141.0960   70.6860  227.6390 C   0  0  0  0  0  0  0  0  0  0  0  0
  141.0700   71.5970  226.6090 C   0  0  0  0  0  0  0  0  0  0  0  0
  140.5660   71.2620  225.3670 C   0  0  0  0  0  0  0  0  0  0  0  0
  140.5630   72.1880  224.3930 N   0  0  0  0  0  0  0  0  0  0  0  0
  138.7400   74.1540  223.0860 H   0  0  0  0  0  0  0  0  0  0  0  0
  139.4730   74.5359  220.1590 H   0  0  0  0  0  0  0  0  0  0  0  0
  138.1694   75.4070  221.0646 H   0  0  0  0  0  0  0  0  0  0  0  0
  142.6399   74.7243  221.0989 H   0  0  0  0  0  0  0  0  0  0  0  0
  141.5528   74.5073  219.7146 H   0  0  0  0  0  0  0  0  0  0  0  0
  143.4320   75.2203  218.4746 H   0  0  0  0  0  0  0  0  0  0  0  0
  143.4448   77.9039  218.7246 H   0  0  0  0  0  0  0  0  0  0  0  0
  141.9387   77.2414  218.2078 H   0  0  0  0  0  0  0  0  0  0  0  0
  142.8182   77.7868  221.2134 H   0  0  0  0  0  0  0  0  0  0  0  0
  141.7288   79.4972  219.5884 H   0  0  0  0  0  0  0  0  0  0  0  0
  140.2615   78.6623  220.1197 H   0  0  0  0  0  0  0  0  0  0  0  0
  143.3619   78.5704  222.4008 H   0  0  0  0  0  0  0  0  0  0  0  0
  142.8691   80.0764  224.5729 H   0  0  0  0  0  0  0  0  0  0  0  0
  140.5686   81.3928  224.1534 H   0  0  0  0  0  0  0  0  0  0  0  0
  139.1938   70.3488  221.9814 H   0  0  0  0  0  0  0  0  0  0  0  0
  139.1871   68.6303  223.7624 H   0  0  0  0  0  0  0  0  0  0  0  0
  139.7129   68.0327  226.0411 H   0  0  0  0  0  0  0  0  0  0  0  0
  141.5015   70.9740  228.6201 H   0  0  0  0  0  0  0  0  0  0  0  0
  141.4582   72.6124  226.7774 H   0  0  0  0  0  0  0  0  0  0  0  0
  1  2  2  0
  2  3  1  0
  3  4  1  0
  4  5  1  0
  5  6  2  0
  5  7  1  0
  7  8  1  0
  8  9  1  0
  9 10  1  0
  9 11  1  0
 11 12  1  0
 12 13  1  0
 13 14  1  0
 14 15  1  0
 15 16  2  0
 16 17  1  0
 17 18  2  0
  2 19  1  0
 19 20  2  0
 20 21  1  0
 21 22  2  0
 22 23  1  0
 23 24  2  0
 24 25  1  0
 24 26  1  0
 26 27  2  0
 27 28  1  0
 28 29  2  0
 12  7  1  0
 18 14  1  0
 29 19  1  0
 28 22  1  0
  3 30  1  0
  4 31  1  0
  4 32  1  0
  8 33  1  0
  8 34  1  0
  9 35  1  6
 11 36  1  0
 11 37  1  0
 12 38  1  1
 13 39  1  0
 13 40  1  0
 15 41  1  0
 16 42  1  0
 17 43  1  0
 20 44  1  0
 21 45  1  0
 23 46  1  0
 26 47  1  0
 27 48  1  0
M  END
>  <smiles>  (15) 
O=C(NCC(=O)N1C[C@H](F)C[C@H]1Cn1cccn1)c1ccc2cc(Cl)ccc2n1

>  <score_type>  (15) 
oracle

>  <origin>  (15) 
autodockgpu

>  <m_score__min__energy>  (15) 
-8.2300000000000004

>  <m_primary>  (15) 
energy

>  <meeko>  (15) 
{"free_energy": -8.06, "intermolecular_energy": -9.85, "internal_energy": -1.46, "cluster_size": 14, "cluster_id": 1, "rank_in_cluster": 4}

>  <energy>  (15) 
-7.72

>  <cluster_rmsd>  (15) 
0.0

>  <rmsd>  (15) 
271.39

>  <cluster>  (15) 
2

$$$$

     RDKit          3D

 48 51  0  0  0  0  0  0  0  0999 V2000
  136.6670   77.4070  222.7740 O   0  0  0  0  0  0  0  0  0  0  0  0
  136.9180   76.2000  223.0920 C   0  0  0  0  0  0  0  0  0  0  0  0
  138.1590   75.6260  222.7160 N   0  0  0  0  0  0  0  0  0  0  0  0
  139.1740   76.3780  221.9670 C   0  0  0  0  0  0  0  0  0  0  0  0
  140.3210   75.5390  221.6360 C   0  0  0  0  0  0  0  0  0  0  0  0
  140.2880   74.3290  222.0410 O   0  0  0  0  0  0  0  0  0  0  0  0
  141.4740   75.9130  220.9130 N   0  0  0  0  0  0  0  0  0  0  0  0
  142.3640   74.8700  220.3490 C   0  0  0  0  0  0  0  0  0  0  0  0
  143.2560   75.5640  219.3730 C   0  0  2  0  0  0  0  0  0  0  0  0
  144.4530   75.8610  220.0130 F   0  0  0  0  0  0  0  0  0  0  0  0
  142.5330   76.8670  219.1100 C   0  0  0  0  0  0  0  0  0  0  0  0
  142.0520   77.1670  220.5410 C   0  0  1  0  0  0  0  0  0  0  0  0
  141.1510   78.3520  220.5620 C   0  0  0  0  0  0  0  0  0  0  0  0
  141.5300   79.1250  221.7640 N   0  0  0  0  0  0  0  0  0  0  0  0
  141.5280   78.6500  223.0360 C   0  0  0  0  0  0  0  0  0  0  0  0
  141.9470   79.6990  223.8340 C   0  0  0  0  0  0  0  0  0  0  0  0
  142.1940   80.7880  223.0240 C   0  0  0  0  0  0  0  0  0  0  0  0
  141.9250   80.3910  221.7660 N   0  0  0  0  0  0  0  0  0  0  0  0
  135.9430   75.4070  223.8360 C   0  0  0  0  0  0  0  0  0  0  0  0
  135.7580   74.0790  223.4950 C   0  0  0  0  0  0  0  0  0  0  0  0
  134.8600   73.2550  224.1410 C   0  0  0  0  0  0  0  0  0  0  0  0
  134.1270   73.7980  225.1720 C   0  0  0  0  0  0  0  0  0  0  0  0
  133.2160   73.0150  225.8510 C   0  0  0  0  0  0  0  0  0  0  0  0
  132.4900   73.5760  226.8810 C   0  0  0  0  0  0  0  0  0  0  0  0
  131.3300   72.5560  227.7380 Cl  0  0  0  0  0  0  0  0  0  0  0  0
  132.6780   74.9000  227.2200 C   0  0  0  0  0  0  0  0  0  0  0  0
  133.5920   75.6600  226.5270 C   0  0  0  0  0  0  0  0  0  0  0  0
  134.3330   75.1240  225.4910 C   0  0  0  0  0  0  0  0  0  0  0  0
  135.2130   75.9070  224.8460 N   0  0  0  0  0  0  0  0  0  0  0  0
  138.3200   74.6270  223.0000 H   0  0  0  0  0  0  0  0  0  0  0  0
  138.7256   76.7549  221.0359 H   0  0  0  0  0  0  0  0  0  0  0  0
  139.5234   77.2098  222.5964 H   0  0  0  0  0  0  0  0  0  0  0  0
  142.9612   74.4061  221.1478 H   0  0  0  0  0  0  0  0  0  0  0  0
  141.7855   74.0702  219.8636 H   0  0  0  0  0  0  0  0  0  0  0  0
  143.4620   74.9759  218.4665 H   0  0  0  0  0  0  0  0  0  0  0  0
  143.2109   77.6458  218.7307 H   0  0  0  0  0  0  0  0  0  0  0  0
  141.7443   76.8248  218.3444 H   0  0  0  0  0  0  0  0  0  0  0  0
  142.8219   77.4718  221.2651 H   0  0  0  0  0  0  0  0  0  0  0  0
  141.2946   78.9585  219.6556 H   0  0  0  0  0  0  0  0  0  0  0  0
  140.0922   78.0551  220.5888 H   0  0  0  0  0  0  0  0  0  0  0  0
  141.2499   77.6377  223.3646 H   0  0  0  0  0  0  0  0  0  0  0  0
  142.0634   79.6699  224.9274 H   0  0  0  0  0  0  0  0  0  0  0  0
  142.5413   81.7820  223.3423 H   0  0  0  0  0  0  0  0  0  0  0  0
  136.3545   73.6610  222.6707 H   0  0  0  0  0  0  0  0  0  0  0  0
  134.7343   72.2035  223.8435 H   0  0  0  0  0  0  0  0  0  0  0  0
  133.0710   71.9600  225.5752 H   0  0  0  0  0  0  0  0  0  0  0  0
  132.0990   75.3467  228.0417 H   0  0  0  0  0  0  0  0  0  0  0  0
  133.7357   76.7151  226.8031 H   0  0  0  0  0  0  0  0  0  0  0  0
  1  2  2  0
  2  3  1  0
  3  4  1  0
  4  5  1  0
  5  6  2  0
  5  7  1  0
  7  8  1  0
  8  9  1  0
  9 10  1  0
  9 11  1  0
 11 12  1  0
 12 13  1  0
 13 14  1  0
 14 15  1  0
 15 16  2  0
 16 17  1  0
 17 18  2  0
  2 19  1  0
 19 20  2  0
 20 21  1  0
 21 22  2  0
 22 23  1  0
 23 24  2  0
 24 25  1  0
 24 26  1  0
 26 27  2  0
 27 28  1  0
 28 29  2  0
 12  7  1  0
 18 14  1  0
 29 19  1  0
 28 22  1  0
  3 30  1  0
  4 31  1  0
  4 32  1  0
  8 33  1  0
  8 34  1  0
  9 35  1  6
 11 36  1  0
 11 37  1  0
 12 38  1  1
 13 39  1  0
 13 40  1  0
 15 41  1  0
 16 42  1  0
 17 43  1  0
 20 44  1  0
 21 45  1  0
 23 46  1  0
 26 47  1  0
 27 48  1  0
M  END
>  <smiles>  (16) 
O=C(NCC(=O)N1C[C@H](F)C[C@H]1Cn1cccn1)c1ccc2cc(Cl)ccc2n1

>  <score_type>  (16) 
oracle

>  <origin>  (16) 
autodockgpu

>  <m_score__min__energy>  (16) 
-8.2300000000000004

>  <m_primary>  (16) 
energy

>  <meeko>  (16) 
{"free_energy": -7.25, "intermolecular_energy": -9.04, "internal_energy": -1.72, "cluster_size": 1, "cluster_id": 4, "rank_in_cluster": 1}

>  <energy>  (16) 
-7.35

>  <cluster_rmsd>  (16) 
0.87

>  <rmsd>  (16) 
271.24

>  <cluster>  (16) 
2

$$$$

     RDKit          3D

 48 51  0  0  0  0  0  0  0  0999 V2000
  140.4840   72.5420  220.8440 O   0  0  0  0  0  0  0  0  0  0  0  0
  139.9320   72.8200  221.9570 C   0  0  0  0  0  0  0  0  0  0  0  0
  139.2390   74.0490  222.1020 N   0  0  0  0  0  0  0  0  0  0  0  0
  139.1340   75.0220  221.0070 C   0  0  0  0  0  0  0  0  0  0  0  0
  140.0390   76.1480  221.2090 C   0  0  0  0  0  0  0  0  0  0  0  0
  139.6340   77.0870  221.9730 O   0  0  0  0  0  0  0  0  0  0  0  0
  141.3230   76.3240  220.6500 N   0  0  0  0  0  0  0  0  0  0  0  0
  142.0730   75.1530  220.1330 C   0  0  0  0  0  0  0  0  0  0  0  0
  143.1930   75.7020  219.3130 C   0  0  2  0  0  0  0  0  0  0  0  0
  144.3330   75.7440  220.1060 F   0  0  0  0  0  0  0  0  0  0  0  0
  142.7590   77.1270  219.0450 C   0  0  0  0  0  0  0  0  0  0  0  0
  142.1640   77.4590  220.4250 C   0  0  1  0  0  0  0  0  0  0  0  0
  141.5000   78.7920  220.4100 C   0  0  0  0  0  0  0  0  0  0  0  0
  141.8250   79.4180  221.7090 N   0  0  0  0  0  0  0  0  0  0  0  0
  141.8150   78.7870  222.9110 C   0  0  0  0  0  0  0  0  0  0  0  0
  142.1780   79.7400  223.8450 C   0  0  0  0  0  0  0  0  0  0  0  0
  142.4020   80.9300  223.1840 C   0  0  0  0  0  0  0  0  0  0  0  0
  142.1740   80.6860  221.8800 N   0  0  0  0  0  0  0  0  0  0  0  0
  140.0050   71.8880  223.0790 C   0  0  0  0  0  0  0  0  0  0  0  0
  139.5820   70.5840  222.8970 C   0  0  0  0  0  0  0  0  0  0  0  0
  139.6130   69.6360  223.8990 C   0  0  0  0  0  0  0  0  0  0  0  0
  140.0940   70.0260  225.1280 C   0  0  0  0  0  0  0  0  0  0  0  0
  140.1470   69.1150  226.1630 C   0  0  0  0  0  0  0  0  0  0  0  0
  140.6320   69.5240  227.3890 C   0  0  0  0  0  0  0  0  0  0  0  0
  140.6910   68.3420  228.7000 Cl  0  0  0  0  0  0  0  0  0  0  0  0
  141.0540   70.8250  227.5670 C   0  0  0  0  0  0  0  0  0  0  0  0
  140.9900   71.7140  226.5190 C   0  0  0  0  0  0  0  0  0  0  0  0
  140.5100   71.3320  225.2810 C   0  0  0  0  0  0  0  0  0  0  0  0
  140.4690   72.2380  224.2900 N   0  0  0  0  0  0  0  0  0  0  0  0
  138.8000   74.2320  223.0400 H   0  0  0  0  0  0  0  0  0  0  0  0
  139.3879   74.5239  220.0597 H   0  0  0  0  0  0  0  0  0  0  0  0
  138.1034   75.4056  220.9815 H   0  0  0  0  0  0  0  0  0  0  0  0
  142.4690   74.5556  220.9674 H   0  0  0  0  0  0  0  0  0  0  0  0
  141.4249   74.4951  219.5354 H   0  0  0  0  0  0  0  0  0  0  0  0
  143.4018   75.1196  218.4035 H   0  0  0  0  0  0  0  0  0  0  0  0
  143.6100   77.7776  218.7951 H   0  0  0  0  0  0  0  0  0  0  0  0
  142.0792   77.2625  218.1909 H   0  0  0  0  0  0  0  0  0  0  0  0
  142.8782   77.5850  221.2521 H   0  0  0  0  0  0  0  0  0  0  0  0
  141.8877   79.4039  219.5822 H   0  0  0  0  0  0  0  0  0  0  0  0
  140.4134   78.7016  220.2645 H   0  0  0  0  0  0  0  0  0  0  0  0
  141.5684   77.7323  223.1029 H   0  0  0  0  0  0  0  0  0  0  0  0
  142.2720   79.5772  224.9288 H   0  0  0  0  0  0  0  0  0  0  0  0
  142.7062   81.8871  223.6329 H   0  0  0  0  0  0  0  0  0  0  0  0
  139.2032   70.2888  221.9074 H   0  0  0  0  0  0  0  0  0  0  0  0
  139.2663   68.6072  223.7221 H   0  0  0  0  0  0  0  0  0  0  0  0
  139.8082   68.0792  226.0135 H   0  0  0  0  0  0  0  0  0  0  0  0
  141.4406   71.1508  228.5440 H   0  0  0  0  0  0  0  0  0  0  0  0
  141.3278   72.7499  226.6697 H   0  0  0  0  0  0  0  0  0  0  0  0
  1  2  2  0
  2  3  1  0
  3  4  1  0
  4  5  1  0
  5  6  2  0
  5  7  1  0
  7  8  1  0
  8  9  1  0
  9 10  1  0
  9 11  1  0
 11 12  1  0
 12 13  1  0
 13 14  1  0
 14 15  1  0
 15 16  2  0
 16 17  1  0
 17 18  2  0
  2 19  1  0
 19 20  2  0
 20 21  1  0
 21 22  2  0
 22 23  1  0
 23 24  2  0
 24 25  1  0
 24 26  1  0
 26 27  2  0
 27 28  1  0
 28 29  2  0
 12  7  1  0
 18 14  1  0
 29 19  1  0
 28 22  1  0
  3 30  1  0
  4 31  1  0
  4 32  1  0
  8 33  1  0
  8 34  1  0
  9 35  1  6
 11 36  1  0
 11 37  1  0
 12 38  1  1
 13 39  1  0
 13 40  1  0
 15 41  1  0
 16 42  1  0
 17 43  1  0
 20 44  1  0
 21 45  1  0
 23 46  1  0
 26 47  1  0
 27 48  1  0
M  END
>  <smiles>  (17) 
O=C(NCC(=O)N1C[C@H](F)C[C@H]1Cn1cccn1)c1ccc2cc(Cl)ccc2n1

>  <score_type>  (17) 
oracle

>  <origin>  (17) 
autodockgpu

>  <m_score__min__energy>  (17) 
-8.2300000000000004

>  <m_primary>  (17) 
energy

>  <meeko>  (17) 
{"free_energy": -8.23, "intermolecular_energy": -10.02, "internal_energy": -1.41, "cluster_size": 14, "cluster_id": 1, "rank_in_cluster": 1}

>  <energy>  (17) 
-7.42

>  <cluster_rmsd>  (17) 
0.0

>  <rmsd>  (17) 
271.61

>  <cluster>  (17) 
3

$$$$

     RDKit          3D

 48 51  0  0  0  0  0  0  0  0999 V2000
  140.0570   72.3930  220.7350 O   0  0  0  0  0  0  0  0  0  0  0  0
  139.8780   72.8120  221.9240 C   0  0  0  0  0  0  0  0  0  0  0  0
  139.6000   74.1860  222.1420 N   0  0  0  0  0  0  0  0  0  0  0  0
  139.5100   75.1500  221.0380 C   0  0  0  0  0  0  0  0  0  0  0  0
  139.2740   76.5030  221.5320 C   0  0  0  0  0  0  0  0  0  0  0  0
  138.9480   76.6220  222.7600 O   0  0  0  0  0  0  0  0  0  0  0  0
  139.3650   77.7070  220.8030 N   0  0  0  0  0  0  0  0  0  0  0  0
  138.1430   78.5020  220.5310 C   0  0  0  0  0  0  0  0  0  0  0  0
  138.6090   79.8450  220.0740 C   0  0  2  0  0  0  0  0  0  0  0  0
  138.6040   79.8580  218.6850 F   0  0  0  0  0  0  0  0  0  0  0  0
  140.0500   79.8850  220.5330 C   0  0  0  0  0  0  0  0  0  0  0  0
  140.4450   78.4330  220.2090 C   0  0  1  0  0  0  0  0  0  0  0  0
  141.8130   78.1290  220.7140 C   0  0  0  0  0  0  0  0  0  0  0  0
  141.8940   78.7470  222.0540 N   0  0  0  0  0  0  0  0  0  0  0  0
  142.5610   79.8920  222.3530 C   0  0  0  0  0  0  0  0  0  0  0  0
  142.3730   80.0990  223.7080 C   0  0  0  0  0  0  0  0  0  0  0  0
  141.5930   79.0720  224.1990 C   0  0  0  0  0  0  0  0  0  0  0  0
  141.3240   78.2690  223.1520 N   0  0  0  0  0  0  0  0  0  0  0  0
  139.9570   71.8960  223.0580 C   0  0  0  0  0  0  0  0  0  0  0  0
  139.5230   70.5920  222.9000 C   0  0  0  0  0  0  0  0  0  0  0  0
  139.5590   69.6590  223.9150 C   0  0  0  0  0  0  0  0  0  0  0  0
  140.0540   70.0640  225.1330 C   0  0  0  0  0  0  0  0  0  0  0  0
  140.1120   69.1670  226.1810 C   0  0  0  0  0  0  0  0  0  0  0  0
  140.6120   69.5900  227.3950 C   0  0  0  0  0  0  0  0  0  0  0  0
  140.6770   68.4270  228.7230 Cl  0  0  0  0  0  0  0  0  0  0  0  0
  141.0440   70.8910  227.5500 C   0  0  0  0  0  0  0  0  0  0  0  0
  140.9760   71.7650  226.4900 C   0  0  0  0  0  0  0  0  0  0  0  0
  140.4810   71.3690  225.2630 C   0  0  0  0  0  0  0  0  0  0  0  0
  140.4350   72.2600  224.2590 N   0  0  0  0  0  0  0  0  0  0  0  0
  139.4610   74.4840  223.1400 H   0  0  0  0  0  0  0  0  0  0  0  0
  140.4528   75.1349  220.4716 H   0  0  0  0  0  0  0  0  0  0  0  0
  138.6647   74.8632  220.3952 H   0  0  0  0  0  0  0  0  0  0  0  0
  137.5421   78.0200  219.7458 H   0  0  0  0  0  0  0  0  0  0  0  0
  137.5108   78.5823  221.4276 H   0  0  0  0  0  0  0  0  0  0  0  0
  137.9955   80.6769  220.4502 H   0  0  0  0  0  0  0  0  0  0  0  0
  140.6452   80.6120  219.9610 H   0  0  0  0  0  0  0  0  0  0  0  0
  140.2062   80.1967  221.5763 H   0  0  0  0  0  0  0  0  0  0  0  0
  140.5479   78.1772  219.1441 H   0  0  0  0  0  0  0  0  0  0  0  0
  141.9626   77.0415  220.7841 H   0  0  0  0  0  0  0  0  0  0  0  0
  142.5895   78.5201  220.0402 H   0  0  0  0  0  0  0  0  0  0  0  0
  143.1337   80.5253  221.6594 H   0  0  0  0  0  0  0  0  0  0  0  0
  142.7762   80.9384  224.2935 H   0  0  0  0  0  0  0  0  0  0  0  0
  141.2580   78.9364  225.2379 H   0  0  0  0  0  0  0  0  0  0  0  0
  139.1309   70.2850  221.9192 H   0  0  0  0  0  0  0  0  0  0  0  0
  139.2052   68.6296  223.7566 H   0  0  0  0  0  0  0  0  0  0  0  0
  139.7650   68.1314  226.0499 H   0  0  0  0  0  0  0  0  0  0  0  0
  141.4417   71.2284  228.5185 H   0  0  0  0  0  0  0  0  0  0  0  0
  141.3229   72.8004  226.6223 H   0  0  0  0  0  0  0  0  0  0  0  0
  1  2  2  0
  2  3  1  0
  3  4  1  0
  4  5  1  0
  5  6  2  0
  5  7  1  0
  7  8  1  0
  8  9  1  0
  9 10  1  0
  9 11  1  0
 11 12  1  0
 12 13  1  0
 13 14  1  0
 14 15  1  0
 15 16  2  0
 16 17  1  0
 17 18  2  0
  2 19  1  0
 19 20  2  0
 20 21  1  0
 21 22  2  0
 22 23  1  0
 23 24  2  0
 24 25  1  0
 24 26  1  0
 26 27  2  0
 27 28  1  0
 28 29  2  0
 12  7  1  0
 18 14  1  0
 29 19  1  0
 28 22  1  0
  3 30  1  0
  4 31  1  0
  4 32  1  0
  8 33  1  0
  8 34  1  0
  9 35  1  1
 11 36  1  0
 11 37  1  0
 12 38  1  6
 13 39  1  0
 13 40  1  0
 15 41  1  0
 16 42  1  0
 17 43  1  0
 20 44  1  0
 21 45  1  0
 23 46  1  0
 26 47  1  0
 27 48  1  0
M  END
>  <smiles>  (18) 
O=C(NCC(=O)N1C[C@H](F)C[C@H]1Cn1cccn1)c1ccc2cc(Cl)ccc2n1

>  <score_type>  (18) 
oracle

>  <origin>  (18) 
autodockgpu

>  <m_score__min__energy>  (18) 
-8.2300000000000004

>  <m_primary>  (18) 
energy

>  <meeko>  (18) 
{"free_energy": -7.44, "intermolecular_energy": -9.23, "internal_energy": -2.0, "cluster_size": 14, "cluster_id": 1, "rank_in_cluster": 10}

>  <energy>  (18) 
-7.25

>  <cluster_rmsd>  (18) 
0.0

>  <rmsd>  (18) 
271.25

>  <cluster>  (18) 
4

$$$$

     RDKit          3D

 48 51  0  0  0  0  0  0  0  0999 V2000
  140.1520   72.3600  220.7420 O   0  0  0  0  0  0  0  0  0  0  0  0
  139.9400   72.7750  221.9260 C   0  0  0  0  0  0  0  0  0  0  0  0
  139.6410   74.1440  222.1400 N   0  0  0  0  0  0  0  0  0  0  0  0
  139.5670   75.1100  221.0360 C   0  0  0  0  0  0  0  0  0  0  0  0
  139.2800   76.4550  221.5240 C   0  0  0  0  0  0  0  0  0  0  0  0
  138.8990   76.5600  222.7380 O   0  0  0  0  0  0  0  0  0  0  0  0
  139.3740   77.6650  220.8040 N   0  0  0  0  0  0  0  0  0  0  0  0
  138.1560   78.4690  220.5440 C   0  0  0  0  0  0  0  0  0  0  0  0
  138.6280   79.8120  220.0950 C   0  0  2  0  0  0  0  0  0  0  0  0
  138.6160   79.8360  218.7070 F   0  0  0  0  0  0  0  0  0  0  0  0
  140.0720   79.8400  220.5480 C   0  0  0  0  0  0  0  0  0  0  0  0
  140.4560   78.3880  220.2110 C   0  0  1  0  0  0  0  0  0  0  0  0
  141.8240   78.0730  220.7070 C   0  0  0  0  0  0  0  0  0  0  0  0
  141.9500   78.7620  222.0080 N   0  0  0  0  0  0  0  0  0  0  0  0
  141.4480   78.3130  223.1880 C   0  0  0  0  0  0  0  0  0  0  0  0
  141.7950   79.2600  224.1340 C   0  0  0  0  0  0  0  0  0  0  0  0
  142.5020   80.2640  223.5040 C   0  0  0  0  0  0  0  0  0  0  0  0
  142.5720   79.9170  222.2040 N   0  0  0  0  0  0  0  0  0  0  0  0
  140.0000   71.8560  223.0600 C   0  0  0  0  0  0  0  0  0  0  0  0
  139.5390   70.5620  222.9020 C   0  0  0  0  0  0  0  0  0  0  0  0
  139.5560   69.6280  223.9170 C   0  0  0  0  0  0  0  0  0  0  0  0
  140.0610   70.0220  225.1350 C   0  0  0  0  0  0  0  0  0  0  0  0
  140.1010   69.1250  226.1820 C   0  0  0  0  0  0  0  0  0  0  0  0
  140.6110   69.5370  227.3970 C   0  0  0  0  0  0  0  0  0  0  0  0
  140.6530   68.3730  228.7240 Cl  0  0  0  0  0  0  0  0  0  0  0  0
  141.0700   70.8280  227.5510 C   0  0  0  0  0  0  0  0  0  0  0  0
  141.0190   71.7040  226.4910 C   0  0  0  0  0  0  0  0  0  0  0  0
  140.5150   71.3180  225.2650 C   0  0  0  0  0  0  0  0  0  0  0  0
  140.4870   72.2100  224.2610 N   0  0  0  0  0  0  0  0  0  0  0  0
  139.4730   74.4390  223.1350 H   0  0  0  0  0  0  0  0  0  0  0  0
  140.5298   75.1201  220.5041 H   0  0  0  0  0  0  0  0  0  0  0  0
  138.7524   74.8047  220.3628 H   0  0  0  0  0  0  0  0  0  0  0  0
  137.5484   77.9965  219.7581 H   0  0  0  0  0  0  0  0  0  0  0  0
  137.5285   78.5463  221.4441 H   0  0  0  0  0  0  0  0  0  0  0  0
  138.0215   80.6449  220.4803 H   0  0  0  0  0  0  0  0  0  0  0  0
  140.6692   80.5676  219.9788 H   0  0  0  0  0  0  0  0  0  0  0  0
  140.2351   80.1430  221.5928 H   0  0  0  0  0  0  0  0  0  0  0  0
  140.5523   78.1384  219.1440 H   0  0  0  0  0  0  0  0  0  0  0  0
  141.9441   76.9872  220.8356 H   0  0  0  0  0  0  0  0  0  0  0  0
  142.5974   78.4031  219.9979 H   0  0  0  0  0  0  0  0  0  0  0  0
  140.8812   77.3854  223.3564 H   0  0  0  0  0  0  0  0  0  0  0  0
  141.5495   79.2200  225.2055 H   0  0  0  0  0  0  0  0  0  0  0  0
  142.9239   81.1667  223.9699 H   0  0  0  0  0  0  0  0  0  0  0  0
  139.1402   70.2635  221.9213 H   0  0  0  0  0  0  0  0  0  0  0  0
  139.1799   68.6065  223.7587 H   0  0  0  0  0  0  0  0  0  0  0  0
  139.7322   68.0970  226.0509 H   0  0  0  0  0  0  0  0  0  0  0  0
  141.4760   71.1569  228.5189 H   0  0  0  0  0  0  0  0  0  0  0  0
  141.3871   72.7321  226.6231 H   0  0  0  0  0  0  0  0  0  0  0  0
  1  2  2  0
  2  3  1  0
  3  4  1  0
  4  5  1  0
  5  6  2  0
  5  7  1  0
  7  8  1  0
  8  9  1  0
  9 10  1  0
  9 11  1  0
 11 12  1  0
 12 13  1  0
 13 14  1  0
 14 15  1  0
 15 16  2  0
 16 17  1  0
 17 18  2  0
  2 19  1  0
 19 20  2  0
 20 21  1  0
 21 22  2  0
 22 23  1  0
 23 24  2  0
 24 25  1  0
 24 26  1  0
 26 27  2  0
 27 28  1  0
 28 29  2  0
 12  7  1  0
 18 14  1  0
 29 19  1  0
 28 22  1  0
  3 30  1  0
  4 31  1  0
  4 32  1  0
  8 33  1  0
  8 34  1  0
  9 35  1  1
 11 36  1  0
 11 37  1  0
 12 38  1  6
 13 39  1  0
 13 40  1  0
 15 41  1  0
 16 42  1  0
 17 43  1  0
 20 44  1  0
 21 45  1  0
 23 46  1  0
 26 47  1  0
 27 48  1  0
M  END
>  <smiles>  (19) 
O=C(NCC(=O)N1C[C@H](F)C[C@H]1Cn1cccn1)c1ccc2cc(Cl)ccc2n1

>  <score_type>  (19) 
oracle

>  <origin>  (19) 
autodockgpu

>  <m_score__min__energy>  (19) 
-8.2300000000000004

>  <m_primary>  (19) 
energy

>  <meeko>  (19) 
{"free_energy": -7.43, "intermolecular_energy": -9.22, "internal_energy": -2.02, "cluster_size": 14, "cluster_id": 1, "rank_in_cluster": 11}

>  <energy>  (19) 
-7.04

>  <cluster_rmsd>  (19) 
0.0

>  <rmsd>  (19) 
271.04

>  <cluster>  (19) 
5

$$$$

     RDKit          3D

 48 51  0  0  0  0  0  0  0  0999 V2000
  139.3650   71.9070  220.7580 O   0  0  0  0  0  0  0  0  0  0  0  0
  139.4950   72.3710  221.9360 C   0  0  0  0  0  0  0  0  0  0  0  0
  139.4420   73.7740  222.1400 N   0  0  0  0  0  0  0  0  0  0  0  0
  139.2430   74.7180  221.0330 C   0  0  0  0  0  0  0  0  0  0  0  0
  139.4020   76.0990  221.4770 C   0  0  0  0  0  0  0  0  0  0  0  0
  139.5270   76.2920  222.7320 O   0  0  0  0  0  0  0  0  0  0  0  0
  139.4330   77.2580  220.6720 N   0  0  0  0  0  0  0  0  0  0  0  0
  138.1670   77.9310  220.2940 C   0  0  0  0  0  0  0  0  0  0  0  0
  138.5480   79.2750  219.7680 C   0  0  2  0  0  0  0  0  0  0  0  0
  138.6090   79.1980  218.3820 F   0  0  0  0  0  0  0  0  0  0  0  0
  139.9580   79.4620  220.2850 C   0  0  0  0  0  0  0  0  0  0  0  0
  140.4810   78.0290  220.0770 C   0  0  1  0  0  0  0  0  0  0  0  0
  141.8420   77.8710  220.6600 C   0  0  0  0  0  0  0  0  0  0  0  0
  141.8820   78.7620  221.8380 N   0  0  0  0  0  0  0  0  0  0  0  0
  141.4190   78.4500  223.0760 C   0  0  0  0  0  0  0  0  0  0  0  0
  141.6550   79.5620  223.8630 C   0  0  0  0  0  0  0  0  0  0  0  0
  142.2580   80.5260  223.0800 C   0  0  0  0  0  0  0  0  0  0  0  0
  142.3760   79.9920  221.8500 N   0  0  0  0  0  0  0  0  0  0  0  0
  139.6950   71.4770  223.0730 C   0  0  0  0  0  0  0  0  0  0  0  0
  139.3480   70.1440  222.9480 C   0  0  0  0  0  0  0  0  0  0  0  0
  139.5010   69.2280  223.9680 C   0  0  0  0  0  0  0  0  0  0  0  0
  140.0260   69.6820  225.1570 C   0  0  0  0  0  0  0  0  0  0  0  0
  140.2000   68.8060  226.2080 C   0  0  0  0  0  0  0  0  0  0  0  0
  140.7270   69.2780  227.3930 C   0  0  0  0  0  0  0  0  0  0  0  0
  140.9420   68.1400  228.7250 Cl  0  0  0  0  0  0  0  0  0  0  0  0
  141.0720   70.6080  227.5140 C   0  0  0  0  0  0  0  0  0  0  0  0
  140.8890   71.4620  226.4510 C   0  0  0  0  0  0  0  0  0  0  0  0
  140.3630   71.0160  225.2540 C   0  0  0  0  0  0  0  0  0  0  0  0
  140.2040   71.8890  224.2450 N   0  0  0  0  0  0  0  0  0  0  0  0
  139.5540   74.1100  223.1300 H   0  0  0  0  0  0  0  0  0  0  0  0
  139.9820   74.5076  220.2458 H   0  0  0  0  0  0  0  0  0  0  0  0
  138.2193   74.5926  220.6504 H   0  0  0  0  0  0  0  0  0  0  0  0
  137.6449   77.3522  219.5179 H   0  0  0  0  0  0  0  0  0  0  0  0
  137.4872   78.0164  221.1545 H   0  0  0  0  0  0  0  0  0  0  0  0
  137.8540   80.0768  220.0604 H   0  0  0  0  0  0  0  0  0  0  0  0
  140.5212   80.1971  219.6914 H   0  0  0  0  0  0  0  0  0  0  0  0
  140.0387   79.8515  221.3106 H   0  0  0  0  0  0  0  0  0  0  0  0
  140.6555   77.7139  219.0376 H   0  0  0  0  0  0  0  0  0  0  0  0
  142.0097   76.8271  220.9636 H   0  0  0  0  0  0  0  0  0  0  0  0
  142.6261   78.1271  219.9323 H   0  0  0  0  0  0  0  0  0  0  0  0
  140.9514   77.5048  223.3890 H   0  0  0  0  0  0  0  0  0  0  0  0
  141.4052   79.6615  224.9296 H   0  0  0  0  0  0  0  0  0  0  0  0
  142.5779   81.5294  223.3976 H   0  0  0  0  0  0  0  0  0  0  0  0
  138.9307   69.7982  221.9908 H   0  0  0  0  0  0  0  0  0  0  0  0
  139.2143   68.1742  223.8363 H   0  0  0  0  0  0  0  0  0  0  0  0
  139.9228   67.7467  226.1033 H   0  0  0  0  0  0  0  0  0  0  0  0
  141.4924   70.9849  228.4581 H   0  0  0  0  0  0  0  0  0  0  0  0
  141.1671   72.5211  226.5563 H   0  0  0  0  0  0  0  0  0  0  0  0
  1  2  2  0
  2  3  1  0
  3  4  1  0
  4  5  1  0
  5  6  2  0
  5  7  1  0
  7  8  1  0
  8  9  1  0
  9 10  1  0
  9 11  1  0
 11 12  1  0
 12 13  1  0
 13 14  1  0
 14 15  1  0
 15 16  2  0
 16 17  1  0
 17 18  2  0
  2 19  1  0
 19 20  2  0
 20 21  1  0
 21 22  2  0
 22 23  1  0
 23 24  2  0
 24 25  1  0
 24 26  1  0
 26 27  2  0
 27 28  1  0
 28 29  2  0
 12  7  1  0
 18 14  1  0
 29 19  1  0
 28 22  1  0
  3 30  1  0
  4 31  1  0
  4 32  1  0
  8 33  1  0
  8 34  1  0
  9 35  1  6
 11 36  1  0
 11 37  1  0
 12 38  1  6
 13 39  1  0
 13 40  1  0
 15 41  1  0
 16 42  1  0
 17 43  1  0
 20 44  1  0
 21 45  1  0
 23 46  1  0
 26 47  1  0
 27 48  1  0
M  END
>  <smiles>  (20) 
O=C(NCC(=O)N1C[C@H](F)C[C@H]1Cn1cccn1)c1ccc2cc(Cl)ccc2n1

>  <score_type>  (20) 
oracle

>  <origin>  (20) 
autodockgpu

>  <m_score__min__energy>  (20) 
-8.2300000000000004

>  <m_primary>  (20) 
energy

>  <meeko>  (20) 
{"free_energy": -7.36, "intermolecular_energy": -9.15, "internal_energy": -2.02, "cluster_size": 14, "cluster_id": 1, "rank_in_cluster": 14}

>  <energy>  (20) 
-6.1

>  <cluster_rmsd>  (20) 
0.0

>  <rmsd>  (20) 
271.61

>  <cluster>  (20) 
6

$$$$
