
     RDKit          3D

 51 54  0  0  0  0  0  0  0  0999 V2000
  143.3310   80.2850  223.0840 C   0  0  0  0  0  0  0  0  0  0  0  0
  141.6200   80.7360  222.9190 S   0  0  0  0  0  0  0  0  0  0  0  0
  141.1380   81.3610  224.1780 O   0  0  0  0  0  0  0  0  0  0  0  0
  141.5340   81.7190  221.7610 O   0  0  0  0  0  0  0  0  0  0  0  0
  140.6800   79.3530  222.4520 N   0  0  0  0  0  0  0  0  0  0  0  0
  139.4710   79.3940  223.2110 C   0  0  0  0  0  0  0  0  0  0  0  0
  138.4350   78.3970  222.7980 C   0  0  0  0  0  0  0  0  0  0  0  0
  139.1120   77.1460  222.4180 C   0  0  0  0  0  0  0  0  0  0  0  0
  138.3200   76.0520  222.1260 C   0  0  0  0  0  0  0  0  0  0  0  0
  138.9080   74.8560  221.7650 C   0  0  0  0  0  0  0  0  0  0  0  0
  140.2700   74.6730  221.6730 C   0  0  0  0  0  0  0  0  0  0  0  0
  140.8920   73.3830  221.2590 C   0  0  0  0  0  0  0  0  0  0  0  0
  140.5650   72.1390  222.0070 C   0  0  0  0  0  0  0  0  0  0  0  0
  140.7280   71.0220  221.4140 O   0  0  0  0  0  0  0  0  0  0  0  0
  140.0860   72.0960  223.3270 N   0  0  0  0  0  0  0  0  0  0  0  0
  139.7670   70.9160  224.0750 C   0  0  0  0  0  0  0  0  0  0  0  0
  140.1840   70.9590  225.4990 C   0  0  0  0  0  0  0  0  0  0  0  0
  141.0470   71.8960  226.0190 C   0  0  0  0  0  0  0  0  0  0  0  0
  141.4010   71.8920  227.3590 C   0  0  0  0  0  0  0  0  0  0  0  0
  140.8770   70.9250  228.2040 C   0  0  0  0  0  0  0  0  0  0  0  0
  140.0090   69.9800  227.6860 C   0  0  0  0  0  0  0  0  0  0  0  0
  139.6510   69.9790  226.3450 C   0  0  0  0  0  0  0  0  0  0  0  0
  142.3390   73.4260  220.8310 C   0  0  0  0  0  0  0  0  0  0  0  0
  141.2730   73.2860  219.8130 C   0  0  0  0  0  0  0  0  0  0  0  0
  141.0670   75.7860  221.9700 C   0  0  0  0  0  0  0  0  0  0  0  0
  140.4810   77.0010  222.3360 C   0  0  0  0  0  0  0  0  0  0  0  0
  141.4050   78.1320  222.6340 C   0  0  0  0  0  0  0  0  0  0  0  0
  143.5909   80.2165  224.1507 H   0  0  0  0  0  0  0  0  0  0  0  0
  143.5017   79.3112  222.6017 H   0  0  0  0  0  0  0  0  0  0  0  0
  143.9595   81.0482  222.6017 H   0  0  0  0  0  0  0  0  0  0  0  0
  139.7229   79.2084  224.2656 H   0  0  0  0  0  0  0  0  0  0  0  0
  139.0307   80.3870  223.0373 H   0  0  0  0  0  0  0  0  0  0  0  0
  137.7486   78.2070  223.6363 H   0  0  0  0  0  0  0  0  0  0  0  0
  137.8579   78.7858  221.9460 H   0  0  0  0  0  0  0  0  0  0  0  0
  137.2244   76.1337  222.1810 H   0  0  0  0  0  0  0  0  0  0  0  0
  138.2525   74.0022  221.5384 H   0  0  0  0  0  0  0  0  0  0  0  0
  139.9350   73.0240  223.8210 H   0  0  0  0  0  0  0  0  0  0  0  0
  138.6771   70.7713  224.0403 H   0  0  0  0  0  0  0  0  0  0  0  0
  140.3253   70.0901  223.6101 H   0  0  0  0  0  0  0  0  0  0  0  0
  141.4660   72.6667  225.3553 H   0  0  0  0  0  0  0  0  0  0  0  0
  142.0938   72.6516  227.7502 H   0  0  0  0  0  0  0  0  0  0  0  0
  141.1474   70.9095  229.2701 H   0  0  0  0  0  0  0  0  0  0  0  0
  139.5926   69.2109  228.3532 H   0  0  0  0  0  0  0  0  0  0  0  0
  138.9587   69.2195  225.9527 H   0  0  0  0  0  0  0  0  0  0  0  0
  142.9069   74.3651  220.9066 H   0  0  0  0  0  0  0  0  0  0  0  0
  143.2437   72.8573  221.0920 H   0  0  0  0  0  0  0  0  0  0  0  0
  141.0534   74.1212  219.1317 H   0  0  0  0  0  0  0  0  0  0  0  0
  141.0651   72.5683  219.0058 H   0  0  0  0  0  0  0  0  0  0  0  0
  142.1625   75.7032  221.9148 H   0  0  0  0  0  0  0  0  0  0  0  0
  141.7609   78.0600  223.6723 H   0  0  0  0  0  0  0  0  0  0  0  0
  142.2769   78.1009  221.9640 H   0  0  0  0  0  0  0  0  0  0  0  0
  1  2  1  0
  2  3  2  0
  2  4  2  0
  2  5  1  0
  5  6  1  0
  6  7  1  0
  7  8  1  0
  8  9  2  0
  9 10  1  0
 10 11  2  0
 11 12  1  0
 12 13  1  0
 13 14  2  0
 13 15  1  0
 15 16  1  0
 16 17  1  0
 17 18  2  0
 18 19  1  0
 19 20  2  0
 20 21  1  0
 21 22  2  0
 12 23  1  0
 23 24  1  0
 11 25  1  0
 25 26  2  0
 26 27  1  0
 27  5  1  0
 26  8  1  0
 24 12  1  0
 22 17  1  0
  1 28  1  0
  1 29  1  0
  1 30  1  0
  6 31  1  0
  6 32  1  0
  7 33  1  0
  7 34  1  0
  9 35  1  0
 10 36  1  0
 15 37  1  0
 16 38  1  0
 16 39  1  0
 18 40  1  0
 19 41  1  0
 20 42  1  0
 21 43  1  0
 22 44  1  0
 23 45  1  0
 23 46  1  0
 24 47  1  0
 24 48  1  0
 25 49  1  0
 27 50  1  0
 27 51  1  0
M  END
>  <smiles>  (1) 
CS(=O)(=O)N1CCc2ccc(C3(C(=O)NCc4ccccc4)CC3)cc2C1

>  <score_type>  (1) 
oracle

>  <origin>  (1) 
autodockgpu

>  <m_score__min__energy>  (1) 
-8.7599999999999998

>  <m_primary>  (1) 
energy

>  <meeko>  (1) 
{"free_energy": -8.6, "intermolecular_energy": -10.09, "internal_energy": -0.95, "cluster_size": 18, "cluster_id": 2, "rank_in_cluster": 9}

>  <energy>  (1) 
-8.76

>  <cluster_rmsd>  (1) 
0.0

>  <rmsd>  (1) 
271.32

>  <cluster>  (1) 
1

$$$$

     RDKit          3D

 51 54  0  0  0  0  0  0  0  0999 V2000
  141.4490   82.0310  221.6720 C   0  0  0  0  0  0  0  0  0  0  0  0
  141.6710   80.7280  222.8600 S   0  0  0  0  0  0  0  0  0  0  0  0
  143.1160   80.4030  222.9910 O   0  0  0  0  0  0  0  0  0  0  0  0
  141.1100   81.2370  224.1800 O   0  0  0  0  0  0  0  0  0  0  0  0
  140.7090   79.3510  222.4220 N   0  0  0  0  0  0  0  0  0  0  0  0
  139.5170   79.4080  223.2070 C   0  0  0  0  0  0  0  0  0  0  0  0
  138.4630   78.4180  222.8220 C   0  0  0  0  0  0  0  0  0  0  0  0
  139.1200   77.1590  222.4360 C   0  0  0  0  0  0  0  0  0  0  0  0
  138.3120   76.0700  222.1690 C   0  0  0  0  0  0  0  0  0  0  0  0
  138.8810   74.8660  221.8040 C   0  0  0  0  0  0  0  0  0  0  0  0
  140.2390   74.6700  221.6850 C   0  0  0  0  0  0  0  0  0  0  0  0
  140.8410   73.3710  221.2670 C   0  0  0  0  0  0  0  0  0  0  0  0
  140.5140   72.1340  222.0280 C   0  0  0  0  0  0  0  0  0  0  0  0
  140.7860   71.0100  221.4910 O   0  0  0  0  0  0  0  0  0  0  0  0
  139.9230   72.1060  223.3020 N   0  0  0  0  0  0  0  0  0  0  0  0
  139.6010   70.9340  224.0610 C   0  0  0  0  0  0  0  0  0  0  0  0
  140.1130   70.9430  225.4530 C   0  0  0  0  0  0  0  0  0  0  0  0
  140.9760   71.8940  225.9490 C   0  0  0  0  0  0  0  0  0  0  0  0
  141.4210   71.8560  227.2600 C   0  0  0  0  0  0  0  0  0  0  0  0
  140.9940   70.8400  228.1020 C   0  0  0  0  0  0  0  0  0  0  0  0
  140.1270   69.8810  227.6090 C   0  0  0  0  0  0  0  0  0  0  0  0
  139.6780   69.9130  226.2960 C   0  0  0  0  0  0  0  0  0  0  0  0
  142.2800   73.3960  220.8130 C   0  0  0  0  0  0  0  0  0  0  0  0
  141.1950   73.2630  219.8150 C   0  0  0  0  0  0  0  0  0  0  0  0
  141.0530   75.7770  221.9570 C   0  0  0  0  0  0  0  0  0  0  0  0
  140.4860   77.0000  222.3270 C   0  0  0  0  0  0  0  0  0  0  0  0
  141.4260   78.1250  222.5980 C   0  0  0  0  0  0  0  0  0  0  0  0
  141.2868   82.9832  222.1982 H   0  0  0  0  0  0  0  0  0  0  0  0
  142.3468   82.1090  221.0412 H   0  0  0  0  0  0  0  0  0  0  0  0
  140.5760   81.8073  221.0412 H   0  0  0  0  0  0  0  0  0  0  0  0
  139.7899   79.2261  224.2570 H   0  0  0  0  0  0  0  0  0  0  0  0
  139.0823   80.4041  223.0373 H   0  0  0  0  0  0  0  0  0  0  0  0
  137.7926   78.2396  223.6757 H   0  0  0  0  0  0  0  0  0  0  0  0
  137.8718   78.8069  221.9799 H   0  0  0  0  0  0  0  0  0  0  0  0
  137.2186   76.1621  222.2471 H   0  0  0  0  0  0  0  0  0  0  0  0
  138.2131   74.0169  221.5969 H   0  0  0  0  0  0  0  0  0  0  0  0
  139.6820   73.0390  223.7480 H   0  0  0  0  0  0  0  0  0  0  0  0
  138.5057   70.8390  224.0984 H   0  0  0  0  0  0  0  0  0  0  0  0
  140.0889   70.0887  223.5536 H   0  0  0  0  0  0  0  0  0  0  0  0
  141.3203   72.7033  225.2884 H   0  0  0  0  0  0  0  0  0  0  0  0
  142.1102   72.6284  227.6319 H   0  0  0  0  0  0  0  0  0  0  0  0
  141.3393   70.7973  229.1455 H   0  0  0  0  0  0  0  0  0  0  0  0
  139.7853   69.0738  228.2736 H   0  0  0  0  0  0  0  0  0  0  0  0
  138.9900   69.1400  225.9229 H   0  0  0  0  0  0  0  0  0  0  0  0
  142.8593   74.3291  220.8739 H   0  0  0  0  0  0  0  0  0  0  0  0
  143.1829   72.8185  221.0606 H   0  0  0  0  0  0  0  0  0  0  0  0
  140.9725   74.0974  219.1336 H   0  0  0  0  0  0  0  0  0  0  0  0
  140.9649   72.5438  219.0151 H   0  0  0  0  0  0  0  0  0  0  0  0
  142.1462   75.6833  221.8789 H   0  0  0  0  0  0  0  0  0  0  0  0
  141.8023   78.0571  223.6294 H   0  0  0  0  0  0  0  0  0  0  0  0
  142.2836   78.0812  221.9105 H   0  0  0  0  0  0  0  0  0  0  0  0
  1  2  1  0
  2  3  2  0
  2  4  2  0
  2  5  1  0
  5  6  1  0
  6  7  1  0
  7  8  1  0
  8  9  2  0
  9 10  1  0
 10 11  2  0
 11 12  1  0
 12 13  1  0
 13 14  2  0
 13 15  1  0
 15 16  1  0
 16 17  1  0
 17 18  2  0
 18 19  1  0
 19 20  2  0
 20 21  1  0
 21 22  2  0
 12 23  1  0
 23 24  1  0
 11 25  1  0
 25 26  2  0
 26 27  1  0
 27  5  1  0
 26  8  1  0
 24 12  1  0
 22 17  1  0
  1 28  1  0
  1 29  1  0
  1 30  1  0
  6 31  1  0
  6 32  1  0
  7 33  1  0
  7 34  1  0
  9 35  1  0
 10 36  1  0
 15 37  1  0
 16 38  1  0
 16 39  1  0
 18 40  1  0
 19 41  1  0
 20 42  1  0
 21 43  1  0
 22 44  1  0
 23 45  1  0
 23 46  1  0
 24 47  1  0
 24 48  1  0
 25 49  1  0
 27 50  1  0
 27 51  1  0
M  END
>  <smiles>  (2) 
CS(=O)(=O)N1CCc2ccc(C3(C(=O)NCc4ccccc4)CC3)cc2C1

>  <score_type>  (2) 
oracle

>  <origin>  (2) 
autodockgpu

>  <m_score__min__energy>  (2) 
-8.7599999999999998

>  <m_primary>  (2) 
energy

>  <meeko>  (2) 
{"free_energy": -8.61, "intermolecular_energy": -10.1, "internal_energy": -0.96, "cluster_size": 18, "cluster_id": 2, "rank_in_cluster": 8}

>  <energy>  (2) 
-8.09

>  <cluster_rmsd>  (2) 
1.86

>  <rmsd>  (2) 
270.81

>  <cluster>  (2) 
1

$$$$

     RDKit          3D

 51 54  0  0  0  0  0  0  0  0999 V2000
  141.4230   82.0390  221.6280 C   0  0  0  0  0  0  0  0  0  0  0  0
  141.7110   80.7410  222.8080 S   0  0  0  0  0  0  0  0  0  0  0  0
  143.1620   80.4230  222.8650 O   0  0  0  0  0  0  0  0  0  0  0  0
  141.2170   81.2530  224.1530 O   0  0  0  0  0  0  0  0  0  0  0  0
  140.7330   79.3580  222.4260 N   0  0  0  0  0  0  0  0  0  0  0  0
  139.5880   79.4090  223.2770 C   0  0  0  0  0  0  0  0  0  0  0  0
  138.5200   78.4130  222.9540 C   0  0  0  0  0  0  0  0  0  0  0  0
  139.1610   77.1570  222.5310 C   0  0  0  0  0  0  0  0  0  0  0  0
  138.3460   76.0640  222.3110 C   0  0  0  0  0  0  0  0  0  0  0  0
  138.9000   74.8630  221.9140 C   0  0  0  0  0  0  0  0  0  0  0  0
  140.2500   74.6740  221.7170 C   0  0  0  0  0  0  0  0  0  0  0  0
  140.8340   73.3790  221.2660 C   0  0  0  0  0  0  0  0  0  0  0  0
  140.5220   72.1330  222.0180 C   0  0  0  0  0  0  0  0  0  0  0  0
  140.6910   71.0170  221.4260 O   0  0  0  0  0  0  0  0  0  0  0  0
  140.0520   72.0890  223.3410 N   0  0  0  0  0  0  0  0  0  0  0  0
  139.7480   70.9070  224.0930 C   0  0  0  0  0  0  0  0  0  0  0  0
  140.1760   70.9550  225.5130 C   0  0  0  0  0  0  0  0  0  0  0  0
  141.0420   71.8940  226.0240 C   0  0  0  0  0  0  0  0  0  0  0  0
  141.4060   71.8950  227.3600 C   0  0  0  0  0  0  0  0  0  0  0  0
  140.8910   70.9290  228.2130 C   0  0  0  0  0  0  0  0  0  0  0  0
  140.0200   69.9820  227.7040 C   0  0  0  0  0  0  0  0  0  0  0  0
  139.6510   69.9760  226.3670 C   0  0  0  0  0  0  0  0  0  0  0  0
  142.2610   73.4040  220.7740 C   0  0  0  0  0  0  0  0  0  0  0  0
  141.1490   73.2890  219.8030 C   0  0  0  0  0  0  0  0  0  0  0  0
  141.0710   75.7870  221.9420 C   0  0  0  0  0  0  0  0  0  0  0  0
  140.5200   77.0060  222.3440 C   0  0  0  0  0  0  0  0  0  0  0  0
  141.4670   78.1360  222.5610 C   0  0  0  0  0  0  0  0  0  0  0  0
  141.2145   82.9788  222.1603 H   0  0  0  0  0  0  0  0  0  0  0  0
  142.3150   82.1652  220.9968 H   0  0  0  0  0  0  0  0  0  0  0  0
  140.5613   81.7762  220.9968 H   0  0  0  0  0  0  0  0  0  0  0  0
  139.9214   79.2300  224.3099 H   0  0  0  0  0  0  0  0  0  0  0  0
  139.1385   80.4023  223.1312 H   0  0  0  0  0  0  0  0  0  0  0  0
  137.9011   78.2313  223.8450 H   0  0  0  0  0  0  0  0  0  0  0  0
  137.8790   78.7979  222.1471 H   0  0  0  0  0  0  0  0  0  0  0  0
  137.2584   76.1499  222.4516 H   0  0  0  0  0  0  0  0  0  0  0  0
  138.2259   74.0102  221.7458 H   0  0  0  0  0  0  0  0  0  0  0  0
  139.8970   73.0160  223.8340 H   0  0  0  0  0  0  0  0  0  0  0  0
  138.6590   70.7538  224.0672 H   0  0  0  0  0  0  0  0  0  0  0  0
  140.3088   70.0848  223.6245 H   0  0  0  0  0  0  0  0  0  0  0  0
  141.4554   72.6629  225.3548 H   0  0  0  0  0  0  0  0  0  0  0  0
  142.0999   72.6576  227.7433 H   0  0  0  0  0  0  0  0  0  0  0  0
  141.1708   70.9164  229.2768 H   0  0  0  0  0  0  0  0  0  0  0  0
  139.6098   69.2144  228.3768 H   0  0  0  0  0  0  0  0  0  0  0  0
  138.9567   69.2142  225.9829 H   0  0  0  0  0  0  0  0  0  0  0  0
  142.8460   74.3337  220.8319 H   0  0  0  0  0  0  0  0  0  0  0  0
  143.1675   72.8194  220.9898 H   0  0  0  0  0  0  0  0  0  0  0  0
  140.9124   74.1334  219.1390 H   0  0  0  0  0  0  0  0  0  0  0  0
  140.8945   72.5817  218.9999 H   0  0  0  0  0  0  0  0  0  0  0  0
  142.1584   75.7001  221.8009 H   0  0  0  0  0  0  0  0  0  0  0  0
  141.9018   78.0707  223.5693 H   0  0  0  0  0  0  0  0  0  0  0  0
  142.2845   78.0971  221.8261 H   0  0  0  0  0  0  0  0  0  0  0  0
  1  2  1  0
  2  3  2  0
  2  4  2  0
  2  5  1  0
  5  6  1  0
  6  7  1  0
  7  8  1  0
  8  9  2  0
  9 10  1  0
 10 11  2  0
 11 12  1  0
 12 13  1  0
 13 14  2  0
 13 15  1  0
 15 16  1  0
 16 17  1  0
 17 18  2  0
 18 19  1  0
 19 20  2  0
 20 21  1  0
 21 22  2  0
 12 23  1  0
 23 24  1  0
 11 25  1  0
 25 26  2  0
 26 27  1  0
 27  5  1  0
 26  8  1  0
 24 12  1  0
 22 17  1  0
  1 28  1  0
  1 29  1  0
  1 30  1  0
  6 31  1  0
  6 32  1  0
  7 33  1  0
  7 34  1  0
  9 35  1  0
 10 36  1  0
 15 37  1  0
 16 38  1  0
 16 39  1  0
 18 40  1  0
 19 41  1  0
 20 42  1  0
 21 43  1  0
 22 44  1  0
 23 45  1  0
 23 46  1  0
 24 47  1  0
 24 48  1  0
 25 49  1  0
 27 50  1  0
 27 51  1  0
M  END
>  <smiles>  (3) 
CS(=O)(=O)N1CCc2ccc(C3(C(=O)NCc4ccccc4)CC3)cc2C1

>  <score_type>  (3) 
oracle

>  <origin>  (3) 
autodockgpu

>  <m_score__min__energy>  (3) 
-8.7599999999999998

>  <m_primary>  (3) 
energy

>  <meeko>  (3) 
{"free_energy": -8.65, "intermolecular_energy": -10.14, "internal_energy": -0.95, "cluster_size": 18, "cluster_id": 2, "rank_in_cluster": 1}

>  <energy>  (3) 
-8.65

>  <cluster_rmsd>  (3) 
0.0

>  <rmsd>  (3) 
271.42

>  <cluster>  (3) 
2

$$$$

     RDKit          3D

 51 54  0  0  0  0  0  0  0  0999 V2000
  141.4590   82.0820  221.7010 C   0  0  0  0  0  0  0  0  0  0  0  0
  141.7750   80.7680  222.8550 S   0  0  0  0  0  0  0  0  0  0  0  0
  143.2230   80.4340  222.8580 O   0  0  0  0  0  0  0  0  0  0  0  0
  141.3340   81.2690  224.2230 O   0  0  0  0  0  0  0  0  0  0  0  0
  140.7700   79.4000  222.4920 N   0  0  0  0  0  0  0  0  0  0  0  0
  139.6600   79.4470  223.3890 C   0  0  0  0  0  0  0  0  0  0  0  0
  138.5700   78.4660  223.0930 C   0  0  0  0  0  0  0  0  0  0  0  0
  139.1820   77.2110  222.6260 C   0  0  0  0  0  0  0  0  0  0  0  0
  138.3490   76.1280  222.4210 C   0  0  0  0  0  0  0  0  0  0  0  0
  138.8760   74.9290  221.9850 C   0  0  0  0  0  0  0  0  0  0  0  0
  140.2150   74.7320  221.7320 C   0  0  0  0  0  0  0  0  0  0  0  0
  140.7690   73.4380  221.2380 C   0  0  0  0  0  0  0  0  0  0  0  0
  140.5190   72.1920  222.0110 C   0  0  0  0  0  0  0  0  0  0  0  0
  141.0630   71.1130  221.6030 O   0  0  0  0  0  0  0  0  0  0  0  0
  139.7230   72.1070  223.1660 N   0  0  0  0  0  0  0  0  0  0  0  0
  139.4680   70.9250  223.9350 C   0  0  0  0  0  0  0  0  0  0  0  0
  140.0390   70.9460  225.3040 C   0  0  0  0  0  0  0  0  0  0  0  0
  140.9410   71.8870  225.7460 C   0  0  0  0  0  0  0  0  0  0  0  0
  141.4410   71.8620  227.0380 C   0  0  0  0  0  0  0  0  0  0  0  0
  141.0300   70.8680  227.9140 C   0  0  0  0  0  0  0  0  0  0  0  0
  140.1240   69.9190  227.4740 C   0  0  0  0  0  0  0  0  0  0  0  0
  139.6190   69.9390  226.1820 C   0  0  0  0  0  0  0  0  0  0  0  0
  142.1550   73.4690  220.6410 C   0  0  0  0  0  0  0  0  0  0  0  0
  140.9740   73.3490  219.7560 C   0  0  0  0  0  0  0  0  0  0  0  0
  141.0550   75.8330  221.9410 C   0  0  0  0  0  0  0  0  0  0  0  0
  140.5310   77.0510  222.3830 C   0  0  0  0  0  0  0  0  0  0  0  0
  141.4970   78.1700  222.5790 C   0  0  0  0  0  0  0  0  0  0  0  0
  141.2363   83.0079  222.2516 H   0  0  0  0  0  0  0  0  0  0  0  0
  142.3458   82.2357  221.0686 H   0  0  0  0  0  0  0  0  0  0  0  0
  140.5993   81.8157  221.0686 H   0  0  0  0  0  0  0  0  0  0  0  0
  140.0326   79.2479  224.4047 H   0  0  0  0  0  0  0  0  0  0  0  0
  139.2147   80.4466  223.2772 H   0  0  0  0  0  0  0  0  0  0  0  0
  137.9846   78.2761  224.0048 H   0  0  0  0  0  0  0  0  0  0  0  0
  137.9015   78.8693  222.3181 H   0  0  0  0  0  0  0  0  0  0  0  0
  137.2685   76.2210  222.6048 H   0  0  0  0  0  0  0  0  0  0  0  0
  138.1883   74.0844  221.8312 H   0  0  0  0  0  0  0  0  0  0  0  0
  139.2560   72.9990  223.5020 H   0  0  0  0  0  0  0  0  0  0  0  0
  138.3786   70.7984  224.0192 H   0  0  0  0  0  0  0  0  0  0  0  0
  139.9581   70.0952  223.4046 H   0  0  0  0  0  0  0  0  0  0  0  0
  141.2728   72.6778  225.0571 H   0  0  0  0  0  0  0  0  0  0  0  0
  142.1601   72.6264  227.3674 H   0  0  0  0  0  0  0  0  0  0  0  0
  141.4183   70.8346  228.9426 H   0  0  0  0  0  0  0  0  0  0  0  0
  139.7961   69.1292  228.1658 H   0  0  0  0  0  0  0  0  0  0  0  0
  138.8994   69.1752  225.8521 H   0  0  0  0  0  0  0  0  0  0  0  0
  142.7387   74.4012  220.6551 H   0  0  0  0  0  0  0  0  0  0  0  0
  143.0776   72.8884  220.7884 H   0  0  0  0  0  0  0  0  0  0  0  0
  140.6847   74.1922  219.1116 H   0  0  0  0  0  0  0  0  0  0  0  0
  140.6632   72.6404  218.9742 H   0  0  0  0  0  0  0  0  0  0  0  0
  142.1352   75.7384  221.7559 H   0  0  0  0  0  0  0  0  0  0  0  0
  141.9711   78.0854  223.5680 H   0  0  0  0  0  0  0  0  0  0  0  0
  142.2840   78.1353  221.8113 H   0  0  0  0  0  0  0  0  0  0  0  0
  1  2  1  0
  2  3  2  0
  2  4  2  0
  2  5  1  0
  5  6  1  0
  6  7  1  0
  7  8  1  0
  8  9  2  0
  9 10  1  0
 10 11  2  0
 11 12  1  0
 12 13  1  0
 13 14  2  0
 13 15  1  0
 15 16  1  0
 16 17  1  0
 17 18  2  0
 18 19  1  0
 19 20  2  0
 20 21  1  0
 21 22  2  0
 12 23  1  0
 23 24  1  0
 11 25  1  0
 25 26  2  0
 26 27  1  0
 27  5  1  0
 26  8  1  0
 24 12  1  0
 22 17  1  0
  1 28  1  0
  1 29  1  0
  1 30  1  0
  6 31  1  0
  6 32  1  0
  7 33  1  0
  7 34  1  0
  9 35  1  0
 10 36  1  0
 15 37  1  0
 16 38  1  0
 16 39  1  0
 18 40  1  0
 19 41  1  0
 20 42  1  0
 21 43  1  0
 22 44  1  0
 23 45  1  0
 23 46  1  0
 24 47  1  0
 24 48  1  0
 25 49  1  0
 27 50  1  0
 27 51  1  0
M  END
>  <smiles>  (4) 
CS(=O)(=O)N1CCc2ccc(C3(C(=O)NCc4ccccc4)CC3)cc2C1

>  <score_type>  (4) 
oracle

>  <origin>  (4) 
autodockgpu

>  <m_score__min__energy>  (4) 
-8.7599999999999998

>  <m_primary>  (4) 
energy

>  <meeko>  (4) 
{"free_energy": -8.6, "intermolecular_energy": -10.09, "internal_energy": -0.99, "cluster_size": 18, "cluster_id": 2, "rank_in_cluster": 12}

>  <energy>  (4) 
-8.64

>  <cluster_rmsd>  (4) 
0.05

>  <rmsd>  (4) 
271.43

>  <cluster>  (4) 
2

$$$$

     RDKit          3D

 51 54  0  0  0  0  0  0  0  0999 V2000
  141.4570   82.1830  221.7020 C   0  0  0  0  0  0  0  0  0  0  0  0
  141.7670   80.8700  222.8590 S   0  0  0  0  0  0  0  0  0  0  0  0
  143.2170   80.5440  222.8760 O   0  0  0  0  0  0  0  0  0  0  0  0
  141.3090   81.3680  224.2220 O   0  0  0  0  0  0  0  0  0  0  0  0
  140.7730   79.4960  222.4840 N   0  0  0  0  0  0  0  0  0  0  0  0
  139.6440   79.5470  223.3580 C   0  0  0  0  0  0  0  0  0  0  0  0
  138.5640   78.5610  223.0470 C   0  0  0  0  0  0  0  0  0  0  0  0
  139.1890   77.3040  222.6010 C   0  0  0  0  0  0  0  0  0  0  0  0
  138.3620   76.2180  222.3870 C   0  0  0  0  0  0  0  0  0  0  0  0
  138.9000   75.0180  221.9690 C   0  0  0  0  0  0  0  0  0  0  0  0
  140.2460   74.8220  221.7450 C   0  0  0  0  0  0  0  0  0  0  0  0
  140.8120   73.5260  221.2720 C   0  0  0  0  0  0  0  0  0  0  0  0
  140.4670   72.2700  221.9900 C   0  0  0  0  0  0  0  0  0  0  0  0
  140.7410   71.1610  221.4240 O   0  0  0  0  0  0  0  0  0  0  0  0
  139.8570   72.2070  223.2540 N   0  0  0  0  0  0  0  0  0  0  0  0
  139.5180   71.0150  223.9730 C   0  0  0  0  0  0  0  0  0  0  0  0
  140.0490   70.9600  225.3580 C   0  0  0  0  0  0  0  0  0  0  0  0
  140.9300   71.8780  225.8800 C   0  0  0  0  0  0  0  0  0  0  0  0
  141.3920   71.7800  227.1830 C   0  0  0  0  0  0  0  0  0  0  0  0
  140.9630   70.7350  227.9870 C   0  0  0  0  0  0  0  0  0  0  0  0
  140.0770   69.8080  227.4660 C   0  0  0  0  0  0  0  0  0  0  0  0
  139.6100   69.9010  226.1630 C   0  0  0  0  0  0  0  0  0  0  0  0
  142.2460   73.5370  220.8000 C   0  0  0  0  0  0  0  0  0  0  0  0
  141.1460   73.4650  219.8120 C   0  0  0  0  0  0  0  0  0  0  0  0
  141.0780   75.9270  221.9640 C   0  0  0  0  0  0  0  0  0  0  0  0
  140.5420   77.1470  222.3860 C   0  0  0  0  0  0  0  0  0  0  0  0
  141.5010   78.2690  222.5940 C   0  0  0  0  0  0  0  0  0  0  0  0
  141.2379   83.1110  222.2505 H   0  0  0  0  0  0  0  0  0  0  0  0
  142.3447   82.3317  221.0697 H   0  0  0  0  0  0  0  0  0  0  0  0
  140.5965   81.9190  221.0697 H   0  0  0  0  0  0  0  0  0  0  0  0
  139.9959   79.3569  224.3827 H   0  0  0  0  0  0  0  0  0  0  0  0
  139.1984   80.5445  223.2296 H   0  0  0  0  0  0  0  0  0  0  0  0
  137.9609   78.3756  223.9480 H   0  0  0  0  0  0  0  0  0  0  0  0
  137.9104   78.9569  222.2558 H   0  0  0  0  0  0  0  0  0  0  0  0
  137.2779   76.3097  222.5494 H   0  0  0  0  0  0  0  0  0  0  0  0
  138.2172   74.1712  221.8055 H   0  0  0  0  0  0  0  0  0  0  0  0
  139.6150   73.1280  223.7240 H   0  0  0  0  0  0  0  0  0  0  0  0
  138.4214   70.9435  224.0223 H   0  0  0  0  0  0  0  0  0  0  0  0
  139.9793   70.1786  223.4275 H   0  0  0  0  0  0  0  0  0  0  0  0
  141.2761   72.7095  225.2485 H   0  0  0  0  0  0  0  0  0  0  0  0
  142.0957   72.5278  227.5775 H   0  0  0  0  0  0  0  0  0  0  0  0
  141.3213   70.6441  229.0230 H   0  0  0  0  0  0  0  0  0  0  0  0
  139.7348   68.9772  228.1006 H   0  0  0  0  0  0  0  0  0  0  0  0
  138.9055   69.1543  225.7679 H   0  0  0  0  0  0  0  0  0  0  0  0
  142.8465   74.4544  220.8880 H   0  0  0  0  0  0  0  0  0  0  0  0
  143.1389   72.9313  221.0139 H   0  0  0  0  0  0  0  0  0  0  0  0
  140.9336   74.3290  219.1652 H   0  0  0  0  0  0  0  0  0  0  0  0
  140.8904   72.7815  218.9889 H   0  0  0  0  0  0  0  0  0  0  0  0
  142.1621   75.8341  221.8026 H   0  0  0  0  0  0  0  0  0  0  0  0
  141.9552   78.1922  223.5929 H   0  0  0  0  0  0  0  0  0  0  0  0
  142.3038   78.2311  221.8429 H   0  0  0  0  0  0  0  0  0  0  0  0
  1  2  1  0
  2  3  2  0
  2  4  2  0
  2  5  1  0
  5  6  1  0
  6  7  1  0
  7  8  1  0
  8  9  2  0
  9 10  1  0
 10 11  2  0
 11 12  1  0
 12 13  1  0
 13 14  2  0
 13 15  1  0
 15 16  1  0
 16 17  1  0
 17 18  2  0
 18 19  1  0
 19 20  2  0
 20 21  1  0
 21 22  2  0
 12 23  1  0
 23 24  1  0
 11 25  1  0
 25 26  2  0
 26 27  1  0
 27  5  1  0
 26  8  1  0
 24 12  1  0
 22 17  1  0
  1 28  1  0
  1 29  1  0
  1 30  1  0
  6 31  1  0
  6 32  1  0
  7 33  1  0
  7 34  1  0
  9 35  1  0
 10 36  1  0
 15 37  1  0
 16 38  1  0
 16 39  1  0
 18 40  1  0
 19 41  1  0
 20 42  1  0
 21 43  1  0
 22 44  1  0
 23 45  1  0
 23 46  1  0
 24 47  1  0
 24 48  1  0
 25 49  1  0
 27 50  1  0
 27 51  1  0
M  END
>  <smiles>  (5) 
CS(=O)(=O)N1CCc2ccc(C3(C(=O)NCc4ccccc4)CC3)cc2C1

>  <score_type>  (5) 
oracle

>  <origin>  (5) 
autodockgpu

>  <m_score__min__energy>  (5) 
-8.7599999999999998

>  <m_primary>  (5) 
energy

>  <meeko>  (5) 
{"free_energy": -8.64, "intermolecular_energy": -10.14, "internal_energy": -0.96, "cluster_size": 18, "cluster_id": 2, "rank_in_cluster": 3}

>  <energy>  (5) 
-8.64

>  <cluster_rmsd>  (5) 
0.19

>  <rmsd>  (5) 
271.41

>  <cluster>  (5) 
2

$$$$

     RDKit          3D

 51 54  0  0  0  0  0  0  0  0999 V2000
  139.8710   69.0170  228.2530 C   0  0  0  0  0  0  0  0  0  0  0  0
  140.0220   68.5680  226.5400 S   0  0  0  0  0  0  0  0  0  0  0  0
  141.4500   68.3320  226.2030 O   0  0  0  0  0  0  0  0  0  0  0  0
  139.2040   67.3000  226.3440 O   0  0  0  0  0  0  0  0  0  0  0  0
  139.2850   69.7800  225.5380 N   0  0  0  0  0  0  0  0  0  0  0  0
  138.1310   69.1850  224.9440 C   0  0  0  0  0  0  0  0  0  0  0  0
  137.2420   70.1370  224.2070 C   0  0  0  0  0  0  0  0  0  0  0  0
  138.0840   71.1330  223.5240 C   0  0  0  0  0  0  0  0  0  0  0  0
  137.4580   72.0290  222.6790 C   0  0  0  0  0  0  0  0  0  0  0  0
  138.2040   72.9820  222.0150 C   0  0  0  0  0  0  0  0  0  0  0  0
  139.5710   73.1040  222.1400 C   0  0  0  0  0  0  0  0  0  0  0  0
  140.3630   74.1520  221.4350 C   0  0  0  0  0  0  0  0  0  0  0  0
  139.9460   75.5770  221.5370 C   0  0  0  0  0  0  0  0  0  0  0  0
  140.2860   76.3700  220.5980 O   0  0  0  0  0  0  0  0  0  0  0  0
  139.2030   76.1240  222.5960 N   0  0  0  0  0  0  0  0  0  0  0  0
  138.7820   77.4890  222.7190 C   0  0  0  0  0  0  0  0  0  0  0  0
  139.8760   78.4430  223.0290 C   0  0  0  0  0  0  0  0  0  0  0  0
  141.2040   78.0920  223.1080 C   0  0  0  0  0  0  0  0  0  0  0  0
  142.1850   79.0250  223.3970 C   0  0  0  0  0  0  0  0  0  0  0  0
  141.8320   80.3480  223.6150 C   0  0  0  0  0  0  0  0  0  0  0  0
  140.4970   80.7070  223.5380 C   0  0  0  0  0  0  0  0  0  0  0  0
  139.5100   79.7770  223.2480 C   0  0  0  0  0  0  0  0  0  0  0  0
  140.8850   73.8080  220.0610 C   0  0  0  0  0  0  0  0  0  0  0  0
  141.8100   73.8280  221.2170 C   0  0  0  0  0  0  0  0  0  0  0  0
  140.1990   72.1920  222.9980 C   0  0  0  0  0  0  0  0  0  0  0  0
  139.4520   71.2240  223.6750 C   0  0  0  0  0  0  0  0  0  0  0  0
  140.2020   70.2950  224.5670 C   0  0  0  0  0  0  0  0  0  0  0  0
  140.1585   68.1622  228.8828 H   0  0  0  0  0  0  0  0  0  0  0  0
  140.5318   69.8696  228.4682 H   0  0  0  0  0  0  0  0  0  0  0  0
  138.8292   69.2970  228.4682 H   0  0  0  0  0  0  0  0  0  0  0  0
  138.4697   68.4149  224.2353 H   0  0  0  0  0  0  0  0  0  0  0  0
  137.5311   68.7797  225.7721 H   0  0  0  0  0  0  0  0  0  0  0  0
  136.6435   69.5869  223.4659 H   0  0  0  0  0  0  0  0  0  0  0  0
  136.5628   70.6390  224.9117 H   0  0  0  0  0  0  0  0  0  0  0  0
  136.3683   71.9831  222.5357 H   0  0  0  0  0  0  0  0  0  0  0  0
  137.6784   73.6826  221.3495 H   0  0  0  0  0  0  0  0  0  0  0  0
  138.9290   75.4710  223.3870 H   0  0  0  0  0  0  0  0  0  0  0  0
  138.3194   77.7932  221.7685 H   0  0  0  0  0  0  0  0  0  0  0  0
  138.0832   77.5265  223.5677 H   0  0  0  0  0  0  0  0  0  0  0  0
  141.4932   77.0445  222.9374 H   0  0  0  0  0  0  0  0  0  0  0  0
  143.2398   78.7181  223.4534 H   0  0  0  0  0  0  0  0  0  0  0  0
  142.6005   81.1005  223.8455 H   0  0  0  0  0  0  0  0  0  0  0  0
  140.2124   81.7554  223.7110 H   0  0  0  0  0  0  0  0  0  0  0  0
  138.4549   80.0827  223.1908 H   0  0  0  0  0  0  0  0  0  0  0  0
  140.6111   72.8510  219.5928 H   0  0  0  0  0  0  0  0  0  0  0  0
  140.8617   74.2973  219.0761 H   0  0  0  0  0  0  0  0  0  0  0  0
  142.2242   72.8850  221.6032 H   0  0  0  0  0  0  0  0  0  0  0  0
  142.7582   74.3395  221.4390 H   0  0  0  0  0  0  0  0  0  0  0  0
  141.2888   72.2381  223.1401 H   0  0  0  0  0  0  0  0  0  0  0  0
  140.6236   69.4685  223.9760 H   0  0  0  0  0  0  0  0  0  0  0  0
  141.0281   70.8248  225.0638 H   0  0  0  0  0  0  0  0  0  0  0  0
  1  2  1  0
  2  3  2  0
  2  4  2  0
  2  5  1  0
  5  6  1  0
  6  7  1  0
  7  8  1  0
  8  9  2  0
  9 10  1  0
 10 11  2  0
 11 12  1  0
 12 13  1  0
 13 14  2  0
 13 15  1  0
 15 16  1  0
 16 17  1  0
 17 18  2  0
 18 19  1  0
 19 20  2  0
 20 21  1  0
 21 22  2  0
 12 23  1  0
 23 24  1  0
 11 25  1  0
 25 26  2  0
 26 27  1  0
 27  5  1  0
 26  8  1  0
 24 12  1  0
 22 17  1  0
  1 28  1  0
  1 29  1  0
  1 30  1  0
  6 31  1  0
  6 32  1  0
  7 33  1  0
  7 34  1  0
  9 35  1  0
 10 36  1  0
 15 37  1  0
 16 38  1  0
 16 39  1  0
 18 40  1  0
 19 41  1  0
 20 42  1  0
 21 43  1  0
 22 44  1  0
 23 45  1  0
 23 46  1  0
 24 47  1  0
 24 48  1  0
 25 49  1  0
 27 50  1  0
 27 51  1  0
M  END
>  <smiles>  (6) 
CS(=O)(=O)N1CCc2ccc(C3(C(=O)NCc4ccccc4)CC3)cc2C1

>  <score_type>  (6) 
oracle

>  <origin>  (6) 
autodockgpu

>  <m_score__min__energy>  (6) 
-8.7599999999999998

>  <m_primary>  (6) 
energy

>  <meeko>  (6) 
{"free_energy": -8.09, "intermolecular_energy": -9.58, "internal_energy": -1.0, "cluster_size": 2, "cluster_id": 1, "rank_in_cluster": 2}

>  <energy>  (6) 
-8.64

>  <cluster_rmsd>  (6) 
0.04

>  <rmsd>  (6) 
271.43

>  <cluster>  (6) 
2

$$$$

     RDKit          3D

 51 54  0  0  0  0  0  0  0  0999 V2000
  142.7740   80.6520  223.8650 C   0  0  0  0  0  0  0  0  0  0  0  0
  141.3070   80.2500  222.9460 S   0  0  0  0  0  0  0  0  0  0  0  0
  140.1100   80.3990  223.8130 O   0  0  0  0  0  0  0  0  0  0  0  0
  141.2460   81.2140  221.7700 O   0  0  0  0  0  0  0  0  0  0  0  0
  141.4490   78.6600  222.2620 N   0  0  0  0  0  0  0  0  0  0  0  0
  141.8190   78.8260  220.8920 C   0  0  0  0  0  0  0  0  0  0  0  0
  142.1940   77.5620  220.1850 C   0  0  0  0  0  0  0  0  0  0  0  0
  141.3190   76.4790  220.6630 C   0  0  0  0  0  0  0  0  0  0  0  0
  141.4190   75.2520  220.0360 C   0  0  0  0  0  0  0  0  0  0  0  0
  140.6190   74.2040  220.4480 C   0  0  0  0  0  0  0  0  0  0  0  0
  139.7010   74.3020  221.4700 C   0  0  0  0  0  0  0  0  0  0  0  0
  138.8580   73.1560  221.9200 C   0  0  0  0  0  0  0  0  0  0  0  0
  139.4900   72.0270  222.6560 C   0  0  0  0  0  0  0  0  0  0  0  0
  140.5660   71.5320  222.1840 O   0  0  0  0  0  0  0  0  0  0  0  0
  138.9900   71.4570  223.8380 N   0  0  0  0  0  0  0  0  0  0  0  0
  139.5770   70.3750  224.5710 C   0  0  0  0  0  0  0  0  0  0  0  0
  140.1080   70.7510  225.9040 C   0  0  0  0  0  0  0  0  0  0  0  0
  139.8410   70.0580  227.0630 C   0  0  0  0  0  0  0  0  0  0  0  0
  140.3660   70.4530  228.2820 C   0  0  0  0  0  0  0  0  0  0  0  0
  141.1820   71.5730  228.3490 C   0  0  0  0  0  0  0  0  0  0  0  0
  141.4530   72.2740  227.1870 C   0  0  0  0  0  0  0  0  0  0  0  0
  140.9300   71.8840  225.9620 C   0  0  0  0  0  0  0  0  0  0  0  0
  137.7780   72.6870  220.9770 C   0  0  0  0  0  0  0  0  0  0  0  0
  137.4170   73.4780  222.1750 C   0  0  0  0  0  0  0  0  0  0  0  0
  139.6050   75.5490  222.1010 C   0  0  0  0  0  0  0  0  0  0  0  0
  140.4110   76.6150  221.6920 C   0  0  0  0  0  0  0  0  0  0  0  0
  140.2430   77.9050  222.4190 C   0  0  0  0  0  0  0  0  0  0  0  0
  142.5594   80.5932  224.9423 H   0  0  0  0  0  0  0  0  0  0  0  0
  143.5727   79.9396  223.6108 H   0  0  0  0  0  0  0  0  0  0  0  0
  143.0979   81.6720  223.6108 H   0  0  0  0  0  0  0  0  0  0  0  0
  140.9678   79.2759  220.3599 H   0  0  0  0  0  0  0  0  0  0  0  0
  142.7177   79.4603  220.8890 H   0  0  0  0  0  0  0  0  0  0  0  0
  142.0644   77.6916  219.1004 H   0  0  0  0  0  0  0  0  0  0  0  0
  143.2457   77.3140  220.3911 H   0  0  0  0  0  0  0  0  0  0  0  0
  142.1332   75.1101  219.2115 H   0  0  0  0  0  0  0  0  0  0  0  0
  140.7207   73.2382  219.9315 H   0  0  0  0  0  0  0  0  0  0  0  0
  138.0870   71.8570  224.2270 H   0  0  0  0  0  0  0  0  0  0  0  0
  138.8094   69.6001  224.7132 H   0  0  0  0  0  0  0  0  0  0  0  0
  140.4362   70.0263  223.9792 H   0  0  0  0  0  0  0  0  0  0  0  0
  139.1949   69.1688  227.0198 H   0  0  0  0  0  0  0  0  0  0  0  0
  140.1370   69.8812  229.1933 H   0  0  0  0  0  0  0  0  0  0  0  0
  141.6067   71.8985  229.3101 H   0  0  0  0  0  0  0  0  0  0  0  0
  142.0993   73.1628  227.2355 H   0  0  0  0  0  0  0  0  0  0  0  0
  141.1575   72.4559  225.0503 H   0  0  0  0  0  0  0  0  0  0  0  0
  137.6901   73.1345  219.9760 H   0  0  0  0  0  0  0  0  0  0  0  0
  137.4727   71.7123  220.5687 H   0  0  0  0  0  0  0  0  0  0  0  0
  137.0584   74.5116  222.0611 H   0  0  0  0  0  0  0  0  0  0  0  0
  136.7299   73.3292  223.0210 H   0  0  0  0  0  0  0  0  0  0  0  0
  138.8898   75.6903  222.9247 H   0  0  0  0  0  0  0  0  0  0  0  0
  139.3948   78.4639  221.9970 H   0  0  0  0  0  0  0  0  0  0  0  0
  140.0430   77.7204  223.4848 H   0  0  0  0  0  0  0  0  0  0  0  0
  1  2  1  0
  2  3  2  0
  2  4  2  0
  2  5  1  0
  5  6  1  0
  6  7  1  0
  7  8  1  0
  8  9  2  0
  9 10  1  0
 10 11  2  0
 11 12  1  0
 12 13  1  0
 13 14  2  0
 13 15  1  0
 15 16  1  0
 16 17  1  0
 17 18  2  0
 18 19  1  0
 19 20  2  0
 20 21  1  0
 21 22  2  0
 12 23  1  0
 23 24  1  0
 11 25  1  0
 25 26  2  0
 26 27  1  0
 27  5  1  0
 26  8  1  0
 24 12  1  0
 22 17  1  0
  1 28  1  0
  1 29  1  0
  1 30  1  0
  6 31  1  0
  6 32  1  0
  7 33  1  0
  7 34  1  0
  9 35  1  0
 10 36  1  0
 15 37  1  0
 16 38  1  0
 16 39  1  0
 18 40  1  0
 19 41  1  0
 20 42  1  0
 21 43  1  0
 22 44  1  0
 23 45  1  0
 23 46  1  0
 24 47  1  0
 24 48  1  0
 25 49  1  0
 27 50  1  0
 27 51  1  0
M  END
>  <smiles>  (7) 
CS(=O)(=O)N1CCc2ccc(C3(C(=O)NCc4ccccc4)CC3)cc2C1

>  <score_type>  (7) 
oracle

>  <origin>  (7) 
autodockgpu

>  <m_score__min__energy>  (7) 
-8.7599999999999998

>  <m_primary>  (7) 
energy

>  <meeko>  (7) 
{"free_energy": -8.22, "intermolecular_energy": -9.71, "internal_energy": -0.95, "cluster_size": 18, "cluster_id": 2, "rank_in_cluster": 17}

>  <energy>  (7) 
-8.63

>  <cluster_rmsd>  (7) 
0.1

>  <rmsd>  (7) 
271.43

>  <cluster>  (7) 
2

$$$$

     RDKit          3D

 51 54  0  0  0  0  0  0  0  0999 V2000
  141.4190   82.0470  221.6400 C   0  0  0  0  0  0  0  0  0  0  0  0
  141.7050   80.7430  222.8130 S   0  0  0  0  0  0  0  0  0  0  0  0
  143.1570   80.4310  222.8800 O   0  0  0  0  0  0  0  0  0  0  0  0
  141.1970   81.2420  224.1580 O   0  0  0  0  0  0  0  0  0  0  0  0
  140.7380   79.3570  222.4130 N   0  0  0  0  0  0  0  0  0  0  0  0
  139.5680   79.4140  223.2310 C   0  0  0  0  0  0  0  0  0  0  0  0
  138.5100   78.4160  222.8850 C   0  0  0  0  0  0  0  0  0  0  0  0
  139.1620   77.1570  222.4890 C   0  0  0  0  0  0  0  0  0  0  0  0
  138.3530   76.0620  222.2530 C   0  0  0  0  0  0  0  0  0  0  0  0
  138.9170   74.8590  221.8800 C   0  0  0  0  0  0  0  0  0  0  0  0
  140.2730   74.6690  221.7230 C   0  0  0  0  0  0  0  0  0  0  0  0
  140.8690   73.3700  221.2970 C   0  0  0  0  0  0  0  0  0  0  0  0
  140.5370   72.1300  222.0500 C   0  0  0  0  0  0  0  0  0  0  0  0
  140.6730   71.0110  221.4530 O   0  0  0  0  0  0  0  0  0  0  0  0
  140.0820   72.0930  223.3780 N   0  0  0  0  0  0  0  0  0  0  0  0
  139.7600   70.9170  224.1310 C   0  0  0  0  0  0  0  0  0  0  0  0
  140.2080   70.9500  225.5450 C   0  0  0  0  0  0  0  0  0  0  0  0
  141.0660   71.8960  226.0580 C   0  0  0  0  0  0  0  0  0  0  0  0
  141.4500   71.8820  227.3890 C   0  0  0  0  0  0  0  0  0  0  0  0
  140.9630   70.8950  228.2340 C   0  0  0  0  0  0  0  0  0  0  0  0
  140.1000   69.9410  227.7230 C   0  0  0  0  0  0  0  0  0  0  0  0
  139.7120   69.9500  226.3910 C   0  0  0  0  0  0  0  0  0  0  0  0
  142.3080   73.3920  220.8420 C   0  0  0  0  0  0  0  0  0  0  0  0
  141.2220   73.2690  219.8440 C   0  0  0  0  0  0  0  0  0  0  0  0
  141.0880   75.7820  221.9630 C   0  0  0  0  0  0  0  0  0  0  0  0
  140.5250   77.0050  222.3410 C   0  0  0  0  0  0  0  0  0  0  0  0
  141.4660   78.1360  222.5760 C   0  0  0  0  0  0  0  0  0  0  0  0
  141.2133   82.9847  222.1771 H   0  0  0  0  0  0  0  0  0  0  0  0
  142.3106   82.1741  221.0084 H   0  0  0  0  0  0  0  0  0  0  0  0
  140.5560   81.7893  221.0084 H   0  0  0  0  0  0  0  0  0  0  0  0
  139.8716   79.2426  224.2743 H   0  0  0  0  0  0  0  0  0  0  0  0
  139.1230   80.4062  223.0649 H   0  0  0  0  0  0  0  0  0  0  0  0
  137.8661   78.2406  223.7594 H   0  0  0  0  0  0  0  0  0  0  0  0
  137.8924   78.7953  222.0575 H   0  0  0  0  0  0  0  0  0  0  0  0
  137.2619   76.1490  222.3622 H   0  0  0  0  0  0  0  0  0  0  0  0
  138.2478   74.0052  221.6981 H   0  0  0  0  0  0  0  0  0  0  0  0
  139.9540   73.0220  223.8750 H   0  0  0  0  0  0  0  0  0  0  0  0
  138.6674   70.7902  224.1196 H   0  0  0  0  0  0  0  0  0  0  0  0
  140.2948   70.0831  223.6528 H   0  0  0  0  0  0  0  0  0  0  0  0
  141.4563   72.6823  225.3951 H   0  0  0  0  0  0  0  0  0  0  0  0
  142.1375   72.6495  227.7741 H   0  0  0  0  0  0  0  0  0  0  0  0
  141.2581   70.8711  229.2934 H   0  0  0  0  0  0  0  0  0  0  0  0
  139.7123   69.1564  228.3894 H   0  0  0  0  0  0  0  0  0  0  0  0
  139.0247   69.1828  226.0049 H   0  0  0  0  0  0  0  0  0  0  0  0
  142.8910   74.3225  220.9079 H   0  0  0  0  0  0  0  0  0  0  0  0
  143.2088   72.8096  221.0856 H   0  0  0  0  0  0  0  0  0  0  0  0
  141.0024   74.1082  219.1676 H   0  0  0  0  0  0  0  0  0  0  0  0
  140.9887   72.5553  219.0401 H   0  0  0  0  0  0  0  0  0  0  0  0
  142.1790   75.6937  221.8534 H   0  0  0  0  0  0  0  0  0  0  0  0
  141.8731   78.0773  223.5962 H   0  0  0  0  0  0  0  0  0  0  0  0
  142.3029   78.0916  221.8635 H   0  0  0  0  0  0  0  0  0  0  0  0
  1  2  1  0
  2  3  2  0
  2  4  2  0
  2  5  1  0
  5  6  1  0
  6  7  1  0
  7  8  1  0
  8  9  2  0
  9 10  1  0
 10 11  2  0
 11 12  1  0
 12 13  1  0
 13 14  2  0
 13 15  1  0
 15 16  1  0
 16 17  1  0
 17 18  2  0
 18 19  1  0
 19 20  2  0
 20 21  1  0
 21 22  2  0
 12 23  1  0
 23 24  1  0
 11 25  1  0
 25 26  2  0
 26 27  1  0
 27  5  1  0
 26  8  1  0
 24 12  1  0
 22 17  1  0
  1 28  1  0
  1 29  1  0
  1 30  1  0
  6 31  1  0
  6 32  1  0
  7 33  1  0
  7 34  1  0
  9 35  1  0
 10 36  1  0
 15 37  1  0
 16 38  1  0
 16 39  1  0
 18 40  1  0
 19 41  1  0
 20 42  1  0
 21 43  1  0
 22 44  1  0
 23 45  1  0
 23 46  1  0
 24 47  1  0
 24 48  1  0
 25 49  1  0
 27 50  1  0
 27 51  1  0
M  END
>  <smiles>  (8) 
CS(=O)(=O)N1CCc2ccc(C3(C(=O)NCc4ccccc4)CC3)cc2C1

>  <score_type>  (8) 
oracle

>  <origin>  (8) 
autodockgpu

>  <m_score__min__energy>  (8) 
-8.7599999999999998

>  <m_primary>  (8) 
energy

>  <meeko>  (8) 
{"free_energy": -8.64, "intermolecular_energy": -10.14, "internal_energy": -0.95, "cluster_size": 18, "cluster_id": 2, "rank_in_cluster": 2}

>  <energy>  (8) 
-8.61

>  <cluster_rmsd>  (8) 
0.21

>  <rmsd>  (8) 
271.41

>  <cluster>  (8) 
2

$$$$

     RDKit          3D

 51 54  0  0  0  0  0  0  0  0999 V2000
  141.4040   82.1920  221.7140 C   0  0  0  0  0  0  0  0  0  0  0  0
  141.7800   80.8490  222.8160 S   0  0  0  0  0  0  0  0  0  0  0  0
  143.2300   80.5320  222.7510 O   0  0  0  0  0  0  0  0  0  0  0  0
  141.3880   81.3040  224.2140 O   0  0  0  0  0  0  0  0  0  0  0  0
  140.7750   79.4800  222.4530 N   0  0  0  0  0  0  0  0  0  0  0  0
  139.6530   79.5390  223.3350 C   0  0  0  0  0  0  0  0  0  0  0  0
  138.5650   78.5580  223.0340 C   0  0  0  0  0  0  0  0  0  0  0  0
  139.1790   77.2970  222.5870 C   0  0  0  0  0  0  0  0  0  0  0  0
  138.3450   76.2150  222.3820 C   0  0  0  0  0  0  0  0  0  0  0  0
  138.8740   75.0100  221.9630 C   0  0  0  0  0  0  0  0  0  0  0  0
  140.2160   74.8070  221.7290 C   0  0  0  0  0  0  0  0  0  0  0  0
  140.7720   73.5070  221.2540 C   0  0  0  0  0  0  0  0  0  0  0  0
  140.3540   72.2440  221.9200 C   0  0  0  0  0  0  0  0  0  0  0  0
  140.3600   71.1720  221.2310 O   0  0  0  0  0  0  0  0  0  0  0  0
  139.9480   72.1390  223.2610 N   0  0  0  0  0  0  0  0  0  0  0  0
  139.5450   70.9380  223.9320 C   0  0  0  0  0  0  0  0  0  0  0  0
  139.9950   70.8420  225.3430 C   0  0  0  0  0  0  0  0  0  0  0  0
  139.6710   69.8020  226.1840 C   0  0  0  0  0  0  0  0  0  0  0  0
  140.1210   69.7610  227.4940 C   0  0  0  0  0  0  0  0  0  0  0  0
  140.9170   70.7890  227.9790 C   0  0  0  0  0  0  0  0  0  0  0  0
  141.2450   71.8370  227.1380 C   0  0  0  0  0  0  0  0  0  0  0  0
  140.7970   71.8840  225.8250 C   0  0  0  0  0  0  0  0  0  0  0  0
  142.2300   73.4880  220.8610 C   0  0  0  0  0  0  0  0  0  0  0  0
  141.1840   73.4710  219.8130 C   0  0  0  0  0  0  0  0  0  0  0  0
  141.0570   75.9080  221.9380 C   0  0  0  0  0  0  0  0  0  0  0  0
  140.5310   77.1320  222.3620 C   0  0  0  0  0  0  0  0  0  0  0  0
  141.4970   78.2490  222.5600 C   0  0  0  0  0  0  0  0  0  0  0  0
  141.1531   83.0882  222.3004 H   0  0  0  0  0  0  0  0  0  0  0  0
  142.2780   82.4016  221.0798 H   0  0  0  0  0  0  0  0  0  0  0  0
  140.5482   81.9173  221.0798 H   0  0  0  0  0  0  0  0  0  0  0  0
  140.0114   79.3491  224.3575 H   0  0  0  0  0  0  0  0  0  0  0  0
  139.2119   80.5386  223.2077 H   0  0  0  0  0  0  0  0  0  0  0  0
  137.9672   78.3783  223.9398 H   0  0  0  0  0  0  0  0  0  0  0  0
  137.9082   78.9557  222.2463 H   0  0  0  0  0  0  0  0  0  0  0  0
  137.2626   76.3129  222.5520 H   0  0  0  0  0  0  0  0  0  0  0  0
  138.1857   74.1661  221.8076 H   0  0  0  0  0  0  0  0  0  0  0  0
  139.9280   73.0310  223.8360 H   0  0  0  0  0  0  0  0  0  0  0  0
  138.4462   70.8882  223.9174 H   0  0  0  0  0  0  0  0  0  0  0  0
  140.0199   70.1042  223.3942 H   0  0  0  0  0  0  0  0  0  0  0  0
  139.0397   68.9837  225.8074 H   0  0  0  0  0  0  0  0  0  0  0  0
  139.8486   68.9180  228.1460 H   0  0  0  0  0  0  0  0  0  0  0  0
  141.2817   70.7707  229.0166 H   0  0  0  0  0  0  0  0  0  0  0  0
  141.8763   72.6532  227.5190 H   0  0  0  0  0  0  0  0  0  0  0  0
  141.0679   72.7273  225.1727 H   0  0  0  0  0  0  0  0  0  0  0  0
  142.8496   74.3855  221.0045 H   0  0  0  0  0  0  0  0  0  0  0  0
  143.0929   72.8520  221.1078 H   0  0  0  0  0  0  0  0  0  0  0  0
  141.0312   74.3558  219.1776 H   0  0  0  0  0  0  0  0  0  0  0  0
  140.9554   72.8148  218.9603 H   0  0  0  0  0  0  0  0  0  0  0  0
  142.1391   75.8086  221.7672 H   0  0  0  0  0  0  0  0  0  0  0  0
  141.9584   78.1718  223.5555 H   0  0  0  0  0  0  0  0  0  0  0  0
  142.2935   78.2052  221.8026 H   0  0  0  0  0  0  0  0  0  0  0  0
  1  2  1  0
  2  3  2  0
  2  4  2  0
  2  5  1  0
  5  6  1  0
  6  7  1  0
  7  8  1  0
  8  9  2  0
  9 10  1  0
 10 11  2  0
 11 12  1  0
 12 13  1  0
 13 14  2  0
 13 15  1  0
 15 16  1  0
 16 17  1  0
 17 18  2  0
 18 19  1  0
 19 20  2  0
 20 21  1  0
 21 22  2  0
 12 23  1  0
 23 24  1  0
 11 25  1  0
 25 26  2  0
 26 27  1  0
 27  5  1  0
 26  8  1  0
 24 12  1  0
 22 17  1  0
  1 28  1  0
  1 29  1  0
  1 30  1  0
  6 31  1  0
  6 32  1  0
  7 33  1  0
  7 34  1  0
  9 35  1  0
 10 36  1  0
 15 37  1  0
 16 38  1  0
 16 39  1  0
 18 40  1  0
 19 41  1  0
 20 42  1  0
 21 43  1  0
 22 44  1  0
 23 45  1  0
 23 46  1  0
 24 47  1  0
 24 48  1  0
 25 49  1  0
 27 50  1  0
 27 51  1  0
M  END
>  <smiles>  (9) 
CS(=O)(=O)N1CCc2ccc(C3(C(=O)NCc4ccccc4)CC3)cc2C1

>  <score_type>  (9) 
oracle

>  <origin>  (9) 
autodockgpu

>  <m_score__min__energy>  (9) 
-8.7599999999999998

>  <m_primary>  (9) 
energy

>  <meeko>  (9) 
{"free_energy": -8.61, "intermolecular_energy": -10.1, "internal_energy": -0.96, "cluster_size": 18, "cluster_id": 2, "rank_in_cluster": 7}

>  <energy>  (9) 
-8.61

>  <cluster_rmsd>  (9) 
0.21

>  <rmsd>  (9) 
271.38

>  <cluster>  (9) 
2

$$$$

     RDKit          3D

 51 54  0  0  0  0  0  0  0  0999 V2000
  141.3490   82.1140  221.6800 C   0  0  0  0  0  0  0  0  0  0  0  0
  141.6730   80.8090  222.8420 S   0  0  0  0  0  0  0  0  0  0  0  0
  143.1270   80.5040  222.8680 O   0  0  0  0  0  0  0  0  0  0  0  0
  141.2000   81.3020  224.2010 O   0  0  0  0  0  0  0  0  0  0  0  0
  140.7020   79.4190  222.4660 N   0  0  0  0  0  0  0  0  0  0  0  0
  139.5670   79.4560  223.3320 C   0  0  0  0  0  0  0  0  0  0  0  0
  138.5030   78.4530  223.0170 C   0  0  0  0  0  0  0  0  0  0  0  0
  139.1490   77.2050  222.5800 C   0  0  0  0  0  0  0  0  0  0  0  0
  138.3390   76.1060  222.3650 C   0  0  0  0  0  0  0  0  0  0  0  0
  138.8980   74.9120  221.9550 C   0  0  0  0  0  0  0  0  0  0  0  0
  140.2470   74.7350  221.7400 C   0  0  0  0  0  0  0  0  0  0  0  0
  140.8360   73.4460  221.2740 C   0  0  0  0  0  0  0  0  0  0  0  0
  140.5020   72.1870  221.9920 C   0  0  0  0  0  0  0  0  0  0  0  0
  140.9150   71.0870  221.4980 O   0  0  0  0  0  0  0  0  0  0  0  0
  139.7570   72.1120  223.1820 N   0  0  0  0  0  0  0  0  0  0  0  0
  139.4240   70.9170  223.8990 C   0  0  0  0  0  0  0  0  0  0  0  0
  139.9240   70.8780  225.2950 C   0  0  0  0  0  0  0  0  0  0  0  0
  139.5660   69.9170  226.2140 C   0  0  0  0  0  0  0  0  0  0  0  0
  140.0650   69.9270  227.5060 C   0  0  0  0  0  0  0  0  0  0  0  0
  140.9480   70.9240  227.8930 C   0  0  0  0  0  0  0  0  0  0  0  0
  141.3110   71.8930  226.9740 C   0  0  0  0  0  0  0  0  0  0  0  0
  140.8140   71.8890  225.6790 C   0  0  0  0  0  0  0  0  0  0  0  0
  142.2740   73.4760  220.8160 C   0  0  0  0  0  0  0  0  0  0  0  0
  141.1840   73.3860  219.8180 C   0  0  0  0  0  0  0  0  0  0  0  0
  141.0620   75.8530  221.9600 C   0  0  0  0  0  0  0  0  0  0  0  0
  140.5060   77.0660  222.3750 C   0  0  0  0  0  0  0  0  0  0  0  0
  141.4460   78.2030  222.5850 C   0  0  0  0  0  0  0  0  0  0  0  0
  141.1187   83.0414  222.2249 H   0  0  0  0  0  0  0  0  0  0  0  0
  142.2355   82.2706  221.0479 H   0  0  0  0  0  0  0  0  0  0  0  0
  140.4922   81.8378  221.0479 H   0  0  0  0  0  0  0  0  0  0  0  0
  139.9149   79.2742  224.3596 H   0  0  0  0  0  0  0  0  0  0  0  0
  139.1077   80.4464  223.1973 H   0  0  0  0  0  0  0  0  0  0  0  0
  137.8965   78.2618  223.9146 H   0  0  0  0  0  0  0  0  0  0  0  0
  137.8489   78.8366  222.2202 H   0  0  0  0  0  0  0  0  0  0  0  0
  137.2527   76.1823  222.5200 H   0  0  0  0  0  0  0  0  0  0  0  0
  138.2289   74.0544  221.7909 H   0  0  0  0  0  0  0  0  0  0  0  0
  139.3990   73.0240  223.5900 H   0  0  0  0  0  0  0  0  0  0  0  0
  138.3281   70.8253  223.9238 H   0  0  0  0  0  0  0  0  0  0  0  0
  139.9131   70.0869  223.3681 H   0  0  0  0  0  0  0  0  0  0  0  0
  138.8668   69.1222  225.9148 H   0  0  0  0  0  0  0  0  0  0  0  0
  139.7625   69.1482  228.2215 H   0  0  0  0  0  0  0  0  0  0  0  0
  141.3538   70.9443  228.9152 H   0  0  0  0  0  0  0  0  0  0  0  0
  142.0106   72.6856  227.2779 H   0  0  0  0  0  0  0  0  0  0  0  0
  141.1146   72.6688  224.9638 H   0  0  0  0  0  0  0  0  0  0  0  0
  142.8607   74.4020  220.9072 H   0  0  0  0  0  0  0  0  0  0  0  0
  143.1734   72.8836  221.0400 H   0  0  0  0  0  0  0  0  0  0  0  0
  140.9654   74.2453  219.1669 H   0  0  0  0  0  0  0  0  0  0  0  0
  140.9455   72.6969  218.9944 H   0  0  0  0  0  0  0  0  0  0  0  0
  142.1482   75.7754  221.8048 H   0  0  0  0  0  0  0  0  0  0  0  0
  141.8946   78.1363  223.5872 H   0  0  0  0  0  0  0  0  0  0  0  0
  142.2535   78.1743  221.8386 H   0  0  0  0  0  0  0  0  0  0  0  0
  1  2  1  0
  2  3  2  0
  2  4  2  0
  2  5  1  0
  5  6  1  0
  6  7  1  0
  7  8  1  0
  8  9  2  0
  9 10  1  0
 10 11  2  0
 11 12  1  0
 12 13  1  0
 13 14  2  0
 13 15  1  0
 15 16  1  0
 16 17  1  0
 17 18  2  0
 18 19  1  0
 19 20  2  0
 20 21  1  0
 21 22  2  0
 12 23  1  0
 23 24  1  0
 11 25  1  0
 25 26  2  0
 26 27  1  0
 27  5  1  0
 26  8  1  0
 24 12  1  0
 22 17  1  0
  1 28  1  0
  1 29  1  0
  1 30  1  0
  6 31  1  0
  6 32  1  0
  7 33  1  0
  7 34  1  0
  9 35  1  0
 10 36  1  0
 15 37  1  0
 16 38  1  0
 16 39  1  0
 18 40  1  0
 19 41  1  0
 20 42  1  0
 21 43  1  0
 22 44  1  0
 23 45  1  0
 23 46  1  0
 24 47  1  0
 24 48  1  0
 25 49  1  0
 27 50  1  0
 27 51  1  0
M  END
>  <smiles>  (10) 
CS(=O)(=O)N1CCc2ccc(C3(C(=O)NCc4ccccc4)CC3)cc2C1

>  <score_type>  (10) 
oracle

>  <origin>  (10) 
autodockgpu

>  <m_score__min__energy>  (10) 
-8.7599999999999998

>  <m_primary>  (10) 
energy

>  <meeko>  (10) 
{"free_energy": -8.57, "intermolecular_energy": -10.06, "internal_energy": -1.0, "cluster_size": 18, "cluster_id": 2, "rank_in_cluster": 13}

>  <energy>  (10) 
-8.61

>  <cluster_rmsd>  (10) 
0.11

>  <rmsd>  (10) 
271.38

>  <cluster>  (10) 
2

$$$$

     RDKit          3D

 51 54  0  0  0  0  0  0  0  0999 V2000
  141.4770   82.0190  221.6630 C   0  0  0  0  0  0  0  0  0  0  0  0
  141.6980   80.7190  222.8540 S   0  0  0  0  0  0  0  0  0  0  0  0
  143.1410   80.3890  222.9820 O   0  0  0  0  0  0  0  0  0  0  0  0
  141.1430   81.2340  224.1750 O   0  0  0  0  0  0  0  0  0  0  0  0
  140.7290   79.3440  222.4240 N   0  0  0  0  0  0  0  0  0  0  0  0
  139.5450   79.4010  223.2210 C   0  0  0  0  0  0  0  0  0  0  0  0
  138.4860   78.4130  222.8460 C   0  0  0  0  0  0  0  0  0  0  0  0
  139.1370   77.1540  222.4500 C   0  0  0  0  0  0  0  0  0  0  0  0
  138.3250   76.0670  222.1890 C   0  0  0  0  0  0  0  0  0  0  0  0
  138.8890   74.8630  221.8160 C   0  0  0  0  0  0  0  0  0  0  0  0
  140.2460   74.6650  221.6820 C   0  0  0  0  0  0  0  0  0  0  0  0
  140.8410   73.3660  221.2560 C   0  0  0  0  0  0  0  0  0  0  0  0
  140.4750   72.1190  221.9810 C   0  0  0  0  0  0  0  0  0  0  0  0
  140.5890   71.0100  221.3620 O   0  0  0  0  0  0  0  0  0  0  0  0
  140.0090   72.0660  223.3050 N   0  0  0  0  0  0  0  0  0  0  0  0
  139.6540   70.8830  224.0320 C   0  0  0  0  0  0  0  0  0  0  0  0
  140.0850   70.8810  225.4520 C   0  0  0  0  0  0  0  0  0  0  0  0
  139.6620   69.9600  226.3820 C   0  0  0  0  0  0  0  0  0  0  0  0
  140.0990   70.0020  227.6960 C   0  0  0  0  0  0  0  0  0  0  0  0
  140.9830   70.9950  228.0940 C   0  0  0  0  0  0  0  0  0  0  0  0
  141.4100   71.9250  227.1630 C   0  0  0  0  0  0  0  0  0  0  0  0
  140.9760   71.8870  225.8450 C   0  0  0  0  0  0  0  0  0  0  0  0
  142.2930   73.3790  220.8440 C   0  0  0  0  0  0  0  0  0  0  0  0
  141.2360   73.2820  219.8120 C   0  0  0  0  0  0  0  0  0  0  0  0
  141.0640   75.7710  221.9480 C   0  0  0  0  0  0  0  0  0  0  0  0
  140.5020   76.9940  222.3260 C   0  0  0  0  0  0  0  0  0  0  0  0
  141.4460   78.1160  222.5900 C   0  0  0  0  0  0  0  0  0  0  0  0
  141.3149   82.9726  222.1869 H   0  0  0  0  0  0  0  0  0  0  0  0
  142.3751   82.0951  221.0324 H   0  0  0  0  0  0  0  0  0  0  0  0
  140.6042   81.7941  221.0324 H   0  0  0  0  0  0  0  0  0  0  0  0
  139.8285   79.2175  224.2679 H   0  0  0  0  0  0  0  0  0  0  0  0
  139.1097   80.3977  223.0565 H   0  0  0  0  0  0  0  0  0  0  0  0
  137.8251   78.2336  223.7068 H   0  0  0  0  0  0  0  0  0  0  0  0
  137.8859   78.8043  222.0113 H   0  0  0  0  0  0  0  0  0  0  0  0
  137.2326   76.1604  222.2781 H   0  0  0  0  0  0  0  0  0  0  0  0
  138.2178   74.0151  221.6147 H   0  0  0  0  0  0  0  0  0  0  0  0
  139.8990   72.9880  223.8200 H   0  0  0  0  0  0  0  0  0  0  0  0
  138.5593   70.7787  224.0050 H   0  0  0  0  0  0  0  0  0  0  0  0
  140.1778   70.0473  223.5448 H   0  0  0  0  0  0  0  0  0  0  0  0
  138.9597   69.1710  226.0750 H   0  0  0  0  0  0  0  0  0  0  0  0
  139.7472   69.2523  228.4200 H   0  0  0  0  0  0  0  0  0  0  0  0
  141.3388   71.0419  229.1338 H   0  0  0  0  0  0  0  0  0  0  0  0
  142.1105   72.7138  227.4748 H   0  0  0  0  0  0  0  0  0  0  0  0
  141.3269   72.6362  225.1200 H   0  0  0  0  0  0  0  0  0  0  0  0
  142.8834   74.3021  220.9408 H   0  0  0  0  0  0  0  0  0  0  0  0
  143.1800   72.7834  221.1057 H   0  0  0  0  0  0  0  0  0  0  0  0
  141.0453   74.1331  219.1417 H   0  0  0  0  0  0  0  0  0  0  0  0
  141.0194   72.5826  218.9911 H   0  0  0  0  0  0  0  0  0  0  0  0
  142.1563   75.6763  221.8588 H   0  0  0  0  0  0  0  0  0  0  0  0
  141.8325   78.0451  223.6174 H   0  0  0  0  0  0  0  0  0  0  0  0
  142.2966   78.0723  221.8939 H   0  0  0  0  0  0  0  0  0  0  0  0
  1  2  1  0
  2  3  2  0
  2  4  2  0
  2  5  1  0
  5  6  1  0
  6  7  1  0
  7  8  1  0
  8  9  2  0
  9 10  1  0
 10 11  2  0
 11 12  1  0
 12 13  1  0
 13 14  2  0
 13 15  1  0
 15 16  1  0
 16 17  1  0
 17 18  2  0
 18 19  1  0
 19 20  2  0
 20 21  1  0
 21 22  2  0
 12 23  1  0
 23 24  1  0
 11 25  1  0
 25 26  2  0
 26 27  1  0
 27  5  1  0
 26  8  1  0
 24 12  1  0
 22 17  1  0
  1 28  1  0
  1 29  1  0
  1 30  1  0
  6 31  1  0
  6 32  1  0
  7 33  1  0
  7 34  1  0
  9 35  1  0
 10 36  1  0
 15 37  1  0
 16 38  1  0
 16 39  1  0
 18 40  1  0
 19 41  1  0
 20 42  1  0
 21 43  1  0
 22 44  1  0
 23 45  1  0
 23 46  1  0
 24 47  1  0
 24 48  1  0
 25 49  1  0
 27 50  1  0
 27 51  1  0
M  END
>  <smiles>  (11) 
CS(=O)(=O)N1CCc2ccc(C3(C(=O)NCc4ccccc4)CC3)cc2C1

>  <score_type>  (11) 
oracle

>  <origin>  (11) 
autodockgpu

>  <m_score__min__energy>  (11) 
-8.7599999999999998

>  <m_primary>  (11) 
energy

>  <meeko>  (11) 
{"free_energy": -8.6, "intermolecular_energy": -10.09, "internal_energy": -0.97, "cluster_size": 18, "cluster_id": 2, "rank_in_cluster": 11}

>  <energy>  (11) 
-8.6

>  <cluster_rmsd>  (11) 
0.71

>  <rmsd>  (11) 
271.41

>  <cluster>  (11) 
2

$$$$

     RDKit          3D

 51 54  0  0  0  0  0  0  0  0999 V2000
  140.8610   68.4570  228.3180 C   0  0  0  0  0  0  0  0  0  0  0  0
  140.0490   70.0150  228.0460 S   0  0  0  0  0  0  0  0  0  0  0  0
  138.8530   70.1220  228.9200 O   0  0  0  0  0  0  0  0  0  0  0  0
  141.0610   71.1020  228.3790 O   0  0  0  0  0  0  0  0  0  0  0  0
  139.6710   70.2050  226.3610 N   0  0  0  0  0  0  0  0  0  0  0  0
  139.7130   68.9040  225.7740 C   0  0  0  0  0  0  0  0  0  0  0  0
  139.2090   68.8320  224.3680 C   0  0  0  0  0  0  0  0  0  0  0  0
  139.6190   70.0550  223.6590 C   0  0  0  0  0  0  0  0  0  0  0  0
  139.3610   70.1270  222.3040 C   0  0  0  0  0  0  0  0  0  0  0  0
  139.7270   71.2530  221.5940 C   0  0  0  0  0  0  0  0  0  0  0  0
  140.3510   72.3430  222.1610 C   0  0  0  0  0  0  0  0  0  0  0  0
  140.7200   73.5630  221.3880 C   0  0  0  0  0  0  0  0  0  0  0  0
  140.0560   74.8580  221.7020 C   0  0  0  0  0  0  0  0  0  0  0  0
  138.7820   74.8920  221.7100 O   0  0  0  0  0  0  0  0  0  0  0  0
  140.7290   76.0570  221.9900 N   0  0  0  0  0  0  0  0  0  0  0  0
  140.1190   77.3170  222.3000 C   0  0  0  0  0  0  0  0  0  0  0  0
  141.0780   78.4310  222.5000 C   0  0  0  0  0  0  0  0  0  0  0  0
  141.6530   78.7430  223.7110 C   0  0  0  0  0  0  0  0  0  0  0  0
  142.5460   79.7940  223.8410 C   0  0  0  0  0  0  0  0  0  0  0  0
  142.8740   80.5580  222.7300 C   0  0  0  0  0  0  0  0  0  0  0  0
  142.2980   80.2490  221.5100 C   0  0  0  0  0  0  0  0  0  0  0  0
  141.4030   79.1970  221.3740 C   0  0  0  0  0  0  0  0  0  0  0  0
  140.9610   73.3910  219.9080 C   0  0  0  0  0  0  0  0  0  0  0  0
  142.1090   73.5730  220.8250 C   0  0  0  0  0  0  0  0  0  0  0  0
  140.6090   72.2630  223.5360 C   0  0  0  0  0  0  0  0  0  0  0  0
  140.2420   71.1280  224.2620 C   0  0  0  0  0  0  0  0  0  0  0  0
  140.5560   71.1290  225.7190 C   0  0  0  0  0  0  0  0  0  0  0  0
  140.9551   68.2764  229.3990 H   0  0  0  0  0  0  0  0  0  0  0  0
  140.2687   67.6502  227.8616 H   0  0  0  0  0  0  0  0  0  0  0  0
  141.8616   68.4804  227.8616 H   0  0  0  0  0  0  0  0  0  0  0  0
  140.7576   68.5595  225.7808 H   0  0  0  0  0  0  0  0  0  0  0  0
  139.0427   68.2721  226.3752 H   0  0  0  0  0  0  0  0  0  0  0  0
  139.6363   67.9516  223.8658 H   0  0  0  0  0  0  0  0  0  0  0  0
  138.1124   68.7461  224.3658 H   0  0  0  0  0  0  0  0  0  0  0  0
  138.8651   69.2892  221.7919 H   0  0  0  0  0  0  0  0  0  0  0  0
  139.5085   71.2817  220.5163 H   0  0  0  0  0  0  0  0  0  0  0  0
  141.7900   76.0380  221.9710 H   0  0  0  0  0  0  0  0  0  0  0  0
  139.4469   77.5865  221.4720 H   0  0  0  0  0  0  0  0  0  0  0  0
  139.5910   77.1828  223.2556 H   0  0  0  0  0  0  0  0  0  0  0  0
  141.3972   78.1433  224.5970 H   0  0  0  0  0  0  0  0  0  0  0  0
  142.9929   80.0218  224.8200 H   0  0  0  0  0  0  0  0  0  0  0  0
  143.5809   81.3963  222.8176 H   0  0  0  0  0  0  0  0  0  0  0  0
  142.5558   80.8518  220.6268 H   0  0  0  0  0  0  0  0  0  0  0  0
  140.9554   78.9683  220.3956 H   0  0  0  0  0  0  0  0  0  0  0  0
  140.7868   72.4144  219.4327 H   0  0  0  0  0  0  0  0  0  0  0  0
  140.6050   73.8977  218.9989 H   0  0  0  0  0  0  0  0  0  0  0  0
  142.7876   72.7311  221.0266 H   0  0  0  0  0  0  0  0  0  0  0  0
  142.9568   74.2722  220.8722 H   0  0  0  0  0  0  0  0  0  0  0  0
  141.1047   73.1011  224.0477 H   0  0  0  0  0  0  0  0  0  0  0  0
  141.5993   70.8181  225.8766 H   0  0  0  0  0  0  0  0  0  0  0  0
  140.4262   72.1377  226.1380 H   0  0  0  0  0  0  0  0  0  0  0  0
  1  2  1  0
  2  3  2  0
  2  4  2  0
  2  5  1  0
  5  6  1  0
  6  7  1  0
  7  8  1  0
  8  9  2  0
  9 10  1  0
 10 11  2  0
 11 12  1  0
 12 13  1  0
 13 14  2  0
 13 15  1  0
 15 16  1  0
 16 17  1  0
 17 18  2  0
 18 19  1  0
 19 20  2  0
 20 21  1  0
 21 22  2  0
 12 23  1  0
 23 24  1  0
 11 25  1  0
 25 26  2  0
 26 27  1  0
 27  5  1  0
 26  8  1  0
 24 12  1  0
 22 17  1  0
  1 28  1  0
  1 29  1  0
  1 30  1  0
  6 31  1  0
  6 32  1  0
  7 33  1  0
  7 34  1  0
  9 35  1  0
 10 36  1  0
 15 37  1  0
 16 38  1  0
 16 39  1  0
 18 40  1  0
 19 41  1  0
 20 42  1  0
 21 43  1  0
 22 44  1  0
 23 45  1  0
 23 46  1  0
 24 47  1  0
 24 48  1  0
 25 49  1  0
 27 50  1  0
 27 51  1  0
M  END
>  <smiles>  (12) 
CS(=O)(=O)N1CCc2ccc(C3(C(=O)NCc4ccccc4)CC3)cc2C1

>  <score_type>  (12) 
oracle

>  <origin>  (12) 
autodockgpu

>  <m_score__min__energy>  (12) 
-8.7599999999999998

>  <m_primary>  (12) 
energy

>  <meeko>  (12) 
{"free_energy": -8.76, "intermolecular_energy": -10.25, "internal_energy": -0.84, "cluster_size": 2, "cluster_id": 1, "rank_in_cluster": 1}

>  <energy>  (12) 
-8.6

>  <cluster_rmsd>  (12) 
0.7

>  <rmsd>  (12) 
271.4

>  <cluster>  (12) 
2

$$$$

     RDKit          3D

 51 54  0  0  0  0  0  0  0  0999 V2000
  141.4330   82.0290  221.6910 C   0  0  0  0  0  0  0  0  0  0  0  0
  141.7120   80.7180  222.8580 S   0  0  0  0  0  0  0  0  0  0  0  0
  143.1620   80.4000  222.9240 O   0  0  0  0  0  0  0  0  0  0  0  0
  141.2060   81.2120  224.2050 O   0  0  0  0  0  0  0  0  0  0  0  0
  140.7390   79.3380  222.4500 N   0  0  0  0  0  0  0  0  0  0  0  0
  139.5710   79.3940  223.2700 C   0  0  0  0  0  0  0  0  0  0  0  0
  138.5080   78.4020  222.9190 C   0  0  0  0  0  0  0  0  0  0  0  0
  139.1550   77.1440  222.5140 C   0  0  0  0  0  0  0  0  0  0  0  0
  138.3420   76.0540  222.2720 C   0  0  0  0  0  0  0  0  0  0  0  0
  138.9010   74.8500  221.8910 C   0  0  0  0  0  0  0  0  0  0  0  0
  140.2560   74.6560  221.7310 C   0  0  0  0  0  0  0  0  0  0  0  0
  140.8460   73.3580  221.2960 C   0  0  0  0  0  0  0  0  0  0  0  0
  140.5240   72.1170  222.0520 C   0  0  0  0  0  0  0  0  0  0  0  0
  140.7040   70.9970  221.4700 O   0  0  0  0  0  0  0  0  0  0  0  0
  140.0300   72.0810  223.3670 N   0  0  0  0  0  0  0  0  0  0  0  0
  139.7160   70.9040  224.1220 C   0  0  0  0  0  0  0  0  0  0  0  0
  140.1580   70.9460  225.5380 C   0  0  0  0  0  0  0  0  0  0  0  0
  141.0220   71.8880  226.0460 C   0  0  0  0  0  0  0  0  0  0  0  0
  141.3990   71.8820  227.3790 C   0  0  0  0  0  0  0  0  0  0  0  0
  140.9000   70.9070  228.2300 C   0  0  0  0  0  0  0  0  0  0  0  0
  140.0310   69.9560  227.7240 C   0  0  0  0  0  0  0  0  0  0  0  0
  139.6490   69.9570  226.3890 C   0  0  0  0  0  0  0  0  0  0  0  0
  142.2800   73.3800  220.8240 C   0  0  0  0  0  0  0  0  0  0  0  0
  141.1820   73.2590  219.8390 C   0  0  0  0  0  0  0  0  0  0  0  0
  141.0750   75.7650  221.9780 C   0  0  0  0  0  0  0  0  0  0  0  0
  140.5180   76.9870  222.3640 C   0  0  0  0  0  0  0  0  0  0  0  0
  141.4630   78.1130  222.6050 C   0  0  0  0  0  0  0  0  0  0  0  0
  141.2337   82.9656  222.2324 H   0  0  0  0  0  0  0  0  0  0  0  0
  142.3248   82.1534  221.0591 H   0  0  0  0  0  0  0  0  0  0  0  0
  140.5678   81.7795  221.0591 H   0  0  0  0  0  0  0  0  0  0  0  0
  139.8756   79.2145  224.3116 H   0  0  0  0  0  0  0  0  0  0  0  0
  139.1296   80.3889  223.1113 H   0  0  0  0  0  0  0  0  0  0  0  0
  137.8648   78.2232  223.7933 H   0  0  0  0  0  0  0  0  0  0  0  0
  137.8902   78.7890  222.0953 H   0  0  0  0  0  0  0  0  0  0  0  0
  137.2513   76.1447  222.3825 H   0  0  0  0  0  0  0  0  0  0  0  0
  138.2283   73.9998  221.7052 H   0  0  0  0  0  0  0  0  0  0  0  0
  139.8650   73.0110  223.8500 H   0  0  0  0  0  0  0  0  0  0  0  0
  138.6247   70.7667  224.1065 H   0  0  0  0  0  0  0  0  0  0  0  0
  140.2604   70.0737  223.6485 H   0  0  0  0  0  0  0  0  0  0  0  0
  141.4231   72.6645  225.3780 H   0  0  0  0  0  0  0  0  0  0  0  0
  142.0910   72.6471  227.7609 H   0  0  0  0  0  0  0  0  0  0  0  0
  141.1905   70.8898  229.2908 H   0  0  0  0  0  0  0  0  0  0  0  0
  139.6334   69.1808  228.3955 H   0  0  0  0  0  0  0  0  0  0  0  0
  138.9571   69.1926  226.0057 H   0  0  0  0  0  0  0  0  0  0  0  0
  142.8642   74.3101  220.8843 H   0  0  0  0  0  0  0  0  0  0  0  0
  143.1834   72.7968  221.0561 H   0  0  0  0  0  0  0  0  0  0  0  0
  140.9548   74.0993  219.1665 H   0  0  0  0  0  0  0  0  0  0  0  0
  140.9389   72.5466  219.0369 H   0  0  0  0  0  0  0  0  0  0  0  0
  142.1656   75.6733  221.8672 H   0  0  0  0  0  0  0  0  0  0  0  0
  141.8707   78.0466  223.6245 H   0  0  0  0  0  0  0  0  0  0  0  0
  142.2991   78.0700  221.8915 H   0  0  0  0  0  0  0  0  0  0  0  0
  1  2  1  0
  2  3  2  0
  2  4  2  0
  2  5  1  0
  5  6  1  0
  6  7  1  0
  7  8  1  0
  8  9  2  0
  9 10  1  0
 10 11  2  0
 11 12  1  0
 12 13  1  0
 13 14  2  0
 13 15  1  0
 15 16  1  0
 16 17  1  0
 17 18  2  0
 18 19  1  0
 19 20  2  0
 20 21  1  0
 21 22  2  0
 12 23  1  0
 23 24  1  0
 11 25  1  0
 25 26  2  0
 26 27  1  0
 27  5  1  0
 26  8  1  0
 24 12  1  0
 22 17  1  0
  1 28  1  0
  1 29  1  0
  1 30  1  0
  6 31  1  0
  6 32  1  0
  7 33  1  0
  7 34  1  0
  9 35  1  0
 10 36  1  0
 15 37  1  0
 16 38  1  0
 16 39  1  0
 18 40  1  0
 19 41  1  0
 20 42  1  0
 21 43  1  0
 22 44  1  0
 23 45  1  0
 23 46  1  0
 24 47  1  0
 24 48  1  0
 25 49  1  0
 27 50  1  0
 27 51  1  0
M  END
>  <smiles>  (13) 
CS(=O)(=O)N1CCc2ccc(C3(C(=O)NCc4ccccc4)CC3)cc2C1

>  <score_type>  (13) 
oracle

>  <origin>  (13) 
autodockgpu

>  <m_score__min__energy>  (13) 
-8.7599999999999998

>  <m_primary>  (13) 
energy

>  <meeko>  (13) 
{"free_energy": -8.64, "intermolecular_energy": -10.13, "internal_energy": -0.95, "cluster_size": 18, "cluster_id": 2, "rank_in_cluster": 4}

>  <energy>  (13) 
-8.6

>  <cluster_rmsd>  (13) 
0.1

>  <rmsd>  (13) 
271.38

>  <cluster>  (13) 
2

$$$$

     RDKit          3D

 51 54  0  0  0  0  0  0  0  0999 V2000
  143.3490   80.2070  223.0890 C   0  0  0  0  0  0  0  0  0  0  0  0
  141.6450   80.6740  222.9060 S   0  0  0  0  0  0  0  0  0  0  0  0
  141.1590   81.3160  224.1550 O   0  0  0  0  0  0  0  0  0  0  0  0
  141.5790   81.6470  221.7370 O   0  0  0  0  0  0  0  0  0  0  0  0
  140.6940   79.2960  222.4440 N   0  0  0  0  0  0  0  0  0  0  0  0
  139.4880   79.3470  223.2070 C   0  0  0  0  0  0  0  0  0  0  0  0
  138.4440   78.3560  222.7980 C   0  0  0  0  0  0  0  0  0  0  0  0
  139.1110   77.1000  222.4180 C   0  0  0  0  0  0  0  0  0  0  0  0
  138.3120   76.0110  222.1310 C   0  0  0  0  0  0  0  0  0  0  0  0
  138.8910   74.8100  221.7700 C   0  0  0  0  0  0  0  0  0  0  0  0
  140.2510   74.6180  221.6750 C   0  0  0  0  0  0  0  0  0  0  0  0
  140.8640   73.3230  221.2620 C   0  0  0  0  0  0  0  0  0  0  0  0
  140.5420   72.0850  222.0220 C   0  0  0  0  0  0  0  0  0  0  0  0
  140.6920   70.9640  221.4330 O   0  0  0  0  0  0  0  0  0  0  0  0
  140.0800   72.0520  223.3480 N   0  0  0  0  0  0  0  0  0  0  0  0
  139.7660   70.8780  224.1080 C   0  0  0  0  0  0  0  0  0  0  0  0
  140.2030   70.9280  225.5250 C   0  0  0  0  0  0  0  0  0  0  0  0
  141.0440   71.8890  226.0370 C   0  0  0  0  0  0  0  0  0  0  0  0
  141.4180   71.8900  227.3710 C   0  0  0  0  0  0  0  0  0  0  0  0
  140.9390   70.9020  228.2190 C   0  0  0  0  0  0  0  0  0  0  0  0
  140.0930   69.9320  227.7090 C   0  0  0  0  0  0  0  0  0  0  0  0
  139.7150   69.9260  226.3740 C   0  0  0  0  0  0  0  0  0  0  0  0
  142.3060   73.3580  220.8150 C   0  0  0  0  0  0  0  0  0  0  0  0
  141.2270   73.2160  219.8110 C   0  0  0  0  0  0  0  0  0  0  0  0
  141.0570   75.7260  221.9670 C   0  0  0  0  0  0  0  0  0  0  0  0
  140.4800   76.9460  222.3330 C   0  0  0  0  0  0  0  0  0  0  0  0
  141.4110   78.0710  222.6270 C   0  0  0  0  0  0  0  0  0  0  0  0
  143.5977   80.1388  224.1584 H   0  0  0  0  0  0  0  0  0  0  0  0
  143.5149   79.2303  222.6110 H   0  0  0  0  0  0  0  0  0  0  0  0
  143.9897   80.9627  222.6110 H   0  0  0  0  0  0  0  0  0  0  0  0
  139.7419   79.1612  224.2610 H   0  0  0  0  0  0  0  0  0  0  0  0
  139.0541   80.3429  223.0340 H   0  0  0  0  0  0  0  0  0  0  0  0
  137.7585   78.1719  223.6384 H   0  0  0  0  0  0  0  0  0  0  0  0
  137.8676   78.7475  221.9468 H   0  0  0  0  0  0  0  0  0  0  0  0
  137.2171   76.0997  222.1897 H   0  0  0  0  0  0  0  0  0  0  0  0
  138.2292   73.9604  221.5461 H   0  0  0  0  0  0  0  0  0  0  0  0
  139.9400   72.9840  223.8380 H   0  0  0  0  0  0  0  0  0  0  0  0
  138.6751   70.7382  224.0895 H   0  0  0  0  0  0  0  0  0  0  0  0
  140.3139   70.0465  223.6405 H   0  0  0  0  0  0  0  0  0  0  0  0
  141.4287   72.6755  225.3711 H   0  0  0  0  0  0  0  0  0  0  0  0
  142.0913   72.6701  227.7558 H   0  0  0  0  0  0  0  0  0  0  0  0
  141.2270   70.8895  229.2805 H   0  0  0  0  0  0  0  0  0  0  0  0
  139.7113   69.1470  228.3784 H   0  0  0  0  0  0  0  0  0  0  0  0
  139.0421   69.1461  225.9879 H   0  0  0  0  0  0  0  0  0  0  0  0
  142.8782   74.2953  220.8779 H   0  0  0  0  0  0  0  0  0  0  0  0
  143.2117   72.7873  221.0679 H   0  0  0  0  0  0  0  0  0  0  0  0
  141.0021   74.0480  219.1275 H   0  0  0  0  0  0  0  0  0  0  0  0
  141.0065   72.4943  219.0106 H   0  0  0  0  0  0  0  0  0  0  0  0
  142.1517   75.6356  221.9079 H   0  0  0  0  0  0  0  0  0  0  0  0
  141.7682   77.9987  223.6649 H   0  0  0  0  0  0  0  0  0  0  0  0
  142.2813   78.0330  221.9554 H   0  0  0  0  0  0  0  0  0  0  0  0
  1  2  1  0
  2  3  2  0
  2  4  2  0
  2  5  1  0
  5  6  1  0
  6  7  1  0
  7  8  1  0
  8  9  2  0
  9 10  1  0
 10 11  2  0
 11 12  1  0
 12 13  1  0
 13 14  2  0
 13 15  1  0
 15 16  1  0
 16 17  1  0
 17 18  2  0
 18 19  1  0
 19 20  2  0
 20 21  1  0
 21 22  2  0
 12 23  1  0
 23 24  1  0
 11 25  1  0
 25 26  2  0
 26 27  1  0
 27  5  1  0
 26  8  1  0
 24 12  1  0
 22 17  1  0
  1 28  1  0
  1 29  1  0
  1 30  1  0
  6 31  1  0
  6 32  1  0
  7 33  1  0
  7 34  1  0
  9 35  1  0
 10 36  1  0
 15 37  1  0
 16 38  1  0
 16 39  1  0
 18 40  1  0
 19 41  1  0
 20 42  1  0
 21 43  1  0
 22 44  1  0
 23 45  1  0
 23 46  1  0
 24 47  1  0
 24 48  1  0
 25 49  1  0
 27 50  1  0
 27 51  1  0
M  END
>  <smiles>  (14) 
CS(=O)(=O)N1CCc2ccc(C3(C(=O)NCc4ccccc4)CC3)cc2C1

>  <score_type>  (14) 
oracle

>  <origin>  (14) 
autodockgpu

>  <m_score__min__energy>  (14) 
-8.7599999999999998

>  <m_primary>  (14) 
energy

>  <meeko>  (14) 
{"free_energy": -8.6, "intermolecular_energy": -10.09, "internal_energy": -0.95, "cluster_size": 18, "cluster_id": 2, "rank_in_cluster": 10}

>  <energy>  (14) 
-8.6

>  <cluster_rmsd>  (14) 
0.24

>  <rmsd>  (14) 
271.37

>  <cluster>  (14) 
2

$$$$

     RDKit          3D

 51 54  0  0  0  0  0  0  0  0999 V2000
  141.4400   82.0770  221.6940 C   0  0  0  0  0  0  0  0  0  0  0  0
  141.7440   80.7670  222.8560 S   0  0  0  0  0  0  0  0  0  0  0  0
  143.1930   80.4410  222.8830 O   0  0  0  0  0  0  0  0  0  0  0  0
  141.2770   81.2680  224.2150 O   0  0  0  0  0  0  0  0  0  0  0  0
  140.7510   79.3930  222.4780 N   0  0  0  0  0  0  0  0  0  0  0  0
  139.6130   79.4500  223.3390 C   0  0  0  0  0  0  0  0  0  0  0  0
  138.5350   78.4640  223.0220 C   0  0  0  0  0  0  0  0  0  0  0  0
  139.1620   77.2040  222.5910 C   0  0  0  0  0  0  0  0  0  0  0  0
  138.3360   76.1180  222.3740 C   0  0  0  0  0  0  0  0  0  0  0  0
  138.8770   74.9140  221.9690 C   0  0  0  0  0  0  0  0  0  0  0  0
  140.2250   74.7150  221.7610 C   0  0  0  0  0  0  0  0  0  0  0  0
  140.7950   73.4160  221.3010 C   0  0  0  0  0  0  0  0  0  0  0  0
  140.4640   72.1680  222.0420 C   0  0  0  0  0  0  0  0  0  0  0  0
  140.6810   71.0520  221.4640 O   0  0  0  0  0  0  0  0  0  0  0  0
  139.9260   72.1210  223.3390 N   0  0  0  0  0  0  0  0  0  0  0  0
  139.6020   70.9370  224.0790 C   0  0  0  0  0  0  0  0  0  0  0  0
  140.1050   70.9290  225.4750 C   0  0  0  0  0  0  0  0  0  0  0  0
  140.9230   71.9000  226.0040 C   0  0  0  0  0  0  0  0  0  0  0  0
  141.3610   71.8450  227.3170 C   0  0  0  0  0  0  0  0  0  0  0  0
  140.9720   70.7880  228.1260 C   0  0  0  0  0  0  0  0  0  0  0  0
  140.1500   69.8070  227.6000 C   0  0  0  0  0  0  0  0  0  0  0  0
  139.7080   69.8570  226.2850 C   0  0  0  0  0  0  0  0  0  0  0  0
  142.2240   73.4280  220.8150 C   0  0  0  0  0  0  0  0  0  0  0  0
  141.1140   73.3340  219.8390 C   0  0  0  0  0  0  0  0  0  0  0  0
  141.0570   75.8200  221.9820 C   0  0  0  0  0  0  0  0  0  0  0  0
  140.5180   77.0430  222.3920 C   0  0  0  0  0  0  0  0  0  0  0  0
  141.4760   78.1650  222.6030 C   0  0  0  0  0  0  0  0  0  0  0  0
  141.2240   83.0078  222.2390 H   0  0  0  0  0  0  0  0  0  0  0  0
  142.3288   82.2200  221.0619 H   0  0  0  0  0  0  0  0  0  0  0  0
  140.5790   81.8140  221.0619 H   0  0  0  0  0  0  0  0  0  0  0  0
  139.9536   79.2650  224.3685 H   0  0  0  0  0  0  0  0  0  0  0  0
  139.1701   80.4473  223.2000 H   0  0  0  0  0  0  0  0  0  0  0  0
  137.9215   78.2852  223.9174 H   0  0  0  0  0  0  0  0  0  0  0  0
  137.8911   78.8562  222.2210 H   0  0  0  0  0  0  0  0  0  0  0  0
  137.2503   76.2123  222.5235 H   0  0  0  0  0  0  0  0  0  0  0  0
  138.1948   74.0671  221.8032 H   0  0  0  0  0  0  0  0  0  0  0  0
  139.7310   73.0470  223.8190 H   0  0  0  0  0  0  0  0  0  0  0  0
  138.5068   70.8382  224.1075 H   0  0  0  0  0  0  0  0  0  0  0  0
  140.0952   70.1000  223.5631 H   0  0  0  0  0  0  0  0  0  0  0  0
  141.2372   72.7412  225.3686 H   0  0  0  0  0  0  0  0  0  0  0  0
  142.0138   72.6355  227.7158 H   0  0  0  0  0  0  0  0  0  0  0  0
  141.3119   70.7303  229.1706 H   0  0  0  0  0  0  0  0  0  0  0  0
  139.8393   68.9674  228.2392 H   0  0  0  0  0  0  0  0  0  0  0  0
  139.0558   69.0667  225.8849 H   0  0  0  0  0  0  0  0  0  0  0  0
  142.8198   74.3502  220.8826 H   0  0  0  0  0  0  0  0  0  0  0  0
  143.1227   72.8310  221.0295 H   0  0  0  0  0  0  0  0  0  0  0  0
  140.8898   74.1865  219.1810 H   0  0  0  0  0  0  0  0  0  0  0  0
  140.8540   72.6362  219.0294 H   0  0  0  0  0  0  0  0  0  0  0  0
  142.1425   75.7247  221.8318 H   0  0  0  0  0  0  0  0  0  0  0  0
  141.9197   78.0936  223.6070 H   0  0  0  0  0  0  0  0  0  0  0  0
  142.2862   78.1214  221.8602 H   0  0  0  0  0  0  0  0  0  0  0  0
  1  2  1  0
  2  3  2  0
  2  4  2  0
  2  5  1  0
  5  6  1  0
  6  7  1  0
  7  8  1  0
  8  9  2  0
  9 10  1  0
 10 11  2  0
 11 12  1  0
 12 13  1  0
 13 14  2  0
 13 15  1  0
 15 16  1  0
 16 17  1  0
 17 18  2  0
 18 19  1  0
 19 20  2  0
 20 21  1  0
 21 22  2  0
 12 23  1  0
 23 24  1  0
 11 25  1  0
 25 26  2  0
 26 27  1  0
 27  5  1  0
 26  8  1  0
 24 12  1  0
 22 17  1  0
  1 28  1  0
  1 29  1  0
  1 30  1  0
  6 31  1  0
  6 32  1  0
  7 33  1  0
  7 34  1  0
  9 35  1  0
 10 36  1  0
 15 37  1  0
 16 38  1  0
 16 39  1  0
 18 40  1  0
 19 41  1  0
 20 42  1  0
 21 43  1  0
 22 44  1  0
 23 45  1  0
 23 46  1  0
 24 47  1  0
 24 48  1  0
 25 49  1  0
 27 50  1  0
 27 51  1  0
M  END
>  <smiles>  (15) 
CS(=O)(=O)N1CCc2ccc(C3(C(=O)NCc4ccccc4)CC3)cc2C1

>  <score_type>  (15) 
oracle

>  <origin>  (15) 
autodockgpu

>  <m_score__min__energy>  (15) 
-8.7599999999999998

>  <m_primary>  (15) 
energy

>  <meeko>  (15) 
{"free_energy": -8.63, "intermolecular_energy": -10.12, "internal_energy": -0.96, "cluster_size": 18, "cluster_id": 2, "rank_in_cluster": 5}

>  <energy>  (15) 
-8.57

>  <cluster_rmsd>  (15) 
0.22

>  <rmsd>  (15) 
271.35

>  <cluster>  (15) 
2

$$$$

     RDKit          3D

 51 54  0  0  0  0  0  0  0  0999 V2000
  141.1600   81.8160  222.2810 C   0  0  0  0  0  0  0  0  0  0  0  0
  141.4420   80.3030  223.1690 S   0  0  0  0  0  0  0  0  0  0  0  0
  142.5190   80.4990  224.1740 O   0  0  0  0  0  0  0  0  0  0  0  0
  140.1290   79.9400  223.8480 O   0  0  0  0  0  0  0  0  0  0  0  0
  141.7850   79.0130  222.0580 N   0  0  0  0  0  0  0  0  0  0  0  0
  141.4300   79.4780  220.7550 C   0  0  0  0  0  0  0  0  0  0  0  0
  141.8490   78.5830  219.6320 C   0  0  0  0  0  0  0  0  0  0  0  0
  141.6930   77.1840  220.0640 C   0  0  0  0  0  0  0  0  0  0  0  0
  141.9060   76.1960  219.1220 C   0  0  0  0  0  0  0  0  0  0  0  0
  141.7720   74.8680  219.4780 C   0  0  0  0  0  0  0  0  0  0  0  0
  141.4300   74.4500  220.7450 C   0  0  0  0  0  0  0  0  0  0  0  0
  141.3110   73.0120  221.1230 C   0  0  0  0  0  0  0  0  0  0  0  0
  140.3580   72.6120  222.1940 C   0  0  0  0  0  0  0  0  0  0  0  0
  139.5860   73.5060  222.6750 O   0  0  0  0  0  0  0  0  0  0  0  0
  140.2410   71.3160  222.7250 N   0  0  0  0  0  0  0  0  0  0  0  0
  139.3320   70.9000  223.7510 C   0  0  0  0  0  0  0  0  0  0  0  0
  139.9040   70.9070  225.1200 C   0  0  0  0  0  0  0  0  0  0  0  0
  140.7370   71.8920  225.5990 C   0  0  0  0  0  0  0  0  0  0  0  0
  141.2410   71.8510  226.8890 C   0  0  0  0  0  0  0  0  0  0  0  0
  140.9050   70.7960  227.7250 C   0  0  0  0  0  0  0  0  0  0  0  0
  140.0690   69.8020  227.2470 C   0  0  0  0  0  0  0  0  0  0  0  0
  139.5600   69.8380  225.9560 C   0  0  0  0  0  0  0  0  0  0  0  0
  142.5870   72.2070  221.1670 C   0  0  0  0  0  0  0  0  0  0  0  0
  141.6430   72.0320  220.0390 C   0  0  0  0  0  0  0  0  0  0  0  0
  141.2150   75.4570  221.6950 C   0  0  0  0  0  0  0  0  0  0  0  0
  141.3490   76.8030  221.3450 C   0  0  0  0  0  0  0  0  0  0  0  0
  141.1030   77.8070  222.4180 C   0  0  0  0  0  0  0  0  0  0  0  0
  141.0068   82.6377  222.9961 H   0  0  0  0  0  0  0  0  0  0  0  0
  142.0322   82.0380  221.6486 H   0  0  0  0  0  0  0  0  0  0  0  0
  140.2664   81.7089  221.6486 H   0  0  0  0  0  0  0  0  0  0  0  0
  140.3359   79.5853  220.7166 H   0  0  0  0  0  0  0  0  0  0  0  0
  141.9656   80.4277  220.6094 H   0  0  0  0  0  0  0  0  0  0  0  0
  141.2169   78.7719  218.7518 H   0  0  0  0  0  0  0  0  0  0  0  0
  142.8980   78.7796  219.3657 H   0  0  0  0  0  0  0  0  0  0  0  0
  142.1814   76.4660  218.0918 H   0  0  0  0  0  0  0  0  0  0  0  0
  141.9480   74.1027  218.7077 H   0  0  0  0  0  0  0  0  0  0  0  0
  140.8910   70.5710  222.3380 H   0  0  0  0  0  0  0  0  0  0  0  0
  138.4653   71.5773  223.7374 H   0  0  0  0  0  0  0  0  0  0  0  0
  139.0659   69.8561  223.5286 H   0  0  0  0  0  0  0  0  0  0  0  0
  141.0091   72.7316  224.9424 H   0  0  0  0  0  0  0  0  0  0  0  0
  141.9045   72.6513  227.2487 H   0  0  0  0  0  0  0  0  0  0  0  0
  141.2970   70.7503  228.7518 H   0  0  0  0  0  0  0  0  0  0  0  0
  139.8014   68.9630  227.9061 H   0  0  0  0  0  0  0  0  0  0  0  0
  138.8962   69.0385  225.5952 H   0  0  0  0  0  0  0  0  0  0  0  0
  143.5552   72.7022  221.0017 H   0  0  0  0  0  0  0  0  0  0  0  0
  143.0559   71.5335  221.8994 H   0  0  0  0  0  0  0  0  0  0  0  0
  141.9141   72.3952  219.0367 H   0  0  0  0  0  0  0  0  0  0  0  0
  141.1257   71.1709  219.5908 H   0  0  0  0  0  0  0  0  0  0  0  0
  140.9385   75.1858  222.7246 H   0  0  0  0  0  0  0  0  0  0  0  0
  140.0239   78.0007  222.5081 H   0  0  0  0  0  0  0  0  0  0  0  0
  141.4717   77.4326  223.3844 H   0  0  0  0  0  0  0  0  0  0  0  0
  1  2  1  0
  2  3  2  0
  2  4  2  0
  2  5  1  0
  5  6  1  0
  6  7  1  0
  7  8  1  0
  8  9  2  0
  9 10  1  0
 10 11  2  0
 11 12  1  0
 12 13  1  0
 13 14  2  0
 13 15  1  0
 15 16  1  0
 16 17  1  0
 17 18  2  0
 18 19  1  0
 19 20  2  0
 20 21  1  0
 21 22  2  0
 12 23  1  0
 23 24  1  0
 11 25  1  0
 25 26  2  0
 26 27  1  0
 27  5  1  0
 26  8  1  0
 24 12  1  0
 22 17  1  0
  1 28  1  0
  1 29  1  0
  1 30  1  0
  6 31  1  0
  6 32  1  0
  7 33  1  0
  7 34  1  0
  9 35  1  0
 10 36  1  0
 15 37  1  0
 16 38  1  0
 16 39  1  0
 18 40  1  0
 19 41  1  0
 20 42  1  0
 21 43  1  0
 22 44  1  0
 23 45  1  0
 23 46  1  0
 24 47  1  0
 24 48  1  0
 25 49  1  0
 27 50  1  0
 27 51  1  0
M  END
>  <smiles>  (16) 
CS(=O)(=O)N1CCc2ccc(C3(C(=O)NCc4ccccc4)CC3)cc2C1

>  <score_type>  (16) 
oracle

>  <origin>  (16) 
autodockgpu

>  <m_score__min__energy>  (16) 
-8.7599999999999998

>  <m_primary>  (16) 
energy

>  <meeko>  (16) 
{"free_energy": -8.06, "intermolecular_energy": -9.55, "internal_energy": -0.86, "cluster_size": 18, "cluster_id": 2, "rank_in_cluster": 18}

>  <energy>  (16) 
-8.55

>  <cluster_rmsd>  (16) 
0.28

>  <rmsd>  (16) 
271.43

>  <cluster>  (16) 
2

$$$$

     RDKit          3D

 51 54  0  0  0  0  0  0  0  0999 V2000
  141.4440   82.0670  221.6520 C   0  0  0  0  0  0  0  0  0  0  0  0
  141.7130   80.7440  222.8080 S   0  0  0  0  0  0  0  0  0  0  0  0
  143.1620   80.4240  222.8830 O   0  0  0  0  0  0  0  0  0  0  0  0
  141.1950   81.2260  224.1560 O   0  0  0  0  0  0  0  0  0  0  0  0
  140.7420   79.3700  222.3780 N   0  0  0  0  0  0  0  0  0  0  0  0
  139.5490   79.4410  223.1600 C   0  0  0  0  0  0  0  0  0  0  0  0
  138.4890   78.4550  222.7810 C   0  0  0  0  0  0  0  0  0  0  0  0
  139.1380   77.1890  222.4050 C   0  0  0  0  0  0  0  0  0  0  0  0
  138.3240   76.1040  222.1440 C   0  0  0  0  0  0  0  0  0  0  0  0
  138.8850   74.8940  221.7880 C   0  0  0  0  0  0  0  0  0  0  0  0
  140.2420   74.6880  221.6720 C   0  0  0  0  0  0  0  0  0  0  0  0
  140.8360   73.3820  221.2650 C   0  0  0  0  0  0  0  0  0  0  0  0
  140.4310   72.1390  221.9760 C   0  0  0  0  0  0  0  0  0  0  0  0
  140.6510   71.0210  221.4040 O   0  0  0  0  0  0  0  0  0  0  0  0
  139.8190   72.0990  223.2410 N   0  0  0  0  0  0  0  0  0  0  0  0
  139.4240   70.9200  223.9530 C   0  0  0  0  0  0  0  0  0  0  0  0
  139.9400   70.8390  225.3420 C   0  0  0  0  0  0  0  0  0  0  0  0
  139.6650   69.8030  226.2050 C   0  0  0  0  0  0  0  0  0  0  0  0
  140.1770   69.7760  227.4920 C   0  0  0  0  0  0  0  0  0  0  0  0
  140.9860   70.8130  227.9320 C   0  0  0  0  0  0  0  0  0  0  0  0
  141.2650   71.8580  227.0680 C   0  0  0  0  0  0  0  0  0  0  0  0
  140.7560   71.8910  225.7780 C   0  0  0  0  0  0  0  0  0  0  0  0
  142.3010   73.3780  220.9010 C   0  0  0  0  0  0  0  0  0  0  0  0
  141.2770   73.2930  219.8350 C   0  0  0  0  0  0  0  0  0  0  0  0
  141.0630   75.7910  221.9380 C   0  0  0  0  0  0  0  0  0  0  0  0
  140.5040   77.0210  222.2990 C   0  0  0  0  0  0  0  0  0  0  0  0
  141.4500   78.1400  222.5640 C   0  0  0  0  0  0  0  0  0  0  0  0
  141.2541   83.0009  222.2013 H   0  0  0  0  0  0  0  0  0  0  0  0
  142.3358   82.1884  221.0196 H   0  0  0  0  0  0  0  0  0  0  0  0
  140.5756   81.8305  221.0196 H   0  0  0  0  0  0  0  0  0  0  0  0
  139.8187   79.2657  224.2119 H   0  0  0  0  0  0  0  0  0  0  0  0
  139.1213   80.4386  222.9813 H   0  0  0  0  0  0  0  0  0  0  0  0
  137.8165   78.2873  223.6352 H   0  0  0  0  0  0  0  0  0  0  0  0
  137.9013   78.8416  221.9353 H   0  0  0  0  0  0  0  0  0  0  0  0
  137.2312   76.2039  222.2197 H   0  0  0  0  0  0  0  0  0  0  0  0
  138.2115   74.0481  221.5859 H   0  0  0  0  0  0  0  0  0  0  0  0
  139.6220   73.0270  223.7160 H   0  0  0  0  0  0  0  0  0  0  0  0
  138.3250   70.8944  223.9926 H   0  0  0  0  0  0  0  0  0  0  0  0
  139.8544   70.0665  223.4087 H   0  0  0  0  0  0  0  0  0  0  0  0
  139.0234   68.9767  225.8649 H   0  0  0  0  0  0  0  0  0  0  0  0
  139.9429   68.9356  228.1621 H   0  0  0  0  0  0  0  0  0  0  0  0
  141.3994   70.8053  228.9513 H   0  0  0  0  0  0  0  0  0  0  0  0
  141.9062   72.6826  227.4129 H   0  0  0  0  0  0  0  0  0  0  0  0
  140.9897   72.7309  225.1072 H   0  0  0  0  0  0  0  0  0  0  0  0
  142.8986   74.2942  221.0171 H   0  0  0  0  0  0  0  0  0  0  0  0
  143.1720   72.7722  221.1916 H   0  0  0  0  0  0  0  0  0  0  0  0
  141.1183   74.1461  219.1589 H   0  0  0  0  0  0  0  0  0  0  0  0
  141.0792   72.5959  219.0074 H   0  0  0  0  0  0  0  0  0  0  0  0
  142.1557   75.6891  221.8624 H   0  0  0  0  0  0  0  0  0  0  0  0
  141.8236   78.0766  223.5967 H   0  0  0  0  0  0  0  0  0  0  0  0
  142.3086   78.0855  221.8786 H   0  0  0  0  0  0  0  0  0  0  0  0
  1  2  1  0
  2  3  2  0
  2  4  2  0
  2  5  1  0
  5  6  1  0
  6  7  1  0
  7  8  1  0
  8  9  2  0
  9 10  1  0
 10 11  2  0
 11 12  1  0
 12 13  1  0
 13 14  2  0
 13 15  1  0
 15 16  1  0
 16 17  1  0
 17 18  2  0
 18 19  1  0
 19 20  2  0
 20 21  1  0
 21 22  2  0
 12 23  1  0
 23 24  1  0
 11 25  1  0
 25 26  2  0
 26 27  1  0
 27  5  1  0
 26  8  1  0
 24 12  1  0
 22 17  1  0
  1 28  1  0
  1 29  1  0
  1 30  1  0
  6 31  1  0
  6 32  1  0
  7 33  1  0
  7 34  1  0
  9 35  1  0
 10 36  1  0
 15 37  1  0
 16 38  1  0
 16 39  1  0
 18 40  1  0
 19 41  1  0
 20 42  1  0
 21 43  1  0
 22 44  1  0
 23 45  1  0
 23 46  1  0
 24 47  1  0
 24 48  1  0
 25 49  1  0
 27 50  1  0
 27 51  1  0
M  END
>  <smiles>  (17) 
CS(=O)(=O)N1CCc2ccc(C3(C(=O)NCc4ccccc4)CC3)cc2C1

>  <score_type>  (17) 
oracle

>  <origin>  (17) 
autodockgpu

>  <m_score__min__energy>  (17) 
-8.7599999999999998

>  <m_primary>  (17) 
energy

>  <meeko>  (17) 
{"free_energy": -8.54, "intermolecular_energy": -10.03, "internal_energy": -0.99, "cluster_size": 18, "cluster_id": 2, "rank_in_cluster": 15}

>  <energy>  (17) 
-8.54

>  <cluster_rmsd>  (17) 
0.2

>  <rmsd>  (17) 
271.32

>  <cluster>  (17) 
2

$$$$

     RDKit          3D

 51 54  0  0  0  0  0  0  0  0999 V2000
  141.4720   82.1830  221.7020 C   0  0  0  0  0  0  0  0  0  0  0  0
  141.8350   80.8470  222.8170 S   0  0  0  0  0  0  0  0  0  0  0  0
  143.2830   80.5180  222.7570 O   0  0  0  0  0  0  0  0  0  0  0  0
  141.4460   81.3200  224.2100 O   0  0  0  0  0  0  0  0  0  0  0  0
  140.8200   79.4830  222.4660 N   0  0  0  0  0  0  0  0  0  0  0  0
  139.7110   79.5450  223.3640 C   0  0  0  0  0  0  0  0  0  0  0  0
  138.6150   78.5690  223.0780 C   0  0  0  0  0  0  0  0  0  0  0  0
  139.2170   77.3060  222.6200 C   0  0  0  0  0  0  0  0  0  0  0  0
  138.3760   76.2280  222.4250 C   0  0  0  0  0  0  0  0  0  0  0  0
  138.8930   75.0220  221.9970 C   0  0  0  0  0  0  0  0  0  0  0  0
  140.2310   74.8140  221.7430 C   0  0  0  0  0  0  0  0  0  0  0  0
  140.7750   73.5120  221.2580 C   0  0  0  0  0  0  0  0  0  0  0  0
  140.3600   72.2500  221.9280 C   0  0  0  0  0  0  0  0  0  0  0  0
  140.3670   71.1760  221.2400 O   0  0  0  0  0  0  0  0  0  0  0  0
  139.9550   72.1460  223.2690 N   0  0  0  0  0  0  0  0  0  0  0  0
  139.5550   70.9460  223.9430 C   0  0  0  0  0  0  0  0  0  0  0  0
  140.0040   70.8550  225.3540 C   0  0  0  0  0  0  0  0  0  0  0  0
  139.6610   69.8290  226.2050 C   0  0  0  0  0  0  0  0  0  0  0  0
  140.1110   69.7920  227.5150 C   0  0  0  0  0  0  0  0  0  0  0  0
  140.9260   70.8090  227.9900 C   0  0  0  0  0  0  0  0  0  0  0  0
  141.2730   71.8430  227.1390 C   0  0  0  0  0  0  0  0  0  0  0  0
  140.8260   71.8860  225.8260 C   0  0  0  0  0  0  0  0  0  0  0  0
  142.2270   73.4870  220.8460 C   0  0  0  0  0  0  0  0  0  0  0  0
  141.1670   73.4770  219.8120 C   0  0  0  0  0  0  0  0  0  0  0  0
  141.0790   75.9110  221.9420 C   0  0  0  0  0  0  0  0  0  0  0  0
  140.5640   77.1360  222.3750 C   0  0  0  0  0  0  0  0  0  0  0  0
  141.5380   78.2490  222.5610 C   0  0  0  0  0  0  0  0  0  0  0  0
  141.2266   83.0863  222.2797 H   0  0  0  0  0  0  0  0  0  0  0  0
  142.3491   82.3802  221.0682 H   0  0  0  0  0  0  0  0  0  0  0  0
  140.6157   81.9092  221.0682 H   0  0  0  0  0  0  0  0  0  0  0  0
  140.0834   79.3525  224.3810 H   0  0  0  0  0  0  0  0  0  0  0  0
  139.2719   80.5464  223.2438 H   0  0  0  0  0  0  0  0  0  0  0  0
  138.0302   78.3904  223.9924 H   0  0  0  0  0  0  0  0  0  0  0  0
  137.9482   78.9705  222.3007 H   0  0  0  0  0  0  0  0  0  0  0  0
  137.2966   76.3303  222.6104 H   0  0  0  0  0  0  0  0  0  0  0  0
  138.1990   74.1812  221.8507 H   0  0  0  0  0  0  0  0  0  0  0  0
  139.9340   73.0390  223.8420 H   0  0  0  0  0  0  0  0  0  0  0  0
  138.4564   70.8931  223.9278 H   0  0  0  0  0  0  0  0  0  0  0  0
  140.0328   70.1121  223.4079 H   0  0  0  0  0  0  0  0  0  0  0  0
  139.0143   69.0192  225.8364 H   0  0  0  0  0  0  0  0  0  0  0  0
  139.8234   68.9603  228.1750 H   0  0  0  0  0  0  0  0  0  0  0  0
  141.2908   70.7935  229.0276 H   0  0  0  0  0  0  0  0  0  0  0  0
  141.9192   72.6511  227.5124 H   0  0  0  0  0  0  0  0  0  0  0  0
  141.1131   72.7176  225.1657 H   0  0  0  0  0  0  0  0  0  0  0  0
  142.8527   74.3813  220.9831 H   0  0  0  0  0  0  0  0  0  0  0  0
  143.0902   72.8466  221.0801 H   0  0  0  0  0  0  0  0  0  0  0  0
  141.0098   74.3638  219.1804 H   0  0  0  0  0  0  0  0  0  0  0  0
  140.9238   72.8236  218.9612 H   0  0  0  0  0  0  0  0  0  0  0  0
  142.1582   75.8076  221.7561 H   0  0  0  0  0  0  0  0  0  0  0  0
  142.0131   78.1684  223.5498 H   0  0  0  0  0  0  0  0  0  0  0  0
  142.3235   78.2029  221.7923 H   0  0  0  0  0  0  0  0  0  0  0  0
  1  2  1  0
  2  3  2  0
  2  4  2  0
  2  5  1  0
  5  6  1  0
  6  7  1  0
  7  8  1  0
  8  9  2  0
  9 10  1  0
 10 11  2  0
 11 12  1  0
 12 13  1  0
 13 14  2  0
 13 15  1  0
 15 16  1  0
 16 17  1  0
 17 18  2  0
 18 19  1  0
 19 20  2  0
 20 21  1  0
 21 22  2  0
 12 23  1  0
 23 24  1  0
 11 25  1  0
 25 26  2  0
 26 27  1  0
 27  5  1  0
 26  8  1  0
 24 12  1  0
 22 17  1  0
  1 28  1  0
  1 29  1  0
  1 30  1  0
  6 31  1  0
  6 32  1  0
  7 33  1  0
  7 34  1  0
  9 35  1  0
 10 36  1  0
 15 37  1  0
 16 38  1  0
 16 39  1  0
 18 40  1  0
 19 41  1  0
 20 42  1  0
 21 43  1  0
 22 44  1  0
 23 45  1  0
 23 46  1  0
 24 47  1  0
 24 48  1  0
 25 49  1  0
 27 50  1  0
 27 51  1  0
M  END
>  <smiles>  (18) 
CS(=O)(=O)N1CCc2ccc(C3(C(=O)NCc4ccccc4)CC3)cc2C1

>  <score_type>  (18) 
oracle

>  <origin>  (18) 
autodockgpu

>  <m_score__min__energy>  (18) 
-8.7599999999999998

>  <m_primary>  (18) 
energy

>  <meeko>  (18) 
{"free_energy": -8.61, "intermolecular_energy": -10.11, "internal_energy": -0.96, "cluster_size": 18, "cluster_id": 2, "rank_in_cluster": 6}

>  <energy>  (18) 
-8.43

>  <cluster_rmsd>  (18) 
0.44

>  <rmsd>  (18) 
271.3

>  <cluster>  (18) 
2

$$$$

     RDKit          3D

 51 54  0  0  0  0  0  0  0  0999 V2000
  141.4820   82.2220  221.6920 C   0  0  0  0  0  0  0  0  0  0  0  0
  141.8340   80.8760  222.7990 S   0  0  0  0  0  0  0  0  0  0  0  0
  143.2750   80.5230  222.7240 O   0  0  0  0  0  0  0  0  0  0  0  0
  141.4660   81.3490  224.1970 O   0  0  0  0  0  0  0  0  0  0  0  0
  140.7930   79.5300  222.4520 N   0  0  0  0  0  0  0  0  0  0  0  0
  139.6830   79.6200  223.3460 C   0  0  0  0  0  0  0  0  0  0  0  0
  138.5680   78.6640  223.0620 C   0  0  0  0  0  0  0  0  0  0  0  0
  139.1460   77.3870  222.6130 C   0  0  0  0  0  0  0  0  0  0  0  0
  138.2840   76.3250  222.4220 C   0  0  0  0  0  0  0  0  0  0  0  0
  138.7790   75.1060  222.0020 C   0  0  0  0  0  0  0  0  0  0  0  0
  140.1130   74.8690  221.7540 C   0  0  0  0  0  0  0  0  0  0  0  0
  140.6320   73.5550  221.2790 C   0  0  0  0  0  0  0  0  0  0  0  0
  140.2080   72.3070  221.9700 C   0  0  0  0  0  0  0  0  0  0  0  0
  139.9490   71.2840  221.2540 O   0  0  0  0  0  0  0  0  0  0  0  0
  140.0680   72.1650  223.3610 N   0  0  0  0  0  0  0  0  0  0  0  0
  139.6680   70.9770  224.0550 C   0  0  0  0  0  0  0  0  0  0  0  0
  140.0950   70.9210  225.4750 C   0  0  0  0  0  0  0  0  0  0  0  0
  140.8530   71.8920  226.0880 C   0  0  0  0  0  0  0  0  0  0  0  0
  141.2220   71.7910  227.4200 C   0  0  0  0  0  0  0  0  0  0  0  0
  140.8220   70.6880  228.1610 C   0  0  0  0  0  0  0  0  0  0  0  0
  140.0600   69.7090  227.5490 C   0  0  0  0  0  0  0  0  0  0  0  0
  139.6880   69.8050  226.2160 C   0  0  0  0  0  0  0  0  0  0  0  0
  142.0780   73.5040  220.8480 C   0  0  0  0  0  0  0  0  0  0  0  0
  141.0040   73.4960  219.8280 C   0  0  0  0  0  0  0  0  0  0  0  0
  140.9820   75.9510  221.9500 C   0  0  0  0  0  0  0  0  0  0  0  0
  140.4900   77.1880  222.3740 C   0  0  0  0  0  0  0  0  0  0  0  0
  141.4860   78.2820  222.5560 C   0  0  0  0  0  0  0  0  0  0  0  0
  141.2460   83.1243  222.2752 H   0  0  0  0  0  0  0  0  0  0  0  0
  142.3600   82.4145  221.0579 H   0  0  0  0  0  0  0  0  0  0  0  0
  140.6222   81.9600  221.0579 H   0  0  0  0  0  0  0  0  0  0  0  0
  140.0483   79.4262  224.3653 H   0  0  0  0  0  0  0  0  0  0  0  0
  139.2647   80.6294  223.2187 H   0  0  0  0  0  0  0  0  0  0  0  0
  137.9770   78.5022  223.9756 H   0  0  0  0  0  0  0  0  0  0  0  0
  137.9116   79.0743  222.2805 H   0  0  0  0  0  0  0  0  0  0  0  0
  137.2063   76.4497  222.6038 H   0  0  0  0  0  0  0  0  0  0  0  0
  138.0687   74.2786  221.8575 H   0  0  0  0  0  0  0  0  0  0  0  0
  140.2690   73.0180  223.9600 H   0  0  0  0  0  0  0  0  0  0  0  0
  138.5703   70.9138  224.0235 H   0  0  0  0  0  0  0  0  0  0  0  0
  140.1619   70.1360  223.5462 H   0  0  0  0  0  0  0  0  0  0  0  0
  141.1737   72.7693  225.5070 H   0  0  0  0  0  0  0  0  0  0  0  0
  141.8286   72.5808  227.8873 H   0  0  0  0  0  0  0  0  0  0  0  0
  141.1066   70.5936  229.2193 H   0  0  0  0  0  0  0  0  0  0  0  0
  139.7413   68.8333  228.1334 H   0  0  0  0  0  0  0  0  0  0  0  0
  139.0818   69.0155  225.7478 H   0  0  0  0  0  0  0  0  0  0  0  0
  142.7180   74.3909  220.9652 H   0  0  0  0  0  0  0  0  0  0  0  0
  142.9351   72.8543  221.0789 H   0  0  0  0  0  0  0  0  0  0  0  0
  140.8508   74.3769  219.1872 H   0  0  0  0  0  0  0  0  0  0  0  0
  140.7402   72.8354  218.9889 H   0  0  0  0  0  0  0  0  0  0  0  0
  142.0596   75.8253  221.7686 H   0  0  0  0  0  0  0  0  0  0  0  0
  141.9570   78.1975  223.5464 H   0  0  0  0  0  0  0  0  0  0  0  0
  142.2724   78.2155  221.7897 H   0  0  0  0  0  0  0  0  0  0  0  0
  1  2  1  0
  2  3  2  0
  2  4  2  0
  2  5  1  0
  5  6  1  0
  6  7  1  0
  7  8  1  0
  8  9  2  0
  9 10  1  0
 10 11  2  0
 11 12  1  0
 12 13  1  0
 13 14  2  0
 13 15  1  0
 15 16  1  0
 16 17  1  0
 17 18  2  0
 18 19  1  0
 19 20  2  0
 20 21  1  0
 21 22  2  0
 12 23  1  0
 23 24  1  0
 11 25  1  0
 25 26  2  0
 26 27  1  0
 27  5  1  0
 26  8  1  0
 24 12  1  0
 22 17  1  0
  1 28  1  0
  1 29  1  0
  1 30  1  0
  6 31  1  0
  6 32  1  0
  7 33  1  0
  7 34  1  0
  9 35  1  0
 10 36  1  0
 15 37  1  0
 16 38  1  0
 16 39  1  0
 18 40  1  0
 19 41  1  0
 20 42  1  0
 21 43  1  0
 22 44  1  0
 23 45  1  0
 23 46  1  0
 24 47  1  0
 24 48  1  0
 25 49  1  0
 27 50  1  0
 27 51  1  0
M  END
>  <smiles>  (19) 
CS(=O)(=O)N1CCc2ccc(C3(C(=O)NCc4ccccc4)CC3)cc2C1

>  <score_type>  (19) 
oracle

>  <origin>  (19) 
autodockgpu

>  <m_score__min__energy>  (19) 
-8.7599999999999998

>  <m_primary>  (19) 
energy

>  <meeko>  (19) 
{"free_energy": -8.55, "intermolecular_energy": -10.04, "internal_energy": -0.92, "cluster_size": 18, "cluster_id": 2, "rank_in_cluster": 14}

>  <energy>  (19) 
-8.22

>  <cluster_rmsd>  (19) 
1.64

>  <rmsd>  (19) 
271.13

>  <cluster>  (19) 
2

$$$$

     RDKit          3D

 51 54  0  0  0  0  0  0  0  0999 V2000
  141.6930   82.0090  221.6640 C   0  0  0  0  0  0  0  0  0  0  0  0
  141.8480   80.7350  222.8940 S   0  0  0  0  0  0  0  0  0  0  0  0
  143.2700   80.3200  223.0150 O   0  0  0  0  0  0  0  0  0  0  0  0
  141.3430   81.3240  224.2030 O   0  0  0  0  0  0  0  0  0  0  0  0
  140.7910   79.4100  222.5180 N   0  0  0  0  0  0  0  0  0  0  0  0
  139.6710   79.5060  223.3990 C   0  0  0  0  0  0  0  0  0  0  0  0
  138.5450   78.5710  223.0900 C   0  0  0  0  0  0  0  0  0  0  0  0
  139.1100   77.2910  222.6320 C   0  0  0  0  0  0  0  0  0  0  0  0
  138.2340   76.2450  222.4170 C   0  0  0  0  0  0  0  0  0  0  0  0
  138.7150   75.0240  221.9880 C   0  0  0  0  0  0  0  0  0  0  0  0
  140.0480   74.7690  221.7540 C   0  0  0  0  0  0  0  0  0  0  0  0
  140.5530   73.4520  221.2680 C   0  0  0  0  0  0  0  0  0  0  0  0
  140.3340   72.2340  222.0940 C   0  0  0  0  0  0  0  0  0  0  0  0
  141.0850   71.2260  221.8870 O   0  0  0  0  0  0  0  0  0  0  0  0
  139.3540   72.1050  223.0930 N   0  0  0  0  0  0  0  0  0  0  0  0
  139.1220   70.9490  223.9080 C   0  0  0  0  0  0  0  0  0  0  0  0
  139.8240   70.9670  225.2140 C   0  0  0  0  0  0  0  0  0  0  0  0
  140.7820   71.8920  225.5600 C   0  0  0  0  0  0  0  0  0  0  0  0
  141.4050   71.8640  226.7970 C   0  0  0  0  0  0  0  0  0  0  0  0
  141.0630   70.8830  227.7160 C   0  0  0  0  0  0  0  0  0  0  0  0
  140.1010   69.9500  227.3740 C   0  0  0  0  0  0  0  0  0  0  0  0
  139.4730   69.9730  226.1360 C   0  0  0  0  0  0  0  0  0  0  0  0
  141.9000   73.4440  220.5870 C   0  0  0  0  0  0  0  0  0  0  0  0
  140.6650   73.3150  219.7800 C   0  0  0  0  0  0  0  0  0  0  0  0
  140.9310   75.8340  221.9730 C   0  0  0  0  0  0  0  0  0  0  0  0
  140.4540   77.0740  222.4070 C   0  0  0  0  0  0  0  0  0  0  0  0
  141.4630   78.1500  222.6150 C   0  0  0  0  0  0  0  0  0  0  0  0
  141.5743   82.9841  222.1590 H   0  0  0  0  0  0  0  0  0  0  0  0
  142.5959   82.0241  221.0359 H   0  0  0  0  0  0  0  0  0  0  0  0
  140.8128   81.8071  221.0359 H   0  0  0  0  0  0  0  0  0  0  0  0
  140.0205   79.2944  224.4203 H   0  0  0  0  0  0  0  0  0  0  0  0
  139.2696   80.5230  223.2782 H   0  0  0  0  0  0  0  0  0  0  0  0
  137.9407   78.4069  223.9944 H   0  0  0  0  0  0  0  0  0  0  0  0
  137.9038   79.0008  222.3063 H   0  0  0  0  0  0  0  0  0  0  0  0
  137.1562   76.3844  222.5871 H   0  0  0  0  0  0  0  0  0  0  0  0
  137.9936   74.2099  221.8241 H   0  0  0  0  0  0  0  0  0  0  0  0
  138.7160   72.9370  223.2600 H   0  0  0  0  0  0  0  0  0  0  0  0
  138.0414   70.8749  224.0997 H   0  0  0  0  0  0  0  0  0  0  0  0
  139.5197   70.0881  223.3507 H   0  0  0  0  0  0  0  0  0  0  0  0
  141.0600   72.6728  224.8367 H   0  0  0  0  0  0  0  0  0  0  0  0
  142.1671   72.6160  227.0492 H   0  0  0  0  0  0  0  0  0  0  0  0
  141.5495   70.8476  228.7019 H   0  0  0  0  0  0  0  0  0  0  0  0
  139.8268   69.1708  228.1005 H   0  0  0  0  0  0  0  0  0  0  0  0
  138.7108   69.2214  225.8830 H   0  0  0  0  0  0  0  0  0  0  0  0
  142.4957   74.3673  220.5363 H   0  0  0  0  0  0  0  0  0  0  0  0
  142.8222   72.8543  220.6958 H   0  0  0  0  0  0  0  0  0  0  0  0
  140.3477   74.1426  219.1285 H   0  0  0  0  0  0  0  0  0  0  0  0
  140.2972   72.5878  219.0412 H   0  0  0  0  0  0  0  0  0  0  0  0
  142.0085   75.6934  221.8021 H   0  0  0  0  0  0  0  0  0  0  0  0
  141.9200   78.0461  223.6102 H   0  0  0  0  0  0  0  0  0  0  0  0
  142.2576   78.0809  221.8575 H   0  0  0  0  0  0  0  0  0  0  0  0
  1  2  1  0
  2  3  2  0
  2  4  2  0
  2  5  1  0
  5  6  1  0
  6  7  1  0
  7  8  1  0
  8  9  2  0
  9 10  1  0
 10 11  2  0
 11 12  1  0
 12 13  1  0
 13 14  2  0
 13 15  1  0
 15 16  1  0
 16 17  1  0
 17 18  2  0
 18 19  1  0
 19 20  2  0
 20 21  1  0
 21 22  2  0
 12 23  1  0
 23 24  1  0
 11 25  1  0
 25 26  2  0
 26 27  1  0
 27  5  1  0
 26  8  1  0
 24 12  1  0
 22 17  1  0
  1 28  1  0
  1 29  1  0
  1 30  1  0
  6 31  1  0
  6 32  1  0
  7 33  1  0
  7 34  1  0
  9 35  1  0
 10 36  1  0
 15 37  1  0
 16 38  1  0
 16 39  1  0
 18 40  1  0
 19 41  1  0
 20 42  1  0
 21 43  1  0
 22 44  1  0
 23 45  1  0
 23 46  1  0
 24 47  1  0
 24 48  1  0
 25 49  1  0
 27 50  1  0
 27 51  1  0
M  END
>  <smiles>  (20) 
CS(=O)(=O)N1CCc2ccc(C3(C(=O)NCc4ccccc4)CC3)cc2C1

>  <score_type>  (20) 
oracle

>  <origin>  (20) 
autodockgpu

>  <m_score__min__energy>  (20) 
-8.7599999999999998

>  <m_primary>  (20) 
energy

>  <meeko>  (20) 
{"free_energy": -8.43, "intermolecular_energy": -9.93, "internal_energy": -1.03, "cluster_size": 18, "cluster_id": 2, "rank_in_cluster": 16}

>  <energy>  (20) 
-8.06

>  <cluster_rmsd>  (20) 
1.61

>  <rmsd>  (20) 
271.1

>  <cluster>  (20) 
2

$$$$
