OEPCAOMNAWYQBL-UHFFFAOYNA-N
     RDKit          3D

 47 49  0  0  0  0  0  0  0  0999 V2000
  139.8720   73.6920  220.2200 O   0  0  0  0  0  0  0  0  0  0  0  0
  141.0730   73.8690  221.1080 S   0  0  0  0  0  0  0  0  0  0  0  0
  140.8440   73.0700  222.3590 O   0  0  0  0  0  0  0  0  0  0  0  0
  141.2680   75.5420  221.5430 N   0  0  0  0  0  0  0  0  0  0  0  0
  140.1740   76.4140  221.8790 C   0  0  0  0  0  0  0  0  0  0  0  0
  139.0370   75.9170  222.5420 C   0  0  0  0  0  0  0  0  0  0  0  0
  137.9610   76.7570  222.8390 C   0  0  0  0  0  0  0  0  0  0  0  0
  137.9970   78.1010  222.4660 C   0  0  0  0  0  0  0  0  0  0  0  0
  136.6150   79.1790  222.8520 S   0  0  0  0  0  0  0  0  0  0  0  0
  137.6500   80.4470  223.6530 C   0  0  0  0  0  0  0  0  0  0  0  0
  138.6960   79.8430  224.3260 F   0  0  0  0  0  0  0  0  0  0  0  0
  138.1600   81.2910  222.6860 F   0  0  0  0  0  0  0  0  0  0  0  0
  139.1150   78.6090  221.7990 C   0  0  0  0  0  0  0  0  0  0  0  0
  140.2030   77.7770  221.5030 C   0  0  0  0  0  0  0  0  0  0  0  0
  141.6230   78.5000  220.6670 S   0  0  0  0  0  0  0  0  0  0  0  0
  141.8750   79.7280  221.9500 C   0  0  0  0  0  0  0  0  0  0  0  0
  141.5320   81.0660  221.7190 C   0  0  0  0  0  0  0  0  0  0  0  0
  141.7190   82.0210  222.7240 C   0  0  0  0  0  0  0  0  0  0  0  0
  142.2550   81.6400  223.9590 C   0  0  0  0  0  0  0  0  0  0  0  0
  142.6080   80.3060  224.1870 C   0  0  0  0  0  0  0  0  0  0  0  0
  142.4210   79.3520  223.1840 C   0  0  0  0  0  0  0  0  0  0  0  0
  142.5010   73.2720  220.2990 N   0  0  0  0  0  0  0  0  0  0  0  0
  142.8550   71.9500  220.8470 C   0  0  0  0  0  0  0  0  0  0  0  0
  144.0670   71.3760  220.1050 C   0  0  0  0  0  0  0  0  0  0  0  0
  145.2550   72.3370  220.1980 C   0  0  0  0  0  0  0  0  0  0  0  0
  144.8560   73.7380  219.7280 C   0  0  0  0  0  0  0  0  0  0  0  0
  143.6110   74.2230  220.4810 C   0  0  0  0  0  0  0  0  0  0  0  0
  142.2470   75.8590  221.7200 H   0  0  0  0  0  0  0  0  0  0  0  0
  138.9948   74.8561  222.8295 H   0  0  0  0  0  0  0  0  0  0  0  0
  137.0832   76.3578  223.3683 H   0  0  0  0  0  0  0  0  0  0  0  0
  137.0393   81.0180  224.3679 H   0  0  0  0  0  0  0  0  0  0  0  0
  139.1411   79.6685  221.5045 H   0  0  0  0  0  0  0  0  0  0  0  0
  141.1151   81.3663  220.7463 H   0  0  0  0  0  0  0  0  0  0  0  0
  141.4448   83.0709  222.5434 H   0  0  0  0  0  0  0  0  0  0  0  0
  142.3988   82.3899  224.7508 H   0  0  0  0  0  0  0  0  0  0  0  0
  143.0331   80.0079  225.1567 H   0  0  0  0  0  0  0  0  0  0  0  0
  142.7029   78.3040  223.3634 H   0  0  0  0  0  0  0  0  0  0  0  0
  143.0981   72.0527  221.9149 H   0  0  0  0  0  0  0  0  0  0  0  0
  142.0009   71.2686  220.7198 H   0  0  0  0  0  0  0  0  0  0  0  0
  144.3447   70.4119  220.5561 H   0  0  0  0  0  0  0  0  0  0  0  0
  143.8034   71.2365  219.0462 H   0  0  0  0  0  0  0  0  0  0  0  0
  145.5956   72.3900  221.2426 H   0  0  0  0  0  0  0  0  0  0  0  0
  146.0630   71.9639  219.5514 H   0  0  0  0  0  0  0  0  0  0  0  0
  145.6870   74.4335  219.9168 H   0  0  0  0  0  0  0  0  0  0  0  0
  144.6292   73.7012  218.6523 H   0  0  0  0  0  0  0  0  0  0  0  0
  143.8448   74.3071  221.5526 H   0  0  0  0  0  0  0  0  0  0  0  0
  143.3112   75.2035  220.0827 H   0  0  0  0  0  0  0  0  0  0  0  0
  1  2  2  0
  2  3  2  0
  2  4  1  0
  4  5  1  0
  5  6  2  0
  6  7  1  0
  7  8  2  0
  8  9  1  0
  9 10  1  0
 10 11  1  0
 10 12  1  0
  8 13  1  0
 13 14  2  0
 14 15  1  0
 15 16  1  0
 16 17  2  0
 17 18  1  0
 18 19  2  0
 19 20  1  0
 20 21  2  0
  2 22  1  0
 22 23  1  0
 23 24  1  0
 24 25  1  0
 25 26  1  0
 26 27  1  0
 14  5  1  0
 21 16  1  0
 27 22  1  0
  4 28  1  0
  6 29  1  0
  7 30  1  0
 10 31  1  0
 13 32  1  0
 17 33  1  0
 18 34  1  0
 19 35  1  0
 20 36  1  0
 21 37  1  0
 23 38  1  0
 23 39  1  0
 24 40  1  0
 24 41  1  0
 25 42  1  0
 25 43  1  0
 26 44  1  0
 26 45  1  0
 27 46  1  0
 27 47  1  0
M  END
>  <UniqueID>  (1) 
28

>  <SMILES>  (1) 
O=S(=O)(Nc1ccc(SC(F)F)cc1Sc1ccccc1)N1CCCCC1

>  <Energy>  (1) 
36.49725200004563

>  <Genealogy>  (1) 
O=S(=O)(Nc1ccc(SC(F)F)cc1Sc1ccccc1)N1CCCCC1 (3D coordinates assigned)
O=S(=O)(Nc1ccc(SC(F)F)cc1Sc1ccccc1)N1CCCCC1 (nonaromatic ring conformer: 36.49725200004563 kcal/mol)

>  <smiles>  (1) 
O=S(=O)(Nc1ccc(SC(F)F)cc1Sc1ccccc1)N1CCCCC1

>  <score_type>  (1) 
oracle

>  <origin>  (1) 
autodockgpu

>  <m_score__min__energy>  (1) 
-7.2800000000000002

>  <m_primary>  (1) 
energy

>  <meeko>  (1) 
{"free_energy": -6.89, "intermolecular_energy": -8.98, "internal_energy": -1.63, "cluster_size": 9, "cluster_id": 2, "rank_in_cluster": 7}

>  <energy>  (1) 
-7.28

>  <cluster_rmsd>  (1) 
0.0

>  <rmsd>  (1) 
271.91

>  <cluster>  (1) 
1

$$$$
OEPCAOMNAWYQBL-UHFFFAOYNA-N
     RDKit          3D

 47 49  0  0  0  0  0  0  0  0999 V2000
  140.5360   73.3660  219.9290 O   0  0  0  0  0  0  0  0  0  0  0  0
  141.3960   73.6930  221.1190 S   0  0  0  0  0  0  0  0  0  0  0  0
  140.7420   73.1040  222.3370 O   0  0  0  0  0  0  0  0  0  0  0  0
  141.5160   75.4160  221.3280 N   0  0  0  0  0  0  0  0  0  0  0  0
  140.4130   76.2530  221.7200 C   0  0  0  0  0  0  0  0  0  0  0  0
  139.2900   75.7050  222.3660 C   0  0  0  0  0  0  0  0  0  0  0  0
  138.2050   76.5120  222.7170 C   0  0  0  0  0  0  0  0  0  0  0  0
  138.2180   77.8750  222.4150 C   0  0  0  0  0  0  0  0  0  0  0  0
  136.8240   78.9100  222.8710 S   0  0  0  0  0  0  0  0  0  0  0  0
  137.8620   80.2350  223.5710 C   0  0  0  0  0  0  0  0  0  0  0  0
  138.9370   79.6850  224.2430 F   0  0  0  0  0  0  0  0  0  0  0  0
  138.3300   81.0320  222.5440 F   0  0  0  0  0  0  0  0  0  0  0  0
  139.3220   78.4330  221.7670 C   0  0  0  0  0  0  0  0  0  0  0  0
  140.4180   77.6340  221.4170 C   0  0  0  0  0  0  0  0  0  0  0  0
  141.8200   78.4210  220.6080 S   0  0  0  0  0  0  0  0  0  0  0  0
  141.9840   79.6660  221.8880 C   0  0  0  0  0  0  0  0  0  0  0  0
  141.5290   80.9710  221.6620 C   0  0  0  0  0  0  0  0  0  0  0  0
  141.6480   81.9390  222.6660 C   0  0  0  0  0  0  0  0  0  0  0  0
  142.2280   81.6040  223.8940 C   0  0  0  0  0  0  0  0  0  0  0  0
  142.6920   80.3030  224.1180 C   0  0  0  0  0  0  0  0  0  0  0  0
  142.5730   79.3360  223.1160 C   0  0  0  0  0  0  0  0  0  0  0  0
  142.9790   72.9840  220.9180 N   0  0  0  0  0  0  0  0  0  0  0  0
  143.9340   74.0320  220.5150 C   0  0  0  0  0  0  0  0  0  0  0  0
  145.3450   73.4460  220.3980 C   0  0  0  0  0  0  0  0  0  0  0  0
  145.3610   72.2870  219.3980 C   0  0  0  0  0  0  0  0  0  0  0  0
  144.2940   71.2490  219.7560 C   0  0  0  0  0  0  0  0  0  0  0  0
  142.9220   71.9180  219.9030 C   0  0  0  0  0  0  0  0  0  0  0  0
  142.4810   75.8130  221.3220 H   0  0  0  0  0  0  0  0  0  0  0  0
  139.2659   74.6298  222.5972 H   0  0  0  0  0  0  0  0  0  0  0  0
  137.3384   76.0725  223.2325 H   0  0  0  0  0  0  0  0  0  0  0  0
  137.2632   80.8346  224.2724 H   0  0  0  0  0  0  0  0  0  0  0  0
  139.3310   79.5071  221.5298 H   0  0  0  0  0  0  0  0  0  0  0  0
  141.0776   81.2356  220.6944 H   0  0  0  0  0  0  0  0  0  0  0  0
  141.2856   82.9625  222.4894 H   0  0  0  0  0  0  0  0  0  0  0  0
  142.3194   82.3638  224.6842 H   0  0  0  0  0  0  0  0  0  0  0  0
  143.1506   80.0413  225.0830 H   0  0  0  0  0  0  0  0  0  0  0  0
  142.9421   78.3147  223.2915 H   0  0  0  0  0  0  0  0  0  0  0  0
  143.6305   74.4454  219.5419 H   0  0  0  0  0  0  0  0  0  0  0  0
  143.9373   74.8262  221.2760 H   0  0  0  0  0  0  0  0  0  0  0  0
  146.0357   74.2303  220.0547 H   0  0  0  0  0  0  0  0  0  0  0  0
  145.6581   73.0709  221.3835 H   0  0  0  0  0  0  0  0  0  0  0  0
  145.1609   72.6775  218.3893 H   0  0  0  0  0  0  0  0  0  0  0  0
  146.3490   71.8047  219.4312 H   0  0  0  0  0  0  0  0  0  0  0  0
  144.2441   70.4917  218.9597 H   0  0  0  0  0  0  0  0  0  0  0  0
  144.5638   70.7766  220.7121 H   0  0  0  0  0  0  0  0  0  0  0  0
  142.6247   72.3522  218.9371 H   0  0  0  0  0  0  0  0  0  0  0  0
  142.1875   71.1624  220.2186 H   0  0  0  0  0  0  0  0  0  0  0  0
  1  2  2  0
  2  3  2  0
  2  4  1  0
  4  5  1  0
  5  6  2  0
  6  7  1  0
  7  8  2  0
  8  9  1  0
  9 10  1  0
 10 11  1  0
 10 12  1  0
  8 13  1  0
 13 14  2  0
 14 15  1  0
 15 16  1  0
 16 17  2  0
 17 18  1  0
 18 19  2  0
 19 20  1  0
 20 21  2  0
  2 22  1  0
 22 23  1  0
 23 24  1  0
 24 25  1  0
 25 26  1  0
 26 27  1  0
 14  5  1  0
 21 16  1  0
 27 22  1  0
  4 28  1  0
  6 29  1  0
  7 30  1  0
 10 31  1  0
 13 32  1  0
 17 33  1  0
 18 34  1  0
 19 35  1  0
 20 36  1  0
 21 37  1  0
 23 38  1  0
 23 39  1  0
 24 40  1  0
 24 41  1  0
 25 42  1  0
 25 43  1  0
 26 44  1  0
 26 45  1  0
 27 46  1  0
 27 47  1  0
M  END
>  <UniqueID>  (2) 
28

>  <SMILES>  (2) 
O=S(=O)(Nc1ccc(SC(F)F)cc1Sc1ccccc1)N1CCCCC1

>  <Energy>  (2) 
36.49725200004563

>  <Genealogy>  (2) 
O=S(=O)(Nc1ccc(SC(F)F)cc1Sc1ccccc1)N1CCCCC1 (3D coordinates assigned)
O=S(=O)(Nc1ccc(SC(F)F)cc1Sc1ccccc1)N1CCCCC1 (nonaromatic ring conformer: 36.49725200004563 kcal/mol)

>  <smiles>  (2) 
O=S(=O)(Nc1ccc(SC(F)F)cc1Sc1ccccc1)N1CCCCC1

>  <score_type>  (2) 
oracle

>  <origin>  (2) 
autodockgpu

>  <m_score__min__energy>  (2) 
-7.2800000000000002

>  <m_primary>  (2) 
energy

>  <meeko>  (2) 
{"free_energy": -7.06, "intermolecular_energy": -9.15, "internal_energy": -1.6, "cluster_size": 9, "cluster_id": 2, "rank_in_cluster": 4}

>  <energy>  (2) 
-6.74

>  <cluster_rmsd>  (2) 
1.57

>  <rmsd>  (2) 
271.61

>  <cluster>  (2) 
1

$$$$
OEPCAOMNAWYQBL-UHFFFAOYNA-N
     RDKit          3D

 47 49  0  0  0  0  0  0  0  0999 V2000
  140.3470   73.8160  220.0070 O   0  0  0  0  0  0  0  0  0  0  0  0
  141.1300   73.9060  221.2870 S   0  0  0  0  0  0  0  0  0  0  0  0
  140.3890   73.1300  222.3380 O   0  0  0  0  0  0  0  0  0  0  0  0
  141.2610   75.5620  221.8060 N   0  0  0  0  0  0  0  0  0  0  0  0
  140.1310   76.4340  221.9920 C   0  0  0  0  0  0  0  0  0  0  0  0
  138.9660   75.9720  222.6310 C   0  0  0  0  0  0  0  0  0  0  0  0
  137.8570   76.8080  222.7830 C   0  0  0  0  0  0  0  0  0  0  0  0
  137.8890   78.1120  222.2860 C   0  0  0  0  0  0  0  0  0  0  0  0
  136.4640   79.1850  222.4850 S   0  0  0  0  0  0  0  0  0  0  0  0
  137.3900   80.4760  223.3780 C   0  0  0  0  0  0  0  0  0  0  0  0
  138.3480   79.8930  224.1860 F   0  0  0  0  0  0  0  0  0  0  0  0
  138.0120   81.3020  222.4620 F   0  0  0  0  0  0  0  0  0  0  0  0
  139.0350   78.5830  221.6410 C   0  0  0  0  0  0  0  0  0  0  0  0
  140.1550   77.7560  221.4900 C   0  0  0  0  0  0  0  0  0  0  0  0
  141.6100   78.4320  220.6750 S   0  0  0  0  0  0  0  0  0  0  0  0
  141.8470   79.6910  221.9300 C   0  0  0  0  0  0  0  0  0  0  0  0
  141.3980   81.0000  221.7070 C   0  0  0  0  0  0  0  0  0  0  0  0
  141.5740   81.9780  222.6920 C   0  0  0  0  0  0  0  0  0  0  0  0
  142.2040   81.6520  223.8970 C   0  0  0  0  0  0  0  0  0  0  0  0
  142.6610   80.3480  224.1170 C   0  0  0  0  0  0  0  0  0  0  0  0
  142.4850   79.3700  223.1340 C   0  0  0  0  0  0  0  0  0  0  0  0
  142.7130   73.2030  221.0650 N   0  0  0  0  0  0  0  0  0  0  0  0
  143.6190   74.2140  220.4880 C   0  0  0  0  0  0  0  0  0  0  0  0
  145.0320   73.6390  220.3460 C   0  0  0  0  0  0  0  0  0  0  0  0
  145.0110   72.3750  219.4810 C   0  0  0  0  0  0  0  0  0  0  0  0
  143.9910   71.3690  220.0200 C   0  0  0  0  0  0  0  0  0  0  0  0
  142.6170   72.0290  220.1800 C   0  0  0  0  0  0  0  0  0  0  0  0
  142.2000   75.8630  222.1480 H   0  0  0  0  0  0  0  0  0  0  0  0
  138.9278   74.9419  223.0149 H   0  0  0  0  0  0  0  0  0  0  0  0
  136.9567   76.4379  223.2954 H   0  0  0  0  0  0  0  0  0  0  0  0
  136.6947   81.0585  224.0003 H   0  0  0  0  0  0  0  0  0  0  0  0
  139.0579   79.6105  221.2490 H   0  0  0  0  0  0  0  0  0  0  0  0
  140.9070   81.2585  220.7572 H   0  0  0  0  0  0  0  0  0  0  0  0
  141.2166   83.0037  222.5184 H   0  0  0  0  0  0  0  0  0  0  0  0
  142.3403   82.4207  224.6720 H   0  0  0  0  0  0  0  0  0  0  0  0
  143.1590   80.0924  225.0639 H   0  0  0  0  0  0  0  0  0  0  0  0
  142.8485   78.3463  223.3068 H   0  0  0  0  0  0  0  0  0  0  0  0
  143.2467   74.5120  219.4967 H   0  0  0  0  0  0  0  0  0  0  0  0
  143.6526   75.0881  221.1550 H   0  0  0  0  0  0  0  0  0  0  0  0
  145.6829   74.3899  219.8744 H   0  0  0  0  0  0  0  0  0  0  0  0
  145.4137   73.3809  221.3448 H   0  0  0  0  0  0  0  0  0  0  0  0
  144.7402   72.6471  218.4502 H   0  0  0  0  0  0  0  0  0  0  0  0
  146.0094   71.9137  219.5035 H   0  0  0  0  0  0  0  0  0  0  0  0
  143.9080   70.5265  219.3177 H   0  0  0  0  0  0  0  0  0  0  0  0
  144.3301   71.0118  221.0036 H   0  0  0  0  0  0  0  0  0  0  0  0
  142.2505   72.3477  219.1930 H   0  0  0  0  0  0  0  0  0  0  0  0
  141.9208   71.3023  220.6242 H   0  0  0  0  0  0  0  0  0  0  0  0
  1  2  2  0
  2  3  2  0
  2  4  1  0
  4  5  1  0
  5  6  2  0
  6  7  1  0
  7  8  2  0
  8  9  1  0
  9 10  1  0
 10 11  1  0
 10 12  1  0
  8 13  1  0
 13 14  2  0
 14 15  1  0
 15 16  1  0
 16 17  2  0
 17 18  1  0
 18 19  2  0
 19 20  1  0
 20 21  2  0
  2 22  1  0
 22 23  1  0
 23 24  1  0
 24 25  1  0
 25 26  1  0
 26 27  1  0
 14  5  1  0
 21 16  1  0
 27 22  1  0
  4 28  1  0
  6 29  1  0
  7 30  1  0
 10 31  1  0
 13 32  1  0
 17 33  1  0
 18 34  1  0
 19 35  1  0
 20 36  1  0
 21 37  1  0
 23 38  1  0
 23 39  1  0
 24 40  1  0
 24 41  1  0
 25 42  1  0
 25 43  1  0
 26 44  1  0
 26 45  1  0
 27 46  1  0
 27 47  1  0
M  END
>  <UniqueID>  (3) 
28

>  <SMILES>  (3) 
O=S(=O)(Nc1ccc(SC(F)F)cc1Sc1ccccc1)N1CCCCC1

>  <Energy>  (3) 
36.49725200004563

>  <Genealogy>  (3) 
O=S(=O)(Nc1ccc(SC(F)F)cc1Sc1ccccc1)N1CCCCC1 (3D coordinates assigned)
O=S(=O)(Nc1ccc(SC(F)F)cc1Sc1ccccc1)N1CCCCC1 (nonaromatic ring conformer: 36.49725200004563 kcal/mol)

>  <smiles>  (3) 
O=S(=O)(Nc1ccc(SC(F)F)cc1Sc1ccccc1)N1CCCCC1

>  <score_type>  (3) 
oracle

>  <origin>  (3) 
autodockgpu

>  <m_score__min__energy>  (3) 
-7.2800000000000002

>  <m_primary>  (3) 
energy

>  <meeko>  (3) 
{"free_energy": -6.9, "intermolecular_energy": -8.98, "internal_energy": -1.6, "cluster_size": 9, "cluster_id": 2, "rank_in_cluster": 6}

>  <energy>  (3) 
-7.13

>  <cluster_rmsd>  (3) 
0.0

>  <rmsd>  (3) 
272.21

>  <cluster>  (3) 
2

$$$$
OEPCAOMNAWYQBL-UHFFFAOYNA-N
     RDKit          3D

 47 49  0  0  0  0  0  0  0  0999 V2000
  140.8660   74.1230  219.5380 O   0  0  0  0  0  0  0  0  0  0  0  0
  141.5900   74.4310  220.8190 S   0  0  0  0  0  0  0  0  0  0  0  0
  140.7230   73.9800  221.9600 O   0  0  0  0  0  0  0  0  0  0  0  0
  141.8620   76.1430  220.9690 N   0  0  0  0  0  0  0  0  0  0  0  0
  141.8340   77.0580  219.8590 C   0  0  0  0  0  0  0  0  0  0  0  0
  142.7620   76.9400  218.8080 C   0  0  0  0  0  0  0  0  0  0  0  0
  142.7560   77.8480  217.7470 C   0  0  0  0  0  0  0  0  0  0  0  0
  141.8350   78.8960  217.7260 C   0  0  0  0  0  0  0  0  0  0  0  0
  141.8260   80.0600  216.3590 S   0  0  0  0  0  0  0  0  0  0  0  0
  142.6850   81.3700  217.2900 C   0  0  0  0  0  0  0  0  0  0  0  0
  141.8870   82.4970  217.3600 F   0  0  0  0  0  0  0  0  0  0  0  0
  142.9450   80.9190  218.5690 F   0  0  0  0  0  0  0  0  0  0  0  0
  140.9120   79.0330  218.7660 C   0  0  0  0  0  0  0  0  0  0  0  0
  140.9040   78.1230  219.8320 C   0  0  0  0  0  0  0  0  0  0  0  0
  139.6730   78.3390  221.1260 S   0  0  0  0  0  0  0  0  0  0  0  0
  140.8060   79.2350  222.1890 C   0  0  0  0  0  0  0  0  0  0  0  0
  141.2250   80.5260  221.8410 C   0  0  0  0  0  0  0  0  0  0  0  0
  142.1010   81.2270  222.6760 C   0  0  0  0  0  0  0  0  0  0  0  0
  142.5640   80.6370  223.8570 C   0  0  0  0  0  0  0  0  0  0  0  0
  142.1550   79.3440  224.2000 C   0  0  0  0  0  0  0  0  0  0  0  0
  141.2800   78.6430  223.3660 C   0  0  0  0  0  0  0  0  0  0  0  0
  143.1030   73.5600  220.8680 N   0  0  0  0  0  0  0  0  0  0  0  0
  144.1980   74.4610  220.4680 C   0  0  0  0  0  0  0  0  0  0  0  0
  145.5440   73.7370  220.5680 C   0  0  0  0  0  0  0  0  0  0  0  0
  145.5380   72.4750  219.7000 C   0  0  0  0  0  0  0  0  0  0  0  0
  144.3380   71.5890  220.0430 C   0  0  0  0  0  0  0  0  0  0  0  0
  143.0360   72.3950  219.9680 C   0  0  0  0  0  0  0  0  0  0  0  0
  141.8820   76.5200  221.9420 H   0  0  0  0  0  0  0  0  0  0  0  0
  143.4998   76.1242  218.8222 H   0  0  0  0  0  0  0  0  0  0  0  0
  143.4792   77.7367  216.9257 H   0  0  0  0  0  0  0  0  0  0  0  0
  143.6265   81.6222  216.7800 H   0  0  0  0  0  0  0  0  0  0  0  0
  140.1871   79.8602  218.7480 H   0  0  0  0  0  0  0  0  0  0  0  0
  140.8647   80.9885  220.9103 H   0  0  0  0  0  0  0  0  0  0  0  0
  142.4259   82.2422  222.4042 H   0  0  0  0  0  0  0  0  0  0  0  0
  143.2497   81.1899  224.5159 H   0  0  0  0  0  0  0  0  0  0  0  0
  142.5223   78.8789  225.1267 H   0  0  0  0  0  0  0  0  0  0  0  0
  140.9631   77.6245  223.6346 H   0  0  0  0  0  0  0  0  0  0  0  0
  144.0380   74.7884  219.4301 H   0  0  0  0  0  0  0  0  0  0  0  0
  144.2089   75.3319  221.1398 H   0  0  0  0  0  0  0  0  0  0  0  0
  146.3436   74.4095  220.2240 H   0  0  0  0  0  0  0  0  0  0  0  0
  145.7168   73.4485  221.6153 H   0  0  0  0  0  0  0  0  0  0  0  0
  145.4814   72.7655  218.6406 H   0  0  0  0  0  0  0  0  0  0  0  0
  146.4618   71.9094  219.8914 H   0  0  0  0  0  0  0  0  0  0  0  0
  144.2885   70.7542  219.3284 H   0  0  0  0  0  0  0  0  0  0  0  0
  144.4603   71.2055  221.0667 H   0  0  0  0  0  0  0  0  0  0  0  0
  142.8833   72.7424  218.9355 H   0  0  0  0  0  0  0  0  0  0  0  0
  142.1988   71.7519  220.2770 H   0  0  0  0  0  0  0  0  0  0  0  0
  1  2  2  0
  2  3  2  0
  2  4  1  0
  4  5  1  0
  5  6  2  0
  6  7  1  0
  7  8  2  0
  8  9  1  0
  9 10  1  0
 10 11  1  0
 10 12  1  0
  8 13  1  0
 13 14  2  0
 14 15  1  0
 15 16  1  0
 16 17  2  0
 17 18  1  0
 18 19  2  0
 19 20  1  0
 20 21  2  0
  2 22  1  0
 22 23  1  0
 23 24  1  0
 24 25  1  0
 25 26  1  0
 26 27  1  0
 14  5  1  0
 21 16  1  0
 27 22  1  0
  4 28  1  0
  6 29  1  0
  7 30  1  0
 10 31  1  0
 13 32  1  0
 17 33  1  0
 18 34  1  0
 19 35  1  0
 20 36  1  0
 21 37  1  0
 23 38  1  0
 23 39  1  0
 24 40  1  0
 24 41  1  0
 25 42  1  0
 25 43  1  0
 26 44  1  0
 26 45  1  0
 27 46  1  0
 27 47  1  0
M  END
>  <UniqueID>  (4) 
28

>  <SMILES>  (4) 
O=S(=O)(Nc1ccc(SC(F)F)cc1Sc1ccccc1)N1CCCCC1

>  <Energy>  (4) 
36.49725200004563

>  <Genealogy>  (4) 
O=S(=O)(Nc1ccc(SC(F)F)cc1Sc1ccccc1)N1CCCCC1 (3D coordinates assigned)
O=S(=O)(Nc1ccc(SC(F)F)cc1Sc1ccccc1)N1CCCCC1 (nonaromatic ring conformer: 36.49725200004563 kcal/mol)

>  <smiles>  (4) 
O=S(=O)(Nc1ccc(SC(F)F)cc1Sc1ccccc1)N1CCCCC1

>  <score_type>  (4) 
oracle

>  <origin>  (4) 
autodockgpu

>  <m_score__min__energy>  (4) 
-7.2800000000000002

>  <m_primary>  (4) 
energy

>  <meeko>  (4) 
{"free_energy": -6.92, "intermolecular_energy": -9.01, "internal_energy": -1.63, "cluster_size": 7, "cluster_id": 3, "rank_in_cluster": 4}

>  <energy>  (4) 
-7.11

>  <cluster_rmsd>  (4) 
0.09

>  <rmsd>  (4) 
272.21

>  <cluster>  (4) 
2

$$$$
OEPCAOMNAWYQBL-UHFFFAOYNA-N
     RDKit          3D

 47 49  0  0  0  0  0  0  0  0999 V2000
  140.7780   73.9070  219.5350 O   0  0  0  0  0  0  0  0  0  0  0  0
  141.5320   74.2040  220.8020 S   0  0  0  0  0  0  0  0  0  0  0  0
  140.6890   73.7490  221.9590 O   0  0  0  0  0  0  0  0  0  0  0  0
  141.8140   75.9140  220.9560 N   0  0  0  0  0  0  0  0  0  0  0  0
  141.7910   76.8320  219.8480 C   0  0  0  0  0  0  0  0  0  0  0  0
  142.6930   76.6880  218.7790 C   0  0  0  0  0  0  0  0  0  0  0  0
  142.6930   77.5980  217.7190 C   0  0  0  0  0  0  0  0  0  0  0  0
  141.8030   78.6740  217.7180 C   0  0  0  0  0  0  0  0  0  0  0  0
  141.8020   79.8400  216.3540 S   0  0  0  0  0  0  0  0  0  0  0  0
  142.2600   81.2660  217.3920 C   0  0  0  0  0  0  0  0  0  0  0  0
  141.1220   81.9450  217.7860 F   0  0  0  0  0  0  0  0  0  0  0  0
  142.9270   80.8120  218.5130 F   0  0  0  0  0  0  0  0  0  0  0  0
  140.9060   78.8350  218.7770 C   0  0  0  0  0  0  0  0  0  0  0  0
  140.8930   77.9240  219.8410 C   0  0  0  0  0  0  0  0  0  0  0  0
  139.6940   78.1730  221.1600 S   0  0  0  0  0  0  0  0  0  0  0  0
  140.8420   79.1290  222.1530 C   0  0  0  0  0  0  0  0  0  0  0  0
  141.3420   80.3460  221.6730 C   0  0  0  0  0  0  0  0  0  0  0  0
  142.2300   81.0960  222.4530 C   0  0  0  0  0  0  0  0  0  0  0  0
  142.6220   80.6270  223.7110 C   0  0  0  0  0  0  0  0  0  0  0  0
  142.1320   79.4060  224.1870 C   0  0  0  0  0  0  0  0  0  0  0  0
  141.2450   78.6570  223.4090 C   0  0  0  0  0  0  0  0  0  0  0  0
  143.0420   73.3260  220.8110 N   0  0  0  0  0  0  0  0  0  0  0  0
  144.1460   74.2520  220.4970 C   0  0  0  0  0  0  0  0  0  0  0  0
  145.4890   73.5170  220.5660 C   0  0  0  0  0  0  0  0  0  0  0  0
  145.4950   72.3230  219.6080 C   0  0  0  0  0  0  0  0  0  0  0  0
  144.2870   71.4180  219.8650 C   0  0  0  0  0  0  0  0  0  0  0  0
  142.9880   72.2310  219.8270 C   0  0  0  0  0  0  0  0  0  0  0  0
  141.8370   76.2890  221.9290 H   0  0  0  0  0  0  0  0  0  0  0  0
  143.4059   75.8503  218.7773 H   0  0  0  0  0  0  0  0  0  0  0  0
  143.3958   77.4666  216.8831 H   0  0  0  0  0  0  0  0  0  0  0  0
  142.9068   81.9440  216.8158 H   0  0  0  0  0  0  0  0  0  0  0  0
  140.2052   79.6829  218.7752 H   0  0  0  0  0  0  0  0  0  0  0  0
  141.0366   80.7129  220.6820 H   0  0  0  0  0  0  0  0  0  0  0  0
  142.6192   82.0536  222.0768 H   0  0  0  0  0  0  0  0  0  0  0  0
  143.3159   81.2184  224.3265 H   0  0  0  0  0  0  0  0  0  0  0  0
  142.4451   79.0353  225.1742 H   0  0  0  0  0  0  0  0  0  0  0  0
  140.8628   77.6958  223.7832 H   0  0  0  0  0  0  0  0  0  0  0  0
  144.0044   74.6558  219.4836 H   0  0  0  0  0  0  0  0  0  0  0  0
  144.1471   75.0713  221.2310 H   0  0  0  0  0  0  0  0  0  0  0  0
  146.2960   74.2101  220.2861 H   0  0  0  0  0  0  0  0  0  0  0  0
  145.6428   73.1514  221.5920 H   0  0  0  0  0  0  0  0  0  0  0  0
  145.4569   72.6908  218.5720 H   0  0  0  0  0  0  0  0  0  0  0  0
  146.4142   71.7417  219.7726 H   0  0  0  0  0  0  0  0  0  0  0  0
  144.2483   70.6377  219.0906 H   0  0  0  0  0  0  0  0  0  0  0  0
  144.3910   70.9607  220.8600 H   0  0  0  0  0  0  0  0  0  0  0  0
  142.8537   72.6538  218.8204 H   0  0  0  0  0  0  0  0  0  0  0  0
  142.1442   71.5696  220.0732 H   0  0  0  0  0  0  0  0  0  0  0  0
  1  2  2  0
  2  3  2  0
  2  4  1  0
  4  5  1  0
  5  6  2  0
  6  7  1  0
  7  8  2  0
  8  9  1  0
  9 10  1  0
 10 11  1  0
 10 12  1  0
  8 13  1  0
 13 14  2  0
 14 15  1  0
 15 16  1  0
 16 17  2  0
 17 18  1  0
 18 19  2  0
 19 20  1  0
 20 21  2  0
  2 22  1  0
 22 23  1  0
 23 24  1  0
 24 25  1  0
 25 26  1  0
 26 27  1  0
 14  5  1  0
 21 16  1  0
 27 22  1  0
  4 28  1  0
  6 29  1  0
  7 30  1  0
 10 31  1  0
 13 32  1  0
 17 33  1  0
 18 34  1  0
 19 35  1  0
 20 36  1  0
 21 37  1  0
 23 38  1  0
 23 39  1  0
 24 40  1  0
 24 41  1  0
 25 42  1  0
 25 43  1  0
 26 44  1  0
 26 45  1  0
 27 46  1  0
 27 47  1  0
M  END
>  <UniqueID>  (5) 
28

>  <SMILES>  (5) 
O=S(=O)(Nc1ccc(SC(F)F)cc1Sc1ccccc1)N1CCCCC1

>  <Energy>  (5) 
36.49725200004563

>  <Genealogy>  (5) 
O=S(=O)(Nc1ccc(SC(F)F)cc1Sc1ccccc1)N1CCCCC1 (3D coordinates assigned)
O=S(=O)(Nc1ccc(SC(F)F)cc1Sc1ccccc1)N1CCCCC1 (nonaromatic ring conformer: 36.49725200004563 kcal/mol)

>  <smiles>  (5) 
O=S(=O)(Nc1ccc(SC(F)F)cc1Sc1ccccc1)N1CCCCC1

>  <score_type>  (5) 
oracle

>  <origin>  (5) 
autodockgpu

>  <m_score__min__energy>  (5) 
-7.2800000000000002

>  <m_primary>  (5) 
energy

>  <meeko>  (5) 
{"free_energy": -6.83, "intermolecular_energy": -8.92, "internal_energy": -1.66, "cluster_size": 7, "cluster_id": 3, "rank_in_cluster": 6}

>  <energy>  (5) 
-7.08

>  <cluster_rmsd>  (5) 
0.41

>  <rmsd>  (5) 
272.23

>  <cluster>  (5) 
2

$$$$
OEPCAOMNAWYQBL-UHFFFAOYNA-N
     RDKit          3D

 47 49  0  0  0  0  0  0  0  0999 V2000
  139.9000   70.1940  222.3960 O   0  0  0  0  0  0  0  0  0  0  0  0
  139.0650   71.1400  223.2140 S   0  0  0  0  0  0  0  0  0  0  0  0
  137.6200   70.8110  222.9690 O   0  0  0  0  0  0  0  0  0  0  0  0
  139.3530   72.7850  222.7260 N   0  0  0  0  0  0  0  0  0  0  0  0
  140.4690   73.1960  221.9170 C   0  0  0  0  0  0  0  0  0  0  0  0
  141.5270   72.3080  221.6490 C   0  0  0  0  0  0  0  0  0  0  0  0
  142.6260   72.7170  220.8910 C   0  0  0  0  0  0  0  0  0  0  0  0
  142.6940   74.0230  220.4020 C   0  0  0  0  0  0  0  0  0  0  0  0
  144.1060   74.5450  219.4250 S   0  0  0  0  0  0  0  0  0  0  0  0
  145.2690   73.4070  220.2450 C   0  0  0  0  0  0  0  0  0  0  0  0
  146.1900   72.9350  219.3290 F   0  0  0  0  0  0  0  0  0  0  0  0
  145.9340   74.0850  221.2470 F   0  0  0  0  0  0  0  0  0  0  0  0
  141.6560   74.9190  220.6660 C   0  0  0  0  0  0  0  0  0  0  0  0
  140.5450   74.5170  221.4190 C   0  0  0  0  0  0  0  0  0  0  0  0
  139.2300   75.7130  221.7000 S   0  0  0  0  0  0  0  0  0  0  0  0
  140.3760   77.0860  221.8390 C   0  0  0  0  0  0  0  0  0  0  0  0
  140.9200   77.4240  223.0860 C   0  0  0  0  0  0  0  0  0  0  0  0
  141.8220   78.4880  223.1900 C   0  0  0  0  0  0  0  0  0  0  0  0
  142.1770   79.2190  222.0520 C   0  0  0  0  0  0  0  0  0  0  0  0
  141.6270   78.8890  220.8090 C   0  0  0  0  0  0  0  0  0  0  0  0
  140.7260   77.8260  220.7030 C   0  0  0  0  0  0  0  0  0  0  0  0
  139.4220   70.9280  224.9100 N   0  0  0  0  0  0  0  0  0  0  0  0
  140.7400   71.5180  225.2080 C   0  0  0  0  0  0  0  0  0  0  0  0
  141.0450   71.4040  226.7060 C   0  0  0  0  0  0  0  0  0  0  0  0
  140.9950   69.9400  227.1510 C   0  0  0  0  0  0  0  0  0  0  0  0
  139.6660   69.2970  226.7460 C   0  0  0  0  0  0  0  0  0  0  0  0
  139.4090   69.4940  225.2470 C   0  0  0  0  0  0  0  0  0  0  0  0
  138.5760   73.4580  222.9050 H   0  0  0  0  0  0  0  0  0  0  0  0
  141.4879   71.2808  222.0407 H   0  0  0  0  0  0  0  0  0  0  0  0
  143.4402   72.0085  220.6786 H   0  0  0  0  0  0  0  0  0  0  0  0
  144.7107   72.5592  220.6688 H   0  0  0  0  0  0  0  0  0  0  0  0
  141.7110   75.9476  220.2801 H   0  0  0  0  0  0  0  0  0  0  0  0
  140.6376   76.8526  223.9825 H   0  0  0  0  0  0  0  0  0  0  0  0
  142.2525   78.7499  224.1678 H   0  0  0  0  0  0  0  0  0  0  0  0
  142.8888   80.0536  222.1343 H   0  0  0  0  0  0  0  0  0  0  0  0
  141.9038   79.4664  219.9146 H   0  0  0  0  0  0  0  0  0  0  0  0
  140.2911   77.5702  219.7256 H   0  0  0  0  0  0  0  0  0  0  0  0
  141.5144   70.9839  224.6379 H   0  0  0  0  0  0  0  0  0  0  0  0
  140.7300   72.5806  224.9237 H   0  0  0  0  0  0  0  0  0  0  0  0
  142.0486   71.8087  226.9033 H   0  0  0  0  0  0  0  0  0  0  0  0
  140.2904   71.9737  227.2681 H   0  0  0  0  0  0  0  0  0  0  0  0
  141.8215   69.3901  226.6773 H   0  0  0  0  0  0  0  0  0  0  0  0
  141.0884   69.8997  228.2463 H   0  0  0  0  0  0  0  0  0  0  0  0
  139.7020   68.2204  226.9687 H   0  0  0  0  0  0  0  0  0  0  0  0
  138.8526   69.7743  227.3122 H   0  0  0  0  0  0  0  0  0  0  0  0
  140.1941   68.9794  224.6735 H   0  0  0  0  0  0  0  0  0  0  0  0
  138.4231   69.0763  224.9951 H   0  0  0  0  0  0  0  0  0  0  0  0
  1  2  2  0
  2  3  2  0
  2  4  1  0
  4  5  1  0
  5  6  2  0
  6  7  1  0
  7  8  2  0
  8  9  1  0
  9 10  1  0
 10 11  1  0
 10 12  1  0
  8 13  1  0
 13 14  2  0
 14 15  1  0
 15 16  1  0
 16 17  2  0
 17 18  1  0
 18 19  2  0
 19 20  1  0
 20 21  2  0
  2 22  1  0
 22 23  1  0
 23 24  1  0
 24 25  1  0
 25 26  1  0
 26 27  1  0
 14  5  1  0
 21 16  1  0
 27 22  1  0
  4 28  1  0
  6 29  1  0
  7 30  1  0
 10 31  1  0
 13 32  1  0
 17 33  1  0
 18 34  1  0
 19 35  1  0
 20 36  1  0
 21 37  1  0
 23 38  1  0
 23 39  1  0
 24 40  1  0
 24 41  1  0
 25 42  1  0
 25 43  1  0
 26 44  1  0
 26 45  1  0
 27 46  1  0
 27 47  1  0
M  END
>  <UniqueID>  (6) 
28

>  <SMILES>  (6) 
O=S(=O)(Nc1ccc(SC(F)F)cc1Sc1ccccc1)N1CCCCC1

>  <Energy>  (6) 
36.49725200004563

>  <Genealogy>  (6) 
O=S(=O)(Nc1ccc(SC(F)F)cc1Sc1ccccc1)N1CCCCC1 (3D coordinates assigned)
O=S(=O)(Nc1ccc(SC(F)F)cc1Sc1ccccc1)N1CCCCC1 (nonaromatic ring conformer: 36.49725200004563 kcal/mol)

>  <smiles>  (6) 
O=S(=O)(Nc1ccc(SC(F)F)cc1Sc1ccccc1)N1CCCCC1

>  <score_type>  (6) 
oracle

>  <origin>  (6) 
autodockgpu

>  <m_score__min__energy>  (6) 
-7.2800000000000002

>  <m_primary>  (6) 
energy

>  <meeko>  (6) 
{"free_energy": -7.28, "intermolecular_energy": -9.36, "internal_energy": -1.25, "cluster_size": 2, "cluster_id": 1, "rank_in_cluster": 1}

>  <energy>  (6) 
-7.06

>  <cluster_rmsd>  (6) 
0.42

>  <rmsd>  (6) 
272.2

>  <cluster>  (6) 
2

$$$$
OEPCAOMNAWYQBL-UHFFFAOYNA-N
     RDKit          3D

 47 49  0  0  0  0  0  0  0  0999 V2000
  140.6070   73.3960  219.9120 O   0  0  0  0  0  0  0  0  0  0  0  0
  141.4440   73.7390  221.1130 S   0  0  0  0  0  0  0  0  0  0  0  0
  140.7820   73.1430  222.3230 O   0  0  0  0  0  0  0  0  0  0  0  0
  141.5340   75.4640  221.3200 N   0  0  0  0  0  0  0  0  0  0  0  0
  140.4180   76.2830  221.7120 C   0  0  0  0  0  0  0  0  0  0  0  0
  139.2980   75.7140  222.3450 C   0  0  0  0  0  0  0  0  0  0  0  0
  138.2000   76.5030  222.6960 C   0  0  0  0  0  0  0  0  0  0  0  0
  138.1960   77.8680  222.4060 C   0  0  0  0  0  0  0  0  0  0  0  0
  136.7860   78.8810  222.8610 S   0  0  0  0  0  0  0  0  0  0  0  0
  137.8000   80.2100  223.5860 C   0  0  0  0  0  0  0  0  0  0  0  0
  138.8650   79.6650  224.2780 F   0  0  0  0  0  0  0  0  0  0  0  0
  138.2840   81.0130  222.5720 F   0  0  0  0  0  0  0  0  0  0  0  0
  139.2970   78.4470  221.7700 C   0  0  0  0  0  0  0  0  0  0  0  0
  140.4060   77.6670  221.4200 C   0  0  0  0  0  0  0  0  0  0  0  0
  141.8020   78.4790  220.6270 S   0  0  0  0  0  0  0  0  0  0  0  0
  141.9440   79.7120  221.9210 C   0  0  0  0  0  0  0  0  0  0  0  0
  142.5320   79.3800  223.1480 C   0  0  0  0  0  0  0  0  0  0  0  0
  142.6510   80.3460  224.1530 C   0  0  0  0  0  0  0  0  0  0  0  0
  142.1770   81.6440  223.9350 C   0  0  0  0  0  0  0  0  0  0  0  0
  141.5800   81.9740  222.7140 C   0  0  0  0  0  0  0  0  0  0  0  0
  141.4610   81.0100  221.7100 C   0  0  0  0  0  0  0  0  0  0  0  0
  143.0400   73.0540  220.9370 N   0  0  0  0  0  0  0  0  0  0  0  0
  143.9910   74.1210  220.5750 C   0  0  0  0  0  0  0  0  0  0  0  0
  145.4120   73.5550  220.4810 C   0  0  0  0  0  0  0  0  0  0  0  0
  145.4660   72.4140  219.4610 C   0  0  0  0  0  0  0  0  0  0  0  0
  144.4050   71.3570  219.7770 C   0  0  0  0  0  0  0  0  0  0  0  0
  143.0210   72.0050  219.9030 C   0  0  0  0  0  0  0  0  0  0  0  0
  142.4920   75.8770  221.3130 H   0  0  0  0  0  0  0  0  0  0  0  0
  139.2867   74.6365  222.5659 H   0  0  0  0  0  0  0  0  0  0  0  0
  137.3363   76.0472  223.2023 H   0  0  0  0  0  0  0  0  0  0  0  0
  137.1825   80.8031  224.2766 H   0  0  0  0  0  0  0  0  0  0  0  0
  139.2926   79.5232  221.5426 H   0  0  0  0  0  0  0  0  0  0  0  0
  142.9008   78.3583  223.3218 H   0  0  0  0  0  0  0  0  0  0  0  0
  143.1172   80.0849  225.1145 H   0  0  0  0  0  0  0  0  0  0  0  0
  142.2738   82.4048  224.7236 H   0  0  0  0  0  0  0  0  0  0  0  0
  141.2038   82.9936  222.5441 H   0  0  0  0  0  0  0  0  0  0  0  0
  140.9872   81.2706  220.7521 H   0  0  0  0  0  0  0  0  0  0  0  0
  143.7050   74.5478  219.6024 H   0  0  0  0  0  0  0  0  0  0  0  0
  143.9664   74.9014  221.3499 H   0  0  0  0  0  0  0  0  0  0  0  0
  146.1003   74.3539  220.1679 H   0  0  0  0  0  0  0  0  0  0  0  0
  145.7072   73.1664  221.4669 H   0  0  0  0  0  0  0  0  0  0  0  0
  145.2835   72.8197  218.4550 H   0  0  0  0  0  0  0  0  0  0  0  0
  146.4594   71.9438  219.5077 H   0  0  0  0  0  0  0  0  0  0  0  0
  144.3836   70.6125  218.9675 H   0  0  0  0  0  0  0  0  0  0  0  0
  144.6589   70.8728  220.7315 H   0  0  0  0  0  0  0  0  0  0  0  0
  142.7403   72.4518  218.9378 H   0  0  0  0  0  0  0  0  0  0  0  0
  142.2897   71.2344  220.1884 H   0  0  0  0  0  0  0  0  0  0  0  0
  1  2  2  0
  2  3  2  0
  2  4  1  0
  4  5  1  0
  5  6  2  0
  6  7  1  0
  7  8  2  0
  8  9  1  0
  9 10  1  0
 10 11  1  0
 10 12  1  0
  8 13  1  0
 13 14  2  0
 14 15  1  0
 15 16  1  0
 16 17  2  0
 17 18  1  0
 18 19  2  0
 19 20  1  0
 20 21  2  0
  2 22  1  0
 22 23  1  0
 23 24  1  0
 24 25  1  0
 25 26  1  0
 26 27  1  0
 14  5  1  0
 21 16  1  0
 27 22  1  0
  4 28  1  0
  6 29  1  0
  7 30  1  0
 10 31  1  0
 13 32  1  0
 17 33  1  0
 18 34  1  0
 19 35  1  0
 20 36  1  0
 21 37  1  0
 23 38  1  0
 23 39  1  0
 24 40  1  0
 24 41  1  0
 25 42  1  0
 25 43  1  0
 26 44  1  0
 26 45  1  0
 27 46  1  0
 27 47  1  0
M  END
>  <UniqueID>  (7) 
28

>  <SMILES>  (7) 
O=S(=O)(Nc1ccc(SC(F)F)cc1Sc1ccccc1)N1CCCCC1

>  <Energy>  (7) 
36.49725200004563

>  <Genealogy>  (7) 
O=S(=O)(Nc1ccc(SC(F)F)cc1Sc1ccccc1)N1CCCCC1 (3D coordinates assigned)
O=S(=O)(Nc1ccc(SC(F)F)cc1Sc1ccccc1)N1CCCCC1 (nonaromatic ring conformer: 36.49725200004563 kcal/mol)

>  <smiles>  (7) 
O=S(=O)(Nc1ccc(SC(F)F)cc1Sc1ccccc1)N1CCCCC1

>  <score_type>  (7) 
oracle

>  <origin>  (7) 
autodockgpu

>  <m_score__min__energy>  (7) 
-7.2800000000000002

>  <m_primary>  (7) 
energy

>  <meeko>  (7) 
{"free_energy": -7.08, "intermolecular_energy": -9.16, "internal_energy": -1.59, "cluster_size": 9, "cluster_id": 2, "rank_in_cluster": 3}

>  <energy>  (7) 
-7.05

>  <cluster_rmsd>  (7) 
0.39

>  <rmsd>  (7) 
272.19

>  <cluster>  (7) 
2

$$$$
OEPCAOMNAWYQBL-UHFFFAOYNA-N
     RDKit          3D

 47 49  0  0  0  0  0  0  0  0999 V2000
  140.8210   74.0700  219.5370 O   0  0  0  0  0  0  0  0  0  0  0  0
  141.5490   74.3500  220.8230 S   0  0  0  0  0  0  0  0  0  0  0  0
  140.6870   73.8720  221.9570 O   0  0  0  0  0  0  0  0  0  0  0  0
  141.8170   76.0590  221.0110 N   0  0  0  0  0  0  0  0  0  0  0  0
  141.8040   76.9960  219.9180 C   0  0  0  0  0  0  0  0  0  0  0  0
  142.7330   76.8860  218.8680 C   0  0  0  0  0  0  0  0  0  0  0  0
  142.7420   77.8140  217.8240 C   0  0  0  0  0  0  0  0  0  0  0  0
  141.8340   78.8750  217.8210 C   0  0  0  0  0  0  0  0  0  0  0  0
  141.8450   80.0640  216.4770 S   0  0  0  0  0  0  0  0  0  0  0  0
  142.7550   81.3300  217.4210 C   0  0  0  0  0  0  0  0  0  0  0  0
  142.7900   82.5130  216.7080 F   0  0  0  0  0  0  0  0  0  0  0  0
  142.1120   81.5450  218.6240 F   0  0  0  0  0  0  0  0  0  0  0  0
  140.9110   79.0030  218.8610 C   0  0  0  0  0  0  0  0  0  0  0  0
  140.8880   78.0740  219.9090 C   0  0  0  0  0  0  0  0  0  0  0  0
  139.6560   78.2810  221.2040 S   0  0  0  0  0  0  0  0  0  0  0  0
  140.7540   79.2660  222.2240 C   0  0  0  0  0  0  0  0  0  0  0  0
  141.2340   78.7550  223.4370 C   0  0  0  0  0  0  0  0  0  0  0  0
  142.0980   79.5200  224.2270 C   0  0  0  0  0  0  0  0  0  0  0  0
  142.4790   80.7990  223.8090 C   0  0  0  0  0  0  0  0  0  0  0  0
  141.9930   81.3150  222.6030 C   0  0  0  0  0  0  0  0  0  0  0  0
  141.1290   80.5510  221.8130 C   0  0  0  0  0  0  0  0  0  0  0  0
  143.0640   73.4820  220.8480 N   0  0  0  0  0  0  0  0  0  0  0  0
  144.1670   74.4180  220.5640 C   0  0  0  0  0  0  0  0  0  0  0  0
  145.5130   73.6910  220.6470 C   0  0  0  0  0  0  0  0  0  0  0  0
  145.5430   72.5090  219.6740 C   0  0  0  0  0  0  0  0  0  0  0  0
  144.3370   71.5930  219.8990 C   0  0  0  0  0  0  0  0  0  0  0  0
  143.0330   72.3990  219.8490 C   0  0  0  0  0  0  0  0  0  0  0  0
  141.8230   76.4180  221.9910 H   0  0  0  0  0  0  0  0  0  0  0  0
  143.4601   76.0606  218.8688 H   0  0  0  0  0  0  0  0  0  0  0  0
  143.4659   77.7088  217.0025 H   0  0  0  0  0  0  0  0  0  0  0  0
  143.7834   80.9827  217.5992 H   0  0  0  0  0  0  0  0  0  0  0  0
  140.1967   79.8395  218.8572 H   0  0  0  0  0  0  0  0  0  0  0  0
  140.9309   77.7509  223.7684 H   0  0  0  0  0  0  0  0  0  0  0  0
  142.4778   79.1158  225.1769 H   0  0  0  0  0  0  0  0  0  0  0  0
  143.1611   81.3995  224.4288 H   0  0  0  0  0  0  0  0  0  0  0  0
  142.2908   82.3222  222.2762 H   0  0  0  0  0  0  0  0  0  0  0  0
  140.7433   80.9598  220.8674 H   0  0  0  0  0  0  0  0  0  0  0  0
  144.0401   74.8331  219.5533 H   0  0  0  0  0  0  0  0  0  0  0  0
  144.1504   75.2283  221.3078 H   0  0  0  0  0  0  0  0  0  0  0  0
  146.3202   74.3926  220.3898 H   0  0  0  0  0  0  0  0  0  0  0  0
  145.6518   73.3135  221.6709 H   0  0  0  0  0  0  0  0  0  0  0  0
  145.5199   72.8898  218.6423 H   0  0  0  0  0  0  0  0  0  0  0  0
  146.4632   71.9316  219.8468 H   0  0  0  0  0  0  0  0  0  0  0  0
  144.3165   70.8224  219.1143 H   0  0  0  0  0  0  0  0  0  0  0  0
  144.4270   71.1235  220.8897 H   0  0  0  0  0  0  0  0  0  0  0  0
  142.9131   72.8338  218.8457 H   0  0  0  0  0  0  0  0  0  0  0  0
  142.1892   71.7296  220.0722 H   0  0  0  0  0  0  0  0  0  0  0  0
  1  2  2  0
  2  3  2  0
  2  4  1  0
  4  5  1  0
  5  6  2  0
  6  7  1  0
  7  8  2  0
  8  9  1  0
  9 10  1  0
 10 11  1  0
 10 12  1  0
  8 13  1  0
 13 14  2  0
 14 15  1  0
 15 16  1  0
 16 17  2  0
 17 18  1  0
 18 19  2  0
 19 20  1  0
 20 21  2  0
  2 22  1  0
 22 23  1  0
 23 24  1  0
 24 25  1  0
 25 26  1  0
 26 27  1  0
 14  5  1  0
 21 16  1  0
 27 22  1  0
  4 28  1  0
  6 29  1  0
  7 30  1  0
 10 31  1  0
 13 32  1  0
 17 33  1  0
 18 34  1  0
 19 35  1  0
 20 36  1  0
 21 37  1  0
 23 38  1  0
 23 39  1  0
 24 40  1  0
 24 41  1  0
 25 42  1  0
 25 43  1  0
 26 44  1  0
 26 45  1  0
 27 46  1  0
 27 47  1  0
M  END
>  <UniqueID>  (8) 
28

>  <SMILES>  (8) 
O=S(=O)(Nc1ccc(SC(F)F)cc1Sc1ccccc1)N1CCCCC1

>  <Energy>  (8) 
36.49725200004563

>  <Genealogy>  (8) 
O=S(=O)(Nc1ccc(SC(F)F)cc1Sc1ccccc1)N1CCCCC1 (3D coordinates assigned)
O=S(=O)(Nc1ccc(SC(F)F)cc1Sc1ccccc1)N1CCCCC1 (nonaromatic ring conformer: 36.49725200004563 kcal/mol)

>  <smiles>  (8) 
O=S(=O)(Nc1ccc(SC(F)F)cc1Sc1ccccc1)N1CCCCC1

>  <score_type>  (8) 
oracle

>  <origin>  (8) 
autodockgpu

>  <m_score__min__energy>  (8) 
-7.2800000000000002

>  <m_primary>  (8) 
energy

>  <meeko>  (8) 
{"free_energy": -6.91, "intermolecular_energy": -9.0, "internal_energy": -1.59, "cluster_size": 7, "cluster_id": 3, "rank_in_cluster": 5}

>  <energy>  (8) 
-6.9

>  <cluster_rmsd>  (8) 
0.54

>  <rmsd>  (8) 
272.17

>  <cluster>  (8) 
2

$$$$
OEPCAOMNAWYQBL-UHFFFAOYNA-N
     RDKit          3D

 47 49  0  0  0  0  0  0  0  0999 V2000
  140.8160   73.7610  219.5840 O   0  0  0  0  0  0  0  0  0  0  0  0
  141.5620   74.0070  220.8660 S   0  0  0  0  0  0  0  0  0  0  0  0
  140.7200   73.4900  221.9980 O   0  0  0  0  0  0  0  0  0  0  0  0
  141.8250   75.7110  221.1010 N   0  0  0  0  0  0  0  0  0  0  0  0
  141.7970   76.6790  220.0360 C   0  0  0  0  0  0  0  0  0  0  0  0
  142.6720   76.5660  218.9400 C   0  0  0  0  0  0  0  0  0  0  0  0
  142.6680   77.5230  217.9230 C   0  0  0  0  0  0  0  0  0  0  0  0
  141.8020   78.6160  217.9920 C   0  0  0  0  0  0  0  0  0  0  0  0
  141.7960   79.8430  216.6820 S   0  0  0  0  0  0  0  0  0  0  0  0
  142.5690   81.1390  217.7040 C   0  0  0  0  0  0  0  0  0  0  0  0
  141.6720   82.1690  217.9140 F   0  0  0  0  0  0  0  0  0  0  0  0
  142.9290   80.5980  218.9230 F   0  0  0  0  0  0  0  0  0  0  0  0
  140.9330   78.7480  219.0780 C   0  0  0  0  0  0  0  0  0  0  0  0
  140.9240   77.7900  220.1000 C   0  0  0  0  0  0  0  0  0  0  0  0
  139.7610   78.0040  221.4560 S   0  0  0  0  0  0  0  0  0  0  0  0
  140.8320   79.1550  222.3190 C   0  0  0  0  0  0  0  0  0  0  0  0
  140.2810   80.1390  223.1520 C   0  0  0  0  0  0  0  0  0  0  0  0
  141.1190   81.0290  223.8320 C   0  0  0  0  0  0  0  0  0  0  0  0
  142.5060   80.9420  223.6780 C   0  0  0  0  0  0  0  0  0  0  0  0
  143.0570   79.9670  222.8390 C   0  0  0  0  0  0  0  0  0  0  0  0
  142.2210   79.0770  222.1590 C   0  0  0  0  0  0  0  0  0  0  0  0
  143.0820   73.1470  220.8410 N   0  0  0  0  0  0  0  0  0  0  0  0
  144.1880   74.1150  220.7360 C   0  0  0  0  0  0  0  0  0  0  0  0
  145.5360   73.3860  220.7800 C   0  0  0  0  0  0  0  0  0  0  0  0
  145.6180   72.3470  219.6580 C   0  0  0  0  0  0  0  0  0  0  0  0
  144.4110   71.4070  219.7040 C   0  0  0  0  0  0  0  0  0  0  0  0
  143.1040   72.2090  219.7050 C   0  0  0  0  0  0  0  0  0  0  0  0
  141.8390   76.0410  222.0910 H   0  0  0  0  0  0  0  0  0  0  0  0
  143.3665   75.7149  218.8836 H   0  0  0  0  0  0  0  0  0  0  0  0
  143.3487   77.4155  217.0656 H   0  0  0  0  0  0  0  0  0  0  0  0
  143.4574   81.5297  217.1862 H   0  0  0  0  0  0  0  0  0  0  0  0
  140.2514   79.6098  219.1309 H   0  0  0  0  0  0  0  0  0  0  0  0
  139.1898   80.2111  223.2708 H   0  0  0  0  0  0  0  0  0  0  0  0
  140.6863   81.7982  224.4886 H   0  0  0  0  0  0  0  0  0  0  0  0
  143.1640   81.6400  224.2164 H   0  0  0  0  0  0  0  0  0  0  0  0
  144.1480   79.9010  222.7147 H   0  0  0  0  0  0  0  0  0  0  0  0
  142.6551   78.3136  221.4966 H   0  0  0  0  0  0  0  0  0  0  0  0
  144.1022   74.6630  219.7861 H   0  0  0  0  0  0  0  0  0  0  0  0
  144.1319   74.8169  221.5811 H   0  0  0  0  0  0  0  0  0  0  0  0
  146.3480   74.1177  220.6564 H   0  0  0  0  0  0  0  0  0  0  0  0
  145.6330   72.8736  221.7485 H   0  0  0  0  0  0  0  0  0  0  0  0
  145.6365   72.8641  218.6873 H   0  0  0  0  0  0  0  0  0  0  0  0
  146.5346   71.7535  219.7910 H   0  0  0  0  0  0  0  0  0  0  0  0
  144.4311   70.7490  218.8227 H   0  0  0  0  0  0  0  0  0  0  0  0
  144.4615   70.8088  220.6257 H   0  0  0  0  0  0  0  0  0  0  0  0
  143.0246   72.7750  218.7652 H   0  0  0  0  0  0  0  0  0  0  0  0
  142.2569   71.5135  219.7981 H   0  0  0  0  0  0  0  0  0  0  0  0
  1  2  2  0
  2  3  2  0
  2  4  1  0
  4  5  1  0
  5  6  2  0
  6  7  1  0
  7  8  2  0
  8  9  1  0
  9 10  1  0
 10 11  1  0
 10 12  1  0
  8 13  1  0
 13 14  2  0
 14 15  1  0
 15 16  1  0
 16 17  2  0
 17 18  1  0
 18 19  2  0
 19 20  1  0
 20 21  2  0
  2 22  1  0
 22 23  1  0
 23 24  1  0
 24 25  1  0
 25 26  1  0
 26 27  1  0
 14  5  1  0
 21 16  1  0
 27 22  1  0
  4 28  1  0
  6 29  1  0
  7 30  1  0
 10 31  1  0
 13 32  1  0
 17 33  1  0
 18 34  1  0
 19 35  1  0
 20 36  1  0
 21 37  1  0
 23 38  1  0
 23 39  1  0
 24 40  1  0
 24 41  1  0
 25 42  1  0
 25 43  1  0
 26 44  1  0
 26 45  1  0
 27 46  1  0
 27 47  1  0
M  END
>  <UniqueID>  (9) 
28

>  <SMILES>  (9) 
O=S(=O)(Nc1ccc(SC(F)F)cc1Sc1ccccc1)N1CCCCC1

>  <Energy>  (9) 
36.49725200004563

>  <Genealogy>  (9) 
O=S(=O)(Nc1ccc(SC(F)F)cc1Sc1ccccc1)N1CCCCC1 (3D coordinates assigned)
O=S(=O)(Nc1ccc(SC(F)F)cc1Sc1ccccc1)N1CCCCC1 (nonaromatic ring conformer: 36.49725200004563 kcal/mol)

>  <smiles>  (9) 
O=S(=O)(Nc1ccc(SC(F)F)cc1Sc1ccccc1)N1CCCCC1

>  <score_type>  (9) 
oracle

>  <origin>  (9) 
autodockgpu

>  <m_score__min__energy>  (9) 
-7.2800000000000002

>  <m_primary>  (9) 
energy

>  <meeko>  (9) 
{"free_energy": -6.94, "intermolecular_energy": -9.03, "internal_energy": -1.59, "cluster_size": 7, "cluster_id": 3, "rank_in_cluster": 3}

>  <energy>  (9) 
-6.89

>  <cluster_rmsd>  (9) 
0.56

>  <rmsd>  (9) 
272.23

>  <cluster>  (9) 
2

$$$$
OEPCAOMNAWYQBL-UHFFFAOYNA-N
     RDKit          3D

 47 49  0  0  0  0  0  0  0  0999 V2000
  139.9000   73.6970  220.1880 O   0  0  0  0  0  0  0  0  0  0  0  0
  141.0960   73.9090  221.0750 S   0  0  0  0  0  0  0  0  0  0  0  0
  140.8680   73.1440  222.3480 O   0  0  0  0  0  0  0  0  0  0  0  0
  141.2760   75.5950  221.4630 N   0  0  0  0  0  0  0  0  0  0  0  0
  140.1800   76.4530  221.8300 C   0  0  0  0  0  0  0  0  0  0  0  0
  139.0550   75.9350  222.4970 C   0  0  0  0  0  0  0  0  0  0  0  0
  137.9780   76.7610  222.8250 C   0  0  0  0  0  0  0  0  0  0  0  0
  137.9990   78.1130  222.4770 C   0  0  0  0  0  0  0  0  0  0  0  0
  136.6150   79.1740  222.9020 S   0  0  0  0  0  0  0  0  0  0  0  0
  137.6500   80.4220  223.7350 C   0  0  0  0  0  0  0  0  0  0  0  0
  138.7300   79.8090  224.3400 F   0  0  0  0  0  0  0  0  0  0  0  0
  138.1090   81.3260  222.7970 F   0  0  0  0  0  0  0  0  0  0  0  0
  139.1050   78.6410  221.8070 C   0  0  0  0  0  0  0  0  0  0  0  0
  140.1950   77.8230  221.4800 C   0  0  0  0  0  0  0  0  0  0  0  0
  141.5990   78.5720  220.6410 S   0  0  0  0  0  0  0  0  0  0  0  0
  141.8680   79.7680  221.9500 C   0  0  0  0  0  0  0  0  0  0  0  0
  142.5480   79.3930  223.1160 C   0  0  0  0  0  0  0  0  0  0  0  0
  142.7660   80.3310  224.1320 C   0  0  0  0  0  0  0  0  0  0  0  0
  142.2990   81.6410  223.9860 C   0  0  0  0  0  0  0  0  0  0  0  0
  141.6100   82.0140  222.8270 C   0  0  0  0  0  0  0  0  0  0  0  0
  141.3920   81.0780  221.8110 C   0  0  0  0  0  0  0  0  0  0  0  0
  142.5320   73.3000  220.2890 N   0  0  0  0  0  0  0  0  0  0  0  0
  142.8780   71.9850  220.8570 C   0  0  0  0  0  0  0  0  0  0  0  0
  144.0980   71.4010  220.1360 C   0  0  0  0  0  0  0  0  0  0  0  0
  145.2860   72.3610  220.2310 C   0  0  0  0  0  0  0  0  0  0  0  0
  144.8940   73.7570  219.7400 C   0  0  0  0  0  0  0  0  0  0  0  0
  143.6410   74.2520  220.4730 C   0  0  0  0  0  0  0  0  0  0  0  0
  142.2540   75.9360  221.5870 H   0  0  0  0  0  0  0  0  0  0  0  0
  139.0234   74.8681  222.7629 H   0  0  0  0  0  0  0  0  0  0  0  0
  137.1107   76.3454  223.3590 H   0  0  0  0  0  0  0  0  0  0  0  0
  137.0521   80.9406  224.4990 H   0  0  0  0  0  0  0  0  0  0  0  0
  139.1206   79.7065  221.5341 H   0  0  0  0  0  0  0  0  0  0  0  0
  142.9108   78.3612  223.2332 H   0  0  0  0  0  0  0  0  0  0  0  0
  143.3046   80.0376  225.0451 H   0  0  0  0  0  0  0  0  0  0  0  0
  142.4735   82.3787  224.7830 H   0  0  0  0  0  0  0  0  0  0  0  0
  141.2396   83.0437  222.7148 H   0  0  0  0  0  0  0  0  0  0  0  0
  140.8462   81.3708  220.9019 H   0  0  0  0  0  0  0  0  0  0  0  0
  143.1088   72.1005  221.9263 H   0  0  0  0  0  0  0  0  0  0  0  0
  142.0247   71.3029  220.7283 H   0  0  0  0  0  0  0  0  0  0  0  0
  144.3692   70.4421  220.6017 H   0  0  0  0  0  0  0  0  0  0  0  0
  143.8464   71.2496  219.0759 H   0  0  0  0  0  0  0  0  0  0  0  0
  145.6150   72.4258  221.2786 H   0  0  0  0  0  0  0  0  0  0  0  0
  146.1007   71.9793  219.5981 H   0  0  0  0  0  0  0  0  0  0  0  0
  145.7236   74.4538  219.9302 H   0  0  0  0  0  0  0  0  0  0  0  0
  144.6796   73.7079  218.6622 H   0  0  0  0  0  0  0  0  0  0  0  0
  143.8625   74.3482  221.5462 H   0  0  0  0  0  0  0  0  0  0  0  0
  143.3470   75.2283  220.0602 H   0  0  0  0  0  0  0  0  0  0  0  0
  1  2  2  0
  2  3  2  0
  2  4  1  0
  4  5  1  0
  5  6  2  0
  6  7  1  0
  7  8  2  0
  8  9  1  0
  9 10  1  0
 10 11  1  0
 10 12  1  0
  8 13  1  0
 13 14  2  0
 14 15  1  0
 15 16  1  0
 16 17  2  0
 17 18  1  0
 18 19  2  0
 19 20  1  0
 20 21  2  0
  2 22  1  0
 22 23  1  0
 23 24  1  0
 24 25  1  0
 25 26  1  0
 26 27  1  0
 14  5  1  0
 21 16  1  0
 27 22  1  0
  4 28  1  0
  6 29  1  0
  7 30  1  0
 10 31  1  0
 13 32  1  0
 17 33  1  0
 18 34  1  0
 19 35  1  0
 20 36  1  0
 21 37  1  0
 23 38  1  0
 23 39  1  0
 24 40  1  0
 24 41  1  0
 25 42  1  0
 25 43  1  0
 26 44  1  0
 26 45  1  0
 27 46  1  0
 27 47  1  0
M  END
>  <UniqueID>  (10) 
28

>  <SMILES>  (10) 
O=S(=O)(Nc1ccc(SC(F)F)cc1Sc1ccccc1)N1CCCCC1

>  <Energy>  (10) 
36.49725200004563

>  <Genealogy>  (10) 
O=S(=O)(Nc1ccc(SC(F)F)cc1Sc1ccccc1)N1CCCCC1 (3D coordinates assigned)
O=S(=O)(Nc1ccc(SC(F)F)cc1Sc1ccccc1)N1CCCCC1 (nonaromatic ring conformer: 36.49725200004563 kcal/mol)

>  <smiles>  (10) 
O=S(=O)(Nc1ccc(SC(F)F)cc1Sc1ccccc1)N1CCCCC1

>  <score_type>  (10) 
oracle

>  <origin>  (10) 
autodockgpu

>  <m_score__min__energy>  (10) 
-7.2800000000000002

>  <m_primary>  (10) 
energy

>  <meeko>  (10) 
{"free_energy": -6.88, "intermolecular_energy": -8.97, "internal_energy": -1.6, "cluster_size": 9, "cluster_id": 2, "rank_in_cluster": 9}

>  <energy>  (10) 
-6.89

>  <cluster_rmsd>  (10) 
0.6

>  <rmsd>  (10) 
272.21

>  <cluster>  (10) 
2

$$$$
OEPCAOMNAWYQBL-UHFFFAOYNA-N
     RDKit          3D

 47 49  0  0  0  0  0  0  0  0999 V2000
  140.5300   73.4380  219.9010 O   0  0  0  0  0  0  0  0  0  0  0  0
  141.3830   73.7700  221.0940 S   0  0  0  0  0  0  0  0  0  0  0  0
  140.7310   73.1710  222.3090 O   0  0  0  0  0  0  0  0  0  0  0  0
  141.4860   75.4930  221.3090 N   0  0  0  0  0  0  0  0  0  0  0  0
  140.3750   76.3180  221.7030 C   0  0  0  0  0  0  0  0  0  0  0  0
  139.2610   75.7580  222.3540 C   0  0  0  0  0  0  0  0  0  0  0  0
  138.1680   76.5540  222.7070 C   0  0  0  0  0  0  0  0  0  0  0  0
  138.1640   77.9160  222.4020 C   0  0  0  0  0  0  0  0  0  0  0  0
  136.7600   78.9360  222.8600 S   0  0  0  0  0  0  0  0  0  0  0  0
  137.7850   80.3140  223.4700 C   0  0  0  0  0  0  0  0  0  0  0  0
  137.0180   81.1650  224.2420 F   0  0  0  0  0  0  0  0  0  0  0  0
  138.8130   79.8050  224.2400 F   0  0  0  0  0  0  0  0  0  0  0  0
  139.2590   78.4850  221.7480 C   0  0  0  0  0  0  0  0  0  0  0  0
  140.3630   77.6990  221.3960 C   0  0  0  0  0  0  0  0  0  0  0  0
  141.7530   78.5000  220.5800 S   0  0  0  0  0  0  0  0  0  0  0  0
  141.9230   79.7340  221.8700 C   0  0  0  0  0  0  0  0  0  0  0  0
  142.5040   79.3930  223.0980 C   0  0  0  0  0  0  0  0  0  0  0  0
  142.6450   80.3600  224.0990 C   0  0  0  0  0  0  0  0  0  0  0  0
  142.2010   81.6670  223.8760 C   0  0  0  0  0  0  0  0  0  0  0  0
  141.6120   82.0070  222.6540 C   0  0  0  0  0  0  0  0  0  0  0  0
  141.4700   81.0420  221.6530 C   0  0  0  0  0  0  0  0  0  0  0  0
  142.9740   73.0770  220.8960 N   0  0  0  0  0  0  0  0  0  0  0  0
  143.9200   74.1350  220.5000 C   0  0  0  0  0  0  0  0  0  0  0  0
  145.3370   73.5620  220.3860 C   0  0  0  0  0  0  0  0  0  0  0  0
  145.3670   72.4060  219.3820 C   0  0  0  0  0  0  0  0  0  0  0  0
  144.3090   71.3580  219.7330 C   0  0  0  0  0  0  0  0  0  0  0  0
  142.9300   72.0130  219.8770 C   0  0  0  0  0  0  0  0  0  0  0  0
  142.4470   75.8990  221.3050 H   0  0  0  0  0  0  0  0  0  0  0  0
  139.2500   74.6831  222.5875 H   0  0  0  0  0  0  0  0  0  0  0  0
  137.3083   76.1059  223.2267 H   0  0  0  0  0  0  0  0  0  0  0  0
  138.1941   80.8709  222.6141 H   0  0  0  0  0  0  0  0  0  0  0  0
  139.2541   79.5584  221.5077 H   0  0  0  0  0  0  0  0  0  0  0  0
  142.8497   78.3639  223.2755 H   0  0  0  0  0  0  0  0  0  0  0  0
  143.1052   80.0922  225.0615 H   0  0  0  0  0  0  0  0  0  0  0  0
  142.3150   82.4280  224.6620 H   0  0  0  0  0  0  0  0  0  0  0  0
  141.2602   83.0347  222.4805 H   0  0  0  0  0  0  0  0  0  0  0  0
  141.0022   81.3096  220.6941 H   0  0  0  0  0  0  0  0  0  0  0  0
  143.6160   74.5488  219.5272 H   0  0  0  0  0  0  0  0  0  0  0  0
  143.9132   74.9269  221.2635 H   0  0  0  0  0  0  0  0  0  0  0  0
  146.0218   74.3536  220.0477 H   0  0  0  0  0  0  0  0  0  0  0  0
  145.6501   73.1866  221.3714 H   0  0  0  0  0  0  0  0  0  0  0  0
  145.1667   72.7979  218.3739 H   0  0  0  0  0  0  0  0  0  0  0  0
  146.3593   71.9326  219.4170 H   0  0  0  0  0  0  0  0  0  0  0  0
  144.2691   70.6026  218.9344 H   0  0  0  0  0  0  0  0  0  0  0  0
  144.5798   70.8860  220.6890 H   0  0  0  0  0  0  0  0  0  0  0  0
  142.6317   72.4472  218.9114 H   0  0  0  0  0  0  0  0  0  0  0  0
  142.2015   71.2496  220.1875 H   0  0  0  0  0  0  0  0  0  0  0  0
  1  2  2  0
  2  3  2  0
  2  4  1  0
  4  5  1  0
  5  6  2  0
  6  7  1  0
  7  8  2  0
  8  9  1  0
  9 10  1  0
 10 11  1  0
 10 12  1  0
  8 13  1  0
 13 14  2  0
 14 15  1  0
 15 16  1  0
 16 17  2  0
 17 18  1  0
 18 19  2  0
 19 20  1  0
 20 21  2  0
  2 22  1  0
 22 23  1  0
 23 24  1  0
 24 25  1  0
 25 26  1  0
 26 27  1  0
 14  5  1  0
 21 16  1  0
 27 22  1  0
  4 28  1  0
  6 29  1  0
  7 30  1  0
 10 31  1  0
 13 32  1  0
 17 33  1  0
 18 34  1  0
 19 35  1  0
 20 36  1  0
 21 37  1  0
 23 38  1  0
 23 39  1  0
 24 40  1  0
 24 41  1  0
 25 42  1  0
 25 43  1  0
 26 44  1  0
 26 45  1  0
 27 46  1  0
 27 47  1  0
M  END
>  <UniqueID>  (11) 
28

>  <SMILES>  (11) 
O=S(=O)(Nc1ccc(SC(F)F)cc1Sc1ccccc1)N1CCCCC1

>  <Energy>  (11) 
36.49725200004563

>  <Genealogy>  (11) 
O=S(=O)(Nc1ccc(SC(F)F)cc1Sc1ccccc1)N1CCCCC1 (3D coordinates assigned)
O=S(=O)(Nc1ccc(SC(F)F)cc1Sc1ccccc1)N1CCCCC1 (nonaromatic ring conformer: 36.49725200004563 kcal/mol)

>  <smiles>  (11) 
O=S(=O)(Nc1ccc(SC(F)F)cc1Sc1ccccc1)N1CCCCC1

>  <score_type>  (11) 
oracle

>  <origin>  (11) 
autodockgpu

>  <m_score__min__energy>  (11) 
-7.2800000000000002

>  <m_primary>  (11) 
energy

>  <meeko>  (11) 
{"free_energy": -7.13, "intermolecular_energy": -9.22, "internal_energy": -1.53, "cluster_size": 9, "cluster_id": 2, "rank_in_cluster": 1}

>  <energy>  (11) 
-6.88

>  <cluster_rmsd>  (11) 
0.54

>  <rmsd>  (11) 
272.24

>  <cluster>  (11) 
2

$$$$
OEPCAOMNAWYQBL-UHFFFAOYNA-N
     RDKit          3D

 47 49  0  0  0  0  0  0  0  0999 V2000
  143.9820   80.1450  223.0920 O   0  0  0  0  0  0  0  0  0  0  0  0
  142.4880   80.2130  222.9340 S   0  0  0  0  0  0  0  0  0  0  0  0
  141.9150   80.7830  224.2010 O   0  0  0  0  0  0  0  0  0  0  0  0
  141.8280   78.6220  222.6900 N   0  0  0  0  0  0  0  0  0  0  0  0
  140.4190   78.3330  222.6830 C   0  0  0  0  0  0  0  0  0  0  0  0
  139.4850   79.3020  223.0940 C   0  0  0  0  0  0  0  0  0  0  0  0
  138.1190   79.0110  223.1180 C   0  0  0  0  0  0  0  0  0  0  0  0
  137.6660   77.7430  222.7490 C   0  0  0  0  0  0  0  0  0  0  0  0
  135.9100   77.3720  222.7780 S   0  0  0  0  0  0  0  0  0  0  0  0
  136.1360   75.6930  223.4480 C   0  0  0  0  0  0  0  0  0  0  0  0
  135.5660   75.6070  224.7050 F   0  0  0  0  0  0  0  0  0  0  0  0
  135.5200   74.7850  222.6090 F   0  0  0  0  0  0  0  0  0  0  0  0
  138.5800   76.7670  222.3470 C   0  0  0  0  0  0  0  0  0  0  0  0
  139.9520   77.0510  222.3110 C   0  0  0  0  0  0  0  0  0  0  0  0
  141.0740   75.7580  221.7580 S   0  0  0  0  0  0  0  0  0  0  0  0
  141.4740   76.6210  220.2380 C   0  0  0  0  0  0  0  0  0  0  0  0
  140.4770   77.3180  219.5420 C   0  0  0  0  0  0  0  0  0  0  0  0
  140.7930   78.0000  218.3620 C   0  0  0  0  0  0  0  0  0  0  0  0
  142.1030   77.9820  217.8730 C   0  0  0  0  0  0  0  0  0  0  0  0
  143.0970   77.2780  218.5610 C   0  0  0  0  0  0  0  0  0  0  0  0
  142.7830   76.5960  219.7400 C   0  0  0  0  0  0  0  0  0  0  0  0
  142.0820   81.2610  221.5980 N   0  0  0  0  0  0  0  0  0  0  0  0
  140.9060   82.0740  221.9560 C   0  0  0  0  0  0  0  0  0  0  0  0
  140.5710   83.0500  220.8230 C   0  0  0  0  0  0  0  0  0  0  0  0
  140.3260   82.2890  219.5170 C   0  0  0  0  0  0  0  0  0  0  0  0
  141.5040   81.3640  219.2010 C   0  0  0  0  0  0  0  0  0  0  0  0
  141.8070   80.4540  220.3970 C   0  0  0  0  0  0  0  0  0  0  0  0
  142.5010   77.8900  222.3730 H   0  0  0  0  0  0  0  0  0  0  0  0
  139.8343   80.2993  223.3996 H   0  0  0  0  0  0  0  0  0  0  0  0
  137.3988   79.7824  223.4282 H   0  0  0  0  0  0  0  0  0  0  0  0
  137.2111   75.4718  223.5205 H   0  0  0  0  0  0  0  0  0  0  0  0
  138.2209   75.7686  222.0566 H   0  0  0  0  0  0  0  0  0  0  0  0
  139.4454   77.3288  219.9237 H   0  0  0  0  0  0  0  0  0  0  0  0
  140.0108   78.5505  217.8188 H   0  0  0  0  0  0  0  0  0  0  0  0
  142.3519   78.5215  216.9472 H   0  0  0  0  0  0  0  0  0  0  0  0
  144.1265   77.2611  218.1739 H   0  0  0  0  0  0  0  0  0  0  0  0
  143.5647   76.0390  220.2774 H   0  0  0  0  0  0  0  0  0  0  0  0
  140.0457   81.4111  222.1304 H   0  0  0  0  0  0  0  0  0  0  0  0
  141.1305   82.6468  222.8678 H   0  0  0  0  0  0  0  0  0  0  0  0
  139.6656   83.6158  221.0880 H   0  0  0  0  0  0  0  0  0  0  0  0
  141.4185   83.7369  220.6818 H   0  0  0  0  0  0  0  0  0  0  0  0
  139.4106   81.6871  219.6160 H   0  0  0  0  0  0  0  0  0  0  0  0
  140.2178   83.0162  218.6988 H   0  0  0  0  0  0  0  0  0  0  0  0
  141.2531   80.7434  218.3282 H   0  0  0  0  0  0  0  0  0  0  0  0
  142.3913   81.9779  218.9869 H   0  0  0  0  0  0  0  0  0  0  0  0
  140.9399   79.8044  220.5873 H   0  0  0  0  0  0  0  0  0  0  0  0
  142.6925   79.8436  220.1662 H   0  0  0  0  0  0  0  0  0  0  0  0
  1  2  2  0
  2  3  2  0
  2  4  1  0
  4  5  1  0
  5  6  2  0
  6  7  1  0
  7  8  2  0
  8  9  1  0
  9 10  1  0
 10 11  1  0
 10 12  1  0
  8 13  1  0
 13 14  2  0
 14 15  1  0
 15 16  1  0
 16 17  2  0
 17 18  1  0
 18 19  2  0
 19 20  1  0
 20 21  2  0
  2 22  1  0
 22 23  1  0
 23 24  1  0
 24 25  1  0
 25 26  1  0
 26 27  1  0
 14  5  1  0
 21 16  1  0
 27 22  1  0
  4 28  1  0
  6 29  1  0
  7 30  1  0
 10 31  1  0
 13 32  1  0
 17 33  1  0
 18 34  1  0
 19 35  1  0
 20 36  1  0
 21 37  1  0
 23 38  1  0
 23 39  1  0
 24 40  1  0
 24 41  1  0
 25 42  1  0
 25 43  1  0
 26 44  1  0
 26 45  1  0
 27 46  1  0
 27 47  1  0
M  END
>  <UniqueID>  (12) 
28

>  <SMILES>  (12) 
O=S(=O)(Nc1ccc(SC(F)F)cc1Sc1ccccc1)N1CCCCC1

>  <Energy>  (12) 
36.49725200004563

>  <Genealogy>  (12) 
O=S(=O)(Nc1ccc(SC(F)F)cc1Sc1ccccc1)N1CCCCC1 (3D coordinates assigned)
O=S(=O)(Nc1ccc(SC(F)F)cc1Sc1ccccc1)N1CCCCC1 (nonaromatic ring conformer: 36.49725200004563 kcal/mol)

>  <smiles>  (12) 
O=S(=O)(Nc1ccc(SC(F)F)cc1Sc1ccccc1)N1CCCCC1

>  <score_type>  (12) 
oracle

>  <origin>  (12) 
autodockgpu

>  <m_score__min__energy>  (12) 
-7.2800000000000002

>  <m_primary>  (12) 
energy

>  <meeko>  (12) 
{"free_energy": -6.0, "intermolecular_energy": -8.08, "internal_energy": -2.24, "cluster_size": 1, "cluster_id": 5, "rank_in_cluster": 1}

>  <energy>  (12) 
-7.09

>  <cluster_rmsd>  (12) 
0.0

>  <rmsd>  (12) 
271.83

>  <cluster>  (12) 
3

$$$$
OEPCAOMNAWYQBL-UHFFFAOYNA-N
     RDKit          3D

 47 49  0  0  0  0  0  0  0  0999 V2000
  139.8030   73.8210  220.2320 O   0  0  0  0  0  0  0  0  0  0  0  0
  140.9990   73.9560  221.1330 S   0  0  0  0  0  0  0  0  0  0  0  0
  140.7630   73.1000  222.3460 O   0  0  0  0  0  0  0  0  0  0  0  0
  141.1910   75.6080  221.6470 N   0  0  0  0  0  0  0  0  0  0  0  0
  140.0920   76.4890  221.9380 C   0  0  0  0  0  0  0  0  0  0  0  0
  138.9610   76.0200  222.6310 C   0  0  0  0  0  0  0  0  0  0  0  0
  137.8790   76.8670  222.8850 C   0  0  0  0  0  0  0  0  0  0  0  0
  137.9030   78.1890  222.4370 C   0  0  0  0  0  0  0  0  0  0  0  0
  136.5130   79.2750  222.7680 S   0  0  0  0  0  0  0  0  0  0  0  0
  137.5140   80.5100  223.6600 C   0  0  0  0  0  0  0  0  0  0  0  0
  138.5950   79.8930  224.2620 F   0  0  0  0  0  0  0  0  0  0  0  0
  137.9750   81.4520  222.7610 F   0  0  0  0  0  0  0  0  0  0  0  0
  139.0140   78.6670  221.7400 C   0  0  0  0  0  0  0  0  0  0  0  0
  140.1080   77.8290  221.4870 C   0  0  0  0  0  0  0  0  0  0  0  0
  141.5200   78.5150  220.6070 S   0  0  0  0  0  0  0  0  0  0  0  0
  141.8360   79.7430  221.8760 C   0  0  0  0  0  0  0  0  0  0  0  0
  142.5850   79.4040  223.0110 C   0  0  0  0  0  0  0  0  0  0  0  0
  142.8390   80.3660  223.9940 C   0  0  0  0  0  0  0  0  0  0  0  0
  142.3420   81.6650  223.8480 C   0  0  0  0  0  0  0  0  0  0  0  0
  141.5860   82.0010  222.7200 C   0  0  0  0  0  0  0  0  0  0  0  0
  141.3310   81.0410  221.7370 C   0  0  0  0  0  0  0  0  0  0  0  0
  142.4310   73.3970  220.3050 N   0  0  0  0  0  0  0  0  0  0  0  0
  142.8360   72.0930  220.8590 C   0  0  0  0  0  0  0  0  0  0  0  0
  144.0530   71.5500  220.1000 C   0  0  0  0  0  0  0  0  0  0  0  0
  145.2120   72.5490  220.1650 C   0  0  0  0  0  0  0  0  0  0  0  0
  144.7600   73.9320  219.6900 C   0  0  0  0  0  0  0  0  0  0  0  0
  143.5130   74.3850  220.4600 C   0  0  0  0  0  0  0  0  0  0  0  0
  142.1600   75.8980  221.9050 H   0  0  0  0  0  0  0  0  0  0  0  0
  138.9281   74.9761  222.9763 H   0  0  0  0  0  0  0  0  0  0  0  0
  137.0063   76.4912  223.4392 H   0  0  0  0  0  0  0  0  0  0  0  0
  136.8948   80.9929  224.4303 H   0  0  0  0  0  0  0  0  0  0  0  0
  139.0307   79.7087  221.3870 H   0  0  0  0  0  0  0  0  0  0  0  0
  142.9731   78.3815  223.1287 H   0  0  0  0  0  0  0  0  0  0  0  0
  143.4303   80.1006  224.8828 H   0  0  0  0  0  0  0  0  0  0  0  0
  142.5454   82.4221  224.6197 H   0  0  0  0  0  0  0  0  0  0  0  0
  141.1919   83.0217  222.6067 H   0  0  0  0  0  0  0  0  0  0  0  0
  140.7326   81.3058  220.8528 H   0  0  0  0  0  0  0  0  0  0  0  0
  143.0946   72.2141  221.9213 H   0  0  0  0  0  0  0  0  0  0  0  0
  142.0018   71.3837  220.7540 H   0  0  0  0  0  0  0  0  0  0  0  0
  144.3684   70.5989  220.5538 H   0  0  0  0  0  0  0  0  0  0  0  0
  143.7759   71.3929  219.0471 H   0  0  0  0  0  0  0  0  0  0  0  0
  145.5682   72.6221  221.2032 H   0  0  0  0  0  0  0  0  0  0  0  0
  146.0210   72.1960  219.5085 H   0  0  0  0  0  0  0  0  0  0  0  0
  145.5715   74.6553  219.8581 H   0  0  0  0  0  0  0  0  0  0  0  0
  144.5156   73.8773  218.6189 H   0  0  0  0  0  0  0  0  0  0  0  0
  143.7619   74.4866  221.5267 H   0  0  0  0  0  0  0  0  0  0  0  0
  143.1756   75.3520  220.0587 H   0  0  0  0  0  0  0  0  0  0  0  0
  1  2  2  0
  2  3  2  0
  2  4  1  0
  4  5  1  0
  5  6  2  0
  6  7  1  0
  7  8  2  0
  8  9  1  0
  9 10  1  0
 10 11  1  0
 10 12  1  0
  8 13  1  0
 13 14  2  0
 14 15  1  0
 15 16  1  0
 16 17  2  0
 17 18  1  0
 18 19  2  0
 19 20  1  0
 20 21  2  0
  2 22  1  0
 22 23  1  0
 23 24  1  0
 24 25  1  0
 25 26  1  0
 26 27  1  0
 14  5  1  0
 21 16  1  0
 27 22  1  0
  4 28  1  0
  6 29  1  0
  7 30  1  0
 10 31  1  0
 13 32  1  0
 17 33  1  0
 18 34  1  0
 19 35  1  0
 20 36  1  0
 21 37  1  0
 23 38  1  0
 23 39  1  0
 24 40  1  0
 24 41  1  0
 25 42  1  0
 25 43  1  0
 26 44  1  0
 26 45  1  0
 27 46  1  0
 27 47  1  0
M  END
>  <UniqueID>  (13) 
28

>  <SMILES>  (13) 
O=S(=O)(Nc1ccc(SC(F)F)cc1Sc1ccccc1)N1CCCCC1

>  <Energy>  (13) 
36.49725200004563

>  <Genealogy>  (13) 
O=S(=O)(Nc1ccc(SC(F)F)cc1Sc1ccccc1)N1CCCCC1 (3D coordinates assigned)
O=S(=O)(Nc1ccc(SC(F)F)cc1Sc1ccccc1)N1CCCCC1 (nonaromatic ring conformer: 36.49725200004563 kcal/mol)

>  <smiles>  (13) 
O=S(=O)(Nc1ccc(SC(F)F)cc1Sc1ccccc1)N1CCCCC1

>  <score_type>  (13) 
oracle

>  <origin>  (13) 
autodockgpu

>  <m_score__min__energy>  (13) 
-7.2800000000000002

>  <m_primary>  (13) 
energy

>  <meeko>  (13) 
{"free_energy": -6.89, "intermolecular_energy": -8.97, "internal_energy": -1.6, "cluster_size": 9, "cluster_id": 2, "rank_in_cluster": 8}

>  <energy>  (13) 
-7.01

>  <cluster_rmsd>  (13) 
0.51

>  <rmsd>  (13) 
271.73

>  <cluster>  (13) 
3

$$$$
OEPCAOMNAWYQBL-UHFFFAOYNA-N
     RDKit          3D

 47 49  0  0  0  0  0  0  0  0999 V2000
  140.5180   73.4960  219.9230 O   0  0  0  0  0  0  0  0  0  0  0  0
  141.3510   73.8120  221.1350 S   0  0  0  0  0  0  0  0  0  0  0  0
  140.6870   73.1890  222.3290 O   0  0  0  0  0  0  0  0  0  0  0  0
  141.4400   75.5320  221.3810 N   0  0  0  0  0  0  0  0  0  0  0  0
  140.3120   76.3480  221.7450 C   0  0  0  0  0  0  0  0  0  0  0  0
  139.2020   75.7850  222.4000 C   0  0  0  0  0  0  0  0  0  0  0  0
  138.0930   76.5700  222.7250 C   0  0  0  0  0  0  0  0  0  0  0  0
  138.0690   77.9240  222.3860 C   0  0  0  0  0  0  0  0  0  0  0  0
  136.6440   78.9320  222.8080 S   0  0  0  0  0  0  0  0  0  0  0  0
  137.6400   80.3050  223.4750 C   0  0  0  0  0  0  0  0  0  0  0  0
  136.8630   81.0890  224.3060 F   0  0  0  0  0  0  0  0  0  0  0  0
  138.6960   79.7870  224.1980 F   0  0  0  0  0  0  0  0  0  0  0  0
  139.1600   78.4960  221.7280 C   0  0  0  0  0  0  0  0  0  0  0  0
  140.2800   77.7200  221.4050 C   0  0  0  0  0  0  0  0  0  0  0  0
  141.6640   78.5240  220.5810 S   0  0  0  0  0  0  0  0  0  0  0  0
  141.8630   79.7360  221.8880 C   0  0  0  0  0  0  0  0  0  0  0  0
  142.4270   79.3610  223.1150 C   0  0  0  0  0  0  0  0  0  0  0  0
  142.5910   80.3100  224.1300 C   0  0  0  0  0  0  0  0  0  0  0  0
  142.1860   81.6330  223.9230 C   0  0  0  0  0  0  0  0  0  0  0  0
  141.6130   82.0060  222.7020 C   0  0  0  0  0  0  0  0  0  0  0  0
  141.4490   81.0590  221.6880 C   0  0  0  0  0  0  0  0  0  0  0  0
  142.9490   73.1330  220.9470 N   0  0  0  0  0  0  0  0  0  0  0  0
  143.8870   74.1960  220.5430 C   0  0  0  0  0  0  0  0  0  0  0  0
  145.3090   73.6360  220.4370 C   0  0  0  0  0  0  0  0  0  0  0  0
  145.3530   72.4700  219.4450 C   0  0  0  0  0  0  0  0  0  0  0  0
  144.3040   71.4150  219.8050 C   0  0  0  0  0  0  0  0  0  0  0  0
  142.9180   72.0580  219.9400 C   0  0  0  0  0  0  0  0  0  0  0  0
  142.4000   75.9410  221.4190 H   0  0  0  0  0  0  0  0  0  0  0  0
  139.2071   74.7159  222.6590 H   0  0  0  0  0  0  0  0  0  0  0  0
  137.2369   76.1202  223.2492 H   0  0  0  0  0  0  0  0  0  0  0  0
  138.0166   80.9193  222.6438 H   0  0  0  0  0  0  0  0  0  0  0  0
  139.1394   79.5631  221.4617 H   0  0  0  0  0  0  0  0  0  0  0  0
  142.7410   78.3198  223.2802 H   0  0  0  0  0  0  0  0  0  0  0  0
  143.0384   80.0158  225.0909 H   0  0  0  0  0  0  0  0  0  0  0  0
  142.3179   82.3798  224.7198 H   0  0  0  0  0  0  0  0  0  0  0  0
  141.2915   83.0455  222.5405 H   0  0  0  0  0  0  0  0  0  0  0  0
  140.9939   81.3530  220.7307 H   0  0  0  0  0  0  0  0  0  0  0  0
  143.5812   74.5980  219.5658 H   0  0  0  0  0  0  0  0  0  0  0  0
  143.8716   74.9943  221.2996 H   0  0  0  0  0  0  0  0  0  0  0  0
  145.9864   74.4309  220.0917 H   0  0  0  0  0  0  0  0  0  0  0  0
  145.6236   73.2735  221.4267 H   0  0  0  0  0  0  0  0  0  0  0  0
  145.1512   72.8493  218.4324 H   0  0  0  0  0  0  0  0  0  0  0  0
  146.3499   72.0069  219.4868 H   0  0  0  0  0  0  0  0  0  0  0  0
  144.2729   70.6511  219.0141 H   0  0  0  0  0  0  0  0  0  0  0  0
  144.5776   70.9555  220.7663 H   0  0  0  0  0  0  0  0  0  0  0  0
  142.6170   72.4787  218.9692 H   0  0  0  0  0  0  0  0  0  0  0  0
  142.1969   71.2906  220.2579 H   0  0  0  0  0  0  0  0  0  0  0  0
  1  2  2  0
  2  3  2  0
  2  4  1  0
  4  5  1  0
  5  6  2  0
  6  7  1  0
  7  8  2  0
  8  9  1  0
  9 10  1  0
 10 11  1  0
 10 12  1  0
  8 13  1  0
 13 14  2  0
 14 15  1  0
 15 16  1  0
 16 17  2  0
 17 18  1  0
 18 19  2  0
 19 20  1  0
 20 21  2  0
  2 22  1  0
 22 23  1  0
 23 24  1  0
 24 25  1  0
 25 26  1  0
 26 27  1  0
 14  5  1  0
 21 16  1  0
 27 22  1  0
  4 28  1  0
  6 29  1  0
  7 30  1  0
 10 31  1  0
 13 32  1  0
 17 33  1  0
 18 34  1  0
 19 35  1  0
 20 36  1  0
 21 37  1  0
 23 38  1  0
 23 39  1  0
 24 40  1  0
 24 41  1  0
 25 42  1  0
 25 43  1  0
 26 44  1  0
 26 45  1  0
 27 46  1  0
 27 47  1  0
M  END
>  <UniqueID>  (14) 
28

>  <SMILES>  (14) 
O=S(=O)(Nc1ccc(SC(F)F)cc1Sc1ccccc1)N1CCCCC1

>  <Energy>  (14) 
36.49725200004563

>  <Genealogy>  (14) 
O=S(=O)(Nc1ccc(SC(F)F)cc1Sc1ccccc1)N1CCCCC1 (3D coordinates assigned)
O=S(=O)(Nc1ccc(SC(F)F)cc1Sc1ccccc1)N1CCCCC1 (nonaromatic ring conformer: 36.49725200004563 kcal/mol)

>  <smiles>  (14) 
O=S(=O)(Nc1ccc(SC(F)F)cc1Sc1ccccc1)N1CCCCC1

>  <score_type>  (14) 
oracle

>  <origin>  (14) 
autodockgpu

>  <m_score__min__energy>  (14) 
-7.2800000000000002

>  <m_primary>  (14) 
energy

>  <meeko>  (14) 
{"free_energy": -7.11, "intermolecular_energy": -9.2, "internal_energy": -1.53, "cluster_size": 9, "cluster_id": 2, "rank_in_cluster": 2}

>  <energy>  (14) 
-6.94

>  <cluster_rmsd>  (14) 
0.41

>  <rmsd>  (14) 
271.67

>  <cluster>  (14) 
3

$$$$
OEPCAOMNAWYQBL-UHFFFAOYNA-N
     RDKit          3D

 47 49  0  0  0  0  0  0  0  0999 V2000
  140.5510   73.5010  219.9150 O   0  0  0  0  0  0  0  0  0  0  0  0
  141.3950   73.8210  221.1180 S   0  0  0  0  0  0  0  0  0  0  0  0
  140.7430   73.1950  222.3190 O   0  0  0  0  0  0  0  0  0  0  0  0
  141.4780   75.5410  221.3630 N   0  0  0  0  0  0  0  0  0  0  0  0
  140.3480   76.3540  221.7290 C   0  0  0  0  0  0  0  0  0  0  0  0
  139.2440   75.7890  222.3930 C   0  0  0  0  0  0  0  0  0  0  0  0
  138.1330   76.5710  222.7190 C   0  0  0  0  0  0  0  0  0  0  0  0
  138.1000   77.9220  222.3730 C   0  0  0  0  0  0  0  0  0  0  0  0
  136.6730   78.9250  222.7970 S   0  0  0  0  0  0  0  0  0  0  0  0
  137.6610   80.2650  223.5360 C   0  0  0  0  0  0  0  0  0  0  0  0
  138.7420   79.7330  224.2150 F   0  0  0  0  0  0  0  0  0  0  0  0
  138.1220   81.0940  222.5310 F   0  0  0  0  0  0  0  0  0  0  0  0
  139.1840   78.4960  221.7060 C   0  0  0  0  0  0  0  0  0  0  0  0
  140.3070   77.7240  221.3810 C   0  0  0  0  0  0  0  0  0  0  0  0
  141.6820   78.5300  220.5450 S   0  0  0  0  0  0  0  0  0  0  0  0
  141.8980   79.7350  221.8560 C   0  0  0  0  0  0  0  0  0  0  0  0
  142.4780   79.3520  223.0730 C   0  0  0  0  0  0  0  0  0  0  0  0
  142.6560   80.2960  224.0910 C   0  0  0  0  0  0  0  0  0  0  0  0
  142.2490   81.6200  223.8960 C   0  0  0  0  0  0  0  0  0  0  0  0
  141.6610   82.0000  222.6850 C   0  0  0  0  0  0  0  0  0  0  0  0
  141.4830   81.0590  221.6680 C   0  0  0  0  0  0  0  0  0  0  0  0
  142.9930   73.1490  220.9160 N   0  0  0  0  0  0  0  0  0  0  0  0
  143.9150   74.2090  220.4700 C   0  0  0  0  0  0  0  0  0  0  0  0
  145.3400   73.6560  220.3510 C   0  0  0  0  0  0  0  0  0  0  0  0
  145.3740   72.4680  219.3850 C   0  0  0  0  0  0  0  0  0  0  0  0
  144.3390   71.4150  219.7890 C   0  0  0  0  0  0  0  0  0  0  0  0
  142.9520   72.0510  219.9340 C   0  0  0  0  0  0  0  0  0  0  0  0
  142.4360   75.9530  221.4010 H   0  0  0  0  0  0  0  0  0  0  0  0
  139.2555   74.7215  222.6581 H   0  0  0  0  0  0  0  0  0  0  0  0
  137.2818   76.1200  223.2501 H   0  0  0  0  0  0  0  0  0  0  0  0
  137.0344   80.8343  224.2383 H   0  0  0  0  0  0  0  0  0  0  0  0
  139.1561   79.5614  221.4339 H   0  0  0  0  0  0  0  0  0  0  0  0
  142.7933   78.3096  223.2281 H   0  0  0  0  0  0  0  0  0  0  0  0
  143.1160   79.9967  225.0444 H   0  0  0  0  0  0  0  0  0  0  0  0
  142.3913   82.3625  224.6951 H   0  0  0  0  0  0  0  0  0  0  0  0
  141.3385   83.0407  222.5334 H   0  0  0  0  0  0  0  0  0  0  0  0
  141.0161   81.3586  220.7181 H   0  0  0  0  0  0  0  0  0  0  0  0
  143.5884   74.5857  219.4895 H   0  0  0  0  0  0  0  0  0  0  0  0
  143.9072   75.0251  221.2075 H   0  0  0  0  0  0  0  0  0  0  0  0
  146.0055   74.4473  219.9755 H   0  0  0  0  0  0  0  0  0  0  0  0
  145.6752   73.3185  221.3428 H   0  0  0  0  0  0  0  0  0  0  0  0
  145.1508   72.8226  218.3679 H   0  0  0  0  0  0  0  0  0  0  0  0
  146.3747   72.0125  219.4182 H   0  0  0  0  0  0  0  0  0  0  0  0
  144.2991   70.6323  219.0171 H   0  0  0  0  0  0  0  0  0  0  0  0
  144.6332   70.9807  220.7558 H   0  0  0  0  0  0  0  0  0  0  0  0
  142.6309   72.4475  218.9595 H   0  0  0  0  0  0  0  0  0  0  0  0
  142.2422   71.2861  220.2820 H   0  0  0  0  0  0  0  0  0  0  0  0
  1  2  2  0
  2  3  2  0
  2  4  1  0
  4  5  1  0
  5  6  2  0
  6  7  1  0
  7  8  2  0
  8  9  1  0
  9 10  1  0
 10 11  1  0
 10 12  1  0
  8 13  1  0
 13 14  2  0
 14 15  1  0
 15 16  1  0
 16 17  2  0
 17 18  1  0
 18 19  2  0
 19 20  1  0
 20 21  2  0
  2 22  1  0
 22 23  1  0
 23 24  1  0
 24 25  1  0
 25 26  1  0
 26 27  1  0
 14  5  1  0
 21 16  1  0
 27 22  1  0
  4 28  1  0
  6 29  1  0
  7 30  1  0
 10 31  1  0
 13 32  1  0
 17 33  1  0
 18 34  1  0
 19 35  1  0
 20 36  1  0
 21 37  1  0
 23 38  1  0
 23 39  1  0
 24 40  1  0
 24 41  1  0
 25 42  1  0
 25 43  1  0
 26 44  1  0
 26 45  1  0
 27 46  1  0
 27 47  1  0
M  END
>  <UniqueID>  (15) 
28

>  <SMILES>  (15) 
O=S(=O)(Nc1ccc(SC(F)F)cc1Sc1ccccc1)N1CCCCC1

>  <Energy>  (15) 
36.49725200004563

>  <Genealogy>  (15) 
O=S(=O)(Nc1ccc(SC(F)F)cc1Sc1ccccc1)N1CCCCC1 (3D coordinates assigned)
O=S(=O)(Nc1ccc(SC(F)F)cc1Sc1ccccc1)N1CCCCC1 (nonaromatic ring conformer: 36.49725200004563 kcal/mol)

>  <smiles>  (15) 
O=S(=O)(Nc1ccc(SC(F)F)cc1Sc1ccccc1)N1CCCCC1

>  <score_type>  (15) 
oracle

>  <origin>  (15) 
autodockgpu

>  <m_score__min__energy>  (15) 
-7.2800000000000002

>  <m_primary>  (15) 
energy

>  <meeko>  (15) 
{"free_energy": -7.05, "intermolecular_energy": -9.14, "internal_energy": -1.6, "cluster_size": 9, "cluster_id": 2, "rank_in_cluster": 5}

>  <energy>  (15) 
-6.92

>  <cluster_rmsd>  (15) 
0.73

>  <rmsd>  (15) 
271.65

>  <cluster>  (15) 
3

$$$$
OEPCAOMNAWYQBL-UHFFFAOYNA-N
     RDKit          3D

 47 49  0  0  0  0  0  0  0  0999 V2000
  139.4490   70.2110  221.7550 O   0  0  0  0  0  0  0  0  0  0  0  0
  139.1450   70.9970  223.0010 S   0  0  0  0  0  0  0  0  0  0  0  0
  137.6970   70.7840  223.3400 O   0  0  0  0  0  0  0  0  0  0  0  0
  139.4100   72.6950  222.7290 N   0  0  0  0  0  0  0  0  0  0  0  0
  140.5050   73.2210  221.9570 C   0  0  0  0  0  0  0  0  0  0  0  0
  141.5710   72.3900  221.5660 C   0  0  0  0  0  0  0  0  0  0  0  0
  142.6490   72.9080  220.8450 C   0  0  0  0  0  0  0  0  0  0  0  0
  142.6890   74.2640  220.5180 C   0  0  0  0  0  0  0  0  0  0  0  0
  144.0740   74.9260  219.5880 S   0  0  0  0  0  0  0  0  0  0  0  0
  143.0270   75.8790  218.4420 C   0  0  0  0  0  0  0  0  0  0  0  0
  141.8860   75.1600  218.1380 F   0  0  0  0  0  0  0  0  0  0  0  0
  142.6640   77.0680  219.0440 F   0  0  0  0  0  0  0  0  0  0  0  0
  141.6420   75.1030  220.9060 C   0  0  0  0  0  0  0  0  0  0  0  0
  140.5520   74.5940  221.6230 C   0  0  0  0  0  0  0  0  0  0  0  0
  139.2240   75.7230  222.0700 S   0  0  0  0  0  0  0  0  0  0  0  0
  140.2870   77.1640  221.9730 C   0  0  0  0  0  0  0  0  0  0  0  0
  141.0800   77.5280  223.0690 C   0  0  0  0  0  0  0  0  0  0  0  0
  141.9170   78.6470  222.9880 C   0  0  0  0  0  0  0  0  0  0  0  0
  141.9570   79.4060  221.8140 C   0  0  0  0  0  0  0  0  0  0  0  0
  141.1580   79.0500  220.7220 C   0  0  0  0  0  0  0  0  0  0  0  0
  140.3220   77.9330  220.8020 C   0  0  0  0  0  0  0  0  0  0  0  0
  140.1340   70.4220  224.3200 N   0  0  0  0  0  0  0  0  0  0  0  0
  139.4360   69.3220  225.0090 C   0  0  0  0  0  0  0  0  0  0  0  0
  140.3160   68.7560  226.1300 C   0  0  0  0  0  0  0  0  0  0  0  0
  140.6960   69.8610  227.1200 C   0  0  0  0  0  0  0  0  0  0  0  0
  141.3250   71.0490  226.3880 C   0  0  0  0  0  0  0  0  0  0  0  0
  140.4100   71.5270  225.2540 C   0  0  0  0  0  0  0  0  0  0  0  0
  138.6330   73.3310  223.0120 H   0  0  0  0  0  0  0  0  0  0  0  0
  141.5551   71.3224  221.8307 H   0  0  0  0  0  0  0  0  0  0  0  0
  143.4695   72.2448  220.5338 H   0  0  0  0  0  0  0  0  0  0  0  0
  143.5886   76.0786  217.5174 H   0  0  0  0  0  0  0  0  0  0  0  0
  141.6738   76.1715  220.6465 H   0  0  0  0  0  0  0  0  0  0  0  0
  141.0449   76.9339  223.9941 H   0  0  0  0  0  0  0  0  0  0  0  0
  142.5430   78.9293  223.8473 H   0  0  0  0  0  0  0  0  0  0  0  0
  142.6171   80.2835  221.7491 H   0  0  0  0  0  0  0  0  0  0  0  0
  141.1879   79.6495  219.8002 H   0  0  0  0  0  0  0  0  0  0  0  0
  139.6906   77.6570  219.9446 H   0  0  0  0  0  0  0  0  0  0  0  0
  138.4975   69.7007  225.4400 H   0  0  0  0  0  0  0  0  0  0  0  0
  139.2210   68.5234  224.2837 H   0  0  0  0  0  0  0  0  0  0  0  0
  139.7632   67.9675  226.6616 H   0  0  0  0  0  0  0  0  0  0  0  0
  141.2342   68.3417  225.6881 H   0  0  0  0  0  0  0  0  0  0  0  0
  139.7923   70.1994  227.6481 H   0  0  0  0  0  0  0  0  0  0  0  0
  141.4277   69.4586  227.8360 H   0  0  0  0  0  0  0  0  0  0  0  0
  141.4790   71.8728  227.1005 H   0  0  0  0  0  0  0  0  0  0  0  0
  142.2876   70.7334  225.9592 H   0  0  0  0  0  0  0  0  0  0  0  0
  139.4621   71.8875  225.6800 H   0  0  0  0  0  0  0  0  0  0  0  0
  140.9111   72.3401  224.7084 H   0  0  0  0  0  0  0  0  0  0  0  0
  1  2  2  0
  2  3  2  0
  2  4  1  0
  4  5  1  0
  5  6  2  0
  6  7  1  0
  7  8  2  0
  8  9  1  0
  9 10  1  0
 10 11  1  0
 10 12  1  0
  8 13  1  0
 13 14  2  0
 14 15  1  0
 15 16  1  0
 16 17  2  0
 17 18  1  0
 18 19  2  0
 19 20  1  0
 20 21  2  0
  2 22  1  0
 22 23  1  0
 23 24  1  0
 24 25  1  0
 25 26  1  0
 26 27  1  0
 14  5  1  0
 21 16  1  0
 27 22  1  0
  4 28  1  0
  6 29  1  0
  7 30  1  0
 10 31  1  0
 13 32  1  0
 17 33  1  0
 18 34  1  0
 19 35  1  0
 20 36  1  0
 21 37  1  0
 23 38  1  0
 23 39  1  0
 24 40  1  0
 24 41  1  0
 25 42  1  0
 25 43  1  0
 26 44  1  0
 26 45  1  0
 27 46  1  0
 27 47  1  0
M  END
>  <UniqueID>  (16) 
28

>  <SMILES>  (16) 
O=S(=O)(Nc1ccc(SC(F)F)cc1Sc1ccccc1)N1CCCCC1

>  <Energy>  (16) 
36.49725200004563

>  <Genealogy>  (16) 
O=S(=O)(Nc1ccc(SC(F)F)cc1Sc1ccccc1)N1CCCCC1 (3D coordinates assigned)
O=S(=O)(Nc1ccc(SC(F)F)cc1Sc1ccccc1)N1CCCCC1 (nonaromatic ring conformer: 36.49725200004563 kcal/mol)

>  <smiles>  (16) 
O=S(=O)(Nc1ccc(SC(F)F)cc1Sc1ccccc1)N1CCCCC1

>  <score_type>  (16) 
oracle

>  <origin>  (16) 
autodockgpu

>  <m_score__min__energy>  (16) 
-7.2800000000000002

>  <m_primary>  (16) 
energy

>  <meeko>  (16) 
{"free_energy": -6.74, "intermolecular_energy": -8.83, "internal_energy": -1.54, "cluster_size": 2, "cluster_id": 1, "rank_in_cluster": 2}

>  <energy>  (16) 
-6.91

>  <cluster_rmsd>  (16) 
0.64

>  <rmsd>  (16) 
271.65

>  <cluster>  (16) 
3

$$$$
OEPCAOMNAWYQBL-UHFFFAOYNA-N
     RDKit          3D

 47 49  0  0  0  0  0  0  0  0999 V2000
  140.8530   73.8420  219.6410 O   0  0  0  0  0  0  0  0  0  0  0  0
  141.6090   74.0580  220.9230 S   0  0  0  0  0  0  0  0  0  0  0  0
  140.7870   73.4900  222.0450 O   0  0  0  0  0  0  0  0  0  0  0  0
  141.8450   75.7580  221.2110 N   0  0  0  0  0  0  0  0  0  0  0  0
  141.8360   76.7540  220.1730 C   0  0  0  0  0  0  0  0  0  0  0  0
  142.6730   76.6280  219.0490 C   0  0  0  0  0  0  0  0  0  0  0  0
  142.6880   77.6110  218.0580 C   0  0  0  0  0  0  0  0  0  0  0  0
  141.8810   78.7430  218.1800 C   0  0  0  0  0  0  0  0  0  0  0  0
  141.8990   80.0040  216.9030 S   0  0  0  0  0  0  0  0  0  0  0  0
  142.8870   81.1790  217.8840 C   0  0  0  0  0  0  0  0  0  0  0  0
  143.1040   82.3340  217.1560 F   0  0  0  0  0  0  0  0  0  0  0  0
  142.1990   81.4940  219.0390 F   0  0  0  0  0  0  0  0  0  0  0  0
  141.0500   78.8880  219.2940 C   0  0  0  0  0  0  0  0  0  0  0  0
  141.0210   77.9040  220.2910 C   0  0  0  0  0  0  0  0  0  0  0  0
  139.9100   78.1390  221.6860 S   0  0  0  0  0  0  0  0  0  0  0  0
  141.0200   79.2890  222.5010 C   0  0  0  0  0  0  0  0  0  0  0  0
  140.5030   80.3750  223.2200 C   0  0  0  0  0  0  0  0  0  0  0  0
  141.3700   81.2650  223.8630 C   0  0  0  0  0  0  0  0  0  0  0  0
  142.7530   81.0750  223.7840 C   0  0  0  0  0  0  0  0  0  0  0  0
  143.2700   79.9970  223.0570 C   0  0  0  0  0  0  0  0  0  0  0  0
  142.4060   79.1070  222.4140 C   0  0  0  0  0  0  0  0  0  0  0  0
  143.1420   73.2250  220.8540 N   0  0  0  0  0  0  0  0  0  0  0  0
  144.2140   74.1990  220.5760 C   0  0  0  0  0  0  0  0  0  0  0  0
  145.5780   73.5000  220.5780 C   0  0  0  0  0  0  0  0  0  0  0  0
  145.5980   72.3650  219.5510 C   0  0  0  0  0  0  0  0  0  0  0  0
  144.4210   71.4120  219.7750 C   0  0  0  0  0  0  0  0  0  0  0  0
  143.1000   72.1890  219.8080 C   0  0  0  0  0  0  0  0  0  0  0  0
  141.8270   76.0600  222.2100 H   0  0  0  0  0  0  0  0  0  0  0  0
  143.3223   75.7456  218.9502 H   0  0  0  0  0  0  0  0  0  0  0  0
  143.3378   77.4930  217.1783 H   0  0  0  0  0  0  0  0  0  0  0  0
  143.8549   80.7204  218.1344 H   0  0  0  0  0  0  0  0  0  0  0  0
  140.4143   79.7807  219.3889 H   0  0  0  0  0  0  0  0  0  0  0  0
  139.4153   80.5277  223.2788 H   0  0  0  0  0  0  0  0  0  0  0  0
  140.9634   82.1147  224.4311 H   0  0  0  0  0  0  0  0  0  0  0  0
  143.4343   81.7726  224.2931 H   0  0  0  0  0  0  0  0  0  0  0  0
  144.3582   79.8501  222.9916 H   0  0  0  0  0  0  0  0  0  0  0  0
  142.8145   78.2629  221.8391 H   0  0  0  0  0  0  0  0  0  0  0  0
  144.0420   74.6573  219.5909 H   0  0  0  0  0  0  0  0  0  0  0  0
  144.2065   74.9735  221.3570 H   0  0  0  0  0  0  0  0  0  0  0  0
  146.3602   74.2310  220.3254 H   0  0  0  0  0  0  0  0  0  0  0  0
  145.7618   73.0796  221.5777 H   0  0  0  0  0  0  0  0  0  0  0  0
  145.5295   72.7919  218.5395 H   0  0  0  0  0  0  0  0  0  0  0  0
  146.5359   71.8016  219.6646 H   0  0  0  0  0  0  0  0  0  0  0  0
  144.3888   70.6778  218.9565 H   0  0  0  0  0  0  0  0  0  0  0  0
  144.5566   70.8996  220.7389 H   0  0  0  0  0  0  0  0  0  0  0  0
  142.9354   72.6665  218.8308 H   0  0  0  0  0  0  0  0  0  0  0  0
  142.2796   71.4904  220.0292 H   0  0  0  0  0  0  0  0  0  0  0  0
  1  2  2  0
  2  3  2  0
  2  4  1  0
  4  5  1  0
  5  6  2  0
  6  7  1  0
  7  8  2  0
  8  9  1  0
  9 10  1  0
 10 11  1  0
 10 12  1  0
  8 13  1  0
 13 14  2  0
 14 15  1  0
 15 16  1  0
 16 17  2  0
 17 18  1  0
 18 19  2  0
 19 20  1  0
 20 21  2  0
  2 22  1  0
 22 23  1  0
 23 24  1  0
 24 25  1  0
 25 26  1  0
 26 27  1  0
 14  5  1  0
 21 16  1  0
 27 22  1  0
  4 28  1  0
  6 29  1  0
  7 30  1  0
 10 31  1  0
 13 32  1  0
 17 33  1  0
 18 34  1  0
 19 35  1  0
 20 36  1  0
 21 37  1  0
 23 38  1  0
 23 39  1  0
 24 40  1  0
 24 41  1  0
 25 42  1  0
 25 43  1  0
 26 44  1  0
 26 45  1  0
 27 46  1  0
 27 47  1  0
M  END
>  <UniqueID>  (17) 
28

>  <SMILES>  (17) 
O=S(=O)(Nc1ccc(SC(F)F)cc1Sc1ccccc1)N1CCCCC1

>  <Energy>  (17) 
36.49725200004563

>  <Genealogy>  (17) 
O=S(=O)(Nc1ccc(SC(F)F)cc1Sc1ccccc1)N1CCCCC1 (3D coordinates assigned)
O=S(=O)(Nc1ccc(SC(F)F)cc1Sc1ccccc1)N1CCCCC1 (nonaromatic ring conformer: 36.49725200004563 kcal/mol)

>  <smiles>  (17) 
O=S(=O)(Nc1ccc(SC(F)F)cc1Sc1ccccc1)N1CCCCC1

>  <score_type>  (17) 
oracle

>  <origin>  (17) 
autodockgpu

>  <m_score__min__energy>  (17) 
-7.2800000000000002

>  <m_primary>  (17) 
energy

>  <meeko>  (17) 
{"free_energy": -7.09, "intermolecular_energy": -9.18, "internal_energy": -1.57, "cluster_size": 7, "cluster_id": 3, "rank_in_cluster": 1}

>  <energy>  (17) 
-6.83

>  <cluster_rmsd>  (17) 
0.75

>  <rmsd>  (17) 
271.55

>  <cluster>  (17) 
3

$$$$
OEPCAOMNAWYQBL-UHFFFAOYNA-N
     RDKit          3D

 47 49  0  0  0  0  0  0  0  0999 V2000
  140.7500   74.0280  219.5640 O   0  0  0  0  0  0  0  0  0  0  0  0
  141.4930   74.2250  220.8570 S   0  0  0  0  0  0  0  0  0  0  0  0
  140.6200   73.7260  221.9730 O   0  0  0  0  0  0  0  0  0  0  0  0
  141.8220   75.9130  221.1190 N   0  0  0  0  0  0  0  0  0  0  0  0
  141.8480   76.8960  220.0690 C   0  0  0  0  0  0  0  0  0  0  0  0
  142.7600   76.7840  219.0030 C   0  0  0  0  0  0  0  0  0  0  0  0
  142.8080   77.7550  218.0010 C   0  0  0  0  0  0  0  0  0  0  0  0
  141.9580   78.8610  218.0540 C   0  0  0  0  0  0  0  0  0  0  0  0
  142.0180   80.1050  216.7630 S   0  0  0  0  0  0  0  0  0  0  0  0
  142.8940   81.3280  217.7920 C   0  0  0  0  0  0  0  0  0  0  0  0
  143.3350   82.3760  217.0050 F   0  0  0  0  0  0  0  0  0  0  0  0
  142.0270   81.8150  218.7510 F   0  0  0  0  0  0  0  0  0  0  0  0
  141.0520   78.9910  219.1100 C   0  0  0  0  0  0  0  0  0  0  0  0
  140.9900   78.0190  220.1160 C   0  0  0  0  0  0  0  0  0  0  0  0
  139.7830   78.2330  221.4330 S   0  0  0  0  0  0  0  0  0  0  0  0
  140.8220   79.3880  222.3300 C   0  0  0  0  0  0  0  0  0  0  0  0
  141.7110   78.9210  223.3080 C   0  0  0  0  0  0  0  0  0  0  0  0
  142.5280   79.8220  223.9990 C   0  0  0  0  0  0  0  0  0  0  0  0
  142.4550   81.1900  223.7180 C   0  0  0  0  0  0  0  0  0  0  0  0
  141.5610   81.6590  222.7490 C   0  0  0  0  0  0  0  0  0  0  0  0
  140.7440   80.7600  222.0580 C   0  0  0  0  0  0  0  0  0  0  0  0
  142.9760   73.3040  220.8330 N   0  0  0  0  0  0  0  0  0  0  0  0
  144.0970   74.1940  220.4800 C   0  0  0  0  0  0  0  0  0  0  0  0
  145.4200   73.4210  220.5190 C   0  0  0  0  0  0  0  0  0  0  0  0
  145.3650   72.2190  219.5710 C   0  0  0  0  0  0  0  0  0  0  0  0
  144.1390   71.3520  219.8690 C   0  0  0  0  0  0  0  0  0  0  0  0
  142.8630   72.2030  219.8600 C   0  0  0  0  0  0  0  0  0  0  0  0
  141.8360   76.2280  222.1140 H   0  0  0  0  0  0  0  0  0  0  0  0
  143.4422   75.9223  218.9588 H   0  0  0  0  0  0  0  0  0  0  0  0
  143.5177   77.6482  217.1674 H   0  0  0  0  0  0  0  0  0  0  0  0
  143.7582   80.8469  218.2733 H   0  0  0  0  0  0  0  0  0  0  0  0
  140.3828   79.8631  219.1512 H   0  0  0  0  0  0  0  0  0  0  0  0
  141.7662   77.8455  223.5322 H   0  0  0  0  0  0  0  0  0  0  0  0
  143.2281   79.4544  224.7636 H   0  0  0  0  0  0  0  0  0  0  0  0
  143.1006   81.8976  224.2589 H   0  0  0  0  0  0  0  0  0  0  0  0
  141.5013   82.7355  222.5311 H   0  0  0  0  0  0  0  0  0  0  0  0
  140.0387   81.1303  221.2994 H   0  0  0  0  0  0  0  0  0  0  0  0
  143.9391   74.5928  219.4671 H   0  0  0  0  0  0  0  0  0  0  0  0
  144.1422   75.0191  221.2060 H   0  0  0  0  0  0  0  0  0  0  0  0
  146.2386   74.0881  220.2111 H   0  0  0  0  0  0  0  0  0  0  0  0
  145.5916   73.0595  221.5436 H   0  0  0  0  0  0  0  0  0  0  0  0
  145.3090   72.5795  218.5333 H   0  0  0  0  0  0  0  0  0  0  0  0
  146.2712   71.6124  219.7152 H   0  0  0  0  0  0  0  0  0  0  0  0
  144.0559   70.5672  219.1027 H   0  0  0  0  0  0  0  0  0  0  0  0
  144.2573   70.8995  220.8646 H   0  0  0  0  0  0  0  0  0  0  0  0
  142.7131   72.6217  218.8539 H   0  0  0  0  0  0  0  0  0  0  0  0
  142.0076   71.5685  220.1352 H   0  0  0  0  0  0  0  0  0  0  0  0
  1  2  2  0
  2  3  2  0
  2  4  1  0
  4  5  1  0
  5  6  2  0
  6  7  1  0
  7  8  2  0
  8  9  1  0
  9 10  1  0
 10 11  1  0
 10 12  1  0
  8 13  1  0
 13 14  2  0
 14 15  1  0
 15 16  1  0
 16 17  2  0
 17 18  1  0
 18 19  2  0
 19 20  1  0
 20 21  2  0
  2 22  1  0
 22 23  1  0
 23 24  1  0
 24 25  1  0
 25 26  1  0
 26 27  1  0
 14  5  1  0
 21 16  1  0
 27 22  1  0
  4 28  1  0
  6 29  1  0
  7 30  1  0
 10 31  1  0
 13 32  1  0
 17 33  1  0
 18 34  1  0
 19 35  1  0
 20 36  1  0
 21 37  1  0
 23 38  1  0
 23 39  1  0
 24 40  1  0
 24 41  1  0
 25 42  1  0
 25 43  1  0
 26 44  1  0
 26 45  1  0
 27 46  1  0
 27 47  1  0
M  END
>  <UniqueID>  (18) 
28

>  <SMILES>  (18) 
O=S(=O)(Nc1ccc(SC(F)F)cc1Sc1ccccc1)N1CCCCC1

>  <Energy>  (18) 
36.49725200004563

>  <Genealogy>  (18) 
O=S(=O)(Nc1ccc(SC(F)F)cc1Sc1ccccc1)N1CCCCC1 (3D coordinates assigned)
O=S(=O)(Nc1ccc(SC(F)F)cc1Sc1ccccc1)N1CCCCC1 (nonaromatic ring conformer: 36.49725200004563 kcal/mol)

>  <smiles>  (18) 
O=S(=O)(Nc1ccc(SC(F)F)cc1Sc1ccccc1)N1CCCCC1

>  <score_type>  (18) 
oracle

>  <origin>  (18) 
autodockgpu

>  <m_score__min__energy>  (18) 
-7.2800000000000002

>  <m_primary>  (18) 
energy

>  <meeko>  (18) 
{"free_energy": -7.01, "intermolecular_energy": -9.1, "internal_energy": -1.57, "cluster_size": 7, "cluster_id": 3, "rank_in_cluster": 2}

>  <energy>  (18) 
-6.5

>  <cluster_rmsd>  (18) 
0.9

>  <rmsd>  (18) 
271.48

>  <cluster>  (18) 
3

$$$$
OEPCAOMNAWYQBL-UHFFFAOYNA-N
     RDKit          3D

 47 49  0  0  0  0  0  0  0  0999 V2000
  141.4570   71.6870  222.1490 O   0  0  0  0  0  0  0  0  0  0  0  0
  140.0310   72.0600  222.4490 S   0  0  0  0  0  0  0  0  0  0  0  0
  139.1540   71.4020  221.4220 O   0  0  0  0  0  0  0  0  0  0  0  0
  139.8170   73.7840  222.3420 N   0  0  0  0  0  0  0  0  0  0  0  0
  140.5460   74.6260  221.4310 C   0  0  0  0  0  0  0  0  0  0  0  0
  141.4650   74.0720  220.5210 C   0  0  0  0  0  0  0  0  0  0  0  0
  142.1970   74.8910  219.6590 C   0  0  0  0  0  0  0  0  0  0  0  0
  142.0340   76.2770  219.7020 C   0  0  0  0  0  0  0  0  0  0  0  0
  142.9730   77.3280  218.5910 S   0  0  0  0  0  0  0  0  0  0  0  0
  142.0190   78.8300  218.9840 C   0  0  0  0  0  0  0  0  0  0  0  0
  142.6990   79.9490  218.5410 F   0  0  0  0  0  0  0  0  0  0  0  0
  140.7930   78.7650  218.3510 F   0  0  0  0  0  0  0  0  0  0  0  0
  141.1320   76.8430  220.6060 C   0  0  0  0  0  0  0  0  0  0  0  0
  140.3870   76.0300  221.4700 C   0  0  0  0  0  0  0  0  0  0  0  0
  139.2230   76.8210  222.5900 S   0  0  0  0  0  0  0  0  0  0  0  0
  140.2300   78.2970  222.7500 C   0  0  0  0  0  0  0  0  0  0  0  0
  139.8000   79.5050  222.1860 C   0  0  0  0  0  0  0  0  0  0  0  0
  140.5820   80.6580  222.3200 C   0  0  0  0  0  0  0  0  0  0  0  0
  141.7960   80.6030  223.0120 C   0  0  0  0  0  0  0  0  0  0  0  0
  142.2310   79.3950  223.5670 C   0  0  0  0  0  0  0  0  0  0  0  0
  141.4510   78.2430  223.4340 C   0  0  0  0  0  0  0  0  0  0  0  0
  139.5900   71.4820  224.0370 N   0  0  0  0  0  0  0  0  0  0  0  0
  140.7680   71.5380  224.9210 C   0  0  0  0  0  0  0  0  0  0  0  0
  140.3880   71.0980  226.3390 C   0  0  0  0  0  0  0  0  0  0  0  0
  139.7930   69.6870  226.3190 C   0  0  0  0  0  0  0  0  0  0  0  0
  138.6360   69.6030  225.3200 C   0  0  0  0  0  0  0  0  0  0  0  0
  139.0790   70.1030  223.9410 C   0  0  0  0  0  0  0  0  0  0  0  0
  139.0000   74.1770  222.8580 H   0  0  0  0  0  0  0  0  0  0  0  0
  141.6084   72.9819  220.4883 H   0  0  0  0  0  0  0  0  0  0  0  0
  142.9036   74.4433  218.9446 H   0  0  0  0  0  0  0  0  0  0  0  0
  141.8789   78.8977  220.0729 H   0  0  0  0  0  0  0  0  0  0  0  0
  141.0057   77.9352  220.6397 H   0  0  0  0  0  0  0  0  0  0  0  0
  138.8474   79.5474  221.6376 H   0  0  0  0  0  0  0  0  0  0  0  0
  140.2417   81.6075  221.8810 H   0  0  0  0  0  0  0  0  0  0  0  0
  142.4090   81.5100  223.1199 H   0  0  0  0  0  0  0  0  0  0  0  0
  143.1875   79.3517  224.1084 H   0  0  0  0  0  0  0  0  0  0  0  0
  141.7965   77.2927  223.8671 H   0  0  0  0  0  0  0  0  0  0  0  0
  141.5479   70.8683  224.5297 H   0  0  0  0  0  0  0  0  0  0  0  0
  141.1423   72.5718  224.9545 H   0  0  0  0  0  0  0  0  0  0  0  0
  141.2868   71.1033  226.9732 H   0  0  0  0  0  0  0  0  0  0  0  0
  139.6381   71.7957  226.7400 H   0  0  0  0  0  0  0  0  0  0  0  0
  140.5744   68.9695  226.0281 H   0  0  0  0  0  0  0  0  0  0  0  0
  139.4119   69.4491  227.3231 H   0  0  0  0  0  0  0  0  0  0  0  0
  138.3052   68.5572  225.2366 H   0  0  0  0  0  0  0  0  0  0  0  0
  137.8102   70.2350  225.6787 H   0  0  0  0  0  0  0  0  0  0  0  0
  139.8737   69.4475  223.5554 H   0  0  0  0  0  0  0  0  0  0  0  0
  138.2150   70.0881  223.2604 H   0  0  0  0  0  0  0  0  0  0  0  0
  1  2  2  0
  2  3  2  0
  2  4  1  0
  4  5  1  0
  5  6  2  0
  6  7  1  0
  7  8  2  0
  8  9  1  0
  9 10  1  0
 10 11  1  0
 10 12  1  0
  8 13  1  0
 13 14  2  0
 14 15  1  0
 15 16  1  0
 16 17  2  0
 17 18  1  0
 18 19  2  0
 19 20  1  0
 20 21  2  0
  2 22  1  0
 22 23  1  0
 23 24  1  0
 24 25  1  0
 25 26  1  0
 26 27  1  0
 14  5  1  0
 21 16  1  0
 27 22  1  0
  4 28  1  0
  6 29  1  0
  7 30  1  0
 10 31  1  0
 13 32  1  0
 17 33  1  0
 18 34  1  0
 19 35  1  0
 20 36  1  0
 21 37  1  0
 23 38  1  0
 23 39  1  0
 24 40  1  0
 24 41  1  0
 25 42  1  0
 25 43  1  0
 26 44  1  0
 26 45  1  0
 27 46  1  0
 27 47  1  0
M  END
>  <UniqueID>  (19) 
28

>  <SMILES>  (19) 
O=S(=O)(Nc1ccc(SC(F)F)cc1Sc1ccccc1)N1CCCCC1

>  <Energy>  (19) 
36.49725200004563

>  <Genealogy>  (19) 
O=S(=O)(Nc1ccc(SC(F)F)cc1Sc1ccccc1)N1CCCCC1 (3D coordinates assigned)
O=S(=O)(Nc1ccc(SC(F)F)cc1Sc1ccccc1)N1CCCCC1 (nonaromatic ring conformer: 36.49725200004563 kcal/mol)

>  <smiles>  (19) 
O=S(=O)(Nc1ccc(SC(F)F)cc1Sc1ccccc1)N1CCCCC1

>  <score_type>  (19) 
oracle

>  <origin>  (19) 
autodockgpu

>  <m_score__min__energy>  (19) 
-7.2800000000000002

>  <m_primary>  (19) 
energy

>  <meeko>  (19) 
{"free_energy": -6.84, "intermolecular_energy": -8.92, "internal_energy": -1.41, "cluster_size": 1, "cluster_id": 4, "rank_in_cluster": 1}

>  <energy>  (19) 
-6.84

>  <cluster_rmsd>  (19) 
0.0

>  <rmsd>  (19) 
271.78

>  <cluster>  (19) 
4

$$$$
OEPCAOMNAWYQBL-UHFFFAOYNA-N
     RDKit          3D

 47 49  0  0  0  0  0  0  0  0999 V2000
  140.6000   74.1060  219.5910 O   0  0  0  0  0  0  0  0  0  0  0  0
  141.5700   74.3390  220.7160 S   0  0  0  0  0  0  0  0  0  0  0  0
  140.8990   73.9340  221.9980 O   0  0  0  0  0  0  0  0  0  0  0  0
  141.9910   76.0250  220.8170 N   0  0  0  0  0  0  0  0  0  0  0  0
  141.9700   76.9240  219.6940 C   0  0  0  0  0  0  0  0  0  0  0  0
  142.9360   76.8230  218.6760 C   0  0  0  0  0  0  0  0  0  0  0  0
  142.9360   77.7160  217.6020 C   0  0  0  0  0  0  0  0  0  0  0  0
  141.9810   78.7320  217.5350 C   0  0  0  0  0  0  0  0  0  0  0  0
  141.9810   79.8760  216.1520 S   0  0  0  0  0  0  0  0  0  0  0  0
  142.5170   81.3010  217.1530 C   0  0  0  0  0  0  0  0  0  0  0  0
  141.4130   81.9880  217.6230 F   0  0  0  0  0  0  0  0  0  0  0  0
  143.2570   80.8460  218.2270 F   0  0  0  0  0  0  0  0  0  0  0  0
  141.0200   78.8510  218.5420 C   0  0  0  0  0  0  0  0  0  0  0  0
  141.0070   77.9560  219.6200 C   0  0  0  0  0  0  0  0  0  0  0  0
  139.7250   78.1470  220.8690 S   0  0  0  0  0  0  0  0  0  0  0  0
  140.8360   78.9530  222.0230 C   0  0  0  0  0  0  0  0  0  0  0  0
  140.9450   78.4820  223.3380 C   0  0  0  0  0  0  0  0  0  0  0  0
  141.8200   79.1050  224.2350 C   0  0  0  0  0  0  0  0  0  0  0  0
  142.5820   80.2020  223.8210 C   0  0  0  0  0  0  0  0  0  0  0  0
  142.4660   80.6800  222.5110 C   0  0  0  0  0  0  0  0  0  0  0  0
  141.5930   80.0580  221.6140 C   0  0  0  0  0  0  0  0  0  0  0  0
  142.9970   73.3610  220.4810 N   0  0  0  0  0  0  0  0  0  0  0  0
  144.1910   74.1420  220.8500 C   0  0  0  0  0  0  0  0  0  0  0  0
  145.4510   73.2810  220.7150 C   0  0  0  0  0  0  0  0  0  0  0  0
  145.5780   72.7400  219.2880 C   0  0  0  0  0  0  0  0  0  0  0  0
  144.2950   72.0200  218.8670 C   0  0  0  0  0  0  0  0  0  0  0  0
  143.0760   72.9260  219.0750 C   0  0  0  0  0  0  0  0  0  0  0  0
  142.1020   76.4130  221.7800 H   0  0  0  0  0  0  0  0  0  0  0  0
  143.6992   76.0325  218.7265 H   0  0  0  0  0  0  0  0  0  0  0  0
  143.6902   77.6185  216.8072 H   0  0  0  0  0  0  0  0  0  0  0  0
  143.1264   81.9735  216.5314 H   0  0  0  0  0  0  0  0  0  0  0  0
  140.2686   79.6526  218.4883 H   0  0  0  0  0  0  0  0  0  0  0  0
  140.3424   77.6220  223.6656 H   0  0  0  0  0  0  0  0  0  0  0  0
  141.9084   78.7317  225.2659 H   0  0  0  0  0  0  0  0  0  0  0  0
  143.2726   80.6892  224.5251 H   0  0  0  0  0  0  0  0  0  0  0  0
  143.0622   81.5458  222.1870 H   0  0  0  0  0  0  0  0  0  0  0  0
  141.5004   80.4369  220.5855 H   0  0  0  0  0  0  0  0  0  0  0  0
  144.2742   75.0141  220.1848 H   0  0  0  0  0  0  0  0  0  0  0  0
  144.0937   74.4732  221.8944 H   0  0  0  0  0  0  0  0  0  0  0  0
  146.3346   73.8923  220.9508 H   0  0  0  0  0  0  0  0  0  0  0  0
  145.3803   72.4335  221.4127 H   0  0  0  0  0  0  0  0  0  0  0  0
  145.7648   73.5773  218.5995 H   0  0  0  0  0  0  0  0  0  0  0  0
  146.4129   72.0246  219.2537 H   0  0  0  0  0  0  0  0  0  0  0  0
  144.3656   71.7471  217.8037 H   0  0  0  0  0  0  0  0  0  0  0  0
  144.1757   71.1171  219.4839 H   0  0  0  0  0  0  0  0  0  0  0  0
  143.1655   73.8097  218.4261 H   0  0  0  0  0  0  0  0  0  0  0  0
  142.1648   72.3641  218.8222 H   0  0  0  0  0  0  0  0  0  0  0  0
  1  2  2  0
  2  3  2  0
  2  4  1  0
  4  5  1  0
  5  6  2  0
  6  7  1  0
  7  8  2  0
  8  9  1  0
  9 10  1  0
 10 11  1  0
 10 12  1  0
  8 13  1  0
 13 14  2  0
 14 15  1  0
 15 16  1  0
 16 17  2  0
 17 18  1  0
 18 19  2  0
 19 20  1  0
 20 21  2  0
  2 22  1  0
 22 23  1  0
 23 24  1  0
 24 25  1  0
 25 26  1  0
 26 27  1  0
 14  5  1  0
 21 16  1  0
 27 22  1  0
  4 28  1  0
  6 29  1  0
  7 30  1  0
 10 31  1  0
 13 32  1  0
 17 33  1  0
 18 34  1  0
 19 35  1  0
 20 36  1  0
 21 37  1  0
 23 38  1  0
 23 39  1  0
 24 40  1  0
 24 41  1  0
 25 42  1  0
 25 43  1  0
 26 44  1  0
 26 45  1  0
 27 46  1  0
 27 47  1  0
M  END
>  <UniqueID>  (20) 
28

>  <SMILES>  (20) 
O=S(=O)(Nc1ccc(SC(F)F)cc1Sc1ccccc1)N1CCCCC1

>  <Energy>  (20) 
36.49725200004563

>  <Genealogy>  (20) 
O=S(=O)(Nc1ccc(SC(F)F)cc1Sc1ccccc1)N1CCCCC1 (3D coordinates assigned)
O=S(=O)(Nc1ccc(SC(F)F)cc1Sc1ccccc1)N1CCCCC1 (nonaromatic ring conformer: 36.49725200004563 kcal/mol)

>  <smiles>  (20) 
O=S(=O)(Nc1ccc(SC(F)F)cc1Sc1ccccc1)N1CCCCC1

>  <score_type>  (20) 
oracle

>  <origin>  (20) 
autodockgpu

>  <m_score__min__energy>  (20) 
-7.2800000000000002

>  <m_primary>  (20) 
energy

>  <meeko>  (20) 
{"free_energy": -6.5, "intermolecular_energy": -8.59, "internal_energy": -1.77, "cluster_size": 7, "cluster_id": 3, "rank_in_cluster": 7}

>  <energy>  (20) 
-6.0

>  <cluster_rmsd>  (20) 
0.0

>  <rmsd>  (20) 
272.03

>  <cluster>  (20) 
5

$$$$
RCYZJXIDXHYHGN-UHFFFAOYNA-N
     RDKit          3D

 46 48  0  0  0  0  0  0  0  0999 V2000
  133.9730   67.6050  226.5040 O   0  0  0  0  0  0  0  0  0  0  0  0
  134.2520   68.5680  225.3820 S   0  0  0  0  0  0  0  0  0  0  0  0
  133.8110   67.9680  224.0750 O   0  0  0  0  0  0  0  0  0  0  0  0
  135.9530   68.9020  225.3150 N   0  0  0  0  0  0  0  0  0  0  0  0
  136.5960   69.7670  224.3670 C   0  0  0  0  0  0  0  0  0  0  0  0
  135.8730   70.7280  223.6370 C   0  0  0  0  0  0  0  0  0  0  0  0
  136.5300   71.5730  222.7370 C   0  0  0  0  0  0  0  0  0  0  0  0
  137.9120   71.4710  222.5580 C   0  0  0  0  0  0  0  0  0  0  0  0
  138.7450   72.5420  221.3830 S   0  0  0  0  0  0  0  0  0  0  0  0
  140.2890   72.6630  222.3480 C   0  0  0  0  0  0  0  0  0  0  0  0
  141.0830   71.5560  222.1180 F   0  0  0  0  0  0  0  0  0  0  0  0
  140.9780   73.8150  222.0100 F   0  0  0  0  0  0  0  0  0  0  0  0
  138.6370   70.5100  223.2690 C   0  0  0  0  0  0  0  0  0  0  0  0
  137.9860   69.6560  224.1690 C   0  0  0  0  0  0  0  0  0  0  0  0
  138.9460   68.4130  225.0430 S   0  0  0  0  0  0  0  0  0  0  0  0
  139.7040   69.6250  226.1250 C   0  0  0  0  0  0  0  0  0  0  0  0
  140.6170   70.5530  225.6060 C   0  0  0  0  0  0  0  0  0  0  0  0
  141.2040   71.5030  226.4500 C   0  0  0  0  0  0  0  0  0  0  0  0
  140.8990   71.5130  227.8140 C   0  0  0  0  0  0  0  0  0  0  0  0
  139.9970   70.5800  228.3350 C   0  0  0  0  0  0  0  0  0  0  0  0
  139.3930   69.6440  227.4910 C   0  0  0  0  0  0  0  0  0  0  0  0
  133.3810   70.0590  225.6440 N   0  0  0  0  0  0  0  0  0  0  0  0
  134.0450   70.8420  226.7090 C   0  0  0  0  0  0  0  0  0  0  0  0
  133.1740   72.0230  227.2050 C   0  0  0  0  0  0  0  0  0  0  0  0
  132.0260   72.3140  226.2330 C   0  0  0  0  0  0  0  0  0  0  0  0
  131.1510   71.0640  226.0280 C   0  0  0  0  0  0  0  0  0  0  0  0
  131.9860   69.7630  226.0050 C   0  0  0  0  0  0  0  0  0  0  0  0
  134.7852   70.8152  223.7748 H   0  0  0  0  0  0  0  0  0  0  0  0
  135.9571   72.3202  222.1683 H   0  0  0  0  0  0  0  0  0  0  0  0
  140.0316   72.7032  223.4167 H   0  0  0  0  0  0  0  0  0  0  0  0
  139.7236   70.4240  223.1211 H   0  0  0  0  0  0  0  0  0  0  0  0
  140.8722   70.5348  224.5362 H   0  0  0  0  0  0  0  0  0  0  0  0
  141.9065   72.2430  226.0391 H   0  0  0  0  0  0  0  0  0  0  0  0
  141.3683   72.2544  228.4773 H   0  0  0  0  0  0  0  0  0  0  0  0
  139.7627   70.5828  229.4098 H   0  0  0  0  0  0  0  0  0  0  0  0
  138.6721   68.9208  227.9000 H   0  0  0  0  0  0  0  0  0  0  0  0
  134.2538   70.1758  227.5591 H   0  0  0  0  0  0  0  0  0  0  0  0
  134.9707   71.2618  226.2886 H   0  0  0  0  0  0  0  0  0  0  0  0
  132.7544   71.7700  228.1898 H   0  0  0  0  0  0  0  0  0  0  0  0
  133.8087   72.9190  227.2712 H   0  0  0  0  0  0  0  0  0  0  0  0
  131.4053   73.1254  226.6410 H   0  0  0  0  0  0  0  0  0  0  0  0
  132.4525   72.6080  225.2626 H   0  0  0  0  0  0  0  0  0  0  0  0
  130.4227   71.0029  226.8501 H   0  0  0  0  0  0  0  0  0  0  0  0
  130.6488   71.1598  225.0540 H   0  0  0  0  0  0  0  0  0  0  0  0
  131.9598   69.2972  227.0012 H   0  0  0  0  0  0  0  0  0  0  0  0
  131.5603   69.0774  225.2575 H   0  0  0  0  0  0  0  0  0  0  0  0
  1  2  2  0
  2  3  2  0
  2  4  1  0
  4  5  1  0
  5  6  2  0
  6  7  1  0
  7  8  2  0
  8  9  1  0
  9 10  1  0
 10 11  1  0
 10 12  1  0
  8 13  1  0
 13 14  2  0
 14 15  1  0
 15 16  1  0
 16 17  2  0
 17 18  1  0
 18 19  2  0
 19 20  1  0
 20 21  2  0
  2 22  1  0
 22 23  1  0
 23 24  1  0
 24 25  1  0
 25 26  1  0
 26 27  1  0
 14  5  1  0
 21 16  1  0
 27 22  1  0
  6 28  1  0
  7 29  1  0
 10 30  1  0
 13 31  1  0
 17 32  1  0
 18 33  1  0
 19 34  1  0
 20 35  1  0
 21 36  1  0
 23 37  1  0
 23 38  1  0
 24 39  1  0
 24 40  1  0
 25 41  1  0
 25 42  1  0
 26 43  1  0
 26 44  1  0
 27 45  1  0
 27 46  1  0
M  CHG  1   4  -1
M  END
>  <UniqueID>  (21) 
29

>  <SMILES>  (21) 
O=S(=O)([N-]c1ccc(SC(F)F)cc1Sc1ccccc1)N1CCCCC1

>  <Energy>  (21) 
41.498957132325835

>  <Genealogy>  (21) 
O=S(=O)([N-]c1ccc(SC(F)F)cc1Sc1ccccc1)N1CCCCC1 (protonated)
O=S(=O)([N-]c1ccc(SC(F)F)cc1Sc1ccccc1)N1CCCCC1 (3D coordinates assigned)
O=S(=O)([N-]c1ccc(SC(F)F)cc1Sc1ccccc1)N1CCCCC1 (nonaromatic ring conformer: 41.498957132325835 kcal/mol)

>  <smiles>  (21) 
O=S(=O)(Nc1ccc(SC(F)F)cc1Sc1ccccc1)N1CCCCC1

>  <score_type>  (21) 
oracle

>  <origin>  (21) 
autodockgpu

>  <m_score__min__energy>  (21) 
-6.96

>  <m_primary>  (21) 
energy

>  <meeko>  (21) 
{"free_energy": -6.8, "intermolecular_energy": -8.89, "internal_energy": -1.47, "cluster_size": 7, "cluster_id": 3, "rank_in_cluster": 3}

>  <energy>  (21) 
-6.96

>  <cluster_rmsd>  (21) 
0.0

>  <rmsd>  (21) 
272.47

>  <cluster>  (21) 
1

$$$$
RCYZJXIDXHYHGN-UHFFFAOYNA-N
     RDKit          3D

 46 48  0  0  0  0  0  0  0  0999 V2000
  139.0430   71.8340  220.9980 O   0  0  0  0  0  0  0  0  0  0  0  0
  140.0240   72.2810  222.0480 S   0  0  0  0  0  0  0  0  0  0  0  0
  141.4190   71.8910  221.6410 O   0  0  0  0  0  0  0  0  0  0  0  0
  139.6350   71.5260  223.5610 N   0  0  0  0  0  0  0  0  0  0  0  0
  138.3750   70.9210  223.8900 C   0  0  0  0  0  0  0  0  0  0  0  0
  137.1530   71.5450  223.5780 C   0  0  0  0  0  0  0  0  0  0  0  0
  135.9420   70.9210  223.8900 C   0  0  0  0  0  0  0  0  0  0  0  0
  135.9350   69.6690  224.5110 C   0  0  0  0  0  0  0  0  0  0  0  0
  134.3760   68.8840  224.9310 S   0  0  0  0  0  0  0  0  0  0  0  0
  134.0880   68.2040  223.2630 C   0  0  0  0  0  0  0  0  0  0  0  0
  133.5570   69.1760  222.4370 F   0  0  0  0  0  0  0  0  0  0  0  0
  135.2720   67.7260  222.7280 F   0  0  0  0  0  0  0  0  0  0  0  0
  137.1440   69.0470  224.8360 C   0  0  0  0  0  0  0  0  0  0  0  0
  138.3620   69.6680  224.5320 C   0  0  0  0  0  0  0  0  0  0  0  0
  139.8960   68.8510  224.9920 S   0  0  0  0  0  0  0  0  0  0  0  0
  140.2450   70.0360  226.2920 C   0  0  0  0  0  0  0  0  0  0  0  0
  139.6040   69.9230  227.5330 C   0  0  0  0  0  0  0  0  0  0  0  0
  139.8810   70.8440  228.5500 C   0  0  0  0  0  0  0  0  0  0  0  0
  140.7780   71.8910  228.3210 C   0  0  0  0  0  0  0  0  0  0  0  0
  141.4090   72.0130  227.0790 C   0  0  0  0  0  0  0  0  0  0  0  0
  141.1510   71.0820  226.0690 C   0  0  0  0  0  0  0  0  0  0  0  0
  139.9520   74.0160  222.2330 N   0  0  0  0  0  0  0  0  0  0  0  0
  138.5760   74.4880  221.9650 C   0  0  0  0  0  0  0  0  0  0  0  0
  138.4980   76.0270  221.8140 C   0  0  0  0  0  0  0  0  0  0  0  0
  139.7670   76.7040  222.3430 C   0  0  0  0  0  0  0  0  0  0  0  0
  141.0160   76.1660  221.6200 C   0  0  0  0  0  0  0  0  0  0  0  0
  140.9110   74.6540  221.3180 C   0  0  0  0  0  0  0  0  0  0  0  0
  137.1509   72.5289  223.0861 H   0  0  0  0  0  0  0  0  0  0  0  0
  134.9910   71.4170  223.6459 H   0  0  0  0  0  0  0  0  0  0  0  0
  133.3725   67.3723  223.3425 H   0  0  0  0  0  0  0  0  0  0  0  0
  137.1387   68.0655  225.3327 H   0  0  0  0  0  0  0  0  0  0  0  0
  138.8833   69.1106  227.7079 H   0  0  0  0  0  0  0  0  0  0  0  0
  139.3922   70.7436  229.5303 H   0  0  0  0  0  0  0  0  0  0  0  0
  140.9878   72.6194  229.1181 H   0  0  0  0  0  0  0  0  0  0  0  0
  142.1087   72.8420  226.8969 H   0  0  0  0  0  0  0  0  0  0  0  0
  141.6597   71.1703  225.0977 H   0  0  0  0  0  0  0  0  0  0  0  0
  138.2183   74.0233  221.0344 H   0  0  0  0  0  0  0  0  0  0  0  0
  137.9509   74.2035  222.8242 H   0  0  0  0  0  0  0  0  0  0  0  0
  138.3758   76.2768  220.7497 H   0  0  0  0  0  0  0  0  0  0  0  0
  137.6409   76.3901  222.4002 H   0  0  0  0  0  0  0  0  0  0  0  0
  139.6932   77.7888  222.1765 H   0  0  0  0  0  0  0  0  0  0  0  0
  139.8607   76.4870  223.4173 H   0  0  0  0  0  0  0  0  0  0  0  0
  141.1372   76.7090  220.6711 H   0  0  0  0  0  0  0  0  0  0  0  0
  141.8809   76.3184  222.2823 H   0  0  0  0  0  0  0  0  0  0  0  0
  140.5716   74.5138  220.2811 H   0  0  0  0  0  0  0  0  0  0  0  0
  141.8996   74.1919  221.4567 H   0  0  0  0  0  0  0  0  0  0  0  0
  1  2  2  0
  2  3  2  0
  2  4  1  0
  4  5  1  0
  5  6  2  0
  6  7  1  0
  7  8  2  0
  8  9  1  0
  9 10  1  0
 10 11  1  0
 10 12  1  0
  8 13  1  0
 13 14  2  0
 14 15  1  0
 15 16  1  0
 16 17  2  0
 17 18  1  0
 18 19  2  0
 19 20  1  0
 20 21  2  0
  2 22  1  0
 22 23  1  0
 23 24  1  0
 24 25  1  0
 25 26  1  0
 26 27  1  0
 14  5  1  0
 21 16  1  0
 27 22  1  0
  6 28  1  0
  7 29  1  0
 10 30  1  0
 13 31  1  0
 17 32  1  0
 18 33  1  0
 19 34  1  0
 20 35  1  0
 21 36  1  0
 23 37  1  0
 23 38  1  0
 24 39  1  0
 24 40  1  0
 25 41  1  0
 25 42  1  0
 26 43  1  0
 26 44  1  0
 27 45  1  0
 27 46  1  0
M  CHG  1   4  -1
M  END
>  <UniqueID>  (22) 
29

>  <SMILES>  (22) 
O=S(=O)([N-]c1ccc(SC(F)F)cc1Sc1ccccc1)N1CCCCC1

>  <Energy>  (22) 
41.498957132325835

>  <Genealogy>  (22) 
O=S(=O)([N-]c1ccc(SC(F)F)cc1Sc1ccccc1)N1CCCCC1 (protonated)
O=S(=O)([N-]c1ccc(SC(F)F)cc1Sc1ccccc1)N1CCCCC1 (3D coordinates assigned)
O=S(=O)([N-]c1ccc(SC(F)F)cc1Sc1ccccc1)N1CCCCC1 (nonaromatic ring conformer: 41.498957132325835 kcal/mol)

>  <smiles>  (22) 
O=S(=O)(Nc1ccc(SC(F)F)cc1Sc1ccccc1)N1CCCCC1

>  <score_type>  (22) 
oracle

>  <origin>  (22) 
autodockgpu

>  <m_score__min__energy>  (22) 
-6.96

>  <m_primary>  (22) 
energy

>  <meeko>  (22) 
{"free_energy": -6.51, "intermolecular_energy": -8.6, "internal_energy": -1.48, "cluster_size": 3, "cluster_id": 2, "rank_in_cluster": 3}

>  <energy>  (22) 
-6.6

>  <cluster_rmsd>  (22) 
0.38

>  <rmsd>  (22) 
272.34

>  <cluster>  (22) 
1

$$$$
RCYZJXIDXHYHGN-UHFFFAOYNA-N
     RDKit          3D

 46 48  0  0  0  0  0  0  0  0999 V2000
  134.3380   67.1740  226.1180 O   0  0  0  0  0  0  0  0  0  0  0  0
  134.4760   68.4380  225.3130 S   0  0  0  0  0  0  0  0  0  0  0  0
  134.0340   68.1890  223.8960 O   0  0  0  0  0  0  0  0  0  0  0  0
  136.1350   68.9450  225.3160 N   0  0  0  0  0  0  0  0  0  0  0  0
  136.7070   69.9260  224.4380 C   0  0  0  0  0  0  0  0  0  0  0  0
  135.9090   70.8700  223.7650 C   0  0  0  0  0  0  0  0  0  0  0  0
  136.4960   71.8290  222.9350 C   0  0  0  0  0  0  0  0  0  0  0  0
  137.8830   71.8600  222.7680 C   0  0  0  0  0  0  0  0  0  0  0  0
  138.6290   73.0780  221.6810 S   0  0  0  0  0  0  0  0  0  0  0  0
  140.2840   72.3110  221.6970 C   0  0  0  0  0  0  0  0  0  0  0  0
  141.0020   72.7020  220.5830 F   0  0  0  0  0  0  0  0  0  0  0  0
  140.9680   72.6660  222.8460 F   0  0  0  0  0  0  0  0  0  0  0  0
  138.6840   70.9180  223.4220 C   0  0  0  0  0  0  0  0  0  0  0  0
  138.1030   69.9510  224.2520 C   0  0  0  0  0  0  0  0  0  0  0  0
  139.1620   68.7380  225.0520 S   0  0  0  0  0  0  0  0  0  0  0  0
  139.8990   69.9600  226.1370 C   0  0  0  0  0  0  0  0  0  0  0  0
  139.5490   69.9950  227.4930 C   0  0  0  0  0  0  0  0  0  0  0  0
  140.1290   70.9450  228.3410 C   0  0  0  0  0  0  0  0  0  0  0  0
  141.0400   71.8760  227.8320 C   0  0  0  0  0  0  0  0  0  0  0  0
  141.3810   71.8500  226.4760 C   0  0  0  0  0  0  0  0  0  0  0  0
  140.8190   70.8890  225.6310 C   0  0  0  0  0  0  0  0  0  0  0  0
  133.4860   69.6980  226.0040 N   0  0  0  0  0  0  0  0  0  0  0  0
  132.7320   70.3840  224.9310 C   0  0  0  0  0  0  0  0  0  0  0  0
  132.0690   71.6950  225.4180 C   0  0  0  0  0  0  0  0  0  0  0  0
  132.0370   71.7670  226.9480 C   0  0  0  0  0  0  0  0  0  0  0  0
  133.4570   71.6470  227.5320 C   0  0  0  0  0  0  0  0  0  0  0  0
  134.3330   70.6510  226.7370 C   0  0  0  0  0  0  0  0  0  0  0  0
  134.8166   70.8529  223.8931 H   0  0  0  0  0  0  0  0  0  0  0  0
  135.8642   72.5617  222.4115 H   0  0  0  0  0  0  0  0  0  0  0  0
  140.1625   71.2179  221.6793 H   0  0  0  0  0  0  0  0  0  0  0  0
  139.7751   70.9368  223.2838 H   0  0  0  0  0  0  0  0  0  0  0  0
  138.8182   69.2757  227.8911 H   0  0  0  0  0  0  0  0  0  0  0  0
  139.8680   70.9595  229.4095 H   0  0  0  0  0  0  0  0  0  0  0  0
  141.4880   72.6283  228.4978 H   0  0  0  0  0  0  0  0  0  0  0  0
  142.0922   72.5866  226.0741 H   0  0  0  0  0  0  0  0  0  0  0  0
  141.0989   70.8615  224.5676 H   0  0  0  0  0  0  0  0  0  0  0  0
  133.4244   70.6225  224.1103 H   0  0  0  0  0  0  0  0  0  0  0  0
  131.9307   69.7070  224.6000 H   0  0  0  0  0  0  0  0  0  0  0  0
  132.6409   72.5512  225.0308 H   0  0  0  0  0  0  0  0  0  0  0  0
  131.0336   71.7192  225.0473 H   0  0  0  0  0  0  0  0  0  0  0  0
  131.6013   72.7294  227.2545 H   0  0  0  0  0  0  0  0  0  0  0  0
  131.4286   70.9326  227.3271 H   0  0  0  0  0  0  0  0  0  0  0  0
  133.9351   72.6374  227.5073 H   0  0  0  0  0  0  0  0  0  0  0  0
  133.3680   71.2712  228.5620 H   0  0  0  0  0  0  0  0  0  0  0  0
  134.9564   71.2072  226.0214 H   0  0  0  0  0  0  0  0  0  0  0  0
  134.9707   70.0953  227.4402 H   0  0  0  0  0  0  0  0  0  0  0  0
  1  2  2  0
  2  3  2  0
  2  4  1  0
  4  5  1  0
  5  6  2  0
  6  7  1  0
  7  8  2  0
  8  9  1  0
  9 10  1  0
 10 11  1  0
 10 12  1  0
  8 13  1  0
 13 14  2  0
 14 15  1  0
 15 16  1  0
 16 17  2  0
 17 18  1  0
 18 19  2  0
 19 20  1  0
 20 21  2  0
  2 22  1  0
 22 23  1  0
 23 24  1  0
 24 25  1  0
 25 26  1  0
 26 27  1  0
 14  5  1  0
 21 16  1  0
 27 22  1  0
  6 28  1  0
  7 29  1  0
 10 30  1  0
 13 31  1  0
 17 32  1  0
 18 33  1  0
 19 34  1  0
 20 35  1  0
 21 36  1  0
 23 37  1  0
 23 38  1  0
 24 39  1  0
 24 40  1  0
 25 41  1  0
 25 42  1  0
 26 43  1  0
 26 44  1  0
 27 45  1  0
 27 46  1  0
M  CHG  1   4  -1
M  END
>  <UniqueID>  (23) 
29

>  <SMILES>  (23) 
O=S(=O)([N-]c1ccc(SC(F)F)cc1Sc1ccccc1)N1CCCCC1

>  <Energy>  (23) 
41.498957132325835

>  <Genealogy>  (23) 
O=S(=O)([N-]c1ccc(SC(F)F)cc1Sc1ccccc1)N1CCCCC1 (protonated)
O=S(=O)([N-]c1ccc(SC(F)F)cc1Sc1ccccc1)N1CCCCC1 (3D coordinates assigned)
O=S(=O)([N-]c1ccc(SC(F)F)cc1Sc1ccccc1)N1CCCCC1 (nonaromatic ring conformer: 41.498957132325835 kcal/mol)

>  <smiles>  (23) 
O=S(=O)(Nc1ccc(SC(F)F)cc1Sc1ccccc1)N1CCCCC1

>  <score_type>  (23) 
oracle

>  <origin>  (23) 
autodockgpu

>  <m_score__min__energy>  (23) 
-6.96

>  <m_primary>  (23) 
energy

>  <meeko>  (23) 
{"free_energy": -6.76, "intermolecular_energy": -8.85, "internal_energy": -1.57, "cluster_size": 7, "cluster_id": 3, "rank_in_cluster": 4}

>  <energy>  (23) 
-6.1

>  <cluster_rmsd>  (23) 
1.91

>  <rmsd>  (23) 
271.88

>  <cluster>  (23) 
1

$$$$
RCYZJXIDXHYHGN-UHFFFAOYNA-N
     RDKit          3D

 46 48  0  0  0  0  0  0  0  0999 V2000
  139.2010   72.6360  220.4840 O   0  0  0  0  0  0  0  0  0  0  0  0
  139.3530   73.3390  221.8060 S   0  0  0  0  0  0  0  0  0  0  0  0
  138.2510   74.3490  221.9740 O   0  0  0  0  0  0  0  0  0  0  0  0
  140.8870   74.1480  221.8570 N   0  0  0  0  0  0  0  0  0  0  0  0
  141.0900   75.5580  221.6870 C   0  0  0  0  0  0  0  0  0  0  0  0
  140.8150   76.4740  222.7190 C   0  0  0  0  0  0  0  0  0  0  0  0
  141.0440   77.8400  222.5320 C   0  0  0  0  0  0  0  0  0  0  0  0
  141.5530   78.3070  221.3170 C   0  0  0  0  0  0  0  0  0  0  0  0
  141.8220   80.0660  221.0750 S   0  0  0  0  0  0  0  0  0  0  0  0
  142.2770   80.3970  222.8100 C   0  0  0  0  0  0  0  0  0  0  0  0
  143.6420   80.2720  222.9770 F   0  0  0  0  0  0  0  0  0  0  0  0
  141.8710   81.6670  223.1790 F   0  0  0  0  0  0  0  0  0  0  0  0
  141.8170   77.4080  220.2810 C   0  0  0  0  0  0  0  0  0  0  0  0
  141.5850   76.0370  220.4590 C   0  0  0  0  0  0  0  0  0  0  0  0
  141.9080   74.9140  219.0930 S   0  0  0  0  0  0  0  0  0  0  0  0
  143.3250   74.1800  219.9100 C   0  0  0  0  0  0  0  0  0  0  0  0
  144.4620   74.9550  220.1720 C   0  0  0  0  0  0  0  0  0  0  0  0
  145.5650   74.3840  220.8150 C   0  0  0  0  0  0  0  0  0  0  0  0
  145.5440   73.0340  221.1760 C   0  0  0  0  0  0  0  0  0  0  0  0
  144.4150   72.2550  220.9050 C   0  0  0  0  0  0  0  0  0  0  0  0
  143.3030   72.8280  220.2820 C   0  0  0  0  0  0  0  0  0  0  0  0
  139.2660   72.1820  223.1110 N   0  0  0  0  0  0  0  0  0  0  0  0
  140.6220   71.9350  223.6480 C   0  0  0  0  0  0  0  0  0  0  0  0
  140.6700   70.7110  224.5950 C   0  0  0  0  0  0  0  0  0  0  0  0
  139.2630   70.2920  225.0340 C   0  0  0  0  0  0  0  0  0  0  0  0
  138.3780   69.9790  223.8130 C   0  0  0  0  0  0  0  0  0  0  0  0
  138.6600   70.9320  222.6280 C   0  0  0  0  0  0  0  0  0  0  0  0
  140.4173   76.1128  223.6789 H   0  0  0  0  0  0  0  0  0  0  0  0
  140.8231   78.5494  223.3432 H   0  0  0  0  0  0  0  0  0  0  0  0
  141.7697   79.6615  223.4516 H   0  0  0  0  0  0  0  0  0  0  0  0
  142.2085   77.7773  219.3217 H   0  0  0  0  0  0  0  0  0  0  0  0
  144.4874   76.0130  219.8719 H   0  0  0  0  0  0  0  0  0  0  0  0
  146.4502   74.9982  221.0369 H   0  0  0  0  0  0  0  0  0  0  0  0
  146.4159   72.5842  221.6734 H   0  0  0  0  0  0  0  0  0  0  0  0
  144.4020   71.1906  221.1823 H   0  0  0  0  0  0  0  0  0  0  0  0
  142.4095   72.2179  220.0832 H   0  0  0  0  0  0  0  0  0  0  0  0
  141.3078   71.7573  222.8065 H   0  0  0  0  0  0  0  0  0  0  0  0
  140.9176   72.8202  224.2302 H   0  0  0  0  0  0  0  0  0  0  0  0
  141.1470   69.8702  224.0701 H   0  0  0  0  0  0  0  0  0  0  0  0
  141.2457   70.9871  225.4908 H   0  0  0  0  0  0  0  0  0  0  0  0
  139.3350   69.3948  225.6663 H   0  0  0  0  0  0  0  0  0  0  0  0
  138.8078   71.1214  225.5952 H   0  0  0  0  0  0  0  0  0  0  0  0
  138.5720   68.9454  223.4904 H   0  0  0  0  0  0  0  0  0  0  0  0
  137.3284   70.1142  224.1129 H   0  0  0  0  0  0  0  0  0  0  0  0
  139.3498   70.4424  221.9249 H   0  0  0  0  0  0  0  0  0  0  0  0
  137.7109   71.1661  222.1236 H   0  0  0  0  0  0  0  0  0  0  0  0
  1  2  2  0
  2  3  2  0
  2  4  1  0
  4  5  1  0
  5  6  2  0
  6  7  1  0
  7  8  2  0
  8  9  1  0
  9 10  1  0
 10 11  1  0
 10 12  1  0
  8 13  1  0
 13 14  2  0
 14 15  1  0
 15 16  1  0
 16 17  2  0
 17 18  1  0
 18 19  2  0
 19 20  1  0
 20 21  2  0
  2 22  1  0
 22 23  1  0
 23 24  1  0
 24 25  1  0
 25 26  1  0
 26 27  1  0
 14  5  1  0
 21 16  1  0
 27 22  1  0
  6 28  1  0
  7 29  1  0
 10 30  1  0
 13 31  1  0
 17 32  1  0
 18 33  1  0
 19 34  1  0
 20 35  1  0
 21 36  1  0
 23 37  1  0
 23 38  1  0
 24 39  1  0
 24 40  1  0
 25 41  1  0
 25 42  1  0
 26 43  1  0
 26 44  1  0
 27 45  1  0
 27 46  1  0
M  CHG  1   4  -1
M  END
>  <UniqueID>  (24) 
29

>  <SMILES>  (24) 
O=S(=O)([N-]c1ccc(SC(F)F)cc1Sc1ccccc1)N1CCCCC1

>  <Energy>  (24) 
41.498957132325835

>  <Genealogy>  (24) 
O=S(=O)([N-]c1ccc(SC(F)F)cc1Sc1ccccc1)N1CCCCC1 (protonated)
O=S(=O)([N-]c1ccc(SC(F)F)cc1Sc1ccccc1)N1CCCCC1 (3D coordinates assigned)
O=S(=O)([N-]c1ccc(SC(F)F)cc1Sc1ccccc1)N1CCCCC1 (nonaromatic ring conformer: 41.498957132325835 kcal/mol)

>  <smiles>  (24) 
O=S(=O)(Nc1ccc(SC(F)F)cc1Sc1ccccc1)N1CCCCC1

>  <score_type>  (24) 
oracle

>  <origin>  (24) 
autodockgpu

>  <m_score__min__energy>  (24) 
-6.96

>  <m_primary>  (24) 
energy

>  <meeko>  (24) 
{"free_energy": -6.1, "intermolecular_energy": -8.19, "internal_energy": -1.61, "cluster_size": 1, "cluster_id": 5, "rank_in_cluster": 1}

>  <energy>  (24) 
-6.86

>  <cluster_rmsd>  (24) 
0.0

>  <rmsd>  (24) 
272.34

>  <cluster>  (24) 
2

$$$$
RCYZJXIDXHYHGN-UHFFFAOYNA-N
     RDKit          3D

 46 48  0  0  0  0  0  0  0  0999 V2000
  140.3760   74.1690  222.0850 O   0  0  0  0  0  0  0  0  0  0  0  0
  140.6720   72.9820  221.2080 S   0  0  0  0  0  0  0  0  0  0  0  0
  139.6140   72.8590  220.1460 O   0  0  0  0  0  0  0  0  0  0  0  0
  140.6890   71.5410  222.1730 N   0  0  0  0  0  0  0  0  0  0  0  0
  139.5390   70.9300  222.7770 C   0  0  0  0  0  0  0  0  0  0  0  0
  138.4870   70.4070  222.0020 C   0  0  0  0  0  0  0  0  0  0  0  0
  137.3910   69.7980  222.6180 C   0  0  0  0  0  0  0  0  0  0  0  0
  137.3320   69.6990  224.0100 C   0  0  0  0  0  0  0  0  0  0  0  0
  135.9090   68.9370  224.7960 S   0  0  0  0  0  0  0  0  0  0  0  0
  134.9570   70.4860  224.9360 C   0  0  0  0  0  0  0  0  0  0  0  0
  134.5400   70.6740  226.2400 F   0  0  0  0  0  0  0  0  0  0  0  0
  135.7270   71.5620  224.5280 F   0  0  0  0  0  0  0  0  0  0  0  0
  138.3650   70.2270  224.7900 C   0  0  0  0  0  0  0  0  0  0  0  0
  139.4650   70.8440  224.1810 C   0  0  0  0  0  0  0  0  0  0  0  0
  140.7600   71.5380  225.2170 S   0  0  0  0  0  0  0  0  0  0  0  0
  140.6410   70.2110  226.4160 C   0  0  0  0  0  0  0  0  0  0  0  0
  141.1620   68.9460  226.1150 C   0  0  0  0  0  0  0  0  0  0  0  0
  141.0740   67.9110  227.0540 C   0  0  0  0  0  0  0  0  0  0  0  0
  140.4450   68.1320  228.2820 C   0  0  0  0  0  0  0  0  0  0  0  0
  139.9130   69.3910  228.5790 C   0  0  0  0  0  0  0  0  0  0  0  0
  140.0190   70.4310  227.6530 C   0  0  0  0  0  0  0  0  0  0  0  0
  142.2270   73.1810  220.4390 N   0  0  0  0  0  0  0  0  0  0  0  0
  143.1240   72.0730  220.8370 C   0  0  0  0  0  0  0  0  0  0  0  0
  144.5980   72.3340  220.4420 C   0  0  0  0  0  0  0  0  0  0  0  0
  144.7080   73.4740  219.4250 C   0  0  0  0  0  0  0  0  0  0  0  0
  144.0740   74.7650  219.9770 C   0  0  0  0  0  0  0  0  0  0  0  0
  142.8060   74.4800  220.8150 C   0  0  0  0  0  0  0  0  0  0  0  0
  138.5280   70.4782  220.9051 H   0  0  0  0  0  0  0  0  0  0  0  0
  136.5716   69.3950  222.0046 H   0  0  0  0  0  0  0  0  0  0  0  0
  134.0734   70.4135  224.2848 H   0  0  0  0  0  0  0  0  0  0  0  0
  138.3137   70.1576  225.8866 H   0  0  0  0  0  0  0  0  0  0  0  0
  141.6403   68.7657  225.1410 H   0  0  0  0  0  0  0  0  0  0  0  0
  141.5004   66.9232  226.8248 H   0  0  0  0  0  0  0  0  0  0  0  0
  140.3682   67.3157  229.0153 H   0  0  0  0  0  0  0  0  0  0  0  0
  139.4108   69.5621  229.5426 H   0  0  0  0  0  0  0  0  0  0  0  0
  139.6137   71.4246  227.8947 H   0  0  0  0  0  0  0  0  0  0  0  0
  143.0679   71.9481  221.9284 H   0  0  0  0  0  0  0  0  0  0  0  0
  142.7914   71.1670  220.3092 H   0  0  0  0  0  0  0  0  0  0  0  0
  145.1686   72.6018  221.3435 H   0  0  0  0  0  0  0  0  0  0  0  0
  145.0018   71.4193  219.9834 H   0  0  0  0  0  0  0  0  0  0  0  0
  145.7697   73.6595  219.2051 H   0  0  0  0  0  0  0  0  0  0  0  0
  144.1718   73.1821  218.5099 H   0  0  0  0  0  0  0  0  0  0  0  0
  144.8109   75.2781  220.6125 H   0  0  0  0  0  0  0  0  0  0  0  0
  143.7800   75.3901  219.1209 H   0  0  0  0  0  0  0  0  0  0  0  0
  143.0724   74.4633  221.8821 H   0  0  0  0  0  0  0  0  0  0  0  0
  142.0655   75.2707  220.6238 H   0  0  0  0  0  0  0  0  0  0  0  0
  1  2  2  0
  2  3  2  0
  2  4  1  0
  4  5  1  0
  5  6  2  0
  6  7  1  0
  7  8  2  0
  8  9  1  0
  9 10  1  0
 10 11  1  0
 10 12  1  0
  8 13  1  0
 13 14  2  0
 14 15  1  0
 15 16  1  0
 16 17  2  0
 17 18  1  0
 18 19  2  0
 19 20  1  0
 20 21  2  0
  2 22  1  0
 22 23  1  0
 23 24  1  0
 24 25  1  0
 25 26  1  0
 26 27  1  0
 14  5  1  0
 21 16  1  0
 27 22  1  0
  6 28  1  0
  7 29  1  0
 10 30  1  0
 13 31  1  0
 17 32  1  0
 18 33  1  0
 19 34  1  0
 20 35  1  0
 21 36  1  0
 23 37  1  0
 23 38  1  0
 24 39  1  0
 24 40  1  0
 25 41  1  0
 25 42  1  0
 26 43  1  0
 26 44  1  0
 27 45  1  0
 27 46  1  0
M  CHG  1   4  -1
M  END
>  <UniqueID>  (25) 
29

>  <SMILES>  (25) 
O=S(=O)([N-]c1ccc(SC(F)F)cc1Sc1ccccc1)N1CCCCC1

>  <Energy>  (25) 
41.498957132325835

>  <Genealogy>  (25) 
O=S(=O)([N-]c1ccc(SC(F)F)cc1Sc1ccccc1)N1CCCCC1 (protonated)
O=S(=O)([N-]c1ccc(SC(F)F)cc1Sc1ccccc1)N1CCCCC1 (3D coordinates assigned)
O=S(=O)([N-]c1ccc(SC(F)F)cc1Sc1ccccc1)N1CCCCC1 (nonaromatic ring conformer: 41.498957132325835 kcal/mol)

>  <smiles>  (25) 
O=S(=O)(Nc1ccc(SC(F)F)cc1Sc1ccccc1)N1CCCCC1

>  <score_type>  (25) 
oracle

>  <origin>  (25) 
autodockgpu

>  <m_score__min__energy>  (25) 
-6.96

>  <m_primary>  (25) 
energy

>  <meeko>  (25) 
{"free_energy": -6.6, "intermolecular_energy": -8.69, "internal_energy": -1.34, "cluster_size": 3, "cluster_id": 1, "rank_in_cluster": 2}

>  <energy>  (25) 
-6.84

>  <cluster_rmsd>  (25) 
0.14

>  <rmsd>  (25) 
272.35

>  <cluster>  (25) 
2

$$$$
RCYZJXIDXHYHGN-UHFFFAOYNA-N
     RDKit          3D

 46 48  0  0  0  0  0  0  0  0999 V2000
  138.8170   71.7800  220.8320 O   0  0  0  0  0  0  0  0  0  0  0  0
  139.8810   72.1170  221.8410 S   0  0  0  0  0  0  0  0  0  0  0  0
  141.2260   71.6750  221.3300 O   0  0  0  0  0  0  0  0  0  0  0  0
  139.5390   71.3030  223.3350 N   0  0  0  0  0  0  0  0  0  0  0  0
  138.2380   70.8930  223.7810 C   0  0  0  0  0  0  0  0  0  0  0  0
  137.0850   71.6410  223.4790 C   0  0  0  0  0  0  0  0  0  0  0  0
  135.8280   71.2040  223.9070 C   0  0  0  0  0  0  0  0  0  0  0  0
  135.7060   70.0180  224.6360 C   0  0  0  0  0  0  0  0  0  0  0  0
  134.0920   69.4760  225.2030 S   0  0  0  0  0  0  0  0  0  0  0  0
  133.9260   70.7760  226.4720 C   0  0  0  0  0  0  0  0  0  0  0  0
  132.5910   71.0100  226.7440 F   0  0  0  0  0  0  0  0  0  0  0  0
  134.5840   70.4040  227.6310 F   0  0  0  0  0  0  0  0  0  0  0  0
  136.8470   69.2750  224.9520 C   0  0  0  0  0  0  0  0  0  0  0  0
  138.1110   69.7080  224.5310 C   0  0  0  0  0  0  0  0  0  0  0  0
  139.5590   68.7420  224.9820 S   0  0  0  0  0  0  0  0  0  0  0  0
  140.1320   69.9750  226.1510 C   0  0  0  0  0  0  0  0  0  0  0  0
  141.0780   70.9290  225.7560 C   0  0  0  0  0  0  0  0  0  0  0  0
  141.5210   71.8940  226.6670 C   0  0  0  0  0  0  0  0  0  0  0  0
  141.0370   71.8940  227.9790 C   0  0  0  0  0  0  0  0  0  0  0  0
  140.1010   70.9350  228.3780 C   0  0  0  0  0  0  0  0  0  0  0  0
  139.6410   69.9830  227.4640 C   0  0  0  0  0  0  0  0  0  0  0  0
  139.9180   73.8400  222.1180 N   0  0  0  0  0  0  0  0  0  0  0  0
  138.5630   74.4040  221.9270 C   0  0  0  0  0  0  0  0  0  0  0  0
  138.5700   75.9510  221.8600 C   0  0  0  0  0  0  0  0  0  0  0  0
  139.8940   76.5250  222.3730 C   0  0  0  0  0  0  0  0  0  0  0  0
  141.0830   75.9570  221.5750 C   0  0  0  0  0  0  0  0  0  0  0  0
  140.8790   74.4710  221.1990 C   0  0  0  0  0  0  0  0  0  0  0  0
  137.1732   72.5742  222.9033 H   0  0  0  0  0  0  0  0  0  0  0  0
  134.9318   71.7958  223.6691 H   0  0  0  0  0  0  0  0  0  0  0  0
  134.3804   71.7006  226.0864 H   0  0  0  0  0  0  0  0  0  0  0  0
  136.7520   68.3463  225.5338 H   0  0  0  0  0  0  0  0  0  0  0  0
  141.4728   70.9197  224.7293 H   0  0  0  0  0  0  0  0  0  0  0  0
  142.2510   72.6537  226.3508 H   0  0  0  0  0  0  0  0  0  0  0  0
  141.3925   72.6480  228.6967 H   0  0  0  0  0  0  0  0  0  0  0  0
  139.7263   70.9298  229.4122 H   0  0  0  0  0  0  0  0  0  0  0  0
  138.8928   69.2391  227.7753 H   0  0  0  0  0  0  0  0  0  0  0  0
  138.1467   74.0119  220.9874 H   0  0  0  0  0  0  0  0  0  0  0  0
  137.9525   74.1092  222.7933 H   0  0  0  0  0  0  0  0  0  0  0  0
  138.4241   76.2650  220.8159 H   0  0  0  0  0  0  0  0  0  0  0  0
  137.7576   76.3295  222.4977 H   0  0  0  0  0  0  0  0  0  0  0  0
  139.8779   77.6197  222.2659 H   0  0  0  0  0  0  0  0  0  0  0  0
  140.0133   76.2451  223.4301 H   0  0  0  0  0  0  0  0  0  0  0  0
  141.2017   76.5428  220.6515 H   0  0  0  0  0  0  0  0  0  0  0  0
  141.9784   76.0242  222.2103 H   0  0  0  0  0  0  0  0  0  0  0  0
  140.4941   74.4062  220.1706 H   0  0  0  0  0  0  0  0  0  0  0  0
  141.8432   73.9469  221.2736 H   0  0  0  0  0  0  0  0  0  0  0  0
  1  2  2  0
  2  3  2  0
  2  4  1  0
  4  5  1  0
  5  6  2  0
  6  7  1  0
  7  8  2  0
  8  9  1  0
  9 10  1  0
 10 11  1  0
 10 12  1  0
  8 13  1  0
 13 14  2  0
 14 15  1  0
 15 16  1  0
 16 17  2  0
 17 18  1  0
 18 19  2  0
 19 20  1  0
 20 21  2  0
  2 22  1  0
 22 23  1  0
 23 24  1  0
 24 25  1  0
 25 26  1  0
 26 27  1  0
 14  5  1  0
 21 16  1  0
 27 22  1  0
  6 28  1  0
  7 29  1  0
 10 30  1  0
 13 31  1  0
 17 32  1  0
 18 33  1  0
 19 34  1  0
 20 35  1  0
 21 36  1  0
 23 37  1  0
 23 38  1  0
 24 39  1  0
 24 40  1  0
 25 41  1  0
 25 42  1  0
 26 43  1  0
 26 44  1  0
 27 45  1  0
 27 46  1  0
M  CHG  1   4  -1
M  END
>  <UniqueID>  (26) 
29

>  <SMILES>  (26) 
O=S(=O)([N-]c1ccc(SC(F)F)cc1Sc1ccccc1)N1CCCCC1

>  <Energy>  (26) 
41.498957132325835

>  <Genealogy>  (26) 
O=S(=O)([N-]c1ccc(SC(F)F)cc1Sc1ccccc1)N1CCCCC1 (protonated)
O=S(=O)([N-]c1ccc(SC(F)F)cc1Sc1ccccc1)N1CCCCC1 (3D coordinates assigned)
O=S(=O)([N-]c1ccc(SC(F)F)cc1Sc1ccccc1)N1CCCCC1 (nonaromatic ring conformer: 41.498957132325835 kcal/mol)

>  <smiles>  (26) 
O=S(=O)(Nc1ccc(SC(F)F)cc1Sc1ccccc1)N1CCCCC1

>  <score_type>  (26) 
oracle

>  <origin>  (26) 
autodockgpu

>  <m_score__min__energy>  (26) 
-6.96

>  <m_primary>  (26) 
energy

>  <meeko>  (26) 
{"free_energy": -6.86, "intermolecular_energy": -8.95, "internal_energy": -1.46, "cluster_size": 3, "cluster_id": 2, "rank_in_cluster": 1}

>  <energy>  (26) 
-6.51

>  <cluster_rmsd>  (26) 
1.66

>  <rmsd>  (26) 
272.02

>  <cluster>  (26) 
2

$$$$
RCYZJXIDXHYHGN-UHFFFAOYNA-N
     RDKit          3D

 46 48  0  0  0  0  0  0  0  0999 V2000
  140.0460   72.6310  220.1180 O   0  0  0  0  0  0  0  0  0  0  0  0
  140.6210   73.7150  220.9890 S   0  0  0  0  0  0  0  0  0  0  0  0
  140.1090   73.5630  222.3960 O   0  0  0  0  0  0  0  0  0  0  0  0
  140.1480   75.2650  220.3700 N   0  0  0  0  0  0  0  0  0  0  0  0
  139.4130   76.2620  221.0950 C   0  0  0  0  0  0  0  0  0  0  0  0
  138.0900   76.0400  221.5210 C   0  0  0  0  0  0  0  0  0  0  0  0
  137.4070   77.0210  222.2460 C   0  0  0  0  0  0  0  0  0  0  0  0
  138.0350   78.2300  222.5570 C   0  0  0  0  0  0  0  0  0  0  0  0
  137.1440   79.4950  223.4670 S   0  0  0  0  0  0  0  0  0  0  0  0
  138.6150   80.5260  223.7850 C   0  0  0  0  0  0  0  0  0  0  0  0
  138.8190   81.4020  222.7370 F   0  0  0  0  0  0  0  0  0  0  0  0
  138.4610   81.2320  224.9660 F   0  0  0  0  0  0  0  0  0  0  0  0
  139.3440   78.4660  222.1270 C   0  0  0  0  0  0  0  0  0  0  0  0
  140.0340   77.4900  221.3960 C   0  0  0  0  0  0  0  0  0  0  0  0
  141.7060   77.8400  220.8350 S   0  0  0  0  0  0  0  0  0  0  0  0
  141.8900   79.2280  221.9540 C   0  0  0  0  0  0  0  0  0  0  0  0
  142.2300   79.0060  223.2950 C   0  0  0  0  0  0  0  0  0  0  0  0
  142.3800   80.0900  224.1680 C   0  0  0  0  0  0  0  0  0  0  0  0
  142.1680   81.3940  223.7090 C   0  0  0  0  0  0  0  0  0  0  0  0
  141.8170   81.6160  222.3730 C   0  0  0  0  0  0  0  0  0  0  0  0
  141.6880   80.5370  221.4950 C   0  0  0  0  0  0  0  0  0  0  0  0
  142.3640   73.6070  221.0050 N   0  0  0  0  0  0  0  0  0  0  0  0
  142.9430   74.8130  220.3730 C   0  0  0  0  0  0  0  0  0  0  0  0
  144.4560   74.6580  220.0800 C   0  0  0  0  0  0  0  0  0  0  0  0
  145.0520   73.4710  220.8420 C   0  0  0  0  0  0  0  0  0  0  0  0
  144.3110   72.1660  220.4900 C   0  0  0  0  0  0  0  0  0  0  0  0
  142.7930   72.3900  220.2990 C   0  0  0  0  0  0  0  0  0  0  0  0
  137.5907   75.0894  221.2822 H   0  0  0  0  0  0  0  0  0  0  0  0
  136.3722   76.8407  222.5726 H   0  0  0  0  0  0  0  0  0  0  0  0
  139.4911   79.8671  223.8762 H   0  0  0  0  0  0  0  0  0  0  0  0
  139.8343   79.4219  222.3635 H   0  0  0  0  0  0  0  0  0  0  0  0
  142.3791   77.9798  223.6619 H   0  0  0  0  0  0  0  0  0  0  0  0
  142.6649   79.9160  225.2161 H   0  0  0  0  0  0  0  0  0  0  0  0
  142.2772   82.2445  224.3980 H   0  0  0  0  0  0  0  0  0  0  0  0
  141.6425   82.6409  222.0136 H   0  0  0  0  0  0  0  0  0  0  0  0
  141.4274   80.7150  220.4412 H   0  0  0  0  0  0  0  0  0  0  0  0
  142.4173   75.0021  219.4254 H   0  0  0  0  0  0  0  0  0  0  0  0
  142.8217   75.6507  221.0756 H   0  0  0  0  0  0  0  0  0  0  0  0
  144.5974   74.4984  219.0009 H   0  0  0  0  0  0  0  0  0  0  0  0
  144.9687   75.5740  220.4086 H   0  0  0  0  0  0  0  0  0  0  0  0
  146.1136   73.3665  220.5734 H   0  0  0  0  0  0  0  0  0  0  0  0
  144.9462   73.6561  221.9211 H   0  0  0  0  0  0  0  0  0  0  0  0
  144.7297   71.7615  219.5567 H   0  0  0  0  0  0  0  0  0  0  0  0
  144.4464   71.4645  221.3264 H   0  0  0  0  0  0  0  0  0  0  0  0
  142.5740   72.4965  219.2263 H   0  0  0  0  0  0  0  0  0  0  0  0
  142.2493   71.5269  220.7106 H   0  0  0  0  0  0  0  0  0  0  0  0
  1  2  2  0
  2  3  2  0
  2  4  1  0
  4  5  1  0
  5  6  2  0
  6  7  1  0
  7  8  2  0
  8  9  1  0
  9 10  1  0
 10 11  1  0
 10 12  1  0
  8 13  1  0
 13 14  2  0
 14 15  1  0
 15 16  1  0
 16 17  2  0
 17 18  1  0
 18 19  2  0
 19 20  1  0
 20 21  2  0
  2 22  1  0
 22 23  1  0
 23 24  1  0
 24 25  1  0
 25 26  1  0
 26 27  1  0
 14  5  1  0
 21 16  1  0
 27 22  1  0
  6 28  1  0
  7 29  1  0
 10 30  1  0
 13 31  1  0
 17 32  1  0
 18 33  1  0
 19 34  1  0
 20 35  1  0
 21 36  1  0
 23 37  1  0
 23 38  1  0
 24 39  1  0
 24 40  1  0
 25 41  1  0
 25 42  1  0
 26 43  1  0
 26 44  1  0
 27 45  1  0
 27 46  1  0
M  CHG  1   4  -1
M  END
>  <UniqueID>  (27) 
29

>  <SMILES>  (27) 
O=S(=O)([N-]c1ccc(SC(F)F)cc1Sc1ccccc1)N1CCCCC1

>  <Energy>  (27) 
41.498957132325835

>  <Genealogy>  (27) 
O=S(=O)([N-]c1ccc(SC(F)F)cc1Sc1ccccc1)N1CCCCC1 (protonated)
O=S(=O)([N-]c1ccc(SC(F)F)cc1Sc1ccccc1)N1CCCCC1 (3D coordinates assigned)
O=S(=O)([N-]c1ccc(SC(F)F)cc1Sc1ccccc1)N1CCCCC1 (nonaromatic ring conformer: 41.498957132325835 kcal/mol)

>  <smiles>  (27) 
O=S(=O)(Nc1ccc(SC(F)F)cc1Sc1ccccc1)N1CCCCC1

>  <score_type>  (27) 
oracle

>  <origin>  (27) 
autodockgpu

>  <m_score__min__energy>  (27) 
-6.96

>  <m_primary>  (27) 
energy

>  <meeko>  (27) 
{"free_energy": -6.07, "intermolecular_energy": -8.16, "internal_energy": -1.67, "cluster_size": 5, "cluster_id": 4, "rank_in_cluster": 2}

>  <energy>  (27) 
-6.81

>  <cluster_rmsd>  (27) 
0.0

>  <rmsd>  (27) 
271.94

>  <cluster>  (27) 
3

$$$$
RCYZJXIDXHYHGN-UHFFFAOYNA-N
     RDKit          3D

 46 48  0  0  0  0  0  0  0  0999 V2000
  140.1980   74.8990  219.5770 O   0  0  0  0  0  0  0  0  0  0  0  0
  140.5390   74.0440  220.7670 S   0  0  0  0  0  0  0  0  0  0  0  0
  139.8780   72.6990  220.6330 O   0  0  0  0  0  0  0  0  0  0  0  0
  139.9770   74.8180  222.2150 N   0  0  0  0  0  0  0  0  0  0  0  0
  139.1660   76.0010  222.2650 C   0  0  0  0  0  0  0  0  0  0  0  0
  137.8310   75.9620  222.7080 C   0  0  0  0  0  0  0  0  0  0  0  0
  137.0720   77.1340  222.7680 C   0  0  0  0  0  0  0  0  0  0  0  0
  137.6350   78.3560  222.3920 C   0  0  0  0  0  0  0  0  0  0  0  0
  136.6480   79.8540  222.4480 S   0  0  0  0  0  0  0  0  0  0  0  0
  137.8870   80.8250  223.3690 C   0  0  0  0  0  0  0  0  0  0  0  0
  138.5050   80.0330  224.3180 F   0  0  0  0  0  0  0  0  0  0  0  0
  138.8320   81.3450  222.5020 F   0  0  0  0  0  0  0  0  0  0  0  0
  138.9560   78.4040  221.9380 C   0  0  0  0  0  0  0  0  0  0  0  0
  139.7220   77.2320  221.8700 C   0  0  0  0  0  0  0  0  0  0  0  0
  141.4080   77.3270  221.2530 S   0  0  0  0  0  0  0  0  0  0  0  0
  141.7390   78.8590  222.1230 C   0  0  0  0  0  0  0  0  0  0  0  0
  141.9290   78.8490  223.5110 C   0  0  0  0  0  0  0  0  0  0  0  0
  142.1940   80.0440  224.1900 C   0  0  0  0  0  0  0  0  0  0  0  0
  142.2450   81.2520  223.4880 C   0  0  0  0  0  0  0  0  0  0  0  0
  142.0440   81.2650  222.1040 C   0  0  0  0  0  0  0  0  0  0  0  0
  141.8010   80.0710  221.4210 C   0  0  0  0  0  0  0  0  0  0  0  0
  142.2670   73.8190  220.8660 N   0  0  0  0  0  0  0  0  0  0  0  0
  142.9480   74.8130  220.0070 C   0  0  0  0  0  0  0  0  0  0  0  0
  144.4500   74.4910  219.8070 C   0  0  0  0  0  0  0  0  0  0  0  0
  144.9390   73.4600  220.8280 C   0  0  0  0  0  0  0  0  0  0  0  0
  144.1080   72.1660  220.7420 C   0  0  0  0  0  0  0  0  0  0  0  0
  142.6150   72.4490  220.4550 C   0  0  0  0  0  0  0  0  0  0  0  0
  137.3823   75.0038  223.0087 H   0  0  0  0  0  0  0  0  0  0  0  0
  136.0281   77.0941  223.1124 H   0  0  0  0  0  0  0  0  0  0  0  0
  137.3739   81.6558  223.8754 H   0  0  0  0  0  0  0  0  0  0  0  0
  139.3961   79.3649  221.6330 H   0  0  0  0  0  0  0  0  0  0  0  0
  141.8699   77.9019  224.0673 H   0  0  0  0  0  0  0  0  0  0  0  0
  142.3623   80.0326  225.2770 H   0  0  0  0  0  0  0  0  0  0  0  0
  142.4431   82.1919  224.0240 H   0  0  0  0  0  0  0  0  0  0  0  0
  142.0773   82.2164  221.5528 H   0  0  0  0  0  0  0  0  0  0  0  0
  141.6580   80.0817  220.3304 H   0  0  0  0  0  0  0  0  0  0  0  0
  142.4556   74.8261  219.0234 H   0  0  0  0  0  0  0  0  0  0  0  0
  142.8784   75.7909  220.5060 H   0  0  0  0  0  0  0  0  0  0  0  0
  144.5986   74.0899  218.7936 H   0  0  0  0  0  0  0  0  0  0  0  0
  145.0253   75.4180  219.9471 H   0  0  0  0  0  0  0  0  0  0  0  0
  145.9943   73.2247  220.6254 H   0  0  0  0  0  0  0  0  0  0  0  0
  144.8272   73.8836  221.8370 H   0  0  0  0  0  0  0  0  0  0  0  0
  144.5116   71.5388  219.9334 H   0  0  0  0  0  0  0  0  0  0  0  0
  144.1744   71.6566  221.7147 H   0  0  0  0  0  0  0  0  0  0  0  0
  142.4243   72.3337  219.3778 H   0  0  0  0  0  0  0  0  0  0  0  0
  141.9997   71.7371  221.0247 H   0  0  0  0  0  0  0  0  0  0  0  0
  1  2  2  0
  2  3  2  0
  2  4  1  0
  4  5  1  0
  5  6  2  0
  6  7  1  0
  7  8  2  0
  8  9  1  0
  9 10  1  0
 10 11  1  0
 10 12  1  0
  8 13  1  0
 13 14  2  0
 14 15  1  0
 15 16  1  0
 16 17  2  0
 17 18  1  0
 18 19  2  0
 19 20  1  0
 20 21  2  0
  2 22  1  0
 22 23  1  0
 23 24  1  0
 24 25  1  0
 25 26  1  0
 26 27  1  0
 14  5  1  0
 21 16  1  0
 27 22  1  0
  6 28  1  0
  7 29  1  0
 10 30  1  0
 13 31  1  0
 17 32  1  0
 18 33  1  0
 19 34  1  0
 20 35  1  0
 21 36  1  0
 23 37  1  0
 23 38  1  0
 24 39  1  0
 24 40  1  0
 25 41  1  0
 25 42  1  0
 26 43  1  0
 26 44  1  0
 27 45  1  0
 27 46  1  0
M  CHG  1   4  -1
M  END
>  <UniqueID>  (28) 
29

>  <SMILES>  (28) 
O=S(=O)([N-]c1ccc(SC(F)F)cc1Sc1ccccc1)N1CCCCC1

>  <Energy>  (28) 
41.498957132325835

>  <Genealogy>  (28) 
O=S(=O)([N-]c1ccc(SC(F)F)cc1Sc1ccccc1)N1CCCCC1 (protonated)
O=S(=O)([N-]c1ccc(SC(F)F)cc1Sc1ccccc1)N1CCCCC1 (3D coordinates assigned)
O=S(=O)([N-]c1ccc(SC(F)F)cc1Sc1ccccc1)N1CCCCC1 (nonaromatic ring conformer: 41.498957132325835 kcal/mol)

>  <smiles>  (28) 
O=S(=O)(Nc1ccc(SC(F)F)cc1Sc1ccccc1)N1CCCCC1

>  <score_type>  (28) 
oracle

>  <origin>  (28) 
autodockgpu

>  <m_score__min__energy>  (28) 
-6.96

>  <m_primary>  (28) 
energy

>  <meeko>  (28) 
{"free_energy": -5.92, "intermolecular_energy": -8.01, "internal_energy": -1.76, "cluster_size": 5, "cluster_id": 4, "rank_in_cluster": 4}

>  <energy>  (28) 
-6.8

>  <cluster_rmsd>  (28) 
0.4

>  <rmsd>  (28) 
271.94

>  <cluster>  (28) 
3

$$$$
RCYZJXIDXHYHGN-UHFFFAOYNA-N
     RDKit          3D

 46 48  0  0  0  0  0  0  0  0999 V2000
  140.2000   74.9080  219.6000 O   0  0  0  0  0  0  0  0  0  0  0  0
  140.5480   74.0470  220.7830 S   0  0  0  0  0  0  0  0  0  0  0  0
  139.9030   72.6950  220.6360 O   0  0  0  0  0  0  0  0  0  0  0  0
  139.9740   74.8010  222.2360 N   0  0  0  0  0  0  0  0  0  0  0  0
  139.1660   75.9860  222.2960 C   0  0  0  0  0  0  0  0  0  0  0  0
  137.8310   75.9480  222.7390 C   0  0  0  0  0  0  0  0  0  0  0  0
  137.0760   77.1220  222.8080 C   0  0  0  0  0  0  0  0  0  0  0  0
  137.6420   78.3450  222.4400 C   0  0  0  0  0  0  0  0  0  0  0  0
  136.6590   79.8460  222.5080 S   0  0  0  0  0  0  0  0  0  0  0  0
  137.9100   80.8120  223.4190 C   0  0  0  0  0  0  0  0  0  0  0  0
  138.5360   80.0160  224.3580 F   0  0  0  0  0  0  0  0  0  0  0  0
  138.8470   81.3330  222.5430 F   0  0  0  0  0  0  0  0  0  0  0  0
  138.9640   78.3920  221.9860 C   0  0  0  0  0  0  0  0  0  0  0  0
  139.7260   77.2190  221.9090 C   0  0  0  0  0  0  0  0  0  0  0  0
  141.4120   77.3140  221.2910 S   0  0  0  0  0  0  0  0  0  0  0  0
  141.7410   78.8500  222.1540 C   0  0  0  0  0  0  0  0  0  0  0  0
  141.8160   80.0530  221.4400 C   0  0  0  0  0  0  0  0  0  0  0  0
  142.0670   81.2530  222.1150 C   0  0  0  0  0  0  0  0  0  0  0  0
  142.2650   81.2500  223.4980 C   0  0  0  0  0  0  0  0  0  0  0  0
  142.2010   80.0490  224.2120 C   0  0  0  0  0  0  0  0  0  0  0  0
  141.9300   78.8520  223.5430 C   0  0  0  0  0  0  0  0  0  0  0  0
  142.2790   73.8410  220.8850 N   0  0  0  0  0  0  0  0  0  0  0  0
  142.9490   74.8220  220.0020 C   0  0  0  0  0  0  0  0  0  0  0  0
  144.4530   74.5100  219.8060 C   0  0  0  0  0  0  0  0  0  0  0  0
  144.9540   73.5080  220.8500 C   0  0  0  0  0  0  0  0  0  0  0  0
  144.1350   72.2040  220.7960 C   0  0  0  0  0  0  0  0  0  0  0  0
  142.6390   72.4660  220.5050 C   0  0  0  0  0  0  0  0  0  0  0  0
  137.3792   74.9890  223.0326 H   0  0  0  0  0  0  0  0  0  0  0  0
  136.0323   77.0829  223.1533 H   0  0  0  0  0  0  0  0  0  0  0  0
  137.4043   81.6423  223.9336 H   0  0  0  0  0  0  0  0  0  0  0  0
  139.4072   79.3537  221.6882 H   0  0  0  0  0  0  0  0  0  0  0  0
  141.6776   80.0544  220.3487 H   0  0  0  0  0  0  0  0  0  0  0  0
  142.1084   82.1995  221.5561 H   0  0  0  0  0  0  0  0  0  0  0  0
  142.4714   82.1928  224.0257 H   0  0  0  0  0  0  0  0  0  0  0  0
  142.3639   80.0465  225.2999 H   0  0  0  0  0  0  0  0  0  0  0  0
  141.8649   77.9101  224.1074 H   0  0  0  0  0  0  0  0  0  0  0  0
  142.4545   74.8082  219.0195 H   0  0  0  0  0  0  0  0  0  0  0  0
  142.8711   75.8101  220.4790 H   0  0  0  0  0  0  0  0  0  0  0  0
  144.6032   74.0866  218.8019 H   0  0  0  0  0  0  0  0  0  0  0  0
  145.0198   75.4455  219.9226 H   0  0  0  0  0  0  0  0  0  0  0  0
  146.0111   73.2782  220.6507 H   0  0  0  0  0  0  0  0  0  0  0  0
  144.8402   73.9541  221.8490 H   0  0  0  0  0  0  0  0  0  0  0  0
  144.5433   71.5618  220.0018 H   0  0  0  0  0  0  0  0  0  0  0  0
  144.2078   71.7183  221.7803 H   0  0  0  0  0  0  0  0  0  0  0  0
  142.4478   72.3243  219.4311 H   0  0  0  0  0  0  0  0  0  0  0  0
  142.0312   71.7615  221.0917 H   0  0  0  0  0  0  0  0  0  0  0  0
  1  2  2  0
  2  3  2  0
  2  4  1  0
  4  5  1  0
  5  6  2  0
  6  7  1  0
  7  8  2  0
  8  9  1  0
  9 10  1  0
 10 11  1  0
 10 12  1  0
  8 13  1  0
 13 14  2  0
 14 15  1  0
 15 16  1  0
 16 17  2  0
 17 18  1  0
 18 19  2  0
 19 20  1  0
 20 21  2  0
  2 22  1  0
 22 23  1  0
 23 24  1  0
 24 25  1  0
 25 26  1  0
 26 27  1  0
 14  5  1  0
 21 16  1  0
 27 22  1  0
  6 28  1  0
  7 29  1  0
 10 30  1  0
 13 31  1  0
 17 32  1  0
 18 33  1  0
 19 34  1  0
 20 35  1  0
 21 36  1  0
 23 37  1  0
 23 38  1  0
 24 39  1  0
 24 40  1  0
 25 41  1  0
 25 42  1  0
 26 43  1  0
 26 44  1  0
 27 45  1  0
 27 46  1  0
M  CHG  1   4  -1
M  END
>  <UniqueID>  (29) 
29

>  <SMILES>  (29) 
O=S(=O)([N-]c1ccc(SC(F)F)cc1Sc1ccccc1)N1CCCCC1

>  <Energy>  (29) 
41.498957132325835

>  <Genealogy>  (29) 
O=S(=O)([N-]c1ccc(SC(F)F)cc1Sc1ccccc1)N1CCCCC1 (protonated)
O=S(=O)([N-]c1ccc(SC(F)F)cc1Sc1ccccc1)N1CCCCC1 (3D coordinates assigned)
O=S(=O)([N-]c1ccc(SC(F)F)cc1Sc1ccccc1)N1CCCCC1 (nonaromatic ring conformer: 41.498957132325835 kcal/mol)

>  <smiles>  (29) 
O=S(=O)(Nc1ccc(SC(F)F)cc1Sc1ccccc1)N1CCCCC1

>  <score_type>  (29) 
oracle

>  <origin>  (29) 
autodockgpu

>  <m_score__min__energy>  (29) 
-6.96

>  <m_primary>  (29) 
energy

>  <meeko>  (29) 
{"free_energy": -5.92, "intermolecular_energy": -8.01, "internal_energy": -1.76, "cluster_size": 5, "cluster_id": 4, "rank_in_cluster": 5}

>  <energy>  (29) 
-6.8

>  <cluster_rmsd>  (29) 
0.71

>  <rmsd>  (29) 
271.83

>  <cluster>  (29) 
3

$$$$
RCYZJXIDXHYHGN-UHFFFAOYNA-N
     RDKit          3D

 46 48  0  0  0  0  0  0  0  0999 V2000
  140.2100   73.9730  222.3430 O   0  0  0  0  0  0  0  0  0  0  0  0
  140.8510   72.9270  221.4710 S   0  0  0  0  0  0  0  0  0  0  0  0
  140.1560   72.8810  220.1370 O   0  0  0  0  0  0  0  0  0  0  0  0
  140.7230   71.3770  222.2400 N   0  0  0  0  0  0  0  0  0  0  0  0
  139.5420   70.8530  222.8630 C   0  0  0  0  0  0  0  0  0  0  0  0
  138.4710   70.3420  222.1060 C   0  0  0  0  0  0  0  0  0  0  0  0
  137.3430   69.8170  222.7420 C   0  0  0  0  0  0  0  0  0  0  0  0
  137.2710   69.7900  224.1370 C   0  0  0  0  0  0  0  0  0  0  0  0
  135.8090   69.1360  224.9480 S   0  0  0  0  0  0  0  0  0  0  0  0
  134.8990   70.7160  224.9300 C   0  0  0  0  0  0  0  0  0  0  0  0
  134.3750   70.9780  226.1810 F   0  0  0  0  0  0  0  0  0  0  0  0
  135.7350   71.7490  224.5440 F   0  0  0  0  0  0  0  0  0  0  0  0
  138.3240   70.3060  224.8990 C   0  0  0  0  0  0  0  0  0  0  0  0
  139.4560   70.8400  224.2690 C   0  0  0  0  0  0  0  0  0  0  0  0
  140.7760   71.5220  225.2810 S   0  0  0  0  0  0  0  0  0  0  0  0
  140.6560   70.2040  226.4900 C   0  0  0  0  0  0  0  0  0  0  0  0
  141.1540   68.9300  226.1900 C   0  0  0  0  0  0  0  0  0  0  0  0
  141.0650   67.9030  227.1360 C   0  0  0  0  0  0  0  0  0  0  0  0
  140.4590   68.1410  228.3740 C   0  0  0  0  0  0  0  0  0  0  0  0
  139.9520   69.4090  228.6710 C   0  0  0  0  0  0  0  0  0  0  0  0
  140.0580   70.4420  227.7350 C   0  0  0  0  0  0  0  0  0  0  0  0
  142.5360   73.3100  221.2190 N   0  0  0  0  0  0  0  0  0  0  0  0
  142.6520   74.5830  220.4750 C   0  0  0  0  0  0  0  0  0  0  0  0
  144.0880   74.8360  219.9550 C   0  0  0  0  0  0  0  0  0  0  0  0
  145.1000   73.9150  220.6440 C   0  0  0  0  0  0  0  0  0  0  0  0
  144.7200   72.4360  220.4430 C   0  0  0  0  0  0  0  0  0  0  0  0
  143.1900   72.2150  220.4840 C   0  0  0  0  0  0  0  0  0  0  0  0
  138.5223   70.3560  221.0073 H   0  0  0  0  0  0  0  0  0  0  0  0
  136.5089   69.4237  222.1423 H   0  0  0  0  0  0  0  0  0  0  0  0
  134.0751   70.6367  224.2055 H   0  0  0  0  0  0  0  0  0  0  0  0
  138.2634   70.2926  225.9972 H   0  0  0  0  0  0  0  0  0  0  0  0
  141.6153   68.7366  225.2103 H   0  0  0  0  0  0  0  0  0  0  0  0
  141.4720   66.9073  226.9059 H   0  0  0  0  0  0  0  0  0  0  0  0
  140.3815   67.3304  229.1135 H   0  0  0  0  0  0  0  0  0  0  0  0
  139.4692   69.5944  229.6419 H   0  0  0  0  0  0  0  0  0  0  0  0
  139.6714   71.4432  227.9761 H   0  0  0  0  0  0  0  0  0  0  0  0
  141.9656   74.5535  219.6159 H   0  0  0  0  0  0  0  0  0  0  0  0
  142.3981   75.3994  221.1671 H   0  0  0  0  0  0  0  0  0  0  0  0
  144.1145   74.6503  218.8711 H   0  0  0  0  0  0  0  0  0  0  0  0
  144.3593   75.8784  220.1780 H   0  0  0  0  0  0  0  0  0  0  0  0
  146.0980   74.0921  220.2165 H   0  0  0  0  0  0  0  0  0  0  0  0
  145.1001   74.1354  221.7217 H   0  0  0  0  0  0  0  0  0  0  0  0
  145.1000   72.1022  219.4662 H   0  0  0  0  0  0  0  0  0  0  0  0
  145.1668   71.8579  221.2653 H   0  0  0  0  0  0  0  0  0  0  0  0
  142.8000   72.1841  219.4559 H   0  0  0  0  0  0  0  0  0  0  0  0
  142.9790   71.2642  220.9954 H   0  0  0  0  0  0  0  0  0  0  0  0
  1  2  2  0
  2  3  2  0
  2  4  1  0
  4  5  1  0
  5  6  2  0
  6  7  1  0
  7  8  2  0
  8  9  1  0
  9 10  1  0
 10 11  1  0
 10 12  1  0
  8 13  1  0
 13 14  2  0
 14 15  1  0
 15 16  1  0
 16 17  2  0
 17 18  1  0
 18 19  2  0
 19 20  1  0
 20 21  2  0
  2 22  1  0
 22 23  1  0
 23 24  1  0
 24 25  1  0
 25 26  1  0
 26 27  1  0
 14  5  1  0
 21 16  1  0
 27 22  1  0
  6 28  1  0
  7 29  1  0
 10 30  1  0
 13 31  1  0
 17 32  1  0
 18 33  1  0
 19 34  1  0
 20 35  1  0
 21 36  1  0
 23 37  1  0
 23 38  1  0
 24 39  1  0
 24 40  1  0
 25 41  1  0
 25 42  1  0
 26 43  1  0
 26 44  1  0
 27 45  1  0
 27 46  1  0
M  CHG  1   4  -1
M  END
>  <UniqueID>  (30) 
29

>  <SMILES>  (30) 
O=S(=O)([N-]c1ccc(SC(F)F)cc1Sc1ccccc1)N1CCCCC1

>  <Energy>  (30) 
41.498957132325835

>  <Genealogy>  (30) 
O=S(=O)([N-]c1ccc(SC(F)F)cc1Sc1ccccc1)N1CCCCC1 (protonated)
O=S(=O)([N-]c1ccc(SC(F)F)cc1Sc1ccccc1)N1CCCCC1 (3D coordinates assigned)
O=S(=O)([N-]c1ccc(SC(F)F)cc1Sc1ccccc1)N1CCCCC1 (nonaromatic ring conformer: 41.498957132325835 kcal/mol)

>  <smiles>  (30) 
O=S(=O)(Nc1ccc(SC(F)F)cc1Sc1ccccc1)N1CCCCC1

>  <score_type>  (30) 
oracle

>  <origin>  (30) 
autodockgpu

>  <m_score__min__energy>  (30) 
-6.96

>  <m_primary>  (30) 
energy

>  <meeko>  (30) 
{"free_energy": -6.96, "intermolecular_energy": -9.04, "internal_energy": -1.31, "cluster_size": 3, "cluster_id": 1, "rank_in_cluster": 1}

>  <energy>  (30) 
-6.76

>  <cluster_rmsd>  (30) 
0.39

>  <rmsd>  (30) 
271.92

>  <cluster>  (30) 
3

$$$$
RCYZJXIDXHYHGN-UHFFFAOYNA-N
     RDKit          3D

 46 48  0  0  0  0  0  0  0  0999 V2000
  138.6210   71.8970  220.8960 O   0  0  0  0  0  0  0  0  0  0  0  0
  139.7810   72.1470  221.8230 S   0  0  0  0  0  0  0  0  0  0  0  0
  141.0410   71.5840  221.2240 O   0  0  0  0  0  0  0  0  0  0  0  0
  139.4770   71.3790  223.3490 N   0  0  0  0  0  0  0  0  0  0  0  0
  138.1950   70.9370  223.8170 C   0  0  0  0  0  0  0  0  0  0  0  0
  137.0220   71.6720  223.5640 C   0  0  0  0  0  0  0  0  0  0  0  0
  135.7840   71.2040  224.0130 C   0  0  0  0  0  0  0  0  0  0  0  0
  135.7000   69.9990  224.7150 C   0  0  0  0  0  0  0  0  0  0  0  0
  134.1100   69.4160  225.3100 S   0  0  0  0  0  0  0  0  0  0  0  0
  133.9120   70.7380  226.5510 C   0  0  0  0  0  0  0  0  0  0  0  0
  132.5710   70.9950  226.7640 F   0  0  0  0  0  0  0  0  0  0  0  0
  134.5170   70.3750  227.7410 F   0  0  0  0  0  0  0  0  0  0  0  0
  136.8610   69.2670  224.9830 C   0  0  0  0  0  0  0  0  0  0  0  0
  138.1070   69.7320  224.5410 C   0  0  0  0  0  0  0  0  0  0  0  0
  139.5810   68.7800  224.9310 S   0  0  0  0  0  0  0  0  0  0  0  0
  140.1620   69.9910  226.1170 C   0  0  0  0  0  0  0  0  0  0  0  0
  139.6700   69.9800  227.4290 C   0  0  0  0  0  0  0  0  0  0  0  0
  140.1280   70.9220  228.3570 C   0  0  0  0  0  0  0  0  0  0  0  0
  141.0590   71.8900  227.9710 C   0  0  0  0  0  0  0  0  0  0  0  0
  141.5430   71.9100  226.6590 C   0  0  0  0  0  0  0  0  0  0  0  0
  141.1030   70.9570  225.7360 C   0  0  0  0  0  0  0  0  0  0  0  0
  139.9890   73.8630  222.0710 N   0  0  0  0  0  0  0  0  0  0  0  0
  138.6790   74.5430  221.9620 C   0  0  0  0  0  0  0  0  0  0  0  0
  138.8190   76.0830  221.8710 C   0  0  0  0  0  0  0  0  0  0  0  0
  140.2200   76.5400  222.2870 C   0  0  0  0  0  0  0  0  0  0  0  0
  141.2980   75.8620  221.4200 C   0  0  0  0  0  0  0  0  0  0  0  0
  140.9380   74.3970  221.0810 C   0  0  0  0  0  0  0  0  0  0  0  0
  137.0798   72.6203  223.0096 H   0  0  0  0  0  0  0  0  0  0  0  0
  134.8725   71.7865  223.8130 H   0  0  0  0  0  0  0  0  0  0  0  0
  134.3953   71.6501  226.1708 H   0  0  0  0  0  0  0  0  0  0  0  0
  136.7960   68.3224  225.5430 H   0  0  0  0  0  0  0  0  0  0  0  0
  138.9232   69.2304  227.7297 H   0  0  0  0  0  0  0  0  0  0  0  0
  139.7547   70.9005  229.3915 H   0  0  0  0  0  0  0  0  0  0  0  0
  141.4110   72.6359  228.6988 H   0  0  0  0  0  0  0  0  0  0  0  0
  142.2705   72.6763  226.3532 H   0  0  0  0  0  0  0  0  0  0  0  0
  141.4961   70.9653  224.7087 H   0  0  0  0  0  0  0  0  0  0  0  0
  138.1670   74.1808  221.0583 H   0  0  0  0  0  0  0  0  0  0  0  0
  138.1043   74.3115  222.8709 H   0  0  0  0  0  0  0  0  0  0  0  0
  138.6322   76.3991  220.8341 H   0  0  0  0  0  0  0  0  0  0  0  0
  138.0878   76.5390  222.5547 H   0  0  0  0  0  0  0  0  0  0  0  0
  140.2939   77.6309  222.1662 H   0  0  0  0  0  0  0  0  0  0  0  0
  140.3847   76.2584  223.3375 H   0  0  0  0  0  0  0  0  0  0  0  0
  141.4052   76.4267  220.4821 H   0  0  0  0  0  0  0  0  0  0  0  0
  142.2372   75.8553  221.9926 H   0  0  0  0  0  0  0  0  0  0  0  0
  140.4805   74.3576  220.0814 H   0  0  0  0  0  0  0  0  0  0  0  0
  141.8548   73.7894  221.0995 H   0  0  0  0  0  0  0  0  0  0  0  0
  1  2  2  0
  2  3  2  0
  2  4  1  0
  4  5  1  0
  5  6  2  0
  6  7  1  0
  7  8  2  0
  8  9  1  0
  9 10  1  0
 10 11  1  0
 10 12  1  0
  8 13  1  0
 13 14  2  0
 14 15  1  0
 15 16  1  0
 16 17  2  0
 17 18  1  0
 18 19  2  0
 19 20  1  0
 20 21  2  0
  2 22  1  0
 22 23  1  0
 23 24  1  0
 24 25  1  0
 25 26  1  0
 26 27  1  0
 14  5  1  0
 21 16  1  0
 27 22  1  0
  6 28  1  0
  7 29  1  0
 10 30  1  0
 13 31  1  0
 17 32  1  0
 18 33  1  0
 19 34  1  0
 20 35  1  0
 21 36  1  0
 23 37  1  0
 23 38  1  0
 24 39  1  0
 24 40  1  0
 25 41  1  0
 25 42  1  0
 26 43  1  0
 26 44  1  0
 27 45  1  0
 27 46  1  0
M  CHG  1   4  -1
M  END
>  <UniqueID>  (31) 
29

>  <SMILES>  (31) 
O=S(=O)([N-]c1ccc(SC(F)F)cc1Sc1ccccc1)N1CCCCC1

>  <Energy>  (31) 
41.498957132325835

>  <Genealogy>  (31) 
O=S(=O)([N-]c1ccc(SC(F)F)cc1Sc1ccccc1)N1CCCCC1 (protonated)
O=S(=O)([N-]c1ccc(SC(F)F)cc1Sc1ccccc1)N1CCCCC1 (3D coordinates assigned)
O=S(=O)([N-]c1ccc(SC(F)F)cc1Sc1ccccc1)N1CCCCC1 (nonaromatic ring conformer: 41.498957132325835 kcal/mol)

>  <smiles>  (31) 
O=S(=O)(Nc1ccc(SC(F)F)cc1Sc1ccccc1)N1CCCCC1

>  <score_type>  (31) 
oracle

>  <origin>  (31) 
autodockgpu

>  <m_score__min__energy>  (31) 
-6.96

>  <m_primary>  (31) 
energy

>  <meeko>  (31) 
{"free_energy": -6.84, "intermolecular_energy": -8.93, "internal_energy": -1.46, "cluster_size": 3, "cluster_id": 2, "rank_in_cluster": 2}

>  <energy>  (31) 
-6.76

>  <cluster_rmsd>  (31) 
0.42

>  <rmsd>  (31) 
271.9

>  <cluster>  (31) 
3

$$$$
RCYZJXIDXHYHGN-UHFFFAOYNA-N
     RDKit          3D

 46 48  0  0  0  0  0  0  0  0999 V2000
  134.3140   67.1800  226.2080 O   0  0  0  0  0  0  0  0  0  0  0  0
  134.4500   68.4280  225.3780 S   0  0  0  0  0  0  0  0  0  0  0  0
  133.9770   68.1590  223.9750 O   0  0  0  0  0  0  0  0  0  0  0  0
  136.1140   68.9170  225.3390 N   0  0  0  0  0  0  0  0  0  0  0  0
  136.6660   69.9250  224.4780 C   0  0  0  0  0  0  0  0  0  0  0  0
  135.8490   70.8730  223.8340 C   0  0  0  0  0  0  0  0  0  0  0  0
  136.4170   71.8570  223.0200 C   0  0  0  0  0  0  0  0  0  0  0  0
  137.8020   71.9100  222.8430 C   0  0  0  0  0  0  0  0  0  0  0  0
  138.5230   73.1620  221.7770 S   0  0  0  0  0  0  0  0  0  0  0  0
  140.2020   72.4510  221.8130 C   0  0  0  0  0  0  0  0  0  0  0  0
  140.7150   72.5050  223.0940 F   0  0  0  0  0  0  0  0  0  0  0  0
  140.1800   71.1400  221.3690 F   0  0  0  0  0  0  0  0  0  0  0  0
  138.6210   70.9650  223.4680 C   0  0  0  0  0  0  0  0  0  0  0  0
  138.0590   69.9720  224.2810 C   0  0  0  0  0  0  0  0  0  0  0  0
  139.1410   68.7560  225.0450 S   0  0  0  0  0  0  0  0  0  0  0  0
  139.9000   69.9710  226.1230 C   0  0  0  0  0  0  0  0  0  0  0  0
  140.8320   70.8800  225.6060 C   0  0  0  0  0  0  0  0  0  0  0  0
  141.4200   71.8320  226.4470 C   0  0  0  0  0  0  0  0  0  0  0  0
  141.0960   71.8620  227.8060 C   0  0  0  0  0  0  0  0  0  0  0  0
  140.1740   70.9480  228.3260 C   0  0  0  0  0  0  0  0  0  0  0  0
  139.5700   70.0090  227.4850 C   0  0  0  0  0  0  0  0  0  0  0  0
  133.4870   69.7110  226.0650 N   0  0  0  0  0  0  0  0  0  0  0  0
  132.7510   70.4110  224.9890 C   0  0  0  0  0  0  0  0  0  0  0  0
  132.1150   71.7380  225.4730 C   0  0  0  0  0  0  0  0  0  0  0  0
  132.0830   71.8140  227.0030 C   0  0  0  0  0  0  0  0  0  0  0  0
  133.5000   71.6630  227.5890 C   0  0  0  0  0  0  0  0  0  0  0  0
  134.3550   70.6470  226.7970 C   0  0  0  0  0  0  0  0  0  0  0  0
  134.7582   70.8393  223.9720 H   0  0  0  0  0  0  0  0  0  0  0  0
  135.7716   72.5921  222.5170 H   0  0  0  0  0  0  0  0  0  0  0  0
  140.8457   73.0412  221.1442 H   0  0  0  0  0  0  0  0  0  0  0  0
  139.7105   71.0012  223.3209 H   0  0  0  0  0  0  0  0  0  0  0  0
  141.1016   70.8457  224.5401 H   0  0  0  0  0  0  0  0  0  0  0  0
  142.1382   72.5576  226.0375 H   0  0  0  0  0  0  0  0  0  0  0  0
  141.5663   72.6048  228.4670 H   0  0  0  0  0  0  0  0  0  0  0  0
  139.9241   70.9681  229.3970 H   0  0  0  0  0  0  0  0  0  0  0  0
  138.8350   69.2991  227.8923 H   0  0  0  0  0  0  0  0  0  0  0  0
  133.4505   70.6331  224.1696 H   0  0  0  0  0  0  0  0  0  0  0  0
  131.9362   69.7510  224.6567 H   0  0  0  0  0  0  0  0  0  0  0  0
  132.7053   72.5810  225.0846 H   0  0  0  0  0  0  0  0  0  0  0  0
  131.0807   71.7834  225.1012 H   0  0  0  0  0  0  0  0  0  0  0  0
  131.6690   72.7867  227.3070 H   0  0  0  0  0  0  0  0  0  0  0  0
  131.4554   70.9945  227.3833 H   0  0  0  0  0  0  0  0  0  0  0  0
  134.0000   72.6425  227.5636 H   0  0  0  0  0  0  0  0  0  0  0  0
  133.4012   71.2903  228.6192 H   0  0  0  0  0  0  0  0  0  0  0  0
  134.9909   71.1880  226.0808 H   0  0  0  0  0  0  0  0  0  0  0  0
  134.9804   70.0791  227.5015 H   0  0  0  0  0  0  0  0  0  0  0  0
  1  2  2  0
  2  3  2  0
  2  4  1  0
  4  5  1  0
  5  6  2  0
  6  7  1  0
  7  8  2  0
  8  9  1  0
  9 10  1  0
 10 11  1  0
 10 12  1  0
  8 13  1  0
 13 14  2  0
 14 15  1  0
 15 16  1  0
 16 17  2  0
 17 18  1  0
 18 19  2  0
 19 20  1  0
 20 21  2  0
  2 22  1  0
 22 23  1  0
 23 24  1  0
 24 25  1  0
 25 26  1  0
 26 27  1  0
 14  5  1  0
 21 16  1  0
 27 22  1  0
  6 28  1  0
  7 29  1  0
 10 30  1  0
 13 31  1  0
 17 32  1  0
 18 33  1  0
 19 34  1  0
 20 35  1  0
 21 36  1  0
 23 37  1  0
 23 38  1  0
 24 39  1  0
 24 40  1  0
 25 41  1  0
 25 42  1  0
 26 43  1  0
 26 44  1  0
 27 45  1  0
 27 46  1  0
M  CHG  1   4  -1
M  END
>  <UniqueID>  (32) 
29

>  <SMILES>  (32) 
O=S(=O)([N-]c1ccc(SC(F)F)cc1Sc1ccccc1)N1CCCCC1

>  <Energy>  (32) 
41.498957132325835

>  <Genealogy>  (32) 
O=S(=O)([N-]c1ccc(SC(F)F)cc1Sc1ccccc1)N1CCCCC1 (protonated)
O=S(=O)([N-]c1ccc(SC(F)F)cc1Sc1ccccc1)N1CCCCC1 (3D coordinates assigned)
O=S(=O)([N-]c1ccc(SC(F)F)cc1Sc1ccccc1)N1CCCCC1 (nonaromatic ring conformer: 41.498957132325835 kcal/mol)

>  <smiles>  (32) 
O=S(=O)(Nc1ccc(SC(F)F)cc1Sc1ccccc1)N1CCCCC1

>  <score_type>  (32) 
oracle

>  <origin>  (32) 
autodockgpu

>  <m_score__min__energy>  (32) 
-6.96

>  <m_primary>  (32) 
energy

>  <meeko>  (32) 
{"free_energy": -6.81, "intermolecular_energy": -8.9, "internal_energy": -1.41, "cluster_size": 7, "cluster_id": 3, "rank_in_cluster": 1}

>  <energy>  (32) 
-6.74

>  <cluster_rmsd>  (32) 
0.38

>  <rmsd>  (32) 
271.92

>  <cluster>  (32) 
3

$$$$
RCYZJXIDXHYHGN-UHFFFAOYNA-N
     RDKit          3D

 46 48  0  0  0  0  0  0  0  0999 V2000
  134.3500   67.3650  226.1610 O   0  0  0  0  0  0  0  0  0  0  0  0
  134.6530   68.5170  225.2410 S   0  0  0  0  0  0  0  0  0  0  0  0
  134.3070   68.1410  223.8250 O   0  0  0  0  0  0  0  0  0  0  0  0
  136.3410   68.9040  225.3370 N   0  0  0  0  0  0  0  0  0  0  0  0
  137.1360   69.4310  224.2650 C   0  0  0  0  0  0  0  0  0  0  0  0
  136.5660   70.1930  223.2280 C   0  0  0  0  0  0  0  0  0  0  0  0
  137.3700   70.7120  222.2090 C   0  0  0  0  0  0  0  0  0  0  0  0
  138.7480   70.4840  222.2150 C   0  0  0  0  0  0  0  0  0  0  0  0
  139.7710   71.1340  220.8910 S   0  0  0  0  0  0  0  0  0  0  0  0
  140.8110   72.1590  221.9840 C   0  0  0  0  0  0  0  0  0  0  0  0
  142.0120   72.4490  221.3650 F   0  0  0  0  0  0  0  0  0  0  0  0
  140.1550   73.3330  222.3100 F   0  0  0  0  0  0  0  0  0  0  0  0
  139.3220   69.7180  223.2340 C   0  0  0  0  0  0  0  0  0  0  0  0
  138.5230   69.1890  224.2560 C   0  0  0  0  0  0  0  0  0  0  0  0
  139.2930   68.1840  225.5320 S   0  0  0  0  0  0  0  0  0  0  0  0
  139.9700   69.6120  226.3790 C   0  0  0  0  0  0  0  0  0  0  0  0
  139.5750   69.9000  227.6920 C   0  0  0  0  0  0  0  0  0  0  0  0
  140.1080   71.0110  228.3550 C   0  0  0  0  0  0  0  0  0  0  0  0
  141.0160   71.8490  227.7000 C   0  0  0  0  0  0  0  0  0  0  0  0
  141.4020   71.5690  226.3850 C   0  0  0  0  0  0  0  0  0  0  0  0
  140.8880   70.4480  225.7280 C   0  0  0  0  0  0  0  0  0  0  0  0
  133.7120   69.9130  225.7030 N   0  0  0  0  0  0  0  0  0  0  0  0
  133.6350   70.8590  224.5670 C   0  0  0  0  0  0  0  0  0  0  0  0
  133.0800   72.2420  224.9860 C   0  0  0  0  0  0  0  0  0  0  0  0
  132.4080   72.1790  226.3610 C   0  0  0  0  0  0  0  0  0  0  0  0
  133.3900   71.6610  227.4280 C   0  0  0  0  0  0  0  0  0  0  0  0
  134.3220   70.5570  226.8770 C   0  0  0  0  0  0  0  0  0  0  0  0
  135.4822   70.3811  223.2193 H   0  0  0  0  0  0  0  0  0  0  0  0
  136.9157   71.3021  221.3994 H   0  0  0  0  0  0  0  0  0  0  0  0
  141.0102   71.5946  222.9069 H   0  0  0  0  0  0  0  0  0  0  0  0
  140.4058   69.5298  223.2333 H   0  0  0  0  0  0  0  0  0  0  0  0
  138.8460   69.2528  228.2016 H   0  0  0  0  0  0  0  0  0  0  0  0
  139.8125   71.2255  229.3926 H   0  0  0  0  0  0  0  0  0  0  0  0
  141.4265   72.7279  228.2187 H   0  0  0  0  0  0  0  0  0  0  0  0
  142.1109   72.2320  225.8675 H   0  0  0  0  0  0  0  0  0  0  0  0
  141.2040   70.2213  224.6990 H   0  0  0  0  0  0  0  0  0  0  0  0
  134.6444   70.9948  224.1516 H   0  0  0  0  0  0  0  0  0  0  0  0
  132.9461   70.4332  223.8226 H   0  0  0  0  0  0  0  0  0  0  0  0
  133.9091   72.9639  225.0252 H   0  0  0  0  0  0  0  0  0  0  0  0
  132.3278   72.5528  224.2460 H   0  0  0  0  0  0  0  0  0  0  0  0
  132.0684   73.1867  226.6426 H   0  0  0  0  0  0  0  0  0  0  0  0
  131.5538   71.4883  226.3039 H   0  0  0  0  0  0  0  0  0  0  0  0
  134.0061   72.5015  227.7803 H   0  0  0  0  0  0  0  0  0  0  0  0
  132.7994   71.2263  228.2479 H   0  0  0  0  0  0  0  0  0  0  0  0
  135.2835   71.0054  226.5863 H   0  0  0  0  0  0  0  0  0  0  0  0
  134.4807   69.7995  227.6587 H   0  0  0  0  0  0  0  0  0  0  0  0
  1  2  2  0
  2  3  2  0
  2  4  1  0
  4  5  1  0
  5  6  2  0
  6  7  1  0
  7  8  2  0
  8  9  1  0
  9 10  1  0
 10 11  1  0
 10 12  1  0
  8 13  1  0
 13 14  2  0
 14 15  1  0
 15 16  1  0
 16 17  2  0
 17 18  1  0
 18 19  2  0
 19 20  1  0
 20 21  2  0
  2 22  1  0
 22 23  1  0
 23 24  1  0
 24 25  1  0
 25 26  1  0
 26 27  1  0
 14  5  1  0
 21 16  1  0
 27 22  1  0
  6 28  1  0
  7 29  1  0
 10 30  1  0
 13 31  1  0
 17 32  1  0
 18 33  1  0
 19 34  1  0
 20 35  1  0
 21 36  1  0
 23 37  1  0
 23 38  1  0
 24 39  1  0
 24 40  1  0
 25 41  1  0
 25 42  1  0
 26 43  1  0
 26 44  1  0
 27 45  1  0
 27 46  1  0
M  CHG  1   4  -1
M  END
>  <UniqueID>  (33) 
29

>  <SMILES>  (33) 
O=S(=O)([N-]c1ccc(SC(F)F)cc1Sc1ccccc1)N1CCCCC1

>  <Energy>  (33) 
41.498957132325835

>  <Genealogy>  (33) 
O=S(=O)([N-]c1ccc(SC(F)F)cc1Sc1ccccc1)N1CCCCC1 (protonated)
O=S(=O)([N-]c1ccc(SC(F)F)cc1Sc1ccccc1)N1CCCCC1 (3D coordinates assigned)
O=S(=O)([N-]c1ccc(SC(F)F)cc1Sc1ccccc1)N1CCCCC1 (nonaromatic ring conformer: 41.498957132325835 kcal/mol)

>  <smiles>  (33) 
O=S(=O)(Nc1ccc(SC(F)F)cc1Sc1ccccc1)N1CCCCC1

>  <score_type>  (33) 
oracle

>  <origin>  (33) 
autodockgpu

>  <m_score__min__energy>  (33) 
-6.96

>  <m_primary>  (33) 
energy

>  <meeko>  (33) 
{"free_energy": -6.65, "intermolecular_energy": -8.74, "internal_energy": -1.47, "cluster_size": 7, "cluster_id": 3, "rank_in_cluster": 7}

>  <energy>  (33) 
-6.65

>  <cluster_rmsd>  (33) 
1.0

>  <rmsd>  (33) 
271.92

>  <cluster>  (33) 
3

$$$$
RCYZJXIDXHYHGN-UHFFFAOYNA-N
     RDKit          3D

 46 48  0  0  0  0  0  0  0  0999 V2000
  140.1950   74.8890  219.5710 O   0  0  0  0  0  0  0  0  0  0  0  0
  140.5180   74.0130  220.7520 S   0  0  0  0  0  0  0  0  0  0  0  0
  139.8300   72.6830  220.6010 O   0  0  0  0  0  0  0  0  0  0  0  0
  139.9720   74.7810  222.2080 N   0  0  0  0  0  0  0  0  0  0  0  0
  139.1590   75.9620  222.2710 C   0  0  0  0  0  0  0  0  0  0  0  0
  137.8260   75.9180  222.7210 C   0  0  0  0  0  0  0  0  0  0  0  0
  137.0660   77.0890  222.7940 C   0  0  0  0  0  0  0  0  0  0  0  0
  137.6250   78.3150  222.4240 C   0  0  0  0  0  0  0  0  0  0  0  0
  136.6350   79.8110  222.4960 S   0  0  0  0  0  0  0  0  0  0  0  0
  137.8730   80.7730  223.4280 C   0  0  0  0  0  0  0  0  0  0  0  0
  138.5000   79.9690  224.3610 F   0  0  0  0  0  0  0  0  0  0  0  0
  138.8120   81.3120  222.5660 F   0  0  0  0  0  0  0  0  0  0  0  0
  138.9440   78.3670  221.9630 C   0  0  0  0  0  0  0  0  0  0  0  0
  139.7110   77.1980  221.8820 C   0  0  0  0  0  0  0  0  0  0  0  0
  141.3930   77.3000  221.2560 S   0  0  0  0  0  0  0  0  0  0  0  0
  141.7170   78.8410  222.1130 C   0  0  0  0  0  0  0  0  0  0  0  0
  141.9360   78.8410  223.4970 C   0  0  0  0  0  0  0  0  0  0  0  0
  142.1950   80.0440  224.1640 C   0  0  0  0  0  0  0  0  0  0  0  0
  142.2120   81.2490  223.4560 C   0  0  0  0  0  0  0  0  0  0  0  0
  141.9820   81.2520  222.0760 C   0  0  0  0  0  0  0  0  0  0  0  0
  141.7440   80.0500  221.4040 C   0  0  0  0  0  0  0  0  0  0  0  0
  142.2420   73.7520  220.8480 N   0  0  0  0  0  0  0  0  0  0  0  0
  142.9490   74.8100  220.0930 C   0  0  0  0  0  0  0  0  0  0  0  0
  144.4470   74.4840  219.8800 C   0  0  0  0  0  0  0  0  0  0  0  0
  144.9080   73.3550  220.8070 C   0  0  0  0  0  0  0  0  0  0  0  0
  144.0580   72.0880  220.5930 C   0  0  0  0  0  0  0  0  0  0  0  0
  142.5740   72.4210  220.3170 C   0  0  0  0  0  0  0  0  0  0  0  0
  137.3799   74.9570  223.0168 H   0  0  0  0  0  0  0  0  0  0  0  0
  136.0241   77.0451  223.1440 H   0  0  0  0  0  0  0  0  0  0  0  0
  137.3569   81.5922  223.9501 H   0  0  0  0  0  0  0  0  0  0  0  0
  139.3813   79.3306  221.6625 H   0  0  0  0  0  0  0  0  0  0  0  0
  141.9044   77.8960  224.0591 H   0  0  0  0  0  0  0  0  0  0  0  0
  142.3855   80.0411  225.2474 H   0  0  0  0  0  0  0  0  0  0  0  0
  142.4061   82.1945  223.9836 H   0  0  0  0  0  0  0  0  0  0  0  0
  141.9885   82.2009  221.5197 H   0  0  0  0  0  0  0  0  0  0  0  0
  141.5776   80.0526  220.3167 H   0  0  0  0  0  0  0  0  0  0  0  0
  142.4690   74.9228  219.1097 H   0  0  0  0  0  0  0  0  0  0  0  0
  142.8886   75.7379  220.6806 H   0  0  0  0  0  0  0  0  0  0  0  0
  144.6017   74.1757  218.8355 H   0  0  0  0  0  0  0  0  0  0  0  0
  145.0347   75.3847  220.1109 H   0  0  0  0  0  0  0  0  0  0  0  0
  145.9619   73.1220  220.5947 H   0  0  0  0  0  0  0  0  0  0  0  0
  144.7907   73.6856  221.8496 H   0  0  0  0  0  0  0  0  0  0  0  0
  144.4618   71.5312  219.7346 H   0  0  0  0  0  0  0  0  0  0  0  0
  144.1044   71.4902  221.5152 H   0  0  0  0  0  0  0  0  0  0  0  0
  142.3951   72.4083  219.2317 H   0  0  0  0  0  0  0  0  0  0  0  0
  141.9408   71.6701  220.8122 H   0  0  0  0  0  0  0  0  0  0  0  0
  1  2  2  0
  2  3  2  0
  2  4  1  0
  4  5  1  0
  5  6  2  0
  6  7  1  0
  7  8  2  0
  8  9  1  0
  9 10  1  0
 10 11  1  0
 10 12  1  0
  8 13  1  0
 13 14  2  0
 14 15  1  0
 15 16  1  0
 16 17  2  0
 17 18  1  0
 18 19  2  0
 19 20  1  0
 20 21  2  0
  2 22  1  0
 22 23  1  0
 23 24  1  0
 24 25  1  0
 25 26  1  0
 26 27  1  0
 14  5  1  0
 21 16  1  0
 27 22  1  0
  6 28  1  0
  7 29  1  0
 10 30  1  0
 13 31  1  0
 17 32  1  0
 18 33  1  0
 19 34  1  0
 20 35  1  0
 21 36  1  0
 23 37  1  0
 23 38  1  0
 24 39  1  0
 24 40  1  0
 25 41  1  0
 25 42  1  0
 26 43  1  0
 26 44  1  0
 27 45  1  0
 27 46  1  0
M  CHG  1   4  -1
M  END
>  <UniqueID>  (34) 
29

>  <SMILES>  (34) 
O=S(=O)([N-]c1ccc(SC(F)F)cc1Sc1ccccc1)N1CCCCC1

>  <Energy>  (34) 
41.498957132325835

>  <Genealogy>  (34) 
O=S(=O)([N-]c1ccc(SC(F)F)cc1Sc1ccccc1)N1CCCCC1 (protonated)
O=S(=O)([N-]c1ccc(SC(F)F)cc1Sc1ccccc1)N1CCCCC1 (3D coordinates assigned)
O=S(=O)([N-]c1ccc(SC(F)F)cc1Sc1ccccc1)N1CCCCC1 (nonaromatic ring conformer: 41.498957132325835 kcal/mol)

>  <smiles>  (34) 
O=S(=O)(Nc1ccc(SC(F)F)cc1Sc1ccccc1)N1CCCCC1

>  <score_type>  (34) 
oracle

>  <origin>  (34) 
autodockgpu

>  <m_score__min__energy>  (34) 
-6.96

>  <m_primary>  (34) 
energy

>  <meeko>  (34) 
{"free_energy": -5.93, "intermolecular_energy": -8.02, "internal_energy": -1.75, "cluster_size": 5, "cluster_id": 4, "rank_in_cluster": 3}

>  <energy>  (34) 
-6.16

>  <cluster_rmsd>  (34) 
0.0

>  <rmsd>  (34) 
273.13

>  <cluster>  (34) 
4

$$$$
RCYZJXIDXHYHGN-UHFFFAOYNA-N
     RDKit          3D

 46 48  0  0  0  0  0  0  0  0999 V2000
  140.5260   82.6880  221.5650 O   0  0  0  0  0  0  0  0  0  0  0  0
  139.7800   81.8360  220.5750 S   0  0  0  0  0  0  0  0  0  0  0  0
  139.4600   82.6440  219.3470 O   0  0  0  0  0  0  0  0  0  0  0  0
  138.3040   81.2740  221.2930 N   0  0  0  0  0  0  0  0  0  0  0  0
  137.9170   81.4680  222.6610 C   0  0  0  0  0  0  0  0  0  0  0  0
  137.3290   82.6690  223.0990 C   0  0  0  0  0  0  0  0  0  0  0  0
  136.9420   82.8210  224.4340 C   0  0  0  0  0  0  0  0  0  0  0  0
  137.1320   81.7780  225.3440 C   0  0  0  0  0  0  0  0  0  0  0  0
  136.6540   81.9880  227.0620 S   0  0  0  0  0  0  0  0  0  0  0  0
  134.9740   81.3130  226.8420 C   0  0  0  0  0  0  0  0  0  0  0  0
  134.0500   82.3380  226.7960 F   0  0  0  0  0  0  0  0  0  0  0  0
  134.9050   80.5640  225.6800 F   0  0  0  0  0  0  0  0  0  0  0  0
  137.7270   80.5860  224.9220 C   0  0  0  0  0  0  0  0  0  0  0  0
  138.1230   80.4270  223.5880 C   0  0  0  0  0  0  0  0  0  0  0  0
  138.9130   78.8910  223.0890 S   0  0  0  0  0  0  0  0  0  0  0  0
  140.5600   79.5830  223.2340 C   0  0  0  0  0  0  0  0  0  0  0  0
  141.6640   78.8730  222.7440 C   0  0  0  0  0  0  0  0  0  0  0  0
  142.9490   79.4160  222.8520 C   0  0  0  0  0  0  0  0  0  0  0  0
  143.1370   80.6550  223.4700 C   0  0  0  0  0  0  0  0  0  0  0  0
  142.0370   81.3600  223.9710 C   0  0  0  0  0  0  0  0  0  0  0  0
  140.7500   80.8300  223.8450 C   0  0  0  0  0  0  0  0  0  0  0  0
  140.7560   80.4640  220.1120 N   0  0  0  0  0  0  0  0  0  0  0  0
  141.6900   80.8590  219.0350 C   0  0  0  0  0  0  0  0  0  0  0  0
  142.3740   79.6400  218.3680 C   0  0  0  0  0  0  0  0  0  0  0  0
  142.2070   78.3760  219.2170 C   0  0  0  0  0  0  0  0  0  0  0  0
  140.7170   78.0740  219.4650 C   0  0  0  0  0  0  0  0  0  0  0  0
  139.8870   79.3620  219.6710 C   0  0  0  0  0  0  0  0  0  0  0  0
  137.1729   83.4929  222.3871 H   0  0  0  0  0  0  0  0  0  0  0  0
  136.4866   83.7646  224.7688 H   0  0  0  0  0  0  0  0  0  0  0  0
  134.7439   80.6624  227.6986 H   0  0  0  0  0  0  0  0  0  0  0  0
  137.8851   79.7687  225.6410 H   0  0  0  0  0  0  0  0  0  0  0  0
  141.5205   77.8887  222.2744 H   0  0  0  0  0  0  0  0  0  0  0  0
  143.8128   78.8665  222.4497 H   0  0  0  0  0  0  0  0  0  0  0  0
  144.1490   81.0759  223.5626 H   0  0  0  0  0  0  0  0  0  0  0  0
  142.1854   82.3319  224.4643 H   0  0  0  0  0  0  0  0  0  0  0  0
  139.8848   81.3924  224.2260 H   0  0  0  0  0  0  0  0  0  0  0  0
  141.1297   81.4130  218.2675 H   0  0  0  0  0  0  0  0  0  0  0  0
  142.4782   81.4795  219.4864 H   0  0  0  0  0  0  0  0  0  0  0  0
  141.9208   79.4708  217.3801 H   0  0  0  0  0  0  0  0  0  0  0  0
  143.4486   79.8543  218.2711 H   0  0  0  0  0  0  0  0  0  0  0  0
  142.6642   77.5253  218.6904 H   0  0  0  0  0  0  0  0  0  0  0  0
  142.6996   78.5365  220.1874 H   0  0  0  0  0  0  0  0  0  0  0  0
  140.3166   77.5295  218.5972 H   0  0  0  0  0  0  0  0  0  0  0  0
  140.6423   77.4733  220.3835 H   0  0  0  0  0  0  0  0  0  0  0  0
  139.4040   79.6382  218.7221 H   0  0  0  0  0  0  0  0  0  0  0  0
  139.1245   79.1770  220.4420 H   0  0  0  0  0  0  0  0  0  0  0  0
  1  2  2  0
  2  3  2  0
  2  4  1  0
  4  5  1  0
  5  6  2  0
  6  7  1  0
  7  8  2  0
  8  9  1  0
  9 10  1  0
 10 11  1  0
 10 12  1  0
  8 13  1  0
 13 14  2  0
 14 15  1  0
 15 16  1  0
 16 17  2  0
 17 18  1  0
 18 19  2  0
 19 20  1  0
 20 21  2  0
  2 22  1  0
 22 23  1  0
 23 24  1  0
 24 25  1  0
 25 26  1  0
 26 27  1  0
 14  5  1  0
 21 16  1  0
 27 22  1  0
  6 28  1  0
  7 29  1  0
 10 30  1  0
 13 31  1  0
 17 32  1  0
 18 33  1  0
 19 34  1  0
 20 35  1  0
 21 36  1  0
 23 37  1  0
 23 38  1  0
 24 39  1  0
 24 40  1  0
 25 41  1  0
 25 42  1  0
 26 43  1  0
 26 44  1  0
 27 45  1  0
 27 46  1  0
M  CHG  1   4  -1
M  END
>  <UniqueID>  (35) 
29

>  <SMILES>  (35) 
O=S(=O)([N-]c1ccc(SC(F)F)cc1Sc1ccccc1)N1CCCCC1

>  <Energy>  (35) 
41.498957132325835

>  <Genealogy>  (35) 
O=S(=O)([N-]c1ccc(SC(F)F)cc1Sc1ccccc1)N1CCCCC1 (protonated)
O=S(=O)([N-]c1ccc(SC(F)F)cc1Sc1ccccc1)N1CCCCC1 (3D coordinates assigned)
O=S(=O)([N-]c1ccc(SC(F)F)cc1Sc1ccccc1)N1CCCCC1 (nonaromatic ring conformer: 41.498957132325835 kcal/mol)

>  <smiles>  (35) 
O=S(=O)(Nc1ccc(SC(F)F)cc1Sc1ccccc1)N1CCCCC1

>  <score_type>  (35) 
oracle

>  <origin>  (35) 
autodockgpu

>  <m_score__min__energy>  (35) 
-6.96

>  <m_primary>  (35) 
energy

>  <meeko>  (35) 
{"free_energy": -5.18, "intermolecular_energy": -7.27, "internal_energy": -2.38, "cluster_size": 1, "cluster_id": 6, "rank_in_cluster": 1}

>  <energy>  (35) 
-6.07

>  <cluster_rmsd>  (35) 
0.33

>  <rmsd>  (35) 
273.02

>  <cluster>  (35) 
4

$$$$
RCYZJXIDXHYHGN-UHFFFAOYNA-N
     RDKit          3D

 46 48  0  0  0  0  0  0  0  0999 V2000
  140.1920   72.9000  219.9880 O   0  0  0  0  0  0  0  0  0  0  0  0
  140.8840   73.8150  220.9630 S   0  0  0  0  0  0  0  0  0  0  0  0
  140.3400   73.5880  222.3470 O   0  0  0  0  0  0  0  0  0  0  0  0
  140.6110   75.4640  220.5020 N   0  0  0  0  0  0  0  0  0  0  0  0
  139.7660   76.3940  221.1960 C   0  0  0  0  0  0  0  0  0  0  0  0
  138.5030   76.0180  221.6890 C   0  0  0  0  0  0  0  0  0  0  0  0
  137.7120   76.9390  222.3810 C   0  0  0  0  0  0  0  0  0  0  0  0
  138.1710   78.2410  222.5940 C   0  0  0  0  0  0  0  0  0  0  0  0
  137.1400   79.4260  223.4630 S   0  0  0  0  0  0  0  0  0  0  0  0
  138.5060   80.5730  223.8450 C   0  0  0  0  0  0  0  0  0  0  0  0
  138.6830   81.4660  222.8070 F   0  0  0  0  0  0  0  0  0  0  0  0
  138.2430   81.2600  225.0180 F   0  0  0  0  0  0  0  0  0  0  0  0
  139.4190   78.6280  222.0970 C   0  0  0  0  0  0  0  0  0  0  0  0
  140.2160   77.7130  221.3970 C   0  0  0  0  0  0  0  0  0  0  0  0
  141.8020   78.2560  220.7470 S   0  0  0  0  0  0  0  0  0  0  0  0
  141.9550   79.5670  221.9600 C   0  0  0  0  0  0  0  0  0  0  0  0
  141.6110   80.8810  221.6180 C   0  0  0  0  0  0  0  0  0  0  0  0
  141.7240   81.9040  222.5670 C   0  0  0  0  0  0  0  0  0  0  0  0
  142.2040   81.6190  223.8490 C   0  0  0  0  0  0  0  0  0  0  0  0
  142.5590   80.3100  224.1890 C   0  0  0  0  0  0  0  0  0  0  0  0
  142.4270   79.2840  223.2490 C   0  0  0  0  0  0  0  0  0  0  0  0
  142.6000   73.4930  220.9680 N   0  0  0  0  0  0  0  0  0  0  0  0
  143.3310   74.6830  220.4790 C   0  0  0  0  0  0  0  0  0  0  0  0
  144.8180   74.3790  220.1710 C   0  0  0  0  0  0  0  0  0  0  0  0
  145.2540   73.0490  220.7930 C   0  0  0  0  0  0  0  0  0  0  0  0
  144.3660   71.8930  220.2930 C   0  0  0  0  0  0  0  0  0  0  0  0
  142.8890   72.3210  220.1270 C   0  0  0  0  0  0  0  0  0  0  0  0
  138.1362   74.9934  221.5288 H   0  0  0  0  0  0  0  0  0  0  0  0
  136.7241   76.6375  222.7594 H   0  0  0  0  0  0  0  0  0  0  0  0
  139.4284   79.9879  223.9748 H   0  0  0  0  0  0  0  0  0  0  0  0
  139.7769   79.6559  222.2563 H   0  0  0  0  0  0  0  0  0  0  0  0
  141.2520   81.1092  220.6036 H   0  0  0  0  0  0  0  0  0  0  0  0
  141.4351   82.9323  222.3041 H   0  0  0  0  0  0  0  0  0  0  0  0
  142.3024   82.4253  224.5907 H   0  0  0  0  0  0  0  0  0  0  0  0
  142.9421   80.0877  225.1959 H   0  0  0  0  0  0  0  0  0  0  0  0
  142.6941   78.2523  223.5214 H   0  0  0  0  0  0  0  0  0  0  0  0
  142.8462   75.0417  219.5591 H   0  0  0  0  0  0  0  0  0  0  0  0
  143.3024   75.4433  221.2735 H   0  0  0  0  0  0  0  0  0  0  0  0
  144.9548   74.3267  219.0808 H   0  0  0  0  0  0  0  0  0  0  0  0
  145.4334   75.1824  220.6021 H   0  0  0  0  0  0  0  0  0  0  0  0
  146.2991   72.8468  220.5157 H   0  0  0  0  0  0  0  0  0  0  0  0
  145.1548   73.1220  221.8861 H   0  0  0  0  0  0  0  0  0  0  0  0
  144.7467   71.5491  219.3200 H   0  0  0  0  0  0  0  0  0  0  0  0
  144.4027   71.0898  221.0437 H   0  0  0  0  0  0  0  0  0  0  0  0
  142.7009   72.5750  219.0734 H   0  0  0  0  0  0  0  0  0  0  0  0
  142.2384   71.4895  220.4358 H   0  0  0  0  0  0  0  0  0  0  0  0
  1  2  2  0
  2  3  2  0
  2  4  1  0
  4  5  1  0
  5  6  2  0
  6  7  1  0
  7  8  2  0
  8  9  1  0
  9 10  1  0
 10 11  1  0
 10 12  1  0
  8 13  1  0
 13 14  2  0
 14 15  1  0
 15 16  1  0
 16 17  2  0
 17 18  1  0
 18 19  2  0
 19 20  1  0
 20 21  2  0
  2 22  1  0
 22 23  1  0
 23 24  1  0
 24 25  1  0
 25 26  1  0
 26 27  1  0
 14  5  1  0
 21 16  1  0
 27 22  1  0
  6 28  1  0
  7 29  1  0
 10 30  1  0
 13 31  1  0
 17 32  1  0
 18 33  1  0
 19 34  1  0
 20 35  1  0
 21 36  1  0
 23 37  1  0
 23 38  1  0
 24 39  1  0
 24 40  1  0
 25 41  1  0
 25 42  1  0
 26 43  1  0
 26 44  1  0
 27 45  1  0
 27 46  1  0
M  CHG  1   4  -1
M  END
>  <UniqueID>  (36) 
29

>  <SMILES>  (36) 
O=S(=O)([N-]c1ccc(SC(F)F)cc1Sc1ccccc1)N1CCCCC1

>  <Energy>  (36) 
41.498957132325835

>  <Genealogy>  (36) 
O=S(=O)([N-]c1ccc(SC(F)F)cc1Sc1ccccc1)N1CCCCC1 (protonated)
O=S(=O)([N-]c1ccc(SC(F)F)cc1Sc1ccccc1)N1CCCCC1 (3D coordinates assigned)
O=S(=O)([N-]c1ccc(SC(F)F)cc1Sc1ccccc1)N1CCCCC1 (nonaromatic ring conformer: 41.498957132325835 kcal/mol)

>  <smiles>  (36) 
O=S(=O)(Nc1ccc(SC(F)F)cc1Sc1ccccc1)N1CCCCC1

>  <score_type>  (36) 
oracle

>  <origin>  (36) 
autodockgpu

>  <m_score__min__energy>  (36) 
-6.96

>  <m_primary>  (36) 
energy

>  <meeko>  (36) 
{"free_energy": -6.16, "intermolecular_energy": -8.25, "internal_energy": -1.59, "cluster_size": 5, "cluster_id": 4, "rank_in_cluster": 1}

>  <energy>  (36) 
-5.93

>  <cluster_rmsd>  (36) 
0.91

>  <rmsd>  (36) 
272.89

>  <cluster>  (36) 
4

$$$$
RCYZJXIDXHYHGN-UHFFFAOYNA-N
     RDKit          3D

 46 48  0  0  0  0  0  0  0  0999 V2000
  134.2380   67.1810  226.2700 O   0  0  0  0  0  0  0  0  0  0  0  0
  134.3730   68.4070  225.4070 S   0  0  0  0  0  0  0  0  0  0  0  0
  133.8720   68.1100  224.0200 O   0  0  0  0  0  0  0  0  0  0  0  0
  136.0410   68.8770  225.3280 N   0  0  0  0  0  0  0  0  0  0  0  0
  136.5800   69.8880  224.4640 C   0  0  0  0  0  0  0  0  0  0  0  0
  135.7590   70.8560  223.8570 C   0  0  0  0  0  0  0  0  0  0  0  0
  136.3160   71.8430  223.0390 C   0  0  0  0  0  0  0  0  0  0  0  0
  137.6950   71.8790  222.8200 C   0  0  0  0  0  0  0  0  0  0  0  0
  138.4020   73.1340  221.7490 S   0  0  0  0  0  0  0  0  0  0  0  0
  140.0900   72.4460  221.7910 C   0  0  0  0  0  0  0  0  0  0  0  0
  140.8670   73.0280  220.8080 F   0  0  0  0  0  0  0  0  0  0  0  0
  140.6650   72.6570  223.0320 F   0  0  0  0  0  0  0  0  0  0  0  0
  138.5190   70.9140  223.4080 C   0  0  0  0  0  0  0  0  0  0  0  0
  137.9680   69.9190  224.2260 C   0  0  0  0  0  0  0  0  0  0  0  0
  139.0540   68.6770  224.9410 S   0  0  0  0  0  0  0  0  0  0  0  0
  139.8180   69.8550  226.0560 C   0  0  0  0  0  0  0  0  0  0  0  0
  140.7290   70.7980  225.5630 C   0  0  0  0  0  0  0  0  0  0  0  0
  141.3210   71.7200  226.4330 C   0  0  0  0  0  0  0  0  0  0  0  0
  141.0220   71.6880  227.7980 C   0  0  0  0  0  0  0  0  0  0  0  0
  140.1220   70.7400  228.2940 C   0  0  0  0  0  0  0  0  0  0  0  0
  139.5140   69.8300  227.4240 C   0  0  0  0  0  0  0  0  0  0  0  0
  133.4350   69.7170  226.0800 N   0  0  0  0  0  0  0  0  0  0  0  0
  132.7050   70.4130  224.9980 C   0  0  0  0  0  0  0  0  0  0  0  0
  132.0950   71.7580  225.4660 C   0  0  0  0  0  0  0  0  0  0  0  0
  132.0730   71.8570  226.9940 C   0  0  0  0  0  0  0  0  0  0  0  0
  133.4900   71.6910  227.5750 C   0  0  0  0  0  0  0  0  0  0  0  0
  134.3230   70.6490  226.7940 C   0  0  0  0  0  0  0  0  0  0  0  0
  134.6724   70.8359  224.0272 H   0  0  0  0  0  0  0  0  0  0  0  0
  135.6661   72.5940  222.5661 H   0  0  0  0  0  0  0  0  0  0  0  0
  140.0307   71.3632  221.6064 H   0  0  0  0  0  0  0  0  0  0  0  0
  139.6039   70.9363  223.2275 H   0  0  0  0  0  0  0  0  0  0  0  0
  140.9789   70.8136  224.4919 H   0  0  0  0  0  0  0  0  0  0  0  0
  142.0229   72.4713  226.0421 H   0  0  0  0  0  0  0  0  0  0  0  0
  141.4946   72.4085  228.4818 H   0  0  0  0  0  0  0  0  0  0  0  0
  139.8921   70.7101  229.3693 H   0  0  0  0  0  0  0  0  0  0  0  0
  138.7960   69.0933  227.8137 H   0  0  0  0  0  0  0  0  0  0  0  0
  133.4033   70.6106  224.1713 H   0  0  0  0  0  0  0  0  0  0  0  0
  131.8771   69.7623  224.6801 H   0  0  0  0  0  0  0  0  0  0  0  0
  132.6977   72.5847  225.0620 H   0  0  0  0  0  0  0  0  0  0  0  0
  131.0596   71.8160  225.0993 H   0  0  0  0  0  0  0  0  0  0  0  0
  131.6769   72.8409  227.2857 H   0  0  0  0  0  0  0  0  0  0  0  0
  131.4341   71.0536  227.3895 H   0  0  0  0  0  0  0  0  0  0  0  0
  134.0063   72.6614  227.5322 H   0  0  0  0  0  0  0  0  0  0  0  0
  133.3906   71.3357  228.6113 H   0  0  0  0  0  0  0  0  0  0  0  0
  134.9644   71.1684  226.0667 H   0  0  0  0  0  0  0  0  0  0  0  0
  134.9421   70.0808  227.5038 H   0  0  0  0  0  0  0  0  0  0  0  0
  1  2  2  0
  2  3  2  0
  2  4  1  0
  4  5  1  0
  5  6  2  0
  6  7  1  0
  7  8  2  0
  8  9  1  0
  9 10  1  0
 10 11  1  0
 10 12  1  0
  8 13  1  0
 13 14  2  0
 14 15  1  0
 15 16  1  0
 16 17  2  0
 17 18  1  0
 18 19  2  0
 19 20  1  0
 20 21  2  0
  2 22  1  0
 22 23  1  0
 23 24  1  0
 24 25  1  0
 25 26  1  0
 26 27  1  0
 14  5  1  0
 21 16  1  0
 27 22  1  0
  6 28  1  0
  7 29  1  0
 10 30  1  0
 13 31  1  0
 17 32  1  0
 18 33  1  0
 19 34  1  0
 20 35  1  0
 21 36  1  0
 23 37  1  0
 23 38  1  0
 24 39  1  0
 24 40  1  0
 25 41  1  0
 25 42  1  0
 26 43  1  0
 26 44  1  0
 27 45  1  0
 27 46  1  0
M  CHG  1   4  -1
M  END
>  <UniqueID>  (37) 
29

>  <SMILES>  (37) 
O=S(=O)([N-]c1ccc(SC(F)F)cc1Sc1ccccc1)N1CCCCC1

>  <Energy>  (37) 
41.498957132325835

>  <Genealogy>  (37) 
O=S(=O)([N-]c1ccc(SC(F)F)cc1Sc1ccccc1)N1CCCCC1 (protonated)
O=S(=O)([N-]c1ccc(SC(F)F)cc1Sc1ccccc1)N1CCCCC1 (3D coordinates assigned)
O=S(=O)([N-]c1ccc(SC(F)F)cc1Sc1ccccc1)N1CCCCC1 (nonaromatic ring conformer: 41.498957132325835 kcal/mol)

>  <smiles>  (37) 
O=S(=O)(Nc1ccc(SC(F)F)cc1Sc1ccccc1)N1CCCCC1

>  <score_type>  (37) 
oracle

>  <origin>  (37) 
autodockgpu

>  <m_score__min__energy>  (37) 
-6.96

>  <m_primary>  (37) 
energy

>  <meeko>  (37) 
{"free_energy": -6.76, "intermolecular_energy": -8.84, "internal_energy": -1.56, "cluster_size": 7, "cluster_id": 3, "rank_in_cluster": 5}

>  <energy>  (37) 
-5.92

>  <cluster_rmsd>  (37) 
0.91

>  <rmsd>  (37) 
272.91

>  <cluster>  (37) 
4

$$$$
RCYZJXIDXHYHGN-UHFFFAOYNA-N
     RDKit          3D

 46 48  0  0  0  0  0  0  0  0999 V2000
  140.6980   72.2400  224.1060 O   0  0  0  0  0  0  0  0  0  0  0  0
  140.2230   72.2540  222.6780 S   0  0  0  0  0  0  0  0  0  0  0  0
  139.6330   73.5990  222.3510 O   0  0  0  0  0  0  0  0  0  0  0  0
  139.0140   71.0280  222.4600 N   0  0  0  0  0  0  0  0  0  0  0  0
  137.8810   70.8150  223.3150 C   0  0  0  0  0  0  0  0  0  0  0  0
  136.8250   71.7420  223.3860 C   0  0  0  0  0  0  0  0  0  0  0  0
  135.7240   71.4950  224.2110 C   0  0  0  0  0  0  0  0  0  0  0  0
  135.6610   70.3230  224.9690 C   0  0  0  0  0  0  0  0  0  0  0  0
  134.2550   70.0250  226.0440 S   0  0  0  0  0  0  0  0  0  0  0  0
  133.8260   68.4160  225.3000 C   0  0  0  0  0  0  0  0  0  0  0  0
  134.2810   67.3840  226.0990 F   0  0  0  0  0  0  0  0  0  0  0  0
  132.4560   68.3130  225.1330 F   0  0  0  0  0  0  0  0  0  0  0  0
  136.7110   69.4020  224.9150 C   0  0  0  0  0  0  0  0  0  0  0  0
  137.8210   69.6440  224.0950 C   0  0  0  0  0  0  0  0  0  0  0  0
  139.1660   68.4510  224.0740 S   0  0  0  0  0  0  0  0  0  0  0  0
  139.7210   68.9100  225.7160 C   0  0  0  0  0  0  0  0  0  0  0  0
  139.9460   67.9200  226.6810 C   0  0  0  0  0  0  0  0  0  0  0  0
  140.3860   68.2780  227.9610 C   0  0  0  0  0  0  0  0  0  0  0  0
  140.5770   69.6240  228.2850 C   0  0  0  0  0  0  0  0  0  0  0  0
  140.3420   70.6140  227.3260 C   0  0  0  0  0  0  0  0  0  0  0  0
  139.9240   70.2580  226.0410 C   0  0  0  0  0  0  0  0  0  0  0  0
  141.5610   71.9430  221.6000 N   0  0  0  0  0  0  0  0  0  0  0  0
  142.0280   73.2160  221.0080 C   0  0  0  0  0  0  0  0  0  0  0  0
  143.0030   72.9960  219.8260 C   0  0  0  0  0  0  0  0  0  0  0  0
  143.5300   71.5580  219.8000 C   0  0  0  0  0  0  0  0  0  0  0  0
  142.3690   70.5490  219.7190 C   0  0  0  0  0  0  0  0  0  0  0  0
  141.1450   71.0010  220.5500 C   0  0  0  0  0  0  0  0  0  0  0  0
  136.8660   72.6653  222.7896 H   0  0  0  0  0  0  0  0  0  0  0  0
  134.9039   72.2262  224.2637 H   0  0  0  0  0  0  0  0  0  0  0  0
  134.3104   68.3464  224.3149 H   0  0  0  0  0  0  0  0  0  0  0  0
  136.6657   68.4836  225.5187 H   0  0  0  0  0  0  0  0  0  0  0  0
  139.7771   66.8617  226.4333 H   0  0  0  0  0  0  0  0  0  0  0  0
  140.5816   67.4989  228.7125 H   0  0  0  0  0  0  0  0  0  0  0  0
  140.9122   69.9046  229.2944 H   0  0  0  0  0  0  0  0  0  0  0  0
  140.4862   71.6737  227.5832 H   0  0  0  0  0  0  0  0  0  0  0  0
  139.7540   71.0371  225.2833 H   0  0  0  0  0  0  0  0  0  0  0  0
  141.1547   73.7780  220.6453 H   0  0  0  0  0  0  0  0  0  0  0  0
  142.5687   73.7702  221.7894 H   0  0  0  0  0  0  0  0  0  0  0  0
  142.4752   73.2014  218.8830 H   0  0  0  0  0  0  0  0  0  0  0  0
  143.8579   73.6771  219.9495 H   0  0  0  0  0  0  0  0  0  0  0  0
  144.1814   71.4288  218.9230 H   0  0  0  0  0  0  0  0  0  0  0  0
  144.0927   71.3729  220.7269 H   0  0  0  0  0  0  0  0  0  0  0  0
  142.0640   70.4431  218.6674 H   0  0  0  0  0  0  0  0  0  0  0  0
  142.7228   69.5923  220.1307 H   0  0  0  0  0  0  0  0  0  0  0  0
  140.4184   71.4939  219.8873 H   0  0  0  0  0  0  0  0  0  0  0  0
  140.6870   70.1190  221.0214 H   0  0  0  0  0  0  0  0  0  0  0  0
  1  2  2  0
  2  3  2  0
  2  4  1  0
  4  5  1  0
  5  6  2  0
  6  7  1  0
  7  8  2  0
  8  9  1  0
  9 10  1  0
 10 11  1  0
 10 12  1  0
  8 13  1  0
 13 14  2  0
 14 15  1  0
 15 16  1  0
 16 17  2  0
 17 18  1  0
 18 19  2  0
 19 20  1  0
 20 21  2  0
  2 22  1  0
 22 23  1  0
 23 24  1  0
 24 25  1  0
 25 26  1  0
 26 27  1  0
 14  5  1  0
 21 16  1  0
 27 22  1  0
  6 28  1  0
  7 29  1  0
 10 30  1  0
 13 31  1  0
 17 32  1  0
 18 33  1  0
 19 34  1  0
 20 35  1  0
 21 36  1  0
 23 37  1  0
 23 38  1  0
 24 39  1  0
 24 40  1  0
 25 41  1  0
 25 42  1  0
 26 43  1  0
 26 44  1  0
 27 45  1  0
 27 46  1  0
M  CHG  1   4  -1
M  END
>  <UniqueID>  (38) 
29

>  <SMILES>  (38) 
O=S(=O)([N-]c1ccc(SC(F)F)cc1Sc1ccccc1)N1CCCCC1

>  <Energy>  (38) 
41.498957132325835

>  <Genealogy>  (38) 
O=S(=O)([N-]c1ccc(SC(F)F)cc1Sc1ccccc1)N1CCCCC1 (protonated)
O=S(=O)([N-]c1ccc(SC(F)F)cc1Sc1ccccc1)N1CCCCC1 (3D coordinates assigned)
O=S(=O)([N-]c1ccc(SC(F)F)cc1Sc1ccccc1)N1CCCCC1 (nonaromatic ring conformer: 41.498957132325835 kcal/mol)

>  <smiles>  (38) 
O=S(=O)(Nc1ccc(SC(F)F)cc1Sc1ccccc1)N1CCCCC1

>  <score_type>  (38) 
oracle

>  <origin>  (38) 
autodockgpu

>  <m_score__min__energy>  (38) 
-6.96

>  <m_primary>  (38) 
energy

>  <meeko>  (38) 
{"free_energy": -6.1, "intermolecular_energy": -8.19, "internal_energy": -1.55, "cluster_size": 3, "cluster_id": 1, "rank_in_cluster": 3}

>  <energy>  (38) 
-5.92

>  <cluster_rmsd>  (38) 
0.92

>  <rmsd>  (38) 
272.94

>  <cluster>  (38) 
4

$$$$
RCYZJXIDXHYHGN-UHFFFAOYNA-N
     RDKit          3D

 46 48  0  0  0  0  0  0  0  0999 V2000
  134.3630   67.1670  226.1350 O   0  0  0  0  0  0  0  0  0  0  0  0
  134.4930   68.4390  225.3420 S   0  0  0  0  0  0  0  0  0  0  0  0
  134.0510   68.2010  223.9230 O   0  0  0  0  0  0  0  0  0  0  0  0
  136.1490   68.9560  225.3480 N   0  0  0  0  0  0  0  0  0  0  0  0
  136.7220   69.9260  224.4580 C   0  0  0  0  0  0  0  0  0  0  0  0
  135.9270   70.8790  223.7950 C   0  0  0  0  0  0  0  0  0  0  0  0
  136.5150   71.8260  222.9520 C   0  0  0  0  0  0  0  0  0  0  0  0
  137.9000   71.8370  222.7650 C   0  0  0  0  0  0  0  0  0  0  0  0
  138.6470   73.0410  221.6630 S   0  0  0  0  0  0  0  0  0  0  0  0
  140.2870   72.2450  221.6480 C   0  0  0  0  0  0  0  0  0  0  0  0
  140.9550   72.5490  220.4770 F   0  0  0  0  0  0  0  0  0  0  0  0
  141.0340   72.6610  222.7370 F   0  0  0  0  0  0  0  0  0  0  0  0
  138.6970   70.8870  223.4100 C   0  0  0  0  0  0  0  0  0  0  0  0
  138.1150   69.9310  224.2520 C   0  0  0  0  0  0  0  0  0  0  0  0
  139.1680   68.7060  225.0400 S   0  0  0  0  0  0  0  0  0  0  0  0
  139.9200   69.9170  226.1280 C   0  0  0  0  0  0  0  0  0  0  0  0
  140.8570   70.8270  225.6210 C   0  0  0  0  0  0  0  0  0  0  0  0
  141.4390   71.7760  226.4690 C   0  0  0  0  0  0  0  0  0  0  0  0
  141.1050   71.8020  227.8260 C   0  0  0  0  0  0  0  0  0  0  0  0
  140.1790   70.8870  228.3360 C   0  0  0  0  0  0  0  0  0  0  0  0
  139.5800   69.9520  227.4870 C   0  0  0  0  0  0  0  0  0  0  0  0
  133.4960   69.6870  226.0450 N   0  0  0  0  0  0  0  0  0  0  0  0
  132.7130   70.3560  224.9830 C   0  0  0  0  0  0  0  0  0  0  0  0
  132.0380   71.6590  225.4770 C   0  0  0  0  0  0  0  0  0  0  0  0
  132.0330   71.7380  227.0060 C   0  0  0  0  0  0  0  0  0  0  0  0
  133.4650   71.6420  227.5650 C   0  0  0  0  0  0  0  0  0  0  0  0
  134.3420   70.6560  226.7590 C   0  0  0  0  0  0  0  0  0  0  0  0
  134.8367   70.8787  223.9410 H   0  0  0  0  0  0  0  0  0  0  0  0
  135.8859   72.5649  222.4341 H   0  0  0  0  0  0  0  0  0  0  0  0
  140.1467   71.1556  221.7078 H   0  0  0  0  0  0  0  0  0  0  0  0
  139.7861   70.8902  223.2556 H   0  0  0  0  0  0  0  0  0  0  0  0
  141.1350   70.7955  224.5572 H   0  0  0  0  0  0  0  0  0  0  0  0
  142.1604   72.5026  226.0670 H   0  0  0  0  0  0  0  0  0  0  0  0
  141.5708   72.5425  228.4928 H   0  0  0  0  0  0  0  0  0  0  0  0
  139.9218   70.9029  229.4054 H   0  0  0  0  0  0  0  0  0  0  0  0
  138.8404   69.2424  227.8864 H   0  0  0  0  0  0  0  0  0  0  0  0
  133.3871   70.6019  224.1492 H   0  0  0  0  0  0  0  0  0  0  0  0
  131.9169   69.6651  224.6685 H   0  0  0  0  0  0  0  0  0  0  0  0
  132.5888   72.5223  225.0754 H   0  0  0  0  0  0  0  0  0  0  0  0
  130.9956   71.6647  225.1257 H   0  0  0  0  0  0  0  0  0  0  0  0
  131.5887   72.6954  227.3159 H   0  0  0  0  0  0  0  0  0  0  0  0
  131.4444   70.8964  227.3999 H   0  0  0  0  0  0  0  0  0  0  0  0
  133.9274   72.6394  227.5276 H   0  0  0  0  0  0  0  0  0  0  0  0
  133.3999   71.2692  228.5979 H   0  0  0  0  0  0  0  0  0  0  0  0
  134.9442   71.2183  226.0302 H   0  0  0  0  0  0  0  0  0  0  0  0
  135.0006   70.1132  227.4530 H   0  0  0  0  0  0  0  0  0  0  0  0
  1  2  2  0
  2  3  2  0
  2  4  1  0
  4  5  1  0
  5  6  2  0
  6  7  1  0
  7  8  2  0
  8  9  1  0
  9 10  1  0
 10 11  1  0
 10 12  1  0
  8 13  1  0
 13 14  2  0
 14 15  1  0
 15 16  1  0
 16 17  2  0
 17 18  1  0
 18 19  2  0
 19 20  1  0
 20 21  2  0
  2 22  1  0
 22 23  1  0
 23 24  1  0
 24 25  1  0
 25 26  1  0
 26 27  1  0
 14  5  1  0
 21 16  1  0
 27 22  1  0
  6 28  1  0
  7 29  1  0
 10 30  1  0
 13 31  1  0
 17 32  1  0
 18 33  1  0
 19 34  1  0
 20 35  1  0
 21 36  1  0
 23 37  1  0
 23 38  1  0
 24 39  1  0
 24 40  1  0
 25 41  1  0
 25 42  1  0
 26 43  1  0
 26 44  1  0
 27 45  1  0
 27 46  1  0
M  CHG  1   4  -1
M  END
>  <UniqueID>  (39) 
29

>  <SMILES>  (39) 
O=S(=O)([N-]c1ccc(SC(F)F)cc1Sc1ccccc1)N1CCCCC1

>  <Energy>  (39) 
41.498957132325835

>  <Genealogy>  (39) 
O=S(=O)([N-]c1ccc(SC(F)F)cc1Sc1ccccc1)N1CCCCC1 (protonated)
O=S(=O)([N-]c1ccc(SC(F)F)cc1Sc1ccccc1)N1CCCCC1 (3D coordinates assigned)
O=S(=O)([N-]c1ccc(SC(F)F)cc1Sc1ccccc1)N1CCCCC1 (nonaromatic ring conformer: 41.498957132325835 kcal/mol)

>  <smiles>  (39) 
O=S(=O)(Nc1ccc(SC(F)F)cc1Sc1ccccc1)N1CCCCC1

>  <score_type>  (39) 
oracle

>  <origin>  (39) 
autodockgpu

>  <m_score__min__energy>  (39) 
-6.96

>  <m_primary>  (39) 
energy

>  <meeko>  (39) 
{"free_energy": -6.74, "intermolecular_energy": -8.83, "internal_energy": -1.58, "cluster_size": 7, "cluster_id": 3, "rank_in_cluster": 6}

>  <energy>  (39) 
-6.1

>  <cluster_rmsd>  (39) 
0.0

>  <rmsd>  (39) 
272.73

>  <cluster>  (39) 
5

$$$$
RCYZJXIDXHYHGN-UHFFFAOYNA-N
     RDKit          3D

 46 48  0  0  0  0  0  0  0  0999 V2000
  134.1640   67.0870  226.2880 O   0  0  0  0  0  0  0  0  0  0  0  0
  134.3220   68.3080  225.4230 S   0  0  0  0  0  0  0  0  0  0  0  0
  133.8060   68.0210  224.0390 O   0  0  0  0  0  0  0  0  0  0  0  0
  136.0010   68.7380  225.3330 N   0  0  0  0  0  0  0  0  0  0  0  0
  136.5510   69.7770  224.5100 C   0  0  0  0  0  0  0  0  0  0  0  0
  135.7290   70.7100  223.8510 C   0  0  0  0  0  0  0  0  0  0  0  0
  136.2940   71.7250  223.0740 C   0  0  0  0  0  0  0  0  0  0  0  0
  137.6820   71.8230  222.9480 C   0  0  0  0  0  0  0  0  0  0  0  0
  138.4010   73.1140  221.9280 S   0  0  0  0  0  0  0  0  0  0  0  0
  140.0800   72.4010  221.9320 C   0  0  0  0  0  0  0  0  0  0  0  0
  140.8230   72.9260  220.8920 F   0  0  0  0  0  0  0  0  0  0  0  0
  140.7100   72.6590  223.1370 F   0  0  0  0  0  0  0  0  0  0  0  0
  138.5070   70.8930  223.5870 C   0  0  0  0  0  0  0  0  0  0  0  0
  137.9480   69.8700  224.3640 C   0  0  0  0  0  0  0  0  0  0  0  0
  139.0390   68.6740  225.1460 S   0  0  0  0  0  0  0  0  0  0  0  0
  139.8240   69.9200  226.1680 C   0  0  0  0  0  0  0  0  0  0  0  0
  139.5000   70.0170  227.5280 C   0  0  0  0  0  0  0  0  0  0  0  0
  140.1170   70.9860  228.3270 C   0  0  0  0  0  0  0  0  0  0  0  0
  141.0400   71.8730  227.7650 C   0  0  0  0  0  0  0  0  0  0  0  0
  141.3560   71.7860  226.4060 C   0  0  0  0  0  0  0  0  0  0  0  0
  140.7570   70.8050  225.6100 C   0  0  0  0  0  0  0  0  0  0  0  0
  133.4200   69.6410  226.1000 N   0  0  0  0  0  0  0  0  0  0  0  0
  132.6980   70.3510  225.0220 C   0  0  0  0  0  0  0  0  0  0  0  0
  132.1230   71.7100  225.4910 C   0  0  0  0  0  0  0  0  0  0  0  0
  132.1140   71.8130  227.0200 C   0  0  0  0  0  0  0  0  0  0  0  0
  133.5320   71.6160  227.5900 C   0  0  0  0  0  0  0  0  0  0  0  0
  134.3350   70.5530  226.8050 C   0  0  0  0  0  0  0  0  0  0  0  0
  134.6355   70.6400  223.9480 H   0  0  0  0  0  0  0  0  0  0  0  0
  135.6441   72.4487  222.5603 H   0  0  0  0  0  0  0  0  0  0  0  0
  139.9976   71.3120  221.8003 H   0  0  0  0  0  0  0  0  0  0  0  0
  139.5994   70.9646  223.4794 H   0  0  0  0  0  0  0  0  0  0  0  0
  138.7606   69.3313  227.9674 H   0  0  0  0  0  0  0  0  0  0  0  0
  139.8756   71.0499  229.3983 H   0  0  0  0  0  0  0  0  0  0  0  0
  141.5178   72.6398  228.3925 H   0  0  0  0  0  0  0  0  0  0  0  0
  142.0761   72.4896  225.9628 H   0  0  0  0  0  0  0  0  0  0  0  0
  141.0182   70.7275  224.5443 H   0  0  0  0  0  0  0  0  0  0  0  0
  133.3943   70.5306  224.1896 H   0  0  0  0  0  0  0  0  0  0  0  0
  131.8529   69.7188  224.7120 H   0  0  0  0  0  0  0  0  0  0  0  0
  132.7419   72.5216  225.0808 H   0  0  0  0  0  0  0  0  0  0  0  0
  131.0866   71.7911  225.1315 H   0  0  0  0  0  0  0  0  0  0  0  0
  131.7426   72.8063  227.3124 H   0  0  0  0  0  0  0  0  0  0  0  0
  131.4596   71.0258  227.4226 H   0  0  0  0  0  0  0  0  0  0  0  0
  134.0699   72.5742  227.5404 H   0  0  0  0  0  0  0  0  0  0  0  0
  133.4329   71.2656  228.6280 H   0  0  0  0  0  0  0  0  0  0  0  0
  134.9829   71.0557  226.0718 H   0  0  0  0  0  0  0  0  0  0  0  0
  134.9463   69.9720  227.5113 H   0  0  0  0  0  0  0  0  0  0  0  0
  1  2  2  0
  2  3  2  0
  2  4  1  0
  4  5  1  0
  5  6  2  0
  6  7  1  0
  7  8  2  0
  8  9  1  0
  9 10  1  0
 10 11  1  0
 10 12  1  0
  8 13  1  0
 13 14  2  0
 14 15  1  0
 15 16  1  0
 16 17  2  0
 17 18  1  0
 18 19  2  0
 19 20  1  0
 20 21  2  0
  2 22  1  0
 22 23  1  0
 23 24  1  0
 24 25  1  0
 25 26  1  0
 26 27  1  0
 14  5  1  0
 21 16  1  0
 27 22  1  0
  6 28  1  0
  7 29  1  0
 10 30  1  0
 13 31  1  0
 17 32  1  0
 18 33  1  0
 19 34  1  0
 20 35  1  0
 21 36  1  0
 23 37  1  0
 23 38  1  0
 24 39  1  0
 24 40  1  0
 25 41  1  0
 25 42  1  0
 26 43  1  0
 26 44  1  0
 27 45  1  0
 27 46  1  0
M  CHG  1   4  -1
M  END
>  <UniqueID>  (40) 
29

>  <SMILES>  (40) 
O=S(=O)([N-]c1ccc(SC(F)F)cc1Sc1ccccc1)N1CCCCC1

>  <Energy>  (40) 
41.498957132325835

>  <Genealogy>  (40) 
O=S(=O)([N-]c1ccc(SC(F)F)cc1Sc1ccccc1)N1CCCCC1 (protonated)
O=S(=O)([N-]c1ccc(SC(F)F)cc1Sc1ccccc1)N1CCCCC1 (3D coordinates assigned)
O=S(=O)([N-]c1ccc(SC(F)F)cc1Sc1ccccc1)N1CCCCC1 (nonaromatic ring conformer: 41.498957132325835 kcal/mol)

>  <smiles>  (40) 
O=S(=O)(Nc1ccc(SC(F)F)cc1Sc1ccccc1)N1CCCCC1

>  <score_type>  (40) 
oracle

>  <origin>  (40) 
autodockgpu

>  <m_score__min__energy>  (40) 
-6.96

>  <m_primary>  (40) 
energy

>  <meeko>  (40) 
{"free_energy": -6.8, "intermolecular_energy": -8.89, "internal_energy": -1.54, "cluster_size": 7, "cluster_id": 3, "rank_in_cluster": 2}

>  <energy>  (40) 
-5.18

>  <cluster_rmsd>  (40) 
0.0

>  <rmsd>  (40) 
273.98

>  <cluster>  (40) 
6

$$$$
RCYZJXIDXHYHGN-UHFFFAOYNA-N
     RDKit          3D

 46 48  0  0  0  0  0  0  0  0999 V2000
  133.9730   67.6050  226.5040 O   0  0  0  0  0  0  0  0  0  0  0  0
  134.2520   68.5680  225.3820 S   0  0  0  0  0  0  0  0  0  0  0  0
  133.8110   67.9680  224.0750 O   0  0  0  0  0  0  0  0  0  0  0  0
  135.9530   68.9020  225.3150 N   0  0  0  0  0  0  0  0  0  0  0  0
  136.5960   69.7670  224.3670 C   0  0  0  0  0  0  0  0  0  0  0  0
  135.8730   70.7280  223.6370 C   0  0  0  0  0  0  0  0  0  0  0  0
  136.5300   71.5730  222.7370 C   0  0  0  0  0  0  0  0  0  0  0  0
  137.9120   71.4710  222.5580 C   0  0  0  0  0  0  0  0  0  0  0  0
  138.7450   72.5420  221.3830 S   0  0  0  0  0  0  0  0  0  0  0  0
  140.2890   72.6630  222.3480 C   0  0  0  0  0  0  0  0  0  0  0  0
  141.0830   71.5560  222.1180 F   0  0  0  0  0  0  0  0  0  0  0  0
  140.9780   73.8150  222.0100 F   0  0  0  0  0  0  0  0  0  0  0  0
  138.6370   70.5100  223.2690 C   0  0  0  0  0  0  0  0  0  0  0  0
  137.9860   69.6560  224.1690 C   0  0  0  0  0  0  0  0  0  0  0  0
  138.9460   68.4130  225.0430 S   0  0  0  0  0  0  0  0  0  0  0  0
  139.7040   69.6250  226.1250 C   0  0  0  0  0  0  0  0  0  0  0  0
  140.6170   70.5530  225.6060 C   0  0  0  0  0  0  0  0  0  0  0  0
  141.2040   71.5030  226.4500 C   0  0  0  0  0  0  0  0  0  0  0  0
  140.8990   71.5130  227.8140 C   0  0  0  0  0  0  0  0  0  0  0  0
  139.9970   70.5800  228.3350 C   0  0  0  0  0  0  0  0  0  0  0  0
  139.3930   69.6440  227.4910 C   0  0  0  0  0  0  0  0  0  0  0  0
  133.3810   70.0590  225.6440 N   0  0  0  0  0  0  0  0  0  0  0  0
  134.0450   70.8420  226.7090 C   0  0  0  0  0  0  0  0  0  0  0  0
  133.1740   72.0230  227.2050 C   0  0  0  0  0  0  0  0  0  0  0  0
  132.0260   72.3140  226.2330 C   0  0  0  0  0  0  0  0  0  0  0  0
  131.1510   71.0640  226.0280 C   0  0  0  0  0  0  0  0  0  0  0  0
  131.9860   69.7630  226.0050 C   0  0  0  0  0  0  0  0  0  0  0  0
  134.7852   70.8152  223.7748 H   0  0  0  0  0  0  0  0  0  0  0  0
  135.9571   72.3202  222.1683 H   0  0  0  0  0  0  0  0  0  0  0  0
  140.0316   72.7032  223.4167 H   0  0  0  0  0  0  0  0  0  0  0  0
  139.7236   70.4240  223.1211 H   0  0  0  0  0  0  0  0  0  0  0  0
  140.8722   70.5348  224.5362 H   0  0  0  0  0  0  0  0  0  0  0  0
  141.9065   72.2430  226.0391 H   0  0  0  0  0  0  0  0  0  0  0  0
  141.3683   72.2544  228.4773 H   0  0  0  0  0  0  0  0  0  0  0  0
  139.7627   70.5828  229.4098 H   0  0  0  0  0  0  0  0  0  0  0  0
  138.6721   68.9208  227.9000 H   0  0  0  0  0  0  0  0  0  0  0  0
  134.2538   70.1758  227.5591 H   0  0  0  0  0  0  0  0  0  0  0  0
  134.9707   71.2618  226.2886 H   0  0  0  0  0  0  0  0  0  0  0  0
  132.7544   71.7700  228.1898 H   0  0  0  0  0  0  0  0  0  0  0  0
  133.8087   72.9190  227.2712 H   0  0  0  0  0  0  0  0  0  0  0  0
  131.4053   73.1254  226.6410 H   0  0  0  0  0  0  0  0  0  0  0  0
  132.4525   72.6080  225.2626 H   0  0  0  0  0  0  0  0  0  0  0  0
  130.4227   71.0029  226.8501 H   0  0  0  0  0  0  0  0  0  0  0  0
  130.6488   71.1598  225.0540 H   0  0  0  0  0  0  0  0  0  0  0  0
  131.9598   69.2972  227.0012 H   0  0  0  0  0  0  0  0  0  0  0  0
  131.5603   69.0774  225.2575 H   0  0  0  0  0  0  0  0  0  0  0  0
  1  2  2  0
  2  3  2  0
  2  4  1  0
  4  5  1  0
  5  6  2  0
  6  7  1  0
  7  8  2  0
  8  9  1  0
  9 10  1  0
 10 11  1  0
 10 12  1  0
  8 13  1  0
 13 14  2  0
 14 15  1  0
 15 16  1  0
 16 17  2  0
 17 18  1  0
 18 19  2  0
 19 20  1  0
 20 21  2  0
  2 22  1  0
 22 23  1  0
 23 24  1  0
 24 25  1  0
 25 26  1  0
 26 27  1  0
 14  5  1  0
 21 16  1  0
 27 22  1  0
  6 28  1  0
  7 29  1  0
 10 30  1  0
 13 31  1  0
 17 32  1  0
 18 33  1  0
 19 34  1  0
 20 35  1  0
 21 36  1  0
 23 37  1  0
 23 38  1  0
 24 39  1  0
 24 40  1  0
 25 41  1  0
 25 42  1  0
 26 43  1  0
 26 44  1  0
 27 45  1  0
 27 46  1  0
M  CHG  1   4  -1
M  END
>  <UniqueID>  (41) 
30

>  <SMILES>  (41) 
O=S(=O)([N-]c1ccc(SC(F)F)cc1Sc1ccccc1)N1CCCCC1

>  <Energy>  (41) 
41.81722451958305

>  <Genealogy>  (41) 
O=S(=O)([N-]c1ccc(SC(F)F)cc1Sc1ccccc1)N1CCCCC1 (protonated)
O=S(=O)([N-]c1ccc(SC(F)F)cc1Sc1ccccc1)N1CCCCC1 (3D coordinates assigned)
O=S(=O)([N-]c1ccc(SC(F)F)cc1Sc1ccccc1)N1CCCCC1 (nonaromatic ring conformer: 41.81722451958305 kcal/mol)

>  <smiles>  (41) 
O=S(=O)(Nc1ccc(SC(F)F)cc1Sc1ccccc1)N1CCCCC1

>  <score_type>  (41) 
oracle

>  <origin>  (41) 
autodockgpu

>  <m_score__min__energy>  (41) 
-6.96

>  <m_primary>  (41) 
energy

>  <meeko>  (41) 
{"free_energy": -6.8, "intermolecular_energy": -8.89, "internal_energy": -1.47, "cluster_size": 7, "cluster_id": 3, "rank_in_cluster": 3}

>  <energy>  (41) 
-6.96

>  <cluster_rmsd>  (41) 
0.0

>  <rmsd>  (41) 
272.47

>  <cluster>  (41) 
1

$$$$
RCYZJXIDXHYHGN-UHFFFAOYNA-N
     RDKit          3D

 46 48  0  0  0  0  0  0  0  0999 V2000
  139.0430   71.8340  220.9980 O   0  0  0  0  0  0  0  0  0  0  0  0
  140.0240   72.2810  222.0480 S   0  0  0  0  0  0  0  0  0  0  0  0
  141.4190   71.8910  221.6410 O   0  0  0  0  0  0  0  0  0  0  0  0
  139.6350   71.5260  223.5610 N   0  0  0  0  0  0  0  0  0  0  0  0
  138.3750   70.9210  223.8900 C   0  0  0  0  0  0  0  0  0  0  0  0
  137.1530   71.5450  223.5780 C   0  0  0  0  0  0  0  0  0  0  0  0
  135.9420   70.9210  223.8900 C   0  0  0  0  0  0  0  0  0  0  0  0
  135.9350   69.6690  224.5110 C   0  0  0  0  0  0  0  0  0  0  0  0
  134.3760   68.8840  224.9310 S   0  0  0  0  0  0  0  0  0  0  0  0
  134.0880   68.2040  223.2630 C   0  0  0  0  0  0  0  0  0  0  0  0
  133.5570   69.1760  222.4370 F   0  0  0  0  0  0  0  0  0  0  0  0
  135.2720   67.7260  222.7280 F   0  0  0  0  0  0  0  0  0  0  0  0
  137.1440   69.0470  224.8360 C   0  0  0  0  0  0  0  0  0  0  0  0
  138.3620   69.6680  224.5320 C   0  0  0  0  0  0  0  0  0  0  0  0
  139.8960   68.8510  224.9920 S   0  0  0  0  0  0  0  0  0  0  0  0
  140.2450   70.0360  226.2920 C   0  0  0  0  0  0  0  0  0  0  0  0
  139.6040   69.9230  227.5330 C   0  0  0  0  0  0  0  0  0  0  0  0
  139.8810   70.8440  228.5500 C   0  0  0  0  0  0  0  0  0  0  0  0
  140.7780   71.8910  228.3210 C   0  0  0  0  0  0  0  0  0  0  0  0
  141.4090   72.0130  227.0790 C   0  0  0  0  0  0  0  0  0  0  0  0
  141.1510   71.0820  226.0690 C   0  0  0  0  0  0  0  0  0  0  0  0
  139.9520   74.0160  222.2330 N   0  0  0  0  0  0  0  0  0  0  0  0
  138.5760   74.4880  221.9650 C   0  0  0  0  0  0  0  0  0  0  0  0
  138.4980   76.0270  221.8140 C   0  0  0  0  0  0  0  0  0  0  0  0
  139.7670   76.7040  222.3430 C   0  0  0  0  0  0  0  0  0  0  0  0
  141.0160   76.1660  221.6200 C   0  0  0  0  0  0  0  0  0  0  0  0
  140.9110   74.6540  221.3180 C   0  0  0  0  0  0  0  0  0  0  0  0
  137.1509   72.5289  223.0861 H   0  0  0  0  0  0  0  0  0  0  0  0
  134.9910   71.4170  223.6459 H   0  0  0  0  0  0  0  0  0  0  0  0
  133.3725   67.3723  223.3425 H   0  0  0  0  0  0  0  0  0  0  0  0
  137.1387   68.0655  225.3327 H   0  0  0  0  0  0  0  0  0  0  0  0
  138.8833   69.1106  227.7079 H   0  0  0  0  0  0  0  0  0  0  0  0
  139.3922   70.7436  229.5303 H   0  0  0  0  0  0  0  0  0  0  0  0
  140.9878   72.6194  229.1181 H   0  0  0  0  0  0  0  0  0  0  0  0
  142.1087   72.8420  226.8969 H   0  0  0  0  0  0  0  0  0  0  0  0
  141.6597   71.1703  225.0977 H   0  0  0  0  0  0  0  0  0  0  0  0
  138.2183   74.0233  221.0344 H   0  0  0  0  0  0  0  0  0  0  0  0
  137.9509   74.2035  222.8242 H   0  0  0  0  0  0  0  0  0  0  0  0
  138.3758   76.2768  220.7497 H   0  0  0  0  0  0  0  0  0  0  0  0
  137.6409   76.3901  222.4002 H   0  0  0  0  0  0  0  0  0  0  0  0
  139.6932   77.7888  222.1765 H   0  0  0  0  0  0  0  0  0  0  0  0
  139.8607   76.4870  223.4173 H   0  0  0  0  0  0  0  0  0  0  0  0
  141.1372   76.7090  220.6711 H   0  0  0  0  0  0  0  0  0  0  0  0
  141.8809   76.3184  222.2823 H   0  0  0  0  0  0  0  0  0  0  0  0
  140.5716   74.5138  220.2811 H   0  0  0  0  0  0  0  0  0  0  0  0
  141.8996   74.1919  221.4567 H   0  0  0  0  0  0  0  0  0  0  0  0
  1  2  2  0
  2  3  2  0
  2  4  1  0
  4  5  1  0
  5  6  2  0
  6  7  1  0
  7  8  2  0
  8  9  1  0
  9 10  1  0
 10 11  1  0
 10 12  1  0
  8 13  1  0
 13 14  2  0
 14 15  1  0
 15 16  1  0
 16 17  2  0
 17 18  1  0
 18 19  2  0
 19 20  1  0
 20 21  2  0
  2 22  1  0
 22 23  1  0
 23 24  1  0
 24 25  1  0
 25 26  1  0
 26 27  1  0
 14  5  1  0
 21 16  1  0
 27 22  1  0
  6 28  1  0
  7 29  1  0
 10 30  1  0
 13 31  1  0
 17 32  1  0
 18 33  1  0
 19 34  1  0
 20 35  1  0
 21 36  1  0
 23 37  1  0
 23 38  1  0
 24 39  1  0
 24 40  1  0
 25 41  1  0
 25 42  1  0
 26 43  1  0
 26 44  1  0
 27 45  1  0
 27 46  1  0
M  CHG  1   4  -1
M  END
>  <UniqueID>  (42) 
30

>  <SMILES>  (42) 
O=S(=O)([N-]c1ccc(SC(F)F)cc1Sc1ccccc1)N1CCCCC1

>  <Energy>  (42) 
41.81722451958305

>  <Genealogy>  (42) 
O=S(=O)([N-]c1ccc(SC(F)F)cc1Sc1ccccc1)N1CCCCC1 (protonated)
O=S(=O)([N-]c1ccc(SC(F)F)cc1Sc1ccccc1)N1CCCCC1 (3D coordinates assigned)
O=S(=O)([N-]c1ccc(SC(F)F)cc1Sc1ccccc1)N1CCCCC1 (nonaromatic ring conformer: 41.81722451958305 kcal/mol)

>  <smiles>  (42) 
O=S(=O)(Nc1ccc(SC(F)F)cc1Sc1ccccc1)N1CCCCC1

>  <score_type>  (42) 
oracle

>  <origin>  (42) 
autodockgpu

>  <m_score__min__energy>  (42) 
-6.96

>  <m_primary>  (42) 
energy

>  <meeko>  (42) 
{"free_energy": -6.51, "intermolecular_energy": -8.6, "internal_energy": -1.48, "cluster_size": 3, "cluster_id": 2, "rank_in_cluster": 3}

>  <energy>  (42) 
-6.6

>  <cluster_rmsd>  (42) 
0.38

>  <rmsd>  (42) 
272.34

>  <cluster>  (42) 
1

$$$$
RCYZJXIDXHYHGN-UHFFFAOYNA-N
     RDKit          3D

 46 48  0  0  0  0  0  0  0  0999 V2000
  134.3380   67.1740  226.1180 O   0  0  0  0  0  0  0  0  0  0  0  0
  134.4760   68.4380  225.3130 S   0  0  0  0  0  0  0  0  0  0  0  0
  134.0340   68.1890  223.8960 O   0  0  0  0  0  0  0  0  0  0  0  0
  136.1350   68.9450  225.3160 N   0  0  0  0  0  0  0  0  0  0  0  0
  136.7070   69.9260  224.4380 C   0  0  0  0  0  0  0  0  0  0  0  0
  135.9090   70.8700  223.7650 C   0  0  0  0  0  0  0  0  0  0  0  0
  136.4960   71.8290  222.9350 C   0  0  0  0  0  0  0  0  0  0  0  0
  137.8830   71.8600  222.7680 C   0  0  0  0  0  0  0  0  0  0  0  0
  138.6290   73.0780  221.6810 S   0  0  0  0  0  0  0  0  0  0  0  0
  140.2840   72.3110  221.6970 C   0  0  0  0  0  0  0  0  0  0  0  0
  141.0020   72.7020  220.5830 F   0  0  0  0  0  0  0  0  0  0  0  0
  140.9680   72.6660  222.8460 F   0  0  0  0  0  0  0  0  0  0  0  0
  138.6840   70.9180  223.4220 C   0  0  0  0  0  0  0  0  0  0  0  0
  138.1030   69.9510  224.2520 C   0  0  0  0  0  0  0  0  0  0  0  0
  139.1620   68.7380  225.0520 S   0  0  0  0  0  0  0  0  0  0  0  0
  139.8990   69.9600  226.1370 C   0  0  0  0  0  0  0  0  0  0  0  0
  139.5490   69.9950  227.4930 C   0  0  0  0  0  0  0  0  0  0  0  0
  140.1290   70.9450  228.3410 C   0  0  0  0  0  0  0  0  0  0  0  0
  141.0400   71.8760  227.8320 C   0  0  0  0  0  0  0  0  0  0  0  0
  141.3810   71.8500  226.4760 C   0  0  0  0  0  0  0  0  0  0  0  0
  140.8190   70.8890  225.6310 C   0  0  0  0  0  0  0  0  0  0  0  0
  133.4860   69.6980  226.0040 N   0  0  0  0  0  0  0  0  0  0  0  0
  132.7320   70.3840  224.9310 C   0  0  0  0  0  0  0  0  0  0  0  0
  132.0690   71.6950  225.4180 C   0  0  0  0  0  0  0  0  0  0  0  0
  132.0370   71.7670  226.9480 C   0  0  0  0  0  0  0  0  0  0  0  0
  133.4570   71.6470  227.5320 C   0  0  0  0  0  0  0  0  0  0  0  0
  134.3330   70.6510  226.7370 C   0  0  0  0  0  0  0  0  0  0  0  0
  134.8166   70.8529  223.8931 H   0  0  0  0  0  0  0  0  0  0  0  0
  135.8642   72.5617  222.4115 H   0  0  0  0  0  0  0  0  0  0  0  0
  140.1625   71.2179  221.6793 H   0  0  0  0  0  0  0  0  0  0  0  0
  139.7751   70.9368  223.2838 H   0  0  0  0  0  0  0  0  0  0  0  0
  138.8182   69.2757  227.8911 H   0  0  0  0  0  0  0  0  0  0  0  0
  139.8680   70.9595  229.4095 H   0  0  0  0  0  0  0  0  0  0  0  0
  141.4880   72.6283  228.4978 H   0  0  0  0  0  0  0  0  0  0  0  0
  142.0922   72.5866  226.0741 H   0  0  0  0  0  0  0  0  0  0  0  0
  141.0989   70.8615  224.5676 H   0  0  0  0  0  0  0  0  0  0  0  0
  133.4244   70.6225  224.1103 H   0  0  0  0  0  0  0  0  0  0  0  0
  131.9307   69.7070  224.6000 H   0  0  0  0  0  0  0  0  0  0  0  0
  132.6409   72.5512  225.0308 H   0  0  0  0  0  0  0  0  0  0  0  0
  131.0336   71.7192  225.0473 H   0  0  0  0  0  0  0  0  0  0  0  0
  131.6013   72.7294  227.2545 H   0  0  0  0  0  0  0  0  0  0  0  0
  131.4286   70.9326  227.3271 H   0  0  0  0  0  0  0  0  0  0  0  0
  133.9351   72.6374  227.5073 H   0  0  0  0  0  0  0  0  0  0  0  0
  133.3680   71.2712  228.5620 H   0  0  0  0  0  0  0  0  0  0  0  0
  134.9564   71.2072  226.0214 H   0  0  0  0  0  0  0  0  0  0  0  0
  134.9707   70.0953  227.4402 H   0  0  0  0  0  0  0  0  0  0  0  0
  1  2  2  0
  2  3  2  0
  2  4  1  0
  4  5  1  0
  5  6  2  0
  6  7  1  0
  7  8  2  0
  8  9  1  0
  9 10  1  0
 10 11  1  0
 10 12  1  0
  8 13  1  0
 13 14  2  0
 14 15  1  0
 15 16  1  0
 16 17  2  0
 17 18  1  0
 18 19  2  0
 19 20  1  0
 20 21  2  0
  2 22  1  0
 22 23  1  0
 23 24  1  0
 24 25  1  0
 25 26  1  0
 26 27  1  0
 14  5  1  0
 21 16  1  0
 27 22  1  0
  6 28  1  0
  7 29  1  0
 10 30  1  0
 13 31  1  0
 17 32  1  0
 18 33  1  0
 19 34  1  0
 20 35  1  0
 21 36  1  0
 23 37  1  0
 23 38  1  0
 24 39  1  0
 24 40  1  0
 25 41  1  0
 25 42  1  0
 26 43  1  0
 26 44  1  0
 27 45  1  0
 27 46  1  0
M  CHG  1   4  -1
M  END
>  <UniqueID>  (43) 
30

>  <SMILES>  (43) 
O=S(=O)([N-]c1ccc(SC(F)F)cc1Sc1ccccc1)N1CCCCC1

>  <Energy>  (43) 
41.81722451958305

>  <Genealogy>  (43) 
O=S(=O)([N-]c1ccc(SC(F)F)cc1Sc1ccccc1)N1CCCCC1 (protonated)
O=S(=O)([N-]c1ccc(SC(F)F)cc1Sc1ccccc1)N1CCCCC1 (3D coordinates assigned)
O=S(=O)([N-]c1ccc(SC(F)F)cc1Sc1ccccc1)N1CCCCC1 (nonaromatic ring conformer: 41.81722451958305 kcal/mol)

>  <smiles>  (43) 
O=S(=O)(Nc1ccc(SC(F)F)cc1Sc1ccccc1)N1CCCCC1

>  <score_type>  (43) 
oracle

>  <origin>  (43) 
autodockgpu

>  <m_score__min__energy>  (43) 
-6.96

>  <m_primary>  (43) 
energy

>  <meeko>  (43) 
{"free_energy": -6.76, "intermolecular_energy": -8.85, "internal_energy": -1.57, "cluster_size": 7, "cluster_id": 3, "rank_in_cluster": 4}

>  <energy>  (43) 
-6.1

>  <cluster_rmsd>  (43) 
1.91

>  <rmsd>  (43) 
271.88

>  <cluster>  (43) 
1

$$$$
RCYZJXIDXHYHGN-UHFFFAOYNA-N
     RDKit          3D

 46 48  0  0  0  0  0  0  0  0999 V2000
  139.2010   72.6360  220.4840 O   0  0  0  0  0  0  0  0  0  0  0  0
  139.3530   73.3390  221.8060 S   0  0  0  0  0  0  0  0  0  0  0  0
  138.2510   74.3490  221.9740 O   0  0  0  0  0  0  0  0  0  0  0  0
  140.8870   74.1480  221.8570 N   0  0  0  0  0  0  0  0  0  0  0  0
  141.0900   75.5580  221.6870 C   0  0  0  0  0  0  0  0  0  0  0  0
  140.8150   76.4740  222.7190 C   0  0  0  0  0  0  0  0  0  0  0  0
  141.0440   77.8400  222.5320 C   0  0  0  0  0  0  0  0  0  0  0  0
  141.5530   78.3070  221.3170 C   0  0  0  0  0  0  0  0  0  0  0  0
  141.8220   80.0660  221.0750 S   0  0  0  0  0  0  0  0  0  0  0  0
  142.2770   80.3970  222.8100 C   0  0  0  0  0  0  0  0  0  0  0  0
  143.6420   80.2720  222.9770 F   0  0  0  0  0  0  0  0  0  0  0  0
  141.8710   81.6670  223.1790 F   0  0  0  0  0  0  0  0  0  0  0  0
  141.8170   77.4080  220.2810 C   0  0  0  0  0  0  0  0  0  0  0  0
  141.5850   76.0370  220.4590 C   0  0  0  0  0  0  0  0  0  0  0  0
  141.9080   74.9140  219.0930 S   0  0  0  0  0  0  0  0  0  0  0  0
  143.3250   74.1800  219.9100 C   0  0  0  0  0  0  0  0  0  0  0  0
  144.4620   74.9550  220.1720 C   0  0  0  0  0  0  0  0  0  0  0  0
  145.5650   74.3840  220.8150 C   0  0  0  0  0  0  0  0  0  0  0  0
  145.5440   73.0340  221.1760 C   0  0  0  0  0  0  0  0  0  0  0  0
  144.4150   72.2550  220.9050 C   0  0  0  0  0  0  0  0  0  0  0  0
  143.3030   72.8280  220.2820 C   0  0  0  0  0  0  0  0  0  0  0  0
  139.2660   72.1820  223.1110 N   0  0  0  0  0  0  0  0  0  0  0  0
  140.6220   71.9350  223.6480 C   0  0  0  0  0  0  0  0  0  0  0  0
  140.6700   70.7110  224.5950 C   0  0  0  0  0  0  0  0  0  0  0  0
  139.2630   70.2920  225.0340 C   0  0  0  0  0  0  0  0  0  0  0  0
  138.3780   69.9790  223.8130 C   0  0  0  0  0  0  0  0  0  0  0  0
  138.6600   70.9320  222.6280 C   0  0  0  0  0  0  0  0  0  0  0  0
  140.4173   76.1128  223.6789 H   0  0  0  0  0  0  0  0  0  0  0  0
  140.8231   78.5494  223.3432 H   0  0  0  0  0  0  0  0  0  0  0  0
  141.7697   79.6615  223.4516 H   0  0  0  0  0  0  0  0  0  0  0  0
  142.2085   77.7773  219.3217 H   0  0  0  0  0  0  0  0  0  0  0  0
  144.4874   76.0130  219.8719 H   0  0  0  0  0  0  0  0  0  0  0  0
  146.4502   74.9982  221.0369 H   0  0  0  0  0  0  0  0  0  0  0  0
  146.4159   72.5842  221.6734 H   0  0  0  0  0  0  0  0  0  0  0  0
  144.4020   71.1906  221.1823 H   0  0  0  0  0  0  0  0  0  0  0  0
  142.4095   72.2179  220.0832 H   0  0  0  0  0  0  0  0  0  0  0  0
  141.3078   71.7573  222.8065 H   0  0  0  0  0  0  0  0  0  0  0  0
  140.9176   72.8202  224.2302 H   0  0  0  0  0  0  0  0  0  0  0  0
  141.1470   69.8702  224.0701 H   0  0  0  0  0  0  0  0  0  0  0  0
  141.2457   70.9871  225.4908 H   0  0  0  0  0  0  0  0  0  0  0  0
  139.3350   69.3948  225.6663 H   0  0  0  0  0  0  0  0  0  0  0  0
  138.8078   71.1214  225.5952 H   0  0  0  0  0  0  0  0  0  0  0  0
  138.5720   68.9454  223.4904 H   0  0  0  0  0  0  0  0  0  0  0  0
  137.3284   70.1142  224.1129 H   0  0  0  0  0  0  0  0  0  0  0  0
  139.3498   70.4424  221.9249 H   0  0  0  0  0  0  0  0  0  0  0  0
  137.7109   71.1661  222.1236 H   0  0  0  0  0  0  0  0  0  0  0  0
  1  2  2  0
  2  3  2  0
  2  4  1  0
  4  5  1  0
  5  6  2  0
  6  7  1  0
  7  8  2  0
  8  9  1  0
  9 10  1  0
 10 11  1  0
 10 12  1  0
  8 13  1  0
 13 14  2  0
 14 15  1  0
 15 16  1  0
 16 17  2  0
 17 18  1  0
 18 19  2  0
 19 20  1  0
 20 21  2  0
  2 22  1  0
 22 23  1  0
 23 24  1  0
 24 25  1  0
 25 26  1  0
 26 27  1  0
 14  5  1  0
 21 16  1  0
 27 22  1  0
  6 28  1  0
  7 29  1  0
 10 30  1  0
 13 31  1  0
 17 32  1  0
 18 33  1  0
 19 34  1  0
 20 35  1  0
 21 36  1  0
 23 37  1  0
 23 38  1  0
 24 39  1  0
 24 40  1  0
 25 41  1  0
 25 42  1  0
 26 43  1  0
 26 44  1  0
 27 45  1  0
 27 46  1  0
M  CHG  1   4  -1
M  END
>  <UniqueID>  (44) 
30

>  <SMILES>  (44) 
O=S(=O)([N-]c1ccc(SC(F)F)cc1Sc1ccccc1)N1CCCCC1

>  <Energy>  (44) 
41.81722451958305

>  <Genealogy>  (44) 
O=S(=O)([N-]c1ccc(SC(F)F)cc1Sc1ccccc1)N1CCCCC1 (protonated)
O=S(=O)([N-]c1ccc(SC(F)F)cc1Sc1ccccc1)N1CCCCC1 (3D coordinates assigned)
O=S(=O)([N-]c1ccc(SC(F)F)cc1Sc1ccccc1)N1CCCCC1 (nonaromatic ring conformer: 41.81722451958305 kcal/mol)

>  <smiles>  (44) 
O=S(=O)(Nc1ccc(SC(F)F)cc1Sc1ccccc1)N1CCCCC1

>  <score_type>  (44) 
oracle

>  <origin>  (44) 
autodockgpu

>  <m_score__min__energy>  (44) 
-6.96

>  <m_primary>  (44) 
energy

>  <meeko>  (44) 
{"free_energy": -6.1, "intermolecular_energy": -8.19, "internal_energy": -1.61, "cluster_size": 1, "cluster_id": 5, "rank_in_cluster": 1}

>  <energy>  (44) 
-6.86

>  <cluster_rmsd>  (44) 
0.0

>  <rmsd>  (44) 
272.34

>  <cluster>  (44) 
2

$$$$
RCYZJXIDXHYHGN-UHFFFAOYNA-N
     RDKit          3D

 46 48  0  0  0  0  0  0  0  0999 V2000
  140.3760   74.1690  222.0850 O   0  0  0  0  0  0  0  0  0  0  0  0
  140.6720   72.9820  221.2080 S   0  0  0  0  0  0  0  0  0  0  0  0
  139.6140   72.8590  220.1460 O   0  0  0  0  0  0  0  0  0  0  0  0
  140.6890   71.5410  222.1730 N   0  0  0  0  0  0  0  0  0  0  0  0
  139.5390   70.9300  222.7770 C   0  0  0  0  0  0  0  0  0  0  0  0
  138.4870   70.4070  222.0020 C   0  0  0  0  0  0  0  0  0  0  0  0
  137.3910   69.7980  222.6180 C   0  0  0  0  0  0  0  0  0  0  0  0
  137.3320   69.6990  224.0100 C   0  0  0  0  0  0  0  0  0  0  0  0
  135.9090   68.9370  224.7960 S   0  0  0  0  0  0  0  0  0  0  0  0
  134.9570   70.4860  224.9360 C   0  0  0  0  0  0  0  0  0  0  0  0
  134.5400   70.6740  226.2400 F   0  0  0  0  0  0  0  0  0  0  0  0
  135.7270   71.5620  224.5280 F   0  0  0  0  0  0  0  0  0  0  0  0
  138.3650   70.2270  224.7900 C   0  0  0  0  0  0  0  0  0  0  0  0
  139.4650   70.8440  224.1810 C   0  0  0  0  0  0  0  0  0  0  0  0
  140.7600   71.5380  225.2170 S   0  0  0  0  0  0  0  0  0  0  0  0
  140.6410   70.2110  226.4160 C   0  0  0  0  0  0  0  0  0  0  0  0
  141.1620   68.9460  226.1150 C   0  0  0  0  0  0  0  0  0  0  0  0
  141.0740   67.9110  227.0540 C   0  0  0  0  0  0  0  0  0  0  0  0
  140.4450   68.1320  228.2820 C   0  0  0  0  0  0  0  0  0  0  0  0
  139.9130   69.3910  228.5790 C   0  0  0  0  0  0  0  0  0  0  0  0
  140.0190   70.4310  227.6530 C   0  0  0  0  0  0  0  0  0  0  0  0
  142.2270   73.1810  220.4390 N   0  0  0  0  0  0  0  0  0  0  0  0
  143.1240   72.0730  220.8370 C   0  0  0  0  0  0  0  0  0  0  0  0
  144.5980   72.3340  220.4420 C   0  0  0  0  0  0  0  0  0  0  0  0
  144.7080   73.4740  219.4250 C   0  0  0  0  0  0  0  0  0  0  0  0
  144.0740   74.7650  219.9770 C   0  0  0  0  0  0  0  0  0  0  0  0
  142.8060   74.4800  220.8150 C   0  0  0  0  0  0  0  0  0  0  0  0
  138.5280   70.4782  220.9051 H   0  0  0  0  0  0  0  0  0  0  0  0
  136.5716   69.3950  222.0046 H   0  0  0  0  0  0  0  0  0  0  0  0
  134.0734   70.4135  224.2848 H   0  0  0  0  0  0  0  0  0  0  0  0
  138.3137   70.1576  225.8866 H   0  0  0  0  0  0  0  0  0  0  0  0
  141.6403   68.7657  225.1410 H   0  0  0  0  0  0  0  0  0  0  0  0
  141.5004   66.9232  226.8248 H   0  0  0  0  0  0  0  0  0  0  0  0
  140.3682   67.3157  229.0153 H   0  0  0  0  0  0  0  0  0  0  0  0
  139.4108   69.5621  229.5426 H   0  0  0  0  0  0  0  0  0  0  0  0
  139.6137   71.4246  227.8947 H   0  0  0  0  0  0  0  0  0  0  0  0
  143.0679   71.9481  221.9284 H   0  0  0  0  0  0  0  0  0  0  0  0
  142.7914   71.1670  220.3092 H   0  0  0  0  0  0  0  0  0  0  0  0
  145.1686   72.6018  221.3435 H   0  0  0  0  0  0  0  0  0  0  0  0
  145.0018   71.4193  219.9834 H   0  0  0  0  0  0  0  0  0  0  0  0
  145.7697   73.6595  219.2051 H   0  0  0  0  0  0  0  0  0  0  0  0
  144.1718   73.1821  218.5099 H   0  0  0  0  0  0  0  0  0  0  0  0
  144.8109   75.2781  220.6125 H   0  0  0  0  0  0  0  0  0  0  0  0
  143.7800   75.3901  219.1209 H   0  0  0  0  0  0  0  0  0  0  0  0
  143.0724   74.4633  221.8821 H   0  0  0  0  0  0  0  0  0  0  0  0
  142.0655   75.2707  220.6238 H   0  0  0  0  0  0  0  0  0  0  0  0
  1  2  2  0
  2  3  2  0
  2  4  1  0
  4  5  1  0
  5  6  2  0
  6  7  1  0
  7  8  2  0
  8  9  1  0
  9 10  1  0
 10 11  1  0
 10 12  1  0
  8 13  1  0
 13 14  2  0
 14 15  1  0
 15 16  1  0
 16 17  2  0
 17 18  1  0
 18 19  2  0
 19 20  1  0
 20 21  2  0
  2 22  1  0
 22 23  1  0
 23 24  1  0
 24 25  1  0
 25 26  1  0
 26 27  1  0
 14  5  1  0
 21 16  1  0
 27 22  1  0
  6 28  1  0
  7 29  1  0
 10 30  1  0
 13 31  1  0
 17 32  1  0
 18 33  1  0
 19 34  1  0
 20 35  1  0
 21 36  1  0
 23 37  1  0
 23 38  1  0
 24 39  1  0
 24 40  1  0
 25 41  1  0
 25 42  1  0
 26 43  1  0
 26 44  1  0
 27 45  1  0
 27 46  1  0
M  CHG  1   4  -1
M  END
>  <UniqueID>  (45) 
30

>  <SMILES>  (45) 
O=S(=O)([N-]c1ccc(SC(F)F)cc1Sc1ccccc1)N1CCCCC1

>  <Energy>  (45) 
41.81722451958305

>  <Genealogy>  (45) 
O=S(=O)([N-]c1ccc(SC(F)F)cc1Sc1ccccc1)N1CCCCC1 (protonated)
O=S(=O)([N-]c1ccc(SC(F)F)cc1Sc1ccccc1)N1CCCCC1 (3D coordinates assigned)
O=S(=O)([N-]c1ccc(SC(F)F)cc1Sc1ccccc1)N1CCCCC1 (nonaromatic ring conformer: 41.81722451958305 kcal/mol)

>  <smiles>  (45) 
O=S(=O)(Nc1ccc(SC(F)F)cc1Sc1ccccc1)N1CCCCC1

>  <score_type>  (45) 
oracle

>  <origin>  (45) 
autodockgpu

>  <m_score__min__energy>  (45) 
-6.96

>  <m_primary>  (45) 
energy

>  <meeko>  (45) 
{"free_energy": -6.6, "intermolecular_energy": -8.69, "internal_energy": -1.34, "cluster_size": 3, "cluster_id": 1, "rank_in_cluster": 2}

>  <energy>  (45) 
-6.84

>  <cluster_rmsd>  (45) 
0.14

>  <rmsd>  (45) 
272.35

>  <cluster>  (45) 
2

$$$$
RCYZJXIDXHYHGN-UHFFFAOYNA-N
     RDKit          3D

 46 48  0  0  0  0  0  0  0  0999 V2000
  138.8170   71.7800  220.8320 O   0  0  0  0  0  0  0  0  0  0  0  0
  139.8810   72.1170  221.8410 S   0  0  0  0  0  0  0  0  0  0  0  0
  141.2260   71.6750  221.3300 O   0  0  0  0  0  0  0  0  0  0  0  0
  139.5390   71.3030  223.3350 N   0  0  0  0  0  0  0  0  0  0  0  0
  138.2380   70.8930  223.7810 C   0  0  0  0  0  0  0  0  0  0  0  0
  137.0850   71.6410  223.4790 C   0  0  0  0  0  0  0  0  0  0  0  0
  135.8280   71.2040  223.9070 C   0  0  0  0  0  0  0  0  0  0  0  0
  135.7060   70.0180  224.6360 C   0  0  0  0  0  0  0  0  0  0  0  0
  134.0920   69.4760  225.2030 S   0  0  0  0  0  0  0  0  0  0  0  0
  133.9260   70.7760  226.4720 C   0  0  0  0  0  0  0  0  0  0  0  0
  132.5910   71.0100  226.7440 F   0  0  0  0  0  0  0  0  0  0  0  0
  134.5840   70.4040  227.6310 F   0  0  0  0  0  0  0  0  0  0  0  0
  136.8470   69.2750  224.9520 C   0  0  0  0  0  0  0  0  0  0  0  0
  138.1110   69.7080  224.5310 C   0  0  0  0  0  0  0  0  0  0  0  0
  139.5590   68.7420  224.9820 S   0  0  0  0  0  0  0  0  0  0  0  0
  140.1320   69.9750  226.1510 C   0  0  0  0  0  0  0  0  0  0  0  0
  141.0780   70.9290  225.7560 C   0  0  0  0  0  0  0  0  0  0  0  0
  141.5210   71.8940  226.6670 C   0  0  0  0  0  0  0  0  0  0  0  0
  141.0370   71.8940  227.9790 C   0  0  0  0  0  0  0  0  0  0  0  0
  140.1010   70.9350  228.3780 C   0  0  0  0  0  0  0  0  0  0  0  0
  139.6410   69.9830  227.4640 C   0  0  0  0  0  0  0  0  0  0  0  0
  139.9180   73.8400  222.1180 N   0  0  0  0  0  0  0  0  0  0  0  0
  138.5630   74.4040  221.9270 C   0  0  0  0  0  0  0  0  0  0  0  0
  138.5700   75.9510  221.8600 C   0  0  0  0  0  0  0  0  0  0  0  0
  139.8940   76.5250  222.3730 C   0  0  0  0  0  0  0  0  0  0  0  0
  141.0830   75.9570  221.5750 C   0  0  0  0  0  0  0  0  0  0  0  0
  140.8790   74.4710  221.1990 C   0  0  0  0  0  0  0  0  0  0  0  0
  137.1732   72.5742  222.9033 H   0  0  0  0  0  0  0  0  0  0  0  0
  134.9318   71.7958  223.6691 H   0  0  0  0  0  0  0  0  0  0  0  0
  134.3804   71.7006  226.0864 H   0  0  0  0  0  0  0  0  0  0  0  0
  136.7520   68.3463  225.5338 H   0  0  0  0  0  0  0  0  0  0  0  0
  141.4728   70.9197  224.7293 H   0  0  0  0  0  0  0  0  0  0  0  0
  142.2510   72.6537  226.3508 H   0  0  0  0  0  0  0  0  0  0  0  0
  141.3925   72.6480  228.6967 H   0  0  0  0  0  0  0  0  0  0  0  0
  139.7263   70.9298  229.4122 H   0  0  0  0  0  0  0  0  0  0  0  0
  138.8928   69.2391  227.7753 H   0  0  0  0  0  0  0  0  0  0  0  0
  138.1467   74.0119  220.9874 H   0  0  0  0  0  0  0  0  0  0  0  0
  137.9525   74.1092  222.7933 H   0  0  0  0  0  0  0  0  0  0  0  0
  138.4241   76.2650  220.8159 H   0  0  0  0  0  0  0  0  0  0  0  0
  137.7576   76.3295  222.4977 H   0  0  0  0  0  0  0  0  0  0  0  0
  139.8779   77.6197  222.2659 H   0  0  0  0  0  0  0  0  0  0  0  0
  140.0133   76.2451  223.4301 H   0  0  0  0  0  0  0  0  0  0  0  0
  141.2017   76.5428  220.6515 H   0  0  0  0  0  0  0  0  0  0  0  0
  141.9784   76.0242  222.2103 H   0  0  0  0  0  0  0  0  0  0  0  0
  140.4941   74.4062  220.1706 H   0  0  0  0  0  0  0  0  0  0  0  0
  141.8432   73.9469  221.2736 H   0  0  0  0  0  0  0  0  0  0  0  0
  1  2  2  0
  2  3  2  0
  2  4  1  0
  4  5  1  0
  5  6  2  0
  6  7  1  0
  7  8  2  0
  8  9  1  0
  9 10  1  0
 10 11  1  0
 10 12  1  0
  8 13  1  0
 13 14  2  0
 14 15  1  0
 15 16  1  0
 16 17  2  0
 17 18  1  0
 18 19  2  0
 19 20  1  0
 20 21  2  0
  2 22  1  0
 22 23  1  0
 23 24  1  0
 24 25  1  0
 25 26  1  0
 26 27  1  0
 14  5  1  0
 21 16  1  0
 27 22  1  0
  6 28  1  0
  7 29  1  0
 10 30  1  0
 13 31  1  0
 17 32  1  0
 18 33  1  0
 19 34  1  0
 20 35  1  0
 21 36  1  0
 23 37  1  0
 23 38  1  0
 24 39  1  0
 24 40  1  0
 25 41  1  0
 25 42  1  0
 26 43  1  0
 26 44  1  0
 27 45  1  0
 27 46  1  0
M  CHG  1   4  -1
M  END
>  <UniqueID>  (46) 
30

>  <SMILES>  (46) 
O=S(=O)([N-]c1ccc(SC(F)F)cc1Sc1ccccc1)N1CCCCC1

>  <Energy>  (46) 
41.81722451958305

>  <Genealogy>  (46) 
O=S(=O)([N-]c1ccc(SC(F)F)cc1Sc1ccccc1)N1CCCCC1 (protonated)
O=S(=O)([N-]c1ccc(SC(F)F)cc1Sc1ccccc1)N1CCCCC1 (3D coordinates assigned)
O=S(=O)([N-]c1ccc(SC(F)F)cc1Sc1ccccc1)N1CCCCC1 (nonaromatic ring conformer: 41.81722451958305 kcal/mol)

>  <smiles>  (46) 
O=S(=O)(Nc1ccc(SC(F)F)cc1Sc1ccccc1)N1CCCCC1

>  <score_type>  (46) 
oracle

>  <origin>  (46) 
autodockgpu

>  <m_score__min__energy>  (46) 
-6.96

>  <m_primary>  (46) 
energy

>  <meeko>  (46) 
{"free_energy": -6.86, "intermolecular_energy": -8.95, "internal_energy": -1.46, "cluster_size": 3, "cluster_id": 2, "rank_in_cluster": 1}

>  <energy>  (46) 
-6.51

>  <cluster_rmsd>  (46) 
1.66

>  <rmsd>  (46) 
272.02

>  <cluster>  (46) 
2

$$$$
RCYZJXIDXHYHGN-UHFFFAOYNA-N
     RDKit          3D

 46 48  0  0  0  0  0  0  0  0999 V2000
  140.0460   72.6310  220.1180 O   0  0  0  0  0  0  0  0  0  0  0  0
  140.6210   73.7150  220.9890 S   0  0  0  0  0  0  0  0  0  0  0  0
  140.1090   73.5630  222.3960 O   0  0  0  0  0  0  0  0  0  0  0  0
  140.1480   75.2650  220.3700 N   0  0  0  0  0  0  0  0  0  0  0  0
  139.4130   76.2620  221.0950 C   0  0  0  0  0  0  0  0  0  0  0  0
  138.0900   76.0400  221.5210 C   0  0  0  0  0  0  0  0  0  0  0  0
  137.4070   77.0210  222.2460 C   0  0  0  0  0  0  0  0  0  0  0  0
  138.0350   78.2300  222.5570 C   0  0  0  0  0  0  0  0  0  0  0  0
  137.1440   79.4950  223.4670 S   0  0  0  0  0  0  0  0  0  0  0  0
  138.6150   80.5260  223.7850 C   0  0  0  0  0  0  0  0  0  0  0  0
  138.8190   81.4020  222.7370 F   0  0  0  0  0  0  0  0  0  0  0  0
  138.4610   81.2320  224.9660 F   0  0  0  0  0  0  0  0  0  0  0  0
  139.3440   78.4660  222.1270 C   0  0  0  0  0  0  0  0  0  0  0  0
  140.0340   77.4900  221.3960 C   0  0  0  0  0  0  0  0  0  0  0  0
  141.7060   77.8400  220.8350 S   0  0  0  0  0  0  0  0  0  0  0  0
  141.8900   79.2280  221.9540 C   0  0  0  0  0  0  0  0  0  0  0  0
  142.2300   79.0060  223.2950 C   0  0  0  0  0  0  0  0  0  0  0  0
  142.3800   80.0900  224.1680 C   0  0  0  0  0  0  0  0  0  0  0  0
  142.1680   81.3940  223.7090 C   0  0  0  0  0  0  0  0  0  0  0  0
  141.8170   81.6160  222.3730 C   0  0  0  0  0  0  0  0  0  0  0  0
  141.6880   80.5370  221.4950 C   0  0  0  0  0  0  0  0  0  0  0  0
  142.3640   73.6070  221.0050 N   0  0  0  0  0  0  0  0  0  0  0  0
  142.9430   74.8130  220.3730 C   0  0  0  0  0  0  0  0  0  0  0  0
  144.4560   74.6580  220.0800 C   0  0  0  0  0  0  0  0  0  0  0  0
  145.0520   73.4710  220.8420 C   0  0  0  0  0  0  0  0  0  0  0  0
  144.3110   72.1660  220.4900 C   0  0  0  0  0  0  0  0  0  0  0  0
  142.7930   72.3900  220.2990 C   0  0  0  0  0  0  0  0  0  0  0  0
  137.5907   75.0894  221.2822 H   0  0  0  0  0  0  0  0  0  0  0  0
  136.3722   76.8407  222.5726 H   0  0  0  0  0  0  0  0  0  0  0  0
  139.4911   79.8671  223.8762 H   0  0  0  0  0  0  0  0  0  0  0  0
  139.8343   79.4219  222.3635 H   0  0  0  0  0  0  0  0  0  0  0  0
  142.3791   77.9798  223.6619 H   0  0  0  0  0  0  0  0  0  0  0  0
  142.6649   79.9160  225.2161 H   0  0  0  0  0  0  0  0  0  0  0  0
  142.2772   82.2445  224.3980 H   0  0  0  0  0  0  0  0  0  0  0  0
  141.6425   82.6409  222.0136 H   0  0  0  0  0  0  0  0  0  0  0  0
  141.4274   80.7150  220.4412 H   0  0  0  0  0  0  0  0  0  0  0  0
  142.4173   75.0021  219.4254 H   0  0  0  0  0  0  0  0  0  0  0  0
  142.8217   75.6507  221.0756 H   0  0  0  0  0  0  0  0  0  0  0  0
  144.5974   74.4984  219.0009 H   0  0  0  0  0  0  0  0  0  0  0  0
  144.9687   75.5740  220.4086 H   0  0  0  0  0  0  0  0  0  0  0  0
  146.1136   73.3665  220.5734 H   0  0  0  0  0  0  0  0  0  0  0  0
  144.9462   73.6561  221.9211 H   0  0  0  0  0  0  0  0  0  0  0  0
  144.7297   71.7615  219.5567 H   0  0  0  0  0  0  0  0  0  0  0  0
  144.4464   71.4645  221.3264 H   0  0  0  0  0  0  0  0  0  0  0  0
  142.5740   72.4965  219.2263 H   0  0  0  0  0  0  0  0  0  0  0  0
  142.2493   71.5269  220.7106 H   0  0  0  0  0  0  0  0  0  0  0  0
  1  2  2  0
  2  3  2  0
  2  4  1  0
  4  5  1  0
  5  6  2  0
  6  7  1  0
  7  8  2  0
  8  9  1  0
  9 10  1  0
 10 11  1  0
 10 12  1  0
  8 13  1  0
 13 14  2  0
 14 15  1  0
 15 16  1  0
 16 17  2  0
 17 18  1  0
 18 19  2  0
 19 20  1  0
 20 21  2  0
  2 22  1  0
 22 23  1  0
 23 24  1  0
 24 25  1  0
 25 26  1  0
 26 27  1  0
 14  5  1  0
 21 16  1  0
 27 22  1  0
  6 28  1  0
  7 29  1  0
 10 30  1  0
 13 31  1  0
 17 32  1  0
 18 33  1  0
 19 34  1  0
 20 35  1  0
 21 36  1  0
 23 37  1  0
 23 38  1  0
 24 39  1  0
 24 40  1  0
 25 41  1  0
 25 42  1  0
 26 43  1  0
 26 44  1  0
 27 45  1  0
 27 46  1  0
M  CHG  1   4  -1
M  END
>  <UniqueID>  (47) 
30

>  <SMILES>  (47) 
O=S(=O)([N-]c1ccc(SC(F)F)cc1Sc1ccccc1)N1CCCCC1

>  <Energy>  (47) 
41.81722451958305

>  <Genealogy>  (47) 
O=S(=O)([N-]c1ccc(SC(F)F)cc1Sc1ccccc1)N1CCCCC1 (protonated)
O=S(=O)([N-]c1ccc(SC(F)F)cc1Sc1ccccc1)N1CCCCC1 (3D coordinates assigned)
O=S(=O)([N-]c1ccc(SC(F)F)cc1Sc1ccccc1)N1CCCCC1 (nonaromatic ring conformer: 41.81722451958305 kcal/mol)

>  <smiles>  (47) 
O=S(=O)(Nc1ccc(SC(F)F)cc1Sc1ccccc1)N1CCCCC1

>  <score_type>  (47) 
oracle

>  <origin>  (47) 
autodockgpu

>  <m_score__min__energy>  (47) 
-6.96

>  <m_primary>  (47) 
energy

>  <meeko>  (47) 
{"free_energy": -6.07, "intermolecular_energy": -8.16, "internal_energy": -1.67, "cluster_size": 5, "cluster_id": 4, "rank_in_cluster": 2}

>  <energy>  (47) 
-6.81

>  <cluster_rmsd>  (47) 
0.0

>  <rmsd>  (47) 
271.94

>  <cluster>  (47) 
3

$$$$
RCYZJXIDXHYHGN-UHFFFAOYNA-N
     RDKit          3D

 46 48  0  0  0  0  0  0  0  0999 V2000
  140.1980   74.8990  219.5770 O   0  0  0  0  0  0  0  0  0  0  0  0
  140.5390   74.0440  220.7670 S   0  0  0  0  0  0  0  0  0  0  0  0
  139.8780   72.6990  220.6330 O   0  0  0  0  0  0  0  0  0  0  0  0
  139.9770   74.8180  222.2150 N   0  0  0  0  0  0  0  0  0  0  0  0
  139.1660   76.0010  222.2650 C   0  0  0  0  0  0  0  0  0  0  0  0
  137.8310   75.9620  222.7080 C   0  0  0  0  0  0  0  0  0  0  0  0
  137.0720   77.1340  222.7680 C   0  0  0  0  0  0  0  0  0  0  0  0
  137.6350   78.3560  222.3920 C   0  0  0  0  0  0  0  0  0  0  0  0
  136.6480   79.8540  222.4480 S   0  0  0  0  0  0  0  0  0  0  0  0
  137.8870   80.8250  223.3690 C   0  0  0  0  0  0  0  0  0  0  0  0
  138.5050   80.0330  224.3180 F   0  0  0  0  0  0  0  0  0  0  0  0
  138.8320   81.3450  222.5020 F   0  0  0  0  0  0  0  0  0  0  0  0
  138.9560   78.4040  221.9380 C   0  0  0  0  0  0  0  0  0  0  0  0
  139.7220   77.2320  221.8700 C   0  0  0  0  0  0  0  0  0  0  0  0
  141.4080   77.3270  221.2530 S   0  0  0  0  0  0  0  0  0  0  0  0
  141.7390   78.8590  222.1230 C   0  0  0  0  0  0  0  0  0  0  0  0
  141.9290   78.8490  223.5110 C   0  0  0  0  0  0  0  0  0  0  0  0
  142.1940   80.0440  224.1900 C   0  0  0  0  0  0  0  0  0  0  0  0
  142.2450   81.2520  223.4880 C   0  0  0  0  0  0  0  0  0  0  0  0
  142.0440   81.2650  222.1040 C   0  0  0  0  0  0  0  0  0  0  0  0
  141.8010   80.0710  221.4210 C   0  0  0  0  0  0  0  0  0  0  0  0
  142.2670   73.8190  220.8660 N   0  0  0  0  0  0  0  0  0  0  0  0
  142.9480   74.8130  220.0070 C   0  0  0  0  0  0  0  0  0  0  0  0
  144.4500   74.4910  219.8070 C   0  0  0  0  0  0  0  0  0  0  0  0
  144.9390   73.4600  220.8280 C   0  0  0  0  0  0  0  0  0  0  0  0
  144.1080   72.1660  220.7420 C   0  0  0  0  0  0  0  0  0  0  0  0
  142.6150   72.4490  220.4550 C   0  0  0  0  0  0  0  0  0  0  0  0
  137.3823   75.0038  223.0087 H   0  0  0  0  0  0  0  0  0  0  0  0
  136.0281   77.0941  223.1124 H   0  0  0  0  0  0  0  0  0  0  0  0
  137.3739   81.6558  223.8754 H   0  0  0  0  0  0  0  0  0  0  0  0
  139.3961   79.3649  221.6330 H   0  0  0  0  0  0  0  0  0  0  0  0
  141.8699   77.9019  224.0673 H   0  0  0  0  0  0  0  0  0  0  0  0
  142.3623   80.0326  225.2770 H   0  0  0  0  0  0  0  0  0  0  0  0
  142.4431   82.1919  224.0240 H   0  0  0  0  0  0  0  0  0  0  0  0
  142.0773   82.2164  221.5528 H   0  0  0  0  0  0  0  0  0  0  0  0
  141.6580   80.0817  220.3304 H   0  0  0  0  0  0  0  0  0  0  0  0
  142.4556   74.8261  219.0234 H   0  0  0  0  0  0  0  0  0  0  0  0
  142.8784   75.7909  220.5060 H   0  0  0  0  0  0  0  0  0  0  0  0
  144.5986   74.0899  218.7936 H   0  0  0  0  0  0  0  0  0  0  0  0
  145.0253   75.4180  219.9471 H   0  0  0  0  0  0  0  0  0  0  0  0
  145.9943   73.2247  220.6254 H   0  0  0  0  0  0  0  0  0  0  0  0
  144.8272   73.8836  221.8370 H   0  0  0  0  0  0  0  0  0  0  0  0
  144.5116   71.5388  219.9334 H   0  0  0  0  0  0  0  0  0  0  0  0
  144.1744   71.6566  221.7147 H   0  0  0  0  0  0  0  0  0  0  0  0
  142.4243   72.3337  219.3778 H   0  0  0  0  0  0  0  0  0  0  0  0
  141.9997   71.7371  221.0247 H   0  0  0  0  0  0  0  0  0  0  0  0
  1  2  2  0
  2  3  2  0
  2  4  1  0
  4  5  1  0
  5  6  2  0
  6  7  1  0
  7  8  2  0
  8  9  1  0
  9 10  1  0
 10 11  1  0
 10 12  1  0
  8 13  1  0
 13 14  2  0
 14 15  1  0
 15 16  1  0
 16 17  2  0
 17 18  1  0
 18 19  2  0
 19 20  1  0
 20 21  2  0
  2 22  1  0
 22 23  1  0
 23 24  1  0
 24 25  1  0
 25 26  1  0
 26 27  1  0
 14  5  1  0
 21 16  1  0
 27 22  1  0
  6 28  1  0
  7 29  1  0
 10 30  1  0
 13 31  1  0
 17 32  1  0
 18 33  1  0
 19 34  1  0
 20 35  1  0
 21 36  1  0
 23 37  1  0
 23 38  1  0
 24 39  1  0
 24 40  1  0
 25 41  1  0
 25 42  1  0
 26 43  1  0
 26 44  1  0
 27 45  1  0
 27 46  1  0
M  CHG  1   4  -1
M  END
>  <UniqueID>  (48) 
30

>  <SMILES>  (48) 
O=S(=O)([N-]c1ccc(SC(F)F)cc1Sc1ccccc1)N1CCCCC1

>  <Energy>  (48) 
41.81722451958305

>  <Genealogy>  (48) 
O=S(=O)([N-]c1ccc(SC(F)F)cc1Sc1ccccc1)N1CCCCC1 (protonated)
O=S(=O)([N-]c1ccc(SC(F)F)cc1Sc1ccccc1)N1CCCCC1 (3D coordinates assigned)
O=S(=O)([N-]c1ccc(SC(F)F)cc1Sc1ccccc1)N1CCCCC1 (nonaromatic ring conformer: 41.81722451958305 kcal/mol)

>  <smiles>  (48) 
O=S(=O)(Nc1ccc(SC(F)F)cc1Sc1ccccc1)N1CCCCC1

>  <score_type>  (48) 
oracle

>  <origin>  (48) 
autodockgpu

>  <m_score__min__energy>  (48) 
-6.96

>  <m_primary>  (48) 
energy

>  <meeko>  (48) 
{"free_energy": -5.92, "intermolecular_energy": -8.01, "internal_energy": -1.76, "cluster_size": 5, "cluster_id": 4, "rank_in_cluster": 4}

>  <energy>  (48) 
-6.8

>  <cluster_rmsd>  (48) 
0.4

>  <rmsd>  (48) 
271.94

>  <cluster>  (48) 
3

$$$$
RCYZJXIDXHYHGN-UHFFFAOYNA-N
     RDKit          3D

 46 48  0  0  0  0  0  0  0  0999 V2000
  140.2000   74.9080  219.6000 O   0  0  0  0  0  0  0  0  0  0  0  0
  140.5480   74.0470  220.7830 S   0  0  0  0  0  0  0  0  0  0  0  0
  139.9030   72.6950  220.6360 O   0  0  0  0  0  0  0  0  0  0  0  0
  139.9740   74.8010  222.2360 N   0  0  0  0  0  0  0  0  0  0  0  0
  139.1660   75.9860  222.2960 C   0  0  0  0  0  0  0  0  0  0  0  0
  137.8310   75.9480  222.7390 C   0  0  0  0  0  0  0  0  0  0  0  0
  137.0760   77.1220  222.8080 C   0  0  0  0  0  0  0  0  0  0  0  0
  137.6420   78.3450  222.4400 C   0  0  0  0  0  0  0  0  0  0  0  0
  136.6590   79.8460  222.5080 S   0  0  0  0  0  0  0  0  0  0  0  0
  137.9100   80.8120  223.4190 C   0  0  0  0  0  0  0  0  0  0  0  0
  138.5360   80.0160  224.3580 F   0  0  0  0  0  0  0  0  0  0  0  0
  138.8470   81.3330  222.5430 F   0  0  0  0  0  0  0  0  0  0  0  0
  138.9640   78.3920  221.9860 C   0  0  0  0  0  0  0  0  0  0  0  0
  139.7260   77.2190  221.9090 C   0  0  0  0  0  0  0  0  0  0  0  0
  141.4120   77.3140  221.2910 S   0  0  0  0  0  0  0  0  0  0  0  0
  141.7410   78.8500  222.1540 C   0  0  0  0  0  0  0  0  0  0  0  0
  141.8160   80.0530  221.4400 C   0  0  0  0  0  0  0  0  0  0  0  0
  142.0670   81.2530  222.1150 C   0  0  0  0  0  0  0  0  0  0  0  0
  142.2650   81.2500  223.4980 C   0  0  0  0  0  0  0  0  0  0  0  0
  142.2010   80.0490  224.2120 C   0  0  0  0  0  0  0  0  0  0  0  0
  141.9300   78.8520  223.5430 C   0  0  0  0  0  0  0  0  0  0  0  0
  142.2790   73.8410  220.8850 N   0  0  0  0  0  0  0  0  0  0  0  0
  142.9490   74.8220  220.0020 C   0  0  0  0  0  0  0  0  0  0  0  0
  144.4530   74.5100  219.8060 C   0  0  0  0  0  0  0  0  0  0  0  0
  144.9540   73.5080  220.8500 C   0  0  0  0  0  0  0  0  0  0  0  0
  144.1350   72.2040  220.7960 C   0  0  0  0  0  0  0  0  0  0  0  0
  142.6390   72.4660  220.5050 C   0  0  0  0  0  0  0  0  0  0  0  0
  137.3792   74.9890  223.0326 H   0  0  0  0  0  0  0  0  0  0  0  0
  136.0323   77.0829  223.1533 H   0  0  0  0  0  0  0  0  0  0  0  0
  137.4043   81.6423  223.9336 H   0  0  0  0  0  0  0  0  0  0  0  0
  139.4072   79.3537  221.6882 H   0  0  0  0  0  0  0  0  0  0  0  0
  141.6776   80.0544  220.3487 H   0  0  0  0  0  0  0  0  0  0  0  0
  142.1084   82.1995  221.5561 H   0  0  0  0  0  0  0  0  0  0  0  0
  142.4714   82.1928  224.0257 H   0  0  0  0  0  0  0  0  0  0  0  0
  142.3639   80.0465  225.2999 H   0  0  0  0  0  0  0  0  0  0  0  0
  141.8649   77.9101  224.1074 H   0  0  0  0  0  0  0  0  0  0  0  0
  142.4545   74.8082  219.0195 H   0  0  0  0  0  0  0  0  0  0  0  0
  142.8711   75.8101  220.4790 H   0  0  0  0  0  0  0  0  0  0  0  0
  144.6032   74.0866  218.8019 H   0  0  0  0  0  0  0  0  0  0  0  0
  145.0198   75.4455  219.9226 H   0  0  0  0  0  0  0  0  0  0  0  0
  146.0111   73.2782  220.6507 H   0  0  0  0  0  0  0  0  0  0  0  0
  144.8402   73.9541  221.8490 H   0  0  0  0  0  0  0  0  0  0  0  0
  144.5433   71.5618  220.0018 H   0  0  0  0  0  0  0  0  0  0  0  0
  144.2078   71.7183  221.7803 H   0  0  0  0  0  0  0  0  0  0  0  0
  142.4478   72.3243  219.4311 H   0  0  0  0  0  0  0  0  0  0  0  0
  142.0312   71.7615  221.0917 H   0  0  0  0  0  0  0  0  0  0  0  0
  1  2  2  0
  2  3  2  0
  2  4  1  0
  4  5  1  0
  5  6  2  0
  6  7  1  0
  7  8  2  0
  8  9  1  0
  9 10  1  0
 10 11  1  0
 10 12  1  0
  8 13  1  0
 13 14  2  0
 14 15  1  0
 15 16  1  0
 16 17  2  0
 17 18  1  0
 18 19  2  0
 19 20  1  0
 20 21  2  0
  2 22  1  0
 22 23  1  0
 23 24  1  0
 24 25  1  0
 25 26  1  0
 26 27  1  0
 14  5  1  0
 21 16  1  0
 27 22  1  0
  6 28  1  0
  7 29  1  0
 10 30  1  0
 13 31  1  0
 17 32  1  0
 18 33  1  0
 19 34  1  0
 20 35  1  0
 21 36  1  0
 23 37  1  0
 23 38  1  0
 24 39  1  0
 24 40  1  0
 25 41  1  0
 25 42  1  0
 26 43  1  0
 26 44  1  0
 27 45  1  0
 27 46  1  0
M  CHG  1   4  -1
M  END
>  <UniqueID>  (49) 
30

>  <SMILES>  (49) 
O=S(=O)([N-]c1ccc(SC(F)F)cc1Sc1ccccc1)N1CCCCC1

>  <Energy>  (49) 
41.81722451958305

>  <Genealogy>  (49) 
O=S(=O)([N-]c1ccc(SC(F)F)cc1Sc1ccccc1)N1CCCCC1 (protonated)
O=S(=O)([N-]c1ccc(SC(F)F)cc1Sc1ccccc1)N1CCCCC1 (3D coordinates assigned)
O=S(=O)([N-]c1ccc(SC(F)F)cc1Sc1ccccc1)N1CCCCC1 (nonaromatic ring conformer: 41.81722451958305 kcal/mol)

>  <smiles>  (49) 
O=S(=O)(Nc1ccc(SC(F)F)cc1Sc1ccccc1)N1CCCCC1

>  <score_type>  (49) 
oracle

>  <origin>  (49) 
autodockgpu

>  <m_score__min__energy>  (49) 
-6.96

>  <m_primary>  (49) 
energy

>  <meeko>  (49) 
{"free_energy": -5.92, "intermolecular_energy": -8.01, "internal_energy": -1.76, "cluster_size": 5, "cluster_id": 4, "rank_in_cluster": 5}

>  <energy>  (49) 
-6.8

>  <cluster_rmsd>  (49) 
0.71

>  <rmsd>  (49) 
271.83

>  <cluster>  (49) 
3

$$$$
RCYZJXIDXHYHGN-UHFFFAOYNA-N
     RDKit          3D

 46 48  0  0  0  0  0  0  0  0999 V2000
  140.2100   73.9730  222.3430 O   0  0  0  0  0  0  0  0  0  0  0  0
  140.8510   72.9270  221.4710 S   0  0  0  0  0  0  0  0  0  0  0  0
  140.1560   72.8810  220.1370 O   0  0  0  0  0  0  0  0  0  0  0  0
  140.7230   71.3770  222.2400 N   0  0  0  0  0  0  0  0  0  0  0  0
  139.5420   70.8530  222.8630 C   0  0  0  0  0  0  0  0  0  0  0  0
  138.4710   70.3420  222.1060 C   0  0  0  0  0  0  0  0  0  0  0  0
  137.3430   69.8170  222.7420 C   0  0  0  0  0  0  0  0  0  0  0  0
  137.2710   69.7900  224.1370 C   0  0  0  0  0  0  0  0  0  0  0  0
  135.8090   69.1360  224.9480 S   0  0  0  0  0  0  0  0  0  0  0  0
  134.8990   70.7160  224.9300 C   0  0  0  0  0  0  0  0  0  0  0  0
  134.3750   70.9780  226.1810 F   0  0  0  0  0  0  0  0  0  0  0  0
  135.7350   71.7490  224.5440 F   0  0  0  0  0  0  0  0  0  0  0  0
  138.3240   70.3060  224.8990 C   0  0  0  0  0  0  0  0  0  0  0  0
  139.4560   70.8400  224.2690 C   0  0  0  0  0  0  0  0  0  0  0  0
  140.7760   71.5220  225.2810 S   0  0  0  0  0  0  0  0  0  0  0  0
  140.6560   70.2040  226.4900 C   0  0  0  0  0  0  0  0  0  0  0  0
  141.1540   68.9300  226.1900 C   0  0  0  0  0  0  0  0  0  0  0  0
  141.0650   67.9030  227.1360 C   0  0  0  0  0  0  0  0  0  0  0  0
  140.4590   68.1410  228.3740 C   0  0  0  0  0  0  0  0  0  0  0  0
  139.9520   69.4090  228.6710 C   0  0  0  0  0  0  0  0  0  0  0  0
  140.0580   70.4420  227.7350 C   0  0  0  0  0  0  0  0  0  0  0  0
  142.5360   73.3100  221.2190 N   0  0  0  0  0  0  0  0  0  0  0  0
  142.6520   74.5830  220.4750 C   0  0  0  0  0  0  0  0  0  0  0  0
  144.0880   74.8360  219.9550 C   0  0  0  0  0  0  0  0  0  0  0  0
  145.1000   73.9150  220.6440 C   0  0  0  0  0  0  0  0  0  0  0  0
  144.7200   72.4360  220.4430 C   0  0  0  0  0  0  0  0  0  0  0  0
  143.1900   72.2150  220.4840 C   0  0  0  0  0  0  0  0  0  0  0  0
  138.5223   70.3560  221.0073 H   0  0  0  0  0  0  0  0  0  0  0  0
  136.5089   69.4237  222.1423 H   0  0  0  0  0  0  0  0  0  0  0  0
  134.0751   70.6367  224.2055 H   0  0  0  0  0  0  0  0  0  0  0  0
  138.2634   70.2926  225.9972 H   0  0  0  0  0  0  0  0  0  0  0  0
  141.6153   68.7366  225.2103 H   0  0  0  0  0  0  0  0  0  0  0  0
  141.4720   66.9073  226.9059 H   0  0  0  0  0  0  0  0  0  0  0  0
  140.3815   67.3304  229.1135 H   0  0  0  0  0  0  0  0  0  0  0  0
  139.4692   69.5944  229.6419 H   0  0  0  0  0  0  0  0  0  0  0  0
  139.6714   71.4432  227.9761 H   0  0  0  0  0  0  0  0  0  0  0  0
  141.9656   74.5535  219.6159 H   0  0  0  0  0  0  0  0  0  0  0  0
  142.3981   75.3994  221.1671 H   0  0  0  0  0  0  0  0  0  0  0  0
  144.1145   74.6503  218.8711 H   0  0  0  0  0  0  0  0  0  0  0  0
  144.3593   75.8784  220.1780 H   0  0  0  0  0  0  0  0  0  0  0  0
  146.0980   74.0921  220.2165 H   0  0  0  0  0  0  0  0  0  0  0  0
  145.1001   74.1354  221.7217 H   0  0  0  0  0  0  0  0  0  0  0  0
  145.1000   72.1022  219.4662 H   0  0  0  0  0  0  0  0  0  0  0  0
  145.1668   71.8579  221.2653 H   0  0  0  0  0  0  0  0  0  0  0  0
  142.8000   72.1841  219.4559 H   0  0  0  0  0  0  0  0  0  0  0  0
  142.9790   71.2642  220.9954 H   0  0  0  0  0  0  0  0  0  0  0  0
  1  2  2  0
  2  3  2  0
  2  4  1  0
  4  5  1  0
  5  6  2  0
  6  7  1  0
  7  8  2  0
  8  9  1  0
  9 10  1  0
 10 11  1  0
 10 12  1  0
  8 13  1  0
 13 14  2  0
 14 15  1  0
 15 16  1  0
 16 17  2  0
 17 18  1  0
 18 19  2  0
 19 20  1  0
 20 21  2  0
  2 22  1  0
 22 23  1  0
 23 24  1  0
 24 25  1  0
 25 26  1  0
 26 27  1  0
 14  5  1  0
 21 16  1  0
 27 22  1  0
  6 28  1  0
  7 29  1  0
 10 30  1  0
 13 31  1  0
 17 32  1  0
 18 33  1  0
 19 34  1  0
 20 35  1  0
 21 36  1  0
 23 37  1  0
 23 38  1  0
 24 39  1  0
 24 40  1  0
 25 41  1  0
 25 42  1  0
 26 43  1  0
 26 44  1  0
 27 45  1  0
 27 46  1  0
M  CHG  1   4  -1
M  END
>  <UniqueID>  (50) 
30

>  <SMILES>  (50) 
O=S(=O)([N-]c1ccc(SC(F)F)cc1Sc1ccccc1)N1CCCCC1

>  <Energy>  (50) 
41.81722451958305

>  <Genealogy>  (50) 
O=S(=O)([N-]c1ccc(SC(F)F)cc1Sc1ccccc1)N1CCCCC1 (protonated)
O=S(=O)([N-]c1ccc(SC(F)F)cc1Sc1ccccc1)N1CCCCC1 (3D coordinates assigned)
O=S(=O)([N-]c1ccc(SC(F)F)cc1Sc1ccccc1)N1CCCCC1 (nonaromatic ring conformer: 41.81722451958305 kcal/mol)

>  <smiles>  (50) 
O=S(=O)(Nc1ccc(SC(F)F)cc1Sc1ccccc1)N1CCCCC1

>  <score_type>  (50) 
oracle

>  <origin>  (50) 
autodockgpu

>  <m_score__min__energy>  (50) 
-6.96

>  <m_primary>  (50) 
energy

>  <meeko>  (50) 
{"free_energy": -6.96, "intermolecular_energy": -9.04, "internal_energy": -1.31, "cluster_size": 3, "cluster_id": 1, "rank_in_cluster": 1}

>  <energy>  (50) 
-6.76

>  <cluster_rmsd>  (50) 
0.39

>  <rmsd>  (50) 
271.92

>  <cluster>  (50) 
3

$$$$
RCYZJXIDXHYHGN-UHFFFAOYNA-N
     RDKit          3D

 46 48  0  0  0  0  0  0  0  0999 V2000
  138.6210   71.8970  220.8960 O   0  0  0  0  0  0  0  0  0  0  0  0
  139.7810   72.1470  221.8230 S   0  0  0  0  0  0  0  0  0  0  0  0
  141.0410   71.5840  221.2240 O   0  0  0  0  0  0  0  0  0  0  0  0
  139.4770   71.3790  223.3490 N   0  0  0  0  0  0  0  0  0  0  0  0
  138.1950   70.9370  223.8170 C   0  0  0  0  0  0  0  0  0  0  0  0
  137.0220   71.6720  223.5640 C   0  0  0  0  0  0  0  0  0  0  0  0
  135.7840   71.2040  224.0130 C   0  0  0  0  0  0  0  0  0  0  0  0
  135.7000   69.9990  224.7150 C   0  0  0  0  0  0  0  0  0  0  0  0
  134.1100   69.4160  225.3100 S   0  0  0  0  0  0  0  0  0  0  0  0
  133.9120   70.7380  226.5510 C   0  0  0  0  0  0  0  0  0  0  0  0
  132.5710   70.9950  226.7640 F   0  0  0  0  0  0  0  0  0  0  0  0
  134.5170   70.3750  227.7410 F   0  0  0  0  0  0  0  0  0  0  0  0
  136.8610   69.2670  224.9830 C   0  0  0  0  0  0  0  0  0  0  0  0
  138.1070   69.7320  224.5410 C   0  0  0  0  0  0  0  0  0  0  0  0
  139.5810   68.7800  224.9310 S   0  0  0  0  0  0  0  0  0  0  0  0
  140.1620   69.9910  226.1170 C   0  0  0  0  0  0  0  0  0  0  0  0
  139.6700   69.9800  227.4290 C   0  0  0  0  0  0  0  0  0  0  0  0
  140.1280   70.9220  228.3570 C   0  0  0  0  0  0  0  0  0  0  0  0
  141.0590   71.8900  227.9710 C   0  0  0  0  0  0  0  0  0  0  0  0
  141.5430   71.9100  226.6590 C   0  0  0  0  0  0  0  0  0  0  0  0
  141.1030   70.9570  225.7360 C   0  0  0  0  0  0  0  0  0  0  0  0
  139.9890   73.8630  222.0710 N   0  0  0  0  0  0  0  0  0  0  0  0
  138.6790   74.5430  221.9620 C   0  0  0  0  0  0  0  0  0  0  0  0
  138.8190   76.0830  221.8710 C   0  0  0  0  0  0  0  0  0  0  0  0
  140.2200   76.5400  222.2870 C   0  0  0  0  0  0  0  0  0  0  0  0
  141.2980   75.8620  221.4200 C   0  0  0  0  0  0  0  0  0  0  0  0
  140.9380   74.3970  221.0810 C   0  0  0  0  0  0  0  0  0  0  0  0
  137.0798   72.6203  223.0096 H   0  0  0  0  0  0  0  0  0  0  0  0
  134.8725   71.7865  223.8130 H   0  0  0  0  0  0  0  0  0  0  0  0
  134.3953   71.6501  226.1708 H   0  0  0  0  0  0  0  0  0  0  0  0
  136.7960   68.3224  225.5430 H   0  0  0  0  0  0  0  0  0  0  0  0
  138.9232   69.2304  227.7297 H   0  0  0  0  0  0  0  0  0  0  0  0
  139.7547   70.9005  229.3915 H   0  0  0  0  0  0  0  0  0  0  0  0
  141.4110   72.6359  228.6988 H   0  0  0  0  0  0  0  0  0  0  0  0
  142.2705   72.6763  226.3532 H   0  0  0  0  0  0  0  0  0  0  0  0
  141.4961   70.9653  224.7087 H   0  0  0  0  0  0  0  0  0  0  0  0
  138.1670   74.1808  221.0583 H   0  0  0  0  0  0  0  0  0  0  0  0
  138.1043   74.3115  222.8709 H   0  0  0  0  0  0  0  0  0  0  0  0
  138.6322   76.3991  220.8341 H   0  0  0  0  0  0  0  0  0  0  0  0
  138.0878   76.5390  222.5547 H   0  0  0  0  0  0  0  0  0  0  0  0
  140.2939   77.6309  222.1662 H   0  0  0  0  0  0  0  0  0  0  0  0
  140.3847   76.2584  223.3375 H   0  0  0  0  0  0  0  0  0  0  0  0
  141.4052   76.4267  220.4821 H   0  0  0  0  0  0  0  0  0  0  0  0
  142.2372   75.8553  221.9926 H   0  0  0  0  0  0  0  0  0  0  0  0
  140.4805   74.3576  220.0814 H   0  0  0  0  0  0  0  0  0  0  0  0
  141.8548   73.7894  221.0995 H   0  0  0  0  0  0  0  0  0  0  0  0
  1  2  2  0
  2  3  2  0
  2  4  1  0
  4  5  1  0
  5  6  2  0
  6  7  1  0
  7  8  2  0
  8  9  1  0
  9 10  1  0
 10 11  1  0
 10 12  1  0
  8 13  1  0
 13 14  2  0
 14 15  1  0
 15 16  1  0
 16 17  2  0
 17 18  1  0
 18 19  2  0
 19 20  1  0
 20 21  2  0
  2 22  1  0
 22 23  1  0
 23 24  1  0
 24 25  1  0
 25 26  1  0
 26 27  1  0
 14  5  1  0
 21 16  1  0
 27 22  1  0
  6 28  1  0
  7 29  1  0
 10 30  1  0
 13 31  1  0
 17 32  1  0
 18 33  1  0
 19 34  1  0
 20 35  1  0
 21 36  1  0
 23 37  1  0
 23 38  1  0
 24 39  1  0
 24 40  1  0
 25 41  1  0
 25 42  1  0
 26 43  1  0
 26 44  1  0
 27 45  1  0
 27 46  1  0
M  CHG  1   4  -1
M  END
>  <UniqueID>  (51) 
30

>  <SMILES>  (51) 
O=S(=O)([N-]c1ccc(SC(F)F)cc1Sc1ccccc1)N1CCCCC1

>  <Energy>  (51) 
41.81722451958305

>  <Genealogy>  (51) 
O=S(=O)([N-]c1ccc(SC(F)F)cc1Sc1ccccc1)N1CCCCC1 (protonated)
O=S(=O)([N-]c1ccc(SC(F)F)cc1Sc1ccccc1)N1CCCCC1 (3D coordinates assigned)
O=S(=O)([N-]c1ccc(SC(F)F)cc1Sc1ccccc1)N1CCCCC1 (nonaromatic ring conformer: 41.81722451958305 kcal/mol)

>  <smiles>  (51) 
O=S(=O)(Nc1ccc(SC(F)F)cc1Sc1ccccc1)N1CCCCC1

>  <score_type>  (51) 
oracle

>  <origin>  (51) 
autodockgpu

>  <m_score__min__energy>  (51) 
-6.96

>  <m_primary>  (51) 
energy

>  <meeko>  (51) 
{"free_energy": -6.84, "intermolecular_energy": -8.93, "internal_energy": -1.46, "cluster_size": 3, "cluster_id": 2, "rank_in_cluster": 2}

>  <energy>  (51) 
-6.76

>  <cluster_rmsd>  (51) 
0.42

>  <rmsd>  (51) 
271.9

>  <cluster>  (51) 
3

$$$$
RCYZJXIDXHYHGN-UHFFFAOYNA-N
     RDKit          3D

 46 48  0  0  0  0  0  0  0  0999 V2000
  134.3140   67.1800  226.2080 O   0  0  0  0  0  0  0  0  0  0  0  0
  134.4500   68.4280  225.3780 S   0  0  0  0  0  0  0  0  0  0  0  0
  133.9770   68.1590  223.9750 O   0  0  0  0  0  0  0  0  0  0  0  0
  136.1140   68.9170  225.3390 N   0  0  0  0  0  0  0  0  0  0  0  0
  136.6660   69.9250  224.4780 C   0  0  0  0  0  0  0  0  0  0  0  0
  135.8490   70.8730  223.8340 C   0  0  0  0  0  0  0  0  0  0  0  0
  136.4170   71.8570  223.0200 C   0  0  0  0  0  0  0  0  0  0  0  0
  137.8020   71.9100  222.8430 C   0  0  0  0  0  0  0  0  0  0  0  0
  138.5230   73.1620  221.7770 S   0  0  0  0  0  0  0  0  0  0  0  0
  140.2020   72.4510  221.8130 C   0  0  0  0  0  0  0  0  0  0  0  0
  140.7150   72.5050  223.0940 F   0  0  0  0  0  0  0  0  0  0  0  0
  140.1800   71.1400  221.3690 F   0  0  0  0  0  0  0  0  0  0  0  0
  138.6210   70.9650  223.4680 C   0  0  0  0  0  0  0  0  0  0  0  0
  138.0590   69.9720  224.2810 C   0  0  0  0  0  0  0  0  0  0  0  0
  139.1410   68.7560  225.0450 S   0  0  0  0  0  0  0  0  0  0  0  0
  139.9000   69.9710  226.1230 C   0  0  0  0  0  0  0  0  0  0  0  0
  140.8320   70.8800  225.6060 C   0  0  0  0  0  0  0  0  0  0  0  0
  141.4200   71.8320  226.4470 C   0  0  0  0  0  0  0  0  0  0  0  0
  141.0960   71.8620  227.8060 C   0  0  0  0  0  0  0  0  0  0  0  0
  140.1740   70.9480  228.3260 C   0  0  0  0  0  0  0  0  0  0  0  0
  139.5700   70.0090  227.4850 C   0  0  0  0  0  0  0  0  0  0  0  0
  133.4870   69.7110  226.0650 N   0  0  0  0  0  0  0  0  0  0  0  0
  132.7510   70.4110  224.9890 C   0  0  0  0  0  0  0  0  0  0  0  0
  132.1150   71.7380  225.4730 C   0  0  0  0  0  0  0  0  0  0  0  0
  132.0830   71.8140  227.0030 C   0  0  0  0  0  0  0  0  0  0  0  0
  133.5000   71.6630  227.5890 C   0  0  0  0  0  0  0  0  0  0  0  0
  134.3550   70.6470  226.7970 C   0  0  0  0  0  0  0  0  0  0  0  0
  134.7582   70.8393  223.9720 H   0  0  0  0  0  0  0  0  0  0  0  0
  135.7716   72.5921  222.5170 H   0  0  0  0  0  0  0  0  0  0  0  0
  140.8457   73.0412  221.1442 H   0  0  0  0  0  0  0  0  0  0  0  0
  139.7105   71.0012  223.3209 H   0  0  0  0  0  0  0  0  0  0  0  0
  141.1016   70.8457  224.5401 H   0  0  0  0  0  0  0  0  0  0  0  0
  142.1382   72.5576  226.0375 H   0  0  0  0  0  0  0  0  0  0  0  0
  141.5663   72.6048  228.4670 H   0  0  0  0  0  0  0  0  0  0  0  0
  139.9241   70.9681  229.3970 H   0  0  0  0  0  0  0  0  0  0  0  0
  138.8350   69.2991  227.8923 H   0  0  0  0  0  0  0  0  0  0  0  0
  133.4505   70.6331  224.1696 H   0  0  0  0  0  0  0  0  0  0  0  0
  131.9362   69.7510  224.6567 H   0  0  0  0  0  0  0  0  0  0  0  0
  132.7053   72.5810  225.0846 H   0  0  0  0  0  0  0  0  0  0  0  0
  131.0807   71.7834  225.1012 H   0  0  0  0  0  0  0  0  0  0  0  0
  131.6690   72.7867  227.3070 H   0  0  0  0  0  0  0  0  0  0  0  0
  131.4554   70.9945  227.3833 H   0  0  0  0  0  0  0  0  0  0  0  0
  134.0000   72.6425  227.5636 H   0  0  0  0  0  0  0  0  0  0  0  0
  133.4012   71.2903  228.6192 H   0  0  0  0  0  0  0  0  0  0  0  0
  134.9909   71.1880  226.0808 H   0  0  0  0  0  0  0  0  0  0  0  0
  134.9804   70.0791  227.5015 H   0  0  0  0  0  0  0  0  0  0  0  0
  1  2  2  0
  2  3  2  0
  2  4  1  0
  4  5  1  0
  5  6  2  0
  6  7  1  0
  7  8  2  0
  8  9  1  0
  9 10  1  0
 10 11  1  0
 10 12  1  0
  8 13  1  0
 13 14  2  0
 14 15  1  0
 15 16  1  0
 16 17  2  0
 17 18  1  0
 18 19  2  0
 19 20  1  0
 20 21  2  0
  2 22  1  0
 22 23  1  0
 23 24  1  0
 24 25  1  0
 25 26  1  0
 26 27  1  0
 14  5  1  0
 21 16  1  0
 27 22  1  0
  6 28  1  0
  7 29  1  0
 10 30  1  0
 13 31  1  0
 17 32  1  0
 18 33  1  0
 19 34  1  0
 20 35  1  0
 21 36  1  0
 23 37  1  0
 23 38  1  0
 24 39  1  0
 24 40  1  0
 25 41  1  0
 25 42  1  0
 26 43  1  0
 26 44  1  0
 27 45  1  0
 27 46  1  0
M  CHG  1   4  -1
M  END
>  <UniqueID>  (52) 
30

>  <SMILES>  (52) 
O=S(=O)([N-]c1ccc(SC(F)F)cc1Sc1ccccc1)N1CCCCC1

>  <Energy>  (52) 
41.81722451958305

>  <Genealogy>  (52) 
O=S(=O)([N-]c1ccc(SC(F)F)cc1Sc1ccccc1)N1CCCCC1 (protonated)
O=S(=O)([N-]c1ccc(SC(F)F)cc1Sc1ccccc1)N1CCCCC1 (3D coordinates assigned)
O=S(=O)([N-]c1ccc(SC(F)F)cc1Sc1ccccc1)N1CCCCC1 (nonaromatic ring conformer: 41.81722451958305 kcal/mol)

>  <smiles>  (52) 
O=S(=O)(Nc1ccc(SC(F)F)cc1Sc1ccccc1)N1CCCCC1

>  <score_type>  (52) 
oracle

>  <origin>  (52) 
autodockgpu

>  <m_score__min__energy>  (52) 
-6.96

>  <m_primary>  (52) 
energy

>  <meeko>  (52) 
{"free_energy": -6.81, "intermolecular_energy": -8.9, "internal_energy": -1.41, "cluster_size": 7, "cluster_id": 3, "rank_in_cluster": 1}

>  <energy>  (52) 
-6.74

>  <cluster_rmsd>  (52) 
0.38

>  <rmsd>  (52) 
271.92

>  <cluster>  (52) 
3

$$$$
RCYZJXIDXHYHGN-UHFFFAOYNA-N
     RDKit          3D

 46 48  0  0  0  0  0  0  0  0999 V2000
  134.3500   67.3650  226.1610 O   0  0  0  0  0  0  0  0  0  0  0  0
  134.6530   68.5170  225.2410 S   0  0  0  0  0  0  0  0  0  0  0  0
  134.3070   68.1410  223.8250 O   0  0  0  0  0  0  0  0  0  0  0  0
  136.3410   68.9040  225.3370 N   0  0  0  0  0  0  0  0  0  0  0  0
  137.1360   69.4310  224.2650 C   0  0  0  0  0  0  0  0  0  0  0  0
  136.5660   70.1930  223.2280 C   0  0  0  0  0  0  0  0  0  0  0  0
  137.3700   70.7120  222.2090 C   0  0  0  0  0  0  0  0  0  0  0  0
  138.7480   70.4840  222.2150 C   0  0  0  0  0  0  0  0  0  0  0  0
  139.7710   71.1340  220.8910 S   0  0  0  0  0  0  0  0  0  0  0  0
  140.8110   72.1590  221.9840 C   0  0  0  0  0  0  0  0  0  0  0  0
  142.0120   72.4490  221.3650 F   0  0  0  0  0  0  0  0  0  0  0  0
  140.1550   73.3330  222.3100 F   0  0  0  0  0  0  0  0  0  0  0  0
  139.3220   69.7180  223.2340 C   0  0  0  0  0  0  0  0  0  0  0  0
  138.5230   69.1890  224.2560 C   0  0  0  0  0  0  0  0  0  0  0  0
  139.2930   68.1840  225.5320 S   0  0  0  0  0  0  0  0  0  0  0  0
  139.9700   69.6120  226.3790 C   0  0  0  0  0  0  0  0  0  0  0  0
  139.5750   69.9000  227.6920 C   0  0  0  0  0  0  0  0  0  0  0  0
  140.1080   71.0110  228.3550 C   0  0  0  0  0  0  0  0  0  0  0  0
  141.0160   71.8490  227.7000 C   0  0  0  0  0  0  0  0  0  0  0  0
  141.4020   71.5690  226.3850 C   0  0  0  0  0  0  0  0  0  0  0  0
  140.8880   70.4480  225.7280 C   0  0  0  0  0  0  0  0  0  0  0  0
  133.7120   69.9130  225.7030 N   0  0  0  0  0  0  0  0  0  0  0  0
  133.6350   70.8590  224.5670 C   0  0  0  0  0  0  0  0  0  0  0  0
  133.0800   72.2420  224.9860 C   0  0  0  0  0  0  0  0  0  0  0  0
  132.4080   72.1790  226.3610 C   0  0  0  0  0  0  0  0  0  0  0  0
  133.3900   71.6610  227.4280 C   0  0  0  0  0  0  0  0  0  0  0  0
  134.3220   70.5570  226.8770 C   0  0  0  0  0  0  0  0  0  0  0  0
  135.4822   70.3811  223.2193 H   0  0  0  0  0  0  0  0  0  0  0  0
  136.9157   71.3021  221.3994 H   0  0  0  0  0  0  0  0  0  0  0  0
  141.0102   71.5946  222.9069 H   0  0  0  0  0  0  0  0  0  0  0  0
  140.4058   69.5298  223.2333 H   0  0  0  0  0  0  0  0  0  0  0  0
  138.8460   69.2528  228.2016 H   0  0  0  0  0  0  0  0  0  0  0  0
  139.8125   71.2255  229.3926 H   0  0  0  0  0  0  0  0  0  0  0  0
  141.4265   72.7279  228.2187 H   0  0  0  0  0  0  0  0  0  0  0  0
  142.1109   72.2320  225.8675 H   0  0  0  0  0  0  0  0  0  0  0  0
  141.2040   70.2213  224.6990 H   0  0  0  0  0  0  0  0  0  0  0  0
  134.6444   70.9948  224.1516 H   0  0  0  0  0  0  0  0  0  0  0  0
  132.9461   70.4332  223.8226 H   0  0  0  0  0  0  0  0  0  0  0  0
  133.9091   72.9639  225.0252 H   0  0  0  0  0  0  0  0  0  0  0  0
  132.3278   72.5528  224.2460 H   0  0  0  0  0  0  0  0  0  0  0  0
  132.0684   73.1867  226.6426 H   0  0  0  0  0  0  0  0  0  0  0  0
  131.5538   71.4883  226.3039 H   0  0  0  0  0  0  0  0  0  0  0  0
  134.0061   72.5015  227.7803 H   0  0  0  0  0  0  0  0  0  0  0  0
  132.7994   71.2263  228.2479 H   0  0  0  0  0  0  0  0  0  0  0  0
  135.2835   71.0054  226.5863 H   0  0  0  0  0  0  0  0  0  0  0  0
  134.4807   69.7995  227.6587 H   0  0  0  0  0  0  0  0  0  0  0  0
  1  2  2  0
  2  3  2  0
  2  4  1  0
  4  5  1  0
  5  6  2  0
  6  7  1  0
  7  8  2  0
  8  9  1  0
  9 10  1  0
 10 11  1  0
 10 12  1  0
  8 13  1  0
 13 14  2  0
 14 15  1  0
 15 16  1  0
 16 17  2  0
 17 18  1  0
 18 19  2  0
 19 20  1  0
 20 21  2  0
  2 22  1  0
 22 23  1  0
 23 24  1  0
 24 25  1  0
 25 26  1  0
 26 27  1  0
 14  5  1  0
 21 16  1  0
 27 22  1  0
  6 28  1  0
  7 29  1  0
 10 30  1  0
 13 31  1  0
 17 32  1  0
 18 33  1  0
 19 34  1  0
 20 35  1  0
 21 36  1  0
 23 37  1  0
 23 38  1  0
 24 39  1  0
 24 40  1  0
 25 41  1  0
 25 42  1  0
 26 43  1  0
 26 44  1  0
 27 45  1  0
 27 46  1  0
M  CHG  1   4  -1
M  END
>  <UniqueID>  (53) 
30

>  <SMILES>  (53) 
O=S(=O)([N-]c1ccc(SC(F)F)cc1Sc1ccccc1)N1CCCCC1

>  <Energy>  (53) 
41.81722451958305

>  <Genealogy>  (53) 
O=S(=O)([N-]c1ccc(SC(F)F)cc1Sc1ccccc1)N1CCCCC1 (protonated)
O=S(=O)([N-]c1ccc(SC(F)F)cc1Sc1ccccc1)N1CCCCC1 (3D coordinates assigned)
O=S(=O)([N-]c1ccc(SC(F)F)cc1Sc1ccccc1)N1CCCCC1 (nonaromatic ring conformer: 41.81722451958305 kcal/mol)

>  <smiles>  (53) 
O=S(=O)(Nc1ccc(SC(F)F)cc1Sc1ccccc1)N1CCCCC1

>  <score_type>  (53) 
oracle

>  <origin>  (53) 
autodockgpu

>  <m_score__min__energy>  (53) 
-6.96

>  <m_primary>  (53) 
energy

>  <meeko>  (53) 
{"free_energy": -6.65, "intermolecular_energy": -8.74, "internal_energy": -1.47, "cluster_size": 7, "cluster_id": 3, "rank_in_cluster": 7}

>  <energy>  (53) 
-6.65

>  <cluster_rmsd>  (53) 
1.0

>  <rmsd>  (53) 
271.92

>  <cluster>  (53) 
3

$$$$
RCYZJXIDXHYHGN-UHFFFAOYNA-N
     RDKit          3D

 46 48  0  0  0  0  0  0  0  0999 V2000
  140.1950   74.8890  219.5710 O   0  0  0  0  0  0  0  0  0  0  0  0
  140.5180   74.0130  220.7520 S   0  0  0  0  0  0  0  0  0  0  0  0
  139.8300   72.6830  220.6010 O   0  0  0  0  0  0  0  0  0  0  0  0
  139.9720   74.7810  222.2080 N   0  0  0  0  0  0  0  0  0  0  0  0
  139.1590   75.9620  222.2710 C   0  0  0  0  0  0  0  0  0  0  0  0
  137.8260   75.9180  222.7210 C   0  0  0  0  0  0  0  0  0  0  0  0
  137.0660   77.0890  222.7940 C   0  0  0  0  0  0  0  0  0  0  0  0
  137.6250   78.3150  222.4240 C   0  0  0  0  0  0  0  0  0  0  0  0
  136.6350   79.8110  222.4960 S   0  0  0  0  0  0  0  0  0  0  0  0
  137.8730   80.7730  223.4280 C   0  0  0  0  0  0  0  0  0  0  0  0
  138.5000   79.9690  224.3610 F   0  0  0  0  0  0  0  0  0  0  0  0
  138.8120   81.3120  222.5660 F   0  0  0  0  0  0  0  0  0  0  0  0
  138.9440   78.3670  221.9630 C   0  0  0  0  0  0  0  0  0  0  0  0
  139.7110   77.1980  221.8820 C   0  0  0  0  0  0  0  0  0  0  0  0
  141.3930   77.3000  221.2560 S   0  0  0  0  0  0  0  0  0  0  0  0
  141.7170   78.8410  222.1130 C   0  0  0  0  0  0  0  0  0  0  0  0
  141.9360   78.8410  223.4970 C   0  0  0  0  0  0  0  0  0  0  0  0
  142.1950   80.0440  224.1640 C   0  0  0  0  0  0  0  0  0  0  0  0
  142.2120   81.2490  223.4560 C   0  0  0  0  0  0  0  0  0  0  0  0
  141.9820   81.2520  222.0760 C   0  0  0  0  0  0  0  0  0  0  0  0
  141.7440   80.0500  221.4040 C   0  0  0  0  0  0  0  0  0  0  0  0
  142.2420   73.7520  220.8480 N   0  0  0  0  0  0  0  0  0  0  0  0
  142.9490   74.8100  220.0930 C   0  0  0  0  0  0  0  0  0  0  0  0
  144.4470   74.4840  219.8800 C   0  0  0  0  0  0  0  0  0  0  0  0
  144.9080   73.3550  220.8070 C   0  0  0  0  0  0  0  0  0  0  0  0
  144.0580   72.0880  220.5930 C   0  0  0  0  0  0  0  0  0  0  0  0
  142.5740   72.4210  220.3170 C   0  0  0  0  0  0  0  0  0  0  0  0
  137.3799   74.9570  223.0168 H   0  0  0  0  0  0  0  0  0  0  0  0
  136.0241   77.0451  223.1440 H   0  0  0  0  0  0  0  0  0  0  0  0
  137.3569   81.5922  223.9501 H   0  0  0  0  0  0  0  0  0  0  0  0
  139.3813   79.3306  221.6625 H   0  0  0  0  0  0  0  0  0  0  0  0
  141.9044   77.8960  224.0591 H   0  0  0  0  0  0  0  0  0  0  0  0
  142.3855   80.0411  225.2474 H   0  0  0  0  0  0  0  0  0  0  0  0
  142.4061   82.1945  223.9836 H   0  0  0  0  0  0  0  0  0  0  0  0
  141.9885   82.2009  221.5197 H   0  0  0  0  0  0  0  0  0  0  0  0
  141.5776   80.0526  220.3167 H   0  0  0  0  0  0  0  0  0  0  0  0
  142.4690   74.9228  219.1097 H   0  0  0  0  0  0  0  0  0  0  0  0
  142.8886   75.7379  220.6806 H   0  0  0  0  0  0  0  0  0  0  0  0
  144.6017   74.1757  218.8355 H   0  0  0  0  0  0  0  0  0  0  0  0
  145.0347   75.3847  220.1109 H   0  0  0  0  0  0  0  0  0  0  0  0
  145.9619   73.1220  220.5947 H   0  0  0  0  0  0  0  0  0  0  0  0
  144.7907   73.6856  221.8496 H   0  0  0  0  0  0  0  0  0  0  0  0
  144.4618   71.5312  219.7346 H   0  0  0  0  0  0  0  0  0  0  0  0
  144.1044   71.4902  221.5152 H   0  0  0  0  0  0  0  0  0  0  0  0
  142.3951   72.4083  219.2317 H   0  0  0  0  0  0  0  0  0  0  0  0
  141.9408   71.6701  220.8122 H   0  0  0  0  0  0  0  0  0  0  0  0
  1  2  2  0
  2  3  2  0
  2  4  1  0
  4  5  1  0
  5  6  2  0
  6  7  1  0
  7  8  2  0
  8  9  1  0
  9 10  1  0
 10 11  1  0
 10 12  1  0
  8 13  1  0
 13 14  2  0
 14 15  1  0
 15 16  1  0
 16 17  2  0
 17 18  1  0
 18 19  2  0
 19 20  1  0
 20 21  2  0
  2 22  1  0
 22 23  1  0
 23 24  1  0
 24 25  1  0
 25 26  1  0
 26 27  1  0
 14  5  1  0
 21 16  1  0
 27 22  1  0
  6 28  1  0
  7 29  1  0
 10 30  1  0
 13 31  1  0
 17 32  1  0
 18 33  1  0
 19 34  1  0
 20 35  1  0
 21 36  1  0
 23 37  1  0
 23 38  1  0
 24 39  1  0
 24 40  1  0
 25 41  1  0
 25 42  1  0
 26 43  1  0
 26 44  1  0
 27 45  1  0
 27 46  1  0
M  CHG  1   4  -1
M  END
>  <UniqueID>  (54) 
30

>  <SMILES>  (54) 
O=S(=O)([N-]c1ccc(SC(F)F)cc1Sc1ccccc1)N1CCCCC1

>  <Energy>  (54) 
41.81722451958305

>  <Genealogy>  (54) 
O=S(=O)([N-]c1ccc(SC(F)F)cc1Sc1ccccc1)N1CCCCC1 (protonated)
O=S(=O)([N-]c1ccc(SC(F)F)cc1Sc1ccccc1)N1CCCCC1 (3D coordinates assigned)
O=S(=O)([N-]c1ccc(SC(F)F)cc1Sc1ccccc1)N1CCCCC1 (nonaromatic ring conformer: 41.81722451958305 kcal/mol)

>  <smiles>  (54) 
O=S(=O)(Nc1ccc(SC(F)F)cc1Sc1ccccc1)N1CCCCC1

>  <score_type>  (54) 
oracle

>  <origin>  (54) 
autodockgpu

>  <m_score__min__energy>  (54) 
-6.96

>  <m_primary>  (54) 
energy

>  <meeko>  (54) 
{"free_energy": -5.93, "intermolecular_energy": -8.02, "internal_energy": -1.75, "cluster_size": 5, "cluster_id": 4, "rank_in_cluster": 3}

>  <energy>  (54) 
-6.16

>  <cluster_rmsd>  (54) 
0.0

>  <rmsd>  (54) 
273.13

>  <cluster>  (54) 
4

$$$$
RCYZJXIDXHYHGN-UHFFFAOYNA-N
     RDKit          3D

 46 48  0  0  0  0  0  0  0  0999 V2000
  140.5260   82.6880  221.5650 O   0  0  0  0  0  0  0  0  0  0  0  0
  139.7800   81.8360  220.5750 S   0  0  0  0  0  0  0  0  0  0  0  0
  139.4600   82.6440  219.3470 O   0  0  0  0  0  0  0  0  0  0  0  0
  138.3040   81.2740  221.2930 N   0  0  0  0  0  0  0  0  0  0  0  0
  137.9170   81.4680  222.6610 C   0  0  0  0  0  0  0  0  0  0  0  0
  137.3290   82.6690  223.0990 C   0  0  0  0  0  0  0  0  0  0  0  0
  136.9420   82.8210  224.4340 C   0  0  0  0  0  0  0  0  0  0  0  0
  137.1320   81.7780  225.3440 C   0  0  0  0  0  0  0  0  0  0  0  0
  136.6540   81.9880  227.0620 S   0  0  0  0  0  0  0  0  0  0  0  0
  134.9740   81.3130  226.8420 C   0  0  0  0  0  0  0  0  0  0  0  0
  134.0500   82.3380  226.7960 F   0  0  0  0  0  0  0  0  0  0  0  0
  134.9050   80.5640  225.6800 F   0  0  0  0  0  0  0  0  0  0  0  0
  137.7270   80.5860  224.9220 C   0  0  0  0  0  0  0  0  0  0  0  0
  138.1230   80.4270  223.5880 C   0  0  0  0  0  0  0  0  0  0  0  0
  138.9130   78.8910  223.0890 S   0  0  0  0  0  0  0  0  0  0  0  0
  140.5600   79.5830  223.2340 C   0  0  0  0  0  0  0  0  0  0  0  0
  141.6640   78.8730  222.7440 C   0  0  0  0  0  0  0  0  0  0  0  0
  142.9490   79.4160  222.8520 C   0  0  0  0  0  0  0  0  0  0  0  0
  143.1370   80.6550  223.4700 C   0  0  0  0  0  0  0  0  0  0  0  0
  142.0370   81.3600  223.9710 C   0  0  0  0  0  0  0  0  0  0  0  0
  140.7500   80.8300  223.8450 C   0  0  0  0  0  0  0  0  0  0  0  0
  140.7560   80.4640  220.1120 N   0  0  0  0  0  0  0  0  0  0  0  0
  141.6900   80.8590  219.0350 C   0  0  0  0  0  0  0  0  0  0  0  0
  142.3740   79.6400  218.3680 C   0  0  0  0  0  0  0  0  0  0  0  0
  142.2070   78.3760  219.2170 C   0  0  0  0  0  0  0  0  0  0  0  0
  140.7170   78.0740  219.4650 C   0  0  0  0  0  0  0  0  0  0  0  0
  139.8870   79.3620  219.6710 C   0  0  0  0  0  0  0  0  0  0  0  0
  137.1729   83.4929  222.3871 H   0  0  0  0  0  0  0  0  0  0  0  0
  136.4866   83.7646  224.7688 H   0  0  0  0  0  0  0  0  0  0  0  0
  134.7439   80.6624  227.6986 H   0  0  0  0  0  0  0  0  0  0  0  0
  137.8851   79.7687  225.6410 H   0  0  0  0  0  0  0  0  0  0  0  0
  141.5205   77.8887  222.2744 H   0  0  0  0  0  0  0  0  0  0  0  0
  143.8128   78.8665  222.4497 H   0  0  0  0  0  0  0  0  0  0  0  0
  144.1490   81.0759  223.5626 H   0  0  0  0  0  0  0  0  0  0  0  0
  142.1854   82.3319  224.4643 H   0  0  0  0  0  0  0  0  0  0  0  0
  139.8848   81.3924  224.2260 H   0  0  0  0  0  0  0  0  0  0  0  0
  141.1297   81.4130  218.2675 H   0  0  0  0  0  0  0  0  0  0  0  0
  142.4782   81.4795  219.4864 H   0  0  0  0  0  0  0  0  0  0  0  0
  141.9208   79.4708  217.3801 H   0  0  0  0  0  0  0  0  0  0  0  0
  143.4486   79.8543  218.2711 H   0  0  0  0  0  0  0  0  0  0  0  0
  142.6642   77.5253  218.6904 H   0  0  0  0  0  0  0  0  0  0  0  0
  142.6996   78.5365  220.1874 H   0  0  0  0  0  0  0  0  0  0  0  0
  140.3166   77.5295  218.5972 H   0  0  0  0  0  0  0  0  0  0  0  0
  140.6423   77.4733  220.3835 H   0  0  0  0  0  0  0  0  0  0  0  0
  139.4040   79.6382  218.7221 H   0  0  0  0  0  0  0  0  0  0  0  0
  139.1245   79.1770  220.4420 H   0  0  0  0  0  0  0  0  0  0  0  0
  1  2  2  0
  2  3  2  0
  2  4  1  0
  4  5  1  0
  5  6  2  0
  6  7  1  0
  7  8  2  0
  8  9  1  0
  9 10  1  0
 10 11  1  0
 10 12  1  0
  8 13  1  0
 13 14  2  0
 14 15  1  0
 15 16  1  0
 16 17  2  0
 17 18  1  0
 18 19  2  0
 19 20  1  0
 20 21  2  0
  2 22  1  0
 22 23  1  0
 23 24  1  0
 24 25  1  0
 25 26  1  0
 26 27  1  0
 14  5  1  0
 21 16  1  0
 27 22  1  0
  6 28  1  0
  7 29  1  0
 10 30  1  0
 13 31  1  0
 17 32  1  0
 18 33  1  0
 19 34  1  0
 20 35  1  0
 21 36  1  0
 23 37  1  0
 23 38  1  0
 24 39  1  0
 24 40  1  0
 25 41  1  0
 25 42  1  0
 26 43  1  0
 26 44  1  0
 27 45  1  0
 27 46  1  0
M  CHG  1   4  -1
M  END
>  <UniqueID>  (55) 
30

>  <SMILES>  (55) 
O=S(=O)([N-]c1ccc(SC(F)F)cc1Sc1ccccc1)N1CCCCC1

>  <Energy>  (55) 
41.81722451958305

>  <Genealogy>  (55) 
O=S(=O)([N-]c1ccc(SC(F)F)cc1Sc1ccccc1)N1CCCCC1 (protonated)
O=S(=O)([N-]c1ccc(SC(F)F)cc1Sc1ccccc1)N1CCCCC1 (3D coordinates assigned)
O=S(=O)([N-]c1ccc(SC(F)F)cc1Sc1ccccc1)N1CCCCC1 (nonaromatic ring conformer: 41.81722451958305 kcal/mol)

>  <smiles>  (55) 
O=S(=O)(Nc1ccc(SC(F)F)cc1Sc1ccccc1)N1CCCCC1

>  <score_type>  (55) 
oracle

>  <origin>  (55) 
autodockgpu

>  <m_score__min__energy>  (55) 
-6.96

>  <m_primary>  (55) 
energy

>  <meeko>  (55) 
{"free_energy": -5.18, "intermolecular_energy": -7.27, "internal_energy": -2.38, "cluster_size": 1, "cluster_id": 6, "rank_in_cluster": 1}

>  <energy>  (55) 
-6.07

>  <cluster_rmsd>  (55) 
0.33

>  <rmsd>  (55) 
273.02

>  <cluster>  (55) 
4

$$$$
RCYZJXIDXHYHGN-UHFFFAOYNA-N
     RDKit          3D

 46 48  0  0  0  0  0  0  0  0999 V2000
  140.1920   72.9000  219.9880 O   0  0  0  0  0  0  0  0  0  0  0  0
  140.8840   73.8150  220.9630 S   0  0  0  0  0  0  0  0  0  0  0  0
  140.3400   73.5880  222.3470 O   0  0  0  0  0  0  0  0  0  0  0  0
  140.6110   75.4640  220.5020 N   0  0  0  0  0  0  0  0  0  0  0  0
  139.7660   76.3940  221.1960 C   0  0  0  0  0  0  0  0  0  0  0  0
  138.5030   76.0180  221.6890 C   0  0  0  0  0  0  0  0  0  0  0  0
  137.7120   76.9390  222.3810 C   0  0  0  0  0  0  0  0  0  0  0  0
  138.1710   78.2410  222.5940 C   0  0  0  0  0  0  0  0  0  0  0  0
  137.1400   79.4260  223.4630 S   0  0  0  0  0  0  0  0  0  0  0  0
  138.5060   80.5730  223.8450 C   0  0  0  0  0  0  0  0  0  0  0  0
  138.6830   81.4660  222.8070 F   0  0  0  0  0  0  0  0  0  0  0  0
  138.2430   81.2600  225.0180 F   0  0  0  0  0  0  0  0  0  0  0  0
  139.4190   78.6280  222.0970 C   0  0  0  0  0  0  0  0  0  0  0  0
  140.2160   77.7130  221.3970 C   0  0  0  0  0  0  0  0  0  0  0  0
  141.8020   78.2560  220.7470 S   0  0  0  0  0  0  0  0  0  0  0  0
  141.9550   79.5670  221.9600 C   0  0  0  0  0  0  0  0  0  0  0  0
  141.6110   80.8810  221.6180 C   0  0  0  0  0  0  0  0  0  0  0  0
  141.7240   81.9040  222.5670 C   0  0  0  0  0  0  0  0  0  0  0  0
  142.2040   81.6190  223.8490 C   0  0  0  0  0  0  0  0  0  0  0  0
  142.5590   80.3100  224.1890 C   0  0  0  0  0  0  0  0  0  0  0  0
  142.4270   79.2840  223.2490 C   0  0  0  0  0  0  0  0  0  0  0  0
  142.6000   73.4930  220.9680 N   0  0  0  0  0  0  0  0  0  0  0  0
  143.3310   74.6830  220.4790 C   0  0  0  0  0  0  0  0  0  0  0  0
  144.8180   74.3790  220.1710 C   0  0  0  0  0  0  0  0  0  0  0  0
  145.2540   73.0490  220.7930 C   0  0  0  0  0  0  0  0  0  0  0  0
  144.3660   71.8930  220.2930 C   0  0  0  0  0  0  0  0  0  0  0  0
  142.8890   72.3210  220.1270 C   0  0  0  0  0  0  0  0  0  0  0  0
  138.1362   74.9934  221.5288 H   0  0  0  0  0  0  0  0  0  0  0  0
  136.7241   76.6375  222.7594 H   0  0  0  0  0  0  0  0  0  0  0  0
  139.4284   79.9879  223.9748 H   0  0  0  0  0  0  0  0  0  0  0  0
  139.7769   79.6559  222.2563 H   0  0  0  0  0  0  0  0  0  0  0  0
  141.2520   81.1092  220.6036 H   0  0  0  0  0  0  0  0  0  0  0  0
  141.4351   82.9323  222.3041 H   0  0  0  0  0  0  0  0  0  0  0  0
  142.3024   82.4253  224.5907 H   0  0  0  0  0  0  0  0  0  0  0  0
  142.9421   80.0877  225.1959 H   0  0  0  0  0  0  0  0  0  0  0  0
  142.6941   78.2523  223.5214 H   0  0  0  0  0  0  0  0  0  0  0  0
  142.8462   75.0417  219.5591 H   0  0  0  0  0  0  0  0  0  0  0  0
  143.3024   75.4433  221.2735 H   0  0  0  0  0  0  0  0  0  0  0  0
  144.9548   74.3267  219.0808 H   0  0  0  0  0  0  0  0  0  0  0  0
  145.4334   75.1824  220.6021 H   0  0  0  0  0  0  0  0  0  0  0  0
  146.2991   72.8468  220.5157 H   0  0  0  0  0  0  0  0  0  0  0  0
  145.1548   73.1220  221.8861 H   0  0  0  0  0  0  0  0  0  0  0  0
  144.7467   71.5491  219.3200 H   0  0  0  0  0  0  0  0  0  0  0  0
  144.4027   71.0898  221.0437 H   0  0  0  0  0  0  0  0  0  0  0  0
  142.7009   72.5750  219.0734 H   0  0  0  0  0  0  0  0  0  0  0  0
  142.2384   71.4895  220.4358 H   0  0  0  0  0  0  0  0  0  0  0  0
  1  2  2  0
  2  3  2  0
  2  4  1  0
  4  5  1  0
  5  6  2  0
  6  7  1  0
  7  8  2  0
  8  9  1  0
  9 10  1  0
 10 11  1  0
 10 12  1  0
  8 13  1  0
 13 14  2  0
 14 15  1  0
 15 16  1  0
 16 17  2  0
 17 18  1  0
 18 19  2  0
 19 20  1  0
 20 21  2  0
  2 22  1  0
 22 23  1  0
 23 24  1  0
 24 25  1  0
 25 26  1  0
 26 27  1  0
 14  5  1  0
 21 16  1  0
 27 22  1  0
  6 28  1  0
  7 29  1  0
 10 30  1  0
 13 31  1  0
 17 32  1  0
 18 33  1  0
 19 34  1  0
 20 35  1  0
 21 36  1  0
 23 37  1  0
 23 38  1  0
 24 39  1  0
 24 40  1  0
 25 41  1  0
 25 42  1  0
 26 43  1  0
 26 44  1  0
 27 45  1  0
 27 46  1  0
M  CHG  1   4  -1
M  END
>  <UniqueID>  (56) 
30

>  <SMILES>  (56) 
O=S(=O)([N-]c1ccc(SC(F)F)cc1Sc1ccccc1)N1CCCCC1

>  <Energy>  (56) 
41.81722451958305

>  <Genealogy>  (56) 
O=S(=O)([N-]c1ccc(SC(F)F)cc1Sc1ccccc1)N1CCCCC1 (protonated)
O=S(=O)([N-]c1ccc(SC(F)F)cc1Sc1ccccc1)N1CCCCC1 (3D coordinates assigned)
O=S(=O)([N-]c1ccc(SC(F)F)cc1Sc1ccccc1)N1CCCCC1 (nonaromatic ring conformer: 41.81722451958305 kcal/mol)

>  <smiles>  (56) 
O=S(=O)(Nc1ccc(SC(F)F)cc1Sc1ccccc1)N1CCCCC1

>  <score_type>  (56) 
oracle

>  <origin>  (56) 
autodockgpu

>  <m_score__min__energy>  (56) 
-6.96

>  <m_primary>  (56) 
energy

>  <meeko>  (56) 
{"free_energy": -6.16, "intermolecular_energy": -8.25, "internal_energy": -1.59, "cluster_size": 5, "cluster_id": 4, "rank_in_cluster": 1}

>  <energy>  (56) 
-5.93

>  <cluster_rmsd>  (56) 
0.91

>  <rmsd>  (56) 
272.89

>  <cluster>  (56) 
4

$$$$
RCYZJXIDXHYHGN-UHFFFAOYNA-N
     RDKit          3D

 46 48  0  0  0  0  0  0  0  0999 V2000
  134.2380   67.1810  226.2700 O   0  0  0  0  0  0  0  0  0  0  0  0
  134.3730   68.4070  225.4070 S   0  0  0  0  0  0  0  0  0  0  0  0
  133.8720   68.1100  224.0200 O   0  0  0  0  0  0  0  0  0  0  0  0
  136.0410   68.8770  225.3280 N   0  0  0  0  0  0  0  0  0  0  0  0
  136.5800   69.8880  224.4640 C   0  0  0  0  0  0  0  0  0  0  0  0
  135.7590   70.8560  223.8570 C   0  0  0  0  0  0  0  0  0  0  0  0
  136.3160   71.8430  223.0390 C   0  0  0  0  0  0  0  0  0  0  0  0
  137.6950   71.8790  222.8200 C   0  0  0  0  0  0  0  0  0  0  0  0
  138.4020   73.1340  221.7490 S   0  0  0  0  0  0  0  0  0  0  0  0
  140.0900   72.4460  221.7910 C   0  0  0  0  0  0  0  0  0  0  0  0
  140.8670   73.0280  220.8080 F   0  0  0  0  0  0  0  0  0  0  0  0
  140.6650   72.6570  223.0320 F   0  0  0  0  0  0  0  0  0  0  0  0
  138.5190   70.9140  223.4080 C   0  0  0  0  0  0  0  0  0  0  0  0
  137.9680   69.9190  224.2260 C   0  0  0  0  0  0  0  0  0  0  0  0
  139.0540   68.6770  224.9410 S   0  0  0  0  0  0  0  0  0  0  0  0
  139.8180   69.8550  226.0560 C   0  0  0  0  0  0  0  0  0  0  0  0
  140.7290   70.7980  225.5630 C   0  0  0  0  0  0  0  0  0  0  0  0
  141.3210   71.7200  226.4330 C   0  0  0  0  0  0  0  0  0  0  0  0
  141.0220   71.6880  227.7980 C   0  0  0  0  0  0  0  0  0  0  0  0
  140.1220   70.7400  228.2940 C   0  0  0  0  0  0  0  0  0  0  0  0
  139.5140   69.8300  227.4240 C   0  0  0  0  0  0  0  0  0  0  0  0
  133.4350   69.7170  226.0800 N   0  0  0  0  0  0  0  0  0  0  0  0
  132.7050   70.4130  224.9980 C   0  0  0  0  0  0  0  0  0  0  0  0
  132.0950   71.7580  225.4660 C   0  0  0  0  0  0  0  0  0  0  0  0
  132.0730   71.8570  226.9940 C   0  0  0  0  0  0  0  0  0  0  0  0
  133.4900   71.6910  227.5750 C   0  0  0  0  0  0  0  0  0  0  0  0
  134.3230   70.6490  226.7940 C   0  0  0  0  0  0  0  0  0  0  0  0
  134.6724   70.8359  224.0272 H   0  0  0  0  0  0  0  0  0  0  0  0
  135.6661   72.5940  222.5661 H   0  0  0  0  0  0  0  0  0  0  0  0
  140.0307   71.3632  221.6064 H   0  0  0  0  0  0  0  0  0  0  0  0
  139.6039   70.9363  223.2275 H   0  0  0  0  0  0  0  0  0  0  0  0
  140.9789   70.8136  224.4919 H   0  0  0  0  0  0  0  0  0  0  0  0
  142.0229   72.4713  226.0421 H   0  0  0  0  0  0  0  0  0  0  0  0
  141.4946   72.4085  228.4818 H   0  0  0  0  0  0  0  0  0  0  0  0
  139.8921   70.7101  229.3693 H   0  0  0  0  0  0  0  0  0  0  0  0
  138.7960   69.0933  227.8137 H   0  0  0  0  0  0  0  0  0  0  0  0
  133.4033   70.6106  224.1713 H   0  0  0  0  0  0  0  0  0  0  0  0
  131.8771   69.7623  224.6801 H   0  0  0  0  0  0  0  0  0  0  0  0
  132.6977   72.5847  225.0620 H   0  0  0  0  0  0  0  0  0  0  0  0
  131.0596   71.8160  225.0993 H   0  0  0  0  0  0  0  0  0  0  0  0
  131.6769   72.8409  227.2857 H   0  0  0  0  0  0  0  0  0  0  0  0
  131.4341   71.0536  227.3895 H   0  0  0  0  0  0  0  0  0  0  0  0
  134.0063   72.6614  227.5322 H   0  0  0  0  0  0  0  0  0  0  0  0
  133.3906   71.3357  228.6113 H   0  0  0  0  0  0  0  0  0  0  0  0
  134.9644   71.1684  226.0667 H   0  0  0  0  0  0  0  0  0  0  0  0
  134.9421   70.0808  227.5038 H   0  0  0  0  0  0  0  0  0  0  0  0
  1  2  2  0
  2  3  2  0
  2  4  1  0
  4  5  1  0
  5  6  2  0
  6  7  1  0
  7  8  2  0
  8  9  1  0
  9 10  1  0
 10 11  1  0
 10 12  1  0
  8 13  1  0
 13 14  2  0
 14 15  1  0
 15 16  1  0
 16 17  2  0
 17 18  1  0
 18 19  2  0
 19 20  1  0
 20 21  2  0
  2 22  1  0
 22 23  1  0
 23 24  1  0
 24 25  1  0
 25 26  1  0
 26 27  1  0
 14  5  1  0
 21 16  1  0
 27 22  1  0
  6 28  1  0
  7 29  1  0
 10 30  1  0
 13 31  1  0
 17 32  1  0
 18 33  1  0
 19 34  1  0
 20 35  1  0
 21 36  1  0
 23 37  1  0
 23 38  1  0
 24 39  1  0
 24 40  1  0
 25 41  1  0
 25 42  1  0
 26 43  1  0
 26 44  1  0
 27 45  1  0
 27 46  1  0
M  CHG  1   4  -1
M  END
>  <UniqueID>  (57) 
30

>  <SMILES>  (57) 
O=S(=O)([N-]c1ccc(SC(F)F)cc1Sc1ccccc1)N1CCCCC1

>  <Energy>  (57) 
41.81722451958305

>  <Genealogy>  (57) 
O=S(=O)([N-]c1ccc(SC(F)F)cc1Sc1ccccc1)N1CCCCC1 (protonated)
O=S(=O)([N-]c1ccc(SC(F)F)cc1Sc1ccccc1)N1CCCCC1 (3D coordinates assigned)
O=S(=O)([N-]c1ccc(SC(F)F)cc1Sc1ccccc1)N1CCCCC1 (nonaromatic ring conformer: 41.81722451958305 kcal/mol)

>  <smiles>  (57) 
O=S(=O)(Nc1ccc(SC(F)F)cc1Sc1ccccc1)N1CCCCC1

>  <score_type>  (57) 
oracle

>  <origin>  (57) 
autodockgpu

>  <m_score__min__energy>  (57) 
-6.96

>  <m_primary>  (57) 
energy

>  <meeko>  (57) 
{"free_energy": -6.76, "intermolecular_energy": -8.84, "internal_energy": -1.56, "cluster_size": 7, "cluster_id": 3, "rank_in_cluster": 5}

>  <energy>  (57) 
-5.92

>  <cluster_rmsd>  (57) 
0.91

>  <rmsd>  (57) 
272.91

>  <cluster>  (57) 
4

$$$$
RCYZJXIDXHYHGN-UHFFFAOYNA-N
     RDKit          3D

 46 48  0  0  0  0  0  0  0  0999 V2000
  140.6980   72.2400  224.1060 O   0  0  0  0  0  0  0  0  0  0  0  0
  140.2230   72.2540  222.6780 S   0  0  0  0  0  0  0  0  0  0  0  0
  139.6330   73.5990  222.3510 O   0  0  0  0  0  0  0  0  0  0  0  0
  139.0140   71.0280  222.4600 N   0  0  0  0  0  0  0  0  0  0  0  0
  137.8810   70.8150  223.3150 C   0  0  0  0  0  0  0  0  0  0  0  0
  136.8250   71.7420  223.3860 C   0  0  0  0  0  0  0  0  0  0  0  0
  135.7240   71.4950  224.2110 C   0  0  0  0  0  0  0  0  0  0  0  0
  135.6610   70.3230  224.9690 C   0  0  0  0  0  0  0  0  0  0  0  0
  134.2550   70.0250  226.0440 S   0  0  0  0  0  0  0  0  0  0  0  0
  133.8260   68.4160  225.3000 C   0  0  0  0  0  0  0  0  0  0  0  0
  134.2810   67.3840  226.0990 F   0  0  0  0  0  0  0  0  0  0  0  0
  132.4560   68.3130  225.1330 F   0  0  0  0  0  0  0  0  0  0  0  0
  136.7110   69.4020  224.9150 C   0  0  0  0  0  0  0  0  0  0  0  0
  137.8210   69.6440  224.0950 C   0  0  0  0  0  0  0  0  0  0  0  0
  139.1660   68.4510  224.0740 S   0  0  0  0  0  0  0  0  0  0  0  0
  139.7210   68.9100  225.7160 C   0  0  0  0  0  0  0  0  0  0  0  0
  139.9460   67.9200  226.6810 C   0  0  0  0  0  0  0  0  0  0  0  0
  140.3860   68.2780  227.9610 C   0  0  0  0  0  0  0  0  0  0  0  0
  140.5770   69.6240  228.2850 C   0  0  0  0  0  0  0  0  0  0  0  0
  140.3420   70.6140  227.3260 C   0  0  0  0  0  0  0  0  0  0  0  0
  139.9240   70.2580  226.0410 C   0  0  0  0  0  0  0  0  0  0  0  0
  141.5610   71.9430  221.6000 N   0  0  0  0  0  0  0  0  0  0  0  0
  142.0280   73.2160  221.0080 C   0  0  0  0  0  0  0  0  0  0  0  0
  143.0030   72.9960  219.8260 C   0  0  0  0  0  0  0  0  0  0  0  0
  143.5300   71.5580  219.8000 C   0  0  0  0  0  0  0  0  0  0  0  0
  142.3690   70.5490  219.7190 C   0  0  0  0  0  0  0  0  0  0  0  0
  141.1450   71.0010  220.5500 C   0  0  0  0  0  0  0  0  0  0  0  0
  136.8660   72.6653  222.7896 H   0  0  0  0  0  0  0  0  0  0  0  0
  134.9039   72.2262  224.2637 H   0  0  0  0  0  0  0  0  0  0  0  0
  134.3104   68.3464  224.3149 H   0  0  0  0  0  0  0  0  0  0  0  0
  136.6657   68.4836  225.5187 H   0  0  0  0  0  0  0  0  0  0  0  0
  139.7771   66.8617  226.4333 H   0  0  0  0  0  0  0  0  0  0  0  0
  140.5816   67.4989  228.7125 H   0  0  0  0  0  0  0  0  0  0  0  0
  140.9122   69.9046  229.2944 H   0  0  0  0  0  0  0  0  0  0  0  0
  140.4862   71.6737  227.5832 H   0  0  0  0  0  0  0  0  0  0  0  0
  139.7540   71.0371  225.2833 H   0  0  0  0  0  0  0  0  0  0  0  0
  141.1547   73.7780  220.6453 H   0  0  0  0  0  0  0  0  0  0  0  0
  142.5687   73.7702  221.7894 H   0  0  0  0  0  0  0  0  0  0  0  0
  142.4752   73.2014  218.8830 H   0  0  0  0  0  0  0  0  0  0  0  0
  143.8579   73.6771  219.9495 H   0  0  0  0  0  0  0  0  0  0  0  0
  144.1814   71.4288  218.9230 H   0  0  0  0  0  0  0  0  0  0  0  0
  144.0927   71.3729  220.7269 H   0  0  0  0  0  0  0  0  0  0  0  0
  142.0640   70.4431  218.6674 H   0  0  0  0  0  0  0  0  0  0  0  0
  142.7228   69.5923  220.1307 H   0  0  0  0  0  0  0  0  0  0  0  0
  140.4184   71.4939  219.8873 H   0  0  0  0  0  0  0  0  0  0  0  0
  140.6870   70.1190  221.0214 H   0  0  0  0  0  0  0  0  0  0  0  0
  1  2  2  0
  2  3  2  0
  2  4  1  0
  4  5  1  0
  5  6  2  0
  6  7  1  0
  7  8  2  0
  8  9  1  0
  9 10  1  0
 10 11  1  0
 10 12  1  0
  8 13  1  0
 13 14  2  0
 14 15  1  0
 15 16  1  0
 16 17  2  0
 17 18  1  0
 18 19  2  0
 19 20  1  0
 20 21  2  0
  2 22  1  0
 22 23  1  0
 23 24  1  0
 24 25  1  0
 25 26  1  0
 26 27  1  0
 14  5  1  0
 21 16  1  0
 27 22  1  0
  6 28  1  0
  7 29  1  0
 10 30  1  0
 13 31  1  0
 17 32  1  0
 18 33  1  0
 19 34  1  0
 20 35  1  0
 21 36  1  0
 23 37  1  0
 23 38  1  0
 24 39  1  0
 24 40  1  0
 25 41  1  0
 25 42  1  0
 26 43  1  0
 26 44  1  0
 27 45  1  0
 27 46  1  0
M  CHG  1   4  -1
M  END
>  <UniqueID>  (58) 
30

>  <SMILES>  (58) 
O=S(=O)([N-]c1ccc(SC(F)F)cc1Sc1ccccc1)N1CCCCC1

>  <Energy>  (58) 
41.81722451958305

>  <Genealogy>  (58) 
O=S(=O)([N-]c1ccc(SC(F)F)cc1Sc1ccccc1)N1CCCCC1 (protonated)
O=S(=O)([N-]c1ccc(SC(F)F)cc1Sc1ccccc1)N1CCCCC1 (3D coordinates assigned)
O=S(=O)([N-]c1ccc(SC(F)F)cc1Sc1ccccc1)N1CCCCC1 (nonaromatic ring conformer: 41.81722451958305 kcal/mol)

>  <smiles>  (58) 
O=S(=O)(Nc1ccc(SC(F)F)cc1Sc1ccccc1)N1CCCCC1

>  <score_type>  (58) 
oracle

>  <origin>  (58) 
autodockgpu

>  <m_score__min__energy>  (58) 
-6.96

>  <m_primary>  (58) 
energy

>  <meeko>  (58) 
{"free_energy": -6.1, "intermolecular_energy": -8.19, "internal_energy": -1.55, "cluster_size": 3, "cluster_id": 1, "rank_in_cluster": 3}

>  <energy>  (58) 
-5.92

>  <cluster_rmsd>  (58) 
0.92

>  <rmsd>  (58) 
272.94

>  <cluster>  (58) 
4

$$$$
RCYZJXIDXHYHGN-UHFFFAOYNA-N
     RDKit          3D

 46 48  0  0  0  0  0  0  0  0999 V2000
  134.3630   67.1670  226.1350 O   0  0  0  0  0  0  0  0  0  0  0  0
  134.4930   68.4390  225.3420 S   0  0  0  0  0  0  0  0  0  0  0  0
  134.0510   68.2010  223.9230 O   0  0  0  0  0  0  0  0  0  0  0  0
  136.1490   68.9560  225.3480 N   0  0  0  0  0  0  0  0  0  0  0  0
  136.7220   69.9260  224.4580 C   0  0  0  0  0  0  0  0  0  0  0  0
  135.9270   70.8790  223.7950 C   0  0  0  0  0  0  0  0  0  0  0  0
  136.5150   71.8260  222.9520 C   0  0  0  0  0  0  0  0  0  0  0  0
  137.9000   71.8370  222.7650 C   0  0  0  0  0  0  0  0  0  0  0  0
  138.6470   73.0410  221.6630 S   0  0  0  0  0  0  0  0  0  0  0  0
  140.2870   72.2450  221.6480 C   0  0  0  0  0  0  0  0  0  0  0  0
  140.9550   72.5490  220.4770 F   0  0  0  0  0  0  0  0  0  0  0  0
  141.0340   72.6610  222.7370 F   0  0  0  0  0  0  0  0  0  0  0  0
  138.6970   70.8870  223.4100 C   0  0  0  0  0  0  0  0  0  0  0  0
  138.1150   69.9310  224.2520 C   0  0  0  0  0  0  0  0  0  0  0  0
  139.1680   68.7060  225.0400 S   0  0  0  0  0  0  0  0  0  0  0  0
  139.9200   69.9170  226.1280 C   0  0  0  0  0  0  0  0  0  0  0  0
  140.8570   70.8270  225.6210 C   0  0  0  0  0  0  0  0  0  0  0  0
  141.4390   71.7760  226.4690 C   0  0  0  0  0  0  0  0  0  0  0  0
  141.1050   71.8020  227.8260 C   0  0  0  0  0  0  0  0  0  0  0  0
  140.1790   70.8870  228.3360 C   0  0  0  0  0  0  0  0  0  0  0  0
  139.5800   69.9520  227.4870 C   0  0  0  0  0  0  0  0  0  0  0  0
  133.4960   69.6870  226.0450 N   0  0  0  0  0  0  0  0  0  0  0  0
  132.7130   70.3560  224.9830 C   0  0  0  0  0  0  0  0  0  0  0  0
  132.0380   71.6590  225.4770 C   0  0  0  0  0  0  0  0  0  0  0  0
  132.0330   71.7380  227.0060 C   0  0  0  0  0  0  0  0  0  0  0  0
  133.4650   71.6420  227.5650 C   0  0  0  0  0  0  0  0  0  0  0  0
  134.3420   70.6560  226.7590 C   0  0  0  0  0  0  0  0  0  0  0  0
  134.8367   70.8787  223.9410 H   0  0  0  0  0  0  0  0  0  0  0  0
  135.8859   72.5649  222.4341 H   0  0  0  0  0  0  0  0  0  0  0  0
  140.1467   71.1556  221.7078 H   0  0  0  0  0  0  0  0  0  0  0  0
  139.7861   70.8902  223.2556 H   0  0  0  0  0  0  0  0  0  0  0  0
  141.1350   70.7955  224.5572 H   0  0  0  0  0  0  0  0  0  0  0  0
  142.1604   72.5026  226.0670 H   0  0  0  0  0  0  0  0  0  0  0  0
  141.5708   72.5425  228.4928 H   0  0  0  0  0  0  0  0  0  0  0  0
  139.9218   70.9029  229.4054 H   0  0  0  0  0  0  0  0  0  0  0  0
  138.8404   69.2424  227.8864 H   0  0  0  0  0  0  0  0  0  0  0  0
  133.3871   70.6019  224.1492 H   0  0  0  0  0  0  0  0  0  0  0  0
  131.9169   69.6651  224.6685 H   0  0  0  0  0  0  0  0  0  0  0  0
  132.5888   72.5223  225.0754 H   0  0  0  0  0  0  0  0  0  0  0  0
  130.9956   71.6647  225.1257 H   0  0  0  0  0  0  0  0  0  0  0  0
  131.5887   72.6954  227.3159 H   0  0  0  0  0  0  0  0  0  0  0  0
  131.4444   70.8964  227.3999 H   0  0  0  0  0  0  0  0  0  0  0  0
  133.9274   72.6394  227.5276 H   0  0  0  0  0  0  0  0  0  0  0  0
  133.3999   71.2692  228.5979 H   0  0  0  0  0  0  0  0  0  0  0  0
  134.9442   71.2183  226.0302 H   0  0  0  0  0  0  0  0  0  0  0  0
  135.0006   70.1132  227.4530 H   0  0  0  0  0  0  0  0  0  0  0  0
  1  2  2  0
  2  3  2  0
  2  4  1  0
  4  5  1  0
  5  6  2  0
  6  7  1  0
  7  8  2  0
  8  9  1  0
  9 10  1  0
 10 11  1  0
 10 12  1  0
  8 13  1  0
 13 14  2  0
 14 15  1  0
 15 16  1  0
 16 17  2  0
 17 18  1  0
 18 19  2  0
 19 20  1  0
 20 21  2  0
  2 22  1  0
 22 23  1  0
 23 24  1  0
 24 25  1  0
 25 26  1  0
 26 27  1  0
 14  5  1  0
 21 16  1  0
 27 22  1  0
  6 28  1  0
  7 29  1  0
 10 30  1  0
 13 31  1  0
 17 32  1  0
 18 33  1  0
 19 34  1  0
 20 35  1  0
 21 36  1  0
 23 37  1  0
 23 38  1  0
 24 39  1  0
 24 40  1  0
 25 41  1  0
 25 42  1  0
 26 43  1  0
 26 44  1  0
 27 45  1  0
 27 46  1  0
M  CHG  1   4  -1
M  END
>  <UniqueID>  (59) 
30

>  <SMILES>  (59) 
O=S(=O)([N-]c1ccc(SC(F)F)cc1Sc1ccccc1)N1CCCCC1

>  <Energy>  (59) 
41.81722451958305

>  <Genealogy>  (59) 
O=S(=O)([N-]c1ccc(SC(F)F)cc1Sc1ccccc1)N1CCCCC1 (protonated)
O=S(=O)([N-]c1ccc(SC(F)F)cc1Sc1ccccc1)N1CCCCC1 (3D coordinates assigned)
O=S(=O)([N-]c1ccc(SC(F)F)cc1Sc1ccccc1)N1CCCCC1 (nonaromatic ring conformer: 41.81722451958305 kcal/mol)

>  <smiles>  (59) 
O=S(=O)(Nc1ccc(SC(F)F)cc1Sc1ccccc1)N1CCCCC1

>  <score_type>  (59) 
oracle

>  <origin>  (59) 
autodockgpu

>  <m_score__min__energy>  (59) 
-6.96

>  <m_primary>  (59) 
energy

>  <meeko>  (59) 
{"free_energy": -6.74, "intermolecular_energy": -8.83, "internal_energy": -1.58, "cluster_size": 7, "cluster_id": 3, "rank_in_cluster": 6}

>  <energy>  (59) 
-6.1

>  <cluster_rmsd>  (59) 
0.0

>  <rmsd>  (59) 
272.73

>  <cluster>  (59) 
5

$$$$
RCYZJXIDXHYHGN-UHFFFAOYNA-N
     RDKit          3D

 46 48  0  0  0  0  0  0  0  0999 V2000
  134.1640   67.0870  226.2880 O   0  0  0  0  0  0  0  0  0  0  0  0
  134.3220   68.3080  225.4230 S   0  0  0  0  0  0  0  0  0  0  0  0
  133.8060   68.0210  224.0390 O   0  0  0  0  0  0  0  0  0  0  0  0
  136.0010   68.7380  225.3330 N   0  0  0  0  0  0  0  0  0  0  0  0
  136.5510   69.7770  224.5100 C   0  0  0  0  0  0  0  0  0  0  0  0
  135.7290   70.7100  223.8510 C   0  0  0  0  0  0  0  0  0  0  0  0
  136.2940   71.7250  223.0740 C   0  0  0  0  0  0  0  0  0  0  0  0
  137.6820   71.8230  222.9480 C   0  0  0  0  0  0  0  0  0  0  0  0
  138.4010   73.1140  221.9280 S   0  0  0  0  0  0  0  0  0  0  0  0
  140.0800   72.4010  221.9320 C   0  0  0  0  0  0  0  0  0  0  0  0
  140.8230   72.9260  220.8920 F   0  0  0  0  0  0  0  0  0  0  0  0
  140.7100   72.6590  223.1370 F   0  0  0  0  0  0  0  0  0  0  0  0
  138.5070   70.8930  223.5870 C   0  0  0  0  0  0  0  0  0  0  0  0
  137.9480   69.8700  224.3640 C   0  0  0  0  0  0  0  0  0  0  0  0
  139.0390   68.6740  225.1460 S   0  0  0  0  0  0  0  0  0  0  0  0
  139.8240   69.9200  226.1680 C   0  0  0  0  0  0  0  0  0  0  0  0
  139.5000   70.0170  227.5280 C   0  0  0  0  0  0  0  0  0  0  0  0
  140.1170   70.9860  228.3270 C   0  0  0  0  0  0  0  0  0  0  0  0
  141.0400   71.8730  227.7650 C   0  0  0  0  0  0  0  0  0  0  0  0
  141.3560   71.7860  226.4060 C   0  0  0  0  0  0  0  0  0  0  0  0
  140.7570   70.8050  225.6100 C   0  0  0  0  0  0  0  0  0  0  0  0
  133.4200   69.6410  226.1000 N   0  0  0  0  0  0  0  0  0  0  0  0
  132.6980   70.3510  225.0220 C   0  0  0  0  0  0  0  0  0  0  0  0
  132.1230   71.7100  225.4910 C   0  0  0  0  0  0  0  0  0  0  0  0
  132.1140   71.8130  227.0200 C   0  0  0  0  0  0  0  0  0  0  0  0
  133.5320   71.6160  227.5900 C   0  0  0  0  0  0  0  0  0  0  0  0
  134.3350   70.5530  226.8050 C   0  0  0  0  0  0  0  0  0  0  0  0
  134.6355   70.6400  223.9480 H   0  0  0  0  0  0  0  0  0  0  0  0
  135.6441   72.4487  222.5603 H   0  0  0  0  0  0  0  0  0  0  0  0
  139.9976   71.3120  221.8003 H   0  0  0  0  0  0  0  0  0  0  0  0
  139.5994   70.9646  223.4794 H   0  0  0  0  0  0  0  0  0  0  0  0
  138.7606   69.3313  227.9674 H   0  0  0  0  0  0  0  0  0  0  0  0
  139.8756   71.0499  229.3983 H   0  0  0  0  0  0  0  0  0  0  0  0
  141.5178   72.6398  228.3925 H   0  0  0  0  0  0  0  0  0  0  0  0
  142.0761   72.4896  225.9628 H   0  0  0  0  0  0  0  0  0  0  0  0
  141.0182   70.7275  224.5443 H   0  0  0  0  0  0  0  0  0  0  0  0
  133.3943   70.5306  224.1896 H   0  0  0  0  0  0  0  0  0  0  0  0
  131.8529   69.7188  224.7120 H   0  0  0  0  0  0  0  0  0  0  0  0
  132.7419   72.5216  225.0808 H   0  0  0  0  0  0  0  0  0  0  0  0
  131.0866   71.7911  225.1315 H   0  0  0  0  0  0  0  0  0  0  0  0
  131.7426   72.8063  227.3124 H   0  0  0  0  0  0  0  0  0  0  0  0
  131.4596   71.0258  227.4226 H   0  0  0  0  0  0  0  0  0  0  0  0
  134.0699   72.5742  227.5404 H   0  0  0  0  0  0  0  0  0  0  0  0
  133.4329   71.2656  228.6280 H   0  0  0  0  0  0  0  0  0  0  0  0
  134.9829   71.0557  226.0718 H   0  0  0  0  0  0  0  0  0  0  0  0
  134.9463   69.9720  227.5113 H   0  0  0  0  0  0  0  0  0  0  0  0
  1  2  2  0
  2  3  2  0
  2  4  1  0
  4  5  1  0
  5  6  2  0
  6  7  1  0
  7  8  2  0
  8  9  1  0
  9 10  1  0
 10 11  1  0
 10 12  1  0
  8 13  1  0
 13 14  2  0
 14 15  1  0
 15 16  1  0
 16 17  2  0
 17 18  1  0
 18 19  2  0
 19 20  1  0
 20 21  2  0
  2 22  1  0
 22 23  1  0
 23 24  1  0
 24 25  1  0
 25 26  1  0
 26 27  1  0
 14  5  1  0
 21 16  1  0
 27 22  1  0
  6 28  1  0
  7 29  1  0
 10 30  1  0
 13 31  1  0
 17 32  1  0
 18 33  1  0
 19 34  1  0
 20 35  1  0
 21 36  1  0
 23 37  1  0
 23 38  1  0
 24 39  1  0
 24 40  1  0
 25 41  1  0
 25 42  1  0
 26 43  1  0
 26 44  1  0
 27 45  1  0
 27 46  1  0
M  CHG  1   4  -1
M  END
>  <UniqueID>  (60) 
30

>  <SMILES>  (60) 
O=S(=O)([N-]c1ccc(SC(F)F)cc1Sc1ccccc1)N1CCCCC1

>  <Energy>  (60) 
41.81722451958305

>  <Genealogy>  (60) 
O=S(=O)([N-]c1ccc(SC(F)F)cc1Sc1ccccc1)N1CCCCC1 (protonated)
O=S(=O)([N-]c1ccc(SC(F)F)cc1Sc1ccccc1)N1CCCCC1 (3D coordinates assigned)
O=S(=O)([N-]c1ccc(SC(F)F)cc1Sc1ccccc1)N1CCCCC1 (nonaromatic ring conformer: 41.81722451958305 kcal/mol)

>  <smiles>  (60) 
O=S(=O)(Nc1ccc(SC(F)F)cc1Sc1ccccc1)N1CCCCC1

>  <score_type>  (60) 
oracle

>  <origin>  (60) 
autodockgpu

>  <m_score__min__energy>  (60) 
-6.96

>  <m_primary>  (60) 
energy

>  <meeko>  (60) 
{"free_energy": -6.8, "intermolecular_energy": -8.89, "internal_energy": -1.54, "cluster_size": 7, "cluster_id": 3, "rank_in_cluster": 2}

>  <energy>  (60) 
-5.18

>  <cluster_rmsd>  (60) 
0.0

>  <rmsd>  (60) 
273.98

>  <cluster>  (60) 
6

$$$$
RCYZJXIDXHYHGN-UHFFFAOYNA-N
     RDKit          3D

 46 48  0  0  0  0  0  0  0  0999 V2000
  133.9730   67.6050  226.5040 O   0  0  0  0  0  0  0  0  0  0  0  0
  134.2520   68.5680  225.3820 S   0  0  0  0  0  0  0  0  0  0  0  0
  133.8110   67.9680  224.0750 O   0  0  0  0  0  0  0  0  0  0  0  0
  135.9530   68.9020  225.3150 N   0  0  0  0  0  0  0  0  0  0  0  0
  136.5960   69.7670  224.3670 C   0  0  0  0  0  0  0  0  0  0  0  0
  135.8730   70.7280  223.6370 C   0  0  0  0  0  0  0  0  0  0  0  0
  136.5300   71.5730  222.7370 C   0  0  0  0  0  0  0  0  0  0  0  0
  137.9120   71.4710  222.5580 C   0  0  0  0  0  0  0  0  0  0  0  0
  138.7450   72.5420  221.3830 S   0  0  0  0  0  0  0  0  0  0  0  0
  140.2890   72.6630  222.3480 C   0  0  0  0  0  0  0  0  0  0  0  0
  141.0830   71.5560  222.1180 F   0  0  0  0  0  0  0  0  0  0  0  0
  140.9780   73.8150  222.0100 F   0  0  0  0  0  0  0  0  0  0  0  0
  138.6370   70.5100  223.2690 C   0  0  0  0  0  0  0  0  0  0  0  0
  137.9860   69.6560  224.1690 C   0  0  0  0  0  0  0  0  0  0  0  0
  138.9460   68.4130  225.0430 S   0  0  0  0  0  0  0  0  0  0  0  0
  139.7040   69.6250  226.1250 C   0  0  0  0  0  0  0  0  0  0  0  0
  140.6170   70.5530  225.6060 C   0  0  0  0  0  0  0  0  0  0  0  0
  141.2040   71.5030  226.4500 C   0  0  0  0  0  0  0  0  0  0  0  0
  140.8990   71.5130  227.8140 C   0  0  0  0  0  0  0  0  0  0  0  0
  139.9970   70.5800  228.3350 C   0  0  0  0  0  0  0  0  0  0  0  0
  139.3930   69.6440  227.4910 C   0  0  0  0  0  0  0  0  0  0  0  0
  133.3810   70.0590  225.6440 N   0  0  0  0  0  0  0  0  0  0  0  0
  134.0450   70.8420  226.7090 C   0  0  0  0  0  0  0  0  0  0  0  0
  133.1740   72.0230  227.2050 C   0  0  0  0  0  0  0  0  0  0  0  0
  132.0260   72.3140  226.2330 C   0  0  0  0  0  0  0  0  0  0  0  0
  131.1510   71.0640  226.0280 C   0  0  0  0  0  0  0  0  0  0  0  0
  131.9860   69.7630  226.0050 C   0  0  0  0  0  0  0  0  0  0  0  0
  134.7852   70.8152  223.7748 H   0  0  0  0  0  0  0  0  0  0  0  0
  135.9571   72.3202  222.1683 H   0  0  0  0  0  0  0  0  0  0  0  0
  140.0316   72.7032  223.4167 H   0  0  0  0  0  0  0  0  0  0  0  0
  139.7236   70.4240  223.1211 H   0  0  0  0  0  0  0  0  0  0  0  0
  140.8722   70.5348  224.5362 H   0  0  0  0  0  0  0  0  0  0  0  0
  141.9065   72.2430  226.0391 H   0  0  0  0  0  0  0  0  0  0  0  0
  141.3683   72.2544  228.4773 H   0  0  0  0  0  0  0  0  0  0  0  0
  139.7627   70.5828  229.4098 H   0  0  0  0  0  0  0  0  0  0  0  0
  138.6721   68.9208  227.9000 H   0  0  0  0  0  0  0  0  0  0  0  0
  134.2538   70.1758  227.5591 H   0  0  0  0  0  0  0  0  0  0  0  0
  134.9707   71.2618  226.2886 H   0  0  0  0  0  0  0  0  0  0  0  0
  132.7544   71.7700  228.1898 H   0  0  0  0  0  0  0  0  0  0  0  0
  133.8087   72.9190  227.2712 H   0  0  0  0  0  0  0  0  0  0  0  0
  131.4053   73.1254  226.6410 H   0  0  0  0  0  0  0  0  0  0  0  0
  132.4525   72.6080  225.2626 H   0  0  0  0  0  0  0  0  0  0  0  0
  130.4227   71.0029  226.8501 H   0  0  0  0  0  0  0  0  0  0  0  0
  130.6488   71.1598  225.0540 H   0  0  0  0  0  0  0  0  0  0  0  0
  131.9598   69.2972  227.0012 H   0  0  0  0  0  0  0  0  0  0  0  0
  131.5603   69.0774  225.2575 H   0  0  0  0  0  0  0  0  0  0  0  0
  1  2  2  0
  2  3  2  0
  2  4  1  0
  4  5  1  0
  5  6  2  0
  6  7  1  0
  7  8  2  0
  8  9  1  0
  9 10  1  0
 10 11  1  0
 10 12  1  0
  8 13  1  0
 13 14  2  0
 14 15  1  0
 15 16  1  0
 16 17  2  0
 17 18  1  0
 18 19  2  0
 19 20  1  0
 20 21  2  0
  2 22  1  0
 22 23  1  0
 23 24  1  0
 24 25  1  0
 25 26  1  0
 26 27  1  0
 14  5  1  0
 21 16  1  0
 27 22  1  0
  6 28  1  0
  7 29  1  0
 10 30  1  0
 13 31  1  0
 17 32  1  0
 18 33  1  0
 19 34  1  0
 20 35  1  0
 21 36  1  0
 23 37  1  0
 23 38  1  0
 24 39  1  0
 24 40  1  0
 25 41  1  0
 25 42  1  0
 26 43  1  0
 26 44  1  0
 27 45  1  0
 27 46  1  0
M  CHG  1   4  -1
M  END
>  <UniqueID>  (61) 
31

>  <SMILES>  (61) 
O=S(=O)([N-]c1ccc(SC(F)F)cc1Sc1ccccc1)N1CCCCC1

>  <Energy>  (61) 
42.767263408388374

>  <Genealogy>  (61) 
O=S(=O)([N-]c1ccc(SC(F)F)cc1Sc1ccccc1)N1CCCCC1 (protonated)
O=S(=O)([N-]c1ccc(SC(F)F)cc1Sc1ccccc1)N1CCCCC1 (3D coordinates assigned)
O=S(=O)([N-]c1ccc(SC(F)F)cc1Sc1ccccc1)N1CCCCC1 (nonaromatic ring conformer: 42.767263408388374 kcal/mol)

>  <smiles>  (61) 
O=S(=O)(Nc1ccc(SC(F)F)cc1Sc1ccccc1)N1CCCCC1

>  <score_type>  (61) 
oracle

>  <origin>  (61) 
autodockgpu

>  <m_score__min__energy>  (61) 
-6.96

>  <m_primary>  (61) 
energy

>  <meeko>  (61) 
{"free_energy": -6.8, "intermolecular_energy": -8.89, "internal_energy": -1.47, "cluster_size": 7, "cluster_id": 3, "rank_in_cluster": 3}

>  <energy>  (61) 
-6.96

>  <cluster_rmsd>  (61) 
0.0

>  <rmsd>  (61) 
272.47

>  <cluster>  (61) 
1

$$$$
RCYZJXIDXHYHGN-UHFFFAOYNA-N
     RDKit          3D

 46 48  0  0  0  0  0  0  0  0999 V2000
  139.0430   71.8340  220.9980 O   0  0  0  0  0  0  0  0  0  0  0  0
  140.0240   72.2810  222.0480 S   0  0  0  0  0  0  0  0  0  0  0  0
  141.4190   71.8910  221.6410 O   0  0  0  0  0  0  0  0  0  0  0  0
  139.6350   71.5260  223.5610 N   0  0  0  0  0  0  0  0  0  0  0  0
  138.3750   70.9210  223.8900 C   0  0  0  0  0  0  0  0  0  0  0  0
  137.1530   71.5450  223.5780 C   0  0  0  0  0  0  0  0  0  0  0  0
  135.9420   70.9210  223.8900 C   0  0  0  0  0  0  0  0  0  0  0  0
  135.9350   69.6690  224.5110 C   0  0  0  0  0  0  0  0  0  0  0  0
  134.3760   68.8840  224.9310 S   0  0  0  0  0  0  0  0  0  0  0  0
  134.0880   68.2040  223.2630 C   0  0  0  0  0  0  0  0  0  0  0  0
  133.5570   69.1760  222.4370 F   0  0  0  0  0  0  0  0  0  0  0  0
  135.2720   67.7260  222.7280 F   0  0  0  0  0  0  0  0  0  0  0  0
  137.1440   69.0470  224.8360 C   0  0  0  0  0  0  0  0  0  0  0  0
  138.3620   69.6680  224.5320 C   0  0  0  0  0  0  0  0  0  0  0  0
  139.8960   68.8510  224.9920 S   0  0  0  0  0  0  0  0  0  0  0  0
  140.2450   70.0360  226.2920 C   0  0  0  0  0  0  0  0  0  0  0  0
  139.6040   69.9230  227.5330 C   0  0  0  0  0  0  0  0  0  0  0  0
  139.8810   70.8440  228.5500 C   0  0  0  0  0  0  0  0  0  0  0  0
  140.7780   71.8910  228.3210 C   0  0  0  0  0  0  0  0  0  0  0  0
  141.4090   72.0130  227.0790 C   0  0  0  0  0  0  0  0  0  0  0  0
  141.1510   71.0820  226.0690 C   0  0  0  0  0  0  0  0  0  0  0  0
  139.9520   74.0160  222.2330 N   0  0  0  0  0  0  0  0  0  0  0  0
  138.5760   74.4880  221.9650 C   0  0  0  0  0  0  0  0  0  0  0  0
  138.4980   76.0270  221.8140 C   0  0  0  0  0  0  0  0  0  0  0  0
  139.7670   76.7040  222.3430 C   0  0  0  0  0  0  0  0  0  0  0  0
  141.0160   76.1660  221.6200 C   0  0  0  0  0  0  0  0  0  0  0  0
  140.9110   74.6540  221.3180 C   0  0  0  0  0  0  0  0  0  0  0  0
  137.1509   72.5289  223.0861 H   0  0  0  0  0  0  0  0  0  0  0  0
  134.9910   71.4170  223.6459 H   0  0  0  0  0  0  0  0  0  0  0  0
  133.3725   67.3723  223.3425 H   0  0  0  0  0  0  0  0  0  0  0  0
  137.1387   68.0655  225.3327 H   0  0  0  0  0  0  0  0  0  0  0  0
  138.8833   69.1106  227.7079 H   0  0  0  0  0  0  0  0  0  0  0  0
  139.3922   70.7436  229.5303 H   0  0  0  0  0  0  0  0  0  0  0  0
  140.9878   72.6194  229.1181 H   0  0  0  0  0  0  0  0  0  0  0  0
  142.1087   72.8420  226.8969 H   0  0  0  0  0  0  0  0  0  0  0  0
  141.6597   71.1703  225.0977 H   0  0  0  0  0  0  0  0  0  0  0  0
  138.2183   74.0233  221.0344 H   0  0  0  0  0  0  0  0  0  0  0  0
  137.9509   74.2035  222.8242 H   0  0  0  0  0  0  0  0  0  0  0  0
  138.3758   76.2768  220.7497 H   0  0  0  0  0  0  0  0  0  0  0  0
  137.6409   76.3901  222.4002 H   0  0  0  0  0  0  0  0  0  0  0  0
  139.6932   77.7888  222.1765 H   0  0  0  0  0  0  0  0  0  0  0  0
  139.8607   76.4870  223.4173 H   0  0  0  0  0  0  0  0  0  0  0  0
  141.1372   76.7090  220.6711 H   0  0  0  0  0  0  0  0  0  0  0  0
  141.8809   76.3184  222.2823 H   0  0  0  0  0  0  0  0  0  0  0  0
  140.5716   74.5138  220.2811 H   0  0  0  0  0  0  0  0  0  0  0  0
  141.8996   74.1919  221.4567 H   0  0  0  0  0  0  0  0  0  0  0  0
  1  2  2  0
  2  3  2  0
  2  4  1  0
  4  5  1  0
  5  6  2  0
  6  7  1  0
  7  8  2  0
  8  9  1  0
  9 10  1  0
 10 11  1  0
 10 12  1  0
  8 13  1  0
 13 14  2  0
 14 15  1  0
 15 16  1  0
 16 17  2  0
 17 18  1  0
 18 19  2  0
 19 20  1  0
 20 21  2  0
  2 22  1  0
 22 23  1  0
 23 24  1  0
 24 25  1  0
 25 26  1  0
 26 27  1  0
 14  5  1  0
 21 16  1  0
 27 22  1  0
  6 28  1  0
  7 29  1  0
 10 30  1  0
 13 31  1  0
 17 32  1  0
 18 33  1  0
 19 34  1  0
 20 35  1  0
 21 36  1  0
 23 37  1  0
 23 38  1  0
 24 39  1  0
 24 40  1  0
 25 41  1  0
 25 42  1  0
 26 43  1  0
 26 44  1  0
 27 45  1  0
 27 46  1  0
M  CHG  1   4  -1
M  END
>  <UniqueID>  (62) 
31

>  <SMILES>  (62) 
O=S(=O)([N-]c1ccc(SC(F)F)cc1Sc1ccccc1)N1CCCCC1

>  <Energy>  (62) 
42.767263408388374

>  <Genealogy>  (62) 
O=S(=O)([N-]c1ccc(SC(F)F)cc1Sc1ccccc1)N1CCCCC1 (protonated)
O=S(=O)([N-]c1ccc(SC(F)F)cc1Sc1ccccc1)N1CCCCC1 (3D coordinates assigned)
O=S(=O)([N-]c1ccc(SC(F)F)cc1Sc1ccccc1)N1CCCCC1 (nonaromatic ring conformer: 42.767263408388374 kcal/mol)

>  <smiles>  (62) 
O=S(=O)(Nc1ccc(SC(F)F)cc1Sc1ccccc1)N1CCCCC1

>  <score_type>  (62) 
oracle

>  <origin>  (62) 
autodockgpu

>  <m_score__min__energy>  (62) 
-6.96

>  <m_primary>  (62) 
energy

>  <meeko>  (62) 
{"free_energy": -6.51, "intermolecular_energy": -8.6, "internal_energy": -1.48, "cluster_size": 3, "cluster_id": 2, "rank_in_cluster": 3}

>  <energy>  (62) 
-6.6

>  <cluster_rmsd>  (62) 
0.38

>  <rmsd>  (62) 
272.34

>  <cluster>  (62) 
1

$$$$
RCYZJXIDXHYHGN-UHFFFAOYNA-N
     RDKit          3D

 46 48  0  0  0  0  0  0  0  0999 V2000
  134.3380   67.1740  226.1180 O   0  0  0  0  0  0  0  0  0  0  0  0
  134.4760   68.4380  225.3130 S   0  0  0  0  0  0  0  0  0  0  0  0
  134.0340   68.1890  223.8960 O   0  0  0  0  0  0  0  0  0  0  0  0
  136.1350   68.9450  225.3160 N   0  0  0  0  0  0  0  0  0  0  0  0
  136.7070   69.9260  224.4380 C   0  0  0  0  0  0  0  0  0  0  0  0
  135.9090   70.8700  223.7650 C   0  0  0  0  0  0  0  0  0  0  0  0
  136.4960   71.8290  222.9350 C   0  0  0  0  0  0  0  0  0  0  0  0
  137.8830   71.8600  222.7680 C   0  0  0  0  0  0  0  0  0  0  0  0
  138.6290   73.0780  221.6810 S   0  0  0  0  0  0  0  0  0  0  0  0
  140.2840   72.3110  221.6970 C   0  0  0  0  0  0  0  0  0  0  0  0
  141.0020   72.7020  220.5830 F   0  0  0  0  0  0  0  0  0  0  0  0
  140.9680   72.6660  222.8460 F   0  0  0  0  0  0  0  0  0  0  0  0
  138.6840   70.9180  223.4220 C   0  0  0  0  0  0  0  0  0  0  0  0
  138.1030   69.9510  224.2520 C   0  0  0  0  0  0  0  0  0  0  0  0
  139.1620   68.7380  225.0520 S   0  0  0  0  0  0  0  0  0  0  0  0
  139.8990   69.9600  226.1370 C   0  0  0  0  0  0  0  0  0  0  0  0
  139.5490   69.9950  227.4930 C   0  0  0  0  0  0  0  0  0  0  0  0
  140.1290   70.9450  228.3410 C   0  0  0  0  0  0  0  0  0  0  0  0
  141.0400   71.8760  227.8320 C   0  0  0  0  0  0  0  0  0  0  0  0
  141.3810   71.8500  226.4760 C   0  0  0  0  0  0  0  0  0  0  0  0
  140.8190   70.8890  225.6310 C   0  0  0  0  0  0  0  0  0  0  0  0
  133.4860   69.6980  226.0040 N   0  0  0  0  0  0  0  0  0  0  0  0
  132.7320   70.3840  224.9310 C   0  0  0  0  0  0  0  0  0  0  0  0
  132.0690   71.6950  225.4180 C   0  0  0  0  0  0  0  0  0  0  0  0
  132.0370   71.7670  226.9480 C   0  0  0  0  0  0  0  0  0  0  0  0
  133.4570   71.6470  227.5320 C   0  0  0  0  0  0  0  0  0  0  0  0
  134.3330   70.6510  226.7370 C   0  0  0  0  0  0  0  0  0  0  0  0
  134.8166   70.8529  223.8931 H   0  0  0  0  0  0  0  0  0  0  0  0
  135.8642   72.5617  222.4115 H   0  0  0  0  0  0  0  0  0  0  0  0
  140.1625   71.2179  221.6793 H   0  0  0  0  0  0  0  0  0  0  0  0
  139.7751   70.9368  223.2838 H   0  0  0  0  0  0  0  0  0  0  0  0
  138.8182   69.2757  227.8911 H   0  0  0  0  0  0  0  0  0  0  0  0
  139.8680   70.9595  229.4095 H   0  0  0  0  0  0  0  0  0  0  0  0
  141.4880   72.6283  228.4978 H   0  0  0  0  0  0  0  0  0  0  0  0
  142.0922   72.5866  226.0741 H   0  0  0  0  0  0  0  0  0  0  0  0
  141.0989   70.8615  224.5676 H   0  0  0  0  0  0  0  0  0  0  0  0
  133.4244   70.6225  224.1103 H   0  0  0  0  0  0  0  0  0  0  0  0
  131.9307   69.7070  224.6000 H   0  0  0  0  0  0  0  0  0  0  0  0
  132.6409   72.5512  225.0308 H   0  0  0  0  0  0  0  0  0  0  0  0
  131.0336   71.7192  225.0473 H   0  0  0  0  0  0  0  0  0  0  0  0
  131.6013   72.7294  227.2545 H   0  0  0  0  0  0  0  0  0  0  0  0
  131.4286   70.9326  227.3271 H   0  0  0  0  0  0  0  0  0  0  0  0
  133.9351   72.6374  227.5073 H   0  0  0  0  0  0  0  0  0  0  0  0
  133.3680   71.2712  228.5620 H   0  0  0  0  0  0  0  0  0  0  0  0
  134.9564   71.2072  226.0214 H   0  0  0  0  0  0  0  0  0  0  0  0
  134.9707   70.0953  227.4402 H   0  0  0  0  0  0  0  0  0  0  0  0
  1  2  2  0
  2  3  2  0
  2  4  1  0
  4  5  1  0
  5  6  2  0
  6  7  1  0
  7  8  2  0
  8  9  1  0
  9 10  1  0
 10 11  1  0
 10 12  1  0
  8 13  1  0
 13 14  2  0
 14 15  1  0
 15 16  1  0
 16 17  2  0
 17 18  1  0
 18 19  2  0
 19 20  1  0
 20 21  2  0
  2 22  1  0
 22 23  1  0
 23 24  1  0
 24 25  1  0
 25 26  1  0
 26 27  1  0
 14  5  1  0
 21 16  1  0
 27 22  1  0
  6 28  1  0
  7 29  1  0
 10 30  1  0
 13 31  1  0
 17 32  1  0
 18 33  1  0
 19 34  1  0
 20 35  1  0
 21 36  1  0
 23 37  1  0
 23 38  1  0
 24 39  1  0
 24 40  1  0
 25 41  1  0
 25 42  1  0
 26 43  1  0
 26 44  1  0
 27 45  1  0
 27 46  1  0
M  CHG  1   4  -1
M  END
>  <UniqueID>  (63) 
31

>  <SMILES>  (63) 
O=S(=O)([N-]c1ccc(SC(F)F)cc1Sc1ccccc1)N1CCCCC1

>  <Energy>  (63) 
42.767263408388374

>  <Genealogy>  (63) 
O=S(=O)([N-]c1ccc(SC(F)F)cc1Sc1ccccc1)N1CCCCC1 (protonated)
O=S(=O)([N-]c1ccc(SC(F)F)cc1Sc1ccccc1)N1CCCCC1 (3D coordinates assigned)
O=S(=O)([N-]c1ccc(SC(F)F)cc1Sc1ccccc1)N1CCCCC1 (nonaromatic ring conformer: 42.767263408388374 kcal/mol)

>  <smiles>  (63) 
O=S(=O)(Nc1ccc(SC(F)F)cc1Sc1ccccc1)N1CCCCC1

>  <score_type>  (63) 
oracle

>  <origin>  (63) 
autodockgpu

>  <m_score__min__energy>  (63) 
-6.96

>  <m_primary>  (63) 
energy

>  <meeko>  (63) 
{"free_energy": -6.76, "intermolecular_energy": -8.85, "internal_energy": -1.57, "cluster_size": 7, "cluster_id": 3, "rank_in_cluster": 4}

>  <energy>  (63) 
-6.1

>  <cluster_rmsd>  (63) 
1.91

>  <rmsd>  (63) 
271.88

>  <cluster>  (63) 
1

$$$$
RCYZJXIDXHYHGN-UHFFFAOYNA-N
     RDKit          3D

 46 48  0  0  0  0  0  0  0  0999 V2000
  139.2010   72.6360  220.4840 O   0  0  0  0  0  0  0  0  0  0  0  0
  139.3530   73.3390  221.8060 S   0  0  0  0  0  0  0  0  0  0  0  0
  138.2510   74.3490  221.9740 O   0  0  0  0  0  0  0  0  0  0  0  0
  140.8870   74.1480  221.8570 N   0  0  0  0  0  0  0  0  0  0  0  0
  141.0900   75.5580  221.6870 C   0  0  0  0  0  0  0  0  0  0  0  0
  140.8150   76.4740  222.7190 C   0  0  0  0  0  0  0  0  0  0  0  0
  141.0440   77.8400  222.5320 C   0  0  0  0  0  0  0  0  0  0  0  0
  141.5530   78.3070  221.3170 C   0  0  0  0  0  0  0  0  0  0  0  0
  141.8220   80.0660  221.0750 S   0  0  0  0  0  0  0  0  0  0  0  0
  142.2770   80.3970  222.8100 C   0  0  0  0  0  0  0  0  0  0  0  0
  143.6420   80.2720  222.9770 F   0  0  0  0  0  0  0  0  0  0  0  0
  141.8710   81.6670  223.1790 F   0  0  0  0  0  0  0  0  0  0  0  0
  141.8170   77.4080  220.2810 C   0  0  0  0  0  0  0  0  0  0  0  0
  141.5850   76.0370  220.4590 C   0  0  0  0  0  0  0  0  0  0  0  0
  141.9080   74.9140  219.0930 S   0  0  0  0  0  0  0  0  0  0  0  0
  143.3250   74.1800  219.9100 C   0  0  0  0  0  0  0  0  0  0  0  0
  144.4620   74.9550  220.1720 C   0  0  0  0  0  0  0  0  0  0  0  0
  145.5650   74.3840  220.8150 C   0  0  0  0  0  0  0  0  0  0  0  0
  145.5440   73.0340  221.1760 C   0  0  0  0  0  0  0  0  0  0  0  0
  144.4150   72.2550  220.9050 C   0  0  0  0  0  0  0  0  0  0  0  0
  143.3030   72.8280  220.2820 C   0  0  0  0  0  0  0  0  0  0  0  0
  139.2660   72.1820  223.1110 N   0  0  0  0  0  0  0  0  0  0  0  0
  140.6220   71.9350  223.6480 C   0  0  0  0  0  0  0  0  0  0  0  0
  140.6700   70.7110  224.5950 C   0  0  0  0  0  0  0  0  0  0  0  0
  139.2630   70.2920  225.0340 C   0  0  0  0  0  0  0  0  0  0  0  0
  138.3780   69.9790  223.8130 C   0  0  0  0  0  0  0  0  0  0  0  0
  138.6600   70.9320  222.6280 C   0  0  0  0  0  0  0  0  0  0  0  0
  140.4173   76.1128  223.6789 H   0  0  0  0  0  0  0  0  0  0  0  0
  140.8231   78.5494  223.3432 H   0  0  0  0  0  0  0  0  0  0  0  0
  141.7697   79.6615  223.4516 H   0  0  0  0  0  0  0  0  0  0  0  0
  142.2085   77.7773  219.3217 H   0  0  0  0  0  0  0  0  0  0  0  0
  144.4874   76.0130  219.8719 H   0  0  0  0  0  0  0  0  0  0  0  0
  146.4502   74.9982  221.0369 H   0  0  0  0  0  0  0  0  0  0  0  0
  146.4159   72.5842  221.6734 H   0  0  0  0  0  0  0  0  0  0  0  0
  144.4020   71.1906  221.1823 H   0  0  0  0  0  0  0  0  0  0  0  0
  142.4095   72.2179  220.0832 H   0  0  0  0  0  0  0  0  0  0  0  0
  141.3078   71.7573  222.8065 H   0  0  0  0  0  0  0  0  0  0  0  0
  140.9176   72.8202  224.2302 H   0  0  0  0  0  0  0  0  0  0  0  0
  141.1470   69.8702  224.0701 H   0  0  0  0  0  0  0  0  0  0  0  0
  141.2457   70.9871  225.4908 H   0  0  0  0  0  0  0  0  0  0  0  0
  139.3350   69.3948  225.6663 H   0  0  0  0  0  0  0  0  0  0  0  0
  138.8078   71.1214  225.5952 H   0  0  0  0  0  0  0  0  0  0  0  0
  138.5720   68.9454  223.4904 H   0  0  0  0  0  0  0  0  0  0  0  0
  137.3284   70.1142  224.1129 H   0  0  0  0  0  0  0  0  0  0  0  0
  139.3498   70.4424  221.9249 H   0  0  0  0  0  0  0  0  0  0  0  0
  137.7109   71.1661  222.1236 H   0  0  0  0  0  0  0  0  0  0  0  0
  1  2  2  0
  2  3  2  0
  2  4  1  0
  4  5  1  0
  5  6  2  0
  6  7  1  0
  7  8  2  0
  8  9  1  0
  9 10  1  0
 10 11  1  0
 10 12  1  0
  8 13  1  0
 13 14  2  0
 14 15  1  0
 15 16  1  0
 16 17  2  0
 17 18  1  0
 18 19  2  0
 19 20  1  0
 20 21  2  0
  2 22  1  0
 22 23  1  0
 23 24  1  0
 24 25  1  0
 25 26  1  0
 26 27  1  0
 14  5  1  0
 21 16  1  0
 27 22  1  0
  6 28  1  0
  7 29  1  0
 10 30  1  0
 13 31  1  0
 17 32  1  0
 18 33  1  0
 19 34  1  0
 20 35  1  0
 21 36  1  0
 23 37  1  0
 23 38  1  0
 24 39  1  0
 24 40  1  0
 25 41  1  0
 25 42  1  0
 26 43  1  0
 26 44  1  0
 27 45  1  0
 27 46  1  0
M  CHG  1   4  -1
M  END
>  <UniqueID>  (64) 
31

>  <SMILES>  (64) 
O=S(=O)([N-]c1ccc(SC(F)F)cc1Sc1ccccc1)N1CCCCC1

>  <Energy>  (64) 
42.767263408388374

>  <Genealogy>  (64) 
O=S(=O)([N-]c1ccc(SC(F)F)cc1Sc1ccccc1)N1CCCCC1 (protonated)
O=S(=O)([N-]c1ccc(SC(F)F)cc1Sc1ccccc1)N1CCCCC1 (3D coordinates assigned)
O=S(=O)([N-]c1ccc(SC(F)F)cc1Sc1ccccc1)N1CCCCC1 (nonaromatic ring conformer: 42.767263408388374 kcal/mol)

>  <smiles>  (64) 
O=S(=O)(Nc1ccc(SC(F)F)cc1Sc1ccccc1)N1CCCCC1

>  <score_type>  (64) 
oracle

>  <origin>  (64) 
autodockgpu

>  <m_score__min__energy>  (64) 
-6.96

>  <m_primary>  (64) 
energy

>  <meeko>  (64) 
{"free_energy": -6.1, "intermolecular_energy": -8.19, "internal_energy": -1.61, "cluster_size": 1, "cluster_id": 5, "rank_in_cluster": 1}

>  <energy>  (64) 
-6.86

>  <cluster_rmsd>  (64) 
0.0

>  <rmsd>  (64) 
272.34

>  <cluster>  (64) 
2

$$$$
RCYZJXIDXHYHGN-UHFFFAOYNA-N
     RDKit          3D

 46 48  0  0  0  0  0  0  0  0999 V2000
  140.3760   74.1690  222.0850 O   0  0  0  0  0  0  0  0  0  0  0  0
  140.6720   72.9820  221.2080 S   0  0  0  0  0  0  0  0  0  0  0  0
  139.6140   72.8590  220.1460 O   0  0  0  0  0  0  0  0  0  0  0  0
  140.6890   71.5410  222.1730 N   0  0  0  0  0  0  0  0  0  0  0  0
  139.5390   70.9300  222.7770 C   0  0  0  0  0  0  0  0  0  0  0  0
  138.4870   70.4070  222.0020 C   0  0  0  0  0  0  0  0  0  0  0  0
  137.3910   69.7980  222.6180 C   0  0  0  0  0  0  0  0  0  0  0  0
  137.3320   69.6990  224.0100 C   0  0  0  0  0  0  0  0  0  0  0  0
  135.9090   68.9370  224.7960 S   0  0  0  0  0  0  0  0  0  0  0  0
  134.9570   70.4860  224.9360 C   0  0  0  0  0  0  0  0  0  0  0  0
  134.5400   70.6740  226.2400 F   0  0  0  0  0  0  0  0  0  0  0  0
  135.7270   71.5620  224.5280 F   0  0  0  0  0  0  0  0  0  0  0  0
  138.3650   70.2270  224.7900 C   0  0  0  0  0  0  0  0  0  0  0  0
  139.4650   70.8440  224.1810 C   0  0  0  0  0  0  0  0  0  0  0  0
  140.7600   71.5380  225.2170 S   0  0  0  0  0  0  0  0  0  0  0  0
  140.6410   70.2110  226.4160 C   0  0  0  0  0  0  0  0  0  0  0  0
  141.1620   68.9460  226.1150 C   0  0  0  0  0  0  0  0  0  0  0  0
  141.0740   67.9110  227.0540 C   0  0  0  0  0  0  0  0  0  0  0  0
  140.4450   68.1320  228.2820 C   0  0  0  0  0  0  0  0  0  0  0  0
  139.9130   69.3910  228.5790 C   0  0  0  0  0  0  0  0  0  0  0  0
  140.0190   70.4310  227.6530 C   0  0  0  0  0  0  0  0  0  0  0  0
  142.2270   73.1810  220.4390 N   0  0  0  0  0  0  0  0  0  0  0  0
  143.1240   72.0730  220.8370 C   0  0  0  0  0  0  0  0  0  0  0  0
  144.5980   72.3340  220.4420 C   0  0  0  0  0  0  0  0  0  0  0  0
  144.7080   73.4740  219.4250 C   0  0  0  0  0  0  0  0  0  0  0  0
  144.0740   74.7650  219.9770 C   0  0  0  0  0  0  0  0  0  0  0  0
  142.8060   74.4800  220.8150 C   0  0  0  0  0  0  0  0  0  0  0  0
  138.5280   70.4782  220.9051 H   0  0  0  0  0  0  0  0  0  0  0  0
  136.5716   69.3950  222.0046 H   0  0  0  0  0  0  0  0  0  0  0  0
  134.0734   70.4135  224.2848 H   0  0  0  0  0  0  0  0  0  0  0  0
  138.3137   70.1576  225.8866 H   0  0  0  0  0  0  0  0  0  0  0  0
  141.6403   68.7657  225.1410 H   0  0  0  0  0  0  0  0  0  0  0  0
  141.5004   66.9232  226.8248 H   0  0  0  0  0  0  0  0  0  0  0  0
  140.3682   67.3157  229.0153 H   0  0  0  0  0  0  0  0  0  0  0  0
  139.4108   69.5621  229.5426 H   0  0  0  0  0  0  0  0  0  0  0  0
  139.6137   71.4246  227.8947 H   0  0  0  0  0  0  0  0  0  0  0  0
  143.0679   71.9481  221.9284 H   0  0  0  0  0  0  0  0  0  0  0  0
  142.7914   71.1670  220.3092 H   0  0  0  0  0  0  0  0  0  0  0  0
  145.1686   72.6018  221.3435 H   0  0  0  0  0  0  0  0  0  0  0  0
  145.0018   71.4193  219.9834 H   0  0  0  0  0  0  0  0  0  0  0  0
  145.7697   73.6595  219.2051 H   0  0  0  0  0  0  0  0  0  0  0  0
  144.1718   73.1821  218.5099 H   0  0  0  0  0  0  0  0  0  0  0  0
  144.8109   75.2781  220.6125 H   0  0  0  0  0  0  0  0  0  0  0  0
  143.7800   75.3901  219.1209 H   0  0  0  0  0  0  0  0  0  0  0  0
  143.0724   74.4633  221.8821 H   0  0  0  0  0  0  0  0  0  0  0  0
  142.0655   75.2707  220.6238 H   0  0  0  0  0  0  0  0  0  0  0  0
  1  2  2  0
  2  3  2  0
  2  4  1  0
  4  5  1  0
  5  6  2  0
  6  7  1  0
  7  8  2  0
  8  9  1  0
  9 10  1  0
 10 11  1  0
 10 12  1  0
  8 13  1  0
 13 14  2  0
 14 15  1  0
 15 16  1  0
 16 17  2  0
 17 18  1  0
 18 19  2  0
 19 20  1  0
 20 21  2  0
  2 22  1  0
 22 23  1  0
 23 24  1  0
 24 25  1  0
 25 26  1  0
 26 27  1  0
 14  5  1  0
 21 16  1  0
 27 22  1  0
  6 28  1  0
  7 29  1  0
 10 30  1  0
 13 31  1  0
 17 32  1  0
 18 33  1  0
 19 34  1  0
 20 35  1  0
 21 36  1  0
 23 37  1  0
 23 38  1  0
 24 39  1  0
 24 40  1  0
 25 41  1  0
 25 42  1  0
 26 43  1  0
 26 44  1  0
 27 45  1  0
 27 46  1  0
M  CHG  1   4  -1
M  END
>  <UniqueID>  (65) 
31

>  <SMILES>  (65) 
O=S(=O)([N-]c1ccc(SC(F)F)cc1Sc1ccccc1)N1CCCCC1

>  <Energy>  (65) 
42.767263408388374

>  <Genealogy>  (65) 
O=S(=O)([N-]c1ccc(SC(F)F)cc1Sc1ccccc1)N1CCCCC1 (protonated)
O=S(=O)([N-]c1ccc(SC(F)F)cc1Sc1ccccc1)N1CCCCC1 (3D coordinates assigned)
O=S(=O)([N-]c1ccc(SC(F)F)cc1Sc1ccccc1)N1CCCCC1 (nonaromatic ring conformer: 42.767263408388374 kcal/mol)

>  <smiles>  (65) 
O=S(=O)(Nc1ccc(SC(F)F)cc1Sc1ccccc1)N1CCCCC1

>  <score_type>  (65) 
oracle

>  <origin>  (65) 
autodockgpu

>  <m_score__min__energy>  (65) 
-6.96

>  <m_primary>  (65) 
energy

>  <meeko>  (65) 
{"free_energy": -6.6, "intermolecular_energy": -8.69, "internal_energy": -1.34, "cluster_size": 3, "cluster_id": 1, "rank_in_cluster": 2}

>  <energy>  (65) 
-6.84

>  <cluster_rmsd>  (65) 
0.14

>  <rmsd>  (65) 
272.35

>  <cluster>  (65) 
2

$$$$
RCYZJXIDXHYHGN-UHFFFAOYNA-N
     RDKit          3D

 46 48  0  0  0  0  0  0  0  0999 V2000
  138.8170   71.7800  220.8320 O   0  0  0  0  0  0  0  0  0  0  0  0
  139.8810   72.1170  221.8410 S   0  0  0  0  0  0  0  0  0  0  0  0
  141.2260   71.6750  221.3300 O   0  0  0  0  0  0  0  0  0  0  0  0
  139.5390   71.3030  223.3350 N   0  0  0  0  0  0  0  0  0  0  0  0
  138.2380   70.8930  223.7810 C   0  0  0  0  0  0  0  0  0  0  0  0
  137.0850   71.6410  223.4790 C   0  0  0  0  0  0  0  0  0  0  0  0
  135.8280   71.2040  223.9070 C   0  0  0  0  0  0  0  0  0  0  0  0
  135.7060   70.0180  224.6360 C   0  0  0  0  0  0  0  0  0  0  0  0
  134.0920   69.4760  225.2030 S   0  0  0  0  0  0  0  0  0  0  0  0
  133.9260   70.7760  226.4720 C   0  0  0  0  0  0  0  0  0  0  0  0
  132.5910   71.0100  226.7440 F   0  0  0  0  0  0  0  0  0  0  0  0
  134.5840   70.4040  227.6310 F   0  0  0  0  0  0  0  0  0  0  0  0
  136.8470   69.2750  224.9520 C   0  0  0  0  0  0  0  0  0  0  0  0
  138.1110   69.7080  224.5310 C   0  0  0  0  0  0  0  0  0  0  0  0
  139.5590   68.7420  224.9820 S   0  0  0  0  0  0  0  0  0  0  0  0
  140.1320   69.9750  226.1510 C   0  0  0  0  0  0  0  0  0  0  0  0
  141.0780   70.9290  225.7560 C   0  0  0  0  0  0  0  0  0  0  0  0
  141.5210   71.8940  226.6670 C   0  0  0  0  0  0  0  0  0  0  0  0
  141.0370   71.8940  227.9790 C   0  0  0  0  0  0  0  0  0  0  0  0
  140.1010   70.9350  228.3780 C   0  0  0  0  0  0  0  0  0  0  0  0
  139.6410   69.9830  227.4640 C   0  0  0  0  0  0  0  0  0  0  0  0
  139.9180   73.8400  222.1180 N   0  0  0  0  0  0  0  0  0  0  0  0
  138.5630   74.4040  221.9270 C   0  0  0  0  0  0  0  0  0  0  0  0
  138.5700   75.9510  221.8600 C   0  0  0  0  0  0  0  0  0  0  0  0
  139.8940   76.5250  222.3730 C   0  0  0  0  0  0  0  0  0  0  0  0
  141.0830   75.9570  221.5750 C   0  0  0  0  0  0  0  0  0  0  0  0
  140.8790   74.4710  221.1990 C   0  0  0  0  0  0  0  0  0  0  0  0
  137.1732   72.5742  222.9033 H   0  0  0  0  0  0  0  0  0  0  0  0
  134.9318   71.7958  223.6691 H   0  0  0  0  0  0  0  0  0  0  0  0
  134.3804   71.7006  226.0864 H   0  0  0  0  0  0  0  0  0  0  0  0
  136.7520   68.3463  225.5338 H   0  0  0  0  0  0  0  0  0  0  0  0
  141.4728   70.9197  224.7293 H   0  0  0  0  0  0  0  0  0  0  0  0
  142.2510   72.6537  226.3508 H   0  0  0  0  0  0  0  0  0  0  0  0
  141.3925   72.6480  228.6967 H   0  0  0  0  0  0  0  0  0  0  0  0
  139.7263   70.9298  229.4122 H   0  0  0  0  0  0  0  0  0  0  0  0
  138.8928   69.2391  227.7753 H   0  0  0  0  0  0  0  0  0  0  0  0
  138.1467   74.0119  220.9874 H   0  0  0  0  0  0  0  0  0  0  0  0
  137.9525   74.1092  222.7933 H   0  0  0  0  0  0  0  0  0  0  0  0
  138.4241   76.2650  220.8159 H   0  0  0  0  0  0  0  0  0  0  0  0
  137.7576   76.3295  222.4977 H   0  0  0  0  0  0  0  0  0  0  0  0
  139.8779   77.6197  222.2659 H   0  0  0  0  0  0  0  0  0  0  0  0
  140.0133   76.2451  223.4301 H   0  0  0  0  0  0  0  0  0  0  0  0
  141.2017   76.5428  220.6515 H   0  0  0  0  0  0  0  0  0  0  0  0
  141.9784   76.0242  222.2103 H   0  0  0  0  0  0  0  0  0  0  0  0
  140.4941   74.4062  220.1706 H   0  0  0  0  0  0  0  0  0  0  0  0
  141.8432   73.9469  221.2736 H   0  0  0  0  0  0  0  0  0  0  0  0
  1  2  2  0
  2  3  2  0
  2  4  1  0
  4  5  1  0
  5  6  2  0
  6  7  1  0
  7  8  2  0
  8  9  1  0
  9 10  1  0
 10 11  1  0
 10 12  1  0
  8 13  1  0
 13 14  2  0
 14 15  1  0
 15 16  1  0
 16 17  2  0
 17 18  1  0
 18 19  2  0
 19 20  1  0
 20 21  2  0
  2 22  1  0
 22 23  1  0
 23 24  1  0
 24 25  1  0
 25 26  1  0
 26 27  1  0
 14  5  1  0
 21 16  1  0
 27 22  1  0
  6 28  1  0
  7 29  1  0
 10 30  1  0
 13 31  1  0
 17 32  1  0
 18 33  1  0
 19 34  1  0
 20 35  1  0
 21 36  1  0
 23 37  1  0
 23 38  1  0
 24 39  1  0
 24 40  1  0
 25 41  1  0
 25 42  1  0
 26 43  1  0
 26 44  1  0
 27 45  1  0
 27 46  1  0
M  CHG  1   4  -1
M  END
>  <UniqueID>  (66) 
31

>  <SMILES>  (66) 
O=S(=O)([N-]c1ccc(SC(F)F)cc1Sc1ccccc1)N1CCCCC1

>  <Energy>  (66) 
42.767263408388374

>  <Genealogy>  (66) 
O=S(=O)([N-]c1ccc(SC(F)F)cc1Sc1ccccc1)N1CCCCC1 (protonated)
O=S(=O)([N-]c1ccc(SC(F)F)cc1Sc1ccccc1)N1CCCCC1 (3D coordinates assigned)
O=S(=O)([N-]c1ccc(SC(F)F)cc1Sc1ccccc1)N1CCCCC1 (nonaromatic ring conformer: 42.767263408388374 kcal/mol)

>  <smiles>  (66) 
O=S(=O)(Nc1ccc(SC(F)F)cc1Sc1ccccc1)N1CCCCC1

>  <score_type>  (66) 
oracle

>  <origin>  (66) 
autodockgpu

>  <m_score__min__energy>  (66) 
-6.96

>  <m_primary>  (66) 
energy

>  <meeko>  (66) 
{"free_energy": -6.86, "intermolecular_energy": -8.95, "internal_energy": -1.46, "cluster_size": 3, "cluster_id": 2, "rank_in_cluster": 1}

>  <energy>  (66) 
-6.51

>  <cluster_rmsd>  (66) 
1.66

>  <rmsd>  (66) 
272.02

>  <cluster>  (66) 
2

$$$$
RCYZJXIDXHYHGN-UHFFFAOYNA-N
     RDKit          3D

 46 48  0  0  0  0  0  0  0  0999 V2000
  140.0460   72.6310  220.1180 O   0  0  0  0  0  0  0  0  0  0  0  0
  140.6210   73.7150  220.9890 S   0  0  0  0  0  0  0  0  0  0  0  0
  140.1090   73.5630  222.3960 O   0  0  0  0  0  0  0  0  0  0  0  0
  140.1480   75.2650  220.3700 N   0  0  0  0  0  0  0  0  0  0  0  0
  139.4130   76.2620  221.0950 C   0  0  0  0  0  0  0  0  0  0  0  0
  138.0900   76.0400  221.5210 C   0  0  0  0  0  0  0  0  0  0  0  0
  137.4070   77.0210  222.2460 C   0  0  0  0  0  0  0  0  0  0  0  0
  138.0350   78.2300  222.5570 C   0  0  0  0  0  0  0  0  0  0  0  0
  137.1440   79.4950  223.4670 S   0  0  0  0  0  0  0  0  0  0  0  0
  138.6150   80.5260  223.7850 C   0  0  0  0  0  0  0  0  0  0  0  0
  138.8190   81.4020  222.7370 F   0  0  0  0  0  0  0  0  0  0  0  0
  138.4610   81.2320  224.9660 F   0  0  0  0  0  0  0  0  0  0  0  0
  139.3440   78.4660  222.1270 C   0  0  0  0  0  0  0  0  0  0  0  0
  140.0340   77.4900  221.3960 C   0  0  0  0  0  0  0  0  0  0  0  0
  141.7060   77.8400  220.8350 S   0  0  0  0  0  0  0  0  0  0  0  0
  141.8900   79.2280  221.9540 C   0  0  0  0  0  0  0  0  0  0  0  0
  142.2300   79.0060  223.2950 C   0  0  0  0  0  0  0  0  0  0  0  0
  142.3800   80.0900  224.1680 C   0  0  0  0  0  0  0  0  0  0  0  0
  142.1680   81.3940  223.7090 C   0  0  0  0  0  0  0  0  0  0  0  0
  141.8170   81.6160  222.3730 C   0  0  0  0  0  0  0  0  0  0  0  0
  141.6880   80.5370  221.4950 C   0  0  0  0  0  0  0  0  0  0  0  0
  142.3640   73.6070  221.0050 N   0  0  0  0  0  0  0  0  0  0  0  0
  142.9430   74.8130  220.3730 C   0  0  0  0  0  0  0  0  0  0  0  0
  144.4560   74.6580  220.0800 C   0  0  0  0  0  0  0  0  0  0  0  0
  145.0520   73.4710  220.8420 C   0  0  0  0  0  0  0  0  0  0  0  0
  144.3110   72.1660  220.4900 C   0  0  0  0  0  0  0  0  0  0  0  0
  142.7930   72.3900  220.2990 C   0  0  0  0  0  0  0  0  0  0  0  0
  137.5907   75.0894  221.2822 H   0  0  0  0  0  0  0  0  0  0  0  0
  136.3722   76.8407  222.5726 H   0  0  0  0  0  0  0  0  0  0  0  0
  139.4911   79.8671  223.8762 H   0  0  0  0  0  0  0  0  0  0  0  0
  139.8343   79.4219  222.3635 H   0  0  0  0  0  0  0  0  0  0  0  0
  142.3791   77.9798  223.6619 H   0  0  0  0  0  0  0  0  0  0  0  0
  142.6649   79.9160  225.2161 H   0  0  0  0  0  0  0  0  0  0  0  0
  142.2772   82.2445  224.3980 H   0  0  0  0  0  0  0  0  0  0  0  0
  141.6425   82.6409  222.0136 H   0  0  0  0  0  0  0  0  0  0  0  0
  141.4274   80.7150  220.4412 H   0  0  0  0  0  0  0  0  0  0  0  0
  142.4173   75.0021  219.4254 H   0  0  0  0  0  0  0  0  0  0  0  0
  142.8217   75.6507  221.0756 H   0  0  0  0  0  0  0  0  0  0  0  0
  144.5974   74.4984  219.0009 H   0  0  0  0  0  0  0  0  0  0  0  0
  144.9687   75.5740  220.4086 H   0  0  0  0  0  0  0  0  0  0  0  0
  146.1136   73.3665  220.5734 H   0  0  0  0  0  0  0  0  0  0  0  0
  144.9462   73.6561  221.9211 H   0  0  0  0  0  0  0  0  0  0  0  0
  144.7297   71.7615  219.5567 H   0  0  0  0  0  0  0  0  0  0  0  0
  144.4464   71.4645  221.3264 H   0  0  0  0  0  0  0  0  0  0  0  0
  142.5740   72.4965  219.2263 H   0  0  0  0  0  0  0  0  0  0  0  0
  142.2493   71.5269  220.7106 H   0  0  0  0  0  0  0  0  0  0  0  0
  1  2  2  0
  2  3  2  0
  2  4  1  0
  4  5  1  0
  5  6  2  0
  6  7  1  0
  7  8  2  0
  8  9  1  0
  9 10  1  0
 10 11  1  0
 10 12  1  0
  8 13  1  0
 13 14  2  0
 14 15  1  0
 15 16  1  0
 16 17  2  0
 17 18  1  0
 18 19  2  0
 19 20  1  0
 20 21  2  0
  2 22  1  0
 22 23  1  0
 23 24  1  0
 24 25  1  0
 25 26  1  0
 26 27  1  0
 14  5  1  0
 21 16  1  0
 27 22  1  0
  6 28  1  0
  7 29  1  0
 10 30  1  0
 13 31  1  0
 17 32  1  0
 18 33  1  0
 19 34  1  0
 20 35  1  0
 21 36  1  0
 23 37  1  0
 23 38  1  0
 24 39  1  0
 24 40  1  0
 25 41  1  0
 25 42  1  0
 26 43  1  0
 26 44  1  0
 27 45  1  0
 27 46  1  0
M  CHG  1   4  -1
M  END
>  <UniqueID>  (67) 
31

>  <SMILES>  (67) 
O=S(=O)([N-]c1ccc(SC(F)F)cc1Sc1ccccc1)N1CCCCC1

>  <Energy>  (67) 
42.767263408388374

>  <Genealogy>  (67) 
O=S(=O)([N-]c1ccc(SC(F)F)cc1Sc1ccccc1)N1CCCCC1 (protonated)
O=S(=O)([N-]c1ccc(SC(F)F)cc1Sc1ccccc1)N1CCCCC1 (3D coordinates assigned)
O=S(=O)([N-]c1ccc(SC(F)F)cc1Sc1ccccc1)N1CCCCC1 (nonaromatic ring conformer: 42.767263408388374 kcal/mol)

>  <smiles>  (67) 
O=S(=O)(Nc1ccc(SC(F)F)cc1Sc1ccccc1)N1CCCCC1

>  <score_type>  (67) 
oracle

>  <origin>  (67) 
autodockgpu

>  <m_score__min__energy>  (67) 
-6.96

>  <m_primary>  (67) 
energy

>  <meeko>  (67) 
{"free_energy": -6.07, "intermolecular_energy": -8.16, "internal_energy": -1.67, "cluster_size": 5, "cluster_id": 4, "rank_in_cluster": 2}

>  <energy>  (67) 
-6.81

>  <cluster_rmsd>  (67) 
0.0

>  <rmsd>  (67) 
271.94

>  <cluster>  (67) 
3

$$$$
RCYZJXIDXHYHGN-UHFFFAOYNA-N
     RDKit          3D

 46 48  0  0  0  0  0  0  0  0999 V2000
  140.1980   74.8990  219.5770 O   0  0  0  0  0  0  0  0  0  0  0  0
  140.5390   74.0440  220.7670 S   0  0  0  0  0  0  0  0  0  0  0  0
  139.8780   72.6990  220.6330 O   0  0  0  0  0  0  0  0  0  0  0  0
  139.9770   74.8180  222.2150 N   0  0  0  0  0  0  0  0  0  0  0  0
  139.1660   76.0010  222.2650 C   0  0  0  0  0  0  0  0  0  0  0  0
  137.8310   75.9620  222.7080 C   0  0  0  0  0  0  0  0  0  0  0  0
  137.0720   77.1340  222.7680 C   0  0  0  0  0  0  0  0  0  0  0  0
  137.6350   78.3560  222.3920 C   0  0  0  0  0  0  0  0  0  0  0  0
  136.6480   79.8540  222.4480 S   0  0  0  0  0  0  0  0  0  0  0  0
  137.8870   80.8250  223.3690 C   0  0  0  0  0  0  0  0  0  0  0  0
  138.5050   80.0330  224.3180 F   0  0  0  0  0  0  0  0  0  0  0  0
  138.8320   81.3450  222.5020 F   0  0  0  0  0  0  0  0  0  0  0  0
  138.9560   78.4040  221.9380 C   0  0  0  0  0  0  0  0  0  0  0  0
  139.7220   77.2320  221.8700 C   0  0  0  0  0  0  0  0  0  0  0  0
  141.4080   77.3270  221.2530 S   0  0  0  0  0  0  0  0  0  0  0  0
  141.7390   78.8590  222.1230 C   0  0  0  0  0  0  0  0  0  0  0  0
  141.9290   78.8490  223.5110 C   0  0  0  0  0  0  0  0  0  0  0  0
  142.1940   80.0440  224.1900 C   0  0  0  0  0  0  0  0  0  0  0  0
  142.2450   81.2520  223.4880 C   0  0  0  0  0  0  0  0  0  0  0  0
  142.0440   81.2650  222.1040 C   0  0  0  0  0  0  0  0  0  0  0  0
  141.8010   80.0710  221.4210 C   0  0  0  0  0  0  0  0  0  0  0  0
  142.2670   73.8190  220.8660 N   0  0  0  0  0  0  0  0  0  0  0  0
  142.9480   74.8130  220.0070 C   0  0  0  0  0  0  0  0  0  0  0  0
  144.4500   74.4910  219.8070 C   0  0  0  0  0  0  0  0  0  0  0  0
  144.9390   73.4600  220.8280 C   0  0  0  0  0  0  0  0  0  0  0  0
  144.1080   72.1660  220.7420 C   0  0  0  0  0  0  0  0  0  0  0  0
  142.6150   72.4490  220.4550 C   0  0  0  0  0  0  0  0  0  0  0  0
  137.3823   75.0038  223.0087 H   0  0  0  0  0  0  0  0  0  0  0  0
  136.0281   77.0941  223.1124 H   0  0  0  0  0  0  0  0  0  0  0  0
  137.3739   81.6558  223.8754 H   0  0  0  0  0  0  0  0  0  0  0  0
  139.3961   79.3649  221.6330 H   0  0  0  0  0  0  0  0  0  0  0  0
  141.8699   77.9019  224.0673 H   0  0  0  0  0  0  0  0  0  0  0  0
  142.3623   80.0326  225.2770 H   0  0  0  0  0  0  0  0  0  0  0  0
  142.4431   82.1919  224.0240 H   0  0  0  0  0  0  0  0  0  0  0  0
  142.0773   82.2164  221.5528 H   0  0  0  0  0  0  0  0  0  0  0  0
  141.6580   80.0817  220.3304 H   0  0  0  0  0  0  0  0  0  0  0  0
  142.4556   74.8261  219.0234 H   0  0  0  0  0  0  0  0  0  0  0  0
  142.8784   75.7909  220.5060 H   0  0  0  0  0  0  0  0  0  0  0  0
  144.5986   74.0899  218.7936 H   0  0  0  0  0  0  0  0  0  0  0  0
  145.0253   75.4180  219.9471 H   0  0  0  0  0  0  0  0  0  0  0  0
  145.9943   73.2247  220.6254 H   0  0  0  0  0  0  0  0  0  0  0  0
  144.8272   73.8836  221.8370 H   0  0  0  0  0  0  0  0  0  0  0  0
  144.5116   71.5388  219.9334 H   0  0  0  0  0  0  0  0  0  0  0  0
  144.1744   71.6566  221.7147 H   0  0  0  0  0  0  0  0  0  0  0  0
  142.4243   72.3337  219.3778 H   0  0  0  0  0  0  0  0  0  0  0  0
  141.9997   71.7371  221.0247 H   0  0  0  0  0  0  0  0  0  0  0  0
  1  2  2  0
  2  3  2  0
  2  4  1  0
  4  5  1  0
  5  6  2  0
  6  7  1  0
  7  8  2  0
  8  9  1  0
  9 10  1  0
 10 11  1  0
 10 12  1  0
  8 13  1  0
 13 14  2  0
 14 15  1  0
 15 16  1  0
 16 17  2  0
 17 18  1  0
 18 19  2  0
 19 20  1  0
 20 21  2  0
  2 22  1  0
 22 23  1  0
 23 24  1  0
 24 25  1  0
 25 26  1  0
 26 27  1  0
 14  5  1  0
 21 16  1  0
 27 22  1  0
  6 28  1  0
  7 29  1  0
 10 30  1  0
 13 31  1  0
 17 32  1  0
 18 33  1  0
 19 34  1  0
 20 35  1  0
 21 36  1  0
 23 37  1  0
 23 38  1  0
 24 39  1  0
 24 40  1  0
 25 41  1  0
 25 42  1  0
 26 43  1  0
 26 44  1  0
 27 45  1  0
 27 46  1  0
M  CHG  1   4  -1
M  END
>  <UniqueID>  (68) 
31

>  <SMILES>  (68) 
O=S(=O)([N-]c1ccc(SC(F)F)cc1Sc1ccccc1)N1CCCCC1

>  <Energy>  (68) 
42.767263408388374

>  <Genealogy>  (68) 
O=S(=O)([N-]c1ccc(SC(F)F)cc1Sc1ccccc1)N1CCCCC1 (protonated)
O=S(=O)([N-]c1ccc(SC(F)F)cc1Sc1ccccc1)N1CCCCC1 (3D coordinates assigned)
O=S(=O)([N-]c1ccc(SC(F)F)cc1Sc1ccccc1)N1CCCCC1 (nonaromatic ring conformer: 42.767263408388374 kcal/mol)

>  <smiles>  (68) 
O=S(=O)(Nc1ccc(SC(F)F)cc1Sc1ccccc1)N1CCCCC1

>  <score_type>  (68) 
oracle

>  <origin>  (68) 
autodockgpu

>  <m_score__min__energy>  (68) 
-6.96

>  <m_primary>  (68) 
energy

>  <meeko>  (68) 
{"free_energy": -5.92, "intermolecular_energy": -8.01, "internal_energy": -1.76, "cluster_size": 5, "cluster_id": 4, "rank_in_cluster": 4}

>  <energy>  (68) 
-6.8

>  <cluster_rmsd>  (68) 
0.4

>  <rmsd>  (68) 
271.94

>  <cluster>  (68) 
3

$$$$
RCYZJXIDXHYHGN-UHFFFAOYNA-N
     RDKit          3D

 46 48  0  0  0  0  0  0  0  0999 V2000
  140.2000   74.9080  219.6000 O   0  0  0  0  0  0  0  0  0  0  0  0
  140.5480   74.0470  220.7830 S   0  0  0  0  0  0  0  0  0  0  0  0
  139.9030   72.6950  220.6360 O   0  0  0  0  0  0  0  0  0  0  0  0
  139.9740   74.8010  222.2360 N   0  0  0  0  0  0  0  0  0  0  0  0
  139.1660   75.9860  222.2960 C   0  0  0  0  0  0  0  0  0  0  0  0
  137.8310   75.9480  222.7390 C   0  0  0  0  0  0  0  0  0  0  0  0
  137.0760   77.1220  222.8080 C   0  0  0  0  0  0  0  0  0  0  0  0
  137.6420   78.3450  222.4400 C   0  0  0  0  0  0  0  0  0  0  0  0
  136.6590   79.8460  222.5080 S   0  0  0  0  0  0  0  0  0  0  0  0
  137.9100   80.8120  223.4190 C   0  0  0  0  0  0  0  0  0  0  0  0
  138.5360   80.0160  224.3580 F   0  0  0  0  0  0  0  0  0  0  0  0
  138.8470   81.3330  222.5430 F   0  0  0  0  0  0  0  0  0  0  0  0
  138.9640   78.3920  221.9860 C   0  0  0  0  0  0  0  0  0  0  0  0
  139.7260   77.2190  221.9090 C   0  0  0  0  0  0  0  0  0  0  0  0
  141.4120   77.3140  221.2910 S   0  0  0  0  0  0  0  0  0  0  0  0
  141.7410   78.8500  222.1540 C   0  0  0  0  0  0  0  0  0  0  0  0
  141.8160   80.0530  221.4400 C   0  0  0  0  0  0  0  0  0  0  0  0
  142.0670   81.2530  222.1150 C   0  0  0  0  0  0  0  0  0  0  0  0
  142.2650   81.2500  223.4980 C   0  0  0  0  0  0  0  0  0  0  0  0
  142.2010   80.0490  224.2120 C   0  0  0  0  0  0  0  0  0  0  0  0
  141.9300   78.8520  223.5430 C   0  0  0  0  0  0  0  0  0  0  0  0
  142.2790   73.8410  220.8850 N   0  0  0  0  0  0  0  0  0  0  0  0
  142.9490   74.8220  220.0020 C   0  0  0  0  0  0  0  0  0  0  0  0
  144.4530   74.5100  219.8060 C   0  0  0  0  0  0  0  0  0  0  0  0
  144.9540   73.5080  220.8500 C   0  0  0  0  0  0  0  0  0  0  0  0
  144.1350   72.2040  220.7960 C   0  0  0  0  0  0  0  0  0  0  0  0
  142.6390   72.4660  220.5050 C   0  0  0  0  0  0  0  0  0  0  0  0
  137.3792   74.9890  223.0326 H   0  0  0  0  0  0  0  0  0  0  0  0
  136.0323   77.0829  223.1533 H   0  0  0  0  0  0  0  0  0  0  0  0
  137.4043   81.6423  223.9336 H   0  0  0  0  0  0  0  0  0  0  0  0
  139.4072   79.3537  221.6882 H   0  0  0  0  0  0  0  0  0  0  0  0
  141.6776   80.0544  220.3487 H   0  0  0  0  0  0  0  0  0  0  0  0
  142.1084   82.1995  221.5561 H   0  0  0  0  0  0  0  0  0  0  0  0
  142.4714   82.1928  224.0257 H   0  0  0  0  0  0  0  0  0  0  0  0
  142.3639   80.0465  225.2999 H   0  0  0  0  0  0  0  0  0  0  0  0
  141.8649   77.9101  224.1074 H   0  0  0  0  0  0  0  0  0  0  0  0
  142.4545   74.8082  219.0195 H   0  0  0  0  0  0  0  0  0  0  0  0
  142.8711   75.8101  220.4790 H   0  0  0  0  0  0  0  0  0  0  0  0
  144.6032   74.0866  218.8019 H   0  0  0  0  0  0  0  0  0  0  0  0
  145.0198   75.4455  219.9226 H   0  0  0  0  0  0  0  0  0  0  0  0
  146.0111   73.2782  220.6507 H   0  0  0  0  0  0  0  0  0  0  0  0
  144.8402   73.9541  221.8490 H   0  0  0  0  0  0  0  0  0  0  0  0
  144.5433   71.5618  220.0018 H   0  0  0  0  0  0  0  0  0  0  0  0
  144.2078   71.7183  221.7803 H   0  0  0  0  0  0  0  0  0  0  0  0
  142.4478   72.3243  219.4311 H   0  0  0  0  0  0  0  0  0  0  0  0
  142.0312   71.7615  221.0917 H   0  0  0  0  0  0  0  0  0  0  0  0
  1  2  2  0
  2  3  2  0
  2  4  1  0
  4  5  1  0
  5  6  2  0
  6  7  1  0
  7  8  2  0
  8  9  1  0
  9 10  1  0
 10 11  1  0
 10 12  1  0
  8 13  1  0
 13 14  2  0
 14 15  1  0
 15 16  1  0
 16 17  2  0
 17 18  1  0
 18 19  2  0
 19 20  1  0
 20 21  2  0
  2 22  1  0
 22 23  1  0
 23 24  1  0
 24 25  1  0
 25 26  1  0
 26 27  1  0
 14  5  1  0
 21 16  1  0
 27 22  1  0
  6 28  1  0
  7 29  1  0
 10 30  1  0
 13 31  1  0
 17 32  1  0
 18 33  1  0
 19 34  1  0
 20 35  1  0
 21 36  1  0
 23 37  1  0
 23 38  1  0
 24 39  1  0
 24 40  1  0
 25 41  1  0
 25 42  1  0
 26 43  1  0
 26 44  1  0
 27 45  1  0
 27 46  1  0
M  CHG  1   4  -1
M  END
>  <UniqueID>  (69) 
31

>  <SMILES>  (69) 
O=S(=O)([N-]c1ccc(SC(F)F)cc1Sc1ccccc1)N1CCCCC1

>  <Energy>  (69) 
42.767263408388374

>  <Genealogy>  (69) 
O=S(=O)([N-]c1ccc(SC(F)F)cc1Sc1ccccc1)N1CCCCC1 (protonated)
O=S(=O)([N-]c1ccc(SC(F)F)cc1Sc1ccccc1)N1CCCCC1 (3D coordinates assigned)
O=S(=O)([N-]c1ccc(SC(F)F)cc1Sc1ccccc1)N1CCCCC1 (nonaromatic ring conformer: 42.767263408388374 kcal/mol)

>  <smiles>  (69) 
O=S(=O)(Nc1ccc(SC(F)F)cc1Sc1ccccc1)N1CCCCC1

>  <score_type>  (69) 
oracle

>  <origin>  (69) 
autodockgpu

>  <m_score__min__energy>  (69) 
-6.96

>  <m_primary>  (69) 
energy

>  <meeko>  (69) 
{"free_energy": -5.92, "intermolecular_energy": -8.01, "internal_energy": -1.76, "cluster_size": 5, "cluster_id": 4, "rank_in_cluster": 5}

>  <energy>  (69) 
-6.8

>  <cluster_rmsd>  (69) 
0.71

>  <rmsd>  (69) 
271.83

>  <cluster>  (69) 
3

$$$$
RCYZJXIDXHYHGN-UHFFFAOYNA-N
     RDKit          3D

 46 48  0  0  0  0  0  0  0  0999 V2000
  140.2100   73.9730  222.3430 O   0  0  0  0  0  0  0  0  0  0  0  0
  140.8510   72.9270  221.4710 S   0  0  0  0  0  0  0  0  0  0  0  0
  140.1560   72.8810  220.1370 O   0  0  0  0  0  0  0  0  0  0  0  0
  140.7230   71.3770  222.2400 N   0  0  0  0  0  0  0  0  0  0  0  0
  139.5420   70.8530  222.8630 C   0  0  0  0  0  0  0  0  0  0  0  0
  138.4710   70.3420  222.1060 C   0  0  0  0  0  0  0  0  0  0  0  0
  137.3430   69.8170  222.7420 C   0  0  0  0  0  0  0  0  0  0  0  0
  137.2710   69.7900  224.1370 C   0  0  0  0  0  0  0  0  0  0  0  0
  135.8090   69.1360  224.9480 S   0  0  0  0  0  0  0  0  0  0  0  0
  134.8990   70.7160  224.9300 C   0  0  0  0  0  0  0  0  0  0  0  0
  134.3750   70.9780  226.1810 F   0  0  0  0  0  0  0  0  0  0  0  0
  135.7350   71.7490  224.5440 F   0  0  0  0  0  0  0  0  0  0  0  0
  138.3240   70.3060  224.8990 C   0  0  0  0  0  0  0  0  0  0  0  0
  139.4560   70.8400  224.2690 C   0  0  0  0  0  0  0  0  0  0  0  0
  140.7760   71.5220  225.2810 S   0  0  0  0  0  0  0  0  0  0  0  0
  140.6560   70.2040  226.4900 C   0  0  0  0  0  0  0  0  0  0  0  0
  141.1540   68.9300  226.1900 C   0  0  0  0  0  0  0  0  0  0  0  0
  141.0650   67.9030  227.1360 C   0  0  0  0  0  0  0  0  0  0  0  0
  140.4590   68.1410  228.3740 C   0  0  0  0  0  0  0  0  0  0  0  0
  139.9520   69.4090  228.6710 C   0  0  0  0  0  0  0  0  0  0  0  0
  140.0580   70.4420  227.7350 C   0  0  0  0  0  0  0  0  0  0  0  0
  142.5360   73.3100  221.2190 N   0  0  0  0  0  0  0  0  0  0  0  0
  142.6520   74.5830  220.4750 C   0  0  0  0  0  0  0  0  0  0  0  0
  144.0880   74.8360  219.9550 C   0  0  0  0  0  0  0  0  0  0  0  0
  145.1000   73.9150  220.6440 C   0  0  0  0  0  0  0  0  0  0  0  0
  144.7200   72.4360  220.4430 C   0  0  0  0  0  0  0  0  0  0  0  0
  143.1900   72.2150  220.4840 C   0  0  0  0  0  0  0  0  0  0  0  0
  138.5223   70.3560  221.0073 H   0  0  0  0  0  0  0  0  0  0  0  0
  136.5089   69.4237  222.1423 H   0  0  0  0  0  0  0  0  0  0  0  0
  134.0751   70.6367  224.2055 H   0  0  0  0  0  0  0  0  0  0  0  0
  138.2634   70.2926  225.9972 H   0  0  0  0  0  0  0  0  0  0  0  0
  141.6153   68.7366  225.2103 H   0  0  0  0  0  0  0  0  0  0  0  0
  141.4720   66.9073  226.9059 H   0  0  0  0  0  0  0  0  0  0  0  0
  140.3815   67.3304  229.1135 H   0  0  0  0  0  0  0  0  0  0  0  0
  139.4692   69.5944  229.6419 H   0  0  0  0  0  0  0  0  0  0  0  0
  139.6714   71.4432  227.9761 H   0  0  0  0  0  0  0  0  0  0  0  0
  141.9656   74.5535  219.6159 H   0  0  0  0  0  0  0  0  0  0  0  0
  142.3981   75.3994  221.1671 H   0  0  0  0  0  0  0  0  0  0  0  0
  144.1145   74.6503  218.8711 H   0  0  0  0  0  0  0  0  0  0  0  0
  144.3593   75.8784  220.1780 H   0  0  0  0  0  0  0  0  0  0  0  0
  146.0980   74.0921  220.2165 H   0  0  0  0  0  0  0  0  0  0  0  0
  145.1001   74.1354  221.7217 H   0  0  0  0  0  0  0  0  0  0  0  0
  145.1000   72.1022  219.4662 H   0  0  0  0  0  0  0  0  0  0  0  0
  145.1668   71.8579  221.2653 H   0  0  0  0  0  0  0  0  0  0  0  0
  142.8000   72.1841  219.4559 H   0  0  0  0  0  0  0  0  0  0  0  0
  142.9790   71.2642  220.9954 H   0  0  0  0  0  0  0  0  0  0  0  0
  1  2  2  0
  2  3  2  0
  2  4  1  0
  4  5  1  0
  5  6  2  0
  6  7  1  0
  7  8  2  0
  8  9  1  0
  9 10  1  0
 10 11  1  0
 10 12  1  0
  8 13  1  0
 13 14  2  0
 14 15  1  0
 15 16  1  0
 16 17  2  0
 17 18  1  0
 18 19  2  0
 19 20  1  0
 20 21  2  0
  2 22  1  0
 22 23  1  0
 23 24  1  0
 24 25  1  0
 25 26  1  0
 26 27  1  0
 14  5  1  0
 21 16  1  0
 27 22  1  0
  6 28  1  0
  7 29  1  0
 10 30  1  0
 13 31  1  0
 17 32  1  0
 18 33  1  0
 19 34  1  0
 20 35  1  0
 21 36  1  0
 23 37  1  0
 23 38  1  0
 24 39  1  0
 24 40  1  0
 25 41  1  0
 25 42  1  0
 26 43  1  0
 26 44  1  0
 27 45  1  0
 27 46  1  0
M  CHG  1   4  -1
M  END
>  <UniqueID>  (70) 
31

>  <SMILES>  (70) 
O=S(=O)([N-]c1ccc(SC(F)F)cc1Sc1ccccc1)N1CCCCC1

>  <Energy>  (70) 
42.767263408388374

>  <Genealogy>  (70) 
O=S(=O)([N-]c1ccc(SC(F)F)cc1Sc1ccccc1)N1CCCCC1 (protonated)
O=S(=O)([N-]c1ccc(SC(F)F)cc1Sc1ccccc1)N1CCCCC1 (3D coordinates assigned)
O=S(=O)([N-]c1ccc(SC(F)F)cc1Sc1ccccc1)N1CCCCC1 (nonaromatic ring conformer: 42.767263408388374 kcal/mol)

>  <smiles>  (70) 
O=S(=O)(Nc1ccc(SC(F)F)cc1Sc1ccccc1)N1CCCCC1

>  <score_type>  (70) 
oracle

>  <origin>  (70) 
autodockgpu

>  <m_score__min__energy>  (70) 
-6.96

>  <m_primary>  (70) 
energy

>  <meeko>  (70) 
{"free_energy": -6.96, "intermolecular_energy": -9.04, "internal_energy": -1.31, "cluster_size": 3, "cluster_id": 1, "rank_in_cluster": 1}

>  <energy>  (70) 
-6.76

>  <cluster_rmsd>  (70) 
0.39

>  <rmsd>  (70) 
271.92

>  <cluster>  (70) 
3

$$$$
RCYZJXIDXHYHGN-UHFFFAOYNA-N
     RDKit          3D

 46 48  0  0  0  0  0  0  0  0999 V2000
  138.6210   71.8970  220.8960 O   0  0  0  0  0  0  0  0  0  0  0  0
  139.7810   72.1470  221.8230 S   0  0  0  0  0  0  0  0  0  0  0  0
  141.0410   71.5840  221.2240 O   0  0  0  0  0  0  0  0  0  0  0  0
  139.4770   71.3790  223.3490 N   0  0  0  0  0  0  0  0  0  0  0  0
  138.1950   70.9370  223.8170 C   0  0  0  0  0  0  0  0  0  0  0  0
  137.0220   71.6720  223.5640 C   0  0  0  0  0  0  0  0  0  0  0  0
  135.7840   71.2040  224.0130 C   0  0  0  0  0  0  0  0  0  0  0  0
  135.7000   69.9990  224.7150 C   0  0  0  0  0  0  0  0  0  0  0  0
  134.1100   69.4160  225.3100 S   0  0  0  0  0  0  0  0  0  0  0  0
  133.9120   70.7380  226.5510 C   0  0  0  0  0  0  0  0  0  0  0  0
  132.5710   70.9950  226.7640 F   0  0  0  0  0  0  0  0  0  0  0  0
  134.5170   70.3750  227.7410 F   0  0  0  0  0  0  0  0  0  0  0  0
  136.8610   69.2670  224.9830 C   0  0  0  0  0  0  0  0  0  0  0  0
  138.1070   69.7320  224.5410 C   0  0  0  0  0  0  0  0  0  0  0  0
  139.5810   68.7800  224.9310 S   0  0  0  0  0  0  0  0  0  0  0  0
  140.1620   69.9910  226.1170 C   0  0  0  0  0  0  0  0  0  0  0  0
  139.6700   69.9800  227.4290 C   0  0  0  0  0  0  0  0  0  0  0  0
  140.1280   70.9220  228.3570 C   0  0  0  0  0  0  0  0  0  0  0  0
  141.0590   71.8900  227.9710 C   0  0  0  0  0  0  0  0  0  0  0  0
  141.5430   71.9100  226.6590 C   0  0  0  0  0  0  0  0  0  0  0  0
  141.1030   70.9570  225.7360 C   0  0  0  0  0  0  0  0  0  0  0  0
  139.9890   73.8630  222.0710 N   0  0  0  0  0  0  0  0  0  0  0  0
  138.6790   74.5430  221.9620 C   0  0  0  0  0  0  0  0  0  0  0  0
  138.8190   76.0830  221.8710 C   0  0  0  0  0  0  0  0  0  0  0  0
  140.2200   76.5400  222.2870 C   0  0  0  0  0  0  0  0  0  0  0  0
  141.2980   75.8620  221.4200 C   0  0  0  0  0  0  0  0  0  0  0  0
  140.9380   74.3970  221.0810 C   0  0  0  0  0  0  0  0  0  0  0  0
  137.0798   72.6203  223.0096 H   0  0  0  0  0  0  0  0  0  0  0  0
  134.8725   71.7865  223.8130 H   0  0  0  0  0  0  0  0  0  0  0  0
  134.3953   71.6501  226.1708 H   0  0  0  0  0  0  0  0  0  0  0  0
  136.7960   68.3224  225.5430 H   0  0  0  0  0  0  0  0  0  0  0  0
  138.9232   69.2304  227.7297 H   0  0  0  0  0  0  0  0  0  0  0  0
  139.7547   70.9005  229.3915 H   0  0  0  0  0  0  0  0  0  0  0  0
  141.4110   72.6359  228.6988 H   0  0  0  0  0  0  0  0  0  0  0  0
  142.2705   72.6763  226.3532 H   0  0  0  0  0  0  0  0  0  0  0  0
  141.4961   70.9653  224.7087 H   0  0  0  0  0  0  0  0  0  0  0  0
  138.1670   74.1808  221.0583 H   0  0  0  0  0  0  0  0  0  0  0  0
  138.1043   74.3115  222.8709 H   0  0  0  0  0  0  0  0  0  0  0  0
  138.6322   76.3991  220.8341 H   0  0  0  0  0  0  0  0  0  0  0  0
  138.0878   76.5390  222.5547 H   0  0  0  0  0  0  0  0  0  0  0  0
  140.2939   77.6309  222.1662 H   0  0  0  0  0  0  0  0  0  0  0  0
  140.3847   76.2584  223.3375 H   0  0  0  0  0  0  0  0  0  0  0  0
  141.4052   76.4267  220.4821 H   0  0  0  0  0  0  0  0  0  0  0  0
  142.2372   75.8553  221.9926 H   0  0  0  0  0  0  0  0  0  0  0  0
  140.4805   74.3576  220.0814 H   0  0  0  0  0  0  0  0  0  0  0  0
  141.8548   73.7894  221.0995 H   0  0  0  0  0  0  0  0  0  0  0  0
  1  2  2  0
  2  3  2  0
  2  4  1  0
  4  5  1  0
  5  6  2  0
  6  7  1  0
  7  8  2  0
  8  9  1  0
  9 10  1  0
 10 11  1  0
 10 12  1  0
  8 13  1  0
 13 14  2  0
 14 15  1  0
 15 16  1  0
 16 17  2  0
 17 18  1  0
 18 19  2  0
 19 20  1  0
 20 21  2  0
  2 22  1  0
 22 23  1  0
 23 24  1  0
 24 25  1  0
 25 26  1  0
 26 27  1  0
 14  5  1  0
 21 16  1  0
 27 22  1  0
  6 28  1  0
  7 29  1  0
 10 30  1  0
 13 31  1  0
 17 32  1  0
 18 33  1  0
 19 34  1  0
 20 35  1  0
 21 36  1  0
 23 37  1  0
 23 38  1  0
 24 39  1  0
 24 40  1  0
 25 41  1  0
 25 42  1  0
 26 43  1  0
 26 44  1  0
 27 45  1  0
 27 46  1  0
M  CHG  1   4  -1
M  END
>  <UniqueID>  (71) 
31

>  <SMILES>  (71) 
O=S(=O)([N-]c1ccc(SC(F)F)cc1Sc1ccccc1)N1CCCCC1

>  <Energy>  (71) 
42.767263408388374

>  <Genealogy>  (71) 
O=S(=O)([N-]c1ccc(SC(F)F)cc1Sc1ccccc1)N1CCCCC1 (protonated)
O=S(=O)([N-]c1ccc(SC(F)F)cc1Sc1ccccc1)N1CCCCC1 (3D coordinates assigned)
O=S(=O)([N-]c1ccc(SC(F)F)cc1Sc1ccccc1)N1CCCCC1 (nonaromatic ring conformer: 42.767263408388374 kcal/mol)

>  <smiles>  (71) 
O=S(=O)(Nc1ccc(SC(F)F)cc1Sc1ccccc1)N1CCCCC1

>  <score_type>  (71) 
oracle

>  <origin>  (71) 
autodockgpu

>  <m_score__min__energy>  (71) 
-6.96

>  <m_primary>  (71) 
energy

>  <meeko>  (71) 
{"free_energy": -6.84, "intermolecular_energy": -8.93, "internal_energy": -1.46, "cluster_size": 3, "cluster_id": 2, "rank_in_cluster": 2}

>  <energy>  (71) 
-6.76

>  <cluster_rmsd>  (71) 
0.42

>  <rmsd>  (71) 
271.9

>  <cluster>  (71) 
3

$$$$
RCYZJXIDXHYHGN-UHFFFAOYNA-N
     RDKit          3D

 46 48  0  0  0  0  0  0  0  0999 V2000
  134.3140   67.1800  226.2080 O   0  0  0  0  0  0  0  0  0  0  0  0
  134.4500   68.4280  225.3780 S   0  0  0  0  0  0  0  0  0  0  0  0
  133.9770   68.1590  223.9750 O   0  0  0  0  0  0  0  0  0  0  0  0
  136.1140   68.9170  225.3390 N   0  0  0  0  0  0  0  0  0  0  0  0
  136.6660   69.9250  224.4780 C   0  0  0  0  0  0  0  0  0  0  0  0
  135.8490   70.8730  223.8340 C   0  0  0  0  0  0  0  0  0  0  0  0
  136.4170   71.8570  223.0200 C   0  0  0  0  0  0  0  0  0  0  0  0
  137.8020   71.9100  222.8430 C   0  0  0  0  0  0  0  0  0  0  0  0
  138.5230   73.1620  221.7770 S   0  0  0  0  0  0  0  0  0  0  0  0
  140.2020   72.4510  221.8130 C   0  0  0  0  0  0  0  0  0  0  0  0
  140.7150   72.5050  223.0940 F   0  0  0  0  0  0  0  0  0  0  0  0
  140.1800   71.1400  221.3690 F   0  0  0  0  0  0  0  0  0  0  0  0
  138.6210   70.9650  223.4680 C   0  0  0  0  0  0  0  0  0  0  0  0
  138.0590   69.9720  224.2810 C   0  0  0  0  0  0  0  0  0  0  0  0
  139.1410   68.7560  225.0450 S   0  0  0  0  0  0  0  0  0  0  0  0
  139.9000   69.9710  226.1230 C   0  0  0  0  0  0  0  0  0  0  0  0
  140.8320   70.8800  225.6060 C   0  0  0  0  0  0  0  0  0  0  0  0
  141.4200   71.8320  226.4470 C   0  0  0  0  0  0  0  0  0  0  0  0
  141.0960   71.8620  227.8060 C   0  0  0  0  0  0  0  0  0  0  0  0
  140.1740   70.9480  228.3260 C   0  0  0  0  0  0  0  0  0  0  0  0
  139.5700   70.0090  227.4850 C   0  0  0  0  0  0  0  0  0  0  0  0
  133.4870   69.7110  226.0650 N   0  0  0  0  0  0  0  0  0  0  0  0
  132.7510   70.4110  224.9890 C   0  0  0  0  0  0  0  0  0  0  0  0
  132.1150   71.7380  225.4730 C   0  0  0  0  0  0  0  0  0  0  0  0
  132.0830   71.8140  227.0030 C   0  0  0  0  0  0  0  0  0  0  0  0
  133.5000   71.6630  227.5890 C   0  0  0  0  0  0  0  0  0  0  0  0
  134.3550   70.6470  226.7970 C   0  0  0  0  0  0  0  0  0  0  0  0
  134.7582   70.8393  223.9720 H   0  0  0  0  0  0  0  0  0  0  0  0
  135.7716   72.5921  222.5170 H   0  0  0  0  0  0  0  0  0  0  0  0
  140.8457   73.0412  221.1442 H   0  0  0  0  0  0  0  0  0  0  0  0
  139.7105   71.0012  223.3209 H   0  0  0  0  0  0  0  0  0  0  0  0
  141.1016   70.8457  224.5401 H   0  0  0  0  0  0  0  0  0  0  0  0
  142.1382   72.5576  226.0375 H   0  0  0  0  0  0  0  0  0  0  0  0
  141.5663   72.6048  228.4670 H   0  0  0  0  0  0  0  0  0  0  0  0
  139.9241   70.9681  229.3970 H   0  0  0  0  0  0  0  0  0  0  0  0
  138.8350   69.2991  227.8923 H   0  0  0  0  0  0  0  0  0  0  0  0
  133.4505   70.6331  224.1696 H   0  0  0  0  0  0  0  0  0  0  0  0
  131.9362   69.7510  224.6567 H   0  0  0  0  0  0  0  0  0  0  0  0
  132.7053   72.5810  225.0846 H   0  0  0  0  0  0  0  0  0  0  0  0
  131.0807   71.7834  225.1012 H   0  0  0  0  0  0  0  0  0  0  0  0
  131.6690   72.7867  227.3070 H   0  0  0  0  0  0  0  0  0  0  0  0
  131.4554   70.9945  227.3833 H   0  0  0  0  0  0  0  0  0  0  0  0
  134.0000   72.6425  227.5636 H   0  0  0  0  0  0  0  0  0  0  0  0
  133.4012   71.2903  228.6192 H   0  0  0  0  0  0  0  0  0  0  0  0
  134.9909   71.1880  226.0808 H   0  0  0  0  0  0  0  0  0  0  0  0
  134.9804   70.0791  227.5015 H   0  0  0  0  0  0  0  0  0  0  0  0
  1  2  2  0
  2  3  2  0
  2  4  1  0
  4  5  1  0
  5  6  2  0
  6  7  1  0
  7  8  2  0
  8  9  1  0
  9 10  1  0
 10 11  1  0
 10 12  1  0
  8 13  1  0
 13 14  2  0
 14 15  1  0
 15 16  1  0
 16 17  2  0
 17 18  1  0
 18 19  2  0
 19 20  1  0
 20 21  2  0
  2 22  1  0
 22 23  1  0
 23 24  1  0
 24 25  1  0
 25 26  1  0
 26 27  1  0
 14  5  1  0
 21 16  1  0
 27 22  1  0
  6 28  1  0
  7 29  1  0
 10 30  1  0
 13 31  1  0
 17 32  1  0
 18 33  1  0
 19 34  1  0
 20 35  1  0
 21 36  1  0
 23 37  1  0
 23 38  1  0
 24 39  1  0
 24 40  1  0
 25 41  1  0
 25 42  1  0
 26 43  1  0
 26 44  1  0
 27 45  1  0
 27 46  1  0
M  CHG  1   4  -1
M  END
>  <UniqueID>  (72) 
31

>  <SMILES>  (72) 
O=S(=O)([N-]c1ccc(SC(F)F)cc1Sc1ccccc1)N1CCCCC1

>  <Energy>  (72) 
42.767263408388374

>  <Genealogy>  (72) 
O=S(=O)([N-]c1ccc(SC(F)F)cc1Sc1ccccc1)N1CCCCC1 (protonated)
O=S(=O)([N-]c1ccc(SC(F)F)cc1Sc1ccccc1)N1CCCCC1 (3D coordinates assigned)
O=S(=O)([N-]c1ccc(SC(F)F)cc1Sc1ccccc1)N1CCCCC1 (nonaromatic ring conformer: 42.767263408388374 kcal/mol)

>  <smiles>  (72) 
O=S(=O)(Nc1ccc(SC(F)F)cc1Sc1ccccc1)N1CCCCC1

>  <score_type>  (72) 
oracle

>  <origin>  (72) 
autodockgpu

>  <m_score__min__energy>  (72) 
-6.96

>  <m_primary>  (72) 
energy

>  <meeko>  (72) 
{"free_energy": -6.81, "intermolecular_energy": -8.9, "internal_energy": -1.41, "cluster_size": 7, "cluster_id": 3, "rank_in_cluster": 1}

>  <energy>  (72) 
-6.74

>  <cluster_rmsd>  (72) 
0.38

>  <rmsd>  (72) 
271.92

>  <cluster>  (72) 
3

$$$$
RCYZJXIDXHYHGN-UHFFFAOYNA-N
     RDKit          3D

 46 48  0  0  0  0  0  0  0  0999 V2000
  134.3500   67.3650  226.1610 O   0  0  0  0  0  0  0  0  0  0  0  0
  134.6530   68.5170  225.2410 S   0  0  0  0  0  0  0  0  0  0  0  0
  134.3070   68.1410  223.8250 O   0  0  0  0  0  0  0  0  0  0  0  0
  136.3410   68.9040  225.3370 N   0  0  0  0  0  0  0  0  0  0  0  0
  137.1360   69.4310  224.2650 C   0  0  0  0  0  0  0  0  0  0  0  0
  136.5660   70.1930  223.2280 C   0  0  0  0  0  0  0  0  0  0  0  0
  137.3700   70.7120  222.2090 C   0  0  0  0  0  0  0  0  0  0  0  0
  138.7480   70.4840  222.2150 C   0  0  0  0  0  0  0  0  0  0  0  0
  139.7710   71.1340  220.8910 S   0  0  0  0  0  0  0  0  0  0  0  0
  140.8110   72.1590  221.9840 C   0  0  0  0  0  0  0  0  0  0  0  0
  142.0120   72.4490  221.3650 F   0  0  0  0  0  0  0  0  0  0  0  0
  140.1550   73.3330  222.3100 F   0  0  0  0  0  0  0  0  0  0  0  0
  139.3220   69.7180  223.2340 C   0  0  0  0  0  0  0  0  0  0  0  0
  138.5230   69.1890  224.2560 C   0  0  0  0  0  0  0  0  0  0  0  0
  139.2930   68.1840  225.5320 S   0  0  0  0  0  0  0  0  0  0  0  0
  139.9700   69.6120  226.3790 C   0  0  0  0  0  0  0  0  0  0  0  0
  139.5750   69.9000  227.6920 C   0  0  0  0  0  0  0  0  0  0  0  0
  140.1080   71.0110  228.3550 C   0  0  0  0  0  0  0  0  0  0  0  0
  141.0160   71.8490  227.7000 C   0  0  0  0  0  0  0  0  0  0  0  0
  141.4020   71.5690  226.3850 C   0  0  0  0  0  0  0  0  0  0  0  0
  140.8880   70.4480  225.7280 C   0  0  0  0  0  0  0  0  0  0  0  0
  133.7120   69.9130  225.7030 N   0  0  0  0  0  0  0  0  0  0  0  0
  133.6350   70.8590  224.5670 C   0  0  0  0  0  0  0  0  0  0  0  0
  133.0800   72.2420  224.9860 C   0  0  0  0  0  0  0  0  0  0  0  0
  132.4080   72.1790  226.3610 C   0  0  0  0  0  0  0  0  0  0  0  0
  133.3900   71.6610  227.4280 C   0  0  0  0  0  0  0  0  0  0  0  0
  134.3220   70.5570  226.8770 C   0  0  0  0  0  0  0  0  0  0  0  0
  135.4822   70.3811  223.2193 H   0  0  0  0  0  0  0  0  0  0  0  0
  136.9157   71.3021  221.3994 H   0  0  0  0  0  0  0  0  0  0  0  0
  141.0102   71.5946  222.9069 H   0  0  0  0  0  0  0  0  0  0  0  0
  140.4058   69.5298  223.2333 H   0  0  0  0  0  0  0  0  0  0  0  0
  138.8460   69.2528  228.2016 H   0  0  0  0  0  0  0  0  0  0  0  0
  139.8125   71.2255  229.3926 H   0  0  0  0  0  0  0  0  0  0  0  0
  141.4265   72.7279  228.2187 H   0  0  0  0  0  0  0  0  0  0  0  0
  142.1109   72.2320  225.8675 H   0  0  0  0  0  0  0  0  0  0  0  0
  141.2040   70.2213  224.6990 H   0  0  0  0  0  0  0  0  0  0  0  0
  134.6444   70.9948  224.1516 H   0  0  0  0  0  0  0  0  0  0  0  0
  132.9461   70.4332  223.8226 H   0  0  0  0  0  0  0  0  0  0  0  0
  133.9091   72.9639  225.0252 H   0  0  0  0  0  0  0  0  0  0  0  0
  132.3278   72.5528  224.2460 H   0  0  0  0  0  0  0  0  0  0  0  0
  132.0684   73.1867  226.6426 H   0  0  0  0  0  0  0  0  0  0  0  0
  131.5538   71.4883  226.3039 H   0  0  0  0  0  0  0  0  0  0  0  0
  134.0061   72.5015  227.7803 H   0  0  0  0  0  0  0  0  0  0  0  0
  132.7994   71.2263  228.2479 H   0  0  0  0  0  0  0  0  0  0  0  0
  135.2835   71.0054  226.5863 H   0  0  0  0  0  0  0  0  0  0  0  0
  134.4807   69.7995  227.6587 H   0  0  0  0  0  0  0  0  0  0  0  0
  1  2  2  0
  2  3  2  0
  2  4  1  0
  4  5  1  0
  5  6  2  0
  6  7  1  0
  7  8  2  0
  8  9  1  0
  9 10  1  0
 10 11  1  0
 10 12  1  0
  8 13  1  0
 13 14  2  0
 14 15  1  0
 15 16  1  0
 16 17  2  0
 17 18  1  0
 18 19  2  0
 19 20  1  0
 20 21  2  0
  2 22  1  0
 22 23  1  0
 23 24  1  0
 24 25  1  0
 25 26  1  0
 26 27  1  0
 14  5  1  0
 21 16  1  0
 27 22  1  0
  6 28  1  0
  7 29  1  0
 10 30  1  0
 13 31  1  0
 17 32  1  0
 18 33  1  0
 19 34  1  0
 20 35  1  0
 21 36  1  0
 23 37  1  0
 23 38  1  0
 24 39  1  0
 24 40  1  0
 25 41  1  0
 25 42  1  0
 26 43  1  0
 26 44  1  0
 27 45  1  0
 27 46  1  0
M  CHG  1   4  -1
M  END
>  <UniqueID>  (73) 
31

>  <SMILES>  (73) 
O=S(=O)([N-]c1ccc(SC(F)F)cc1Sc1ccccc1)N1CCCCC1

>  <Energy>  (73) 
42.767263408388374

>  <Genealogy>  (73) 
O=S(=O)([N-]c1ccc(SC(F)F)cc1Sc1ccccc1)N1CCCCC1 (protonated)
O=S(=O)([N-]c1ccc(SC(F)F)cc1Sc1ccccc1)N1CCCCC1 (3D coordinates assigned)
O=S(=O)([N-]c1ccc(SC(F)F)cc1Sc1ccccc1)N1CCCCC1 (nonaromatic ring conformer: 42.767263408388374 kcal/mol)

>  <smiles>  (73) 
O=S(=O)(Nc1ccc(SC(F)F)cc1Sc1ccccc1)N1CCCCC1

>  <score_type>  (73) 
oracle

>  <origin>  (73) 
autodockgpu

>  <m_score__min__energy>  (73) 
-6.96

>  <m_primary>  (73) 
energy

>  <meeko>  (73) 
{"free_energy": -6.65, "intermolecular_energy": -8.74, "internal_energy": -1.47, "cluster_size": 7, "cluster_id": 3, "rank_in_cluster": 7}

>  <energy>  (73) 
-6.65

>  <cluster_rmsd>  (73) 
1.0

>  <rmsd>  (73) 
271.92

>  <cluster>  (73) 
3

$$$$
RCYZJXIDXHYHGN-UHFFFAOYNA-N
     RDKit          3D

 46 48  0  0  0  0  0  0  0  0999 V2000
  140.1950   74.8890  219.5710 O   0  0  0  0  0  0  0  0  0  0  0  0
  140.5180   74.0130  220.7520 S   0  0  0  0  0  0  0  0  0  0  0  0
  139.8300   72.6830  220.6010 O   0  0  0  0  0  0  0  0  0  0  0  0
  139.9720   74.7810  222.2080 N   0  0  0  0  0  0  0  0  0  0  0  0
  139.1590   75.9620  222.2710 C   0  0  0  0  0  0  0  0  0  0  0  0
  137.8260   75.9180  222.7210 C   0  0  0  0  0  0  0  0  0  0  0  0
  137.0660   77.0890  222.7940 C   0  0  0  0  0  0  0  0  0  0  0  0
  137.6250   78.3150  222.4240 C   0  0  0  0  0  0  0  0  0  0  0  0
  136.6350   79.8110  222.4960 S   0  0  0  0  0  0  0  0  0  0  0  0
  137.8730   80.7730  223.4280 C   0  0  0  0  0  0  0  0  0  0  0  0
  138.5000   79.9690  224.3610 F   0  0  0  0  0  0  0  0  0  0  0  0
  138.8120   81.3120  222.5660 F   0  0  0  0  0  0  0  0  0  0  0  0
  138.9440   78.3670  221.9630 C   0  0  0  0  0  0  0  0  0  0  0  0
  139.7110   77.1980  221.8820 C   0  0  0  0  0  0  0  0  0  0  0  0
  141.3930   77.3000  221.2560 S   0  0  0  0  0  0  0  0  0  0  0  0
  141.7170   78.8410  222.1130 C   0  0  0  0  0  0  0  0  0  0  0  0
  141.9360   78.8410  223.4970 C   0  0  0  0  0  0  0  0  0  0  0  0
  142.1950   80.0440  224.1640 C   0  0  0  0  0  0  0  0  0  0  0  0
  142.2120   81.2490  223.4560 C   0  0  0  0  0  0  0  0  0  0  0  0
  141.9820   81.2520  222.0760 C   0  0  0  0  0  0  0  0  0  0  0  0
  141.7440   80.0500  221.4040 C   0  0  0  0  0  0  0  0  0  0  0  0
  142.2420   73.7520  220.8480 N   0  0  0  0  0  0  0  0  0  0  0  0
  142.9490   74.8100  220.0930 C   0  0  0  0  0  0  0  0  0  0  0  0
  144.4470   74.4840  219.8800 C   0  0  0  0  0  0  0  0  0  0  0  0
  144.9080   73.3550  220.8070 C   0  0  0  0  0  0  0  0  0  0  0  0
  144.0580   72.0880  220.5930 C   0  0  0  0  0  0  0  0  0  0  0  0
  142.5740   72.4210  220.3170 C   0  0  0  0  0  0  0  0  0  0  0  0
  137.3799   74.9570  223.0168 H   0  0  0  0  0  0  0  0  0  0  0  0
  136.0241   77.0451  223.1440 H   0  0  0  0  0  0  0  0  0  0  0  0
  137.3569   81.5922  223.9501 H   0  0  0  0  0  0  0  0  0  0  0  0
  139.3813   79.3306  221.6625 H   0  0  0  0  0  0  0  0  0  0  0  0
  141.9044   77.8960  224.0591 H   0  0  0  0  0  0  0  0  0  0  0  0
  142.3855   80.0411  225.2474 H   0  0  0  0  0  0  0  0  0  0  0  0
  142.4061   82.1945  223.9836 H   0  0  0  0  0  0  0  0  0  0  0  0
  141.9885   82.2009  221.5197 H   0  0  0  0  0  0  0  0  0  0  0  0
  141.5776   80.0526  220.3167 H   0  0  0  0  0  0  0  0  0  0  0  0
  142.4690   74.9228  219.1097 H   0  0  0  0  0  0  0  0  0  0  0  0
  142.8886   75.7379  220.6806 H   0  0  0  0  0  0  0  0  0  0  0  0
  144.6017   74.1757  218.8355 H   0  0  0  0  0  0  0  0  0  0  0  0
  145.0347   75.3847  220.1109 H   0  0  0  0  0  0  0  0  0  0  0  0
  145.9619   73.1220  220.5947 H   0  0  0  0  0  0  0  0  0  0  0  0
  144.7907   73.6856  221.8496 H   0  0  0  0  0  0  0  0  0  0  0  0
  144.4618   71.5312  219.7346 H   0  0  0  0  0  0  0  0  0  0  0  0
  144.1044   71.4902  221.5152 H   0  0  0  0  0  0  0  0  0  0  0  0
  142.3951   72.4083  219.2317 H   0  0  0  0  0  0  0  0  0  0  0  0
  141.9408   71.6701  220.8122 H   0  0  0  0  0  0  0  0  0  0  0  0
  1  2  2  0
  2  3  2  0
  2  4  1  0
  4  5  1  0
  5  6  2  0
  6  7  1  0
  7  8  2  0
  8  9  1  0
  9 10  1  0
 10 11  1  0
 10 12  1  0
  8 13  1  0
 13 14  2  0
 14 15  1  0
 15 16  1  0
 16 17  2  0
 17 18  1  0
 18 19  2  0
 19 20  1  0
 20 21  2  0
  2 22  1  0
 22 23  1  0
 23 24  1  0
 24 25  1  0
 25 26  1  0
 26 27  1  0
 14  5  1  0
 21 16  1  0
 27 22  1  0
  6 28  1  0
  7 29  1  0
 10 30  1  0
 13 31  1  0
 17 32  1  0
 18 33  1  0
 19 34  1  0
 20 35  1  0
 21 36  1  0
 23 37  1  0
 23 38  1  0
 24 39  1  0
 24 40  1  0
 25 41  1  0
 25 42  1  0
 26 43  1  0
 26 44  1  0
 27 45  1  0
 27 46  1  0
M  CHG  1   4  -1
M  END
>  <UniqueID>  (74) 
31

>  <SMILES>  (74) 
O=S(=O)([N-]c1ccc(SC(F)F)cc1Sc1ccccc1)N1CCCCC1

>  <Energy>  (74) 
42.767263408388374

>  <Genealogy>  (74) 
O=S(=O)([N-]c1ccc(SC(F)F)cc1Sc1ccccc1)N1CCCCC1 (protonated)
O=S(=O)([N-]c1ccc(SC(F)F)cc1Sc1ccccc1)N1CCCCC1 (3D coordinates assigned)
O=S(=O)([N-]c1ccc(SC(F)F)cc1Sc1ccccc1)N1CCCCC1 (nonaromatic ring conformer: 42.767263408388374 kcal/mol)

>  <smiles>  (74) 
O=S(=O)(Nc1ccc(SC(F)F)cc1Sc1ccccc1)N1CCCCC1

>  <score_type>  (74) 
oracle

>  <origin>  (74) 
autodockgpu

>  <m_score__min__energy>  (74) 
-6.96

>  <m_primary>  (74) 
energy

>  <meeko>  (74) 
{"free_energy": -5.93, "intermolecular_energy": -8.02, "internal_energy": -1.75, "cluster_size": 5, "cluster_id": 4, "rank_in_cluster": 3}

>  <energy>  (74) 
-6.16

>  <cluster_rmsd>  (74) 
0.0

>  <rmsd>  (74) 
273.13

>  <cluster>  (74) 
4

$$$$
RCYZJXIDXHYHGN-UHFFFAOYNA-N
     RDKit          3D

 46 48  0  0  0  0  0  0  0  0999 V2000
  140.5260   82.6880  221.5650 O   0  0  0  0  0  0  0  0  0  0  0  0
  139.7800   81.8360  220.5750 S   0  0  0  0  0  0  0  0  0  0  0  0
  139.4600   82.6440  219.3470 O   0  0  0  0  0  0  0  0  0  0  0  0
  138.3040   81.2740  221.2930 N   0  0  0  0  0  0  0  0  0  0  0  0
  137.9170   81.4680  222.6610 C   0  0  0  0  0  0  0  0  0  0  0  0
  137.3290   82.6690  223.0990 C   0  0  0  0  0  0  0  0  0  0  0  0
  136.9420   82.8210  224.4340 C   0  0  0  0  0  0  0  0  0  0  0  0
  137.1320   81.7780  225.3440 C   0  0  0  0  0  0  0  0  0  0  0  0
  136.6540   81.9880  227.0620 S   0  0  0  0  0  0  0  0  0  0  0  0
  134.9740   81.3130  226.8420 C   0  0  0  0  0  0  0  0  0  0  0  0
  134.0500   82.3380  226.7960 F   0  0  0  0  0  0  0  0  0  0  0  0
  134.9050   80.5640  225.6800 F   0  0  0  0  0  0  0  0  0  0  0  0
  137.7270   80.5860  224.9220 C   0  0  0  0  0  0  0  0  0  0  0  0
  138.1230   80.4270  223.5880 C   0  0  0  0  0  0  0  0  0  0  0  0
  138.9130   78.8910  223.0890 S   0  0  0  0  0  0  0  0  0  0  0  0
  140.5600   79.5830  223.2340 C   0  0  0  0  0  0  0  0  0  0  0  0
  141.6640   78.8730  222.7440 C   0  0  0  0  0  0  0  0  0  0  0  0
  142.9490   79.4160  222.8520 C   0  0  0  0  0  0  0  0  0  0  0  0
  143.1370   80.6550  223.4700 C   0  0  0  0  0  0  0  0  0  0  0  0
  142.0370   81.3600  223.9710 C   0  0  0  0  0  0  0  0  0  0  0  0
  140.7500   80.8300  223.8450 C   0  0  0  0  0  0  0  0  0  0  0  0
  140.7560   80.4640  220.1120 N   0  0  0  0  0  0  0  0  0  0  0  0
  141.6900   80.8590  219.0350 C   0  0  0  0  0  0  0  0  0  0  0  0
  142.3740   79.6400  218.3680 C   0  0  0  0  0  0  0  0  0  0  0  0
  142.2070   78.3760  219.2170 C   0  0  0  0  0  0  0  0  0  0  0  0
  140.7170   78.0740  219.4650 C   0  0  0  0  0  0  0  0  0  0  0  0
  139.8870   79.3620  219.6710 C   0  0  0  0  0  0  0  0  0  0  0  0
  137.1729   83.4929  222.3871 H   0  0  0  0  0  0  0  0  0  0  0  0
  136.4866   83.7646  224.7688 H   0  0  0  0  0  0  0  0  0  0  0  0
  134.7439   80.6624  227.6986 H   0  0  0  0  0  0  0  0  0  0  0  0
  137.8851   79.7687  225.6410 H   0  0  0  0  0  0  0  0  0  0  0  0
  141.5205   77.8887  222.2744 H   0  0  0  0  0  0  0  0  0  0  0  0
  143.8128   78.8665  222.4497 H   0  0  0  0  0  0  0  0  0  0  0  0
  144.1490   81.0759  223.5626 H   0  0  0  0  0  0  0  0  0  0  0  0
  142.1854   82.3319  224.4643 H   0  0  0  0  0  0  0  0  0  0  0  0
  139.8848   81.3924  224.2260 H   0  0  0  0  0  0  0  0  0  0  0  0
  141.1297   81.4130  218.2675 H   0  0  0  0  0  0  0  0  0  0  0  0
  142.4782   81.4795  219.4864 H   0  0  0  0  0  0  0  0  0  0  0  0
  141.9208   79.4708  217.3801 H   0  0  0  0  0  0  0  0  0  0  0  0
  143.4486   79.8543  218.2711 H   0  0  0  0  0  0  0  0  0  0  0  0
  142.6642   77.5253  218.6904 H   0  0  0  0  0  0  0  0  0  0  0  0
  142.6996   78.5365  220.1874 H   0  0  0  0  0  0  0  0  0  0  0  0
  140.3166   77.5295  218.5972 H   0  0  0  0  0  0  0  0  0  0  0  0
  140.6423   77.4733  220.3835 H   0  0  0  0  0  0  0  0  0  0  0  0
  139.4040   79.6382  218.7221 H   0  0  0  0  0  0  0  0  0  0  0  0
  139.1245   79.1770  220.4420 H   0  0  0  0  0  0  0  0  0  0  0  0
  1  2  2  0
  2  3  2  0
  2  4  1  0
  4  5  1  0
  5  6  2  0
  6  7  1  0
  7  8  2  0
  8  9  1  0
  9 10  1  0
 10 11  1  0
 10 12  1  0
  8 13  1  0
 13 14  2  0
 14 15  1  0
 15 16  1  0
 16 17  2  0
 17 18  1  0
 18 19  2  0
 19 20  1  0
 20 21  2  0
  2 22  1  0
 22 23  1  0
 23 24  1  0
 24 25  1  0
 25 26  1  0
 26 27  1  0
 14  5  1  0
 21 16  1  0
 27 22  1  0
  6 28  1  0
  7 29  1  0
 10 30  1  0
 13 31  1  0
 17 32  1  0
 18 33  1  0
 19 34  1  0
 20 35  1  0
 21 36  1  0
 23 37  1  0
 23 38  1  0
 24 39  1  0
 24 40  1  0
 25 41  1  0
 25 42  1  0
 26 43  1  0
 26 44  1  0
 27 45  1  0
 27 46  1  0
M  CHG  1   4  -1
M  END
>  <UniqueID>  (75) 
31

>  <SMILES>  (75) 
O=S(=O)([N-]c1ccc(SC(F)F)cc1Sc1ccccc1)N1CCCCC1

>  <Energy>  (75) 
42.767263408388374

>  <Genealogy>  (75) 
O=S(=O)([N-]c1ccc(SC(F)F)cc1Sc1ccccc1)N1CCCCC1 (protonated)
O=S(=O)([N-]c1ccc(SC(F)F)cc1Sc1ccccc1)N1CCCCC1 (3D coordinates assigned)
O=S(=O)([N-]c1ccc(SC(F)F)cc1Sc1ccccc1)N1CCCCC1 (nonaromatic ring conformer: 42.767263408388374 kcal/mol)

>  <smiles>  (75) 
O=S(=O)(Nc1ccc(SC(F)F)cc1Sc1ccccc1)N1CCCCC1

>  <score_type>  (75) 
oracle

>  <origin>  (75) 
autodockgpu

>  <m_score__min__energy>  (75) 
-6.96

>  <m_primary>  (75) 
energy

>  <meeko>  (75) 
{"free_energy": -5.18, "intermolecular_energy": -7.27, "internal_energy": -2.38, "cluster_size": 1, "cluster_id": 6, "rank_in_cluster": 1}

>  <energy>  (75) 
-6.07

>  <cluster_rmsd>  (75) 
0.33

>  <rmsd>  (75) 
273.02

>  <cluster>  (75) 
4

$$$$
RCYZJXIDXHYHGN-UHFFFAOYNA-N
     RDKit          3D

 46 48  0  0  0  0  0  0  0  0999 V2000
  140.1920   72.9000  219.9880 O   0  0  0  0  0  0  0  0  0  0  0  0
  140.8840   73.8150  220.9630 S   0  0  0  0  0  0  0  0  0  0  0  0
  140.3400   73.5880  222.3470 O   0  0  0  0  0  0  0  0  0  0  0  0
  140.6110   75.4640  220.5020 N   0  0  0  0  0  0  0  0  0  0  0  0
  139.7660   76.3940  221.1960 C   0  0  0  0  0  0  0  0  0  0  0  0
  138.5030   76.0180  221.6890 C   0  0  0  0  0  0  0  0  0  0  0  0
  137.7120   76.9390  222.3810 C   0  0  0  0  0  0  0  0  0  0  0  0
  138.1710   78.2410  222.5940 C   0  0  0  0  0  0  0  0  0  0  0  0
  137.1400   79.4260  223.4630 S   0  0  0  0  0  0  0  0  0  0  0  0
  138.5060   80.5730  223.8450 C   0  0  0  0  0  0  0  0  0  0  0  0
  138.6830   81.4660  222.8070 F   0  0  0  0  0  0  0  0  0  0  0  0
  138.2430   81.2600  225.0180 F   0  0  0  0  0  0  0  0  0  0  0  0
  139.4190   78.6280  222.0970 C   0  0  0  0  0  0  0  0  0  0  0  0
  140.2160   77.7130  221.3970 C   0  0  0  0  0  0  0  0  0  0  0  0
  141.8020   78.2560  220.7470 S   0  0  0  0  0  0  0  0  0  0  0  0
  141.9550   79.5670  221.9600 C   0  0  0  0  0  0  0  0  0  0  0  0
  141.6110   80.8810  221.6180 C   0  0  0  0  0  0  0  0  0  0  0  0
  141.7240   81.9040  222.5670 C   0  0  0  0  0  0  0  0  0  0  0  0
  142.2040   81.6190  223.8490 C   0  0  0  0  0  0  0  0  0  0  0  0
  142.5590   80.3100  224.1890 C   0  0  0  0  0  0  0  0  0  0  0  0
  142.4270   79.2840  223.2490 C   0  0  0  0  0  0  0  0  0  0  0  0
  142.6000   73.4930  220.9680 N   0  0  0  0  0  0  0  0  0  0  0  0
  143.3310   74.6830  220.4790 C   0  0  0  0  0  0  0  0  0  0  0  0
  144.8180   74.3790  220.1710 C   0  0  0  0  0  0  0  0  0  0  0  0
  145.2540   73.0490  220.7930 C   0  0  0  0  0  0  0  0  0  0  0  0
  144.3660   71.8930  220.2930 C   0  0  0  0  0  0  0  0  0  0  0  0
  142.8890   72.3210  220.1270 C   0  0  0  0  0  0  0  0  0  0  0  0
  138.1362   74.9934  221.5288 H   0  0  0  0  0  0  0  0  0  0  0  0
  136.7241   76.6375  222.7594 H   0  0  0  0  0  0  0  0  0  0  0  0
  139.4284   79.9879  223.9748 H   0  0  0  0  0  0  0  0  0  0  0  0
  139.7769   79.6559  222.2563 H   0  0  0  0  0  0  0  0  0  0  0  0
  141.2520   81.1092  220.6036 H   0  0  0  0  0  0  0  0  0  0  0  0
  141.4351   82.9323  222.3041 H   0  0  0  0  0  0  0  0  0  0  0  0
  142.3024   82.4253  224.5907 H   0  0  0  0  0  0  0  0  0  0  0  0
  142.9421   80.0877  225.1959 H   0  0  0  0  0  0  0  0  0  0  0  0
  142.6941   78.2523  223.5214 H   0  0  0  0  0  0  0  0  0  0  0  0
  142.8462   75.0417  219.5591 H   0  0  0  0  0  0  0  0  0  0  0  0
  143.3024   75.4433  221.2735 H   0  0  0  0  0  0  0  0  0  0  0  0
  144.9548   74.3267  219.0808 H   0  0  0  0  0  0  0  0  0  0  0  0
  145.4334   75.1824  220.6021 H   0  0  0  0  0  0  0  0  0  0  0  0
  146.2991   72.8468  220.5157 H   0  0  0  0  0  0  0  0  0  0  0  0
  145.1548   73.1220  221.8861 H   0  0  0  0  0  0  0  0  0  0  0  0
  144.7467   71.5491  219.3200 H   0  0  0  0  0  0  0  0  0  0  0  0
  144.4027   71.0898  221.0437 H   0  0  0  0  0  0  0  0  0  0  0  0
  142.7009   72.5750  219.0734 H   0  0  0  0  0  0  0  0  0  0  0  0
  142.2384   71.4895  220.4358 H   0  0  0  0  0  0  0  0  0  0  0  0
  1  2  2  0
  2  3  2  0
  2  4  1  0
  4  5  1  0
  5  6  2  0
  6  7  1  0
  7  8  2  0
  8  9  1  0
  9 10  1  0
 10 11  1  0
 10 12  1  0
  8 13  1  0
 13 14  2  0
 14 15  1  0
 15 16  1  0
 16 17  2  0
 17 18  1  0
 18 19  2  0
 19 20  1  0
 20 21  2  0
  2 22  1  0
 22 23  1  0
 23 24  1  0
 24 25  1  0
 25 26  1  0
 26 27  1  0
 14  5  1  0
 21 16  1  0
 27 22  1  0
  6 28  1  0
  7 29  1  0
 10 30  1  0
 13 31  1  0
 17 32  1  0
 18 33  1  0
 19 34  1  0
 20 35  1  0
 21 36  1  0
 23 37  1  0
 23 38  1  0
 24 39  1  0
 24 40  1  0
 25 41  1  0
 25 42  1  0
 26 43  1  0
 26 44  1  0
 27 45  1  0
 27 46  1  0
M  CHG  1   4  -1
M  END
>  <UniqueID>  (76) 
31

>  <SMILES>  (76) 
O=S(=O)([N-]c1ccc(SC(F)F)cc1Sc1ccccc1)N1CCCCC1

>  <Energy>  (76) 
42.767263408388374

>  <Genealogy>  (76) 
O=S(=O)([N-]c1ccc(SC(F)F)cc1Sc1ccccc1)N1CCCCC1 (protonated)
O=S(=O)([N-]c1ccc(SC(F)F)cc1Sc1ccccc1)N1CCCCC1 (3D coordinates assigned)
O=S(=O)([N-]c1ccc(SC(F)F)cc1Sc1ccccc1)N1CCCCC1 (nonaromatic ring conformer: 42.767263408388374 kcal/mol)

>  <smiles>  (76) 
O=S(=O)(Nc1ccc(SC(F)F)cc1Sc1ccccc1)N1CCCCC1

>  <score_type>  (76) 
oracle

>  <origin>  (76) 
autodockgpu

>  <m_score__min__energy>  (76) 
-6.96

>  <m_primary>  (76) 
energy

>  <meeko>  (76) 
{"free_energy": -6.16, "intermolecular_energy": -8.25, "internal_energy": -1.59, "cluster_size": 5, "cluster_id": 4, "rank_in_cluster": 1}

>  <energy>  (76) 
-5.93

>  <cluster_rmsd>  (76) 
0.91

>  <rmsd>  (76) 
272.89

>  <cluster>  (76) 
4

$$$$
RCYZJXIDXHYHGN-UHFFFAOYNA-N
     RDKit          3D

 46 48  0  0  0  0  0  0  0  0999 V2000
  134.2380   67.1810  226.2700 O   0  0  0  0  0  0  0  0  0  0  0  0
  134.3730   68.4070  225.4070 S   0  0  0  0  0  0  0  0  0  0  0  0
  133.8720   68.1100  224.0200 O   0  0  0  0  0  0  0  0  0  0  0  0
  136.0410   68.8770  225.3280 N   0  0  0  0  0  0  0  0  0  0  0  0
  136.5800   69.8880  224.4640 C   0  0  0  0  0  0  0  0  0  0  0  0
  135.7590   70.8560  223.8570 C   0  0  0  0  0  0  0  0  0  0  0  0
  136.3160   71.8430  223.0390 C   0  0  0  0  0  0  0  0  0  0  0  0
  137.6950   71.8790  222.8200 C   0  0  0  0  0  0  0  0  0  0  0  0
  138.4020   73.1340  221.7490 S   0  0  0  0  0  0  0  0  0  0  0  0
  140.0900   72.4460  221.7910 C   0  0  0  0  0  0  0  0  0  0  0  0
  140.8670   73.0280  220.8080 F   0  0  0  0  0  0  0  0  0  0  0  0
  140.6650   72.6570  223.0320 F   0  0  0  0  0  0  0  0  0  0  0  0
  138.5190   70.9140  223.4080 C   0  0  0  0  0  0  0  0  0  0  0  0
  137.9680   69.9190  224.2260 C   0  0  0  0  0  0  0  0  0  0  0  0
  139.0540   68.6770  224.9410 S   0  0  0  0  0  0  0  0  0  0  0  0
  139.8180   69.8550  226.0560 C   0  0  0  0  0  0  0  0  0  0  0  0
  140.7290   70.7980  225.5630 C   0  0  0  0  0  0  0  0  0  0  0  0
  141.3210   71.7200  226.4330 C   0  0  0  0  0  0  0  0  0  0  0  0
  141.0220   71.6880  227.7980 C   0  0  0  0  0  0  0  0  0  0  0  0
  140.1220   70.7400  228.2940 C   0  0  0  0  0  0  0  0  0  0  0  0
  139.5140   69.8300  227.4240 C   0  0  0  0  0  0  0  0  0  0  0  0
  133.4350   69.7170  226.0800 N   0  0  0  0  0  0  0  0  0  0  0  0
  132.7050   70.4130  224.9980 C   0  0  0  0  0  0  0  0  0  0  0  0
  132.0950   71.7580  225.4660 C   0  0  0  0  0  0  0  0  0  0  0  0
  132.0730   71.8570  226.9940 C   0  0  0  0  0  0  0  0  0  0  0  0
  133.4900   71.6910  227.5750 C   0  0  0  0  0  0  0  0  0  0  0  0
  134.3230   70.6490  226.7940 C   0  0  0  0  0  0  0  0  0  0  0  0
  134.6724   70.8359  224.0272 H   0  0  0  0  0  0  0  0  0  0  0  0
  135.6661   72.5940  222.5661 H   0  0  0  0  0  0  0  0  0  0  0  0
  140.0307   71.3632  221.6064 H   0  0  0  0  0  0  0  0  0  0  0  0
  139.6039   70.9363  223.2275 H   0  0  0  0  0  0  0  0  0  0  0  0
  140.9789   70.8136  224.4919 H   0  0  0  0  0  0  0  0  0  0  0  0
  142.0229   72.4713  226.0421 H   0  0  0  0  0  0  0  0  0  0  0  0
  141.4946   72.4085  228.4818 H   0  0  0  0  0  0  0  0  0  0  0  0
  139.8921   70.7101  229.3693 H   0  0  0  0  0  0  0  0  0  0  0  0
  138.7960   69.0933  227.8137 H   0  0  0  0  0  0  0  0  0  0  0  0
  133.4033   70.6106  224.1713 H   0  0  0  0  0  0  0  0  0  0  0  0
  131.8771   69.7623  224.6801 H   0  0  0  0  0  0  0  0  0  0  0  0
  132.6977   72.5847  225.0620 H   0  0  0  0  0  0  0  0  0  0  0  0
  131.0596   71.8160  225.0993 H   0  0  0  0  0  0  0  0  0  0  0  0
  131.6769   72.8409  227.2857 H   0  0  0  0  0  0  0  0  0  0  0  0
  131.4341   71.0536  227.3895 H   0  0  0  0  0  0  0  0  0  0  0  0
  134.0063   72.6614  227.5322 H   0  0  0  0  0  0  0  0  0  0  0  0
  133.3906   71.3357  228.6113 H   0  0  0  0  0  0  0  0  0  0  0  0
  134.9644   71.1684  226.0667 H   0  0  0  0  0  0  0  0  0  0  0  0
  134.9421   70.0808  227.5038 H   0  0  0  0  0  0  0  0  0  0  0  0
  1  2  2  0
  2  3  2  0
  2  4  1  0
  4  5  1  0
  5  6  2  0
  6  7  1  0
  7  8  2  0
  8  9  1  0
  9 10  1  0
 10 11  1  0
 10 12  1  0
  8 13  1  0
 13 14  2  0
 14 15  1  0
 15 16  1  0
 16 17  2  0
 17 18  1  0
 18 19  2  0
 19 20  1  0
 20 21  2  0
  2 22  1  0
 22 23  1  0
 23 24  1  0
 24 25  1  0
 25 26  1  0
 26 27  1  0
 14  5  1  0
 21 16  1  0
 27 22  1  0
  6 28  1  0
  7 29  1  0
 10 30  1  0
 13 31  1  0
 17 32  1  0
 18 33  1  0
 19 34  1  0
 20 35  1  0
 21 36  1  0
 23 37  1  0
 23 38  1  0
 24 39  1  0
 24 40  1  0
 25 41  1  0
 25 42  1  0
 26 43  1  0
 26 44  1  0
 27 45  1  0
 27 46  1  0
M  CHG  1   4  -1
M  END
>  <UniqueID>  (77) 
31

>  <SMILES>  (77) 
O=S(=O)([N-]c1ccc(SC(F)F)cc1Sc1ccccc1)N1CCCCC1

>  <Energy>  (77) 
42.767263408388374

>  <Genealogy>  (77) 
O=S(=O)([N-]c1ccc(SC(F)F)cc1Sc1ccccc1)N1CCCCC1 (protonated)
O=S(=O)([N-]c1ccc(SC(F)F)cc1Sc1ccccc1)N1CCCCC1 (3D coordinates assigned)
O=S(=O)([N-]c1ccc(SC(F)F)cc1Sc1ccccc1)N1CCCCC1 (nonaromatic ring conformer: 42.767263408388374 kcal/mol)

>  <smiles>  (77) 
O=S(=O)(Nc1ccc(SC(F)F)cc1Sc1ccccc1)N1CCCCC1

>  <score_type>  (77) 
oracle

>  <origin>  (77) 
autodockgpu

>  <m_score__min__energy>  (77) 
-6.96

>  <m_primary>  (77) 
energy

>  <meeko>  (77) 
{"free_energy": -6.76, "intermolecular_energy": -8.84, "internal_energy": -1.56, "cluster_size": 7, "cluster_id": 3, "rank_in_cluster": 5}

>  <energy>  (77) 
-5.92

>  <cluster_rmsd>  (77) 
0.91

>  <rmsd>  (77) 
272.91

>  <cluster>  (77) 
4

$$$$
RCYZJXIDXHYHGN-UHFFFAOYNA-N
     RDKit          3D

 46 48  0  0  0  0  0  0  0  0999 V2000
  140.6980   72.2400  224.1060 O   0  0  0  0  0  0  0  0  0  0  0  0
  140.2230   72.2540  222.6780 S   0  0  0  0  0  0  0  0  0  0  0  0
  139.6330   73.5990  222.3510 O   0  0  0  0  0  0  0  0  0  0  0  0
  139.0140   71.0280  222.4600 N   0  0  0  0  0  0  0  0  0  0  0  0
  137.8810   70.8150  223.3150 C   0  0  0  0  0  0  0  0  0  0  0  0
  136.8250   71.7420  223.3860 C   0  0  0  0  0  0  0  0  0  0  0  0
  135.7240   71.4950  224.2110 C   0  0  0  0  0  0  0  0  0  0  0  0
  135.6610   70.3230  224.9690 C   0  0  0  0  0  0  0  0  0  0  0  0
  134.2550   70.0250  226.0440 S   0  0  0  0  0  0  0  0  0  0  0  0
  133.8260   68.4160  225.3000 C   0  0  0  0  0  0  0  0  0  0  0  0
  134.2810   67.3840  226.0990 F   0  0  0  0  0  0  0  0  0  0  0  0
  132.4560   68.3130  225.1330 F   0  0  0  0  0  0  0  0  0  0  0  0
  136.7110   69.4020  224.9150 C   0  0  0  0  0  0  0  0  0  0  0  0
  137.8210   69.6440  224.0950 C   0  0  0  0  0  0  0  0  0  0  0  0
  139.1660   68.4510  224.0740 S   0  0  0  0  0  0  0  0  0  0  0  0
  139.7210   68.9100  225.7160 C   0  0  0  0  0  0  0  0  0  0  0  0
  139.9460   67.9200  226.6810 C   0  0  0  0  0  0  0  0  0  0  0  0
  140.3860   68.2780  227.9610 C   0  0  0  0  0  0  0  0  0  0  0  0
  140.5770   69.6240  228.2850 C   0  0  0  0  0  0  0  0  0  0  0  0
  140.3420   70.6140  227.3260 C   0  0  0  0  0  0  0  0  0  0  0  0
  139.9240   70.2580  226.0410 C   0  0  0  0  0  0  0  0  0  0  0  0
  141.5610   71.9430  221.6000 N   0  0  0  0  0  0  0  0  0  0  0  0
  142.0280   73.2160  221.0080 C   0  0  0  0  0  0  0  0  0  0  0  0
  143.0030   72.9960  219.8260 C   0  0  0  0  0  0  0  0  0  0  0  0
  143.5300   71.5580  219.8000 C   0  0  0  0  0  0  0  0  0  0  0  0
  142.3690   70.5490  219.7190 C   0  0  0  0  0  0  0  0  0  0  0  0
  141.1450   71.0010  220.5500 C   0  0  0  0  0  0  0  0  0  0  0  0
  136.8660   72.6653  222.7896 H   0  0  0  0  0  0  0  0  0  0  0  0
  134.9039   72.2262  224.2637 H   0  0  0  0  0  0  0  0  0  0  0  0
  134.3104   68.3464  224.3149 H   0  0  0  0  0  0  0  0  0  0  0  0
  136.6657   68.4836  225.5187 H   0  0  0  0  0  0  0  0  0  0  0  0
  139.7771   66.8617  226.4333 H   0  0  0  0  0  0  0  0  0  0  0  0
  140.5816   67.4989  228.7125 H   0  0  0  0  0  0  0  0  0  0  0  0
  140.9122   69.9046  229.2944 H   0  0  0  0  0  0  0  0  0  0  0  0
  140.4862   71.6737  227.5832 H   0  0  0  0  0  0  0  0  0  0  0  0
  139.7540   71.0371  225.2833 H   0  0  0  0  0  0  0  0  0  0  0  0
  141.1547   73.7780  220.6453 H   0  0  0  0  0  0  0  0  0  0  0  0
  142.5687   73.7702  221.7894 H   0  0  0  0  0  0  0  0  0  0  0  0
  142.4752   73.2014  218.8830 H   0  0  0  0  0  0  0  0  0  0  0  0
  143.8579   73.6771  219.9495 H   0  0  0  0  0  0  0  0  0  0  0  0
  144.1814   71.4288  218.9230 H   0  0  0  0  0  0  0  0  0  0  0  0
  144.0927   71.3729  220.7269 H   0  0  0  0  0  0  0  0  0  0  0  0
  142.0640   70.4431  218.6674 H   0  0  0  0  0  0  0  0  0  0  0  0
  142.7228   69.5923  220.1307 H   0  0  0  0  0  0  0  0  0  0  0  0
  140.4184   71.4939  219.8873 H   0  0  0  0  0  0  0  0  0  0  0  0
  140.6870   70.1190  221.0214 H   0  0  0  0  0  0  0  0  0  0  0  0
  1  2  2  0
  2  3  2  0
  2  4  1  0
  4  5  1  0
  5  6  2  0
  6  7  1  0
  7  8  2  0
  8  9  1  0
  9 10  1  0
 10 11  1  0
 10 12  1  0
  8 13  1  0
 13 14  2  0
 14 15  1  0
 15 16  1  0
 16 17  2  0
 17 18  1  0
 18 19  2  0
 19 20  1  0
 20 21  2  0
  2 22  1  0
 22 23  1  0
 23 24  1  0
 24 25  1  0
 25 26  1  0
 26 27  1  0
 14  5  1  0
 21 16  1  0
 27 22  1  0
  6 28  1  0
  7 29  1  0
 10 30  1  0
 13 31  1  0
 17 32  1  0
 18 33  1  0
 19 34  1  0
 20 35  1  0
 21 36  1  0
 23 37  1  0
 23 38  1  0
 24 39  1  0
 24 40  1  0
 25 41  1  0
 25 42  1  0
 26 43  1  0
 26 44  1  0
 27 45  1  0
 27 46  1  0
M  CHG  1   4  -1
M  END
>  <UniqueID>  (78) 
31

>  <SMILES>  (78) 
O=S(=O)([N-]c1ccc(SC(F)F)cc1Sc1ccccc1)N1CCCCC1

>  <Energy>  (78) 
42.767263408388374

>  <Genealogy>  (78) 
O=S(=O)([N-]c1ccc(SC(F)F)cc1Sc1ccccc1)N1CCCCC1 (protonated)
O=S(=O)([N-]c1ccc(SC(F)F)cc1Sc1ccccc1)N1CCCCC1 (3D coordinates assigned)
O=S(=O)([N-]c1ccc(SC(F)F)cc1Sc1ccccc1)N1CCCCC1 (nonaromatic ring conformer: 42.767263408388374 kcal/mol)

>  <smiles>  (78) 
O=S(=O)(Nc1ccc(SC(F)F)cc1Sc1ccccc1)N1CCCCC1

>  <score_type>  (78) 
oracle

>  <origin>  (78) 
autodockgpu

>  <m_score__min__energy>  (78) 
-6.96

>  <m_primary>  (78) 
energy

>  <meeko>  (78) 
{"free_energy": -6.1, "intermolecular_energy": -8.19, "internal_energy": -1.55, "cluster_size": 3, "cluster_id": 1, "rank_in_cluster": 3}

>  <energy>  (78) 
-5.92

>  <cluster_rmsd>  (78) 
0.92

>  <rmsd>  (78) 
272.94

>  <cluster>  (78) 
4

$$$$
RCYZJXIDXHYHGN-UHFFFAOYNA-N
     RDKit          3D

 46 48  0  0  0  0  0  0  0  0999 V2000
  134.3630   67.1670  226.1350 O   0  0  0  0  0  0  0  0  0  0  0  0
  134.4930   68.4390  225.3420 S   0  0  0  0  0  0  0  0  0  0  0  0
  134.0510   68.2010  223.9230 O   0  0  0  0  0  0  0  0  0  0  0  0
  136.1490   68.9560  225.3480 N   0  0  0  0  0  0  0  0  0  0  0  0
  136.7220   69.9260  224.4580 C   0  0  0  0  0  0  0  0  0  0  0  0
  135.9270   70.8790  223.7950 C   0  0  0  0  0  0  0  0  0  0  0  0
  136.5150   71.8260  222.9520 C   0  0  0  0  0  0  0  0  0  0  0  0
  137.9000   71.8370  222.7650 C   0  0  0  0  0  0  0  0  0  0  0  0
  138.6470   73.0410  221.6630 S   0  0  0  0  0  0  0  0  0  0  0  0
  140.2870   72.2450  221.6480 C   0  0  0  0  0  0  0  0  0  0  0  0
  140.9550   72.5490  220.4770 F   0  0  0  0  0  0  0  0  0  0  0  0
  141.0340   72.6610  222.7370 F   0  0  0  0  0  0  0  0  0  0  0  0
  138.6970   70.8870  223.4100 C   0  0  0  0  0  0  0  0  0  0  0  0
  138.1150   69.9310  224.2520 C   0  0  0  0  0  0  0  0  0  0  0  0
  139.1680   68.7060  225.0400 S   0  0  0  0  0  0  0  0  0  0  0  0
  139.9200   69.9170  226.1280 C   0  0  0  0  0  0  0  0  0  0  0  0
  140.8570   70.8270  225.6210 C   0  0  0  0  0  0  0  0  0  0  0  0
  141.4390   71.7760  226.4690 C   0  0  0  0  0  0  0  0  0  0  0  0
  141.1050   71.8020  227.8260 C   0  0  0  0  0  0  0  0  0  0  0  0
  140.1790   70.8870  228.3360 C   0  0  0  0  0  0  0  0  0  0  0  0
  139.5800   69.9520  227.4870 C   0  0  0  0  0  0  0  0  0  0  0  0
  133.4960   69.6870  226.0450 N   0  0  0  0  0  0  0  0  0  0  0  0
  132.7130   70.3560  224.9830 C   0  0  0  0  0  0  0  0  0  0  0  0
  132.0380   71.6590  225.4770 C   0  0  0  0  0  0  0  0  0  0  0  0
  132.0330   71.7380  227.0060 C   0  0  0  0  0  0  0  0  0  0  0  0
  133.4650   71.6420  227.5650 C   0  0  0  0  0  0  0  0  0  0  0  0
  134.3420   70.6560  226.7590 C   0  0  0  0  0  0  0  0  0  0  0  0
  134.8367   70.8787  223.9410 H   0  0  0  0  0  0  0  0  0  0  0  0
  135.8859   72.5649  222.4341 H   0  0  0  0  0  0  0  0  0  0  0  0
  140.1467   71.1556  221.7078 H   0  0  0  0  0  0  0  0  0  0  0  0
  139.7861   70.8902  223.2556 H   0  0  0  0  0  0  0  0  0  0  0  0
  141.1350   70.7955  224.5572 H   0  0  0  0  0  0  0  0  0  0  0  0
  142.1604   72.5026  226.0670 H   0  0  0  0  0  0  0  0  0  0  0  0
  141.5708   72.5425  228.4928 H   0  0  0  0  0  0  0  0  0  0  0  0
  139.9218   70.9029  229.4054 H   0  0  0  0  0  0  0  0  0  0  0  0
  138.8404   69.2424  227.8864 H   0  0  0  0  0  0  0  0  0  0  0  0
  133.3871   70.6019  224.1492 H   0  0  0  0  0  0  0  0  0  0  0  0
  131.9169   69.6651  224.6685 H   0  0  0  0  0  0  0  0  0  0  0  0
  132.5888   72.5223  225.0754 H   0  0  0  0  0  0  0  0  0  0  0  0
  130.9956   71.6647  225.1257 H   0  0  0  0  0  0  0  0  0  0  0  0
  131.5887   72.6954  227.3159 H   0  0  0  0  0  0  0  0  0  0  0  0
  131.4444   70.8964  227.3999 H   0  0  0  0  0  0  0  0  0  0  0  0
  133.9274   72.6394  227.5276 H   0  0  0  0  0  0  0  0  0  0  0  0
  133.3999   71.2692  228.5979 H   0  0  0  0  0  0  0  0  0  0  0  0
  134.9442   71.2183  226.0302 H   0  0  0  0  0  0  0  0  0  0  0  0
  135.0006   70.1132  227.4530 H   0  0  0  0  0  0  0  0  0  0  0  0
  1  2  2  0
  2  3  2  0
  2  4  1  0
  4  5  1  0
  5  6  2  0
  6  7  1  0
  7  8  2  0
  8  9  1  0
  9 10  1  0
 10 11  1  0
 10 12  1  0
  8 13  1  0
 13 14  2  0
 14 15  1  0
 15 16  1  0
 16 17  2  0
 17 18  1  0
 18 19  2  0
 19 20  1  0
 20 21  2  0
  2 22  1  0
 22 23  1  0
 23 24  1  0
 24 25  1  0
 25 26  1  0
 26 27  1  0
 14  5  1  0
 21 16  1  0
 27 22  1  0
  6 28  1  0
  7 29  1  0
 10 30  1  0
 13 31  1  0
 17 32  1  0
 18 33  1  0
 19 34  1  0
 20 35  1  0
 21 36  1  0
 23 37  1  0
 23 38  1  0
 24 39  1  0
 24 40  1  0
 25 41  1  0
 25 42  1  0
 26 43  1  0
 26 44  1  0
 27 45  1  0
 27 46  1  0
M  CHG  1   4  -1
M  END
>  <UniqueID>  (79) 
31

>  <SMILES>  (79) 
O=S(=O)([N-]c1ccc(SC(F)F)cc1Sc1ccccc1)N1CCCCC1

>  <Energy>  (79) 
42.767263408388374

>  <Genealogy>  (79) 
O=S(=O)([N-]c1ccc(SC(F)F)cc1Sc1ccccc1)N1CCCCC1 (protonated)
O=S(=O)([N-]c1ccc(SC(F)F)cc1Sc1ccccc1)N1CCCCC1 (3D coordinates assigned)
O=S(=O)([N-]c1ccc(SC(F)F)cc1Sc1ccccc1)N1CCCCC1 (nonaromatic ring conformer: 42.767263408388374 kcal/mol)

>  <smiles>  (79) 
O=S(=O)(Nc1ccc(SC(F)F)cc1Sc1ccccc1)N1CCCCC1

>  <score_type>  (79) 
oracle

>  <origin>  (79) 
autodockgpu

>  <m_score__min__energy>  (79) 
-6.96

>  <m_primary>  (79) 
energy

>  <meeko>  (79) 
{"free_energy": -6.74, "intermolecular_energy": -8.83, "internal_energy": -1.58, "cluster_size": 7, "cluster_id": 3, "rank_in_cluster": 6}

>  <energy>  (79) 
-6.1

>  <cluster_rmsd>  (79) 
0.0

>  <rmsd>  (79) 
272.73

>  <cluster>  (79) 
5

$$$$
RCYZJXIDXHYHGN-UHFFFAOYNA-N
     RDKit          3D

 46 48  0  0  0  0  0  0  0  0999 V2000
  134.1640   67.0870  226.2880 O   0  0  0  0  0  0  0  0  0  0  0  0
  134.3220   68.3080  225.4230 S   0  0  0  0  0  0  0  0  0  0  0  0
  133.8060   68.0210  224.0390 O   0  0  0  0  0  0  0  0  0  0  0  0
  136.0010   68.7380  225.3330 N   0  0  0  0  0  0  0  0  0  0  0  0
  136.5510   69.7770  224.5100 C   0  0  0  0  0  0  0  0  0  0  0  0
  135.7290   70.7100  223.8510 C   0  0  0  0  0  0  0  0  0  0  0  0
  136.2940   71.7250  223.0740 C   0  0  0  0  0  0  0  0  0  0  0  0
  137.6820   71.8230  222.9480 C   0  0  0  0  0  0  0  0  0  0  0  0
  138.4010   73.1140  221.9280 S   0  0  0  0  0  0  0  0  0  0  0  0
  140.0800   72.4010  221.9320 C   0  0  0  0  0  0  0  0  0  0  0  0
  140.8230   72.9260  220.8920 F   0  0  0  0  0  0  0  0  0  0  0  0
  140.7100   72.6590  223.1370 F   0  0  0  0  0  0  0  0  0  0  0  0
  138.5070   70.8930  223.5870 C   0  0  0  0  0  0  0  0  0  0  0  0
  137.9480   69.8700  224.3640 C   0  0  0  0  0  0  0  0  0  0  0  0
  139.0390   68.6740  225.1460 S   0  0  0  0  0  0  0  0  0  0  0  0
  139.8240   69.9200  226.1680 C   0  0  0  0  0  0  0  0  0  0  0  0
  139.5000   70.0170  227.5280 C   0  0  0  0  0  0  0  0  0  0  0  0
  140.1170   70.9860  228.3270 C   0  0  0  0  0  0  0  0  0  0  0  0
  141.0400   71.8730  227.7650 C   0  0  0  0  0  0  0  0  0  0  0  0
  141.3560   71.7860  226.4060 C   0  0  0  0  0  0  0  0  0  0  0  0
  140.7570   70.8050  225.6100 C   0  0  0  0  0  0  0  0  0  0  0  0
  133.4200   69.6410  226.1000 N   0  0  0  0  0  0  0  0  0  0  0  0
  132.6980   70.3510  225.0220 C   0  0  0  0  0  0  0  0  0  0  0  0
  132.1230   71.7100  225.4910 C   0  0  0  0  0  0  0  0  0  0  0  0
  132.1140   71.8130  227.0200 C   0  0  0  0  0  0  0  0  0  0  0  0
  133.5320   71.6160  227.5900 C   0  0  0  0  0  0  0  0  0  0  0  0
  134.3350   70.5530  226.8050 C   0  0  0  0  0  0  0  0  0  0  0  0
  134.6355   70.6400  223.9480 H   0  0  0  0  0  0  0  0  0  0  0  0
  135.6441   72.4487  222.5603 H   0  0  0  0  0  0  0  0  0  0  0  0
  139.9976   71.3120  221.8003 H   0  0  0  0  0  0  0  0  0  0  0  0
  139.5994   70.9646  223.4794 H   0  0  0  0  0  0  0  0  0  0  0  0
  138.7606   69.3313  227.9674 H   0  0  0  0  0  0  0  0  0  0  0  0
  139.8756   71.0499  229.3983 H   0  0  0  0  0  0  0  0  0  0  0  0
  141.5178   72.6398  228.3925 H   0  0  0  0  0  0  0  0  0  0  0  0
  142.0761   72.4896  225.9628 H   0  0  0  0  0  0  0  0  0  0  0  0
  141.0182   70.7275  224.5443 H   0  0  0  0  0  0  0  0  0  0  0  0
  133.3943   70.5306  224.1896 H   0  0  0  0  0  0  0  0  0  0  0  0
  131.8529   69.7188  224.7120 H   0  0  0  0  0  0  0  0  0  0  0  0
  132.7419   72.5216  225.0808 H   0  0  0  0  0  0  0  0  0  0  0  0
  131.0866   71.7911  225.1315 H   0  0  0  0  0  0  0  0  0  0  0  0
  131.7426   72.8063  227.3124 H   0  0  0  0  0  0  0  0  0  0  0  0
  131.4596   71.0258  227.4226 H   0  0  0  0  0  0  0  0  0  0  0  0
  134.0699   72.5742  227.5404 H   0  0  0  0  0  0  0  0  0  0  0  0
  133.4329   71.2656  228.6280 H   0  0  0  0  0  0  0  0  0  0  0  0
  134.9829   71.0557  226.0718 H   0  0  0  0  0  0  0  0  0  0  0  0
  134.9463   69.9720  227.5113 H   0  0  0  0  0  0  0  0  0  0  0  0
  1  2  2  0
  2  3  2  0
  2  4  1  0
  4  5  1  0
  5  6  2  0
  6  7  1  0
  7  8  2  0
  8  9  1  0
  9 10  1  0
 10 11  1  0
 10 12  1  0
  8 13  1  0
 13 14  2  0
 14 15  1  0
 15 16  1  0
 16 17  2  0
 17 18  1  0
 18 19  2  0
 19 20  1  0
 20 21  2  0
  2 22  1  0
 22 23  1  0
 23 24  1  0
 24 25  1  0
 25 26  1  0
 26 27  1  0
 14  5  1  0
 21 16  1  0
 27 22  1  0
  6 28  1  0
  7 29  1  0
 10 30  1  0
 13 31  1  0
 17 32  1  0
 18 33  1  0
 19 34  1  0
 20 35  1  0
 21 36  1  0
 23 37  1  0
 23 38  1  0
 24 39  1  0
 24 40  1  0
 25 41  1  0
 25 42  1  0
 26 43  1  0
 26 44  1  0
 27 45  1  0
 27 46  1  0
M  CHG  1   4  -1
M  END
>  <UniqueID>  (80) 
31

>  <SMILES>  (80) 
O=S(=O)([N-]c1ccc(SC(F)F)cc1Sc1ccccc1)N1CCCCC1

>  <Energy>  (80) 
42.767263408388374

>  <Genealogy>  (80) 
O=S(=O)([N-]c1ccc(SC(F)F)cc1Sc1ccccc1)N1CCCCC1 (protonated)
O=S(=O)([N-]c1ccc(SC(F)F)cc1Sc1ccccc1)N1CCCCC1 (3D coordinates assigned)
O=S(=O)([N-]c1ccc(SC(F)F)cc1Sc1ccccc1)N1CCCCC1 (nonaromatic ring conformer: 42.767263408388374 kcal/mol)

>  <smiles>  (80) 
O=S(=O)(Nc1ccc(SC(F)F)cc1Sc1ccccc1)N1CCCCC1

>  <score_type>  (80) 
oracle

>  <origin>  (80) 
autodockgpu

>  <m_score__min__energy>  (80) 
-6.96

>  <m_primary>  (80) 
energy

>  <meeko>  (80) 
{"free_energy": -6.8, "intermolecular_energy": -8.89, "internal_energy": -1.54, "cluster_size": 7, "cluster_id": 3, "rank_in_cluster": 2}

>  <energy>  (80) 
-5.18

>  <cluster_rmsd>  (80) 
0.0

>  <rmsd>  (80) 
273.98

>  <cluster>  (80) 
6

$$$$
