
     RDKit          3D

 59 62  0  0  1  0  0  0  0  0999 V2000
  142.4390   70.3680  218.7910 C   0  0  0  0  0  0  0  0  0  0  0  0
  141.9150   71.5450  219.5540 C   0  0  0  0  0  0  0  0  0  0  0  0
  141.0550   72.4040  218.9280 C   0  0  0  0  0  0  0  0  0  0  0  0
  140.5490   73.5010  219.5950 C   0  0  0  0  0  0  0  0  0  0  0  0
  140.8780   73.7830  220.9040 C   0  0  0  0  0  0  0  0  0  0  0  0
  140.3800   74.9250  221.6720 C   0  0  0  0  0  0  0  0  0  0  0  0
  141.1940   76.0960  221.6720 N   0  0  0  0  0  0  0  0  0  0  0  0
  140.7810   77.3820  222.1170 C   0  0  0  0  0  0  0  0  0  0  0  0
  139.5930   77.5570  222.5620 O   0  0  0  0  0  0  0  0  0  0  0  0
  141.6500   78.5680  222.1030 C   0  0  2  0  0  0  0  0  0  0  0  0
  142.2080   78.9330  223.4410 C   0  0  0  0  0  0  0  0  0  0  0  0
  141.6350   80.2970  223.7580 C   0  0  1  0  0  0  0  0  0  0  0  0
  142.5830   81.2640  223.5600 O   0  0  0  0  0  0  0  0  0  0  0  0
  140.4440   80.3600  222.8320 C   0  0  0  0  0  0  0  0  0  0  0  0
  140.9480   79.7770  221.6160 N   0  0  0  0  0  0  0  0  0  0  0  0
  140.9040   80.1030  220.2570 C   0  0  0  0  0  0  0  0  0  0  0  0
  140.1940   81.1760  219.9830 O   0  0  0  0  0  0  0  0  0  0  0  0
  141.4900   79.4970  219.0820 C   0  0  0  0  0  0  0  0  0  0  0  0
  142.3990   78.4090  219.1940 N   0  0  0  0  0  0  0  0  0  0  0  0
  142.0090   77.1590  218.5830 C   0  0  0  0  0  0  0  0  0  0  0  0
  140.8910   77.1780  218.0060 O   0  0  0  0  0  0  0  0  0  0  0  0
  142.8550   75.9770  218.6410 C   0  0  0  0  0  0  0  0  0  0  0  0
  142.8990   75.1770  217.5210 C   0  0  0  0  0  0  0  0  0  0  0  0
  143.6830   74.0410  217.5110 C   0  0  0  0  0  0  0  0  0  0  0  0
  144.4290   73.7040  218.6350 C   0  0  0  0  0  0  0  0  0  0  0  0
  145.2070   72.5610  218.6080 C   0  0  0  0  0  0  0  0  0  0  0  0
  145.9360   72.2620  219.7510 C   0  0  0  0  0  0  0  0  0  0  0  0
  146.6980   71.1380  219.7140 F   0  0  0  0  0  0  0  0  0  0  0  0
  145.8930   73.0650  220.8780 C   0  0  0  0  0  0  0  0  0  0  0  0
  145.0940   74.2020  220.8540 C   0  0  0  0  0  0  0  0  0  0  0  0
  144.3590   74.5300  219.7380 C   0  0  0  0  0  0  0  0  0  0  0  0
  143.5850   75.6360  219.7230 N   0  0  0  0  0  0  0  0  0  0  0  0
  141.7550   72.9010  221.5320 C   0  0  0  0  0  0  0  0  0  0  0  0
  142.2640   71.7900  220.8470 C   0  0  0  0  0  0  0  0  0  0  0  0
  142.7822   69.5970  219.4965 H   0  0  0  0  0  0  0  0  0  0  0  0
  141.6393   69.9559  218.1580 H   0  0  0  0  0  0  0  0  0  0  0  0
  143.2803   70.6865  218.1580 H   0  0  0  0  0  0  0  0  0  0  0  0
  140.7639   72.2190  217.8835 H   0  0  0  0  0  0  0  0  0  0  0  0
  139.8594   74.1737  219.0641 H   0  0  0  0  0  0  0  0  0  0  0  0
  139.3976   75.2010  221.2612 H   0  0  0  0  0  0  0  0  0  0  0  0
  140.3591   74.5853  222.7180 H   0  0  0  0  0  0  0  0  0  0  0  0
  142.1940   76.0430  221.3190 H   0  0  0  0  0  0  0  0  0  0  0  0
  142.4638   78.2690  221.4260 H   0  0  0  0  0  0  0  0  0  0  0  0
  141.8981   78.1997  224.2001 H   0  0  0  0  0  0  0  0  0  0  0  0
  143.3079   78.9429  223.4361 H   0  0  0  0  0  0  0  0  0  0  0  0
  141.3300   80.4623  224.8019 H   0  0  0  0  0  0  0  0  0  0  0  0
  142.9070   81.2240  222.6440 H   0  0  0  0  0  0  0  0  0  0  0  0
  139.6017   79.7758  223.2310 H   0  0  0  0  0  0  0  0  0  0  0  0
  140.0549   81.3797  222.6950 H   0  0  0  0  0  0  0  0  0  0  0  0
  140.6529   79.1424  218.4627 H   0  0  0  0  0  0  0  0  0  0  0  0
  142.1255   80.3029  218.6862 H   0  0  0  0  0  0  0  0  0  0  0  0
  143.3240   78.4230  219.6770 H   0  0  0  0  0  0  0  0  0  0  0  0
  142.3081   75.4439  216.6324 H   0  0  0  0  0  0  0  0  0  0  0  0
  143.7176   73.4033  216.6153 H   0  0  0  0  0  0  0  0  0  0  0  0
  145.2466   71.9157  217.7180 H   0  0  0  0  0  0  0  0  0  0  0  0
  146.4786   72.8087  221.7732 H   0  0  0  0  0  0  0  0  0  0  0  0
  145.0485   74.8502  221.7416 H   0  0  0  0  0  0  0  0  0  0  0  0
  142.0508   73.0789  222.5765 H   0  0  0  0  0  0  0  0  0  0  0  0
  142.9553   71.1060  221.3610 H   0  0  0  0  0  0  0  0  0  0  0  0
  1  2  1  0
  2  3  2  0
  3  4  1  0
  4  5  2  0
  5  6  1  0
  6  7  1  0
  7  8  1  0
  8  9  2  0
  8 10  1  0
 10 11  1  0
 11 12  1  0
 12 13  1  0
 12 14  1  0
 14 15  1  0
 15 16  1  0
 16 17  2  0
 16 18  1  0
 18 19  1  0
 19 20  1  0
 20 21  2  0
 20 22  1  0
 22 23  2  0
 23 24  1  0
 24 25  2  0
 25 26  1  0
 26 27  2  0
 27 28  1  0
 27 29  1  0
 29 30  2  0
 30 31  1  0
 31 32  2  0
  5 33  1  0
 33 34  2  0
 34  2  1  0
 15 10  1  0
 32 22  1  0
 31 25  1  0
  1 35  1  0
  1 36  1  0
  1 37  1  0
  3 38  1  0
  4 39  1  0
  6 40  1  0
  6 41  1  0
  7 42  1  0
 10 43  1  6
 11 44  1  0
 11 45  1  0
 12 46  1  1
 13 47  1  0
 14 48  1  0
 14 49  1  0
 18 50  1  0
 18 51  1  0
 19 52  1  0
 23 53  1  0
 24 54  1  0
 26 55  1  0
 29 56  1  0
 30 57  1  0
 33 58  1  0
 34 59  1  0
M  END
>  <smiles>  (1) 
Cc1ccc(CNC(=O)C2C[C@@H](O)CN2C(=O)CNC(=O)c2ccc3cc(F)ccc3n2)cc1

>  <score_type>  (1) 
oracle

>  <origin>  (1) 
autodockgpu

>  <m_score__min__energy>  (1) 
-9.8499999999999996

>  <m_primary>  (1) 
energy

>  <meeko>  (1) 
{"free_energy": -6.29, "intermolecular_energy": -8.68, "internal_energy": -4.25, "cluster_size": 3, "cluster_id": 7, "rank_in_cluster": 3}

>  <energy>  (1) 
-9.85

>  <cluster_rmsd>  (1) 
0.0

>  <rmsd>  (1) 
271.48

>  <cluster>  (1) 
1

$$$$

     RDKit          3D

 59 62  0  0  1  0  0  0  0  0999 V2000
  133.9140   72.2800  226.4760 C   0  0  0  0  0  0  0  0  0  0  0  0
  134.6000   73.0270  225.3750 C   0  0  0  0  0  0  0  0  0  0  0  0
  135.1880   72.3160  224.3650 C   0  0  0  0  0  0  0  0  0  0  0  0
  135.8310   72.9670  223.3320 C   0  0  0  0  0  0  0  0  0  0  0  0
  135.9130   74.3410  223.2640 C   0  0  0  0  0  0  0  0  0  0  0  0
  136.5770   75.0950  222.2000 C   0  0  0  0  0  0  0  0  0  0  0  0
  137.9670   75.3620  222.3790 N   0  0  0  0  0  0  0  0  0  0  0  0
  138.6010   76.6100  222.1350 C   0  0  0  0  0  0  0  0  0  0  0  0
  137.9160   77.6090  221.7190 O   0  0  0  0  0  0  0  0  0  0  0  0
  140.0390   76.8480  222.3330 C   0  0  2  0  0  0  0  0  0  0  0  0
  140.3750   78.2410  222.7600 C   0  0  0  0  0  0  0  0  0  0  0  0
  141.2110   78.8150  221.6370 C   0  0  1  0  0  0  0  0  0  0  0  0
  142.5320   78.8300  221.9930 O   0  0  0  0  0  0  0  0  0  0  0  0
  140.8620   77.9020  220.4860 C   0  0  0  0  0  0  0  0  0  0  0  0
  140.8270   76.6020  221.1040 N   0  0  0  0  0  0  0  0  0  0  0  0
  141.3330   75.3360  220.7980 C   0  0  0  0  0  0  0  0  0  0  0  0
  142.5900   75.3370  220.4110 O   0  0  0  0  0  0  0  0  0  0  0  0
  140.7510   74.0110  220.8260 C   0  0  0  0  0  0  0  0  0  0  0  0
  140.8900   73.1740  221.9670 N   0  0  0  0  0  0  0  0  0  0  0  0
  139.7090   72.4700  222.4140 C   0  0  0  0  0  0  0  0  0  0  0  0
  138.6760   72.6790  221.7270 O   0  0  0  0  0  0  0  0  0  0  0  0
  139.7300   71.5920  223.5740 C   0  0  0  0  0  0  0  0  0  0  0  0
  139.0460   70.4010  223.4760 C   0  0  0  0  0  0  0  0  0  0  0  0
  139.0270   69.5230  224.5410 C   0  0  0  0  0  0  0  0  0  0  0  0
  139.7000   69.8430  225.7140 C   0  0  0  0  0  0  0  0  0  0  0  0
  139.6690   68.9520  226.7720 C   0  0  0  0  0  0  0  0  0  0  0  0
  140.3540   69.3110  227.9250 C   0  0  0  0  0  0  0  0  0  0  0  0
  140.3180   68.4290  228.9570 F   0  0  0  0  0  0  0  0  0  0  0  0
  141.0420   70.5080  228.0260 C   0  0  0  0  0  0  0  0  0  0  0  0
  141.0410   71.3690  226.9340 C   0  0  0  0  0  0  0  0  0  0  0  0
  140.3740   71.0450  225.7750 C   0  0  0  0  0  0  0  0  0  0  0  0
  140.3780   71.8870  224.7200 N   0  0  0  0  0  0  0  0  0  0  0  0
  135.3100   75.0550  224.2980 C   0  0  0  0  0  0  0  0  0  0  0  0
  134.6600   74.3870  225.3430 C   0  0  0  0  0  0  0  0  0  0  0  0
  134.2619   72.6588  227.4483 H   0  0  0  0  0  0  0  0  0  0  0  0
  132.8265   72.4236  226.3944 H   0  0  0  0  0  0  0  0  0  0  0  0
  134.1495   71.2086  226.3944 H   0  0  0  0  0  0  0  0  0  0  0  0
  135.1480   71.2168  224.3764 H   0  0  0  0  0  0  0  0  0  0  0  0
  136.2946   72.3679  222.5344 H   0  0  0  0  0  0  0  0  0  0  0  0
  136.4641   74.5247  221.2662 H   0  0  0  0  0  0  0  0  0  0  0  0
  136.0901   76.0813  222.1957 H   0  0  0  0  0  0  0  0  0  0  0  0
  138.6100   74.5900  222.7220 H   0  0  0  0  0  0  0  0  0  0  0  0
  140.2986   76.1378  223.1319 H   0  0  0  0  0  0  0  0  0  0  0  0
  139.4581   78.8328  222.8985 H   0  0  0  0  0  0  0  0  0  0  0  0
  140.9129   78.2562  223.7194 H   0  0  0  0  0  0  0  0  0  0  0  0
  141.0146   79.8658  221.3777 H   0  0  0  0  0  0  0  0  0  0  0  0
  142.9490   77.9860  221.7450 H   0  0  0  0  0  0  0  0  0  0  0  0
  139.8831   78.1626  220.0572 H   0  0  0  0  0  0  0  0  0  0  0  0
  141.5742   77.9660  219.6501 H   0  0  0  0  0  0  0  0  0  0  0  0
  139.6709   74.1404  220.6628 H   0  0  0  0  0  0  0  0  0  0  0  0
  141.3321   73.4754  220.0609 H   0  0  0  0  0  0  0  0  0  0  0  0
  141.7620   73.0160  222.5160 H   0  0  0  0  0  0  0  0  0  0  0  0
  138.5136   70.1487  222.5471 H   0  0  0  0  0  0  0  0  0  0  0  0
  138.4802   68.5719  224.4614 H   0  0  0  0  0  0  0  0  0  0  0  0
  139.1243   67.9989  226.7025 H   0  0  0  0  0  0  0  0  0  0  0  0
  141.5777   70.7723  228.9497 H   0  0  0  0  0  0  0  0  0  0  0  0
  141.5822   72.3245  226.9978 H   0  0  0  0  0  0  0  0  0  0  0  0
  135.3451   76.1544  224.2931 H   0  0  0  0  0  0  0  0  0  0  0  0
  134.1910   74.9693  226.1498 H   0  0  0  0  0  0  0  0  0  0  0  0
  1  2  1  0
  2  3  2  0
  3  4  1  0
  4  5  2  0
  5  6  1  0
  6  7  1  0
  7  8  1  0
  8  9  2  0
  8 10  1  0
 10 11  1  0
 11 12  1  0
 12 13  1  0
 12 14  1  0
 14 15  1  0
 15 16  1  0
 16 17  2  0
 16 18  1  0
 18 19  1  0
 19 20  1  0
 20 21  2  0
 20 22  1  0
 22 23  2  0
 23 24  1  0
 24 25  2  0
 25 26  1  0
 26 27  2  0
 27 28  1  0
 27 29  1  0
 29 30  2  0
 30 31  1  0
 31 32  2  0
  5 33  1  0
 33 34  2  0
 34  2  1  0
 15 10  1  0
 32 22  1  0
 31 25  1  0
  1 35  1  0
  1 36  1  0
  1 37  1  0
  3 38  1  0
  4 39  1  0
  6 40  1  0
  6 41  1  0
  7 42  1  0
 10 43  1  1
 11 44  1  0
 11 45  1  0
 12 46  1  6
 13 47  1  0
 14 48  1  0
 14 49  1  0
 18 50  1  0
 18 51  1  0
 19 52  1  0
 23 53  1  0
 24 54  1  0
 26 55  1  0
 29 56  1  0
 30 57  1  0
 33 58  1  0
 34 59  1  0
M  END
>  <smiles>  (2) 
Cc1ccc(CNC(=O)C2C[C@@H](O)CN2C(=O)CNC(=O)c2ccc3cc(F)ccc3n2)cc1

>  <score_type>  (2) 
oracle

>  <origin>  (2) 
autodockgpu

>  <m_score__min__energy>  (2) 
-9.8499999999999996

>  <m_primary>  (2) 
energy

>  <meeko>  (2) 
{"free_energy": -8.06, "intermolecular_energy": -10.45, "internal_energy": -2.95, "cluster_size": 1, "cluster_id": 2, "rank_in_cluster": 1}

>  <energy>  (2) 
-9.8

>  <cluster_rmsd>  (2) 
0.13

>  <rmsd>  (2) 
271.41

>  <cluster>  (2) 
1

$$$$

     RDKit          3D

 59 62  0  0  1  0  0  0  0  0999 V2000
  142.6460   81.0640  224.1820 C   0  0  0  0  0  0  0  0  0  0  0  0
  142.2180   80.0540  223.1620 C   0  0  0  0  0  0  0  0  0  0  0  0
  142.2580   80.3970  221.8390 C   0  0  0  0  0  0  0  0  0  0  0  0
  141.8730   79.4950  220.8690 C   0  0  0  0  0  0  0  0  0  0  0  0
  141.4370   78.2240  221.1760 C   0  0  0  0  0  0  0  0  0  0  0  0
  141.0150   77.2190  220.2000 C   0  0  0  0  0  0  0  0  0  0  0  0
  141.8780   76.0960  220.0270 N   0  0  0  0  0  0  0  0  0  0  0  0
  141.9580   74.9800  220.9030 C   0  0  0  0  0  0  0  0  0  0  0  0
  141.2180   74.9280  221.9470 O   0  0  0  0  0  0  0  0  0  0  0  0
  142.8610   73.8390  220.6910 C   0  0  2  0  0  0  0  0  0  0  0  0
  144.2950   74.2200  220.5060 C   0  0  0  0  0  0  0  0  0  0  0  0
  144.6490   73.7830  219.1010 C   0  0  1  0  0  0  0  0  0  0  0  0
  145.3890   72.6330  219.1370 O   0  0  0  0  0  0  0  0  0  0  0  0
  143.2880   73.6560  218.4590 C   0  0  0  0  0  0  0  0  0  0  0  0
  142.4970   73.0450  219.4950 N   0  0  0  0  0  0  0  0  0  0  0  0
  141.5850   71.9890  219.5650 C   0  0  0  0  0  0  0  0  0  0  0  0
  141.8140   71.0200  218.7050 O   0  0  0  0  0  0  0  0  0  0  0  0
  140.4310   71.7400  220.4030 C   0  0  0  0  0  0  0  0  0  0  0  0
  140.5560   71.0320  221.6300 N   0  0  0  0  0  0  0  0  0  0  0  0
  140.2710   71.7640  222.8440 C   0  0  0  0  0  0  0  0  0  0  0  0
  139.9330   72.9630  222.6720 O   0  0  0  0  0  0  0  0  0  0  0  0
  140.3720   71.1450  224.1570 C   0  0  0  0  0  0  0  0  0  0  0  0
  140.9150   71.9020  225.1710 C   0  0  0  0  0  0  0  0  0  0  0  0
  141.0400   71.3740  226.4400 C   0  0  0  0  0  0  0  0  0  0  0  0
  140.6160   70.0750  226.6940 C   0  0  0  0  0  0  0  0  0  0  0  0
  140.7500   69.5610  227.9710 C   0  0  0  0  0  0  0  0  0  0  0  0
  140.3140   68.2600  228.1810 C   0  0  0  0  0  0  0  0  0  0  0  0
  140.4490   67.7650  229.4390 F   0  0  0  0  0  0  0  0  0  0  0  0
  139.7680   67.4970  227.1630 C   0  0  0  0  0  0  0  0  0  0  0  0
  139.6570   68.0600  225.8960 C   0  0  0  0  0  0  0  0  0  0  0  0
  140.0780   69.3470  225.6520 C   0  0  0  0  0  0  0  0  0  0  0  0
  139.9660   69.8860  224.4200 N   0  0  0  0  0  0  0  0  0  0  0  0
  141.4010   77.8850  222.5260 C   0  0  0  0  0  0  0  0  0  0  0  0
  141.7930   78.8070  223.5050 C   0  0  0  0  0  0  0  0  0  0  0  0
  142.4752   80.6610  225.1912 H   0  0  0  0  0  0  0  0  0  0  0  0
  143.7155   81.2859  224.0520 H   0  0  0  0  0  0  0  0  0  0  0  0
  142.0616   81.9868  224.0520 H   0  0  0  0  0  0  0  0  0  0  0  0
  142.6000   81.4005  221.5458 H   0  0  0  0  0  0  0  0  0  0  0  0
  141.9154   79.8008  219.8132 H   0  0  0  0  0  0  0  0  0  0  0  0
  140.0320   76.8393  220.5154 H   0  0  0  0  0  0  0  0  0  0  0  0
  141.0154   77.7379  219.2301 H   0  0  0  0  0  0  0  0  0  0  0  0
  142.5270   76.0560  219.1880 H   0  0  0  0  0  0  0  0  0  0  0  0
  142.7443   73.2570  221.6171 H   0  0  0  0  0  0  0  0  0  0  0  0
  144.4213   75.3074  220.6141 H   0  0  0  0  0  0  0  0  0  0  0  0
  144.9442   73.7467  221.2574 H   0  0  0  0  0  0  0  0  0  0  0  0
  145.2905   74.4697  218.5292 H   0  0  0  0  0  0  0  0  0  0  0  0
  144.8030   71.8620  219.0500 H   0  0  0  0  0  0  0  0  0  0  0  0
  142.8865   74.6428  218.1850 H   0  0  0  0  0  0  0  0  0  0  0  0
  143.3018   73.0754  217.5248 H   0  0  0  0  0  0  0  0  0  0  0  0
  140.0068   72.7240  220.6515 H   0  0  0  0  0  0  0  0  0  0  0  0
  139.8291   71.0545  219.7884 H   0  0  0  0  0  0  0  0  0  0  0  0
  140.8350   70.0340  221.7430 H   0  0  0  0  0  0  0  0  0  0  0  0
  141.2500   72.9301  224.9691 H   0  0  0  0  0  0  0  0  0  0  0  0
  141.4743   71.9800  227.2488 H   0  0  0  0  0  0  0  0  0  0  0  0
  141.1841   70.1584  228.7863 H   0  0  0  0  0  0  0  0  0  0  0  0
  139.4293   66.4677  227.3521 H   0  0  0  0  0  0  0  0  0  0  0  0
  139.2258   67.4669  225.0760 H   0  0  0  0  0  0  0  0  0  0  0  0
  141.0613   76.8830  222.8268 H   0  0  0  0  0  0  0  0  0  0  0  0
  141.7569   78.5193  224.5661 H   0  0  0  0  0  0  0  0  0  0  0  0
  1  2  1  0
  2  3  2  0
  3  4  1  0
  4  5  2  0
  5  6  1  0
  6  7  1  0
  7  8  1  0
  8  9  2  0
  8 10  1  0
 10 11  1  0
 11 12  1  0
 12 13  1  0
 12 14  1  0
 14 15  1  0
 15 16  1  0
 16 17  2  0
 16 18  1  0
 18 19  1  0
 19 20  1  0
 20 21  2  0
 20 22  1  0
 22 23  2  0
 23 24  1  0
 24 25  2  0
 25 26  1  0
 26 27  2  0
 27 28  1  0
 27 29  1  0
 29 30  2  0
 30 31  1  0
 31 32  2  0
  5 33  1  0
 33 34  2  0
 34  2  1  0
 15 10  1  0
 32 22  1  0
 31 25  1  0
  1 35  1  0
  1 36  1  0
  1 37  1  0
  3 38  1  0
  4 39  1  0
  6 40  1  0
  6 41  1  0
  7 42  1  0
 10 43  1  1
 11 44  1  0
 11 45  1  0
 12 46  1  6
 13 47  1  0
 14 48  1  0
 14 49  1  0
 18 50  1  0
 18 51  1  0
 19 52  1  0
 23 53  1  0
 24 54  1  0
 26 55  1  0
 29 56  1  0
 30 57  1  0
 33 58  1  0
 34 59  1  0
M  END
>  <smiles>  (3) 
Cc1ccc(CNC(=O)C2C[C@@H](O)CN2C(=O)CNC(=O)c2ccc3cc(F)ccc3n2)cc1

>  <score_type>  (3) 
oracle

>  <origin>  (3) 
autodockgpu

>  <m_score__min__energy>  (3) 
-9.8499999999999996

>  <m_primary>  (3) 
energy

>  <meeko>  (3) 
{"free_energy": -8.88, "intermolecular_energy": -11.27, "internal_energy": -1.76, "cluster_size": 5, "cluster_id": 1, "rank_in_cluster": 3}

>  <energy>  (3) 
-8.88

>  <cluster_rmsd>  (3) 
1.16

>  <rmsd>  (3) 
271.28

>  <cluster>  (3) 
1

$$$$

     RDKit          3D

 59 62  0  0  1  0  0  0  0  0999 V2000
  139.3240   82.0960  220.9030 C   0  0  0  0  0  0  0  0  0  0  0  0
  140.0760   80.9310  220.3370 C   0  0  0  0  0  0  0  0  0  0  0  0
  141.4410   80.9960  220.2780 C   0  0  0  0  0  0  0  0  0  0  0  0
  142.1710   79.9440  219.7640 C   0  0  0  0  0  0  0  0  0  0  0  0
  141.5750   78.7940  219.2930 C   0  0  0  0  0  0  0  0  0  0  0  0
  142.2860   77.6420  218.7370 C   0  0  0  0  0  0  0  0  0  0  0  0
  142.7360   76.6610  219.6690 N   0  0  0  0  0  0  0  0  0  0  0  0
  143.4600   75.4840  219.3350 C   0  0  0  0  0  0  0  0  0  0  0  0
  143.7580   75.2370  218.1140 O   0  0  0  0  0  0  0  0  0  0  0  0
  143.9100   74.4940  220.3250 C   0  0  2  0  0  0  0  0  0  0  0  0
  145.3070   74.7080  220.8130 C   0  0  0  0  0  0  0  0  0  0  0  0
  146.0800   73.4860  220.3670 C   0  0  1  0  0  0  0  0  0  0  0  0
  146.2810   72.6430  221.4260 O   0  0  0  0  0  0  0  0  0  0  0  0
  145.2020   72.9420  219.2660 C   0  0  0  0  0  0  0  0  0  0  0  0
  143.8750   73.1110  219.7980 N   0  0  0  0  0  0  0  0  0  0  0  0
  142.7280   72.3170  219.8960 C   0  0  0  0  0  0  0  0  0  0  0  0
  142.9710   71.0430  220.1100 O   0  0  0  0  0  0  0  0  0  0  0  0
  141.3150   72.6170  219.8130 C   0  0  0  0  0  0  0  0  0  0  0  0
  140.8230   73.9170  220.1180 N   0  0  0  0  0  0  0  0  0  0  0  0
  140.7100   74.2670  221.5150 C   0  0  0  0  0  0  0  0  0  0  0  0
  141.0720   73.3680  222.3170 O   0  0  0  0  0  0  0  0  0  0  0  0
  140.2120   75.5650  221.9450 C   0  0  0  0  0  0  0  0  0  0  0  0
  138.8460   75.7420  221.9640 C   0  0  0  0  0  0  0  0  0  0  0  0
  138.3100   76.9500  222.3620 C   0  0  0  0  0  0  0  0  0  0  0  0
  139.1500   77.9890  222.7430 C   0  0  0  0  0  0  0  0  0  0  0  0
  138.5950   79.1930  223.1380 C   0  0  0  0  0  0  0  0  0  0  0  0
  139.4710   80.2040  223.5110 C   0  0  0  0  0  0  0  0  0  0  0  0
  138.9160   81.3820  223.8970 F   0  0  0  0  0  0  0  0  0  0  0  0
  140.8440   80.0280  223.4930 C   0  0  0  0  0  0  0  0  0  0  0  0
  141.3510   78.7980  223.0870 C   0  0  0  0  0  0  0  0  0  0  0  0
  140.5130   77.7740  222.7110 C   0  0  0  0  0  0  0  0  0  0  0  0
  141.0130   76.5840  222.3190 N   0  0  0  0  0  0  0  0  0  0  0  0
  140.1840   78.7390  219.3590 C   0  0  0  0  0  0  0  0  0  0  0  0
  139.4500   79.8120  219.8820 C   0  0  0  0  0  0  0  0  0  0  0  0
  139.3525   82.0519  222.0017 H   0  0  0  0  0  0  0  0  0  0  0  0
  139.7882   83.0329  220.5615 H   0  0  0  0  0  0  0  0  0  0  0  0
  138.2790   82.0588  220.5615 H   0  0  0  0  0  0  0  0  0  0  0  0
  141.9608   81.8940  220.6432 H   0  0  0  0  0  0  0  0  0  0  0  0
  143.2674   80.0260  219.7289 H   0  0  0  0  0  0  0  0  0  0  0  0
  141.6100   77.1430  218.0270 H   0  0  0  0  0  0  0  0  0  0  0  0
  143.2000   78.0547  218.2851 H   0  0  0  0  0  0  0  0  0  0  0  0
  142.5330   76.7850  220.7030 H   0  0  0  0  0  0  0  0  0  0  0  0
  143.1983   74.6327  221.1522 H   0  0  0  0  0  0  0  0  0  0  0  0
  145.7352   75.6180  220.3674 H   0  0  0  0  0  0  0  0  0  0  0  0
  145.3435   74.8393  221.9045 H   0  0  0  0  0  0  0  0  0  0  0  0
  147.1010   73.6683  220.0006 H   0  0  0  0  0  0  0  0  0  0  0  0
  145.6040   71.9450  221.4240 H   0  0  0  0  0  0  0  0  0  0  0  0
  145.3316   73.5161  218.3367 H   0  0  0  0  0  0  0  0  0  0  0  0
  145.4338   71.8998  219.0012 H   0  0  0  0  0  0  0  0  0  0  0  0
  141.0098   72.4018  218.7784 H   0  0  0  0  0  0  0  0  0  0  0  0
  140.8891   72.0017  220.6192 H   0  0  0  0  0  0  0  0  0  0  0  0
  140.5330   74.6450  219.4300 H   0  0  0  0  0  0  0  0  0  0  0  0
  138.1814   74.9193  221.6615 H   0  0  0  0  0  0  0  0  0  0  0  0
  137.2191   77.0900  222.3775 H   0  0  0  0  0  0  0  0  0  0  0  0
  137.5055   79.3433  223.1559 H   0  0  0  0  0  0  0  0  0  0  0  0
  141.5192   80.8429  223.7931 H   0  0  0  0  0  0  0  0  0  0  0  0
  142.4396   78.6416  223.0663 H   0  0  0  0  0  0  0  0  0  0  0  0
  139.6568   77.8441  218.9968 H   0  0  0  0  0  0  0  0  0  0  0  0
  138.3527   79.7487  219.9253 H   0  0  0  0  0  0  0  0  0  0  0  0
  1  2  1  0
  2  3  2  0
  3  4  1  0
  4  5  2  0
  5  6  1  0
  6  7  1  0
  7  8  1  0
  8  9  2  0
  8 10  1  0
 10 11  1  0
 11 12  1  0
 12 13  1  0
 12 14  1  0
 14 15  1  0
 15 16  1  0
 16 17  2  0
 16 18  1  0
 18 19  1  0
 19 20  1  0
 20 21  2  0
 20 22  1  0
 22 23  2  0
 23 24  1  0
 24 25  2  0
 25 26  1  0
 26 27  2  0
 27 28  1  0
 27 29  1  0
 29 30  2  0
 30 31  1  0
 31 32  2  0
  5 33  1  0
 33 34  2  0
 34  2  1  0
 15 10  1  0
 32 22  1  0
 31 25  1  0
  1 35  1  0
  1 36  1  0
  1 37  1  0
  3 38  1  0
  4 39  1  0
  6 40  1  0
  6 41  1  0
  7 42  1  0
 10 43  1  1
 11 44  1  0
 11 45  1  0
 12 46  1  6
 13 47  1  0
 14 48  1  0
 14 49  1  0
 18 50  1  0
 18 51  1  0
 19 52  1  0
 23 53  1  0
 24 54  1  0
 26 55  1  0
 29 56  1  0
 30 57  1  0
 33 58  1  0
 34 59  1  0
M  END
>  <smiles>  (4) 
Cc1ccc(CNC(=O)C2C[C@@H](O)CN2C(=O)CNC(=O)c2ccc3cc(F)ccc3n2)cc1

>  <score_type>  (4) 
oracle

>  <origin>  (4) 
autodockgpu

>  <m_score__min__energy>  (4) 
-9.8499999999999996

>  <m_primary>  (4) 
energy

>  <meeko>  (4) 
{"free_energy": -6.77, "intermolecular_energy": -9.15, "internal_energy": -4.03, "cluster_size": 2, "cluster_id": 6, "rank_in_cluster": 1}

>  <energy>  (4) 
-8.84

>  <cluster_rmsd>  (4) 
1.61

>  <rmsd>  (4) 
271.36

>  <cluster>  (4) 
1

$$$$

     RDKit          3D

 59 62  0  0  1  0  0  0  0  0999 V2000
  142.2210   81.6440  224.1590 C   0  0  0  0  0  0  0  0  0  0  0  0
  141.7060   80.3980  223.5070 C   0  0  0  0  0  0  0  0  0  0  0  0
  140.4630   79.9420  223.8500 C   0  0  0  0  0  0  0  0  0  0  0  0
  139.9530   78.7980  223.2720 C   0  0  0  0  0  0  0  0  0  0  0  0
  140.6540   78.0690  222.3360 C   0  0  0  0  0  0  0  0  0  0  0  0
  140.1750   76.8500  221.6840 C   0  0  0  0  0  0  0  0  0  0  0  0
  141.1050   76.1670  220.8450 N   0  0  0  0  0  0  0  0  0  0  0  0
  141.5210   74.8180  221.0090 C   0  0  0  0  0  0  0  0  0  0  0  0
  141.0540   74.1140  221.9710 O   0  0  0  0  0  0  0  0  0  0  0  0
  142.4820   74.1470  220.1210 C   0  0  2  0  0  0  0  0  0  0  0  0
  143.5110   73.3320  220.8390 C   0  0  0  0  0  0  0  0  0  0  0  0
  144.8370   73.9880  220.5220 C   0  0  1  0  0  0  0  0  0  0  0  0
  145.5120   73.2570  219.5830 O   0  0  0  0  0  0  0  0  0  0  0  0
  144.4080   75.3670  220.0810 C   0  0  0  0  0  0  0  0  0  0  0  0
  143.2400   75.1030  219.2820 N   0  0  0  0  0  0  0  0  0  0  0  0
  142.7640   75.5220  218.0370 C   0  0  0  0  0  0  0  0  0  0  0  0
  141.7960   74.7770  217.5500 O   0  0  0  0  0  0  0  0  0  0  0  0
  143.1220   76.6230  217.1680 C   0  0  0  0  0  0  0  0  0  0  0  0
  143.0070   77.9700  217.6070 N   0  0  0  0  0  0  0  0  0  0  0  0
  141.7700   78.3500  218.2510 C   0  0  0  0  0  0  0  0  0  0  0  0
  140.9230   77.4260  218.3560 O   0  0  0  0  0  0  0  0  0  0  0  0
  141.5380   79.7030  218.7340 C   0  0  0  0  0  0  0  0  0  0  0  0
  142.2960   80.7100  218.1790 C   0  0  0  0  0  0  0  0  0  0  0  0
  142.1240   82.0150  218.5940 C   0  0  0  0  0  0  0  0  0  0  0  0
  141.1850   82.3130  219.5740 C   0  0  0  0  0  0  0  0  0  0  0  0
  141.0270   83.6260  219.9780 C   0  0  0  0  0  0  0  0  0  0  0  0
  140.0790   83.8790  220.9590 C   0  0  0  0  0  0  0  0  0  0  0  0
  139.9310   85.1720  221.3490 F   0  0  0  0  0  0  0  0  0  0  0  0
  139.3160   82.8680  221.5190 C   0  0  0  0  0  0  0  0  0  0  0  0
  139.5140   81.5640  221.0780 C   0  0  0  0  0  0  0  0  0  0  0  0
  140.4450   81.2770  220.1070 C   0  0  0  0  0  0  0  0  0  0  0  0
  140.6310   80.0090  219.6840 N   0  0  0  0  0  0  0  0  0  0  0  0
  141.9180   78.5430  221.9940 C   0  0  0  0  0  0  0  0  0  0  0  0
  142.4300   79.7050  222.5860 C   0  0  0  0  0  0  0  0  0  0  0  0
  142.1746   81.5318  225.2523 H   0  0  0  0  0  0  0  0  0  0  0  0
  143.2634   81.8146  223.8518 H   0  0  0  0  0  0  0  0  0  0  0  0
  141.6033   82.5008  223.8518 H   0  0  0  0  0  0  0  0  0  0  0  0
  139.8655   80.4916  224.5923 H   0  0  0  0  0  0  0  0  0  0  0  0
  138.9508   78.4554  223.5689 H   0  0  0  0  0  0  0  0  0  0  0  0
  139.8612   76.1507  222.4730 H   0  0  0  0  0  0  0  0  0  0  0  0
  139.3663   77.1778  221.0142 H   0  0  0  0  0  0  0  0  0  0  0  0
  141.5420   76.6750  220.0220 H   0  0  0  0  0  0  0  0  0  0  0  0
  141.8402   73.4922  219.5133 H   0  0  0  0  0  0  0  0  0  0  0  0
  143.3246   73.3453  221.9230 H   0  0  0  0  0  0  0  0  0  0  0  0
  143.4906   72.2783  220.5240 H   0  0  0  0  0  0  0  0  0  0  0  0
  145.5569   74.0470  221.3517 H   0  0  0  0  0  0  0  0  0  0  0  0
  145.9700   73.8550  218.9680 H   0  0  0  0  0  0  0  0  0  0  0  0
  144.1604   75.9995  220.9462 H   0  0  0  0  0  0  0  0  0  0  0  0
  145.1927   75.9110  219.5349 H   0  0  0  0  0  0  0  0  0  0  0  0
  144.1761   76.4732  216.8916 H   0  0  0  0  0  0  0  0  0  0  0  0
  142.3623   76.5617  216.3748 H   0  0  0  0  0  0  0  0  0  0  0  0
  143.7300   78.7160  217.5100 H   0  0  0  0  0  0  0  0  0  0  0  0
  143.0397   80.4738  217.4037 H   0  0  0  0  0  0  0  0  0  0  0  0
  142.7296   82.8184  218.1494 H   0  0  0  0  0  0  0  0  0  0  0  0
  141.6280   84.4364  219.5397 H   0  0  0  0  0  0  0  0  0  0  0  0
  138.5697   83.0915  222.2956 H   0  0  0  0  0  0  0  0  0  0  0  0
  138.9165   80.7491  221.5127 H   0  0  0  0  0  0  0  0  0  0  0  0
  142.5206   77.9995  221.2514 H   0  0  0  0  0  0  0  0  0  0  0  0
  143.4310   80.0623  222.3025 H   0  0  0  0  0  0  0  0  0  0  0  0
  1  2  1  0
  2  3  2  0
  3  4  1  0
  4  5  2  0
  5  6  1  0
  6  7  1  0
  7  8  1  0
  8  9  2  0
  8 10  1  0
 10 11  1  0
 11 12  1  0
 12 13  1  0
 12 14  1  0
 14 15  1  0
 15 16  1  0
 16 17  2  0
 16 18  1  0
 18 19  1  0
 19 20  1  0
 20 21  2  0
 20 22  1  0
 22 23  2  0
 23 24  1  0
 24 25  2  0
 25 26  1  0
 26 27  2  0
 27 28  1  0
 27 29  1  0
 29 30  2  0
 30 31  1  0
 31 32  2  0
  5 33  1  0
 33 34  2  0
 34  2  1  0
 15 10  1  0
 32 22  1  0
 31 25  1  0
  1 35  1  0
  1 36  1  0
  1 37  1  0
  3 38  1  0
  4 39  1  0
  6 40  1  0
  6 41  1  0
  7 42  1  0
 10 43  1  6
 11 44  1  0
 11 45  1  0
 12 46  1  1
 13 47  1  0
 14 48  1  0
 14 49  1  0
 18 50  1  0
 18 51  1  0
 19 52  1  0
 23 53  1  0
 24 54  1  0
 26 55  1  0
 29 56  1  0
 30 57  1  0
 33 58  1  0
 34 59  1  0
M  END
>  <smiles>  (5) 
Cc1ccc(CNC(=O)C2C[C@@H](O)CN2C(=O)CNC(=O)c2ccc3cc(F)ccc3n2)cc1

>  <score_type>  (5) 
oracle

>  <origin>  (5) 
autodockgpu

>  <m_score__min__energy>  (5) 
-9.8499999999999996

>  <m_primary>  (5) 
energy

>  <meeko>  (5) 
{"free_energy": -7.07, "intermolecular_energy": -9.46, "internal_energy": -3.8, "cluster_size": 3, "cluster_id": 5, "rank_in_cluster": 2}

>  <energy>  (5) 
-7.83

>  <cluster_rmsd>  (5) 
1.81

>  <rmsd>  (5) 
270.97

>  <cluster>  (5) 
1

$$$$

     RDKit          3D

 59 62  0  0  1  0  0  0  0  0999 V2000
  142.2300   70.4070  219.0140 C   0  0  0  0  0  0  0  0  0  0  0  0
  141.7160   71.6410  219.6890 C   0  0  0  0  0  0  0  0  0  0  0  0
  140.9400   72.5090  218.9710 C   0  0  0  0  0  0  0  0  0  0  0  0
  140.4470   73.6570  219.5550 C   0  0  0  0  0  0  0  0  0  0  0  0
  140.7050   73.9840  220.8690 C   0  0  0  0  0  0  0  0  0  0  0  0
  140.2150   75.1810  221.5520 C   0  0  0  0  0  0  0  0  0  0  0  0
  141.1350   76.2640  221.6800 N   0  0  0  0  0  0  0  0  0  0  0  0
  140.7790   77.6180  221.9240 C   0  0  0  0  0  0  0  0  0  0  0  0
  139.5480   77.9480  222.0460 O   0  0  0  0  0  0  0  0  0  0  0  0
  141.7580   78.7090  222.0510 C   0  0  2  0  0  0  0  0  0  0  0  0
  142.2070   78.9670  223.4540 C   0  0  0  0  0  0  0  0  0  0  0  0
  141.7410   80.3710  223.7730 C   0  0  1  0  0  0  0  0  0  0  0  0
  142.7960   81.2410  223.7160 O   0  0  0  0  0  0  0  0  0  0  0  0
  140.6660   80.5890  222.7370 C   0  0  0  0  0  0  0  0  0  0  0  0
  141.2340   80.0000  221.5520 N   0  0  0  0  0  0  0  0  0  0  0  0
  141.3640   80.3770  220.2120 C   0  0  0  0  0  0  0  0  0  0  0  0
  141.2170   81.6660  219.9980 O   0  0  0  0  0  0  0  0  0  0  0  0
  141.6340   79.6290  219.0030 C   0  0  0  0  0  0  0  0  0  0  0  0
  142.5540   78.5450  219.0030 N   0  0  0  0  0  0  0  0  0  0  0  0
  142.0020   77.2130  218.9060 C   0  0  0  0  0  0  0  0  0  0  0  0
  140.7470   77.1650  218.8260 O   0  0  0  0  0  0  0  0  0  0  0  0
  142.8460   76.0280  218.9040 C   0  0  0  0  0  0  0  0  0  0  0  0
  142.9010   75.2940  217.7390 C   0  0  0  0  0  0  0  0  0  0  0  0
  143.6830   74.1590  217.6720 C   0  0  0  0  0  0  0  0  0  0  0  0
  144.4170   73.7570  218.7810 C   0  0  0  0  0  0  0  0  0  0  0  0
  145.1950   72.6160  218.6950 C   0  0  0  0  0  0  0  0  0  0  0  0
  145.9130   72.2500  219.8260 C   0  0  0  0  0  0  0  0  0  0  0  0
  146.6740   71.1290  219.7310 F   0  0  0  0  0  0  0  0  0  0  0  0
  145.8600   72.9860  220.9970 C   0  0  0  0  0  0  0  0  0  0  0  0
  145.0620   74.1250  221.0310 C   0  0  0  0  0  0  0  0  0  0  0  0
  144.3380   74.5170  219.9290 C   0  0  0  0  0  0  0  0  0  0  0  0
  143.5660   75.6230  219.9710 N   0  0  0  0  0  0  0  0  0  0  0  0
  141.4950   73.0920  221.5910 C   0  0  0  0  0  0  0  0  0  0  0  0
  141.9920   71.9290  220.9900 C   0  0  0  0  0  0  0  0  0  0  0  0
  142.5356   69.6733  219.7745 H   0  0  0  0  0  0  0  0  0  0  0  0
  141.4369   69.9753  218.3859 H   0  0  0  0  0  0  0  0  0  0  0  0
  143.0951   70.6660  218.3859 H   0  0  0  0  0  0  0  0  0  0  0  0
  140.7072   72.2894  217.9186 H   0  0  0  0  0  0  0  0  0  0  0  0
  139.8263   74.3353  218.9512 H   0  0  0  0  0  0  0  0  0  0  0  0
  139.3411   75.5493  220.9947 H   0  0  0  0  0  0  0  0  0  0  0  0
  139.9991   74.8600  222.5817 H   0  0  0  0  0  0  0  0  0  0  0  0
  142.1770   76.0820  221.5930 H   0  0  0  0  0  0  0  0  0  0  0  0
  142.6042   78.3521  221.4455 H   0  0  0  0  0  0  0  0  0  0  0  0
  141.7487   78.2432  224.1440 H   0  0  0  0  0  0  0  0  0  0  0  0
  143.2969   78.8635  223.5604 H   0  0  0  0  0  0  0  0  0  0  0  0
  141.3455   80.5304  224.7870 H   0  0  0  0  0  0  0  0  0  0  0  0
  142.8950   81.5780  222.8090 H   0  0  0  0  0  0  0  0  0  0  0  0
  139.7329   80.0813  223.0226 H   0  0  0  0  0  0  0  0  0  0  0  0
  140.3962   81.6476  222.6083 H   0  0  0  0  0  0  0  0  0  0  0  0
  140.6698   79.2209  218.6657 H   0  0  0  0  0  0  0  0  0  0  0  0
  142.1355   80.3721  218.3656 H   0  0  0  0  0  0  0  0  0  0  0  0
  143.5930   78.6150  219.0660 H   0  0  0  0  0  0  0  0  0  0  0  0
  142.3205   75.6134  216.8609 H   0  0  0  0  0  0  0  0  0  0  0  0
  143.7252   73.5733  216.7418 H   0  0  0  0  0  0  0  0  0  0  0  0
  145.2428   72.0235  217.7694 H   0  0  0  0  0  0  0  0  0  0  0  0
  146.4363   72.6770  221.8815 H   0  0  0  0  0  0  0  0  0  0  0  0
  145.0091   74.7216  221.9537 H   0  0  0  0  0  0  0  0  0  0  0  0
  141.7308   73.3036  222.6444 H   0  0  0  0  0  0  0  0  0  0  0  0
  142.6144   71.2384  221.5779 H   0  0  0  0  0  0  0  0  0  0  0  0
  1  2  1  0
  2  3  2  0
  3  4  1  0
  4  5  2  0
  5  6  1  0
  6  7  1  0
  7  8  1  0
  8  9  2  0
  8 10  1  0
 10 11  1  0
 11 12  1  0
 12 13  1  0
 12 14  1  0
 14 15  1  0
 15 16  1  0
 16 17  2  0
 16 18  1  0
 18 19  1  0
 19 20  1  0
 20 21  2  0
 20 22  1  0
 22 23  2  0
 23 24  1  0
 24 25  2  0
 25 26  1  0
 26 27  2  0
 27 28  1  0
 27 29  1  0
 29 30  2  0
 30 31  1  0
 31 32  2  0
  5 33  1  0
 33 34  2  0
 34  2  1  0
 15 10  1  0
 32 22  1  0
 31 25  1  0
  1 35  1  0
  1 36  1  0
  1 37  1  0
  3 38  1  0
  4 39  1  0
  6 40  1  0
  6 41  1  0
  7 42  1  0
 10 43  1  6
 11 44  1  0
 11 45  1  0
 12 46  1  1
 13 47  1  0
 14 48  1  0
 14 49  1  0
 18 50  1  0
 18 51  1  0
 19 52  1  0
 23 53  1  0
 24 54  1  0
 26 55  1  0
 29 56  1  0
 30 57  1  0
 33 58  1  0
 34 59  1  0
M  END
>  <smiles>  (6) 
Cc1ccc(CNC(=O)C2C[C@@H](O)CN2C(=O)CNC(=O)c2ccc3cc(F)ccc3n2)cc1

>  <score_type>  (6) 
oracle

>  <origin>  (6) 
autodockgpu

>  <m_score__min__energy>  (6) 
-9.8499999999999996

>  <m_primary>  (6) 
energy

>  <meeko>  (6) 
{"free_energy": -6.47, "intermolecular_energy": -8.86, "internal_energy": -4.26, "cluster_size": 3, "cluster_id": 7, "rank_in_cluster": 2}

>  <energy>  (6) 
-8.06

>  <cluster_rmsd>  (6) 
0.0

>  <rmsd>  (6) 
271.02

>  <cluster>  (6) 
2

$$$$

     RDKit          3D

 59 62  0  0  1  0  0  0  0  0999 V2000
  142.5710   81.4820  224.2110 C   0  0  0  0  0  0  0  0  0  0  0  0
  142.1870   80.5120  223.1370 C   0  0  0  0  0  0  0  0  0  0  0  0
  141.8090   79.2480  223.4960 C   0  0  0  0  0  0  0  0  0  0  0  0
  141.4470   78.3250  222.5370 C   0  0  0  0  0  0  0  0  0  0  0  0
  141.4470   78.6230  221.1910 C   0  0  0  0  0  0  0  0  0  0  0  0
  141.0750   77.6950  220.1220 C   0  0  0  0  0  0  0  0  0  0  0  0
  140.7370   76.3680  220.5190 N   0  0  0  0  0  0  0  0  0  0  0  0
  141.6550   75.2900  220.6490 C   0  0  0  0  0  0  0  0  0  0  0  0
  142.8980   75.4720  220.4020 O   0  0  0  0  0  0  0  0  0  0  0  0
  141.2680   73.9340  221.0630 C   0  0  2  0  0  0  0  0  0  0  0  0
  142.3230   72.8990  220.8320 C   0  0  0  0  0  0  0  0  0  0  0  0
  141.7310   71.9390  219.8250 C   0  0  1  0  0  0  0  0  0  0  0  0
  141.3270   70.7900  220.4490 O   0  0  0  0  0  0  0  0  0  0  0  0
  140.6250   72.7650  219.2130 C   0  0  0  0  0  0  0  0  0  0  0  0
  140.0650   73.4470  220.3510 N   0  0  0  0  0  0  0  0  0  0  0  0
  138.7760   73.6910  220.8350 C   0  0  0  0  0  0  0  0  0  0  0  0
  138.3380   74.9100  220.6080 O   0  0  0  0  0  0  0  0  0  0  0  0
  137.8170   72.8670  221.5380 C   0  0  0  0  0  0  0  0  0  0  0  0
  138.1510   72.2460  222.7730 N   0  0  0  0  0  0  0  0  0  0  0  0
  138.8000   70.9560  222.7070 C   0  0  0  0  0  0  0  0  0  0  0  0
  139.0050   70.5250  221.5430 O   0  0  0  0  0  0  0  0  0  0  0  0
  139.1800   70.2250  223.9060 C   0  0  0  0  0  0  0  0  0  0  0  0
  138.9230   68.8720  223.9280 C   0  0  0  0  0  0  0  0  0  0  0  0
  139.2590   68.1200  225.0360 C   0  0  0  0  0  0  0  0  0  0  0  0
  139.8580   68.7310  226.1310 C   0  0  0  0  0  0  0  0  0  0  0  0
  140.1880   67.9630  227.2330 C   0  0  0  0  0  0  0  0  0  0  0  0
  140.7840   68.6120  228.3050 C   0  0  0  0  0  0  0  0  0  0  0  0
  141.1040   67.8490  229.3820 F   0  0  0  0  0  0  0  0  0  0  0  0
  141.0440   69.9720  228.2850 C   0  0  0  0  0  0  0  0  0  0  0  0
  140.6920   70.6990  227.1530 C   0  0  0  0  0  0  0  0  0  0  0  0
  140.1000   70.0880  226.0720 C   0  0  0  0  0  0  0  0  0  0  0  0
  139.7620   70.8010  224.9780 N   0  0  0  0  0  0  0  0  0  0  0  0
  141.8330   79.9130  220.8360 C   0  0  0  0  0  0  0  0  0  0  0  0
  142.1990   80.8450  221.8170 C   0  0  0  0  0  0  0  0  0  0  0  0
  142.3912   81.0279  225.1966 H   0  0  0  0  0  0  0  0  0  0  0  0
  143.6370   81.7348  224.1127 H   0  0  0  0  0  0  0  0  0  0  0  0
  141.9669   82.3960  224.1127 H   0  0  0  0  0  0  0  0  0  0  0  0
  141.7935   78.9647  224.5588 H   0  0  0  0  0  0  0  0  0  0  0  0
  141.1479   77.3161  222.8574 H   0  0  0  0  0  0  0  0  0  0  0  0
  140.2049   78.1191  219.5994 H   0  0  0  0  0  0  0  0  0  0  0  0
  141.9765   77.5915  219.5003 H   0  0  0  0  0  0  0  0  0  0  0  0
  139.7270   76.1270  220.7440 H   0  0  0  0  0  0  0  0  0  0  0  0
  141.0846   74.0495  222.1414 H   0  0  0  0  0  0  0  0  0  0  0  0
  143.2359   73.3631  220.4305 H   0  0  0  0  0  0  0  0  0  0  0  0
  142.6069   72.3895  221.7646 H   0  0  0  0  0  0  0  0  0  0  0  0
  142.4187   71.5689  219.0503 H   0  0  0  0  0  0  0  0  0  0  0  0
  140.3920   70.8670  220.7050 H   0  0  0  0  0  0  0  0  0  0  0  0
  141.0251   73.4810  218.4800 H   0  0  0  0  0  0  0  0  0  0  0  0
  139.8878   72.1631  218.6614 H   0  0  0  0  0  0  0  0  0  0  0  0
  136.9421   73.5041  221.7348 H   0  0  0  0  0  0  0  0  0  0  0  0
  137.6935   72.0086  220.8612 H   0  0  0  0  0  0  0  0  0  0  0  0
  137.9720   72.6290  223.7260 H   0  0  0  0  0  0  0  0  0  0  0  0
  138.4489   68.3894  223.0606 H   0  0  0  0  0  0  0  0  0  0  0  0
  139.0530   67.0396  225.0520 H   0  0  0  0  0  0  0  0  0  0  0  0
  139.9862   66.8820  227.2586 H   0  0  0  0  0  0  0  0  0  0  0  0
  141.5185   70.4663  229.1455 H   0  0  0  0  0  0  0  0  0  0  0  0
  140.8902   71.7805  227.1215 H   0  0  0  0  0  0  0  0  0  0  0  0
  141.8509   80.2035  219.7752 H   0  0  0  0  0  0  0  0  0  0  0  0
  142.5001   81.8593  221.5162 H   0  0  0  0  0  0  0  0  0  0  0  0
  1  2  1  0
  2  3  2  0
  3  4  1  0
  4  5  2  0
  5  6  1  0
  6  7  1  0
  7  8  1  0
  8  9  2  0
  8 10  1  0
 10 11  1  0
 11 12  1  0
 12 13  1  0
 12 14  1  0
 14 15  1  0
 15 16  1  0
 16 17  2  0
 16 18  1  0
 18 19  1  0
 19 20  1  0
 20 21  2  0
 20 22  1  0
 22 23  2  0
 23 24  1  0
 24 25  2  0
 25 26  1  0
 26 27  2  0
 27 28  1  0
 27 29  1  0
 29 30  2  0
 30 31  1  0
 31 32  2  0
  5 33  1  0
 33 34  2  0
 34  2  1  0
 15 10  1  0
 32 22  1  0
 31 25  1  0
  1 35  1  0
  1 36  1  0
  1 37  1  0
  3 38  1  0
  4 39  1  0
  6 40  1  0
  6 41  1  0
  7 42  1  0
 10 43  1  1
 11 44  1  0
 11 45  1  0
 12 46  1  6
 13 47  1  0
 14 48  1  0
 14 49  1  0
 18 50  1  0
 18 51  1  0
 19 52  1  0
 23 53  1  0
 24 54  1  0
 26 55  1  0
 29 56  1  0
 30 57  1  0
 33 58  1  0
 34 59  1  0
M  END
>  <smiles>  (7) 
Cc1ccc(CNC(=O)C2C[C@@H](O)CN2C(=O)CNC(=O)c2ccc3cc(F)ccc3n2)cc1

>  <score_type>  (7) 
oracle

>  <origin>  (7) 
autodockgpu

>  <m_score__min__energy>  (7) 
-9.8499999999999996

>  <m_primary>  (7) 
energy

>  <meeko>  (7) 
{"free_energy": -7.83, "intermolecular_energy": -10.21, "internal_energy": -3.2, "cluster_size": 5, "cluster_id": 1, "rank_in_cluster": 5}

>  <energy>  (7) 
-8.02

>  <cluster_rmsd>  (7) 
0.0

>  <rmsd>  (7) 
270.77

>  <cluster>  (7) 
3

$$$$

     RDKit          3D

 59 62  0  0  1  0  0  0  0  0999 V2000
  142.5110   82.0110  224.5000 C   0  0  0  0  0  0  0  0  0  0  0  0
  141.9040   80.7920  223.8780 C   0  0  0  0  0  0  0  0  0  0  0  0
  140.5430   80.7240  223.7570 C   0  0  0  0  0  0  0  0  0  0  0  0
  139.9440   79.6180  223.1900 C   0  0  0  0  0  0  0  0  0  0  0  0
  140.6710   78.5440  222.7240 C   0  0  0  0  0  0  0  0  0  0  0  0
  140.1030   77.3420  222.1120 C   0  0  0  0  0  0  0  0  0  0  0  0
  141.0160   76.4740  221.4440 N   0  0  0  0  0  0  0  0  0  0  0  0
  141.8370   76.8380  220.3420 C   0  0  0  0  0  0  0  0  0  0  0  0
  141.7920   78.0280  219.8720 O   0  0  0  0  0  0  0  0  0  0  0  0
  142.7690   75.9140  219.6780 C   0  0  2  0  0  0  0  0  0  0  0  0
  143.5210   76.5190  218.5360 C   0  0  0  0  0  0  0  0  0  0  0  0
  143.0820   75.7470  217.3110 C   0  0  1  0  0  0  0  0  0  0  0  0
  144.0540   74.8590  216.9400 O   0  0  0  0  0  0  0  0  0  0  0  0
  141.7850   75.1300  217.7770 C   0  0  0  0  0  0  0  0  0  0  0  0
  142.0870   74.7230  219.1250 N   0  0  0  0  0  0  0  0  0  0  0  0
  141.8840   73.5710  219.8900 C   0  0  0  0  0  0  0  0  0  0  0  0
  142.8820   73.2760  220.6950 O   0  0  0  0  0  0  0  0  0  0  0  0
  140.7870   72.6310  219.9820 C   0  0  0  0  0  0  0  0  0  0  0  0
  140.6750   71.7420  221.0850 N   0  0  0  0  0  0  0  0  0  0  0  0
  140.3670   72.3240  222.3720 C   0  0  0  0  0  0  0  0  0  0  0  0
  140.2260   73.5740  222.3670 O   0  0  0  0  0  0  0  0  0  0  0  0
  140.2350   71.5120  223.5720 C   0  0  0  0  0  0  0  0  0  0  0  0
  139.6040   70.2950  223.4440 C   0  0  0  0  0  0  0  0  0  0  0  0
  139.4460   69.4770  224.5440 C   0  0  0  0  0  0  0  0  0  0  0  0
  139.9250   69.8830  225.7840 C   0  0  0  0  0  0  0  0  0  0  0  0
  139.7570   69.0510  226.8760 C   0  0  0  0  0  0  0  0  0  0  0  0
  140.2500   69.4960  228.0950 C   0  0  0  0  0  0  0  0  0  0  0  0
  140.0810   68.6720  229.1610 F   0  0  0  0  0  0  0  0  0  0  0  0
  140.8850   70.7200  228.2260 C   0  0  0  0  0  0  0  0  0  0  0  0
  141.0270   71.5190  227.0970 C   0  0  0  0  0  0  0  0  0  0  0  0
  140.5510   71.1100  225.8730 C   0  0  0  0  0  0  0  0  0  0  0  0
  140.6940   71.8910  224.7820 N   0  0  0  0  0  0  0  0  0  0  0  0
  142.0560   78.6240  222.8520 C   0  0  0  0  0  0  0  0  0  0  0  0
  142.6560   79.7500  223.4290 C   0  0  0  0  0  0  0  0  0  0  0  0
  142.4676   81.9238  225.5957 H   0  0  0  0  0  0  0  0  0  0  0  0
  143.5597   82.1021  224.1807 H   0  0  0  0  0  0  0  0  0  0  0  0
  141.9517   82.9028  224.1807 H   0  0  0  0  0  0  0  0  0  0  0  0
  139.9212   81.5579  224.1147 H   0  0  0  0  0  0  0  0  0  0  0  0
  138.8474   79.5926  223.1070 H   0  0  0  0  0  0  0  0  0  0  0  0
  139.6125   76.7621  222.9077 H   0  0  0  0  0  0  0  0  0  0  0  0
  139.4243   77.7085  221.3278 H   0  0  0  0  0  0  0  0  0  0  0  0
  141.1190   75.4680  221.7670 H   0  0  0  0  0  0  0  0  0  0  0  0
  143.4657   75.6456  220.4858 H   0  0  0  0  0  0  0  0  0  0  0  0
  143.2684   77.5844  218.4303 H   0  0  0  0  0  0  0  0  0  0  0  0
  144.6091   76.4619  218.6870 H   0  0  0  0  0  0  0  0  0  0  0  0
  142.9289   76.3384  216.3962 H   0  0  0  0  0  0  0  0  0  0  0  0
  144.8800   75.0580  217.4140 H   0  0  0  0  0  0  0  0  0  0  0  0
  140.9680   75.8664  217.7598 H   0  0  0  0  0  0  0  0  0  0  0  0
  141.4452   74.3007  217.1392 H   0  0  0  0  0  0  0  0  0  0  0  0
  139.8625   73.2268  219.9655 H   0  0  0  0  0  0  0  0  0  0  0  0
  140.9817   71.9493  219.1409 H   0  0  0  0  0  0  0  0  0  0  0  0
  140.7930   70.7060  221.0590 H   0  0  0  0  0  0  0  0  0  0  0  0
  139.2249   69.9740  222.4625 H   0  0  0  0  0  0  0  0  0  0  0  0
  138.9417   68.5050  224.4397 H   0  0  0  0  0  0  0  0  0  0  0  0
  139.2538   68.0774  226.7825 H   0  0  0  0  0  0  0  0  0  0  0  0
  141.2685   71.0526  229.2018 H   0  0  0  0  0  0  0  0  0  0  0  0
  141.5283   72.4943  227.1841 H   0  0  0  0  0  0  0  0  0  0  0  0
  142.6845   77.7943  222.4962 H   0  0  0  0  0  0  0  0  0  0  0  0
  143.7513   79.7931  223.5208 H   0  0  0  0  0  0  0  0  0  0  0  0
  1  2  1  0
  2  3  2  0
  3  4  1  0
  4  5  2  0
  5  6  1  0
  6  7  1  0
  7  8  1  0
  8  9  2  0
  8 10  1  0
 10 11  1  0
 11 12  1  0
 12 13  1  0
 12 14  1  0
 14 15  1  0
 15 16  1  0
 16 17  2  0
 16 18  1  0
 18 19  1  0
 19 20  1  0
 20 21  2  0
 20 22  1  0
 22 23  2  0
 23 24  1  0
 24 25  2  0
 25 26  1  0
 26 27  2  0
 27 28  1  0
 27 29  1  0
 29 30  2  0
 30 31  1  0
 31 32  2  0
  5 33  1  0
 33 34  2  0
 34  2  1  0
 15 10  1  0
 32 22  1  0
 31 25  1  0
  1 35  1  0
  1 36  1  0
  1 37  1  0
  3 38  1  0
  4 39  1  0
  6 40  1  0
  6 41  1  0
  7 42  1  0
 10 43  1  1
 11 44  1  0
 11 45  1  0
 12 46  1  6
 13 47  1  0
 14 48  1  0
 14 49  1  0
 18 50  1  0
 18 51  1  0
 19 52  1  0
 23 53  1  0
 24 54  1  0
 26 55  1  0
 29 56  1  0
 30 57  1  0
 33 58  1  0
 34 59  1  0
M  END
>  <smiles>  (8) 
Cc1ccc(CNC(=O)C2C[C@@H](O)CN2C(=O)CNC(=O)c2ccc3cc(F)ccc3n2)cc1

>  <score_type>  (8) 
oracle

>  <origin>  (8) 
autodockgpu

>  <m_score__min__energy>  (8) 
-9.8499999999999996

>  <m_primary>  (8) 
energy

>  <meeko>  (8) 
{"free_energy": -8.84, "intermolecular_energy": -11.22, "internal_energy": -2.26, "cluster_size": 5, "cluster_id": 1, "rank_in_cluster": 4}

>  <energy>  (8) 
-7.98

>  <cluster_rmsd>  (8) 
0.72

>  <rmsd>  (8) 
270.67

>  <cluster>  (8) 
3

$$$$

     RDKit          3D

 59 62  0  0  1  0  0  0  0  0999 V2000
  142.9460   80.8390  224.2090 C   0  0  0  0  0  0  0  0  0  0  0  0
  142.2740   79.9640  223.1960 C   0  0  0  0  0  0  0  0  0  0  0  0
  141.6970   78.7970  223.6140 C   0  0  0  0  0  0  0  0  0  0  0  0
  141.0690   77.9640  222.7120 C   0  0  0  0  0  0  0  0  0  0  0  0
  140.9910   78.2570  221.3670 C   0  0  0  0  0  0  0  0  0  0  0  0
  140.3410   77.4210  220.3580 C   0  0  0  0  0  0  0  0  0  0  0  0
  140.0000   76.0930  220.7520 N   0  0  0  0  0  0  0  0  0  0  0  0
  140.9290   75.0450  220.9930 C   0  0  0  0  0  0  0  0  0  0  0  0
  142.1850   75.2560  220.8580 O   0  0  0  0  0  0  0  0  0  0  0  0
  140.5400   73.6870  221.4010 C   0  0  2  0  0  0  0  0  0  0  0  0
  141.6310   72.6730  221.2720 C   0  0  0  0  0  0  0  0  0  0  0  0
  141.1400   71.6820  220.2390 C   0  0  1  0  0  0  0  0  0  0  0  0
  140.7130   70.5360  220.8520 O   0  0  0  0  0  0  0  0  0  0  0  0
  140.0690   72.4730  219.5290 C   0  0  0  0  0  0  0  0  0  0  0  0
  139.4060   73.1610  220.6060 N   0  0  0  0  0  0  0  0  0  0  0  0
  138.0790   73.3850  220.9840 C   0  0  0  0  0  0  0  0  0  0  0  0
  137.5040   74.3910  220.3620 O   0  0  0  0  0  0  0  0  0  0  0  0
  137.2010   72.7260  221.9250 C   0  0  0  0  0  0  0  0  0  0  0  0
  137.7130   72.1200  223.1060 N   0  0  0  0  0  0  0  0  0  0  0  0
  138.3140   70.8130  222.9680 C   0  0  0  0  0  0  0  0  0  0  0  0
  138.3190   70.3540  221.7960 O   0  0  0  0  0  0  0  0  0  0  0  0
  138.8640   70.0950  224.1070 C   0  0  0  0  0  0  0  0  0  0  0  0
  138.7700   68.7210  224.0930 C   0  0  0  0  0  0  0  0  0  0  0  0
  139.2720   67.9820  225.1450 C   0  0  0  0  0  0  0  0  0  0  0  0
  139.8750   68.6250  226.2190 C   0  0  0  0  0  0  0  0  0  0  0  0
  140.3720   67.8680  227.2640 C   0  0  0  0  0  0  0  0  0  0  0  0
  140.9660   68.5500  228.3170 C   0  0  0  0  0  0  0  0  0  0  0  0
  141.4520   67.7980  229.3380 F   0  0  0  0  0  0  0  0  0  0  0  0
  141.0620   69.9310  228.3330 C   0  0  0  0  0  0  0  0  0  0  0  0
  140.5460   70.6460  227.2580 C   0  0  0  0  0  0  0  0  0  0  0  0
  139.9510   70.0030  226.1970 C   0  0  0  0  0  0  0  0  0  0  0  0
  139.4520   70.7040  225.1580 N   0  0  0  0  0  0  0  0  0  0  0  0
  141.5820   79.4490  220.9530 C   0  0  0  0  0  0  0  0  0  0  0  0
  142.2180   80.2900  221.8750 C   0  0  0  0  0  0  0  0  0  0  0  0
  142.6833   80.4969  225.2209 H   0  0  0  0  0  0  0  0  0  0  0  0
  144.0364   80.7843  224.0750 H   0  0  0  0  0  0  0  0  0  0  0  0
  142.6118   81.8784  224.0750 H   0  0  0  0  0  0  0  0  0  0  0  0
  141.7340   78.5204  224.6780 H   0  0  0  0  0  0  0  0  0  0  0  0
  140.6139   77.0322  223.0789 H   0  0  0  0  0  0  0  0  0  0  0  0
  139.4133   77.9271  220.0525 H   0  0  0  0  0  0  0  0  0  0  0  0
  141.0845   77.3036  219.5559 H   0  0  0  0  0  0  0  0  0  0  0  0
  138.9810   75.8300  220.8880 H   0  0  0  0  0  0  0  0  0  0  0  0
  140.2709   73.8160  222.4597 H   0  0  0  0  0  0  0  0  0  0  0  0
  142.5624   73.1509  220.9343 H   0  0  0  0  0  0  0  0  0  0  0  0
  141.8517   72.1857  222.2332 H   0  0  0  0  0  0  0  0  0  0  0  0
  141.8928   71.3136  219.5265 H   0  0  0  0  0  0  0  0  0  0  0  0
  139.7470   70.5630  220.9620 H   0  0  0  0  0  0  0  0  0  0  0  0
  140.5106   73.1859  218.8171 H   0  0  0  0  0  0  0  0  0  0  0  0
  139.3902   71.8453  218.9330 H   0  0  0  0  0  0  0  0  0  0  0  0
  136.4708   73.4807  222.2524 H   0  0  0  0  0  0  0  0  0  0  0  0
  136.8353   71.8626  221.3499 H   0  0  0  0  0  0  0  0  0  0  0  0
  137.6990   72.5270  224.0660 H   0  0  0  0  0  0  0  0  0  0  0  0
  138.2941   68.2118  223.2420 H   0  0  0  0  0  0  0  0  0  0  0  0
  139.1948   66.8848  225.1332 H   0  0  0  0  0  0  0  0  0  0  0  0
  140.2996   66.7704  227.2610 H   0  0  0  0  0  0  0  0  0  0  0  0
  141.5363   70.4514  229.1781 H   0  0  0  0  0  0  0  0  0  0  0  0
  140.6146   71.7439  227.2557 H   0  0  0  0  0  0  0  0  0  0  0  0
  141.5487   79.7326  219.8907 H   0  0  0  0  0  0  0  0  0  0  0  0
  142.6785   81.2265  221.5273 H   0  0  0  0  0  0  0  0  0  0  0  0
  1  2  1  0
  2  3  2  0
  3  4  1  0
  4  5  2  0
  5  6  1  0
  6  7  1  0
  7  8  1  0
  8  9  2  0
  8 10  1  0
 10 11  1  0
 11 12  1  0
 12 13  1  0
 12 14  1  0
 14 15  1  0
 15 16  1  0
 16 17  2  0
 16 18  1  0
 18 19  1  0
 19 20  1  0
 20 21  2  0
 20 22  1  0
 22 23  2  0
 23 24  1  0
 24 25  2  0
 25 26  1  0
 26 27  2  0
 27 28  1  0
 27 29  1  0
 29 30  2  0
 30 31  1  0
 31 32  2  0
  5 33  1  0
 33 34  2  0
 34  2  1  0
 15 10  1  0
 32 22  1  0
 31 25  1  0
  1 35  1  0
  1 36  1  0
  1 37  1  0
  3 38  1  0
  4 39  1  0
  6 40  1  0
  6 41  1  0
  7 42  1  0
 10 43  1  1
 11 44  1  0
 11 45  1  0
 12 46  1  6
 13 47  1  0
 14 48  1  0
 14 49  1  0
 18 50  1  0
 18 51  1  0
 19 52  1  0
 23 53  1  0
 24 54  1  0
 26 55  1  0
 29 56  1  0
 30 57  1  0
 33 58  1  0
 34 59  1  0
M  END
>  <smiles>  (9) 
Cc1ccc(CNC(=O)C2C[C@@H](O)CN2C(=O)CNC(=O)c2ccc3cc(F)ccc3n2)cc1

>  <score_type>  (9) 
oracle

>  <origin>  (9) 
autodockgpu

>  <m_score__min__energy>  (9) 
-9.8499999999999996

>  <m_primary>  (9) 
energy

>  <meeko>  (9) 
{"free_energy": -7.77, "intermolecular_energy": -10.16, "internal_energy": -3.36, "cluster_size": 4, "cluster_id": 4, "rank_in_cluster": 1}

>  <energy>  (9) 
-7.77

>  <cluster_rmsd>  (9) 
0.0

>  <rmsd>  (9) 
270.87

>  <cluster>  (9) 
4

$$$$

     RDKit          3D

 59 62  0  0  1  0  0  0  0  0999 V2000
  142.9670   80.8920  224.2210 C   0  0  0  0  0  0  0  0  0  0  0  0
  142.2590   80.0330  223.2190 C   0  0  0  0  0  0  0  0  0  0  0  0
  141.6660   78.8770  223.6460 C   0  0  0  0  0  0  0  0  0  0  0  0
  141.0040   78.0580  222.7550 C   0  0  0  0  0  0  0  0  0  0  0  0
  140.9070   78.3550  221.4130 C   0  0  0  0  0  0  0  0  0  0  0  0
  140.2220   77.5340  220.4140 C   0  0  0  0  0  0  0  0  0  0  0  0
  139.9380   76.1860  220.7830 N   0  0  0  0  0  0  0  0  0  0  0  0
  140.9100   75.1680  220.9830 C   0  0  0  0  0  0  0  0  0  0  0  0
  142.1550   75.4290  220.8310 O   0  0  0  0  0  0  0  0  0  0  0  0
  140.5790   73.7870  221.3650 C   0  0  2  0  0  0  0  0  0  0  0  0
  141.6920   72.8110  221.1550 C   0  0  0  0  0  0  0  0  0  0  0  0
  141.1820   71.8370  220.1160 C   0  0  1  0  0  0  0  0  0  0  0  0
  140.8170   70.6600  220.7110 O   0  0  0  0  0  0  0  0  0  0  0  0
  140.0570   72.6160  219.4790 C   0  0  0  0  0  0  0  0  0  0  0  0
  139.4260   73.2520  220.6060 N   0  0  0  0  0  0  0  0  0  0  0  0
  138.1110   73.4240  221.0500 C   0  0  0  0  0  0  0  0  0  0  0  0
  137.5440   74.5350  220.6350 O   0  0  0  0  0  0  0  0  0  0  0  0
  137.2400   72.6180  221.8780 C   0  0  0  0  0  0  0  0  0  0  0  0
  137.7160   72.0190  223.0760 N   0  0  0  0  0  0  0  0  0  0  0  0
  138.4050   70.7540  222.9520 C   0  0  0  0  0  0  0  0  0  0  0  0
  138.5130   70.3240  221.7740 O   0  0  0  0  0  0  0  0  0  0  0  0
  138.9280   70.0460  224.1100 C   0  0  0  0  0  0  0  0  0  0  0  0
  138.8020   68.6750  224.1200 C   0  0  0  0  0  0  0  0  0  0  0  0
  139.2770   67.9440  225.1900 C   0  0  0  0  0  0  0  0  0  0  0  0
  139.8850   68.5930  226.2580 C   0  0  0  0  0  0  0  0  0  0  0  0
  140.3540   67.8450  227.3220 C   0  0  0  0  0  0  0  0  0  0  0  0
  140.9540   68.5330  228.3680 C   0  0  0  0  0  0  0  0  0  0  0  0
  141.4120   67.7890  229.4080 F   0  0  0  0  0  0  0  0  0  0  0  0
  141.0820   69.9120  228.3590 C   0  0  0  0  0  0  0  0  0  0  0  0
  140.5920   70.6180  227.2660 C   0  0  0  0  0  0  0  0  0  0  0  0
  139.9930   69.9680  226.2120 C   0  0  0  0  0  0  0  0  0  0  0  0
  139.5200   70.6610  225.1540 N   0  0  0  0  0  0  0  0  0  0  0  0
  141.5150   79.5350  220.9890 C   0  0  0  0  0  0  0  0  0  0  0  0
  142.1850   80.3610  221.9000 C   0  0  0  0  0  0  0  0  0  0  0  0
  142.6990   80.5669  225.2371 H   0  0  0  0  0  0  0  0  0  0  0  0
  144.0540   80.7988  224.0809 H   0  0  0  0  0  0  0  0  0  0  0  0
  142.6679   81.9412  224.0809 H   0  0  0  0  0  0  0  0  0  0  0  0
  141.7174   78.5980  224.7088 H   0  0  0  0  0  0  0  0  0  0  0  0
  140.5370   77.1350  223.1291 H   0  0  0  0  0  0  0  0  0  0  0  0
  139.2660   78.0240  220.1776 H   0  0  0  0  0  0  0  0  0  0  0  0
  140.9211   77.4625  219.5677 H   0  0  0  0  0  0  0  0  0  0  0  0
  138.9320   75.8810  220.9300 H   0  0  0  0  0  0  0  0  0  0  0  0
  140.3548   73.8753  222.4383 H   0  0  0  0  0  0  0  0  0  0  0  0
  142.5923   73.3268  220.7898 H   0  0  0  0  0  0  0  0  0  0  0  0
  141.9719   72.3027  222.0895 H   0  0  0  0  0  0  0  0  0  0  0  0
  141.9118   71.5128  219.3595 H   0  0  0  0  0  0  0  0  0  0  0  0
  139.8520   70.6400  220.8330 H   0  0  0  0  0  0  0  0  0  0  0  0
  140.4446   73.3621  218.7697 H   0  0  0  0  0  0  0  0  0  0  0  0
  139.3695   71.9864  218.8952 H   0  0  0  0  0  0  0  0  0  0  0  0
  136.3964   73.2630  222.1648 H   0  0  0  0  0  0  0  0  0  0  0  0
  137.0352   71.7475  221.2375 H   0  0  0  0  0  0  0  0  0  0  0  0
  137.6150   72.4010  224.0410 H   0  0  0  0  0  0  0  0  0  0  0  0
  138.3220   68.1615  223.2739 H   0  0  0  0  0  0  0  0  0  0  0  0
  139.1744   66.8488  225.1975 H   0  0  0  0  0  0  0  0  0  0  0  0
  140.2558   66.7495  227.3391 H   0  0  0  0  0  0  0  0  0  0  0  0
  141.5610   70.4374  229.1984 H   0  0  0  0  0  0  0  0  0  0  0  0
  140.6848   71.7138  227.2438 H   0  0  0  0  0  0  0  0  0  0  0  0
  141.4682   79.8206  219.9278 H   0  0  0  0  0  0  0  0  0  0  0  0
  142.6583   81.2882  221.5446 H   0  0  0  0  0  0  0  0  0  0  0  0
  1  2  1  0
  2  3  2  0
  3  4  1  0
  4  5  2  0
  5  6  1  0
  6  7  1  0
  7  8  1  0
  8  9  2  0
  8 10  1  0
 10 11  1  0
 11 12  1  0
 12 13  1  0
 12 14  1  0
 14 15  1  0
 15 16  1  0
 16 17  2  0
 16 18  1  0
 18 19  1  0
 19 20  1  0
 20 21  2  0
 20 22  1  0
 22 23  2  0
 23 24  1  0
 24 25  2  0
 25 26  1  0
 26 27  2  0
 27 28  1  0
 27 29  1  0
 29 30  2  0
 30 31  1  0
 31 32  2  0
  5 33  1  0
 33 34  2  0
 34  2  1  0
 15 10  1  0
 32 22  1  0
 31 25  1  0
  1 35  1  0
  1 36  1  0
  1 37  1  0
  3 38  1  0
  4 39  1  0
  6 40  1  0
  6 41  1  0
  7 42  1  0
 10 43  1  1
 11 44  1  0
 11 45  1  0
 12 46  1  6
 13 47  1  0
 14 48  1  0
 14 49  1  0
 18 50  1  0
 18 51  1  0
 19 52  1  0
 23 53  1  0
 24 54  1  0
 26 55  1  0
 29 56  1  0
 30 57  1  0
 33 58  1  0
 34 59  1  0
M  END
>  <smiles>  (10) 
Cc1ccc(CNC(=O)C2C[C@@H](O)CN2C(=O)CNC(=O)c2ccc3cc(F)ccc3n2)cc1

>  <score_type>  (10) 
oracle

>  <origin>  (10) 
autodockgpu

>  <m_score__min__energy>  (10) 
-9.8499999999999996

>  <m_primary>  (10) 
energy

>  <meeko>  (10) 
{"free_energy": -7.76, "intermolecular_energy": -10.15, "internal_energy": -3.3, "cluster_size": 4, "cluster_id": 4, "rank_in_cluster": 3}

>  <energy>  (10) 
-7.77

>  <cluster_rmsd>  (10) 
0.07

>  <rmsd>  (10) 
270.89

>  <cluster>  (10) 
4

$$$$

     RDKit          3D

 59 62  0  0  1  0  0  0  0  0999 V2000
  141.0500   68.6460  228.7330 C   0  0  0  0  0  0  0  0  0  0  0  0
  140.8660   69.3980  227.4520 C   0  0  0  0  0  0  0  0  0  0  0  0
  140.4950   68.7080  226.3310 C   0  0  0  0  0  0  0  0  0  0  0  0
  140.3160   69.3640  225.1310 C   0  0  0  0  0  0  0  0  0  0  0  0
  140.4980   70.7240  225.0000 C   0  0  0  0  0  0  0  0  0  0  0  0
  140.3250   71.4830  223.7610 C   0  0  0  0  0  0  0  0  0  0  0  0
  139.0030   71.9300  223.4660 N   0  0  0  0  0  0  0  0  0  0  0  0
  137.8650   71.0890  223.3220 C   0  0  0  0  0  0  0  0  0  0  0  0
  137.9820   69.8210  223.4570 O   0  0  0  0  0  0  0  0  0  0  0  0
  136.5150   71.5880  223.0190 C   0  0  2  0  0  0  0  0  0  0  0  0
  135.4270   70.5900  223.2580 C   0  0  0  0  0  0  0  0  0  0  0  0
  134.8110   70.3340  221.9010 C   0  0  1  0  0  0  0  0  0  0  0  0
  133.6160   70.9920  221.7930 O   0  0  0  0  0  0  0  0  0  0  0  0
  135.8970   70.8090  220.9670 C   0  0  0  0  0  0  0  0  0  0  0  0
  136.3720   72.0090  221.6070 N   0  0  0  0  0  0  0  0  0  0  0  0
  136.6730   73.3100  221.1950 C   0  0  0  0  0  0  0  0  0  0  0  0
  135.6430   74.1280  221.1980 O   0  0  0  0  0  0  0  0  0  0  0  0
  137.9000   73.9460  220.7660 C   0  0  0  0  0  0  0  0  0  0  0  0
  138.1870   75.2940  221.1170 N   0  0  0  0  0  0  0  0  0  0  0  0
  139.3340   75.5230  221.9660 C   0  0  0  0  0  0  0  0  0  0  0  0
  139.9620   74.4850  222.2980 O   0  0  0  0  0  0  0  0  0  0  0  0
  139.7200   76.8590  222.3940 C   0  0  0  0  0  0  0  0  0  0  0  0
  138.7210   77.6850  222.8600 C   0  0  0  0  0  0  0  0  0  0  0  0
  139.0200   78.9640  223.2820 C   0  0  0  0  0  0  0  0  0  0  0  0
  140.3320   79.4200  223.2360 C   0  0  0  0  0  0  0  0  0  0  0  0
  140.6140   80.7050  223.6620 C   0  0  0  0  0  0  0  0  0  0  0  0
  141.9370   81.1200  223.5990 C   0  0  0  0  0  0  0  0  0  0  0  0
  142.2030   82.3830  224.0200 F   0  0  0  0  0  0  0  0  0  0  0  0
  142.9430   80.2910  223.1320 C   0  0  0  0  0  0  0  0  0  0  0  0
  142.6070   79.0080  222.7150 C   0  0  0  0  0  0  0  0  0  0  0  0
  141.3060   78.5630  222.7630 C   0  0  0  0  0  0  0  0  0  0  0  0
  140.9880   77.3170  222.3570 N   0  0  0  0  0  0  0  0  0  0  0  0
  140.8750   71.4170  226.1480 C   0  0  0  0  0  0  0  0  0  0  0  0
  141.0550   70.7440  227.3630 C   0  0  0  0  0  0  0  0  0  0  0  0
  140.8841   69.3239  229.5832 H   0  0  0  0  0  0  0  0  0  0  0  0
  140.3282   67.8172  228.7786 H   0  0  0  0  0  0  0  0  0  0  0  0
  142.0730   68.2442  228.7786 H   0  0  0  0  0  0  0  0  0  0  0  0
  140.3380   67.6207  226.3869 H   0  0  0  0  0  0  0  0  0  0  0  0
  140.0174   68.7812  224.2472 H   0  0  0  0  0  0  0  0  0  0  0  0
  140.9722   72.3705  223.8200 H   0  0  0  0  0  0  0  0  0  0  0  0
  140.5816   70.7822  222.9529 H   0  0  0  0  0  0  0  0  0  0  0  0
  138.8140   72.9670  223.3370 H   0  0  0  0  0  0  0  0  0  0  0  0
  136.4048   72.4367  223.7101 H   0  0  0  0  0  0  0  0  0  0  0  0
  135.8424   69.6601  223.6736 H   0  0  0  0  0  0  0  0  0  0  0  0
  134.6847   70.9596  223.9808 H   0  0  0  0  0  0  0  0  0  0  0  0
  134.5367   69.2908  221.6852 H   0  0  0  0  0  0  0  0  0  0  0  0
  133.7760   71.9350  221.6160 H   0  0  0  0  0  0  0  0  0  0  0  0
  136.6999   70.0620  220.8817 H   0  0  0  0  0  0  0  0  0  0  0  0
  135.5425   70.9767  219.9393 H   0  0  0  0  0  0  0  0  0  0  0  0
  138.7243   73.3365  221.1647 H   0  0  0  0  0  0  0  0  0  0  0  0
  137.7755   74.0011  219.6745 H   0  0  0  0  0  0  0  0  0  0  0  0
  137.6500   76.1380  220.8220 H   0  0  0  0  0  0  0  0  0  0  0  0
  137.6825   77.3240  222.8957 H   0  0  0  0  0  0  0  0  0  0  0  0
  138.2210   79.6220  223.6544 H   0  0  0  0  0  0  0  0  0  0  0  0
  139.8222   81.3710  224.0355 H   0  0  0  0  0  0  0  0  0  0  0  0
  143.9854   80.6400  223.0918 H   0  0  0  0  0  0  0  0  0  0  0  0
  143.3945   78.3375  222.3404 H   0  0  0  0  0  0  0  0  0  0  0  0
  141.0330   72.5045  226.0998 H   0  0  0  0  0  0  0  0  0  0  0  0
  141.3531   71.3102  228.2577 H   0  0  0  0  0  0  0  0  0  0  0  0
  1  2  1  0
  2  3  2  0
  3  4  1  0
  4  5  2  0
  5  6  1  0
  6  7  1  0
  7  8  1  0
  8  9  2  0
  8 10  1  0
 10 11  1  0
 11 12  1  0
 12 13  1  0
 12 14  1  0
 14 15  1  0
 15 16  1  0
 16 17  2  0
 16 18  1  0
 18 19  1  0
 19 20  1  0
 20 21  2  0
 20 22  1  0
 22 23  2  0
 23 24  1  0
 24 25  2  0
 25 26  1  0
 26 27  2  0
 27 28  1  0
 27 29  1  0
 29 30  2  0
 30 31  1  0
 31 32  2  0
  5 33  1  0
 33 34  2  0
 34  2  1  0
 15 10  1  0
 32 22  1  0
 31 25  1  0
  1 35  1  0
  1 36  1  0
  1 37  1  0
  3 38  1  0
  4 39  1  0
  6 40  1  0
  6 41  1  0
  7 42  1  0
 10 43  1  1
 11 44  1  0
 11 45  1  0
 12 46  1  6
 13 47  1  0
 14 48  1  0
 14 49  1  0
 18 50  1  0
 18 51  1  0
 19 52  1  0
 23 53  1  0
 24 54  1  0
 26 55  1  0
 29 56  1  0
 30 57  1  0
 33 58  1  0
 34 59  1  0
M  END
>  <smiles>  (11) 
Cc1ccc(CNC(=O)C2C[C@@H](O)CN2C(=O)CNC(=O)c2ccc3cc(F)ccc3n2)cc1

>  <score_type>  (11) 
oracle

>  <origin>  (11) 
autodockgpu

>  <m_score__min__energy>  (11) 
-9.8499999999999996

>  <m_primary>  (11) 
energy

>  <meeko>  (11) 
{"free_energy": -7.98, "intermolecular_energy": -10.36, "internal_energy": -2.43, "cluster_size": 2, "cluster_id": 3, "rank_in_cluster": 2}

>  <energy>  (11) 
-7.76

>  <cluster_rmsd>  (11) 
0.13

>  <rmsd>  (11) 
270.89

>  <cluster>  (11) 
4

$$$$

     RDKit          3D

 59 62  0  0  1  0  0  0  0  0999 V2000
  142.9530   80.8100  224.2150 C   0  0  0  0  0  0  0  0  0  0  0  0
  142.2700   79.9430  223.2030 C   0  0  0  0  0  0  0  0  0  0  0  0
  141.6910   78.7760  223.6190 C   0  0  0  0  0  0  0  0  0  0  0  0
  141.0520   77.9500  222.7180 C   0  0  0  0  0  0  0  0  0  0  0  0
  140.9640   78.2510  221.3760 C   0  0  0  0  0  0  0  0  0  0  0  0
  140.3020   77.4240  220.3670 C   0  0  0  0  0  0  0  0  0  0  0  0
  139.9620   76.0940  220.7560 N   0  0  0  0  0  0  0  0  0  0  0  0
  140.8920   75.0520  221.0190 C   0  0  0  0  0  0  0  0  0  0  0  0
  142.1490   75.2710  220.9120 O   0  0  0  0  0  0  0  0  0  0  0  0
  140.5030   73.6920  221.4210 C   0  0  2  0  0  0  0  0  0  0  0  0
  141.6010   72.6840  221.3090 C   0  0  0  0  0  0  0  0  0  0  0  0
  141.1310   71.6910  220.2690 C   0  0  1  0  0  0  0  0  0  0  0  0
  140.7000   70.5420  220.8740 O   0  0  0  0  0  0  0  0  0  0  0  0
  140.0670   72.4770  219.5410 C   0  0  0  0  0  0  0  0  0  0  0  0
  139.3850   73.1620  220.6080 N   0  0  0  0  0  0  0  0  0  0  0  0
  138.0510   73.3790  220.9650 C   0  0  0  0  0  0  0  0  0  0  0  0
  137.4700   74.3580  220.3070 O   0  0  0  0  0  0  0  0  0  0  0  0
  137.1700   72.7360  221.9160 C   0  0  0  0  0  0  0  0  0  0  0  0
  137.6840   72.1310  223.0960 N   0  0  0  0  0  0  0  0  0  0  0  0
  138.2910   70.8260  222.9560 C   0  0  0  0  0  0  0  0  0  0  0  0
  138.3020   70.3710  221.7840 O   0  0  0  0  0  0  0  0  0  0  0  0
  138.8430   70.1090  224.0950 C   0  0  0  0  0  0  0  0  0  0  0  0
  138.7510   68.7350  224.0800 C   0  0  0  0  0  0  0  0  0  0  0  0
  139.2550   67.9950  225.1300 C   0  0  0  0  0  0  0  0  0  0  0  0
  139.8560   68.6380  226.2050 C   0  0  0  0  0  0  0  0  0  0  0  0
  140.3550   67.8810  227.2500 C   0  0  0  0  0  0  0  0  0  0  0  0
  140.9480   68.5630  228.3030 C   0  0  0  0  0  0  0  0  0  0  0  0
  141.4350   67.8110  229.3230 F   0  0  0  0  0  0  0  0  0  0  0  0
  141.0410   69.9450  228.3210 C   0  0  0  0  0  0  0  0  0  0  0  0
  140.5240   70.6600  227.2460 C   0  0  0  0  0  0  0  0  0  0  0  0
  139.9300   70.0160  226.1850 C   0  0  0  0  0  0  0  0  0  0  0  0
  139.4300   70.7170  225.1460 N   0  0  0  0  0  0  0  0  0  0  0  0
  141.5560   79.4430  220.9630 C   0  0  0  0  0  0  0  0  0  0  0  0
  142.2030   80.2760  221.8850 C   0  0  0  0  0  0  0  0  0  0  0  0
  142.6865   80.4717  225.2272 H   0  0  0  0  0  0  0  0  0  0  0  0
  144.0426   80.7418  224.0806 H   0  0  0  0  0  0  0  0  0  0  0  0
  142.6316   81.8534  224.0806 H   0  0  0  0  0  0  0  0  0  0  0  0
  141.7353   78.4937  224.6812 H   0  0  0  0  0  0  0  0  0  0  0  0
  140.5964   77.0179  223.0836 H   0  0  0  0  0  0  0  0  0  0  0  0
  139.3726   77.9343  220.0742 H   0  0  0  0  0  0  0  0  0  0  0  0
  141.0366   77.3109  219.5561 H   0  0  0  0  0  0  0  0  0  0  0  0
  138.9410   75.8240  220.8690 H   0  0  0  0  0  0  0  0  0  0  0  0
  140.2164   73.8184  222.4755 H   0  0  0  0  0  0  0  0  0  0  0  0
  142.5350   73.1668  220.9856 H   0  0  0  0  0  0  0  0  0  0  0  0
  141.8097   72.1979  222.2735 H   0  0  0  0  0  0  0  0  0  0  0  0
  141.8974   71.3266  219.5691 H   0  0  0  0  0  0  0  0  0  0  0  0
  139.7280   70.5400  220.9200 H   0  0  0  0  0  0  0  0  0  0  0  0
  140.5162   73.1916  218.8356 H   0  0  0  0  0  0  0  0  0  0  0  0
  139.4005   71.8464  218.9343 H   0  0  0  0  0  0  0  0  0  0  0  0
  136.4515   73.5015  222.2443 H   0  0  0  0  0  0  0  0  0  0  0  0
  136.7879   71.8746  221.3486 H   0  0  0  0  0  0  0  0  0  0  0  0
  137.6650   72.5350  224.0580 H   0  0  0  0  0  0  0  0  0  0  0  0
  138.2746   68.2262  223.2290 H   0  0  0  0  0  0  0  0  0  0  0  0
  139.1810   66.8976  225.1159 H   0  0  0  0  0  0  0  0  0  0  0  0
  140.2845   66.7833  227.2463 H   0  0  0  0  0  0  0  0  0  0  0  0
  141.5134   70.4655  229.1671 H   0  0  0  0  0  0  0  0  0  0  0  0
  140.5910   71.7580  227.2439 H   0  0  0  0  0  0  0  0  0  0  0  0
  141.5149   79.7327  219.9026 H   0  0  0  0  0  0  0  0  0  0  0  0
  142.6636   81.2129  221.5387 H   0  0  0  0  0  0  0  0  0  0  0  0
  1  2  1  0
  2  3  2  0
  3  4  1  0
  4  5  2  0
  5  6  1  0
  6  7  1  0
  7  8  1  0
  8  9  2  0
  8 10  1  0
 10 11  1  0
 11 12  1  0
 12 13  1  0
 12 14  1  0
 14 15  1  0
 15 16  1  0
 16 17  2  0
 16 18  1  0
 18 19  1  0
 19 20  1  0
 20 21  2  0
 20 22  1  0
 22 23  2  0
 23 24  1  0
 24 25  2  0
 25 26  1  0
 26 27  2  0
 27 28  1  0
 27 29  1  0
 29 30  2  0
 30 31  1  0
 31 32  2  0
  5 33  1  0
 33 34  2  0
 34  2  1  0
 15 10  1  0
 32 22  1  0
 31 25  1  0
  1 35  1  0
  1 36  1  0
  1 37  1  0
  3 38  1  0
  4 39  1  0
  6 40  1  0
  6 41  1  0
  7 42  1  0
 10 43  1  1
 11 44  1  0
 11 45  1  0
 12 46  1  6
 13 47  1  0
 14 48  1  0
 14 49  1  0
 18 50  1  0
 18 51  1  0
 19 52  1  0
 23 53  1  0
 24 54  1  0
 26 55  1  0
 29 56  1  0
 30 57  1  0
 33 58  1  0
 34 59  1  0
M  END
>  <smiles>  (12) 
Cc1ccc(CNC(=O)C2C[C@@H](O)CN2C(=O)CNC(=O)c2ccc3cc(F)ccc3n2)cc1

>  <score_type>  (12) 
oracle

>  <origin>  (12) 
autodockgpu

>  <m_score__min__energy>  (12) 
-9.8499999999999996

>  <m_primary>  (12) 
energy

>  <meeko>  (12) 
{"free_energy": -7.75, "intermolecular_energy": -10.13, "internal_energy": -3.37, "cluster_size": 4, "cluster_id": 4, "rank_in_cluster": 4}

>  <energy>  (12) 
-7.75

>  <cluster_rmsd>  (12) 
0.03

>  <rmsd>  (12) 
270.86

>  <cluster>  (12) 
4

$$$$

     RDKit          3D

 59 62  0  0  1  0  0  0  0  0999 V2000
  142.6160   81.1880  224.1750 C   0  0  0  0  0  0  0  0  0  0  0  0
  142.1960   80.0690  223.2730 C   0  0  0  0  0  0  0  0  0  0  0  0
  141.7660   78.8980  223.8340 C   0  0  0  0  0  0  0  0  0  0  0  0
  141.3710   77.8420  223.0380 C   0  0  0  0  0  0  0  0  0  0  0  0
  141.3870   77.9110  221.6620 C   0  0  0  0  0  0  0  0  0  0  0  0
  140.9820   76.8330  220.7590 C   0  0  0  0  0  0  0  0  0  0  0  0
  141.6620   75.5890  220.9050 N   0  0  0  0  0  0  0  0  0  0  0  0
  142.9530   75.2930  220.3900 C   0  0  0  0  0  0  0  0  0  0  0  0
  143.6010   76.1810  219.7320 O   0  0  0  0  0  0  0  0  0  0  0  0
  143.6250   73.9970  220.5630 C   0  0  2  0  0  0  0  0  0  0  0  0
  145.1070   74.0940  220.7390 C   0  0  0  0  0  0  0  0  0  0  0  0
  145.7010   73.3810  219.5440 C   0  0  1  0  0  0  0  0  0  0  0  0
  146.1550   72.1440  219.9110 O   0  0  0  0  0  0  0  0  0  0  0  0
  144.5480   73.3840  218.5700 C   0  0  0  0  0  0  0  0  0  0  0  0
  143.4150   73.0930  219.4090 N   0  0  0  0  0  0  0  0  0  0  0  0
  142.3160   72.2320  219.3410 C   0  0  0  0  0  0  0  0  0  0  0  0
  142.4900   71.1970  218.5490 O   0  0  0  0  0  0  0  0  0  0  0  0
  141.0160   72.2470  219.9760 C   0  0  0  0  0  0  0  0  0  0  0  0
  140.7530   71.4550  221.1270 N   0  0  0  0  0  0  0  0  0  0  0  0
  140.5500   72.1540  222.3760 C   0  0  0  0  0  0  0  0  0  0  0  0
  140.6250   73.4080  222.2980 O   0  0  0  0  0  0  0  0  0  0  0  0
  140.2820   71.4480  223.6190 C   0  0  0  0  0  0  0  0  0  0  0  0
  139.5450   70.2870  223.5390 C   0  0  0  0  0  0  0  0  0  0  0  0
  139.2550   69.5700  224.6820 C   0  0  0  0  0  0  0  0  0  0  0  0
  139.7100   70.0200  225.9160 C   0  0  0  0  0  0  0  0  0  0  0  0
  139.4100   69.2890  227.0510 C   0  0  0  0  0  0  0  0  0  0  0  0
  139.8830   69.7740  228.2620 C   0  0  0  0  0  0  0  0  0  0  0  0
  139.5830   69.0490  229.3710 F   0  0  0  0  0  0  0  0  0  0  0  0
  140.6240   70.9400  228.3450 C   0  0  0  0  0  0  0  0  0  0  0  0
  140.8980   71.6380  227.1740 C   0  0  0  0  0  0  0  0  0  0  0  0
  140.4450   71.1870  225.9560 C   0  0  0  0  0  0  0  0  0  0  0  0
  140.7150   71.8700  224.8240 N   0  0  0  0  0  0  0  0  0  0  0  0
  141.8260   79.1080  221.1010 C   0  0  0  0  0  0  0  0  0  0  0  0
  142.2260   80.1750  221.9160 C   0  0  0  0  0  0  0  0  0  0  0  0
  142.4993   80.8771  225.2237 H   0  0  0  0  0  0  0  0  0  0  0  0
  143.6695   81.4389  223.9820 H   0  0  0  0  0  0  0  0  0  0  0  0
  141.9877   82.0701  223.9820 H   0  0  0  0  0  0  0  0  0  0  0  0
  141.7348   78.7971  224.9289 H   0  0  0  0  0  0  0  0  0  0  0  0
  141.0315   76.9128  223.5189 H   0  0  0  0  0  0  0  0  0  0  0  0
  139.9097   76.6481  220.9199 H   0  0  0  0  0  0  0  0  0  0  0  0
  141.2395   77.1877  219.7501 H   0  0  0  0  0  0  0  0  0  0  0  0
  141.1990   74.7950  221.4370 H   0  0  0  0  0  0  0  0  0  0  0  0
  143.1637   73.6016  221.4800 H   0  0  0  0  0  0  0  0  0  0  0  0
  145.4245   75.1471  220.7558 H   0  0  0  0  0  0  0  0  0  0  0  0
  145.4364   73.6460  221.6881 H   0  0  0  0  0  0  0  0  0  0  0  0
  146.5921   73.8469  219.0979 H   0  0  0  0  0  0  0  0  0  0  0  0
  145.8480   71.9340  220.8100 H   0  0  0  0  0  0  0  0  0  0  0  0
  144.4406   74.3666  218.0874 H   0  0  0  0  0  0  0  0  0  0  0  0
  144.6739   72.6653  217.7468 H   0  0  0  0  0  0  0  0  0  0  0  0
  140.8207   73.2906  220.2635 H   0  0  0  0  0  0  0  0  0  0  0  0
  140.3698   71.7872  219.2138 H   0  0  0  0  0  0  0  0  0  0  0  0
  140.6930   70.4140  221.1620 H   0  0  0  0  0  0  0  0  0  0  0  0
  139.1868   69.9306  222.5619 H   0  0  0  0  0  0  0  0  0  0  0  0
  138.6648   68.6440  224.6167 H   0  0  0  0  0  0  0  0  0  0  0  0
  138.8209   68.3617  226.9961 H   0  0  0  0  0  0  0  0  0  0  0  0
  140.9882   71.3065  229.3161 H   0  0  0  0  0  0  0  0  0  0  0  0
  141.4866   72.5660  227.2225 H   0  0  0  0  0  0  0  0  0  0  0  0
  141.8590   79.2166  220.0069 H   0  0  0  0  0  0  0  0  0  0  0  0
  142.5692   81.1119  221.4529 H   0  0  0  0  0  0  0  0  0  0  0  0
  1  2  1  0
  2  3  2  0
  3  4  1  0
  4  5  2  0
  5  6  1  0
  6  7  1  0
  7  8  1  0
  8  9  2  0
  8 10  1  0
 10 11  1  0
 11 12  1  0
 12 13  1  0
 12 14  1  0
 14 15  1  0
 15 16  1  0
 16 17  2  0
 16 18  1  0
 18 19  1  0
 19 20  1  0
 20 21  2  0
 20 22  1  0
 22 23  2  0
 23 24  1  0
 24 25  2  0
 25 26  1  0
 26 27  2  0
 27 28  1  0
 27 29  1  0
 29 30  2  0
 30 31  1  0
 31 32  2  0
  5 33  1  0
 33 34  2  0
 34  2  1  0
 15 10  1  0
 32 22  1  0
 31 25  1  0
  1 35  1  0
  1 36  1  0
  1 37  1  0
  3 38  1  0
  4 39  1  0
  6 40  1  0
  6 41  1  0
  7 42  1  0
 10 43  1  1
 11 44  1  0
 11 45  1  0
 12 46  1  6
 13 47  1  0
 14 48  1  0
 14 49  1  0
 18 50  1  0
 18 51  1  0
 19 52  1  0
 23 53  1  0
 24 54  1  0
 26 55  1  0
 29 56  1  0
 30 57  1  0
 33 58  1  0
 34 59  1  0
M  END
>  <smiles>  (13) 
Cc1ccc(CNC(=O)C2C[C@@H](O)CN2C(=O)CNC(=O)c2ccc3cc(F)ccc3n2)cc1

>  <score_type>  (13) 
oracle

>  <origin>  (13) 
autodockgpu

>  <m_score__min__energy>  (13) 
-9.8499999999999996

>  <m_primary>  (13) 
energy

>  <meeko>  (13) 
{"free_energy": -9.85, "intermolecular_energy": -12.23, "internal_energy": -2.33, "cluster_size": 5, "cluster_id": 1, "rank_in_cluster": 1}

>  <energy>  (13) 
-7.08

>  <cluster_rmsd>  (13) 
0.0

>  <rmsd>  (13) 
270.93

>  <cluster>  (13) 
5

$$$$

     RDKit          3D

 59 62  0  0  1  0  0  0  0  0999 V2000
  142.6760   81.0700  224.1830 C   0  0  0  0  0  0  0  0  0  0  0  0
  142.2320   79.9780  223.2580 C   0  0  0  0  0  0  0  0  0  0  0  0
  141.7810   78.8040  223.7960 C   0  0  0  0  0  0  0  0  0  0  0  0
  141.3630   77.7740  222.9790 C   0  0  0  0  0  0  0  0  0  0  0  0
  141.3770   77.8720  221.6040 C   0  0  0  0  0  0  0  0  0  0  0  0
  140.9490   76.8220  220.6790 C   0  0  0  0  0  0  0  0  0  0  0  0
  141.6070   75.5620  220.7960 N   0  0  0  0  0  0  0  0  0  0  0  0
  142.9250   75.2800  220.3440 C   0  0  0  0  0  0  0  0  0  0  0  0
  143.6210   76.1950  219.7800 O   0  0  0  0  0  0  0  0  0  0  0  0
  143.5710   73.9670  220.4840 C   0  0  2  0  0  0  0  0  0  0  0  0
  145.0590   74.0290  220.6240 C   0  0  0  0  0  0  0  0  0  0  0  0
  145.6080   73.3200  219.4050 C   0  0  1  0  0  0  0  0  0  0  0  0
  146.0440   72.0690  219.7440 O   0  0  0  0  0  0  0  0  0  0  0  0
  144.4310   73.3620  218.4600 C   0  0  0  0  0  0  0  0  0  0  0  0
  143.3130   73.0830  219.3240 N   0  0  0  0  0  0  0  0  0  0  0  0
  142.1940   72.2480  219.2740 C   0  0  0  0  0  0  0  0  0  0  0  0
  142.3050   71.2480  218.4260 O   0  0  0  0  0  0  0  0  0  0  0  0
  140.9280   72.2560  219.9740 C   0  0  0  0  0  0  0  0  0  0  0  0
  140.7200   71.4420  221.1210 N   0  0  0  0  0  0  0  0  0  0  0  0
  140.4780   72.1190  222.3750 C   0  0  0  0  0  0  0  0  0  0  0  0
  140.4730   73.3750  222.3050 O   0  0  0  0  0  0  0  0  0  0  0  0
  140.2590   71.3890  223.6140 C   0  0  0  0  0  0  0  0  0  0  0  0
  139.5450   70.2130  223.5360 C   0  0  0  0  0  0  0  0  0  0  0  0
  139.3020   69.4730  224.6750 C   0  0  0  0  0  0  0  0  0  0  0  0
  139.7800   69.9150  225.9030 C   0  0  0  0  0  0  0  0  0  0  0  0
  139.5260   69.1610  227.0350 C   0  0  0  0  0  0  0  0  0  0  0  0
  140.0210   69.6390  228.2410 C   0  0  0  0  0  0  0  0  0  0  0  0
  139.7670   68.8910  229.3450 F   0  0  0  0  0  0  0  0  0  0  0  0
  140.7390   70.8200  228.3210 C   0  0  0  0  0  0  0  0  0  0  0  0
  140.9660   71.5410  227.1540 C   0  0  0  0  0  0  0  0  0  0  0  0
  140.4910   71.0970  225.9420 C   0  0  0  0  0  0  0  0  0  0  0  0
  140.7150   71.8030  224.8140 N   0  0  0  0  0  0  0  0  0  0  0  0
  141.8380   79.0730  221.0680 C   0  0  0  0  0  0  0  0  0  0  0  0
  142.2610   80.1140  221.9040 C   0  0  0  0  0  0  0  0  0  0  0  0
  142.5435   80.7441  225.2252 H   0  0  0  0  0  0  0  0  0  0  0  0
  143.7372   81.2955  224.0014 H   0  0  0  0  0  0  0  0  0  0  0  0
  142.0732   81.9720  224.0014 H   0  0  0  0  0  0  0  0  0  0  0  0
  141.7514   78.6802  224.8886 H   0  0  0  0  0  0  0  0  0  0  0  0
  141.0060   76.8417  223.4410 H   0  0  0  0  0  0  0  0  0  0  0  0
  139.8739   76.6535  220.8395 H   0  0  0  0  0  0  0  0  0  0  0  0
  141.2094   77.1937  219.6770 H   0  0  0  0  0  0  0  0  0  0  0  0
  141.1030   74.7460  221.2510 H   0  0  0  0  0  0  0  0  0  0  0  0
  143.1229   73.5699  221.4068 H   0  0  0  0  0  0  0  0  0  0  0  0
  145.4000   75.0745  220.6471 H   0  0  0  0  0  0  0  0  0  0  0  0
  145.4015   73.5603  221.5583 H   0  0  0  0  0  0  0  0  0  0  0  0
  146.4979   73.7723  218.9429 H   0  0  0  0  0  0  0  0  0  0  0  0
  145.8250   71.8850  220.6740 H   0  0  0  0  0  0  0  0  0  0  0  0
  144.3330   74.3536  217.9941 H   0  0  0  0  0  0  0  0  0  0  0  0
  144.5205   72.6531  217.6237 H   0  0  0  0  0  0  0  0  0  0  0  0
  140.7529   73.2945  220.2916 H   0  0  0  0  0  0  0  0  0  0  0  0
  140.2413   71.8147  219.2366 H   0  0  0  0  0  0  0  0  0  0  0  0
  140.7250   70.3990  221.1480 H   0  0  0  0  0  0  0  0  0  0  0  0
  139.1679   69.8634  222.5636 H   0  0  0  0  0  0  0  0  0  0  0  0
  138.7310   68.5350  224.6113 H   0  0  0  0  0  0  0  0  0  0  0  0
  138.9556   68.2219  226.9817 H   0  0  0  0  0  0  0  0  0  0  0  0
  141.1218   71.1803  229.2873 H   0  0  0  0  0  0  0  0  0  0  0  0
  141.5346   72.4815  227.2008 H   0  0  0  0  0  0  0  0  0  0  0  0
  141.8700   79.2048  219.9764 H   0  0  0  0  0  0  0  0  0  0  0  0
  142.6214   81.0539  221.4605 H   0  0  0  0  0  0  0  0  0  0  0  0
  1  2  1  0
  2  3  2  0
  3  4  1  0
  4  5  2  0
  5  6  1  0
  6  7  1  0
  7  8  1  0
  8  9  2  0
  8 10  1  0
 10 11  1  0
 11 12  1  0
 12 13  1  0
 12 14  1  0
 14 15  1  0
 15 16  1  0
 16 17  2  0
 16 18  1  0
 18 19  1  0
 19 20  1  0
 20 21  2  0
 20 22  1  0
 22 23  2  0
 23 24  1  0
 24 25  2  0
 25 26  1  0
 26 27  2  0
 27 28  1  0
 27 29  1  0
 29 30  2  0
 30 31  1  0
 31 32  2  0
  5 33  1  0
 33 34  2  0
 34  2  1  0
 15 10  1  0
 32 22  1  0
 31 25  1  0
  1 35  1  0
  1 36  1  0
  1 37  1  0
  3 38  1  0
  4 39  1  0
  6 40  1  0
  6 41  1  0
  7 42  1  0
 10 43  1  1
 11 44  1  0
 11 45  1  0
 12 46  1  6
 13 47  1  0
 14 48  1  0
 14 49  1  0
 18 50  1  0
 18 51  1  0
 19 52  1  0
 23 53  1  0
 24 54  1  0
 26 55  1  0
 29 56  1  0
 30 57  1  0
 33 58  1  0
 34 59  1  0
M  END
>  <smiles>  (14) 
Cc1ccc(CNC(=O)C2C[C@@H](O)CN2C(=O)CNC(=O)c2ccc3cc(F)ccc3n2)cc1

>  <score_type>  (14) 
oracle

>  <origin>  (14) 
autodockgpu

>  <m_score__min__energy>  (14) 
-9.8499999999999996

>  <m_primary>  (14) 
energy

>  <meeko>  (14) 
{"free_energy": -9.8, "intermolecular_energy": -12.19, "internal_energy": -2.33, "cluster_size": 5, "cluster_id": 1, "rank_in_cluster": 2}

>  <energy>  (14) 
-7.07

>  <cluster_rmsd>  (14) 
0.02

>  <rmsd>  (14) 
270.93

>  <cluster>  (14) 
5

$$$$

     RDKit          3D

 59 62  0  0  1  0  0  0  0  0999 V2000
  137.8400   79.9690  219.9570 C   0  0  0  0  0  0  0  0  0  0  0  0
  139.1820   79.4160  219.5870 C   0  0  0  0  0  0  0  0  0  0  0  0
  139.2660   78.1140  219.1760 C   0  0  0  0  0  0  0  0  0  0  0  0
  140.4830   77.5660  218.8270 C   0  0  0  0  0  0  0  0  0  0  0  0
  141.6570   78.2880  218.8730 C   0  0  0  0  0  0  0  0  0  0  0  0
  142.9790   77.7730  218.5170 C   0  0  0  0  0  0  0  0  0  0  0  0
  143.5160   76.7570  219.3620 N   0  0  0  0  0  0  0  0  0  0  0  0
  143.1850   75.3760  219.2980 C   0  0  0  0  0  0  0  0  0  0  0  0
  142.3430   74.9560  218.4290 O   0  0  0  0  0  0  0  0  0  0  0  0
  143.7620   74.3560  220.1870 C   0  0  2  0  0  0  0  0  0  0  0  0
  145.2170   74.5460  220.4720 C   0  0  0  0  0  0  0  0  0  0  0  0
  145.9030   73.3300  219.8890 C   0  0  1  0  0  0  0  0  0  0  0  0
  146.2460   72.4580  220.8860 O   0  0  0  0  0  0  0  0  0  0  0  0
  144.8690   72.8230  218.9130 C   0  0  0  0  0  0  0  0  0  0  0  0
  143.6350   72.9880  219.6360 N   0  0  0  0  0  0  0  0  0  0  0  0
  142.5050   72.2010  219.8780 C   0  0  0  0  0  0  0  0  0  0  0  0
  142.7620   70.9190  220.0230 O   0  0  0  0  0  0  0  0  0  0  0  0
  141.0990   72.5140  220.0080 C   0  0  0  0  0  0  0  0  0  0  0  0
  140.6650   73.8440  220.2670 N   0  0  0  0  0  0  0  0  0  0  0  0
  140.4550   74.2100  221.6490 C   0  0  0  0  0  0  0  0  0  0  0  0
  140.6900   73.2960  222.4810 O   0  0  0  0  0  0  0  0  0  0  0  0
  140.0050   75.5390  222.0330 C   0  0  0  0  0  0  0  0  0  0  0  0
  138.6470   75.7350  222.1570 C   0  0  0  0  0  0  0  0  0  0  0  0
  138.1550   76.9730  222.5180 C   0  0  0  0  0  0  0  0  0  0  0  0
  139.0320   78.0240  222.7560 C   0  0  0  0  0  0  0  0  0  0  0  0
  138.5220   79.2580  223.1160 C   0  0  0  0  0  0  0  0  0  0  0  0
  139.4320   80.2810  223.3440 C   0  0  0  0  0  0  0  0  0  0  0  0
  138.9210   81.4880  223.6970 F   0  0  0  0  0  0  0  0  0  0  0  0
  140.7980   80.0870  223.2200 C   0  0  0  0  0  0  0  0  0  0  0  0
  141.2600   78.8270  222.8550 C   0  0  0  0  0  0  0  0  0  0  0  0
  140.3860   77.7900  222.6210 C   0  0  0  0  0  0  0  0  0  0  0  0
  140.8420   76.5710  222.2680 N   0  0  0  0  0  0  0  0  0  0  0  0
  141.5590   79.6130  219.2930 C   0  0  0  0  0  0  0  0  0  0  0  0
  140.3190   80.1610  219.6460 C   0  0  0  0  0  0  0  0  0  0  0  0
  137.7483   80.0068  221.0525 H   0  0  0  0  0  0  0  0  0  0  0  0
  137.7352   80.9836  219.5451 H   0  0  0  0  0  0  0  0  0  0  0  0
  137.0509   79.3228  219.5451 H   0  0  0  0  0  0  0  0  0  0  0  0
  138.3556   77.4988  219.1233 H   0  0  0  0  0  0  0  0  0  0  0  0
  140.5182   76.5162  218.5005 H   0  0  0  0  0  0  0  0  0  0  0  0
  142.9140   77.3610  217.4991 H   0  0  0  0  0  0  0  0  0  0  0  0
  143.6621   78.6289  218.6213 H   0  0  0  0  0  0  0  0  0  0  0  0
  144.2220   77.0150  220.1120 H   0  0  0  0  0  0  0  0  0  0  0  0
  143.1791   74.4779  221.1119 H   0  0  0  0  0  0  0  0  0  0  0  0
  145.5866   75.4638  219.9913 H   0  0  0  0  0  0  0  0  0  0  0  0
  145.4127   74.6486  221.5496 H   0  0  0  0  0  0  0  0  0  0  0  0
  146.8627   73.5132  219.3836 H   0  0  0  0  0  0  0  0  0  0  0  0
  145.5020   71.8580  221.0680 H   0  0  0  0  0  0  0  0  0  0  0  0
  144.8696   73.4211  217.9898 H   0  0  0  0  0  0  0  0  0  0  0  0
  145.0479   71.7867  218.5904 H   0  0  0  0  0  0  0  0  0  0  0  0
  140.6220   72.2074  219.0654 H   0  0  0  0  0  0  0  0  0  0  0  0
  140.8176   71.9840  220.9299 H   0  0  0  0  0  0  0  0  0  0  0  0
  140.4810   74.5840  219.5560 H   0  0  0  0  0  0  0  0  0  0  0  0
  137.9531   74.9027  221.9678 H   0  0  0  0  0  0  0  0  0  0  0  0
  137.0704   77.1273  222.6171 H   0  0  0  0  0  0  0  0  0  0  0  0
  137.4391   79.4222  223.2175 H   0  0  0  0  0  0  0  0  0  0  0  0
  141.5019   80.9115  223.4062 H   0  0  0  0  0  0  0  0  0  0  0  0
  142.3418   78.6565  222.7516 H   0  0  0  0  0  0  0  0  0  0  0  0
  142.4646   80.2350  219.3479 H   0  0  0  0  0  0  0  0  0  0  0  0
  140.2637   81.2090  219.9757 H   0  0  0  0  0  0  0  0  0  0  0  0
  1  2  1  0
  2  3  2  0
  3  4  1  0
  4  5  2  0
  5  6  1  0
  6  7  1  0
  7  8  1  0
  8  9  2  0
  8 10  1  0
 10 11  1  0
 11 12  1  0
 12 13  1  0
 12 14  1  0
 14 15  1  0
 15 16  1  0
 16 17  2  0
 16 18  1  0
 18 19  1  0
 19 20  1  0
 20 21  2  0
 20 22  1  0
 22 23  2  0
 23 24  1  0
 24 25  2  0
 25 26  1  0
 26 27  2  0
 27 28  1  0
 27 29  1  0
 29 30  2  0
 30 31  1  0
 31 32  2  0
  5 33  1  0
 33 34  2  0
 34  2  1  0
 15 10  1  0
 32 22  1  0
 31 25  1  0
  1 35  1  0
  1 36  1  0
  1 37  1  0
  3 38  1  0
  4 39  1  0
  6 40  1  0
  6 41  1  0
  7 42  1  0
 10 43  1  1
 11 44  1  0
 11 45  1  0
 12 46  1  6
 13 47  1  0
 14 48  1  0
 14 49  1  0
 18 50  1  0
 18 51  1  0
 19 52  1  0
 23 53  1  0
 24 54  1  0
 26 55  1  0
 29 56  1  0
 30 57  1  0
 33 58  1  0
 34 59  1  0
M  END
>  <smiles>  (15) 
Cc1ccc(CNC(=O)C2C[C@@H](O)CN2C(=O)CNC(=O)c2ccc3cc(F)ccc3n2)cc1

>  <score_type>  (15) 
oracle

>  <origin>  (15) 
autodockgpu

>  <m_score__min__energy>  (15) 
-9.8499999999999996

>  <m_primary>  (15) 
energy

>  <meeko>  (15) 
{"free_energy": -6.32, "intermolecular_energy": -8.71, "internal_energy": -4.19, "cluster_size": 2, "cluster_id": 6, "rank_in_cluster": 2}

>  <energy>  (15) 
-6.17

>  <cluster_rmsd>  (15) 
1.32

>  <rmsd>  (15) 
270.67

>  <cluster>  (15) 
5

$$$$

     RDKit          3D

 59 62  0  0  1  0  0  0  0  0999 V2000
  139.6380   80.2910  223.7900 C   0  0  0  0  0  0  0  0  0  0  0  0
  139.7270   78.9120  223.2120 C   0  0  0  0  0  0  0  0  0  0  0  0
  140.9630   78.3630  223.0110 C   0  0  0  0  0  0  0  0  0  0  0  0
  141.0890   77.0950  222.4800 C   0  0  0  0  0  0  0  0  0  0  0  0
  139.9960   76.3300  222.1320 C   0  0  0  0  0  0  0  0  0  0  0  0
  140.0550   74.9820  221.5670 C   0  0  0  0  0  0  0  0  0  0  0  0
  141.1840   74.6830  220.7480 N   0  0  0  0  0  0  0  0  0  0  0  0
  141.9770   73.5070  220.8400 C   0  0  0  0  0  0  0  0  0  0  0  0
  141.6980   72.6110  221.7110 O   0  0  0  0  0  0  0  0  0  0  0  0
  143.1340   73.2330  219.9760 C   0  0  2  0  0  0  0  0  0  0  0  0
  144.2230   72.4540  220.6410 C   0  0  0  0  0  0  0  0  0  0  0  0
  145.4220   73.3760  220.6640 C   0  0  1  0  0  0  0  0  0  0  0  0
  146.3180   73.0090  219.6960 O   0  0  0  0  0  0  0  0  0  0  0  0
  144.7810   74.7300  220.4720 C   0  0  0  0  0  0  0  0  0  0  0  0
  143.7730   74.4720  219.4770 N   0  0  0  0  0  0  0  0  0  0  0  0
  143.3540   75.0890  218.2950 C   0  0  0  0  0  0  0  0  0  0  0  0
  142.5840   74.3370  217.5380 O   0  0  0  0  0  0  0  0  0  0  0  0
  143.5940   76.4000  217.7320 C   0  0  0  0  0  0  0  0  0  0  0  0
  143.0590   77.5680  218.3410 N   0  0  0  0  0  0  0  0  0  0  0  0
  141.6350   77.5870  218.5930 C   0  0  0  0  0  0  0  0  0  0  0  0
  141.0220   76.5460  218.2420 O   0  0  0  0  0  0  0  0  0  0  0  0
  140.9780   78.7310  219.2040 C   0  0  0  0  0  0  0  0  0  0  0  0
  139.6030   78.7830  219.1310 C   0  0  0  0  0  0  0  0  0  0  0  0
  138.9190   79.8420  219.6910 C   0  0  0  0  0  0  0  0  0  0  0  0
  139.6180   80.8580  220.3310 C   0  0  0  0  0  0  0  0  0  0  0  0
  138.9160   81.9130  220.8860 C   0  0  0  0  0  0  0  0  0  0  0  0
  139.6530   82.9060  221.5150 C   0  0  0  0  0  0  0  0  0  0  0  0
  138.9540   83.9370  222.0580 F   0  0  0  0  0  0  0  0  0  0  0  0
  141.0350   82.8570  221.5900 C   0  0  0  0  0  0  0  0  0  0  0  0
  141.6930   81.7750  221.0150 C   0  0  0  0  0  0  0  0  0  0  0  0
  140.9940   80.7720  220.3840 C   0  0  0  0  0  0  0  0  0  0  0  0
  141.6410   79.7260  219.8290 N   0  0  0  0  0  0  0  0  0  0  0  0
  138.7420   76.9000  222.3420 C   0  0  0  0  0  0  0  0  0  0  0  0
  138.6230   78.1880  222.8810 C   0  0  0  0  0  0  0  0  0  0  0  0
  139.6420   80.2292  224.8882 H   0  0  0  0  0  0  0  0  0  0  0  0
  140.4996   80.8861  223.4531 H   0  0  0  0  0  0  0  0  0  0  0  0
  138.7070   80.7704  223.4531 H   0  0  0  0  0  0  0  0  0  0  0  0
  141.8641   78.9362  223.2745 H   0  0  0  0  0  0  0  0  0  0  0  0
  142.0967   76.6804  222.3292 H   0  0  0  0  0  0  0  0  0  0  0  0
  140.0513   74.2685  222.4042 H   0  0  0  0  0  0  0  0  0  0  0  0
  139.1839   74.9083  220.8993 H   0  0  0  0  0  0  0  0  0  0  0  0
  141.4870   75.3710  219.9980 H   0  0  0  0  0  0  0  0  0  0  0  0
  142.6956   72.6425  219.1580 H   0  0  0  0  0  0  0  0  0  0  0  0
  143.9293   72.1794  221.6649 H   0  0  0  0  0  0  0  0  0  0  0  0
  144.4388   71.5165  220.1076 H   0  0  0  0  0  0  0  0  0  0  0  0
  146.0294   73.3556  221.5809 H   0  0  0  0  0  0  0  0  0  0  0  0
  146.4300   73.7370  219.0600 H   0  0  0  0  0  0  0  0  0  0  0  0
  144.3296   75.0902  221.4082 H   0  0  0  0  0  0  0  0  0  0  0  0
  145.4964   75.5101  220.1727 H   0  0  0  0  0  0  0  0  0  0  0  0
  144.6855   76.5336  217.7048 H   0  0  0  0  0  0  0  0  0  0  0  0
  143.0513   76.3556  216.7762 H   0  0  0  0  0  0  0  0  0  0  0  0
  143.5930   78.4170  218.6250 H   0  0  0  0  0  0  0  0  0  0  0  0
  139.0495   77.9782  218.6250 H   0  0  0  0  0  0  0  0  0  0  0  0
  137.8214   79.8820  219.6309 H   0  0  0  0  0  0  0  0  0  0  0  0
  137.8185   81.9625  220.8309 H   0  0  0  0  0  0  0  0  0  0  0  0
  141.5996   83.6559  222.0930 H   0  0  0  0  0  0  0  0  0  0  0  0
  142.7905   81.7203  221.0656 H   0  0  0  0  0  0  0  0  0  0  0  0
  137.8360   76.3330  222.0819 H   0  0  0  0  0  0  0  0  0  0  0  0
  137.6237   78.6199  223.0387 H   0  0  0  0  0  0  0  0  0  0  0  0
  1  2  1  0
  2  3  2  0
  3  4  1  0
  4  5  2  0
  5  6  1  0
  6  7  1  0
  7  8  1  0
  8  9  2  0
  8 10  1  0
 10 11  1  0
 11 12  1  0
 12 13  1  0
 12 14  1  0
 14 15  1  0
 15 16  1  0
 16 17  2  0
 16 18  1  0
 18 19  1  0
 19 20  1  0
 20 21  2  0
 20 22  1  0
 22 23  2  0
 23 24  1  0
 24 25  2  0
 25 26  1  0
 26 27  2  0
 27 28  1  0
 27 29  1  0
 29 30  2  0
 30 31  1  0
 31 32  2  0
  5 33  1  0
 33 34  2  0
 34  2  1  0
 15 10  1  0
 32 22  1  0
 31 25  1  0
  1 35  1  0
  1 36  1  0
  1 37  1  0
  3 38  1  0
  4 39  1  0
  6 40  1  0
  6 41  1  0
  7 42  1  0
 10 43  1  6
 11 44  1  0
 11 45  1  0
 12 46  1  1
 13 47  1  0
 14 48  1  0
 14 49  1  0
 18 50  1  0
 18 51  1  0
 19 52  1  0
 23 53  1  0
 24 54  1  0
 26 55  1  0
 29 56  1  0
 30 57  1  0
 33 58  1  0
 34 59  1  0
M  END
>  <smiles>  (16) 
Cc1ccc(CNC(=O)C2C[C@@H](O)CN2C(=O)CNC(=O)c2ccc3cc(F)ccc3n2)cc1

>  <score_type>  (16) 
oracle

>  <origin>  (16) 
autodockgpu

>  <m_score__min__energy>  (16) 
-9.8499999999999996

>  <m_primary>  (16) 
energy

>  <meeko>  (16) 
{"free_energy": -6.17, "intermolecular_energy": -8.55, "internal_energy": -4.21, "cluster_size": 3, "cluster_id": 5, "rank_in_cluster": 3}

>  <energy>  (16) 
-6.77

>  <cluster_rmsd>  (16) 
0.0

>  <rmsd>  (16) 
270.82

>  <cluster>  (16) 
6

$$$$

     RDKit          3D

 59 62  0  0  1  0  0  0  0  0999 V2000
  140.6940   68.4180  228.9180 C   0  0  0  0  0  0  0  0  0  0  0  0
  140.6920   69.2200  227.6530 C   0  0  0  0  0  0  0  0  0  0  0  0
  140.7430   70.5840  227.7400 C   0  0  0  0  0  0  0  0  0  0  0  0
  140.7420   71.3590  226.5990 C   0  0  0  0  0  0  0  0  0  0  0  0
  140.6910   70.8110  225.3350 C   0  0  0  0  0  0  0  0  0  0  0  0
  140.6880   71.5710  224.0850 C   0  0  0  0  0  0  0  0  0  0  0  0
  139.4110   71.8970  223.5400 N   0  0  0  0  0  0  0  0  0  0  0  0
  138.4400   70.9540  223.1040 C   0  0  0  0  0  0  0  0  0  0  0  0
  138.6820   69.6990  223.1860 O   0  0  0  0  0  0  0  0  0  0  0  0
  137.1320   71.3280  222.5480 C   0  0  2  0  0  0  0  0  0  0  0  0
  136.2200   70.1700  222.2970 C   0  0  0  0  0  0  0  0  0  0  0  0
  135.9980   70.1500  220.8000 C   0  0  1  0  0  0  0  0  0  0  0  0
  134.7620   70.6540  220.5000 O   0  0  0  0  0  0  0  0  0  0  0  0
  137.1670   70.9620  220.2980 C   0  0  0  0  0  0  0  0  0  0  0  0
  137.2490   72.0360  221.2530 N   0  0  0  0  0  0  0  0  0  0  0  0
  137.3940   73.4250  221.1860 C   0  0  0  0  0  0  0  0  0  0  0  0
  136.7410   74.0800  222.1200 O   0  0  0  0  0  0  0  0  0  0  0  0
  138.1270   74.2940  220.2920 C   0  0  0  0  0  0  0  0  0  0  0  0
  138.5020   75.6070  220.6900 N   0  0  0  0  0  0  0  0  0  0  0  0
  139.3710   75.7240  221.8390 C   0  0  0  0  0  0  0  0  0  0  0  0
  139.7080   74.6300  222.3610 O   0  0  0  0  0  0  0  0  0  0  0  0
  139.8140   77.0150  222.3410 C   0  0  0  0  0  0  0  0  0  0  0  0
  138.8570   77.8390  222.8920 C   0  0  0  0  0  0  0  0  0  0  0  0
  139.2120   79.0780  223.3870 C   0  0  0  0  0  0  0  0  0  0  0  0
  140.5360   79.4950  223.3270 C   0  0  0  0  0  0  0  0  0  0  0  0
  140.8730   80.7400  223.8270 C   0  0  0  0  0  0  0  0  0  0  0  0
  142.2070   81.1170  223.7480 C   0  0  0  0  0  0  0  0  0  0  0  0
  142.5270   82.3410  224.2410 F   0  0  0  0  0  0  0  0  0  0  0  0
  143.1700   80.2900  223.1940 C   0  0  0  0  0  0  0  0  0  0  0  0
  142.7780   79.0480  222.7050 C   0  0  0  0  0  0  0  0  0  0  0  0
  141.4660   78.6420  222.7680 C   0  0  0  0  0  0  0  0  0  0  0  0
  141.0940   77.4350  222.2920 N   0  0  0  0  0  0  0  0  0  0  0  0
  140.6400   69.4210  225.2590 C   0  0  0  0  0  0  0  0  0  0  0  0
  140.6410   68.6410  226.4230 C   0  0  0  0  0  0  0  0  0  0  0  0
  140.6923   69.0976  229.7830 H   0  0  0  0  0  0  0  0  0  0  0  0
  139.7974   67.7815  228.9500 H   0  0  0  0  0  0  0  0  0  0  0  0
  141.5937   67.7860  228.9500 H   0  0  0  0  0  0  0  0  0  0  0  0
  140.7851   71.0667  228.7276 H   0  0  0  0  0  0  0  0  0  0  0  0
  140.7834   72.4535  226.7013 H   0  0  0  0  0  0  0  0  0  0  0  0
  141.2243   72.5141  224.2664 H   0  0  0  0  0  0  0  0  0  0  0  0
  141.1608   70.9111  223.3427 H   0  0  0  0  0  0  0  0  0  0  0  0
  139.1270   72.9140  223.4360 H   0  0  0  0  0  0  0  0  0  0  0  0
  136.7094   71.9762  223.3298 H   0  0  0  0  0  0  0  0  0  0  0  0
  136.6888   69.2319  222.6291 H   0  0  0  0  0  0  0  0  0  0  0  0
  135.2738   70.2674  222.8495 H   0  0  0  0  0  0  0  0  0  0  0  0
  135.9788   69.1567  220.3278 H   0  0  0  0  0  0  0  0  0  0  0  0
  134.7870   71.6260  220.5350 H   0  0  0  0  0  0  0  0  0  0  0  0
  138.0908   70.3648  220.2944 H   0  0  0  0  0  0  0  0  0  0  0  0
  137.0396   71.3112  219.2627 H   0  0  0  0  0  0  0  0  0  0  0  0
  139.0581   73.7667  220.0371 H   0  0  0  0  0  0  0  0  0  0  0  0
  137.3997   74.4834  219.4888 H   0  0  0  0  0  0  0  0  0  0  0  0
  138.2100   76.4990  220.2350 H   0  0  0  0  0  0  0  0  0  0  0  0
  137.8086   77.5092  222.9376 H   0  0  0  0  0  0  0  0  0  0  0  0
  138.4475   79.7343  223.8284 H   0  0  0  0  0  0  0  0  0  0  0  0
  140.1154   81.4039  224.2689 H   0  0  0  0  0  0  0  0  0  0  0  0
  144.2217   80.6082  223.1418 H   0  0  0  0  0  0  0  0  0  0  0  0
  143.5302   78.3797  222.2606 H   0  0  0  0  0  0  0  0  0  0  0  0
  140.5985   68.9307  224.2752 H   0  0  0  0  0  0  0  0  0  0  0  0
  140.6000   67.5448  226.3411 H   0  0  0  0  0  0  0  0  0  0  0  0
  1  2  1  0
  2  3  2  0
  3  4  1  0
  4  5  2  0
  5  6  1  0
  6  7  1  0
  7  8  1  0
  8  9  2  0
  8 10  1  0
 10 11  1  0
 11 12  1  0
 12 13  1  0
 12 14  1  0
 14 15  1  0
 15 16  1  0
 16 17  2  0
 16 18  1  0
 18 19  1  0
 19 20  1  0
 20 21  2  0
 20 22  1  0
 22 23  2  0
 23 24  1  0
 24 25  2  0
 25 26  1  0
 26 27  2  0
 27 28  1  0
 27 29  1  0
 29 30  2  0
 30 31  1  0
 31 32  2  0
  5 33  1  0
 33 34  2  0
 34  2  1  0
 15 10  1  0
 32 22  1  0
 31 25  1  0
  1 35  1  0
  1 36  1  0
  1 37  1  0
  3 38  1  0
  4 39  1  0
  6 40  1  0
  6 41  1  0
  7 42  1  0
 10 43  1  1
 11 44  1  0
 11 45  1  0
 12 46  1  6
 13 47  1  0
 14 48  1  0
 14 49  1  0
 18 50  1  0
 18 51  1  0
 19 52  1  0
 23 53  1  0
 24 54  1  0
 26 55  1  0
 29 56  1  0
 30 57  1  0
 33 58  1  0
 34 59  1  0
M  END
>  <smiles>  (17) 
Cc1ccc(CNC(=O)C2C[C@@H](O)CN2C(=O)CNC(=O)c2ccc3cc(F)ccc3n2)cc1

>  <score_type>  (17) 
oracle

>  <origin>  (17) 
autodockgpu

>  <m_score__min__energy>  (17) 
-9.8499999999999996

>  <m_primary>  (17) 
energy

>  <meeko>  (17) 
{"free_energy": -8.02, "intermolecular_energy": -10.41, "internal_energy": -2.36, "cluster_size": 2, "cluster_id": 3, "rank_in_cluster": 1}

>  <energy>  (17) 
-6.32

>  <cluster_rmsd>  (17) 
0.77

>  <rmsd>  (17) 
270.5

>  <cluster>  (17) 
6

$$$$

     RDKit          3D

 59 62  0  0  1  0  0  0  0  0999 V2000
  142.2440   70.4140  219.0910 C   0  0  0  0  0  0  0  0  0  0  0  0
  141.7270   71.6570  219.7470 C   0  0  0  0  0  0  0  0  0  0  0  0
  140.9240   72.4960  219.0240 C   0  0  0  0  0  0  0  0  0  0  0  0
  140.4270   73.6510  219.5920 C   0  0  0  0  0  0  0  0  0  0  0  0
  140.7070   74.0130  220.8920 C   0  0  0  0  0  0  0  0  0  0  0  0
  140.2140   75.2210  221.5560 C   0  0  0  0  0  0  0  0  0  0  0  0
  141.1380   76.3000  221.6850 N   0  0  0  0  0  0  0  0  0  0  0  0
  140.7910   77.6480  221.9720 C   0  0  0  0  0  0  0  0  0  0  0  0
  139.5640   77.9740  222.1370 O   0  0  0  0  0  0  0  0  0  0  0  0
  141.7730   78.7350  222.0990 C   0  0  2  0  0  0  0  0  0  0  0  0
  142.2050   79.0080  223.5040 C   0  0  0  0  0  0  0  0  0  0  0  0
  141.7430   80.4180  223.8000 C   0  0  1  0  0  0  0  0  0  0  0  0
  142.8020   81.2820  223.7460 O   0  0  0  0  0  0  0  0  0  0  0  0
  140.6820   80.6290  222.7470 C   0  0  0  0  0  0  0  0  0  0  0  0
  141.2620   80.0220  221.5770 N   0  0  0  0  0  0  0  0  0  0  0  0
  141.4110   80.3820  220.2340 C   0  0  0  0  0  0  0  0  0  0  0  0
  141.3290   81.6750  220.0100 O   0  0  0  0  0  0  0  0  0  0  0  0
  141.6450   79.6130  219.0320 C   0  0  0  0  0  0  0  0  0  0  0  0
  142.5620   78.5260  219.0230 N   0  0  0  0  0  0  0  0  0  0  0  0
  142.0050   77.1940  218.9440 C   0  0  0  0  0  0  0  0  0  0  0  0
  140.7490   77.1490  218.8850 O   0  0  0  0  0  0  0  0  0  0  0  0
  142.8470   76.0080  218.9360 C   0  0  0  0  0  0  0  0  0  0  0  0
  142.8580   75.2500  217.7860 C   0  0  0  0  0  0  0  0  0  0  0  0
  143.6350   74.1120  217.7130 C   0  0  0  0  0  0  0  0  0  0  0  0
  144.4080   73.7300  218.8040 C   0  0  0  0  0  0  0  0  0  0  0  0
  145.1800   72.5860  218.7140 C   0  0  0  0  0  0  0  0  0  0  0  0
  145.9360   72.2410  219.8260 C   0  0  0  0  0  0  0  0  0  0  0  0
  146.6910   71.1170  219.7270 F   0  0  0  0  0  0  0  0  0  0  0  0
  145.9260   73.0010  220.9830 C   0  0  0  0  0  0  0  0  0  0  0  0
  145.1320   74.1420  221.0220 C   0  0  0  0  0  0  0  0  0  0  0  0
  144.3700   74.5140  219.9390 C   0  0  0  0  0  0  0  0  0  0  0  0
  143.6020   75.6230  219.9850 N   0  0  0  0  0  0  0  0  0  0  0  0
  141.5250   73.1510  221.6180 C   0  0  0  0  0  0  0  0  0  0  0  0
  142.0260   71.9800  221.0350 C   0  0  0  0  0  0  0  0  0  0  0  0
  142.5450   69.6902  219.8627 H   0  0  0  0  0  0  0  0  0  0  0  0
  141.4541   69.9745  218.4642 H   0  0  0  0  0  0  0  0  0  0  0  0
  143.1126   70.6643  218.4642 H   0  0  0  0  0  0  0  0  0  0  0  0
  140.6727   72.2480  217.9822 H   0  0  0  0  0  0  0  0  0  0  0  0
  139.7844   74.3063  218.9856 H   0  0  0  0  0  0  0  0  0  0  0  0
  139.3499   75.5881  220.9828 H   0  0  0  0  0  0  0  0  0  0  0  0
  139.9822   74.9123  222.5860 H   0  0  0  0  0  0  0  0  0  0  0  0
  142.1780   76.1200  221.5630 H   0  0  0  0  0  0  0  0  0  0  0  0
  142.6255   78.3665  221.5096 H   0  0  0  0  0  0  0  0  0  0  0  0
  141.7338   78.2953  224.1968 H   0  0  0  0  0  0  0  0  0  0  0  0
  143.2929   78.9002  223.6256 H   0  0  0  0  0  0  0  0  0  0  0  0
  141.3361   80.5913  224.8072 H   0  0  0  0  0  0  0  0  0  0  0  0
  142.9230   81.5970  222.8330 H   0  0  0  0  0  0  0  0  0  0  0  0
  139.7425   80.1300  223.0268 H   0  0  0  0  0  0  0  0  0  0  0  0
  140.4198   81.6874  222.6016 H   0  0  0  0  0  0  0  0  0  0  0  0
  140.6705   79.2022  218.7293 H   0  0  0  0  0  0  0  0  0  0  0  0
  142.1310   80.3439  218.3689 H   0  0  0  0  0  0  0  0  0  0  0  0
  143.6020   78.5940  219.0690 H   0  0  0  0  0  0  0  0  0  0  0  0
  142.2459   75.5526  216.9236 H   0  0  0  0  0  0  0  0  0  0  0  0
  143.6429   73.5082  216.7936 H   0  0  0  0  0  0  0  0  0  0  0  0
  145.1943   71.9750  217.7994 H   0  0  0  0  0  0  0  0  0  0  0  0
  146.5329   72.7087  221.8526 H   0  0  0  0  0  0  0  0  0  0  0  0
  145.1130   74.7571  221.9338 H   0  0  0  0  0  0  0  0  0  0  0  0
  141.7804   73.3922  222.6604 H   0  0  0  0  0  0  0  0  0  0  0  0
  142.6699   71.3123  221.6262 H   0  0  0  0  0  0  0  0  0  0  0  0
  1  2  1  0
  2  3  2  0
  3  4  1  0
  4  5  2  0
  5  6  1  0
  6  7  1  0
  7  8  1  0
  8  9  2  0
  8 10  1  0
 10 11  1  0
 11 12  1  0
 12 13  1  0
 12 14  1  0
 14 15  1  0
 15 16  1  0
 16 17  2  0
 16 18  1  0
 18 19  1  0
 19 20  1  0
 20 21  2  0
 20 22  1  0
 22 23  2  0
 23 24  1  0
 24 25  2  0
 25 26  1  0
 26 27  2  0
 27 28  1  0
 27 29  1  0
 29 30  2  0
 30 31  1  0
 31 32  2  0
  5 33  1  0
 33 34  2  0
 34  2  1  0
 15 10  1  0
 32 22  1  0
 31 25  1  0
  1 35  1  0
  1 36  1  0
  1 37  1  0
  3 38  1  0
  4 39  1  0
  6 40  1  0
  6 41  1  0
  7 42  1  0
 10 43  1  6
 11 44  1  0
 11 45  1  0
 12 46  1  1
 13 47  1  0
 14 48  1  0
 14 49  1  0
 18 50  1  0
 18 51  1  0
 19 52  1  0
 23 53  1  0
 24 54  1  0
 26 55  1  0
 29 56  1  0
 30 57  1  0
 33 58  1  0
 34 59  1  0
M  END
>  <smiles>  (18) 
Cc1ccc(CNC(=O)C2C[C@@H](O)CN2C(=O)CNC(=O)c2ccc3cc(F)ccc3n2)cc1

>  <score_type>  (18) 
oracle

>  <origin>  (18) 
autodockgpu

>  <m_score__min__energy>  (18) 
-9.8499999999999996

>  <m_primary>  (18) 
energy

>  <meeko>  (18) 
{"free_energy": -6.52, "intermolecular_energy": -8.9, "internal_energy": -4.24, "cluster_size": 3, "cluster_id": 7, "rank_in_cluster": 1}

>  <energy>  (18) 
-6.52

>  <cluster_rmsd>  (18) 
0.0

>  <rmsd>  (18) 
270.79

>  <cluster>  (18) 
7

$$$$

     RDKit          3D

 59 62  0  0  1  0  0  0  0  0999 V2000
  142.9040   80.8860  224.2010 C   0  0  0  0  0  0  0  0  0  0  0  0
  142.2390   80.0070  223.1870 C   0  0  0  0  0  0  0  0  0  0  0  0
  141.6710   78.8350  223.6040 C   0  0  0  0  0  0  0  0  0  0  0  0
  141.0490   77.9970  222.7020 C   0  0  0  0  0  0  0  0  0  0  0  0
  140.9680   78.2920  221.3580 C   0  0  0  0  0  0  0  0  0  0  0  0
  140.3240   77.4510  220.3470 C   0  0  0  0  0  0  0  0  0  0  0  0
  140.0030   76.1170  220.7380 N   0  0  0  0  0  0  0  0  0  0  0  0
  140.9490   75.0850  220.9860 C   0  0  0  0  0  0  0  0  0  0  0  0
  142.2020   75.3190  220.8640 O   0  0  0  0  0  0  0  0  0  0  0  0
  140.5790   73.7200  221.3890 C   0  0  2  0  0  0  0  0  0  0  0  0
  141.6820   72.7200  221.2430 C   0  0  0  0  0  0  0  0  0  0  0  0
  141.1920   71.7300  220.2090 C   0  0  1  0  0  0  0  0  0  0  0  0
  140.7850   70.5750  220.8190 O   0  0  0  0  0  0  0  0  0  0  0  0
  140.1040   72.5130  219.5140 C   0  0  0  0  0  0  0  0  0  0  0  0
  139.4450   73.1860  220.6030 N   0  0  0  0  0  0  0  0  0  0  0  0
  138.1190   73.3920  220.9950 C   0  0  0  0  0  0  0  0  0  0  0  0
  137.5460   74.4350  220.4350 O   0  0  0  0  0  0  0  0  0  0  0  0
  137.2390   72.6800  221.8970 C   0  0  0  0  0  0  0  0  0  0  0  0
  137.7370   72.0860  223.0900 N   0  0  0  0  0  0  0  0  0  0  0  0
  138.3890   70.8020  222.9630 C   0  0  0  0  0  0  0  0  0  0  0  0
  138.4470   70.3520  221.7900 O   0  0  0  0  0  0  0  0  0  0  0  0
  138.9300   70.0980  224.1150 C   0  0  0  0  0  0  0  0  0  0  0  0
  138.8010   68.7270  224.1340 C   0  0  0  0  0  0  0  0  0  0  0  0
  139.2920   67.9990  225.1990 C   0  0  0  0  0  0  0  0  0  0  0  0
  139.9200   68.6520  226.2530 C   0  0  0  0  0  0  0  0  0  0  0  0
  140.4060   67.9060  227.3120 C   0  0  0  0  0  0  0  0  0  0  0  0
  141.0250   68.5980  228.3440 C   0  0  0  0  0  0  0  0  0  0  0  0
  141.5000   67.8580  229.3790 F   0  0  0  0  0  0  0  0  0  0  0  0
  141.1570   69.9760  228.3270 C   0  0  0  0  0  0  0  0  0  0  0  0
  140.6500   70.6790  227.2390 C   0  0  0  0  0  0  0  0  0  0  0  0
  140.0310   70.0260  226.1990 C   0  0  0  0  0  0  0  0  0  0  0  0
  139.5420   70.7150  225.1470 N   0  0  0  0  0  0  0  0  0  0  0  0
  141.5490   79.4880  220.9440 C   0  0  0  0  0  0  0  0  0  0  0  0
  142.1790   80.3330  221.8670 C   0  0  0  0  0  0  0  0  0  0  0  0
  142.6432   80.5412  225.2125 H   0  0  0  0  0  0  0  0  0  0  0  0
  143.9949   80.8393  224.0676 H   0  0  0  0  0  0  0  0  0  0  0  0
  142.5624   81.9231  224.0676 H   0  0  0  0  0  0  0  0  0  0  0  0
  141.7105   78.5581  224.6679 H   0  0  0  0  0  0  0  0  0  0  0  0
  140.6021   77.0609  223.0680 H   0  0  0  0  0  0  0  0  0  0  0  0
  139.3882   77.9457  220.0478 H   0  0  0  0  0  0  0  0  0  0  0  0
  141.0647   77.3473  219.5404 H   0  0  0  0  0  0  0  0  0  0  0  0
  138.9880   75.8360  220.8630 H   0  0  0  0  0  0  0  0  0  0  0  0
  140.3174   73.8390  222.4508 H   0  0  0  0  0  0  0  0  0  0  0  0
  142.6040   73.2114  220.8988 H   0  0  0  0  0  0  0  0  0  0  0  0
  141.9192   72.2298  222.1988 H   0  0  0  0  0  0  0  0  0  0  0  0
  141.9417   71.3751  219.4865 H   0  0  0  0  0  0  0  0  0  0  0  0
  139.8140   70.5640  220.8880 H   0  0  0  0  0  0  0  0  0  0  0  0
  140.5297   73.2355  218.8021 H   0  0  0  0  0  0  0  0  0  0  0  0
  139.4265   71.8816  218.9204 H   0  0  0  0  0  0  0  0  0  0  0  0
  136.4616   73.3948  222.2046 H   0  0  0  0  0  0  0  0  0  0  0  0
  136.9361   71.8069  221.3004 H   0  0  0  0  0  0  0  0  0  0  0  0
  137.6780   72.4860  224.0510 H   0  0  0  0  0  0  0  0  0  0  0  0
  138.3055   68.2109  223.2985 H   0  0  0  0  0  0  0  0  0  0  0  0
  139.1865   66.9042  225.2135 H   0  0  0  0  0  0  0  0  0  0  0  0
  140.3061   66.8108  227.3352 H   0  0  0  0  0  0  0  0  0  0  0  0
  141.6520   70.5035  229.1557 H   0  0  0  0  0  0  0  0  0  0  0  0
  140.7457   71.7744  227.2101 H   0  0  0  0  0  0  0  0  0  0  0  0
  141.5129   79.7720  219.8819 H   0  0  0  0  0  0  0  0  0  0  0  0
  142.6317   81.2735  221.5198 H   0  0  0  0  0  0  0  0  0  0  0  0
  1  2  1  0
  2  3  2  0
  3  4  1  0
  4  5  2  0
  5  6  1  0
  6  7  1  0
  7  8  1  0
  8  9  2  0
  8 10  1  0
 10 11  1  0
 11 12  1  0
 12 13  1  0
 12 14  1  0
 14 15  1  0
 15 16  1  0
 16 17  2  0
 16 18  1  0
 18 19  1  0
 19 20  1  0
 20 21  2  0
 20 22  1  0
 22 23  2  0
 23 24  1  0
 24 25  2  0
 25 26  1  0
 26 27  2  0
 27 28  1  0
 27 29  1  0
 29 30  2  0
 30 31  1  0
 31 32  2  0
  5 33  1  0
 33 34  2  0
 34  2  1  0
 15 10  1  0
 32 22  1  0
 31 25  1  0
  1 35  1  0
  1 36  1  0
  1 37  1  0
  3 38  1  0
  4 39  1  0
  6 40  1  0
  6 41  1  0
  7 42  1  0
 10 43  1  1
 11 44  1  0
 11 45  1  0
 12 46  1  6
 13 47  1  0
 14 48  1  0
 14 49  1  0
 18 50  1  0
 18 51  1  0
 19 52  1  0
 23 53  1  0
 24 54  1  0
 26 55  1  0
 29 56  1  0
 30 57  1  0
 33 58  1  0
 34 59  1  0
M  END
>  <smiles>  (19) 
Cc1ccc(CNC(=O)C2C[C@@H](O)CN2C(=O)CNC(=O)c2ccc3cc(F)ccc3n2)cc1

>  <score_type>  (19) 
oracle

>  <origin>  (19) 
autodockgpu

>  <m_score__min__energy>  (19) 
-9.8499999999999996

>  <m_primary>  (19) 
energy

>  <meeko>  (19) 
{"free_energy": -7.77, "intermolecular_energy": -10.15, "internal_energy": -3.33, "cluster_size": 4, "cluster_id": 4, "rank_in_cluster": 2}

>  <energy>  (19) 
-6.47

>  <cluster_rmsd>  (19) 
0.06

>  <rmsd>  (19) 
270.76

>  <cluster>  (19) 
7

$$$$

     RDKit          3D

 59 62  0  0  1  0  0  0  0  0999 V2000
  142.2200   81.6410  224.1520 C   0  0  0  0  0  0  0  0  0  0  0  0
  141.7050   80.3930  223.5040 C   0  0  0  0  0  0  0  0  0  0  0  0
  140.4610   79.9390  223.8470 C   0  0  0  0  0  0  0  0  0  0  0  0
  139.9510   78.7940  223.2730 C   0  0  0  0  0  0  0  0  0  0  0  0
  140.6530   78.0600  222.3410 C   0  0  0  0  0  0  0  0  0  0  0  0
  140.1730   76.8390  221.6930 C   0  0  0  0  0  0  0  0  0  0  0  0
  141.1000   76.1580  220.8490 N   0  0  0  0  0  0  0  0  0  0  0  0
  141.5180   74.8090  221.0100 C   0  0  0  0  0  0  0  0  0  0  0  0
  141.0560   74.1030  221.9730 O   0  0  0  0  0  0  0  0  0  0  0  0
  142.4760   74.1400  220.1170 C   0  0  2  0  0  0  0  0  0  0  0  0
  143.5030   73.3170  220.8290 C   0  0  0  0  0  0  0  0  0  0  0  0
  144.8300   73.9710  220.5140 C   0  0  1  0  0  0  0  0  0  0  0  0
  145.5020   73.2430  219.5700 O   0  0  0  0  0  0  0  0  0  0  0  0
  144.4060   75.3540  220.0820 C   0  0  0  0  0  0  0  0  0  0  0  0
  143.2360   75.0980  219.2830 N   0  0  0  0  0  0  0  0  0  0  0  0
  142.7600   75.5260  218.0400 C   0  0  0  0  0  0  0  0  0  0  0  0
  141.7830   74.7920  217.5550 O   0  0  0  0  0  0  0  0  0  0  0  0
  143.1250   76.6260  217.1730 C   0  0  0  0  0  0  0  0  0  0  0  0
  143.0150   77.9730  217.6140 N   0  0  0  0  0  0  0  0  0  0  0  0
  141.7770   78.3580  218.2530 C   0  0  0  0  0  0  0  0  0  0  0  0
  140.9250   77.4370  218.3540 O   0  0  0  0  0  0  0  0  0  0  0  0
  141.5480   79.7110  218.7360 C   0  0  0  0  0  0  0  0  0  0  0  0
  142.3040   80.7170  218.1770 C   0  0  0  0  0  0  0  0  0  0  0  0
  142.1360   82.0220  218.5920 C   0  0  0  0  0  0  0  0  0  0  0  0
  141.2020   82.3220  219.5760 C   0  0  0  0  0  0  0  0  0  0  0  0
  141.0480   83.6350  219.9800 C   0  0  0  0  0  0  0  0  0  0  0  0
  140.1040   83.8900  220.9660 C   0  0  0  0  0  0  0  0  0  0  0  0
  139.9600   85.1830  221.3560 F   0  0  0  0  0  0  0  0  0  0  0  0
  139.3430   82.8800  221.5300 C   0  0  0  0  0  0  0  0  0  0  0  0
  139.5370   81.5760  221.0890 C   0  0  0  0  0  0  0  0  0  0  0  0
  140.4640   81.2870  220.1130 C   0  0  0  0  0  0  0  0  0  0  0  0
  140.6460   80.0190  219.6910 N   0  0  0  0  0  0  0  0  0  0  0  0
  141.9180   78.5320  221.9990 C   0  0  0  0  0  0  0  0  0  0  0  0
  142.4300   79.6960  222.5860 C   0  0  0  0  0  0  0  0  0  0  0  0
  142.1749   81.5317  225.2456 H   0  0  0  0  0  0  0  0  0  0  0  0
  143.2619   81.8114  223.8432 H   0  0  0  0  0  0  0  0  0  0  0  0
  141.6015   82.4966  223.8432 H   0  0  0  0  0  0  0  0  0  0  0  0
  139.8630   80.4918  224.5865 H   0  0  0  0  0  0  0  0  0  0  0  0
  138.9478   78.4539  223.5694 H   0  0  0  0  0  0  0  0  0  0  0  0
  139.8659   76.1395  222.4845 H   0  0  0  0  0  0  0  0  0  0  0  0
  139.3592   77.1638  221.0280 H   0  0  0  0  0  0  0  0  0  0  0  0
  141.5340   76.6670  220.0250 H   0  0  0  0  0  0  0  0  0  0  0  0
  141.8313   73.4909  219.5062 H   0  0  0  0  0  0  0  0  0  0  0  0
  143.3180   73.3243  221.9133 H   0  0  0  0  0  0  0  0  0  0  0  0
  143.4788   72.2651  220.5082 H   0  0  0  0  0  0  0  0  0  0  0  0
  145.5507   74.0231  221.3434 H   0  0  0  0  0  0  0  0  0  0  0  0
  145.9790   73.8430  218.9700 H   0  0  0  0  0  0  0  0  0  0  0  0
  144.1617   75.9824  220.9512 H   0  0  0  0  0  0  0  0  0  0  0  0
  145.1919   75.8989  219.5385 H   0  0  0  0  0  0  0  0  0  0  0  0
  144.1790   76.4717  216.8988 H   0  0  0  0  0  0  0  0  0  0  0  0
  142.3673   76.5690  216.3776 H   0  0  0  0  0  0  0  0  0  0  0  0
  143.7400   78.7160  217.5200 H   0  0  0  0  0  0  0  0  0  0  0  0
  143.0434   80.4797  217.3979 H   0  0  0  0  0  0  0  0  0  0  0  0
  142.7409   82.8243  218.1443 H   0  0  0  0  0  0  0  0  0  0  0  0
  141.6483   84.4443  219.5387 H   0  0  0  0  0  0  0  0  0  0  0  0
  138.6009   83.1046  222.3102 H   0  0  0  0  0  0  0  0  0  0  0  0
  138.9404   80.7621  221.5268 H   0  0  0  0  0  0  0  0  0  0  0  0
  142.5214   77.9847  221.2599 H   0  0  0  0  0  0  0  0  0  0  0  0
  143.4312   80.0519  222.3016 H   0  0  0  0  0  0  0  0  0  0  0  0
  1  2  1  0
  2  3  2  0
  3  4  1  0
  4  5  2  0
  5  6  1  0
  6  7  1  0
  7  8  1  0
  8  9  2  0
  8 10  1  0
 10 11  1  0
 11 12  1  0
 12 13  1  0
 12 14  1  0
 14 15  1  0
 15 16  1  0
 16 17  2  0
 16 18  1  0
 18 19  1  0
 19 20  1  0
 20 21  2  0
 20 22  1  0
 22 23  2  0
 23 24  1  0
 24 25  2  0
 25 26  1  0
 26 27  2  0
 27 28  1  0
 27 29  1  0
 29 30  2  0
 30 31  1  0
 31 32  2  0
  5 33  1  0
 33 34  2  0
 34  2  1  0
 15 10  1  0
 32 22  1  0
 31 25  1  0
  1 35  1  0
  1 36  1  0
  1 37  1  0
  3 38  1  0
  4 39  1  0
  6 40  1  0
  6 41  1  0
  7 42  1  0
 10 43  1  6
 11 44  1  0
 11 45  1  0
 12 46  1  1
 13 47  1  0
 14 48  1  0
 14 49  1  0
 18 50  1  0
 18 51  1  0
 19 52  1  0
 23 53  1  0
 24 54  1  0
 26 55  1  0
 29 56  1  0
 30 57  1  0
 33 58  1  0
 34 59  1  0
M  END
>  <smiles>  (20) 
Cc1ccc(CNC(=O)C2C[C@@H](O)CN2C(=O)CNC(=O)c2ccc3cc(F)ccc3n2)cc1

>  <score_type>  (20) 
oracle

>  <origin>  (20) 
autodockgpu

>  <m_score__min__energy>  (20) 
-9.8499999999999996

>  <m_primary>  (20) 
energy

>  <meeko>  (20) 
{"free_energy": -7.08, "intermolecular_energy": -9.47, "internal_energy": -3.8, "cluster_size": 3, "cluster_id": 5, "rank_in_cluster": 1}

>  <energy>  (20) 
-6.29

>  <cluster_rmsd>  (20) 
0.39

>  <rmsd>  (20) 
270.66

>  <cluster>  (20) 
7

$$$$

     RDKit          3D

 59 62  0  0  1  0  0  0  0  0999 V2000
  142.1290   81.5430  223.9680 C   0  0  0  0  0  0  0  0  0  0  0  0
  141.4630   80.2930  223.5230 C   0  0  0  0  0  0  0  0  0  0  0  0
  140.1250   80.1500  223.7570 C   0  0  0  0  0  0  0  0  0  0  0  0
  139.4680   79.0040  223.3590 C   0  0  0  0  0  0  0  0  0  0  0  0
  140.0880   77.9540  222.7210 C   0  0  0  0  0  0  0  0  0  0  0  0
  139.4280   76.7240  222.2790 C   0  0  0  0  0  0  0  0  0  0  0  0
  140.2550   76.0230  221.3300 N   0  0  0  0  0  0  0  0  0  0  0  0
  140.2750   76.2280  219.9460 C   0  0  0  0  0  0  0  0  0  0  0  0
  139.5280   77.0910  219.3840 O   0  0  0  0  0  0  0  0  0  0  0  0
  141.1640   75.4630  219.0180 C   0  0  1  0  0  0  0  0  0  0  0  0
  142.4210   76.2070  218.7030 C   0  0  0  0  0  0  0  0  0  0  0  0
  143.5280   75.4650  219.3810 C   0  0  1  0  0  0  0  0  0  0  0  0
  144.3770   76.3150  220.0970 O   0  0  0  0  0  0  0  0  0  0  0  0
  142.8150   74.4980  220.2920 C   0  0  0  0  0  0  0  0  0  0  0  0
  141.5650   74.2050  219.5840 N   0  0  0  0  0  0  0  0  0  0  0  0
  140.9330   72.9260  219.5090 C   0  0  0  0  0  0  0  0  0  0  0  0
  141.5180   72.0120  218.9130 O   0  0  0  0  0  0  0  0  0  0  0  0
  139.6050   72.8040  220.1660 C   0  0  0  0  0  0  0  0  0  0  0  0
  139.6380   71.8480  221.2560 N   0  0  0  0  0  0  0  0  0  0  0  0
  139.8540   72.3790  222.5710 C   0  0  0  0  0  0  0  0  0  0  0  0
  139.9970   73.6040  222.6880 O   0  0  0  0  0  0  0  0  0  0  0  0
  139.8990   71.4750  223.7160 C   0  0  0  0  0  0  0  0  0  0  0  0
  139.3710   70.2080  223.5740 C   0  0  0  0  0  0  0  0  0  0  0  0
  139.3780   69.2940  224.6150 C   0  0  0  0  0  0  0  0  0  0  0  0
  139.9370   69.6960  225.8110 C   0  0  0  0  0  0  0  0  0  0  0  0
  139.9640   68.8130  226.8750 C   0  0  0  0  0  0  0  0  0  0  0  0
  140.5230   69.1880  228.1010 C   0  0  0  0  0  0  0  0  0  0  0  0
  140.5320   68.2930  229.1280 F   0  0  0  0  0  0  0  0  0  0  0  0
  141.0450   70.4600  228.2180 C   0  0  0  0  0  0  0  0  0  0  0  0
  141.0340   71.3720  227.1700 C   0  0  0  0  0  0  0  0  0  0  0  0
  140.4750   70.9800  225.9590 C   0  0  0  0  0  0  0  0  0  0  0  0
  140.4420   71.8420  224.9030 N   0  0  0  0  0  0  0  0  0  0  0  0
  141.4560   78.1070  222.4860 C   0  0  0  0  0  0  0  0  0  0  0  0
  142.1270   79.2650  222.8860 C   0  0  0  0  0  0  0  0  0  0  0  0
  142.1473   81.5774  225.0673 H   0  0  0  0  0  0  0  0  0  0  0  0
  143.1592   81.5666  223.5832 H   0  0  0  0  0  0  0  0  0  0  0  0
  141.5739   82.4112  223.5832 H   0  0  0  0  0  0  0  0  0  0  0  0
  139.5690   80.9518  224.2649 H   0  0  0  0  0  0  0  0  0  0  0  0
  138.3899   78.9252  223.5627 H   0  0  0  0  0  0  0  0  0  0  0  0
  139.2472   76.0767  223.1498 H   0  0  0  0  0  0  0  0  0  0  0  0
  138.4742   76.9844  221.7969 H   0  0  0  0  0  0  0  0  0  0  0  0
  140.8990   75.2900  221.7240 H   0  0  0  0  0  0  0  0  0  0  0  0
  140.5674   75.3113  218.1064 H   0  0  0  0  0  0  0  0  0  0  0  0
  142.5877   76.2303  217.6160 H   0  0  0  0  0  0  0  0  0  0  0  0
  142.3667   77.2494  219.0501 H   0  0  0  0  0  0  0  0  0  0  0  0
  144.1880   74.9612  218.6594 H   0  0  0  0  0  0  0  0  0  0  0  0
  144.0680   77.2500  219.9070 H   0  0  0  0  0  0  0  0  0  0  0  0
  143.4087   73.5829  220.4334 H   0  0  0  0  0  0  0  0  0  0  0  0
  142.6469   74.9081  221.2988 H   0  0  0  0  0  0  0  0  0  0  0  0
  139.3100   73.7872  220.5615 H   0  0  0  0  0  0  0  0  0  0  0  0
  138.8806   72.4500  219.4178 H   0  0  0  0  0  0  0  0  0  0  0  0
  139.5120   70.8140  221.1150 H   0  0  0  0  0  0  0  0  0  0  0  0
  138.9328   69.9159  222.6083 H   0  0  0  0  0  0  0  0  0  0  0  0
  138.9542   68.2863  224.4929 H   0  0  0  0  0  0  0  0  0  0  0  0
  139.5412   67.8045  226.7558 H   0  0  0  0  0  0  0  0  0  0  0  0
  141.4870   70.7637  229.1784 H   0  0  0  0  0  0  0  0  0  0  0  0
  141.4572   72.3796  227.2954 H   0  0  0  0  0  0  0  0  0  0  0  0
  142.0126   77.3049  221.9791 H   0  0  0  0  0  0  0  0  0  0  0  0
  143.2052   79.3591  222.6894 H   0  0  0  0  0  0  0  0  0  0  0  0
  1  2  1  0
  2  3  2  0
  3  4  1  0
  4  5  2  0
  5  6  1  0
  6  7  1  0
  7  8  1  0
  8  9  2  0
  8 10  1  0
 10 11  1  0
 11 12  1  0
 12 13  1  0
 12 14  1  0
 14 15  1  0
 15 16  1  0
 16 17  2  0
 16 18  1  0
 18 19  1  0
 19 20  1  0
 20 21  2  0
 20 22  1  0
 22 23  2  0
 23 24  1  0
 24 25  2  0
 25 26  1  0
 26 27  2  0
 27 28  1  0
 27 29  1  0
 29 30  2  0
 30 31  1  0
 31 32  2  0
  5 33  1  0
 33 34  2  0
 34  2  1  0
 15 10  1  0
 32 22  1  0
 31 25  1  0
  1 35  1  0
  1 36  1  0
  1 37  1  0
  3 38  1  0
  4 39  1  0
  6 40  1  0
  6 41  1  0
  7 42  1  0
 10 43  1  6
 11 44  1  0
 11 45  1  0
 12 46  1  6
 13 47  1  0
 14 48  1  0
 14 49  1  0
 18 50  1  0
 18 51  1  0
 19 52  1  0
 23 53  1  0
 24 54  1  0
 26 55  1  0
 29 56  1  0
 30 57  1  0
 33 58  1  0
 34 59  1  0
M  END
>  <smiles>  (21) 
Cc1ccc(CNC(=O)C2C[C@@H](O)CN2C(=O)CNC(=O)c2ccc3cc(F)ccc3n2)cc1

>  <score_type>  (21) 
oracle

>  <origin>  (21) 
autodockgpu

>  <m_score__min__energy>  (21) 
-9.4000000000000004

>  <m_primary>  (21) 
energy

>  <meeko>  (21) 
{"free_energy": -8.74, "intermolecular_energy": -11.12, "internal_energy": -2.58, "cluster_size": 7, "cluster_id": 1, "rank_in_cluster": 7}

>  <energy>  (21) 
-9.4

>  <cluster_rmsd>  (21) 
0.0

>  <rmsd>  (21) 
271.08

>  <cluster>  (21) 
1

$$$$

     RDKit          3D

 59 62  0  0  1  0  0  0  0  0999 V2000
  142.0680   81.2920  224.0490 C   0  0  0  0  0  0  0  0  0  0  0  0
  141.4150   80.0750  223.5040 C   0  0  0  0  0  0  0  0  0  0  0  0
  140.0530   79.9910  223.5530 C   0  0  0  0  0  0  0  0  0  0  0  0
  139.4060   78.8770  223.0580 C   0  0  0  0  0  0  0  0  0  0  0  0
  140.0600   77.8040  222.4980 C   0  0  0  0  0  0  0  0  0  0  0  0
  139.4140   76.6060  221.9570 C   0  0  0  0  0  0  0  0  0  0  0  0
  140.3810   75.7680  221.2970 N   0  0  0  0  0  0  0  0  0  0  0  0
  140.6070   74.4110  221.5550 C   0  0  0  0  0  0  0  0  0  0  0  0
  139.9470   73.7760  222.4380 O   0  0  0  0  0  0  0  0  0  0  0  0
  141.6300   73.5990  220.8270 C   0  0  1  0  0  0  0  0  0  0  0  0
  141.0620   72.3200  220.3010 C   0  0  0  0  0  0  0  0  0  0  0  0
  141.0180   72.4620  218.8130 C   0  0  1  0  0  0  0  0  0  0  0  0
  139.7840   72.0780  218.2790 O   0  0  0  0  0  0  0  0  0  0  0  0
  141.2910   73.9270  218.5770 C   0  0  0  0  0  0  0  0  0  0  0  0
  142.1610   74.3050  219.6940 N   0  0  0  0  0  0  0  0  0  0  0  0
  143.2800   75.1890  219.6120 C   0  0  0  0  0  0  0  0  0  0  0  0
  144.1990   75.0580  220.4310 O   0  0  0  0  0  0  0  0  0  0  0  0
  143.2420   76.2080  218.5300 C   0  0  0  0  0  0  0  0  0  0  0  0
  142.7250   77.4740  219.0110 N   0  0  0  0  0  0  0  0  0  0  0  0
  141.3060   77.6640  218.9290 C   0  0  0  0  0  0  0  0  0  0  0  0
  140.6230   76.7450  218.4570 O   0  0  0  0  0  0  0  0  0  0  0  0
  140.7170   78.9140  219.3950 C   0  0  0  0  0  0  0  0  0  0  0  0
  139.3450   79.0580  219.3330 C   0  0  0  0  0  0  0  0  0  0  0  0
  138.7120   80.2150  219.7570 C   0  0  0  0  0  0  0  0  0  0  0  0
  139.5070   81.2310  220.2490 C   0  0  0  0  0  0  0  0  0  0  0  0
  138.9150   82.4030  220.6840 C   0  0  0  0  0  0  0  0  0  0  0  0
  139.6900   83.4520  221.1890 C   0  0  0  0  0  0  0  0  0  0  0  0
  139.0740   84.5920  221.6060 F   0  0  0  0  0  0  0  0  0  0  0  0
  141.0590   83.2840  221.2410 C   0  0  0  0  0  0  0  0  0  0  0  0
  141.6870   82.1200  220.8130 C   0  0  0  0  0  0  0  0  0  0  0  0
  140.8990   81.0890  220.3150 C   0  0  0  0  0  0  0  0  0  0  0  0
  141.4710   79.9300  219.8850 N   0  0  0  0  0  0  0  0  0  0  0  0
  141.4530   77.8970  222.4520 C   0  0  0  0  0  0  0  0  0  0  0  0
  142.1130   79.0210  222.9510 C   0  0  0  0  0  0  0  0  0  0  0  0
  142.0493   81.2571  225.1483 H   0  0  0  0  0  0  0  0  0  0  0  0
  143.1107   81.3356  223.7012 H   0  0  0  0  0  0  0  0  0  0  0  0
  141.5278   82.1849  223.7012 H   0  0  0  0  0  0  0  0  0  0  0  0
  139.4689   80.8149  223.9889 H   0  0  0  0  0  0  0  0  0  0  0  0
  138.3079   78.8453  223.1143 H   0  0  0  0  0  0  0  0  0  0  0  0
  138.9479   76.0431  222.7792 H   0  0  0  0  0  0  0  0  0  0  0  0
  138.6501   76.9118  221.2270 H   0  0  0  0  0  0  0  0  0  0  0  0
  140.9680   76.2270  220.5530 H   0  0  0  0  0  0  0  0  0  0  0  0
  142.4173   73.3961  221.5679 H   0  0  0  0  0  0  0  0  0  0  0  0
  141.7042   71.4730  220.5841 H   0  0  0  0  0  0  0  0  0  0  0  0
  140.0611   72.1267  220.7143 H   0  0  0  0  0  0  0  0  0  0  0  0
  141.7493   71.8076  218.3160 H   0  0  0  0  0  0  0  0  0  0  0  0
  139.0840   72.5840  218.7890 H   0  0  0  0  0  0  0  0  0  0  0  0
  141.8004   74.0805  217.6142 H   0  0  0  0  0  0  0  0  0  0  0  0
  140.3715   74.5290  218.5314 H   0  0  0  0  0  0  0  0  0  0  0  0
  144.2617   76.3607  218.1467 H   0  0  0  0  0  0  0  0  0  0  0  0
  142.5756   75.8426  217.7348 H   0  0  0  0  0  0  0  0  0  0  0  0
  143.3400   78.2310  219.4060 H   0  0  0  0  0  0  0  0  0  0  0  0
  138.7379   78.2311  218.9359 H   0  0  0  0  0  0  0  0  0  0  0  0
  137.6183   80.3202  219.7038 H   0  0  0  0  0  0  0  0  0  0  0  0
  137.8216   82.5113  220.6322 H   0  0  0  0  0  0  0  0  0  0  0  0
  141.6773   84.1033  221.6366 H   0  0  0  0  0  0  0  0  0  0  0  0
  142.7809   82.0174  220.8671 H   0  0  0  0  0  0  0  0  0  0  0  0
  142.0377   77.0733  222.0166 H   0  0  0  0  0  0  0  0  0  0  0  0
  143.2110   79.0675  222.9025 H   0  0  0  0  0  0  0  0  0  0  0  0
  1  2  1  0
  2  3  2  0
  3  4  1  0
  4  5  2  0
  5  6  1  0
  6  7  1  0
  7  8  1  0
  8  9  2  0
  8 10  1  0
 10 11  1  0
 11 12  1  0
 12 13  1  0
 12 14  1  0
 14 15  1  0
 15 16  1  0
 16 17  2  0
 16 18  1  0
 18 19  1  0
 19 20  1  0
 20 21  2  0
 20 22  1  0
 22 23  2  0
 23 24  1  0
 24 25  2  0
 25 26  1  0
 26 27  2  0
 27 28  1  0
 27 29  1  0
 29 30  2  0
 30 31  1  0
 31 32  2  0
  5 33  1  0
 33 34  2  0
 34  2  1  0
 15 10  1  0
 32 22  1  0
 31 25  1  0
  1 35  1  0
  1 36  1  0
  1 37  1  0
  3 38  1  0
  4 39  1  0
  6 40  1  0
  6 41  1  0
  7 42  1  0
 10 43  1  1
 11 44  1  0
 11 45  1  0
 12 46  1  6
 13 47  1  0
 14 48  1  0
 14 49  1  0
 18 50  1  0
 18 51  1  0
 19 52  1  0
 23 53  1  0
 24 54  1  0
 26 55  1  0
 29 56  1  0
 30 57  1  0
 33 58  1  0
 34 59  1  0
M  END
>  <smiles>  (22) 
Cc1ccc(CNC(=O)C2C[C@@H](O)CN2C(=O)CNC(=O)c2ccc3cc(F)ccc3n2)cc1

>  <score_type>  (22) 
oracle

>  <origin>  (22) 
autodockgpu

>  <m_score__min__energy>  (22) 
-9.4000000000000004

>  <m_primary>  (22) 
energy

>  <meeko>  (22) 
{"free_energy": -5.7, "intermolecular_energy": -8.08, "internal_energy": -4.52, "cluster_size": 1, "cluster_id": 8, "rank_in_cluster": 1}

>  <energy>  (22) 
-9.37

>  <cluster_rmsd>  (22) 
0.63

>  <rmsd>  (22) 
271.14

>  <cluster>  (22) 
1

$$$$

     RDKit          3D

 59 62  0  0  1  0  0  0  0  0999 V2000
  142.2710   81.3110  224.2230 C   0  0  0  0  0  0  0  0  0  0  0  0
  142.0800   80.7350  222.8680 C   0  0  0  0  0  0  0  0  0  0  0  0
  141.8460   81.5870  221.8270 C   0  0  0  0  0  0  0  0  0  0  0  0
  141.6630   81.0930  220.5510 C   0  0  0  0  0  0  0  0  0  0  0  0
  141.7010   79.7530  220.2420 C   0  0  0  0  0  0  0  0  0  0  0  0
  141.5170   79.1880  218.9040 C   0  0  0  0  0  0  0  0  0  0  0  0
  141.2390   77.7770  218.9880 N   0  0  0  0  0  0  0  0  0  0  0  0
  142.1810   76.7450  218.9000 C   0  0  0  0  0  0  0  0  0  0  0  0
  143.4200   76.9790  218.7280 O   0  0  0  0  0  0  0  0  0  0  0  0
  141.8200   75.2980  218.9980 C   0  0  1  0  0  0  0  0  0  0  0  0
  142.7790   74.4280  218.2520 C   0  0  0  0  0  0  0  0  0  0  0  0
  143.5480   73.6690  219.2860 C   0  0  1  0  0  0  0  0  0  0  0  0
  144.9260   73.6970  219.0500 O   0  0  0  0  0  0  0  0  0  0  0  0
  143.1940   74.3550  220.5810 C   0  0  0  0  0  0  0  0  0  0  0  0
  141.8280   74.8390  220.3590 N   0  0  0  0  0  0  0  0  0  0  0  0
  140.7770   74.8310  221.3270 C   0  0  0  0  0  0  0  0  0  0  0  0
  140.7140   75.7620  222.1400 O   0  0  0  0  0  0  0  0  0  0  0  0
  139.8330   73.6830  221.2710 C   0  0  0  0  0  0  0  0  0  0  0  0
  139.7870   72.9720  222.5340 N   0  0  0  0  0  0  0  0  0  0  0  0
  140.0490   71.5620  222.4890 C   0  0  0  0  0  0  0  0  0  0  0  0
  140.2930   71.0510  221.3880 O   0  0  0  0  0  0  0  0  0  0  0  0
  140.0190   70.7830  223.7220 C   0  0  0  0  0  0  0  0  0  0  0  0
  139.4380   69.5320  223.6950 C   0  0  0  0  0  0  0  0  0  0  0  0
  139.3710   68.7330  224.8240 C   0  0  0  0  0  0  0  0  0  0  0  0
  139.9120   69.2340  225.9900 C   0  0  0  0  0  0  0  0  0  0  0  0
  139.8680   68.4680  227.1410 C   0  0  0  0  0  0  0  0  0  0  0  0
  140.4070   68.9460  228.3400 C   0  0  0  0  0  0  0  0  0  0  0  0
  140.3440   68.1640  229.4540 F   0  0  0  0  0  0  0  0  0  0  0  0
  140.9830   70.2000  228.3420 C   0  0  0  0  0  0  0  0  0  0  0  0
  141.0450   70.9960  227.2050 C   0  0  0  0  0  0  0  0  0  0  0  0
  140.5040   70.5030  226.0230 C   0  0  0  0  0  0  0  0  0  0  0  0
  140.5430   71.2490  224.8830 N   0  0  0  0  0  0  0  0  0  0  0  0
  141.9410   78.8880  221.3120 C   0  0  0  0  0  0  0  0  0  0  0  0
  142.1270   79.3820  222.6050 C   0  0  0  0  0  0  0  0  0  0  0  0
  142.0203   80.5548  224.9815 H   0  0  0  0  0  0  0  0  0  0  0  0
  143.3196   81.6198  224.3457 H   0  0  0  0  0  0  0  0  0  0  0  0
  141.6146   82.1851  224.3457 H   0  0  0  0  0  0  0  0  0  0  0  0
  141.8031   82.6715  222.0058 H   0  0  0  0  0  0  0  0  0  0  0  0
  141.4767   81.8095  219.7374 H   0  0  0  0  0  0  0  0  0  0  0  0
  140.6750   79.6944  218.4095 H   0  0  0  0  0  0  0  0  0  0  0  0
  142.4403   79.3357  218.3245 H   0  0  0  0  0  0  0  0  0  0  0  0
  140.2310   77.5070  219.1270 H   0  0  0  0  0  0  0  0  0  0  0  0
  140.8121   75.2227  218.5640 H   0  0  0  0  0  0  0  0  0  0  0  0
  142.2328   73.7331  217.5971 H   0  0  0  0  0  0  0  0  0  0  0  0
  143.4476   75.0248  217.6142 H   0  0  0  0  0  0  0  0  0  0  0  0
  143.2906   72.5995  219.2873 H   0  0  0  0  0  0  0  0  0  0  0  0
  145.1210   74.5780  218.6130 H   0  0  0  0  0  0  0  0  0  0  0  0
  143.2267   73.6462  221.4215 H   0  0  0  0  0  0  0  0  0  0  0  0
  143.8945   75.1627  220.8396 H   0  0  0  0  0  0  0  0  0  0  0  0
  138.8264   74.0589  221.0353 H   0  0  0  0  0  0  0  0  0  0  0  0
  140.1819   72.9862  220.4947 H   0  0  0  0  0  0  0  0  0  0  0  0
  139.5760   73.4440  223.4490 H   0  0  0  0  0  0  0  0  0  0  0  0
  139.0162   69.1588  222.7502 H   0  0  0  0  0  0  0  0  0  0  0  0
  138.9045   67.7373  224.7924 H   0  0  0  0  0  0  0  0  0  0  0  0
  139.4036   67.4712  227.1131 H   0  0  0  0  0  0  0  0  0  0  0  0
  141.4096   70.5843  229.2802 H   0  0  0  0  0  0  0  0  0  0  0  0
  141.5107   71.9920  227.2392 H   0  0  0  0  0  0  0  0  0  0  0  0
  141.9841   77.8034  221.1340 H   0  0  0  0  0  0  0  0  0  0  0  0
  142.3146   78.6784  223.4295 H   0  0  0  0  0  0  0  0  0  0  0  0
  1  2  1  0
  2  3  2  0
  3  4  1  0
  4  5  2  0
  5  6  1  0
  6  7  1  0
  7  8  1  0
  8  9  2  0
  8 10  1  0
 10 11  1  0
 11 12  1  0
 12 13  1  0
 12 14  1  0
 14 15  1  0
 15 16  1  0
 16 17  2  0
 16 18  1  0
 18 19  1  0
 19 20  1  0
 20 21  2  0
 20 22  1  0
 22 23  2  0
 23 24  1  0
 24 25  2  0
 25 26  1  0
 26 27  2  0
 27 28  1  0
 27 29  1  0
 29 30  2  0
 30 31  1  0
 31 32  2  0
  5 33  1  0
 33 34  2  0
 34  2  1  0
 15 10  1  0
 32 22  1  0
 31 25  1  0
  1 35  1  0
  1 36  1  0
  1 37  1  0
  3 38  1  0
  4 39  1  0
  6 40  1  0
  6 41  1  0
  7 42  1  0
 10 43  1  6
 11 44  1  0
 11 45  1  0
 12 46  1  1
 13 47  1  0
 14 48  1  0
 14 49  1  0
 18 50  1  0
 18 51  1  0
 19 52  1  0
 23 53  1  0
 24 54  1  0
 26 55  1  0
 29 56  1  0
 30 57  1  0
 33 58  1  0
 34 59  1  0
M  END
>  <smiles>  (23) 
Cc1ccc(CNC(=O)C2C[C@@H](O)CN2C(=O)CNC(=O)c2ccc3cc(F)ccc3n2)cc1

>  <score_type>  (23) 
oracle

>  <origin>  (23) 
autodockgpu

>  <m_score__min__energy>  (23) 
-9.4000000000000004

>  <m_primary>  (23) 
energy

>  <meeko>  (23) 
{"free_energy": -8.98, "intermolecular_energy": -11.37, "internal_energy": -1.88, "cluster_size": 7, "cluster_id": 1, "rank_in_cluster": 3}

>  <energy>  (23) 
-8.98

>  <cluster_rmsd>  (23) 
1.26

>  <rmsd>  (23) 
271.23

>  <cluster>  (23) 
1

$$$$

     RDKit          3D

 59 62  0  0  1  0  0  0  0  0999 V2000
  142.2210   81.6220  224.1890 C   0  0  0  0  0  0  0  0  0  0  0  0
  141.9860   80.4510  223.3080 C   0  0  0  0  0  0  0  0  0  0  0  0
  141.6680   79.2550  223.8860 C   0  0  0  0  0  0  0  0  0  0  0  0
  141.4420   78.1410  223.1040 C   0  0  0  0  0  0  0  0  0  0  0  0
  141.5170   78.1490  221.7300 C   0  0  0  0  0  0  0  0  0  0  0  0
  141.2800   76.9930  220.8630 C   0  0  0  0  0  0  0  0  0  0  0  0
  140.2580   76.1460  221.4210 N   0  0  0  0  0  0  0  0  0  0  0  0
  138.9200   76.5000  221.6350 C   0  0  0  0  0  0  0  0  0  0  0  0
  138.4760   77.6560  221.3410 O   0  0  0  0  0  0  0  0  0  0  0  0
  137.9100   75.5660  222.2190 C   0  0  1  0  0  0  0  0  0  0  0  0
  136.9960   76.2560  223.1780 C   0  0  0  0  0  0  0  0  0  0  0  0
  135.6550   76.3050  222.5170 C   0  0  1  0  0  0  0  0  0  0  0  0
  135.0740   77.5750  222.5850 O   0  0  0  0  0  0  0  0  0  0  0  0
  135.9360   75.9000  221.0920 C   0  0  0  0  0  0  0  0  0  0  0  0
  137.0750   74.9840  221.2050 N   0  0  0  0  0  0  0  0  0  0  0  0
  137.2590   73.7890  220.4450 C   0  0  0  0  0  0  0  0  0  0  0  0
  136.3080   73.3630  219.7760 O   0  0  0  0  0  0  0  0  0  0  0  0
  138.5990   73.1520  220.5250 C   0  0  0  0  0  0  0  0  0  0  0  0
  138.6690   72.1980  221.6150 N   0  0  0  0  0  0  0  0  0  0  0  0
  139.6840   72.4240  222.6040 C   0  0  0  0  0  0  0  0  0  0  0  0
  140.4250   73.4050  222.4620 O   0  0  0  0  0  0  0  0  0  0  0  0
  139.8120   71.5040  223.7280 C   0  0  0  0  0  0  0  0  0  0  0  0
  139.3760   70.2040  223.5680 C   0  0  0  0  0  0  0  0  0  0  0  0
  139.4650   69.2730  224.5890 C   0  0  0  0  0  0  0  0  0  0  0  0
  140.0100   69.6910  225.7860 C   0  0  0  0  0  0  0  0  0  0  0  0
  140.1180   68.7920  226.8320 C   0  0  0  0  0  0  0  0  0  0  0  0
  140.6660   69.1840  228.0580 C   0  0  0  0  0  0  0  0  0  0  0  0
  140.7550   68.2720  229.0660 F   0  0  0  0  0  0  0  0  0  0  0  0
  141.0940   70.4880  228.1930 C   0  0  0  0  0  0  0  0  0  0  0  0
  141.0010   71.4170  227.1640 C   0  0  0  0  0  0  0  0  0  0  0  0
  140.4540   71.0090  225.9540 C   0  0  0  0  0  0  0  0  0  0  0  0
  140.3440   71.8860  224.9160 N   0  0  0  0  0  0  0  0  0  0  0  0
  141.8420   79.3750  221.1450 C   0  0  0  0  0  0  0  0  0  0  0  0
  142.0720   80.5060  221.9320 C   0  0  0  0  0  0  0  0  0  0  0  0
  142.1579   81.3077  225.2413 H   0  0  0  0  0  0  0  0  0  0  0  0
  143.2202   82.0364  223.9894 H   0  0  0  0  0  0  0  0  0  0  0  0
  141.4590   82.3898  223.9894 H   0  0  0  0  0  0  0  0  0  0  0  0
  141.5917   79.1796  224.9808 H   0  0  0  0  0  0  0  0  0  0  0  0
  141.1882   77.1956  223.6059 H   0  0  0  0  0  0  0  0  0  0  0  0
  140.9579   77.3440  219.8715 H   0  0  0  0  0  0  0  0  0  0  0  0
  142.2125   76.4159  220.7762 H   0  0  0  0  0  0  0  0  0  0  0  0
  140.5540   75.1730  221.6920 H   0  0  0  0  0  0  0  0  0  0  0  0
  138.4972   74.7920  222.7349 H   0  0  0  0  0  0  0  0  0  0  0  0
  136.9360   75.6917  224.1203 H   0  0  0  0  0  0  0  0  0  0  0  0
  137.3593   77.2653  223.4214 H   0  0  0  0  0  0  0  0  0  0  0  0
  134.9283   75.6440  223.0120 H   0  0  0  0  0  0  0  0  0  0  0  0
  135.7360   78.2110  222.1800 H   0  0  0  0  0  0  0  0  0  0  0  0
  135.0664   75.3909  220.6509 H   0  0  0  0  0  0  0  0  0  0  0  0
  136.1461   76.7603  220.4396 H   0  0  0  0  0  0  0  0  0  0  0  0
  138.8036   72.6295  219.5789 H   0  0  0  0  0  0  0  0  0  0  0  0
  139.3455   73.9393  220.7065 H   0  0  0  0  0  0  0  0  0  0  0  0
  138.0190   71.3760  221.6990 H   0  0  0  0  0  0  0  0  0  0  0  0
  138.9459   69.8993  222.6025 H   0  0  0  0  0  0  0  0  0  0  0  0
  139.1146   68.2394  224.4513 H   0  0  0  0  0  0  0  0  0  0  0  0
  139.7691   67.7574  226.6982 H   0  0  0  0  0  0  0  0  0  0  0  0
  141.5262   70.8053  229.1535 H   0  0  0  0  0  0  0  0  0  0  0  0
  141.3519   72.4501  227.3040 H   0  0  0  0  0  0  0  0  0  0  0  0
  141.9178   79.4509  220.0503 H   0  0  0  0  0  0  0  0  0  0  0  0
  142.3267   81.4590  221.4453 H   0  0  0  0  0  0  0  0  0  0  0  0
  1  2  1  0
  2  3  2  0
  3  4  1  0
  4  5  2  0
  5  6  1  0
  6  7  1  0
  7  8  1  0
  8  9  2  0
  8 10  1  0
 10 11  1  0
 11 12  1  0
 12 13  1  0
 12 14  1  0
 14 15  1  0
 15 16  1  0
 16 17  2  0
 16 18  1  0
 18 19  1  0
 19 20  1  0
 20 21  2  0
 20 22  1  0
 22 23  2  0
 23 24  1  0
 24 25  2  0
 25 26  1  0
 26 27  2  0
 27 28  1  0
 27 29  1  0
 29 30  2  0
 30 31  1  0
 31 32  2  0
  5 33  1  0
 33 34  2  0
 34  2  1  0
 15 10  1  0
 32 22  1  0
 31 25  1  0
  1 35  1  0
  1 36  1  0
  1 37  1  0
  3 38  1  0
  4 39  1  0
  6 40  1  0
  6 41  1  0
  7 42  1  0
 10 43  1  1
 11 44  1  0
 11 45  1  0
 12 46  1  1
 13 47  1  0
 14 48  1  0
 14 49  1  0
 18 50  1  0
 18 51  1  0
 19 52  1  0
 23 53  1  0
 24 54  1  0
 26 55  1  0
 29 56  1  0
 30 57  1  0
 33 58  1  0
 34 59  1  0
M  END
>  <smiles>  (24) 
Cc1ccc(CNC(=O)C2C[C@@H](O)CN2C(=O)CNC(=O)c2ccc3cc(F)ccc3n2)cc1

>  <score_type>  (24) 
oracle

>  <origin>  (24) 
autodockgpu

>  <m_score__min__energy>  (24) 
-9.4000000000000004

>  <m_primary>  (24) 
energy

>  <meeko>  (24) 
{"free_energy": -8.03, "intermolecular_energy": -10.42, "internal_energy": -2.55, "cluster_size": 3, "cluster_id": 5, "rank_in_cluster": 2}

>  <energy>  (24) 
-8.89

>  <cluster_rmsd>  (24) 
1.97

>  <rmsd>  (24) 
271.29

>  <cluster>  (24) 
1

$$$$

     RDKit          3D

 59 62  0  0  1  0  0  0  0  0999 V2000
  139.5980   83.8700  221.2110 C   0  0  0  0  0  0  0  0  0  0  0  0
  140.1990   82.6020  221.6970 C   0  0  0  0  0  0  0  0  0  0  0  0
  139.3820   81.6760  222.2790 C   0  0  0  0  0  0  0  0  0  0  0  0
  139.9010   80.4840  222.7440 C   0  0  0  0  0  0  0  0  0  0  0  0
  141.2330   80.1500  222.6590 C   0  0  0  0  0  0  0  0  0  0  0  0
  141.8230   78.8970  223.1340 C   0  0  0  0  0  0  0  0  0  0  0  0
  141.4250   77.8020  222.2890 N   0  0  0  0  0  0  0  0  0  0  0  0
  141.6270   77.7120  220.9070 C   0  0  0  0  0  0  0  0  0  0  0  0
  142.2030   78.6380  220.2510 O   0  0  0  0  0  0  0  0  0  0  0  0
  141.1870   76.5400  220.0900 C   0  0  1  0  0  0  0  0  0  0  0  0
  142.1790   76.1920  219.0280 C   0  0  0  0  0  0  0  0  0  0  0  0
  142.7920   74.8910  219.4380 C   0  0  1  0  0  0  0  0  0  0  0  0
  144.1880   74.9080  219.3490 O   0  0  0  0  0  0  0  0  0  0  0  0
  142.3310   74.7010  220.8610 C   0  0  0  0  0  0  0  0  0  0  0  0
  141.0230   75.3620  220.8960 N   0  0  0  0  0  0  0  0  0  0  0  0
  139.8720   74.8890  221.5980 C   0  0  0  0  0  0  0  0  0  0  0  0
  139.2330   75.6900  222.2940 O   0  0  0  0  0  0  0  0  0  0  0  0
  139.5370   73.4510  221.4290 C   0  0  0  0  0  0  0  0  0  0  0  0
  139.6720   72.7240  222.6770 N   0  0  0  0  0  0  0  0  0  0  0  0
  139.5530   71.2970  222.6070 C   0  0  0  0  0  0  0  0  0  0  0  0
  139.3440   70.7840  221.4990 O   0  0  0  0  0  0  0  0  0  0  0  0
  139.6770   70.5020  223.8240 C   0  0  0  0  0  0  0  0  0  0  0  0
  139.1810   69.2130  223.8210 C   0  0  0  0  0  0  0  0  0  0  0  0
  139.2620   68.3970  224.9370 C   0  0  0  0  0  0  0  0  0  0  0  0
  139.8620   68.9200  226.0650 C   0  0  0  0  0  0  0  0  0  0  0  0
  139.9640   68.1380  227.2010 C   0  0  0  0  0  0  0  0  0  0  0  0
  140.5650   68.6360  228.3610 C   0  0  0  0  0  0  0  0  0  0  0  0
  140.6470   67.8390  229.4620 F   0  0  0  0  0  0  0  0  0  0  0  0
  141.0530   69.9270  228.3390 C   0  0  0  0  0  0  0  0  0  0  0  0
  140.9680   70.7400  227.2160 C   0  0  0  0  0  0  0  0  0  0  0  0
  140.3660   70.2270  226.0730 C   0  0  0  0  0  0  0  0  0  0  0  0
  140.2610   70.9880  224.9470 N   0  0  0  0  0  0  0  0  0  0  0  0
  142.0630   81.1020  222.0630 C   0  0  0  0  0  0  0  0  0  0  0  0
  141.5430   82.3100  221.5910 C   0  0  0  0  0  0  0  0  0  0  0  0
  139.3042   84.4898  222.0710 H   0  0  0  0  0  0  0  0  0  0  0  0
  140.3339   84.4144  220.6010 H   0  0  0  0  0  0  0  0  0  0  0  0
  138.7107   83.6451  220.6010 H   0  0  0  0  0  0  0  0  0  0  0  0
  138.3057   81.8804  222.3779 H   0  0  0  0  0  0  0  0  0  0  0  0
  139.2123   79.7623  223.2075 H   0  0  0  0  0  0  0  0  0  0  0  0
  142.9194   78.9849  223.1207 H   0  0  0  0  0  0  0  0  0  0  0  0
  141.4713   78.7031  224.1581 H   0  0  0  0  0  0  0  0  0  0  0  0
  140.9380   76.9980  222.7630 H   0  0  0  0  0  0  0  0  0  0  0  0
  140.2305   76.8446  219.6403 H   0  0  0  0  0  0  0  0  0  0  0  0
  141.6753   76.0863  218.0559 H   0  0  0  0  0  0  0  0  0  0  0  0
  142.9416   76.9773  218.9197 H   0  0  0  0  0  0  0  0  0  0  0  0
  142.4844   74.0669  218.7775 H   0  0  0  0  0  0  0  0  0  0  0  0
  144.4100   75.3620  218.4820 H   0  0  0  0  0  0  0  0  0  0  0  0
  142.2365   73.6321  221.1029 H   0  0  0  0  0  0  0  0  0  0  0  0
  143.0369   75.1155  221.5958 H   0  0  0  0  0  0  0  0  0  0  0  0
  138.4989   73.3649  221.0755 H   0  0  0  0  0  0  0  0  0  0  0  0
  140.2362   73.0170  220.6991 H   0  0  0  0  0  0  0  0  0  0  0  0
  139.8490   73.1980  223.5990 H   0  0  0  0  0  0  0  0  0  0  0  0
  138.7086   68.8238  222.9070 H   0  0  0  0  0  0  0  0  0  0  0  0
  138.8636   67.3717  224.9251 H   0  0  0  0  0  0  0  0  0  0  0  0
  139.5676   67.1120  227.1919 H   0  0  0  0  0  0  0  0  0  0  0  0
  141.5279   70.3278  229.2466 H   0  0  0  0  0  0  0  0  0  0  0  0
  141.3674   71.7648  227.2308 H   0  0  0  0  0  0  0  0  0  0  0  0
  143.1394   80.8983  221.9639 H   0  0  0  0  0  0  0  0  0  0  0  0
  142.2188   83.0427  221.1257 H   0  0  0  0  0  0  0  0  0  0  0  0
  1  2  1  0
  2  3  2  0
  3  4  1  0
  4  5  2  0
  5  6  1  0
  6  7  1  0
  7  8  1  0
  8  9  2  0
  8 10  1  0
 10 11  1  0
 11 12  1  0
 12 13  1  0
 12 14  1  0
 14 15  1  0
 15 16  1  0
 16 17  2  0
 16 18  1  0
 18 19  1  0
 19 20  1  0
 20 21  2  0
 20 22  1  0
 22 23  2  0
 23 24  1  0
 24 25  2  0
 25 26  1  0
 26 27  2  0
 27 28  1  0
 27 29  1  0
 29 30  2  0
 30 31  1  0
 31 32  2  0
  5 33  1  0
 33 34  2  0
 34  2  1  0
 15 10  1  0
 32 22  1  0
 31 25  1  0
  1 35  1  0
  1 36  1  0
  1 37  1  0
  3 38  1  0
  4 39  1  0
  6 40  1  0
  6 41  1  0
  7 42  1  0
 10 43  1  6
 11 44  1  0
 11 45  1  0
 12 46  1  6
 13 47  1  0
 14 48  1  0
 14 49  1  0
 18 50  1  0
 18 51  1  0
 19 52  1  0
 23 53  1  0
 24 54  1  0
 26 55  1  0
 29 56  1  0
 30 57  1  0
 33 58  1  0
 34 59  1  0
M  END
>  <smiles>  (25) 
Cc1ccc(CNC(=O)C2C[C@@H](O)CN2C(=O)CNC(=O)c2ccc3cc(F)ccc3n2)cc1

>  <score_type>  (25) 
oracle

>  <origin>  (25) 
autodockgpu

>  <m_score__min__energy>  (25) 
-9.4000000000000004

>  <m_primary>  (25) 
energy

>  <meeko>  (25) 
{"free_energy": -8.44, "intermolecular_energy": -10.83, "internal_energy": -2.37, "cluster_size": 5, "cluster_id": 2, "rank_in_cluster": 4}

>  <energy>  (25) 
-8.84

>  <cluster_rmsd>  (25) 
1.31

>  <rmsd>  (25) 
271.28

>  <cluster>  (25) 
1

$$$$

     RDKit          3D

 59 62  0  0  1  0  0  0  0  0999 V2000
  142.5930   81.6210  224.2290 C   0  0  0  0  0  0  0  0  0  0  0  0
  142.1150   80.5310  223.3410 C   0  0  0  0  0  0  0  0  0  0  0  0
  141.7660   79.3380  223.9060 C   0  0  0  0  0  0  0  0  0  0  0  0
  141.3170   78.2990  223.1160 C   0  0  0  0  0  0  0  0  0  0  0  0
  141.1920   78.3830  221.7490 C   0  0  0  0  0  0  0  0  0  0  0  0
  140.7150   77.3090  220.8750 C   0  0  0  0  0  0  0  0  0  0  0  0
  139.4000   76.8800  221.2760 N   0  0  0  0  0  0  0  0  0  0  0  0
  139.0920   75.6980  221.9610 C   0  0  0  0  0  0  0  0  0  0  0  0
  139.9920   74.8640  222.2990 O   0  0  0  0  0  0  0  0  0  0  0  0
  137.7000   75.3170  222.3480 C   0  0  1  0  0  0  0  0  0  0  0  0
  136.9380   76.4700  222.9140 C   0  0  0  0  0  0  0  0  0  0  0  0
  135.8970   76.8230  221.9010 C   0  0  1  0  0  0  0  0  0  0  0  0
  135.8510   78.1960  221.6410 O   0  0  0  0  0  0  0  0  0  0  0  0
  136.3000   76.0410  220.6750 C   0  0  0  0  0  0  0  0  0  0  0  0
  136.9460   74.8430  221.2210 N   0  0  0  0  0  0  0  0  0  0  0  0
  136.8140   73.5200  220.7000 C   0  0  0  0  0  0  0  0  0  0  0  0
  135.6960   73.1390  220.3280 O   0  0  0  0  0  0  0  0  0  0  0  0
  138.0540   72.7010  220.6500 C   0  0  0  0  0  0  0  0  0  0  0  0
  138.5760   72.4460  221.9790 N   0  0  0  0  0  0  0  0  0  0  0  0
  138.9660   71.0970  222.2710 C   0  0  0  0  0  0  0  0  0  0  0  0
  138.8330   70.2480  221.3790 O   0  0  0  0  0  0  0  0  0  0  0  0
  139.5000   70.7690  223.5880 C   0  0  0  0  0  0  0  0  0  0  0  0
  140.2130   71.7360  224.2680 C   0  0  0  0  0  0  0  0  0  0  0  0
  140.7500   71.4990  225.5230 C   0  0  0  0  0  0  0  0  0  0  0  0
  140.5460   70.2520  226.0770 C   0  0  0  0  0  0  0  0  0  0  0  0
  141.0650   69.9750  227.3290 C   0  0  0  0  0  0  0  0  0  0  0  0
  140.8770   68.7220  227.9200 C   0  0  0  0  0  0  0  0  0  0  0  0
  141.4030   68.4840  229.1530 F   0  0  0  0  0  0  0  0  0  0  0  0
  140.1610   67.7720  227.2200 C   0  0  0  0  0  0  0  0  0  0  0  0
  139.6250   68.0170  225.9620 C   0  0  0  0  0  0  0  0  0  0  0  0
  139.8230   69.2680  225.3910 C   0  0  0  0  0  0  0  0  0  0  0  0
  139.3150   69.5530  224.1590 N   0  0  0  0  0  0  0  0  0  0  0  0
  141.5500   79.6060  221.1780 C   0  0  0  0  0  0  0  0  0  0  0  0
  142.0060   80.6610  221.9720 C   0  0  0  0  0  0  0  0  0  0  0  0
  142.4620   81.3222  225.2795 H   0  0  0  0  0  0  0  0  0  0  0  0
  143.6581   81.8134  224.0327 H   0  0  0  0  0  0  0  0  0  0  0  0
  142.0130   82.5348  224.0327 H   0  0  0  0  0  0  0  0  0  0  0  0
  141.8430   79.2043  224.9951 H   0  0  0  0  0  0  0  0  0  0  0  0
  141.0445   77.3528  223.6063 H   0  0  0  0  0  0  0  0  0  0  0  0
  140.6759   77.6758  219.8387 H   0  0  0  0  0  0  0  0  0  0  0  0
  141.4058   76.4562  220.9492 H   0  0  0  0  0  0  0  0  0  0  0  0
  138.6030   77.5200  221.0260 H   0  0  0  0  0  0  0  0  0  0  0  0
  137.8176   74.5254  223.1027 H   0  0  0  0  0  0  0  0  0  0  0  0
  136.4632   76.1832  223.8639 H   0  0  0  0  0  0  0  0  0  0  0  0
  137.6001   77.3237  223.1209 H   0  0  0  0  0  0  0  0  0  0  0  0
  134.8838   76.5752  222.2502 H   0  0  0  0  0  0  0  0  0  0  0  0
  134.9340   78.3850  221.2790 H   0  0  0  0  0  0  0  0  0  0  0  0
  135.4185   75.7718  220.0746 H   0  0  0  0  0  0  0  0  0  0  0  0
  136.9592   76.6115  220.0042 H   0  0  0  0  0  0  0  0  0  0  0  0
  137.8286   71.7403  220.1640 H   0  0  0  0  0  0  0  0  0  0  0  0
  138.8133   73.2583  220.0818 H   0  0  0  0  0  0  0  0  0  0  0  0
  138.6740   73.1970  222.7090 H   0  0  0  0  0  0  0  0  0  0  0  0
  140.3587   72.7212  223.8009 H   0  0  0  0  0  0  0  0  0  0  0  0
  141.3173   72.2754  226.0573 H   0  0  0  0  0  0  0  0  0  0  0  0
  141.6322   70.7496  227.8658 H   0  0  0  0  0  0  0  0  0  0  0  0
  140.0089   66.7826  227.6759 H   0  0  0  0  0  0  0  0  0  0  0  0
  139.0573   67.2390  225.4306 H   0  0  0  0  0  0  0  0  0  0  0  0
  141.4719   79.7404  220.0890 H   0  0  0  0  0  0  0  0  0  0  0  0
  142.2834   81.6134  221.4966 H   0  0  0  0  0  0  0  0  0  0  0  0
  1  2  1  0
  2  3  2  0
  3  4  1  0
  4  5  2  0
  5  6  1  0
  6  7  1  0
  7  8  1  0
  8  9  2  0
  8 10  1  0
 10 11  1  0
 11 12  1  0
 12 13  1  0
 12 14  1  0
 14 15  1  0
 15 16  1  0
 16 17  2  0
 16 18  1  0
 18 19  1  0
 19 20  1  0
 20 21  2  0
 20 22  1  0
 22 23  2  0
 23 24  1  0
 24 25  2  0
 25 26  1  0
 26 27  2  0
 27 28  1  0
 27 29  1  0
 29 30  2  0
 30 31  1  0
 31 32  2  0
  5 33  1  0
 33 34  2  0
 34  2  1  0
 15 10  1  0
 32 22  1  0
 31 25  1  0
  1 35  1  0
  1 36  1  0
  1 37  1  0
  3 38  1  0
  4 39  1  0
  6 40  1  0
  6 41  1  0
  7 42  1  0
 10 43  1  1
 11 44  1  0
 11 45  1  0
 12 46  1  1
 13 47  1  0
 14 48  1  0
 14 49  1  0
 18 50  1  0
 18 51  1  0
 19 52  1  0
 23 53  1  0
 24 54  1  0
 26 55  1  0
 29 56  1  0
 30 57  1  0
 33 58  1  0
 34 59  1  0
M  END
>  <smiles>  (26) 
Cc1ccc(CNC(=O)C2C[C@@H](O)CN2C(=O)CNC(=O)c2ccc3cc(F)ccc3n2)cc1

>  <score_type>  (26) 
oracle

>  <origin>  (26) 
autodockgpu

>  <m_score__min__energy>  (26) 
-9.4000000000000004

>  <m_primary>  (26) 
energy

>  <meeko>  (26) 
{"free_energy": -8.3, "intermolecular_energy": -10.68, "internal_energy": -2.33, "cluster_size": 3, "cluster_id": 5, "rank_in_cluster": 1}

>  <energy>  (26) 
-8.78

>  <cluster_rmsd>  (26) 
0.84

>  <rmsd>  (26) 
271.32

>  <cluster>  (26) 
1

$$$$

     RDKit          3D

 59 62  0  0  1  0  0  0  0  0999 V2000
  142.5110   81.5750  224.2130 C   0  0  0  0  0  0  0  0  0  0  0  0
  141.6940   80.4100  223.7910 C   0  0  0  0  0  0  0  0  0  0  0  0
  140.3380   80.5560  223.7260 C   0  0  0  0  0  0  0  0  0  0  0  0
  139.5420   79.4980  223.3380 C   0  0  0  0  0  0  0  0  0  0  0  0
  140.0360   78.2580  223.0000 C   0  0  0  0  0  0  0  0  0  0  0  0
  139.2280   77.1110  222.5790 C   0  0  0  0  0  0  0  0  0  0  0  0
  139.8730   76.4130  221.4970 N   0  0  0  0  0  0  0  0  0  0  0  0
  140.2220   76.9590  220.2560 C   0  0  0  0  0  0  0  0  0  0  0  0
  139.9860   78.1760  219.9680 O   0  0  0  0  0  0  0  0  0  0  0  0
  140.8930   76.1730  219.1760 C   0  0  1  0  0  0  0  0  0  0  0  0
  141.3220   77.0380  218.0350 C   0  0  0  0  0  0  0  0  0  0  0  0
  142.8160   77.0800  218.0800 C   0  0  1  0  0  0  0  0  0  0  0  0
  143.3160   78.3810  217.9630 O   0  0  0  0  0  0  0  0  0  0  0  0
  143.1590   76.4730  219.4170 C   0  0  0  0  0  0  0  0  0  0  0  0
  142.0760   75.5140  219.6550 N   0  0  0  0  0  0  0  0  0  0  0  0
  142.2280   74.2200  220.2400 C   0  0  0  0  0  0  0  0  0  0  0  0
  143.2890   73.9530  220.8190 O   0  0  0  0  0  0  0  0  0  0  0  0
  141.0760   73.2900  220.1000 C   0  0  0  0  0  0  0  0  0  0  0  0
  141.0480   72.3150  221.1730 N   0  0  0  0  0  0  0  0  0  0  0  0
  140.2910   72.6630  222.3400 C   0  0  0  0  0  0  0  0  0  0  0  0
  139.7190   73.7610  222.3570 O   0  0  0  0  0  0  0  0  0  0  0  0
  140.2200   71.7290  223.4590 C   0  0  0  0  0  0  0  0  0  0  0  0
  139.6550   70.4880  223.2440 C   0  0  0  0  0  0  0  0  0  0  0  0
  139.5510   69.5470  224.2560 C   0  0  0  0  0  0  0  0  0  0  0  0
  140.0380   69.8960  225.5000 C   0  0  0  0  0  0  0  0  0  0  0  0
  139.9550   68.9850  226.5380 C   0  0  0  0  0  0  0  0  0  0  0  0
  140.4380   69.3050  227.8110 C   0  0  0  0  0  0  0  0  0  0  0  0
  140.3390   68.3850  228.8090 F   0  0  0  0  0  0  0  0  0  0  0  0
  140.9990   70.5520  228.0000 C   0  0  0  0  0  0  0  0  0  0  0  0
  141.0980   71.4900  226.9800 C   0  0  0  0  0  0  0  0  0  0  0  0
  140.6130   71.1530  225.7220 C   0  0  0  0  0  0  0  0  0  0  0  0
  140.6890   72.0420  224.6920 N   0  0  0  0  0  0  0  0  0  0  0  0
  141.4230   78.1160  223.0700 C   0  0  0  0  0  0  0  0  0  0  0  0
  142.2340   79.1840  223.4620 C   0  0  0  0  0  0  0  0  0  0  0  0
  142.5435   81.6214  225.3115 H   0  0  0  0  0  0  0  0  0  0  0  0
  143.5328   81.4678  223.8201 H   0  0  0  0  0  0  0  0  0  0  0  0
  142.0622   82.4992  223.8201 H   0  0  0  0  0  0  0  0  0  0  0  0
  139.8782   81.5214  223.9841 H   0  0  0  0  0  0  0  0  0  0  0  0
  138.4538   79.6535  223.2964 H   0  0  0  0  0  0  0  0  0  0  0  0
  139.1022   76.4246  223.4293 H   0  0  0  0  0  0  0  0  0  0  0  0
  138.2470   77.4720  222.2364 H   0  0  0  0  0  0  0  0  0  0  0  0
  140.0970   75.3980  221.6630 H   0  0  0  0  0  0  0  0  0  0  0  0
  140.1424   75.4405  218.8441 H   0  0  0  0  0  0  0  0  0  0  0  0
  140.9815   76.6078  217.0816 H   0  0  0  0  0  0  0  0  0  0  0  0
  140.8908   78.0469  218.1135 H   0  0  0  0  0  0  0  0  0  0  0  0
  143.2675   76.5355  217.2375 H   0  0  0  0  0  0  0  0  0  0  0  0
  143.7440   78.4390  217.0570 H   0  0  0  0  0  0  0  0  0  0  0  0
  144.1325   75.9625  219.3772 H   0  0  0  0  0  0  0  0  0  0  0  0
  143.2442   77.2246  220.2157 H   0  0  0  0  0  0  0  0  0  0  0  0
  140.1424   73.8714  220.1206 H   0  0  0  0  0  0  0  0  0  0  0  0
  141.1804   72.7516  219.1465 H   0  0  0  0  0  0  0  0  0  0  0  0
  141.5490   71.3910  221.1200 H   0  0  0  0  0  0  0  0  0  0  0  0
  139.2768   70.2391  222.2415 H   0  0  0  0  0  0  0  0  0  0  0  0
  139.0983   68.5609  224.0754 H   0  0  0  0  0  0  0  0  0  0  0  0
  139.5039   67.9976  226.3600 H   0  0  0  0  0  0  0  0  0  0  0  0
  141.3827   70.8133  228.9973 H   0  0  0  0  0  0  0  0  0  0  0  0
  141.5496   72.4761  227.1637 H   0  0  0  0  0  0  0  0  0  0  0  0
  141.8834   77.1506  222.8132 H   0  0  0  0  0  0  0  0  0  0  0  0
  143.3241   79.0445  223.5092 H   0  0  0  0  0  0  0  0  0  0  0  0
  1  2  1  0
  2  3  2  0
  3  4  1  0
  4  5  2  0
  5  6  1  0
  6  7  1  0
  7  8  1  0
  8  9  2  0
  8 10  1  0
 10 11  1  0
 11 12  1  0
 12 13  1  0
 12 14  1  0
 14 15  1  0
 15 16  1  0
 16 17  2  0
 16 18  1  0
 18 19  1  0
 19 20  1  0
 20 21  2  0
 20 22  1  0
 22 23  2  0
 23 24  1  0
 24 25  2  0
 25 26  1  0
 26 27  2  0
 27 28  1  0
 27 29  1  0
 29 30  2  0
 30 31  1  0
 31 32  2  0
  5 33  1  0
 33 34  2  0
 34  2  1  0
 15 10  1  0
 32 22  1  0
 31 25  1  0
  1 35  1  0
  1 36  1  0
  1 37  1  0
  3 38  1  0
  4 39  1  0
  6 40  1  0
  6 41  1  0
  7 42  1  0
 10 43  1  6
 11 44  1  0
 11 45  1  0
 12 46  1  6
 13 47  1  0
 14 48  1  0
 14 49  1  0
 18 50  1  0
 18 51  1  0
 19 52  1  0
 23 53  1  0
 24 54  1  0
 26 55  1  0
 29 56  1  0
 30 57  1  0
 33 58  1  0
 34 59  1  0
M  END
>  <smiles>  (27) 
Cc1ccc(CNC(=O)C2C[C@@H](O)CN2C(=O)CNC(=O)c2ccc3cc(F)ccc3n2)cc1

>  <score_type>  (27) 
oracle

>  <origin>  (27) 
autodockgpu

>  <m_score__min__energy>  (27) 
-9.4000000000000004

>  <m_primary>  (27) 
energy

>  <meeko>  (27) 
{"free_energy": -8.89, "intermolecular_energy": -11.27, "internal_energy": -2.58, "cluster_size": 7, "cluster_id": 1, "rank_in_cluster": 4}

>  <energy>  (27) 
-8.74

>  <cluster_rmsd>  (27) 
1.91

>  <rmsd>  (27) 
271.17

>  <cluster>  (27) 
1

$$$$

     RDKit          3D

 59 62  0  0  1  0  0  0  0  0999 V2000
  141.3220   80.6510  223.7960 C   0  0  0  0  0  0  0  0  0  0  0  0
  141.5310   79.9100  222.5260 C   0  0  0  0  0  0  0  0  0  0  0  0
  141.7840   80.6250  221.3900 C   0  0  0  0  0  0  0  0  0  0  0  0
  141.9840   79.9760  220.1890 C   0  0  0  0  0  0  0  0  0  0  0  0
  141.9460   78.6070  220.0490 C   0  0  0  0  0  0  0  0  0  0  0  0
  142.1570   77.8790  218.7970 C   0  0  0  0  0  0  0  0  0  0  0  0
  142.1930   76.4600  219.0400 N   0  0  0  0  0  0  0  0  0  0  0  0
  142.9190   75.5150  218.3060 C   0  0  0  0  0  0  0  0  0  0  0  0
  143.6410   75.8480  217.3120 O   0  0  0  0  0  0  0  0  0  0  0  0
  142.9110   74.0530  218.6170 C   0  0  1  0  0  0  0  0  0  0  0  0
  144.1720   73.3790  218.1840 C   0  0  0  0  0  0  0  0  0  0  0  0
  144.9010   73.0110  219.4360 C   0  0  1  0  0  0  0  0  0  0  0  0
  146.2510   73.3780  219.3930 O   0  0  0  0  0  0  0  0  0  0  0  0
  144.1610   73.7520  220.5220 C   0  0  0  0  0  0  0  0  0  0  0  0
  142.7820   73.8120  220.0270 N   0  0  0  0  0  0  0  0  0  0  0  0
  141.6070   73.6560  220.8250 C   0  0  0  0  0  0  0  0  0  0  0  0
  141.2110   74.6230  221.4890 O   0  0  0  0  0  0  0  0  0  0  0  0
  140.9520   72.3220  220.7860 C   0  0  0  0  0  0  0  0  0  0  0  0
  141.1580   71.5940  222.0230 N   0  0  0  0  0  0  0  0  0  0  0  0
  140.3930   72.0230  223.1580 C   0  0  0  0  0  0  0  0  0  0  0  0
  139.6170   72.9760  223.0090 O   0  0  0  0  0  0  0  0  0  0  0  0
  140.5490   71.3360  224.4360 C   0  0  0  0  0  0  0  0  0  0  0  0
  140.9110   72.0790  225.5410 C   0  0  0  0  0  0  0  0  0  0  0  0
  141.0780   71.4980  226.7880 C   0  0  0  0  0  0  0  0  0  0  0  0
  140.8690   70.1380  226.8890 C   0  0  0  0  0  0  0  0  0  0  0  0
  141.0250   69.5190  228.1160 C   0  0  0  0  0  0  0  0  0  0  0  0
  140.8200   68.1420  228.2540 C   0  0  0  0  0  0  0  0  0  0  0  0
  140.9840   67.5660  229.4780 F   0  0  0  0  0  0  0  0  0  0  0  0
  140.4590   67.4220  227.1340 C   0  0  0  0  0  0  0  0  0  0  0  0
  140.2930   68.0110  225.8870 C   0  0  0  0  0  0  0  0  0  0  0  0
  140.5010   69.3800  225.7700 C   0  0  0  0  0  0  0  0  0  0  0  0
  140.3490   70.0010  224.5660 N   0  0  0  0  0  0  0  0  0  0  0  0
  141.6870   77.8830  221.2150 C   0  0  0  0  0  0  0  0  0  0  0  0
  141.4830   78.5350  222.4330 C   0  0  0  0  0  0  0  0  0  0  0  0
  141.5112   79.9804  224.6472 H   0  0  0  0  0  0  0  0  0  0  0  0
  142.0145   81.5045  223.8407 H   0  0  0  0  0  0  0  0  0  0  0  0
  140.2856   81.0169  223.8407 H   0  0  0  0  0  0  0  0  0  0  0  0
  141.8285   81.7233  221.4329 H   0  0  0  0  0  0  0  0  0  0  0  0
  142.1846   80.5852  219.2953 H   0  0  0  0  0  0  0  0  0  0  0  0
  141.3349   78.1068  218.1025 H   0  0  0  0  0  0  0  0  0  0  0  0
  143.1179   78.1904  218.3614 H   0  0  0  0  0  0  0  0  0  0  0  0
  141.6150   76.1090  219.8470 H   0  0  0  0  0  0  0  0  0  0  0  0
  142.0492   73.6455  218.0681 H   0  0  0  0  0  0  0  0  0  0  0  0
  143.9403   72.4769  217.5988 H   0  0  0  0  0  0  0  0  0  0  0  0
  144.7794   74.0380  217.5462 H   0  0  0  0  0  0  0  0  0  0  0  0
  144.9159   71.9230  219.5976 H   0  0  0  0  0  0  0  0  0  0  0  0
  146.2710   74.3800  219.3690 H   0  0  0  0  0  0  0  0  0  0  0  0
  144.2119   73.2045  221.4747 H   0  0  0  0  0  0  0  0  0  0  0  0
  144.5847   74.7471  220.7228 H   0  0  0  0  0  0  0  0  0  0  0  0
  139.8722   72.4582  220.6267 H   0  0  0  0  0  0  0  0  0  0  0  0
  141.3981   71.7417  219.9649 H   0  0  0  0  0  0  0  0  0  0  0  0
  141.8280   70.7870  222.1090 H   0  0  0  0  0  0  0  0  0  0  0  0
  141.0713   73.1615  225.4290 H   0  0  0  0  0  0  0  0  0  0  0  0
  141.3661   72.0981  227.6637 H   0  0  0  0  0  0  0  0  0  0  0  0
  141.3136   70.1163  228.9935 H   0  0  0  0  0  0  0  0  0  0  0  0
  140.2962   66.3386  227.2323 H   0  0  0  0  0  0  0  0  0  0  0  0
  140.0039   67.4084  225.0133 H   0  0  0  0  0  0  0  0  0  0  0  0
  141.6431   76.7847  221.1733 H   0  0  0  0  0  0  0  0  0  0  0  0
  141.2801   77.9402  223.3358 H   0  0  0  0  0  0  0  0  0  0  0  0
  1  2  1  0
  2  3  2  0
  3  4  1  0
  4  5  2  0
  5  6  1  0
  6  7  1  0
  7  8  1  0
  8  9  2  0
  8 10  1  0
 10 11  1  0
 11 12  1  0
 12 13  1  0
 12 14  1  0
 14 15  1  0
 15 16  1  0
 16 17  2  0
 16 18  1  0
 18 19  1  0
 19 20  1  0
 20 21  2  0
 20 22  1  0
 22 23  2  0
 23 24  1  0
 24 25  2  0
 25 26  1  0
 26 27  2  0
 27 28  1  0
 27 29  1  0
 29 30  2  0
 30 31  1  0
 31 32  2  0
  5 33  1  0
 33 34  2  0
 34  2  1  0
 15 10  1  0
 32 22  1  0
 31 25  1  0
  1 35  1  0
  1 36  1  0
  1 37  1  0
  3 38  1  0
  4 39  1  0
  6 40  1  0
  6 41  1  0
  7 42  1  0
 10 43  1  6
 11 44  1  0
 11 45  1  0
 12 46  1  1
 13 47  1  0
 14 48  1  0
 14 49  1  0
 18 50  1  0
 18 51  1  0
 19 52  1  0
 23 53  1  0
 24 54  1  0
 26 55  1  0
 29 56  1  0
 30 57  1  0
 33 58  1  0
 34 59  1  0
M  END
>  <smiles>  (28) 
Cc1ccc(CNC(=O)C2C[C@@H](O)CN2C(=O)CNC(=O)c2ccc3cc(F)ccc3n2)cc1

>  <score_type>  (28) 
oracle

>  <origin>  (28) 
autodockgpu

>  <m_score__min__energy>  (28) 
-9.4000000000000004

>  <m_primary>  (28) 
energy

>  <meeko>  (28) 
{"free_energy": -8.78, "intermolecular_energy": -11.17, "internal_energy": -2.18, "cluster_size": 7, "cluster_id": 1, "rank_in_cluster": 6}

>  <energy>  (28) 
-8.74

>  <cluster_rmsd>  (28) 
0.0

>  <rmsd>  (28) 
271.23

>  <cluster>  (28) 
2

$$$$

     RDKit          3D

 59 62  0  0  1  0  0  0  0  0999 V2000
  141.2710   83.1290  221.6040 C   0  0  0  0  0  0  0  0  0  0  0  0
  141.2300   81.6830  221.9360 C   0  0  0  0  0  0  0  0  0  0  0  0
  141.6840   81.2830  223.1600 C   0  0  0  0  0  0  0  0  0  0  0  0
  141.6640   79.9480  223.5080 C   0  0  0  0  0  0  0  0  0  0  0  0
  141.2020   78.9530  222.6780 C   0  0  0  0  0  0  0  0  0  0  0  0
  141.1580   77.5270  223.0090 C   0  0  0  0  0  0  0  0  0  0  0  0
  141.4500   76.7310  221.8450 N   0  0  0  0  0  0  0  0  0  0  0  0
  140.8680   75.5000  221.5210 C   0  0  0  0  0  0  0  0  0  0  0  0
  139.9920   74.9550  222.2660 O   0  0  0  0  0  0  0  0  0  0  0  0
  141.2180   74.7280  220.2900 C   0  0  1  0  0  0  0  0  0  0  0  0
  142.6960   74.5820  220.1200 C   0  0  0  0  0  0  0  0  0  0  0  0
  143.0050   73.1390  220.3650 C   0  0  1  0  0  0  0  0  0  0  0  0
  144.0850   72.9660  221.2360 O   0  0  0  0  0  0  0  0  0  0  0  0
  141.7290   72.5860  220.9480 C   0  0  0  0  0  0  0  0  0  0  0  0
  140.6780   73.3970  220.3260 N   0  0  0  0  0  0  0  0  0  0  0  0
  139.4130   72.9120  219.8750 C   0  0  0  0  0  0  0  0  0  0  0  0
  139.3180   72.5050  218.7090 O   0  0  0  0  0  0  0  0  0  0  0  0
  138.3020   72.9400  220.8620 C   0  0  0  0  0  0  0  0  0  0  0  0
  138.7700   72.6260  222.1970 N   0  0  0  0  0  0  0  0  0  0  0  0
  139.1870   71.2730  222.4320 C   0  0  0  0  0  0  0  0  0  0  0  0
  139.1180   70.4720  221.4900 O   0  0  0  0  0  0  0  0  0  0  0  0
  139.6700   70.8860  223.7530 C   0  0  0  0  0  0  0  0  0  0  0  0
  140.4220   71.7940  224.4700 C   0  0  0  0  0  0  0  0  0  0  0  0
  140.9160   71.4990  225.7310 C   0  0  0  0  0  0  0  0  0  0  0  0
  140.6270   70.2540  226.2520 C   0  0  0  0  0  0  0  0  0  0  0  0
  141.1000   69.9200  227.5080 C   0  0  0  0  0  0  0  0  0  0  0  0
  140.8260   68.6670  228.0660 C   0  0  0  0  0  0  0  0  0  0  0  0
  141.3090   68.3720  229.3040 F   0  0  0  0  0  0  0  0  0  0  0  0
  140.0720   67.7770  227.3290 C   0  0  0  0  0  0  0  0  0  0  0  0
  139.5810   68.0790  226.0650 C   0  0  0  0  0  0  0  0  0  0  0  0
  139.8640   69.3300  225.5280 C   0  0  0  0  0  0  0  0  0  0  0  0
  139.4020   69.6700  224.2910 N   0  0  0  0  0  0  0  0  0  0  0  0
  140.7390   79.3680  221.4280 C   0  0  0  0  0  0  0  0  0  0  0  0
  140.7570   80.7180  221.0700 C   0  0  0  0  0  0  0  0  0  0  0  0
  141.2877   83.7181  222.5328 H   0  0  0  0  0  0  0  0  0  0  0  0
  142.1756   83.3448  221.0166 H   0  0  0  0  0  0  0  0  0  0  0  0
  140.3801   83.3957  221.0166 H   0  0  0  0  0  0  0  0  0  0  0  0
  142.0675   82.0286  223.8720 H   0  0  0  0  0  0  0  0  0  0  0  0
  142.0377   79.6640  224.5028 H   0  0  0  0  0  0  0  0  0  0  0  0
  141.9025   77.3133  223.7900 H   0  0  0  0  0  0  0  0  0  0  0  0
  140.1493   77.2757  223.3686 H   0  0  0  0  0  0  0  0  0  0  0  0
  142.1700   77.1190  221.1820 H   0  0  0  0  0  0  0  0  0  0  0  0
  140.7886   75.3034  219.4566 H   0  0  0  0  0  0  0  0  0  0  0  0
  142.9923   74.8673  219.0998 H   0  0  0  0  0  0  0  0  0  0  0  0
  143.2453   75.2328  220.8162 H   0  0  0  0  0  0  0  0  0  0  0  0
  143.3105   72.6222  219.4433 H   0  0  0  0  0  0  0  0  0  0  0  0
  144.3250   71.9930  221.1990 H   0  0  0  0  0  0  0  0  0  0  0  0
  141.6085   71.5237  220.6893 H   0  0  0  0  0  0  0  0  0  0  0  0
  141.7083   72.6342  222.0467 H   0  0  0  0  0  0  0  0  0  0  0  0
  137.8538   73.9445  220.8674 H   0  0  0  0  0  0  0  0  0  0  0  0
  137.5606   72.1821  220.5689 H   0  0  0  0  0  0  0  0  0  0  0  0
  138.8130   73.3370  222.9720 H   0  0  0  0  0  0  0  0  0  0  0  0
  140.6352   72.7788  224.0288 H   0  0  0  0  0  0  0  0  0  0  0  0
  141.5153   72.2290  226.2948 H   0  0  0  0  0  0  0  0  0  0  0  0
  141.6987   70.6483  228.0747 H   0  0  0  0  0  0  0  0  0  0  0  0
  139.8509   66.7891  227.7594 H   0  0  0  0  0  0  0  0  0  0  0  0
  138.9831   67.3465  225.5029 H   0  0  0  0  0  0  0  0  0  0  0  0
  140.3552   78.6224  220.7161 H   0  0  0  0  0  0  0  0  0  0  0  0
  140.3870   81.0179  220.0785 H   0  0  0  0  0  0  0  0  0  0  0  0
  1  2  1  0
  2  3  2  0
  3  4  1  0
  4  5  2  0
  5  6  1  0
  6  7  1  0
  7  8  1  0
  8  9  2  0
  8 10  1  0
 10 11  1  0
 11 12  1  0
 12 13  1  0
 12 14  1  0
 14 15  1  0
 15 16  1  0
 16 17  2  0
 16 18  1  0
 18 19  1  0
 19 20  1  0
 20 21  2  0
 20 22  1  0
 22 23  2  0
 23 24  1  0
 24 25  2  0
 25 26  1  0
 26 27  2  0
 27 28  1  0
 27 29  1  0
 29 30  2  0
 30 31  1  0
 31 32  2  0
  5 33  1  0
 33 34  2  0
 34  2  1  0
 15 10  1  0
 32 22  1  0
 31 25  1  0
  1 35  1  0
  1 36  1  0
  1 37  1  0
  3 38  1  0
  4 39  1  0
  6 40  1  0
  6 41  1  0
  7 42  1  0
 10 43  1  6
 11 44  1  0
 11 45  1  0
 12 46  1  6
 13 47  1  0
 14 48  1  0
 14 49  1  0
 18 50  1  0
 18 51  1  0
 19 52  1  0
 23 53  1  0
 24 54  1  0
 26 55  1  0
 29 56  1  0
 30 57  1  0
 33 58  1  0
 34 59  1  0
M  END
>  <smiles>  (29) 
Cc1ccc(CNC(=O)C2C[C@@H](O)CN2C(=O)CNC(=O)c2ccc3cc(F)ccc3n2)cc1

>  <score_type>  (29) 
oracle

>  <origin>  (29) 
autodockgpu

>  <m_score__min__energy>  (29) 
-9.4000000000000004

>  <m_primary>  (29) 
energy

>  <meeko>  (29) 
{"free_energy": -8.72, "intermolecular_energy": -11.11, "internal_energy": -2.3, "cluster_size": 5, "cluster_id": 2, "rank_in_cluster": 2}

>  <energy>  (29) 
-8.72

>  <cluster_rmsd>  (29) 
0.08

>  <rmsd>  (29) 
271.22

>  <cluster>  (29) 
2

$$$$

     RDKit          3D

 59 62  0  0  1  0  0  0  0  0999 V2000
  142.4510   81.5100  224.1840 C   0  0  0  0  0  0  0  0  0  0  0  0
  141.6860   80.3500  223.6620 C   0  0  0  0  0  0  0  0  0  0  0  0
  140.3250   80.3650  223.7730 C   0  0  0  0  0  0  0  0  0  0  0  0
  139.5770   79.3070  223.3010 C   0  0  0  0  0  0  0  0  0  0  0  0
  140.1240   78.1940  222.7040 C   0  0  0  0  0  0  0  0  0  0  0  0
  139.3670   77.0530  222.1850 C   0  0  0  0  0  0  0  0  0  0  0  0
  140.1670   76.3010  221.2540 N   0  0  0  0  0  0  0  0  0  0  0  0
  140.1910   76.4690  219.8640 C   0  0  0  0  0  0  0  0  0  0  0  0
  139.4710   77.3410  219.2810 O   0  0  0  0  0  0  0  0  0  0  0  0
  141.0510   75.6510  218.9560 C   0  0  1  0  0  0  0  0  0  0  0  0
  142.3510   76.3240  218.6550 C   0  0  0  0  0  0  0  0  0  0  0  0
  143.4060   75.5280  219.3550 C   0  0  1  0  0  0  0  0  0  0  0  0
  144.2880   76.3350  220.0800 O   0  0  0  0  0  0  0  0  0  0  0  0
  142.6280   74.6060  220.2610 C   0  0  0  0  0  0  0  0  0  0  0  0
  141.3750   74.3770  219.5350 N   0  0  0  0  0  0  0  0  0  0  0  0
  140.6760   73.1340  219.4580 C   0  0  0  0  0  0  0  0  0  0  0  0
  141.2240   72.1820  218.8870 O   0  0  0  0  0  0  0  0  0  0  0  0
  139.3270   73.0920  220.0810 C   0  0  0  0  0  0  0  0  0  0  0  0
  139.2780   72.1420  221.1760 N   0  0  0  0  0  0  0  0  0  0  0  0
  140.0590   72.4560  222.3370 C   0  0  0  0  0  0  0  0  0  0  0  0
  140.7180   73.5040  222.3280 O   0  0  0  0  0  0  0  0  0  0  0  0
  140.0580   71.5450  223.4760 C   0  0  0  0  0  0  0  0  0  0  0  0
  139.5320   70.2800  223.3060 C   0  0  0  0  0  0  0  0  0  0  0  0
  139.4950   69.3590  224.3400 C   0  0  0  0  0  0  0  0  0  0  0  0
  140.0070   69.7520  225.5600 C   0  0  0  0  0  0  0  0  0  0  0  0
  139.9910   68.8620  226.6190 C   0  0  0  0  0  0  0  0  0  0  0  0
  140.5020   69.2280  227.8680 C   0  0  0  0  0  0  0  0  0  0  0  0
  140.4680   68.3260  228.8880 F   0  0  0  0  0  0  0  0  0  0  0  0
  141.0230   70.4970  228.0130 C   0  0  0  0  0  0  0  0  0  0  0  0
  141.0560   71.4160  226.9710 C   0  0  0  0  0  0  0  0  0  0  0  0
  140.5430   71.0340  225.7370 C   0  0  0  0  0  0  0  0  0  0  0  0
  140.5550   71.9020  224.6870 N   0  0  0  0  0  0  0  0  0  0  0  0
  141.5160   78.1860  222.5940 C   0  0  0  0  0  0  0  0  0  0  0  0
  142.2790   79.2540  223.0700 C   0  0  0  0  0  0  0  0  0  0  0  0
  142.4392   81.4921  225.2838 H   0  0  0  0  0  0  0  0  0  0  0  0
  143.4901   81.4543  223.8275 H   0  0  0  0  0  0  0  0  0  0  0  0
  141.9906   82.4432  223.8275 H   0  0  0  0  0  0  0  0  0  0  0  0
  139.8232   81.2248  224.2409 H   0  0  0  0  0  0  0  0  0  0  0  0
  138.4832   79.3552  223.4075 H   0  0  0  0  0  0  0  0  0  0  0  0
  139.0755   76.4009  223.0215 H   0  0  0  0  0  0  0  0  0  0  0  0
  138.4716   77.4255  221.6660 H   0  0  0  0  0  0  0  0  0  0  0  0
  140.7880   75.5570  221.6650 H   0  0  0  0  0  0  0  0  0  0  0  0
  140.4603   75.5252  218.0366 H   0  0  0  0  0  0  0  0  0  0  0  0
  142.5349   76.3301  217.5705 H   0  0  0  0  0  0  0  0  0  0  0  0
  142.3480   77.3705  218.9940 H   0  0  0  0  0  0  0  0  0  0  0  0
  144.0487   74.9854  218.6461 H   0  0  0  0  0  0  0  0  0  0  0  0
  143.7340   77.0640  220.4890 H   0  0  0  0  0  0  0  0  0  0  0  0
  143.1691   73.6610  220.4164 H   0  0  0  0  0  0  0  0  0  0  0  0
  142.4674   75.0304  221.2631 H   0  0  0  0  0  0  0  0  0  0  0  0
  139.0787   74.0927  220.4643 H   0  0  0  0  0  0  0  0  0  0  0  0
  138.6026   72.7756  219.3161 H   0  0  0  0  0  0  0  0  0  0  0  0
  138.7040   71.2610  221.1440 H   0  0  0  0  0  0  0  0  0  0  0  0
  139.1311   69.9955  222.3220 H   0  0  0  0  0  0  0  0  0  0  0  0
  139.0738   68.3533  224.1944 H   0  0  0  0  0  0  0  0  0  0  0  0
  139.5716   67.8551  226.4769 H   0  0  0  0  0  0  0  0  0  0  0  0
  141.4282   70.7932  228.9918 H   0  0  0  0  0  0  0  0  0  0  0  0
  141.4778   72.4211  227.1192 H   0  0  0  0  0  0  0  0  0  0  0  0
  142.0183   77.3266  222.1259 H   0  0  0  0  0  0  0  0  0  0  0  0
  143.3741   79.2209  222.9711 H   0  0  0  0  0  0  0  0  0  0  0  0
  1  2  1  0
  2  3  2  0
  3  4  1  0
  4  5  2  0
  5  6  1  0
  6  7  1  0
  7  8  1  0
  8  9  2  0
  8 10  1  0
 10 11  1  0
 11 12  1  0
 12 13  1  0
 12 14  1  0
 14 15  1  0
 15 16  1  0
 16 17  2  0
 16 18  1  0
 18 19  1  0
 19 20  1  0
 20 21  2  0
 20 22  1  0
 22 23  2  0
 23 24  1  0
 24 25  2  0
 25 26  1  0
 26 27  2  0
 27 28  1  0
 27 29  1  0
 29 30  2  0
 30 31  1  0
 31 32  2  0
  5 33  1  0
 33 34  2  0
 34  2  1  0
 15 10  1  0
 32 22  1  0
 31 25  1  0
  1 35  1  0
  1 36  1  0
  1 37  1  0
  3 38  1  0
  4 39  1  0
  6 40  1  0
  6 41  1  0
  7 42  1  0
 10 43  1  6
 11 44  1  0
 11 45  1  0
 12 46  1  6
 13 47  1  0
 14 48  1  0
 14 49  1  0
 18 50  1  0
 18 51  1  0
 19 52  1  0
 23 53  1  0
 24 54  1  0
 26 55  1  0
 29 56  1  0
 30 57  1  0
 33 58  1  0
 34 59  1  0
M  END
>  <smiles>  (30) 
Cc1ccc(CNC(=O)C2C[C@@H](O)CN2C(=O)CNC(=O)c2ccc3cc(F)ccc3n2)cc1

>  <score_type>  (30) 
oracle

>  <origin>  (30) 
autodockgpu

>  <m_score__min__energy>  (30) 
-9.4000000000000004

>  <m_primary>  (30) 
energy

>  <meeko>  (30) 
{"free_energy": -8.64, "intermolecular_energy": -11.03, "internal_energy": -2.57, "cluster_size": 5, "cluster_id": 2, "rank_in_cluster": 3}

>  <energy>  (30) 
-8.64

>  <cluster_rmsd>  (30) 
1.72

>  <rmsd>  (30) 
271.13

>  <cluster>  (30) 
2

$$$$

     RDKit          3D

 59 62  0  0  1  0  0  0  0  0999 V2000
  146.3160   66.9040  219.1060 C   0  0  0  0  0  0  0  0  0  0  0  0
  145.1140   67.7730  219.1840 C   0  0  0  0  0  0  0  0  0  0  0  0
  145.2930   69.1200  219.3200 C   0  0  0  0  0  0  0  0  0  0  0  0
  144.2040   69.9630  219.3970 C   0  0  0  0  0  0  0  0  0  0  0  0
  142.8990   69.5270  219.3440 C   0  0  0  0  0  0  0  0  0  0  0  0
  141.7160   70.3860  219.4160 C   0  0  0  0  0  0  0  0  0  0  0  0
  142.0110   71.5870  220.1530 N   0  0  0  0  0  0  0  0  0  0  0  0
  142.5980   72.7480  219.6350 C   0  0  0  0  0  0  0  0  0  0  0  0
  142.9400   72.8400  218.4130 O   0  0  0  0  0  0  0  0  0  0  0  0
  142.8750   73.9630  220.4610 C   0  0  1  0  0  0  0  0  0  0  0  0
  143.9660   74.8010  219.8790 C   0  0  0  0  0  0  0  0  0  0  0  0
  143.3130   76.0490  219.3770 C   0  0  1  0  0  0  0  0  0  0  0  0
  143.7190   76.3770  218.0790 O   0  0  0  0  0  0  0  0  0  0  0  0
  141.8390   75.7390  219.4340 C   0  0  0  0  0  0  0  0  0  0  0  0
  141.7190   74.8100  220.5620 N   0  0  0  0  0  0  0  0  0  0  0  0
  140.6600   74.8010  221.5200 C   0  0  0  0  0  0  0  0  0  0  0  0
  140.5650   75.7530  222.3060 O   0  0  0  0  0  0  0  0  0  0  0  0
  139.7490   73.6270  221.4890 C   0  0  0  0  0  0  0  0  0  0  0  0
  139.8090   72.8750  222.7280 N   0  0  0  0  0  0  0  0  0  0  0  0
  139.7810   71.4450  222.6160 C   0  0  0  0  0  0  0  0  0  0  0  0
  139.7080   70.9520  221.4820 O   0  0  0  0  0  0  0  0  0  0  0  0
  139.8380   70.6260  223.8210 C   0  0  0  0  0  0  0  0  0  0  0  0
  139.2740   69.3670  223.7870 C   0  0  0  0  0  0  0  0  0  0  0  0
  139.2880   68.5300  224.8910 C   0  0  0  0  0  0  0  0  0  0  0  0
  139.8930   69.0020  226.0390 C   0  0  0  0  0  0  0  0  0  0  0  0
  139.9300   68.1970  227.1640 C   0  0  0  0  0  0  0  0  0  0  0  0
  140.5340   68.6440  228.3430 C   0  0  0  0  0  0  0  0  0  0  0  0
  140.5510   67.8260  229.4310 F   0  0  0  0  0  0  0  0  0  0  0  0
  141.0910   69.9070  228.3510 C   0  0  0  0  0  0  0  0  0  0  0  0
  141.0730   70.7410  227.2400 C   0  0  0  0  0  0  0  0  0  0  0  0
  140.4670   70.2780  226.0780 C   0  0  0  0  0  0  0  0  0  0  0  0
  140.4250   71.0620  224.9630 N   0  0  0  0  0  0  0  0  0  0  0  0
  142.7240   68.1480  219.2040 C   0  0  0  0  0  0  0  0  0  0  0  0
  143.8230   67.2900  219.1270 C   0  0  0  0  0  0  0  0  0  0  0  0
  146.6569   66.6576  220.1224 H   0  0  0  0  0  0  0  0  0  0  0  0
  146.0644   65.9776  218.5689 H   0  0  0  0  0  0  0  0  0  0  0  0
  147.1169   67.4333  218.5689 H   0  0  0  0  0  0  0  0  0  0  0  0
  146.3107   69.5347  219.3684 H   0  0  0  0  0  0  0  0  0  0  0  0
  144.3880   71.0419  219.5067 H   0  0  0  0  0  0  0  0  0  0  0  0
  141.4007   70.6545  218.3969 H   0  0  0  0  0  0  0  0  0  0  0  0
  140.9106   69.8411  219.9301 H   0  0  0  0  0  0  0  0  0  0  0  0
  141.7580   71.5830  221.1750 H   0  0  0  0  0  0  0  0  0  0  0  0
  143.1692   73.5799  221.4493 H   0  0  0  0  0  0  0  0  0  0  0  0
  144.7117   75.0448  220.6500 H   0  0  0  0  0  0  0  0  0  0  0  0
  144.4900   74.2705  219.0703 H   0  0  0  0  0  0  0  0  0  0  0  0
  143.5864   76.9269  219.9808 H   0  0  0  0  0  0  0  0  0  0  0  0
  144.5580   75.8550  217.9040 H   0  0  0  0  0  0  0  0  0  0  0  0
  141.2534   76.6524  219.6149 H   0  0  0  0  0  0  0  0  0  0  0  0
  141.4571   75.3163  218.4930 H   0  0  0  0  0  0  0  0  0  0  0  0
  138.7183   73.9783  221.3336 H   0  0  0  0  0  0  0  0  0  0  0  0
  140.0652   72.9662  220.6684 H   0  0  0  0  0  0  0  0  0  0  0  0
  139.8710   73.3330  223.6730 H   0  0  0  0  0  0  0  0  0  0  0  0
  138.8002   69.0183  222.8576 H   0  0  0  0  0  0  0  0  0  0  0  0
  138.8348   67.5284  224.8544 H   0  0  0  0  0  0  0  0  0  0  0  0
  139.4791   67.1942  227.1303 H   0  0  0  0  0  0  0  0  0  0  0  0
  141.5683   70.2676  229.2741 H   0  0  0  0  0  0  0  0  0  0  0  0
  141.5268   71.7423  227.2790 H   0  0  0  0  0  0  0  0  0  0  0  0
  141.7067   67.7325  219.1537 H   0  0  0  0  0  0  0  0  0  0  0  0
  143.6561   66.2081  219.0188 H   0  0  0  0  0  0  0  0  0  0  0  0
  1  2  1  0
  2  3  2  0
  3  4  1  0
  4  5  2  0
  5  6  1  0
  6  7  1  0
  7  8  1  0
  8  9  2  0
  8 10  1  0
 10 11  1  0
 11 12  1  0
 12 13  1  0
 12 14  1  0
 14 15  1  0
 15 16  1  0
 16 17  2  0
 16 18  1  0
 18 19  1  0
 19 20  1  0
 20 21  2  0
 20 22  1  0
 22 23  2  0
 23 24  1  0
 24 25  2  0
 25 26  1  0
 26 27  2  0
 27 28  1  0
 27 29  1  0
 29 30  2  0
 30 31  1  0
 31 32  2  0
  5 33  1  0
 33 34  2  0
 34  2  1  0
 15 10  1  0
 32 22  1  0
 31 25  1  0
  1 35  1  0
  1 36  1  0
  1 37  1  0
  3 38  1  0
  4 39  1  0
  6 40  1  0
  6 41  1  0
  7 42  1  0
 10 43  1  1
 11 44  1  0
 11 45  1  0
 12 46  1  1
 13 47  1  0
 14 48  1  0
 14 49  1  0
 18 50  1  0
 18 51  1  0
 19 52  1  0
 23 53  1  0
 24 54  1  0
 26 55  1  0
 29 56  1  0
 30 57  1  0
 33 58  1  0
 34 59  1  0
M  END
>  <smiles>  (31) 
Cc1ccc(CNC(=O)C2C[C@@H](O)CN2C(=O)CNC(=O)c2ccc3cc(F)ccc3n2)cc1

>  <score_type>  (31) 
oracle

>  <origin>  (31) 
autodockgpu

>  <m_score__min__energy>  (31) 
-9.4000000000000004

>  <m_primary>  (31) 
energy

>  <meeko>  (31) 
{"free_energy": -8.12, "intermolecular_energy": -10.5, "internal_energy": -2.61, "cluster_size": 1, "cluster_id": 6, "rank_in_cluster": 1}

>  <energy>  (31) 
-8.44

>  <cluster_rmsd>  (31) 
1.66

>  <rmsd>  (31) 
271.5

>  <cluster>  (31) 
2

$$$$

     RDKit          3D

 59 62  0  0  1  0  0  0  0  0999 V2000
  141.8240   81.4900  223.0450 C   0  0  0  0  0  0  0  0  0  0  0  0
  141.5760   80.0620  222.7230 C   0  0  0  0  0  0  0  0  0  0  0  0
  141.6930   79.1400  223.7240 C   0  0  0  0  0  0  0  0  0  0  0  0
  141.4720   77.8030  223.4680 C   0  0  0  0  0  0  0  0  0  0  0  0
  141.1280   77.3130  222.2280 C   0  0  0  0  0  0  0  0  0  0  0  0
  140.8800   75.9040  221.9140 C   0  0  0  0  0  0  0  0  0  0  0  0
  139.5450   75.5290  222.3060 N   0  0  0  0  0  0  0  0  0  0  0  0
  138.3600   75.9300  221.6790 C   0  0  0  0  0  0  0  0  0  0  0  0
  138.3620   76.6970  220.6640 O   0  0  0  0  0  0  0  0  0  0  0  0
  137.0050   75.4990  222.1410 C   0  0  1  0  0  0  0  0  0  0  0  0
  136.0260   76.6280  222.1430 C   0  0  0  0  0  0  0  0  0  0  0  0
  135.0590   76.3470  221.0380 C   0  0  1  0  0  0  0  0  0  0  0  0
  134.8410   77.4630  220.2250 O   0  0  0  0  0  0  0  0  0  0  0  0
  135.7010   75.2190  220.2690 C   0  0  0  0  0  0  0  0  0  0  0  0
  136.4520   74.4820  221.2900 N   0  0  0  0  0  0  0  0  0  0  0  0
  136.5710   73.0610  221.3680 C   0  0  0  0  0  0  0  0  0  0  0  0
  135.5410   72.3880  221.5060 O   0  0  0  0  0  0  0  0  0  0  0  0
  137.9470   72.5050  221.2740 C   0  0  0  0  0  0  0  0  0  0  0  0
  138.2920   71.7390  222.4550 N   0  0  0  0  0  0  0  0  0  0  0  0
  139.5370   72.0610  223.0910 C   0  0  0  0  0  0  0  0  0  0  0  0
  140.2280   72.9590  222.5930 O   0  0  0  0  0  0  0  0  0  0  0  0
  139.9480   71.3300  224.2840 C   0  0  0  0  0  0  0  0  0  0  0  0
  140.9150   71.8870  225.0960 C   0  0  0  0  0  0  0  0  0  0  0  0
  141.3570   71.2550  226.2460 C   0  0  0  0  0  0  0  0  0  0  0  0
  140.7920   70.0350  226.5580 C   0  0  0  0  0  0  0  0  0  0  0  0
  141.2050   69.3690  227.6980 C   0  0  0  0  0  0  0  0  0  0  0  0
  140.6530   68.1320  228.0440 C   0  0  0  0  0  0  0  0  0  0  0  0
  141.0840   67.5050  229.1730 F   0  0  0  0  0  0  0  0  0  0  0  0
  139.6870   67.5950  227.2170 C   0  0  0  0  0  0  0  0  0  0  0  0
  139.2490   68.2360  226.0640 C   0  0  0  0  0  0  0  0  0  0  0  0
  139.8100   69.4650  225.7380 C   0  0  0  0  0  0  0  0  0  0  0  0
  139.4100   70.1300  224.6170 N   0  0  0  0  0  0  0  0  0  0  0  0
  141.0100   78.2610  221.2100 C   0  0  0  0  0  0  0  0  0  0  0  0
  141.2330   79.6160  221.4630 C   0  0  0  0  0  0  0  0  0  0  0  0
  141.8468   81.6211  224.1369 H   0  0  0  0  0  0  0  0  0  0  0  0
  142.7894   81.7998  222.6183 H   0  0  0  0  0  0  0  0  0  0  0  0
  141.0196   82.1071  222.6183 H   0  0  0  0  0  0  0  0  0  0  0  0
  141.9647   79.4654  224.7390 H   0  0  0  0  0  0  0  0  0  0  0  0
  141.5761   77.0898  224.2990 H   0  0  0  0  0  0  0  0  0  0  0  0
  140.9971   75.7479  220.8314 H   0  0  0  0  0  0  0  0  0  0  0  0
  141.6013   75.2833  222.4658 H   0  0  0  0  0  0  0  0  0  0  0  0
  139.4640   74.8960  223.1430 H   0  0  0  0  0  0  0  0  0  0  0  0
  137.1567   75.1180  223.1617 H   0  0  0  0  0  0  0  0  0  0  0  0
  135.4993   76.6736  223.1076 H   0  0  0  0  0  0  0  0  0  0  0  0
  136.5302   77.5946  221.9968 H   0  0  0  0  0  0  0  0  0  0  0  0
  134.0613   76.0872  221.4215 H   0  0  0  0  0  0  0  0  0  0  0  0
  135.7280   77.6940  219.8160 H   0  0  0  0  0  0  0  0  0  0  0  0
  134.9378   74.5773  219.8045 H   0  0  0  0  0  0  0  0  0  0  0  0
  136.3385   75.5743  219.4460 H   0  0  0  0  0  0  0  0  0  0  0  0
  138.0084   71.8499  220.3925 H   0  0  0  0  0  0  0  0  0  0  0  0
  138.6532   73.3440  221.1882 H   0  0  0  0  0  0  0  0  0  0  0  0
  137.6750   70.9810  222.8470 H   0  0  0  0  0  0  0  0  0  0  0  0
  141.3469   72.8608  224.8218 H   0  0  0  0  0  0  0  0  0  0  0  0
  142.1285   71.7077  226.8861 H   0  0  0  0  0  0  0  0  0  0  0  0
  141.9771   69.8181  228.3400 H   0  0  0  0  0  0  0  0  0  0  0  0
  139.2467   66.6220  227.4806 H   0  0  0  0  0  0  0  0  0  0  0  0
  138.4773   67.7816  225.4252 H   0  0  0  0  0  0  0  0  0  0  0  0
  140.7377   77.9362  220.1950 H   0  0  0  0  0  0  0  0  0  0  0  0
  141.1334   80.3417  220.6423 H   0  0  0  0  0  0  0  0  0  0  0  0
  1  2  1  0
  2  3  2  0
  3  4  1  0
  4  5  2  0
  5  6  1  0
  6  7  1  0
  7  8  1  0
  8  9  2  0
  8 10  1  0
 10 11  1  0
 11 12  1  0
 12 13  1  0
 12 14  1  0
 14 15  1  0
 15 16  1  0
 16 17  2  0
 16 18  1  0
 18 19  1  0
 19 20  1  0
 20 21  2  0
 20 22  1  0
 22 23  2  0
 23 24  1  0
 24 25  2  0
 25 26  1  0
 26 27  2  0
 27 28  1  0
 27 29  1  0
 29 30  2  0
 30 31  1  0
 31 32  2  0
  5 33  1  0
 33 34  2  0
 34  2  1  0
 15 10  1  0
 32 22  1  0
 31 25  1  0
  1 35  1  0
  1 36  1  0
  1 37  1  0
  3 38  1  0
  4 39  1  0
  6 40  1  0
  6 41  1  0
  7 42  1  0
 10 43  1  1
 11 44  1  0
 11 45  1  0
 12 46  1  1
 13 47  1  0
 14 48  1  0
 14 49  1  0
 18 50  1  0
 18 51  1  0
 19 52  1  0
 23 53  1  0
 24 54  1  0
 26 55  1  0
 29 56  1  0
 30 57  1  0
 33 58  1  0
 34 59  1  0
M  END
>  <smiles>  (32) 
Cc1ccc(CNC(=O)C2C[C@@H](O)CN2C(=O)CNC(=O)c2ccc3cc(F)ccc3n2)cc1

>  <score_type>  (32) 
oracle

>  <origin>  (32) 
autodockgpu

>  <m_score__min__energy>  (32) 
-9.4000000000000004

>  <m_primary>  (32) 
energy

>  <meeko>  (32) 
{"free_energy": -7.57, "intermolecular_energy": -9.95, "internal_energy": -2.7, "cluster_size": 3, "cluster_id": 5, "rank_in_cluster": 3}

>  <energy>  (32) 
-8.02

>  <cluster_rmsd>  (32) 
1.61

>  <rmsd>  (32) 
271.06

>  <cluster>  (32) 
2

$$$$

     RDKit          3D

 59 62  0  0  1  0  0  0  0  0999 V2000
  141.8370   81.0490  223.7630 C   0  0  0  0  0  0  0  0  0  0  0  0
  141.1440   79.7890  223.3930 C   0  0  0  0  0  0  0  0  0  0  0  0
  139.7800   79.7570  223.4450 C   0  0  0  0  0  0  0  0  0  0  0  0
  139.0980   78.6060  223.1090 C   0  0  0  0  0  0  0  0  0  0  0  0
  139.7170   77.4430  222.7120 C   0  0  0  0  0  0  0  0  0  0  0  0
  139.0320   76.2020  222.3430 C   0  0  0  0  0  0  0  0  0  0  0  0
  139.8640   75.4080  221.4760 N   0  0  0  0  0  0  0  0  0  0  0  0
  139.6880   75.2340  220.0980 C   0  0  0  0  0  0  0  0  0  0  0  0
  138.7310   75.7880  219.4680 O   0  0  0  0  0  0  0  0  0  0  0  0
  140.5940   74.3930  219.2570 C   0  0  1  0  0  0  0  0  0  0  0  0
  141.8920   75.0770  218.9740 C   0  0  0  0  0  0  0  0  0  0  0  0
  142.9340   74.3320  219.7450 C   0  0  1  0  0  0  0  0  0  0  0  0
  143.7760   75.1860  220.4650 O   0  0  0  0  0  0  0  0  0  0  0  0
  142.1400   73.4360  220.6630 C   0  0  0  0  0  0  0  0  0  0  0  0
  140.9190   73.1520  219.9030 N   0  0  0  0  0  0  0  0  0  0  0  0
  140.2450   71.8940  219.8560 C   0  0  0  0  0  0  0  0  0  0  0  0
  140.7100   71.0000  219.1360 O   0  0  0  0  0  0  0  0  0  0  0  0
  139.0210   71.7650  220.6910 C   0  0  0  0  0  0  0  0  0  0  0  0
  139.2950   71.0600  221.9290 N   0  0  0  0  0  0  0  0  0  0  0  0
  139.8580   71.8320  222.9990 C   0  0  0  0  0  0  0  0  0  0  0  0
  140.0730   73.0350  222.7980 O   0  0  0  0  0  0  0  0  0  0  0  0
  140.1600   71.1870  224.2720 C   0  0  0  0  0  0  0  0  0  0  0  0
  140.7670   71.9360  225.2600 C   0  0  0  0  0  0  0  0  0  0  0  0
  141.0850   71.3950  226.4950 C   0  0  0  0  0  0  0  0  0  0  0  0
  140.7690   70.0680  226.7080 C   0  0  0  0  0  0  0  0  0  0  0  0
  141.0680   69.4890  227.9280 C   0  0  0  0  0  0  0  0  0  0  0  0
  140.7610   68.1470  228.1780 C   0  0  0  0  0  0  0  0  0  0  0  0
  141.0710   67.6100  229.3900 F   0  0  0  0  0  0  0  0  0  0  0  0
  140.1540   67.4210  227.1740 C   0  0  0  0  0  0  0  0  0  0  0  0
  139.8390   67.9700  225.9380 C   0  0  0  0  0  0  0  0  0  0  0  0
  140.1510   69.3050  225.7090 C   0  0  0  0  0  0  0  0  0  0  0  0
  139.8610   69.8860  224.5110 N   0  0  0  0  0  0  0  0  0  0  0  0
  141.1120   77.4830  222.6620 C   0  0  0  0  0  0  0  0  0  0  0  0
  141.8080   78.6450  223.0000 C   0  0  0  0  0  0  0  0  0  0  0  0
  141.8836   81.1337  224.8587 H   0  0  0  0  0  0  0  0  0  0  0  0
  142.8574   81.0405  223.3522 H   0  0  0  0  0  0  0  0  0  0  0  0
  141.2834   81.9062  223.3522 H   0  0  0  0  0  0  0  0  0  0  0  0
  139.2226   80.6528  223.7562 H   0  0  0  0  0  0  0  0  0  0  0  0
  137.9993   78.6186  223.1613 H   0  0  0  0  0  0  0  0  0  0  0  0
  138.8060   75.6281  223.2538 H   0  0  0  0  0  0  0  0  0  0  0  0
  138.1010   76.4522  221.8132 H   0  0  0  0  0  0  0  0  0  0  0  0
  140.6760   74.9150  221.9290 H   0  0  0  0  0  0  0  0  0  0  0  0
  140.0394   74.2158  218.3237 H   0  0  0  0  0  0  0  0  0  0  0  0
  142.1154   75.0403  217.8975 H   0  0  0  0  0  0  0  0  0  0  0  0
  141.8584   76.1367  219.2669 H   0  0  0  0  0  0  0  0  0  0  0  0
  143.6106   73.7713  219.0834 H   0  0  0  0  0  0  0  0  0  0  0  0
  143.1970   75.6550  221.1360 H   0  0  0  0  0  0  0  0  0  0  0  0
  142.6914   72.5092  220.8796 H   0  0  0  0  0  0  0  0  0  0  0  0
  141.9356   73.9003  221.6391 H   0  0  0  0  0  0  0  0  0  0  0  0
  138.6423   72.7702  220.9281 H   0  0  0  0  0  0  0  0  0  0  0  0
  138.2746   71.1897  220.1236 H   0  0  0  0  0  0  0  0  0  0  0  0
  139.0980   70.0350  222.0590 H   0  0  0  0  0  0  0  0  0  0  0  0
  141.0047   72.9914  225.0612 H   0  0  0  0  0  0  0  0  0  0  0  0
  141.5704   71.9992  227.2756 H   0  0  0  0  0  0  0  0  0  0  0  0
  141.5528   70.0906  228.7109 H   0  0  0  0  0  0  0  0  0  0  0  0
  139.9097   66.3647  227.3601 H   0  0  0  0  0  0  0  0  0  0  0  0
  139.3543   67.3631  225.1590 H   0  0  0  0  0  0  0  0  0  0  0  0
  141.6698   76.5870  222.3522 H   0  0  0  0  0  0  0  0  0  0  0  0
  142.9069   78.6487  222.9521 H   0  0  0  0  0  0  0  0  0  0  0  0
  1  2  1  0
  2  3  2  0
  3  4  1  0
  4  5  2  0
  5  6  1  0
  6  7  1  0
  7  8  1  0
  8  9  2  0
  8 10  1  0
 10 11  1  0
 11 12  1  0
 12 13  1  0
 12 14  1  0
 14 15  1  0
 15 16  1  0
 16 17  2  0
 16 18  1  0
 18 19  1  0
 19 20  1  0
 20 21  2  0
 20 22  1  0
 22 23  2  0
 23 24  1  0
 24 25  2  0
 25 26  1  0
 26 27  2  0
 27 28  1  0
 27 29  1  0
 29 30  2  0
 30 31  1  0
 31 32  2  0
  5 33  1  0
 33 34  2  0
 34  2  1  0
 15 10  1  0
 32 22  1  0
 31 25  1  0
  1 35  1  0
  1 36  1  0
  1 37  1  0
  3 38  1  0
  4 39  1  0
  6 40  1  0
  6 41  1  0
  7 42  1  0
 10 43  1  6
 11 44  1  0
 11 45  1  0
 12 46  1  6
 13 47  1  0
 14 48  1  0
 14 49  1  0
 18 50  1  0
 18 51  1  0
 19 52  1  0
 23 53  1  0
 24 54  1  0
 26 55  1  0
 29 56  1  0
 30 57  1  0
 33 58  1  0
 34 59  1  0
M  END
>  <smiles>  (33) 
Cc1ccc(CNC(=O)C2C[C@@H](O)CN2C(=O)CNC(=O)c2ccc3cc(F)ccc3n2)cc1

>  <score_type>  (33) 
oracle

>  <origin>  (33) 
autodockgpu

>  <m_score__min__energy>  (33) 
-9.4000000000000004

>  <m_primary>  (33) 
energy

>  <meeko>  (33) 
{"free_energy": -8.02, "intermolecular_energy": -10.41, "internal_energy": -2.86, "cluster_size": 5, "cluster_id": 2, "rank_in_cluster": 5}

>  <energy>  (33) 
-8.65

>  <cluster_rmsd>  (33) 
0.0

>  <rmsd>  (33) 
271.43

>  <cluster>  (33) 
3

$$$$

     RDKit          3D

 59 62  0  0  1  0  0  0  0  0999 V2000
  141.4670   80.3260  223.7510 C   0  0  0  0  0  0  0  0  0  0  0  0
  141.6460   79.8560  222.3540 C   0  0  0  0  0  0  0  0  0  0  0  0
  141.5940   78.5140  222.1070 C   0  0  0  0  0  0  0  0  0  0  0  0
  141.7550   78.0360  220.8230 C   0  0  0  0  0  0  0  0  0  0  0  0
  141.9740   78.8450  219.7320 C   0  0  0  0  0  0  0  0  0  0  0  0
  142.1460   78.3810  218.3540 C   0  0  0  0  0  0  0  0  0  0  0  0
  142.0590   76.9440  218.2930 N   0  0  0  0  0  0  0  0  0  0  0  0
  143.0070   76.0400  218.7860 C   0  0  0  0  0  0  0  0  0  0  0  0
  144.0760   76.4310  219.3540 O   0  0  0  0  0  0  0  0  0  0  0  0
  142.8500   74.5570  218.6900 C   0  0  1  0  0  0  0  0  0  0  0  0
  144.0220   73.9090  218.0270 C   0  0  0  0  0  0  0  0  0  0  0  0
  144.7370   73.1430  219.0940 C   0  0  1  0  0  0  0  0  0  0  0  0
  146.1160   73.3760  219.0840 O   0  0  0  0  0  0  0  0  0  0  0  0
  144.1040   73.6240  220.3760 C   0  0  0  0  0  0  0  0  0  0  0  0
  142.7280   73.9500  219.9870 N   0  0  0  0  0  0  0  0  0  0  0  0
  141.5620   73.6940  220.7700 C   0  0  0  0  0  0  0  0  0  0  0  0
  141.2650   74.4950  221.6660 O   0  0  0  0  0  0  0  0  0  0  0  0
  140.7930   72.4670  220.4340 C   0  0  0  0  0  0  0  0  0  0  0  0
  140.7980   71.5200  221.5320 N   0  0  0  0  0  0  0  0  0  0  0  0
  140.0960   71.9080  222.7210 C   0  0  0  0  0  0  0  0  0  0  0  0
  139.5390   73.0140  222.7320 O   0  0  0  0  0  0  0  0  0  0  0  0
  140.0600   71.0050  223.8660 C   0  0  0  0  0  0  0  0  0  0  0  0
  139.4620   69.7710  223.7110 C   0  0  0  0  0  0  0  0  0  0  0  0
  139.3890   68.8590  224.7500 C   0  0  0  0  0  0  0  0  0  0  0  0
  139.9410   69.2280  225.9600 C   0  0  0  0  0  0  0  0  0  0  0  0
  139.8900   68.3460  227.0250 C   0  0  0  0  0  0  0  0  0  0  0  0
  140.4400   68.6890  228.2640 C   0  0  0  0  0  0  0  0  0  0  0  0
  140.3710   67.7960  229.2900 F   0  0  0  0  0  0  0  0  0  0  0  0
  141.0330   69.9280  228.3940 C   0  0  0  0  0  0  0  0  0  0  0  0
  141.1020   70.8380  227.3460 C   0  0  0  0  0  0  0  0  0  0  0  0
  140.5500   70.4790  226.1220 C   0  0  0  0  0  0  0  0  0  0  0  0
  140.5940   71.3400  225.0660 N   0  0  0  0  0  0  0  0  0  0  0  0
  142.0270   80.2170  219.9920 C   0  0  0  0  0  0  0  0  0  0  0  0
  141.8640   80.7060  221.2900 C   0  0  0  0  0  0  0  0  0  0  0  0
  141.7701   79.5302  224.4473 H   0  0  0  0  0  0  0  0  0  0  0  0
  142.0885   81.2177  223.9204 H   0  0  0  0  0  0  0  0  0  0  0  0
  140.4098   80.5783  223.9204 H   0  0  0  0  0  0  0  0  0  0  0  0
  141.4230   77.8110  222.9355 H   0  0  0  0  0  0  0  0  0  0  0  0
  141.7056   76.9489  220.6628 H   0  0  0  0  0  0  0  0  0  0  0  0
  141.3583   78.8188  217.7232 H   0  0  0  0  0  0  0  0  0  0  0  0
  143.1369   78.6940  217.9933 H   0  0  0  0  0  0  0  0  0  0  0  0
  141.2000   76.5470  217.8320 H   0  0  0  0  0  0  0  0  0  0  0  0
  141.9370   74.4022  218.0964 H   0  0  0  0  0  0  0  0  0  0  0  0
  143.6820   73.2285  217.2325 H   0  0  0  0  0  0  0  0  0  0  0  0
  144.6813   74.6561  217.5610 H   0  0  0  0  0  0  0  0  0  0  0  0
  144.6408   72.0563  218.9532 H   0  0  0  0  0  0  0  0  0  0  0  0
  146.2420   74.3390  219.3340 H   0  0  0  0  0  0  0  0  0  0  0  0
  144.1180   72.8332  221.1405 H   0  0  0  0  0  0  0  0  0  0  0  0
  144.6352   74.4803  220.8171 H   0  0  0  0  0  0  0  0  0  0  0  0
  139.7535   72.7472  220.2082 H   0  0  0  0  0  0  0  0  0  0  0  0
  141.2674   71.9895  219.5640 H   0  0  0  0  0  0  0  0  0  0  0  0
  141.2850   70.5890  221.4830 H   0  0  0  0  0  0  0  0  0  0  0  0
  139.0313   69.5046  222.7345 H   0  0  0  0  0  0  0  0  0  0  0  0
  138.9095   67.8781  224.6163 H   0  0  0  0  0  0  0  0  0  0  0  0
  139.4114   67.3641  226.8955 H   0  0  0  0  0  0  0  0  0  0  0  0
  141.4682   70.2064  229.3652 H   0  0  0  0  0  0  0  0  0  0  0  0
  141.5818   71.8185  227.4818 H   0  0  0  0  0  0  0  0  0  0  0  0
  142.1992   80.9205  219.1641 H   0  0  0  0  0  0  0  0  0  0  0  0
  141.9104   81.7906  221.4672 H   0  0  0  0  0  0  0  0  0  0  0  0
  1  2  1  0
  2  3  2  0
  3  4  1  0
  4  5  2  0
  5  6  1  0
  6  7  1  0
  7  8  1  0
  8  9  2  0
  8 10  1  0
 10 11  1  0
 11 12  1  0
 12 13  1  0
 12 14  1  0
 14 15  1  0
 15 16  1  0
 16 17  2  0
 16 18  1  0
 18 19  1  0
 19 20  1  0
 20 21  2  0
 20 22  1  0
 22 23  2  0
 23 24  1  0
 24 25  2  0
 25 26  1  0
 26 27  2  0
 27 28  1  0
 27 29  1  0
 29 30  2  0
 30 31  1  0
 31 32  2  0
  5 33  1  0
 33 34  2  0
 34  2  1  0
 15 10  1  0
 32 22  1  0
 31 25  1  0
  1 35  1  0
  1 36  1  0
  1 37  1  0
  3 38  1  0
  4 39  1  0
  6 40  1  0
  6 41  1  0
  7 42  1  0
 10 43  1  6
 11 44  1  0
 11 45  1  0
 12 46  1  6
 13 47  1  0
 14 48  1  0
 14 49  1  0
 18 50  1  0
 18 51  1  0
 19 52  1  0
 23 53  1  0
 24 54  1  0
 26 55  1  0
 29 56  1  0
 30 57  1  0
 33 58  1  0
 34 59  1  0
M  END
>  <smiles>  (34) 
Cc1ccc(CNC(=O)C2C[C@@H](O)CN2C(=O)CNC(=O)c2ccc3cc(F)ccc3n2)cc1

>  <score_type>  (34) 
oracle

>  <origin>  (34) 
autodockgpu

>  <m_score__min__energy>  (34) 
-9.4000000000000004

>  <m_primary>  (34) 
energy

>  <meeko>  (34) 
{"free_energy": -9.4, "intermolecular_energy": -11.79, "internal_energy": -1.45, "cluster_size": 7, "cluster_id": 1, "rank_in_cluster": 1}

>  <energy>  (34) 
-8.53

>  <cluster_rmsd>  (34) 
0.0

>  <rmsd>  (34) 
270.82

>  <cluster>  (34) 
4

$$$$

     RDKit          3D

 59 62  0  0  1  0  0  0  0  0999 V2000
  140.7230   70.3180  227.4540 C   0  0  0  0  0  0  0  0  0  0  0  0
  140.2220   70.6510  226.0970 C   0  0  0  0  0  0  0  0  0  0  0  0
  139.1070   70.0100  225.6390 C   0  0  0  0  0  0  0  0  0  0  0  0
  138.6090   70.2900  224.3830 C   0  0  0  0  0  0  0  0  0  0  0  0
  139.1780   71.2030  223.5260 C   0  0  0  0  0  0  0  0  0  0  0  0
  138.6810   71.5340  222.1890 C   0  0  0  0  0  0  0  0  0  0  0  0
  137.9220   72.7580  222.2230 N   0  0  0  0  0  0  0  0  0  0  0  0
  136.9550   73.1540  221.2910 C   0  0  0  0  0  0  0  0  0  0  0  0
  136.6540   72.4320  220.2880 O   0  0  0  0  0  0  0  0  0  0  0  0
  136.2030   74.4410  221.3910 C   0  0  1  0  0  0  0  0  0  0  0  0
  135.2400   74.4430  222.5340 C   0  0  0  0  0  0  0  0  0  0  0  0
  135.7880   75.4020  223.5420 C   0  0  1  0  0  0  0  0  0  0  0  0
  135.7930   74.8690  224.8350 O   0  0  0  0  0  0  0  0  0  0  0  0
  137.1880   75.6840  223.0550 C   0  0  0  0  0  0  0  0  0  0  0  0
  137.0840   75.5570  221.5980 N   0  0  0  0  0  0  0  0  0  0  0  0
  137.7400   76.3920  220.6430 C   0  0  0  0  0  0  0  0  0  0  0  0
  137.1700   76.6240  219.5690 O   0  0  0  0  0  0  0  0  0  0  0  0
  139.0760   76.9190  221.0300 C   0  0  0  0  0  0  0  0  0  0  0  0
  140.1420   76.0510  220.5690 N   0  0  0  0  0  0  0  0  0  0  0  0
  140.4160   74.8890  221.3650 C   0  0  0  0  0  0  0  0  0  0  0  0
  139.7330   74.7060  222.3810 O   0  0  0  0  0  0  0  0  0  0  0  0
  141.4760   73.9720  220.9610 C   0  0  0  0  0  0  0  0  0  0  0  0
  141.1360   72.6720  220.6450 C   0  0  0  0  0  0  0  0  0  0  0  0
  142.0850   71.7430  220.2540 C   0  0  0  0  0  0  0  0  0  0  0  0
  143.3980   72.1640  220.1870 C   0  0  0  0  0  0  0  0  0  0  0  0
  144.3780   71.2680  219.8000 C   0  0  0  0  0  0  0  0  0  0  0  0
  145.7170   71.6620  219.7220 C   0  0  0  0  0  0  0  0  0  0  0  0
  146.6550   70.7530  219.3370 F   0  0  0  0  0  0  0  0  0  0  0  0
  146.0320   72.9670  220.0420 C   0  0  0  0  0  0  0  0  0  0  0  0
  145.0740   73.8930  220.4350 C   0  0  0  0  0  0  0  0  0  0  0  0
  143.7480   73.4820  220.5060 C   0  0  0  0  0  0  0  0  0  0  0  0
  142.7740   74.3570  220.8860 N   0  0  0  0  0  0  0  0  0  0  0  0
  140.3190   71.8550  224.0000 C   0  0  0  0  0  0  0  0  0  0  0  0
  140.8280   71.5750  225.2700 C   0  0  0  0  0  0  0  0  0  0  0  0
  140.0572   70.7606  228.2095 H   0  0  0  0  0  0  0  0  0  0  0  0
  140.7444   69.2253  227.5790 H   0  0  0  0  0  0  0  0  0  0  0  0
  141.7387   70.7213  227.5790 H   0  0  0  0  0  0  0  0  0  0  0  0
  138.6032   69.2667  226.2744 H   0  0  0  0  0  0  0  0  0  0  0  0
  137.7083   69.7541  224.0491 H   0  0  0  0  0  0  0  0  0  0  0  0
  139.5341   71.6556  221.5053 H   0  0  0  0  0  0  0  0  0  0  0  0
  138.0289   70.7199  221.8396 H   0  0  0  0  0  0  0  0  0  0  0  0
  138.1210   73.4090  223.0250 H   0  0  0  0  0  0  0  0  0  0  0  0
  135.6669   74.5357  220.4352 H   0  0  0  0  0  0  0  0  0  0  0  0
  134.2469   74.7728  222.1949 H   0  0  0  0  0  0  0  0  0  0  0  0
  135.1243   73.4361  222.9614 H   0  0  0  0  0  0  0  0  0  0  0  0
  135.1734   76.3109  223.6207 H   0  0  0  0  0  0  0  0  0  0  0  0
  136.4500   74.1110  224.8270 H   0  0  0  0  0  0  0  0  0  0  0  0
  137.5044   76.6987  223.3383 H   0  0  0  0  0  0  0  0  0  0  0  0
  137.9346   75.0027  223.4891 H   0  0  0  0  0  0  0  0  0  0  0  0
  139.2095   77.9164  220.5857 H   0  0  0  0  0  0  0  0  0  0  0  0
  139.1226   76.9707  222.1278 H   0  0  0  0  0  0  0  0  0  0  0  0
  140.7000   76.2420  219.6980 H   0  0  0  0  0  0  0  0  0  0  0  0
  140.0813   72.3656  220.7056 H   0  0  0  0  0  0  0  0  0  0  0  0
  141.8036   70.7089  220.0062 H   0  0  0  0  0  0  0  0  0  0  0  0
  144.1005   70.2332  219.5507 H   0  0  0  0  0  0  0  0  0  0  0  0
  147.0830   73.2864  219.9836 H   0  0  0  0  0  0  0  0  0  0  0  0
  145.3578   74.9262  220.6839 H   0  0  0  0  0  0  0  0  0  0  0  0
  140.8229   72.5984  223.3648 H   0  0  0  0  0  0  0  0  0  0  0  0
  141.7293   72.1010  225.6179 H   0  0  0  0  0  0  0  0  0  0  0  0
  1  2  1  0
  2  3  2  0
  3  4  1  0
  4  5  2  0
  5  6  1  0
  6  7  1  0
  7  8  1  0
  8  9  2  0
  8 10  1  0
 10 11  1  0
 11 12  1  0
 12 13  1  0
 12 14  1  0
 14 15  1  0
 15 16  1  0
 16 17  2  0
 16 18  1  0
 18 19  1  0
 19 20  1  0
 20 21  2  0
 20 22  1  0
 22 23  2  0
 23 24  1  0
 24 25  2  0
 25 26  1  0
 26 27  2  0
 27 28  1  0
 27 29  1  0
 29 30  2  0
 30 31  1  0
 31 32  2  0
  5 33  1  0
 33 34  2  0
 34  2  1  0
 15 10  1  0
 32 22  1  0
 31 25  1  0
  1 35  1  0
  1 36  1  0
  1 37  1  0
  3 38  1  0
  4 39  1  0
  6 40  1  0
  6 41  1  0
  7 42  1  0
 10 43  1  6
 11 44  1  0
 11 45  1  0
 12 46  1  1
 13 47  1  0
 14 48  1  0
 14 49  1  0
 18 50  1  0
 18 51  1  0
 19 52  1  0
 23 53  1  0
 24 54  1  0
 26 55  1  0
 29 56  1  0
 30 57  1  0
 33 58  1  0
 34 59  1  0
M  END
>  <smiles>  (35) 
Cc1ccc(CNC(=O)C2C[C@@H](O)CN2C(=O)CNC(=O)c2ccc3cc(F)ccc3n2)cc1

>  <score_type>  (35) 
oracle

>  <origin>  (35) 
autodockgpu

>  <m_score__min__energy>  (35) 
-9.4000000000000004

>  <m_primary>  (35) 
energy

>  <meeko>  (35) 
{"free_energy": -6.95, "intermolecular_energy": -9.34, "internal_energy": -3.08, "cluster_size": 1, "cluster_id": 7, "rank_in_cluster": 1}

>  <energy>  (35) 
-8.3

>  <cluster_rmsd>  (35) 
0.0

>  <rmsd>  (35) 
270.79

>  <cluster>  (35) 
5

$$$$

     RDKit          3D

 59 62  0  0  1  0  0  0  0  0999 V2000
  142.1830   81.6280  224.2570 C   0  0  0  0  0  0  0  0  0  0  0  0
  142.0740   80.8990  222.9680 C   0  0  0  0  0  0  0  0  0  0  0  0
  141.7970   81.6140  221.8380 C   0  0  0  0  0  0  0  0  0  0  0  0
  141.6870   80.9750  220.6200 C   0  0  0  0  0  0  0  0  0  0  0  0
  141.8420   79.6180  220.4560 C   0  0  0  0  0  0  0  0  0  0  0  0
  141.7380   78.9010  219.1840 C   0  0  0  0  0  0  0  0  0  0  0  0
  141.5520   77.4920  219.4140 N   0  0  0  0  0  0  0  0  0  0  0  0
  142.1290   76.4530  218.6740 C   0  0  0  0  0  0  0  0  0  0  0  0
  142.9010   76.6780  217.6880 O   0  0  0  0  0  0  0  0  0  0  0  0
  141.8910   75.0070  218.9720 C   0  0  1  0  0  0  0  0  0  0  0  0
  142.9970   74.1400  218.4640 C   0  0  0  0  0  0  0  0  0  0  0  0
  143.7190   73.6320  219.6700 C   0  0  1  0  0  0  0  0  0  0  0  0
  145.1070   73.7690  219.5570 O   0  0  0  0  0  0  0  0  0  0  0  0
  143.1720   74.4650  220.8020 C   0  0  0  0  0  0  0  0  0  0  0  0
  141.7980   74.7630  220.3840 N   0  0  0  0  0  0  0  0  0  0  0  0
  140.6570   74.7910  221.2430 C   0  0  0  0  0  0  0  0  0  0  0  0
  140.4790   75.7860  221.9580 O   0  0  0  0  0  0  0  0  0  0  0  0
  139.7680   73.6000  221.2030 C   0  0  0  0  0  0  0  0  0  0  0  0
  139.7510   72.9070  222.4760 N   0  0  0  0  0  0  0  0  0  0  0  0
  139.9670   71.4890  222.4400 C   0  0  0  0  0  0  0  0  0  0  0  0
  140.1500   70.9560  221.3370 O   0  0  0  0  0  0  0  0  0  0  0  0
  139.9630   70.7270  223.6830 C   0  0  0  0  0  0  0  0  0  0  0  0
  139.3800   69.4750  223.6860 C   0  0  0  0  0  0  0  0  0  0  0  0
  139.3370   68.6920  224.8270 C   0  0  0  0  0  0  0  0  0  0  0  0
  139.9030   69.2080  225.9750 C   0  0  0  0  0  0  0  0  0  0  0  0
  139.8830   68.4580  227.1370 C   0  0  0  0  0  0  0  0  0  0  0  0
  140.4480   68.9510  228.3170 C   0  0  0  0  0  0  0  0  0  0  0  0
  140.4080   68.1850  229.4420 F   0  0  0  0  0  0  0  0  0  0  0  0
  141.0250   70.2050  228.2890 C   0  0  0  0  0  0  0  0  0  0  0  0
  141.0630   70.9850  227.1400 C   0  0  0  0  0  0  0  0  0  0  0  0
  140.4970   70.4770  225.9770 C   0  0  0  0  0  0  0  0  0  0  0  0
  140.5120   71.2070  224.8270 N   0  0  0  0  0  0  0  0  0  0  0  0
  142.1240   78.8930  221.6170 C   0  0  0  0  0  0  0  0  0  0  0  0
  142.2360   79.5340  222.8520 C   0  0  0  0  0  0  0  0  0  0  0  0
  142.0768   80.9176  225.0901 H   0  0  0  0  0  0  0  0  0  0  0  0
  143.1647   82.1204  224.3179 H   0  0  0  0  0  0  0  0  0  0  0  0
  141.3882   82.3860  224.3179 H   0  0  0  0  0  0  0  0  0  0  0  0
  141.6610   82.7039  221.8990 H   0  0  0  0  0  0  0  0  0  0  0  0
  141.4631   81.5839  219.7317 H   0  0  0  0  0  0  0  0  0  0  0  0
  140.8801   79.2917  218.6171 H   0  0  0  0  0  0  0  0  0  0  0  0
  142.6675   79.0492  218.6147 H   0  0  0  0  0  0  0  0  0  0  0  0
  140.9200   77.2280  220.2140 H   0  0  0  0  0  0  0  0  0  0  0  0
  140.9445   74.7611  218.4683 H   0  0  0  0  0  0  0  0  0  0  0  0
  142.5869   73.3003  217.8837 H   0  0  0  0  0  0  0  0  0  0  0  0
  143.6719   74.7005  217.8004 H   0  0  0  0  0  0  0  0  0  0  0  0
  143.5599   72.5539  219.8193 H   0  0  0  0  0  0  0  0  0  0  0  0
  145.2650   74.4850  218.8730 H   0  0  0  0  0  0  0  0  0  0  0  0
  143.1808   73.8988  221.7451 H   0  0  0  0  0  0  0  0  0  0  0  0
  143.7661   75.3716  220.9891 H   0  0  0  0  0  0  0  0  0  0  0  0
  138.7458   73.9250  220.9592 H   0  0  0  0  0  0  0  0  0  0  0  0
  140.1517   72.9084  220.4385 H   0  0  0  0  0  0  0  0  0  0  0  0
  139.5920   73.3970  223.3930 H   0  0  0  0  0  0  0  0  0  0  0  0
  138.9374   69.0891  222.7558 H   0  0  0  0  0  0  0  0  0  0  0  0
  138.8694   67.6964  224.8188 H   0  0  0  0  0  0  0  0  0  0  0  0
  139.4169   67.4616  227.1326 H   0  0  0  0  0  0  0  0  0  0  0  0
  141.4720   70.6019  229.2124 H   0  0  0  0  0  0  0  0  0  0  0  0
  141.5300   71.9809  227.1506 H   0  0  0  0  0  0  0  0  0  0  0  0
  142.2595   77.8030  221.5569 H   0  0  0  0  0  0  0  0  0  0  0  0
  142.4578   78.9390  223.7502 H   0  0  0  0  0  0  0  0  0  0  0  0
  1  2  1  0
  2  3  2  0
  3  4  1  0
  4  5  2  0
  5  6  1  0
  6  7  1  0
  7  8  1  0
  8  9  2  0
  8 10  1  0
 10 11  1  0
 11 12  1  0
 12 13  1  0
 12 14  1  0
 14 15  1  0
 15 16  1  0
 16 17  2  0
 16 18  1  0
 18 19  1  0
 19 20  1  0
 20 21  2  0
 20 22  1  0
 22 23  2  0
 23 24  1  0
 24 25  2  0
 25 26  1  0
 26 27  2  0
 27 28  1  0
 27 29  1  0
 29 30  2  0
 30 31  1  0
 31 32  2  0
  5 33  1  0
 33 34  2  0
 34  2  1  0
 15 10  1  0
 32 22  1  0
 31 25  1  0
  1 35  1  0
  1 36  1  0
  1 37  1  0
  3 38  1  0
  4 39  1  0
  6 40  1  0
  6 41  1  0
  7 42  1  0
 10 43  1  6
 11 44  1  0
 11 45  1  0
 12 46  1  1
 13 47  1  0
 14 48  1  0
 14 49  1  0
 18 50  1  0
 18 51  1  0
 19 52  1  0
 23 53  1  0
 24 54  1  0
 26 55  1  0
 29 56  1  0
 30 57  1  0
 33 58  1  0
 34 59  1  0
M  END
>  <smiles>  (36) 
Cc1ccc(CNC(=O)C2C[C@@H](O)CN2C(=O)CNC(=O)c2ccc3cc(F)ccc3n2)cc1

>  <score_type>  (36) 
oracle

>  <origin>  (36) 
autodockgpu

>  <m_score__min__energy>  (36) 
-9.4000000000000004

>  <m_primary>  (36) 
energy

>  <meeko>  (36) 
{"free_energy": -8.84, "intermolecular_energy": -11.23, "internal_energy": -2.29, "cluster_size": 7, "cluster_id": 1, "rank_in_cluster": 5}

>  <energy>  (36) 
-8.03

>  <cluster_rmsd>  (36) 
1.16

>  <rmsd>  (36) 
270.96

>  <cluster>  (36) 
5

$$$$

     RDKit          3D

 59 62  0  0  1  0  0  0  0  0999 V2000
  141.0290   80.9140  223.4650 C   0  0  0  0  0  0  0  0  0  0  0  0
  141.4060   80.1580  222.2440 C   0  0  0  0  0  0  0  0  0  0  0  0
  141.7140   80.8600  221.1140 C   0  0  0  0  0  0  0  0  0  0  0  0
  142.0700   80.1960  219.9580 C   0  0  0  0  0  0  0  0  0  0  0  0
  142.1390   78.8250  219.8580 C   0  0  0  0  0  0  0  0  0  0  0  0
  142.5160   78.0820  218.6540 C   0  0  0  0  0  0  0  0  0  0  0  0
  142.4820   76.6650  218.9080 N   0  0  0  0  0  0  0  0  0  0  0  0
  143.1220   75.6770  218.1500 C   0  0  0  0  0  0  0  0  0  0  0  0
  143.8170   75.9630  217.1240 O   0  0  0  0  0  0  0  0  0  0  0  0
  143.0440   74.2190  218.4730 C   0  0  1  0  0  0  0  0  0  0  0  0
  144.2830   73.4880  218.0690 C   0  0  0  0  0  0  0  0  0  0  0  0
  144.9730   73.1000  219.3380 C   0  0  1  0  0  0  0  0  0  0  0  0
  146.3370   73.4080  219.3180 O   0  0  0  0  0  0  0  0  0  0  0  0
  144.2450   73.8810  220.4030 C   0  0  0  0  0  0  0  0  0  0  0  0
  142.8800   73.9960  219.8830 N   0  0  0  0  0  0  0  0  0  0  0  0
  141.6850   73.8970  220.6590 C   0  0  0  0  0  0  0  0  0  0  0  0
  141.4570   74.7710  221.5070 O   0  0  0  0  0  0  0  0  0  0  0  0
  140.8040   72.7340  220.3750 C   0  0  0  0  0  0  0  0  0  0  0  0
  140.7940   71.7940  221.4790 N   0  0  0  0  0  0  0  0  0  0  0  0
  140.1340   72.2170  222.6800 C   0  0  0  0  0  0  0  0  0  0  0  0
  139.6230   73.3450  222.6960 O   0  0  0  0  0  0  0  0  0  0  0  0
  140.0870   71.3220  223.8310 C   0  0  0  0  0  0  0  0  0  0  0  0
  139.5130   70.0760  223.6720 C   0  0  0  0  0  0  0  0  0  0  0  0
  139.4310   69.1710  224.7170 C   0  0  0  0  0  0  0  0  0  0  0  0
  139.9480   69.5600  225.9370 C   0  0  0  0  0  0  0  0  0  0  0  0
  139.8870   68.6850  227.0070 C   0  0  0  0  0  0  0  0  0  0  0  0
  140.4010   69.0470  228.2560 C   0  0  0  0  0  0  0  0  0  0  0  0
  140.3230   68.1610  229.2880 F   0  0  0  0  0  0  0  0  0  0  0  0
  140.9690   70.2970  228.3900 C   0  0  0  0  0  0  0  0  0  0  0  0
  141.0470   71.2000  227.3370 C   0  0  0  0  0  0  0  0  0  0  0  0
  140.5310   70.8220  226.1030 C   0  0  0  0  0  0  0  0  0  0  0  0
  140.5860   71.6750  225.0410 N   0  0  0  0  0  0  0  0  0  0  0  0
  141.8220   78.1140  221.0180 C   0  0  0  0  0  0  0  0  0  0  0  0
  141.4610   78.7810  222.1910 C   0  0  0  0  0  0  0  0  0  0  0  0
  141.3165   80.3375  224.3566 H   0  0  0  0  0  0  0  0  0  0  0  0
  141.5494   81.8831  223.4715 H   0  0  0  0  0  0  0  0  0  0  0  0
  139.9419   81.0815  223.4715 H   0  0  0  0  0  0  0  0  0  0  0  0
  141.6782   81.9594  221.1253 H   0  0  0  0  0  0  0  0  0  0  0  0
  142.3119   80.7951  219.0677 H   0  0  0  0  0  0  0  0  0  0  0  0
  141.8113   78.3222  217.8442 H   0  0  0  0  0  0  0  0  0  0  0  0
  143.5375   78.3682  218.3630 H   0  0  0  0  0  0  0  0  0  0  0  0
  141.9210   76.3520  219.7420 H   0  0  0  0  0  0  0  0  0  0  0  0
  142.1749   73.8445  217.9124 H   0  0  0  0  0  0  0  0  0  0  0  0
  144.0237   72.5915  217.4868 H   0  0  0  0  0  0  0  0  0  0  0  0
  144.9296   74.1150  217.4375 H   0  0  0  0  0  0  0  0  0  0  0  0
  144.9390   72.0138  219.5084 H   0  0  0  0  0  0  0  0  0  0  0  0
  146.4030   74.4060  219.3950 H   0  0  0  0  0  0  0  0  0  0  0  0
  144.2549   73.3401  221.3608 H   0  0  0  0  0  0  0  0  0  0  0  0
  144.7071   74.8590  220.6030 H   0  0  0  0  0  0  0  0  0  0  0  0
  139.7792   73.0951  220.2035 H   0  0  0  0  0  0  0  0  0  0  0  0
  141.1906   72.2169  219.4844 H   0  0  0  0  0  0  0  0  0  0  0  0
  141.2410   70.8430  221.4250 H   0  0  0  0  0  0  0  0  0  0  0  0
  139.1098   69.7946  222.6880 H   0  0  0  0  0  0  0  0  0  0  0  0
  138.9719   68.1807  224.5806 H   0  0  0  0  0  0  0  0  0  0  0  0
  139.4291   67.6937  226.8737 H   0  0  0  0  0  0  0  0  0  0  0  0
  141.3761   70.5903  229.3689 H   0  0  0  0  0  0  0  0  0  0  0  0
  141.5059   72.1899  227.4765 H   0  0  0  0  0  0  0  0  0  0  0  0
  141.8571   77.0146  221.0075 H   0  0  0  0  0  0  0  0  0  0  0  0
  141.2158   78.1965  223.0900 H   0  0  0  0  0  0  0  0  0  0  0  0
  1  2  1  0
  2  3  2  0
  3  4  1  0
  4  5  2  0
  5  6  1  0
  6  7  1  0
  7  8  1  0
  8  9  2  0
  8 10  1  0
 10 11  1  0
 11 12  1  0
 12 13  1  0
 12 14  1  0
 14 15  1  0
 15 16  1  0
 16 17  2  0
 16 18  1  0
 18 19  1  0
 19 20  1  0
 20 21  2  0
 20 22  1  0
 22 23  2  0
 23 24  1  0
 24 25  2  0
 25 26  1  0
 26 27  2  0
 27 28  1  0
 27 29  1  0
 29 30  2  0
 30 31  1  0
 31 32  2  0
  5 33  1  0
 33 34  2  0
 34  2  1  0
 15 10  1  0
 32 22  1  0
 31 25  1  0
  1 35  1  0
  1 36  1  0
  1 37  1  0
  3 38  1  0
  4 39  1  0
  6 40  1  0
  6 41  1  0
  7 42  1  0
 10 43  1  6
 11 44  1  0
 11 45  1  0
 12 46  1  1
 13 47  1  0
 14 48  1  0
 14 49  1  0
 18 50  1  0
 18 51  1  0
 19 52  1  0
 23 53  1  0
 24 54  1  0
 26 55  1  0
 29 56  1  0
 30 57  1  0
 33 58  1  0
 34 59  1  0
M  END
>  <smiles>  (37) 
Cc1ccc(CNC(=O)C2C[C@@H](O)CN2C(=O)CNC(=O)c2ccc3cc(F)ccc3n2)cc1

>  <score_type>  (37) 
oracle

>  <origin>  (37) 
autodockgpu

>  <m_score__min__energy>  (37) 
-9.4000000000000004

>  <m_primary>  (37) 
energy

>  <meeko>  (37) 
{"free_energy": -9.37, "intermolecular_energy": -11.76, "internal_energy": -1.83, "cluster_size": 7, "cluster_id": 1, "rank_in_cluster": 2}

>  <energy>  (37) 
-7.57

>  <cluster_rmsd>  (37) 
1.23

>  <rmsd>  (37) 
270.71

>  <cluster>  (37) 
5

$$$$

     RDKit          3D

 59 62  0  0  1  0  0  0  0  0999 V2000
  141.3030   83.0950  221.5710 C   0  0  0  0  0  0  0  0  0  0  0  0
  141.2570   81.6500  221.9070 C   0  0  0  0  0  0  0  0  0  0  0  0
  141.5420   81.2690  223.1870 C   0  0  0  0  0  0  0  0  0  0  0  0
  141.5100   79.9360  223.5410 C   0  0  0  0  0  0  0  0  0  0  0  0
  141.2000   78.9240  222.6620 C   0  0  0  0  0  0  0  0  0  0  0  0
  141.1500   77.4990  222.9950 C   0  0  0  0  0  0  0  0  0  0  0  0
  141.4550   76.7000  221.8370 N   0  0  0  0  0  0  0  0  0  0  0  0
  140.8600   75.4790  221.4970 C   0  0  0  0  0  0  0  0  0  0  0  0
  139.9590   74.9470  222.2220 O   0  0  0  0  0  0  0  0  0  0  0  0
  141.2260   74.7030  220.2740 C   0  0  1  0  0  0  0  0  0  0  0  0
  142.7060   74.5890  220.1010 C   0  0  0  0  0  0  0  0  0  0  0  0
  143.0490   73.1570  220.3590 C   0  0  1  0  0  0  0  0  0  0  0  0
  144.1350   73.0190  221.2300 O   0  0  0  0  0  0  0  0  0  0  0  0
  141.7880   72.5800  220.9520 C   0  0  0  0  0  0  0  0  0  0  0  0
  140.7170   73.3600  220.3250 N   0  0  0  0  0  0  0  0  0  0  0  0
  139.4620   72.8410  219.8820 C   0  0  0  0  0  0  0  0  0  0  0  0
  139.3810   72.3930  218.7300 O   0  0  0  0  0  0  0  0  0  0  0  0
  138.3440   72.8850  220.8600 C   0  0  0  0  0  0  0  0  0  0  0  0
  138.8010   72.5840  222.2030 N   0  0  0  0  0  0  0  0  0  0  0  0
  139.2040   71.2320  222.4580 C   0  0  0  0  0  0  0  0  0  0  0  0
  139.1350   70.4190  221.5260 O   0  0  0  0  0  0  0  0  0  0  0  0
  139.6760   70.8580  223.7870 C   0  0  0  0  0  0  0  0  0  0  0  0
  140.3650   71.7960  224.5280 C   0  0  0  0  0  0  0  0  0  0  0  0
  140.8440   71.5160  225.7970 C   0  0  0  0  0  0  0  0  0  0  0  0
  140.6050   70.2540  226.3030 C   0  0  0  0  0  0  0  0  0  0  0  0
  141.0650   69.9330  227.5670 C   0  0  0  0  0  0  0  0  0  0  0  0
  140.8410   68.6630  228.1090 C   0  0  0  0  0  0  0  0  0  0  0  0
  141.3090   68.3820  229.3570 F   0  0  0  0  0  0  0  0  0  0  0  0
  140.1490   67.7430  227.3490 C   0  0  0  0  0  0  0  0  0  0  0  0
  139.6720   68.0310  226.0760 C   0  0  0  0  0  0  0  0  0  0  0  0
  139.9050   69.2980  225.5550 C   0  0  0  0  0  0  0  0  0  0  0  0
  139.4560   69.6260  224.3100 N   0  0  0  0  0  0  0  0  0  0  0  0
  140.9110   79.3200  221.3540 C   0  0  0  0  0  0  0  0  0  0  0  0
  140.9420   80.6680  220.9900 C   0  0  0  0  0  0  0  0  0  0  0  0
  141.3218   83.6866  222.4982 H   0  0  0  0  0  0  0  0  0  0  0  0
  142.2083   83.3061  220.9829 H   0  0  0  0  0  0  0  0  0  0  0  0
  140.4129   83.3632  220.9829 H   0  0  0  0  0  0  0  0  0  0  0  0
  141.7985   82.0290  223.9398 H   0  0  0  0  0  0  0  0  0  0  0  0
  141.7449   79.6679  224.5817 H   0  0  0  0  0  0  0  0  0  0  0  0
  141.8845   77.2859  223.7856 H   0  0  0  0  0  0  0  0  0  0  0  0
  140.1364   77.2500  223.3423 H   0  0  0  0  0  0  0  0  0  0  0  0
  142.1960   77.0760  221.1910 H   0  0  0  0  0  0  0  0  0  0  0  0
  140.7821   75.2606  219.4361 H   0  0  0  0  0  0  0  0  0  0  0  0
  142.9927   74.8709  219.0771 H   0  0  0  0  0  0  0  0  0  0  0  0
  143.2420   75.2590  220.7893 H   0  0  0  0  0  0  0  0  0  0  0  0
  143.3637   72.6383  219.4415 H   0  0  0  0  0  0  0  0  0  0  0  0
  144.3720   72.0440  221.2340 H   0  0  0  0  0  0  0  0  0  0  0  0
  141.6916   71.5125  220.7045 H   0  0  0  0  0  0  0  0  0  0  0  0
  141.7693   72.6385  222.0503 H   0  0  0  0  0  0  0  0  0  0  0  0
  137.9001   73.8914  220.8506 H   0  0  0  0  0  0  0  0  0  0  0  0
  137.6015   72.1270  220.5699 H   0  0  0  0  0  0  0  0  0  0  0  0
  138.8450   73.3050  222.9680 H   0  0  0  0  0  0  0  0  0  0  0  0
  140.5387   72.7939  224.0990 H   0  0  0  0  0  0  0  0  0  0  0  0
  141.3937   72.2702  226.3793 H   0  0  0  0  0  0  0  0  0  0  0  0
  141.6135   70.6851  228.1531 H   0  0  0  0  0  0  0  0  0  0  0  0
  139.9676   66.7419  227.7672 H   0  0  0  0  0  0  0  0  0  0  0  0
  139.1236   67.2748  225.4951 H   0  0  0  0  0  0  0  0  0  0  0  0
  140.6556   78.5601  220.6007 H   0  0  0  0  0  0  0  0  0  0  0  0
  140.7110   80.9523  219.9528 H   0  0  0  0  0  0  0  0  0  0  0  0
  1  2  1  0
  2  3  2  0
  3  4  1  0
  4  5  2  0
  5  6  1  0
  6  7  1  0
  7  8  1  0
  8  9  2  0
  8 10  1  0
 10 11  1  0
 11 12  1  0
 12 13  1  0
 12 14  1  0
 14 15  1  0
 15 16  1  0
 16 17  2  0
 16 18  1  0
 18 19  1  0
 19 20  1  0
 20 21  2  0
 20 22  1  0
 22 23  2  0
 23 24  1  0
 24 25  2  0
 25 26  1  0
 26 27  2  0
 27 28  1  0
 27 29  1  0
 29 30  2  0
 30 31  1  0
 31 32  2  0
  5 33  1  0
 33 34  2  0
 34  2  1  0
 15 10  1  0
 32 22  1  0
 31 25  1  0
  1 35  1  0
  1 36  1  0
  1 37  1  0
  3 38  1  0
  4 39  1  0
  6 40  1  0
  6 41  1  0
  7 42  1  0
 10 43  1  6
 11 44  1  0
 11 45  1  0
 12 46  1  6
 13 47  1  0
 14 48  1  0
 14 49  1  0
 18 50  1  0
 18 51  1  0
 19 52  1  0
 23 53  1  0
 24 54  1  0
 26 55  1  0
 29 56  1  0
 30 57  1  0
 33 58  1  0
 34 59  1  0
M  END
>  <smiles>  (38) 
Cc1ccc(CNC(=O)C2C[C@@H](O)CN2C(=O)CNC(=O)c2ccc3cc(F)ccc3n2)cc1

>  <score_type>  (38) 
oracle

>  <origin>  (38) 
autodockgpu

>  <m_score__min__energy>  (38) 
-9.4000000000000004

>  <m_primary>  (38) 
energy

>  <meeko>  (38) 
{"free_energy": -8.74, "intermolecular_energy": -11.12, "internal_energy": -2.29, "cluster_size": 5, "cluster_id": 2, "rank_in_cluster": 1}

>  <energy>  (38) 
-8.12

>  <cluster_rmsd>  (38) 
0.0

>  <rmsd>  (38) 
270.38

>  <cluster>  (38) 
6

$$$$

     RDKit          3D

 59 62  0  0  1  0  0  0  0  0999 V2000
  138.7480   84.0380  221.5340 C   0  0  0  0  0  0  0  0  0  0  0  0
  139.6630   82.8880  221.7470 C   0  0  0  0  0  0  0  0  0  0  0  0
  140.9430   82.9800  221.2810 C   0  0  0  0  0  0  0  0  0  0  0  0
  141.8250   81.9330  221.4580 C   0  0  0  0  0  0  0  0  0  0  0  0
  141.4940   80.7590  222.0930 C   0  0  0  0  0  0  0  0  0  0  0  0
  142.3980   79.6270  222.3060 C   0  0  0  0  0  0  0  0  0  0  0  0
  141.9230   78.4640  221.6020 N   0  0  0  0  0  0  0  0  0  0  0  0
  141.5900   78.4020  220.2440 C   0  0  0  0  0  0  0  0  0  0  0  0
  141.6810   79.4190  219.4830 O   0  0  0  0  0  0  0  0  0  0  0  0
  141.1040   77.1560  219.5760 C   0  0  1  0  0  0  0  0  0  0  0  0
  141.7530   76.9400  218.2480 C   0  0  0  0  0  0  0  0  0  0  0  0
  142.6570   75.7600  218.4110 C   0  0  1  0  0  0  0  0  0  0  0  0
  143.9340   75.9910  217.8890 O   0  0  0  0  0  0  0  0  0  0  0  0
  142.7010   75.5360  219.9020 C   0  0  0  0  0  0  0  0  0  0  0  0
  141.3840   75.9880  220.3630 N   0  0  0  0  0  0  0  0  0  0  0  0
  140.6000   75.3600  221.3780 C   0  0  0  0  0  0  0  0  0  0  0  0
  140.3340   76.0030  222.4020 O   0  0  0  0  0  0  0  0  0  0  0  0
  140.1650   73.9630  221.1110 C   0  0  0  0  0  0  0  0  0  0  0  0
  139.9310   73.2360  222.3430 N   0  0  0  0  0  0  0  0  0  0  0  0
  140.4870   71.9170  222.4280 C   0  0  0  0  0  0  0  0  0  0  0  0
  141.1230   71.4900  221.4550 O   0  0  0  0  0  0  0  0  0  0  0  0
  140.2900   71.1270  223.6390 C   0  0  0  0  0  0  0  0  0  0  0  0
  139.5920   69.9400  223.5430 C   0  0  0  0  0  0  0  0  0  0  0  0
  139.3640   69.1360  224.6480 C   0  0  0  0  0  0  0  0  0  0  0  0
  139.8650   69.5640  225.8600 C   0  0  0  0  0  0  0  0  0  0  0  0
  139.6610   68.7890  226.9880 C   0  0  0  0  0  0  0  0  0  0  0  0
  140.1540   69.1940  228.2330 C   0  0  0  0  0  0  0  0  0  0  0  0
  139.9330   68.4060  229.3220 F   0  0  0  0  0  0  0  0  0  0  0  0
  140.8500   70.3840  228.3020 C   0  0  0  0  0  0  0  0  0  0  0  0
  141.0740   71.1850  227.1900 C   0  0  0  0  0  0  0  0  0  0  0  0
  140.5750   70.7670  225.9620 C   0  0  0  0  0  0  0  0  0  0  0  0
  140.7710   71.5210  224.8440 N   0  0  0  0  0  0  0  0  0  0  0  0
  140.1830   80.6710  222.5660 C   0  0  0  0  0  0  0  0  0  0  0  0
  139.2860   81.7270  222.3900 C   0  0  0  0  0  0  0  0  0  0  0  0
  138.4295   84.4384  222.5078 H   0  0  0  0  0  0  0  0  0  0  0  0
  139.2712   84.8230  220.9682 H   0  0  0  0  0  0  0  0  0  0  0  0
  137.8656   83.7046  220.9682 H   0  0  0  0  0  0  0  0  0  0  0  0
  141.2728   83.8923  220.7624 H   0  0  0  0  0  0  0  0  0  0  0  0
  142.8483   82.0438  221.0700 H   0  0  0  0  0  0  0  0  0  0  0  0
  143.4004   79.8895  221.9368 H   0  0  0  0  0  0  0  0  0  0  0  0
  142.4379   79.4006  223.3817 H   0  0  0  0  0  0  0  0  0  0  0  0
  141.8200   77.5830  222.1690 H   0  0  0  0  0  0  0  0  0  0  0  0
  140.0198   77.2974  219.4557 H   0  0  0  0  0  0  0  0  0  0  0  0
  140.9920   76.7340  217.4809 H   0  0  0  0  0  0  0  0  0  0  0  0
  142.3119   77.8310  217.9259 H   0  0  0  0  0  0  0  0  0  0  0  0
  142.2892   74.8822  217.8594 H   0  0  0  0  0  0  0  0  0  0  0  0
  144.5210   75.2590  218.2440 H   0  0  0  0  0  0  0  0  0  0  0  0
  142.8533   74.4716  220.1340 H   0  0  0  0  0  0  0  0  0  0  0  0
  143.5290   76.0725  220.3884 H   0  0  0  0  0  0  0  0  0  0  0  0
  139.2338   73.9840  220.5258 H   0  0  0  0  0  0  0  0  0  0  0  0
  140.9649   73.4522  220.5549 H   0  0  0  0  0  0  0  0  0  0  0  0
  139.3840   73.6350  223.1490 H   0  0  0  0  0  0  0  0  0  0  0  0
  139.2063   69.6239  222.5625 H   0  0  0  0  0  0  0  0  0  0  0  0
  138.8049   68.1926  224.5622 H   0  0  0  0  0  0  0  0  0  0  0  0
  139.1048   67.8436  226.9048 H   0  0  0  0  0  0  0  0  0  0  0  0
  141.2427   70.7107  229.2762 H   0  0  0  0  0  0  0  0  0  0  0  0
  141.6332   72.1281  227.2789 H   0  0  0  0  0  0  0  0  0  0  0  0
  139.8526   79.7584  223.0837 H   0  0  0  0  0  0  0  0  0  0  0  0
  138.2588   81.6311  222.7716 H   0  0  0  0  0  0  0  0  0  0  0  0
  1  2  1  0
  2  3  2  0
  3  4  1  0
  4  5  2  0
  5  6  1  0
  6  7  1  0
  7  8  1  0
  8  9  2  0
  8 10  1  0
 10 11  1  0
 11 12  1  0
 12 13  1  0
 12 14  1  0
 14 15  1  0
 15 16  1  0
 16 17  2  0
 16 18  1  0
 18 19  1  0
 19 20  1  0
 20 21  2  0
 20 22  1  0
 22 23  2  0
 23 24  1  0
 24 25  2  0
 25 26  1  0
 26 27  2  0
 27 28  1  0
 27 29  1  0
 29 30  2  0
 30 31  1  0
 31 32  2  0
  5 33  1  0
 33 34  2  0
 34  2  1  0
 15 10  1  0
 32 22  1  0
 31 25  1  0
  1 35  1  0
  1 36  1  0
  1 37  1  0
  3 38  1  0
  4 39  1  0
  6 40  1  0
  6 41  1  0
  7 42  1  0
 10 43  1  6
 11 44  1  0
 11 45  1  0
 12 46  1  6
 13 47  1  0
 14 48  1  0
 14 49  1  0
 18 50  1  0
 18 51  1  0
 19 52  1  0
 23 53  1  0
 24 54  1  0
 26 55  1  0
 29 56  1  0
 30 57  1  0
 33 58  1  0
 34 59  1  0
M  END
>  <smiles>  (39) 
Cc1ccc(CNC(=O)C2C[C@@H](O)CN2C(=O)CNC(=O)c2ccc3cc(F)ccc3n2)cc1

>  <score_type>  (39) 
oracle

>  <origin>  (39) 
autodockgpu

>  <m_score__min__energy>  (39) 
-9.4000000000000004

>  <m_primary>  (39) 
energy

>  <meeko>  (39) 
{"free_energy": -8.65, "intermolecular_energy": -11.03, "internal_energy": -2.34, "cluster_size": 1, "cluster_id": 3, "rank_in_cluster": 1}

>  <energy>  (39) 
-6.95

>  <cluster_rmsd>  (39) 
0.0

>  <rmsd>  (39) 
269.95

>  <cluster>  (39) 
7

$$$$

     RDKit          3D

 59 62  0  0  1  0  0  0  0  0999 V2000
  139.9650   69.0820  228.3780 C   0  0  0  0  0  0  0  0  0  0  0  0
  140.0680   69.7850  227.0750 C   0  0  0  0  0  0  0  0  0  0  0  0
  139.4760   69.2190  225.9820 C   0  0  0  0  0  0  0  0  0  0  0  0
  139.5480   69.8390  224.7510 C   0  0  0  0  0  0  0  0  0  0  0  0
  140.1990   71.0330  224.5390 C   0  0  0  0  0  0  0  0  0  0  0  0
  140.2960   71.7270  223.2530 C   0  0  0  0  0  0  0  0  0  0  0  0
  139.0020   72.2110  222.8440 N   0  0  0  0  0  0  0  0  0  0  0  0
  138.0240   71.4760  222.1640 C   0  0  0  0  0  0  0  0  0  0  0  0
  138.2070   70.2610  221.8330 O   0  0  0  0  0  0  0  0  0  0  0  0
  136.6990   72.0440  221.7720 C   0  0  1  0  0  0  0  0  0  0  0  0
  135.7050   71.9730  222.8860 C   0  0  0  0  0  0  0  0  0  0  0  0
  135.4800   73.3800  223.3370 C   0  0  1  0  0  0  0  0  0  0  0  0
  135.5470   73.5110  224.7280 O   0  0  0  0  0  0  0  0  0  0  0  0
  136.5740   74.1630  222.6540 C   0  0  0  0  0  0  0  0  0  0  0  0
  136.8020   73.4290  221.4050 N   0  0  0  0  0  0  0  0  0  0  0  0
  137.0650   74.0200  220.1320 C   0  0  0  0  0  0  0  0  0  0  0  0
  136.1180   74.1920  219.3530 O   0  0  0  0  0  0  0  0  0  0  0  0
  138.4790   74.3820  219.8480 C   0  0  0  0  0  0  0  0  0  0  0  0
  138.8050   75.6950  220.3680 N   0  0  0  0  0  0  0  0  0  0  0  0
  139.5640   75.7360  221.5850 C   0  0  0  0  0  0  0  0  0  0  0  0
  139.8860   74.6590  222.1050 O   0  0  0  0  0  0  0  0  0  0  0  0
  139.9280   77.0230  222.1660 C   0  0  0  0  0  0  0  0  0  0  0  0
  138.9320   77.7930  222.7330 C   0  0  0  0  0  0  0  0  0  0  0  0
  139.1990   79.0270  223.3040 C   0  0  0  0  0  0  0  0  0  0  0  0
  140.5080   79.4650  223.2880 C   0  0  0  0  0  0  0  0  0  0  0  0
  140.8170   80.6910  223.8490 C   0  0  0  0  0  0  0  0  0  0  0  0
  142.1330   81.1650  223.8500 C   0  0  0  0  0  0  0  0  0  0  0  0
  142.4010   82.3770  224.4110 F   0  0  0  0  0  0  0  0  0  0  0  0
  143.1100   80.3770  223.2770 C   0  0  0  0  0  0  0  0  0  0  0  0
  142.8350   79.1410  222.7050 C   0  0  0  0  0  0  0  0  0  0  0  0
  141.5210   78.6870  222.7140 C   0  0  0  0  0  0  0  0  0  0  0  0
  141.2040   77.4810  222.1650 N   0  0  0  0  0  0  0  0  0  0  0  0
  140.8020   71.6060  225.6600 C   0  0  0  0  0  0  0  0  0  0  0  0
  140.7330   70.9820  226.9080 C   0  0  0  0  0  0  0  0  0  0  0  0
  140.0715   69.8092  229.1964 H   0  0  0  0  0  0  0  0  0  0  0  0
  138.9849   68.5881  228.4517 H   0  0  0  0  0  0  0  0  0  0  0  0
  140.7622   68.3277  228.4517 H   0  0  0  0  0  0  0  0  0  0  0  0
  138.9392   68.2643  226.0833 H   0  0  0  0  0  0  0  0  0  0  0  0
  139.0591   69.3530  223.8938 H   0  0  0  0  0  0  0  0  0  0  0  0
  140.9865   72.5776  223.3515 H   0  0  0  0  0  0  0  0  0  0  0  0
  140.6692   71.0226  222.4950 H   0  0  0  0  0  0  0  0  0  0  0  0
  138.7810   73.2120  223.0830 H   0  0  0  0  0  0  0  0  0  0  0  0
  136.3659   71.4353  220.9185 H   0  0  0  0  0  0  0  0  0  0  0  0
  134.7627   71.5323  222.5283 H   0  0  0  0  0  0  0  0  0  0  0  0
  136.0716   71.3427  223.7096 H   0  0  0  0  0  0  0  0  0  0  0  0
  134.4734   73.7384  223.0754 H   0  0  0  0  0  0  0  0  0  0  0  0
  136.5220   73.5320  224.9630 H   0  0  0  0  0  0  0  0  0  0  0  0
  136.2488   75.1937  222.4491 H   0  0  0  0  0  0  0  0  0  0  0  0
  137.4823   74.2496  223.2684 H   0  0  0  0  0  0  0  0  0  0  0  0
  139.1397   73.6377  220.3165 H   0  0  0  0  0  0  0  0  0  0  0  0
  138.6192   74.3979  218.7571 H   0  0  0  0  0  0  0  0  0  0  0  0
  138.5110   76.5880  219.8950 H   0  0  0  0  0  0  0  0  0  0  0  0
  137.8984   77.4166  222.7314 H   0  0  0  0  0  0  0  0  0  0  0  0
  138.3989   79.6341  223.7527 H   0  0  0  0  0  0  0  0  0  0  0  0
  140.0191   81.2998  224.2992 H   0  0  0  0  0  0  0  0  0  0  0  0
  144.1477   80.7418  223.2729 H   0  0  0  0  0  0  0  0  0  0  0  0
  143.6371   78.5367  222.2562 H   0  0  0  0  0  0  0  0  0  0  0  0
  141.3384   72.5611  225.5594 H   0  0  0  0  0  0  0  0  0  0  0  0
  141.2185   71.4545  227.7746 H   0  0  0  0  0  0  0  0  0  0  0  0
  1  2  1  0
  2  3  2  0
  3  4  1  0
  4  5  2  0
  5  6  1  0
  6  7  1  0
  7  8  1  0
  8  9  2  0
  8 10  1  0
 10 11  1  0
 11 12  1  0
 12 13  1  0
 12 14  1  0
 14 15  1  0
 15 16  1  0
 16 17  2  0
 16 18  1  0
 18 19  1  0
 19 20  1  0
 20 21  2  0
 20 22  1  0
 22 23  2  0
 23 24  1  0
 24 25  2  0
 25 26  1  0
 26 27  2  0
 27 28  1  0
 27 29  1  0
 29 30  2  0
 30 31  1  0
 31 32  2  0
  5 33  1  0
 33 34  2  0
 34  2  1  0
 15 10  1  0
 32 22  1  0
 31 25  1  0
  1 35  1  0
  1 36  1  0
  1 37  1  0
  3 38  1  0
  4 39  1  0
  6 40  1  0
  6 41  1  0
  7 42  1  0
 10 43  1  6
 11 44  1  0
 11 45  1  0
 12 46  1  6
 13 47  1  0
 14 48  1  0
 14 49  1  0
 18 50  1  0
 18 51  1  0
 19 52  1  0
 23 53  1  0
 24 54  1  0
 26 55  1  0
 29 56  1  0
 30 57  1  0
 33 58  1  0
 34 59  1  0
M  END
>  <smiles>  (40) 
Cc1ccc(CNC(=O)C2C[C@@H](O)CN2C(=O)CNC(=O)c2ccc3cc(F)ccc3n2)cc1

>  <score_type>  (40) 
oracle

>  <origin>  (40) 
autodockgpu

>  <m_score__min__energy>  (40) 
-9.4000000000000004

>  <m_primary>  (40) 
energy

>  <meeko>  (40) 
{"free_energy": -8.53, "intermolecular_energy": -10.92, "internal_energy": -2.56, "cluster_size": 1, "cluster_id": 4, "rank_in_cluster": 1}

>  <energy>  (40) 
-5.7

>  <cluster_rmsd>  (40) 
0.0

>  <rmsd>  (40) 
270.53

>  <cluster>  (40) 
8

$$$$
