USJHBUDYBBTILB-MPIMZMORNA-N
     RDKit          3D

 56 59  0  0  0  0  0  0  0  0999 V2000
  140.0400   70.5520  228.2420 C   0  0  0  0  0  0  0  0  0  0  0  0
  139.5920   69.6340  227.2890 C   0  0  0  0  0  0  0  0  0  0  0  0
  139.8600   69.8460  225.9330 C   0  0  0  0  0  0  0  0  0  0  0  0
  140.5750   70.9830  225.5210 C   0  0  0  0  0  0  0  0  0  0  0  0
  140.8960   71.1940  224.0630 C   0  0  0  0  0  0  0  0  0  0  0  0
  139.6210   71.2670  223.2130 C   0  0  0  0  0  0  0  0  0  0  0  0
  139.3940   72.6210  222.7070 N   0  0  0  0  0  0  0  0  0  0  0  0
  140.4250   73.4000  222.0820 C   0  0  0  0  0  0  0  0  0  0  0  0
  141.4930   72.7660  221.4410 C   0  0  0  0  0  0  0  0  0  0  0  0
  142.4760   73.5540  220.8290 C   0  0  0  0  0  0  0  0  0  0  0  0
  143.5830   72.9560  220.1280 N   0  0  0  0  0  0  0  0  0  0  0  0
  144.8410   72.7210  220.8470 C   0  0  0  0  0  0  0  0  0  0  0  0
  145.9440   72.2710  219.8800 C   0  0  0  0  0  0  0  0  0  0  0  0
  145.8730   73.0380  218.6300 N   0  0  0  0  0  0  0  0  0  0  0  0
  144.6230   72.7920  217.8840 C   0  0  0  0  0  0  0  0  0  0  0  0
  143.4260   72.4020  218.7770 C   0  0  0  0  0  0  0  0  0  0  0  0
  142.3510   74.9090  220.8550 N   0  0  0  0  0  0  0  0  0  0  0  0
  141.3100   75.5190  221.4850 C   0  0  0  0  0  0  0  0  0  0  0  0
  141.2130   76.9580  221.4950 N   0  0  0  0  0  0  0  0  0  0  0  0
  140.7090   77.6720  222.6790 C   0  0  0  0  0  0  0  0  0  0  0  0
  141.4550   79.0070  222.9020 C   0  0  0  0  0  0  0  0  0  0  0  0
  142.0160   79.6080  221.6760 N   0  0  0  0  0  0  0  0  0  0  0  0
  141.2880   79.2080  220.4680 C   0  0  0  0  0  0  0  0  0  0  0  0
  141.4300   77.6990  220.2460 C   0  0  0  0  0  0  0  0  0  0  0  0
  140.3620   74.7580  222.0920 N   0  0  0  0  0  0  0  0  0  0  0  0
  141.0320   71.8950  226.4870 C   0  0  0  0  0  0  0  0  0  0  0  0
  140.7610   71.6810  227.8420 C   0  0  0  0  0  0  0  0  0  0  0  0
  139.8253   70.3864  229.3081 H   0  0  0  0  0  0  0  0  0  0  0  0
  139.0282   68.7440  227.6054 H   0  0  0  0  0  0  0  0  0  0  0  0
  139.5094   69.1192  225.1855 H   0  0  0  0  0  0  0  0  0  0  0  0
  141.4542   72.1354  223.9522 H   0  0  0  0  0  0  0  0  0  0  0  0
  141.4958   70.3406  223.7140 H   0  0  0  0  0  0  0  0  0  0  0  0
  139.7189   70.5782  222.3610 H   0  0  0  0  0  0  0  0  0  0  0  0
  138.7663   70.9859  223.8458 H   0  0  0  0  0  0  0  0  0  0  0  0
  138.4370   73.0290  222.8070 H   0  0  0  0  0  0  0  0  0  0  0  0
  141.5603   71.6683  221.4176 H   0  0  0  0  0  0  0  0  0  0  0  0
  145.1531   73.6524  221.3421 H   0  0  0  0  0  0  0  0  0  0  0  0
  144.6792   71.9278  221.5918 H   0  0  0  0  0  0  0  0  0  0  0  0
  146.9256   72.4328  220.3493 H   0  0  0  0  0  0  0  0  0  0  0  0
  145.8053   71.2038  219.6522 H   0  0  0  0  0  0  0  0  0  0  0  0
  145.9320   74.0580  218.8650 H   0  0  0  0  0  0  0  0  0  0  0  0
  144.3612   73.7089  217.3355 H   0  0  0  0  0  0  0  0  0  0  0  0
  144.8133   71.9390  217.2161 H   0  0  0  0  0  0  0  0  0  0  0  0
  142.5001   72.7946  218.3313 H   0  0  0  0  0  0  0  0  0  0  0  0
  143.3807   71.3052  218.8480 H   0  0  0  0  0  0  0  0  0  0  0  0
  139.6380   77.8810  222.5401 H   0  0  0  0  0  0  0  0  0  0  0  0
  140.8753   77.0349  223.5602 H   0  0  0  0  0  0  0  0  0  0  0  0
  140.7490   79.7252  223.3444 H   0  0  0  0  0  0  0  0  0  0  0  0
  142.3085   78.7821  223.5585 H   0  0  0  0  0  0  0  0  0  0  0  0
  143.0140   79.3100  221.5780 H   0  0  0  0  0  0  0  0  0  0  0  0
  140.2237   79.4606  220.5838 H   0  0  0  0  0  0  0  0  0  0  0  0
  141.7060   79.7413  219.6014 H   0  0  0  0  0  0  0  0  0  0  0  0
  140.6879   77.3740  219.5019 H   0  0  0  0  0  0  0  0  0  0  0  0
  142.4502   77.4928  219.8903 H   0  0  0  0  0  0  0  0  0  0  0  0
  141.6052   72.7809  226.1762 H   0  0  0  0  0  0  0  0  0  0  0  0
  141.1154   72.4016  228.5938 H   0  0  0  0  0  0  0  0  0  0  0  0
  1  2  2  0
  2  3  1  0
  3  4  2  0
  4  5  1  0
  5  6  1  0
  6  7  1  0
  7  8  1  0
  8  9  2  0
  9 10  1  0
 10 11  1  0
 11 12  1  0
 12 13  1  0
 13 14  1  0
 14 15  1  0
 15 16  1  0
 10 17  2  0
 17 18  1  0
 18 19  1  0
 19 20  1  0
 20 21  1  0
 21 22  1  0
 22 23  1  0
 23 24  1  0
 18 25  2  0
  4 26  1  0
 26 27  2  0
 27  1  1  0
 25  8  1  0
 16 11  1  0
 24 19  1  0
  1 28  1  0
  2 29  1  0
  3 30  1  0
  5 31  1  0
  5 32  1  0
  6 33  1  0
  6 34  1  0
  7 35  1  0
  9 36  1  0
 12 37  1  0
 12 38  1  0
 13 39  1  0
 13 40  1  0
 14 41  1  0
 15 42  1  0
 15 43  1  0
 16 44  1  0
 16 45  1  0
 20 46  1  0
 20 47  1  0
 21 48  1  0
 21 49  1  0
 22 50  1  0
 23 51  1  0
 23 52  1  0
 24 53  1  0
 24 54  1  0
 26 55  1  0
 27 56  1  0
M  END
>  <UniqueID>  (1) 
518

>  <SMILES>  (1) 
c1ccc(CCNc2cc(N3CCNCC3)nc(N3CCNCC3)n2)cc1

>  <Energy>  (1) 
60.55726351164468

>  <Genealogy>  (1) 
c1ccc(CCNc2cc(N3CCNCC3)nc(N3CCNCC3)n2)cc1 (3D coordinates assigned)
c1ccc(CCNc2cc(N3CCNCC3)nc(N3CCNCC3)n2)cc1 (nonaromatic ring conformer: 60.55726351164468 kcal/mol)

>  <smiles>  (1) 
c1ccc(CCNc2cc(N3CCNCC3)nc(N3CCNCC3)n2)cc1

>  <score_type>  (1) 
oracle

>  <origin>  (1) 
autodockgpu

>  <m_score__min__energy>  (1) 
-9.2300000000000004

>  <m_primary>  (1) 
energy

>  <meeko>  (1) 
{"free_energy": -9.2, "intermolecular_energy": -10.99, "internal_energy": -0.83, "cluster_size": 19, "cluster_id": 1, "rank_in_cluster": 4}

>  <energy>  (1) 
-9.23

>  <cluster_rmsd>  (1) 
0.0

>  <rmsd>  (1) 
271.08

>  <cluster>  (1) 
1

$$$$
USJHBUDYBBTILB-MPIMZMORNA-N
     RDKit          3D

 56 59  0  0  0  0  0  0  0  0999 V2000
  140.0280   70.4020  228.2840 C   0  0  0  0  0  0  0  0  0  0  0  0
  139.5820   69.5550  227.2680 C   0  0  0  0  0  0  0  0  0  0  0  0
  139.8510   69.8630  225.9300 C   0  0  0  0  0  0  0  0  0  0  0  0
  140.5670   71.0270  225.6020 C   0  0  0  0  0  0  0  0  0  0  0  0
  140.8890   71.3420  224.1630 C   0  0  0  0  0  0  0  0  0  0  0  0
  139.6270   71.3350  223.2900 C   0  0  0  0  0  0  0  0  0  0  0  0
  139.3870   72.6470  222.6900 N   0  0  0  0  0  0  0  0  0  0  0  0
  140.4250   73.4200  222.0700 C   0  0  0  0  0  0  0  0  0  0  0  0
  141.4930   72.7790  221.4340 C   0  0  0  0  0  0  0  0  0  0  0  0
  142.4840   73.5620  220.8270 C   0  0  0  0  0  0  0  0  0  0  0  0
  143.5910   72.9570  220.1320 N   0  0  0  0  0  0  0  0  0  0  0  0
  144.8400   72.7040  220.8600 C   0  0  0  0  0  0  0  0  0  0  0  0
  145.9470   72.2490  219.9000 C   0  0  0  0  0  0  0  0  0  0  0  0
  145.8950   73.0260  218.6550 N   0  0  0  0  0  0  0  0  0  0  0  0
  144.6480   72.7970  217.8960 C   0  0  0  0  0  0  0  0  0  0  0  0
  143.4400   72.4130  218.7760 C   0  0  0  0  0  0  0  0  0  0  0  0
  142.3660   74.9170  220.8520 N   0  0  0  0  0  0  0  0  0  0  0  0
  141.3250   75.5330  221.4760 C   0  0  0  0  0  0  0  0  0  0  0  0
  141.2360   76.9730  221.4850 N   0  0  0  0  0  0  0  0  0  0  0  0
  140.7050   77.6890  222.6550 C   0  0  0  0  0  0  0  0  0  0  0  0
  141.4530   79.0190  222.8990 C   0  0  0  0  0  0  0  0  0  0  0  0
  142.0490   79.6180  221.6900 N   0  0  0  0  0  0  0  0  0  0  0  0
  141.3520   79.2230  220.4630 C   0  0  0  0  0  0  0  0  0  0  0  0
  141.4910   77.7130  220.2420 C   0  0  0  0  0  0  0  0  0  0  0  0
  140.3700   74.7780  222.0780 N   0  0  0  0  0  0  0  0  0  0  0  0
  141.0220   71.8680  226.6310 C   0  0  0  0  0  0  0  0  0  0  0  0
  140.7490   71.5580  227.9670 C   0  0  0  0  0  0  0  0  0  0  0  0
  139.8122   70.1601  229.3352 H   0  0  0  0  0  0  0  0  0  0  0  0
  139.0185   68.6444  227.5196 H   0  0  0  0  0  0  0  0  0  0  0  0
  139.5009   69.1918  225.1320 H   0  0  0  0  0  0  0  0  0  0  0  0
  141.3545   72.3373  224.1104 H   0  0  0  0  0  0  0  0  0  0  0  0
  141.5743   70.5689  223.7854 H   0  0  0  0  0  0  0  0  0  0  0  0
  139.7502   70.5918  222.4884 H   0  0  0  0  0  0  0  0  0  0  0  0
  138.7664   71.0825  223.9269 H   0  0  0  0  0  0  0  0  0  0  0  0
  138.4140   73.0280  222.7150 H   0  0  0  0  0  0  0  0  0  0  0  0
  141.5539   71.6809  221.4107 H   0  0  0  0  0  0  0  0  0  0  0  0
  145.1573   73.6287  221.3642 H   0  0  0  0  0  0  0  0  0  0  0  0
  144.6632   71.9073  221.5976 H   0  0  0  0  0  0  0  0  0  0  0  0
  146.9260   72.3971  220.3792 H   0  0  0  0  0  0  0  0  0  0  0  0
  145.7995   71.1849  219.6634 H   0  0  0  0  0  0  0  0  0  0  0  0
  145.9610   74.0430  218.8960 H   0  0  0  0  0  0  0  0  0  0  0  0
  144.3999   73.7200  217.3514 H   0  0  0  0  0  0  0  0  0  0  0  0
  144.8357   71.9466  217.2240 H   0  0  0  0  0  0  0  0  0  0  0  0
  142.5218   72.8174  218.3250 H   0  0  0  0  0  0  0  0  0  0  0  0
  143.3834   71.3163  218.8395 H   0  0  0  0  0  0  0  0  0  0  0  0
  139.6395   77.9048  222.4875 H   0  0  0  0  0  0  0  0  0  0  0  0
  140.8435   77.0503  223.5398 H   0  0  0  0  0  0  0  0  0  0  0  0
  140.7400   79.7409  223.3240 H   0  0  0  0  0  0  0  0  0  0  0  0
  142.2879   78.7878  223.5769 H   0  0  0  0  0  0  0  0  0  0  0  0
  143.0480   79.3140  221.6180 H   0  0  0  0  0  0  0  0  0  0  0  0
  140.2864   79.4814  220.5505 H   0  0  0  0  0  0  0  0  0  0  0  0
  141.7969   79.7546  219.6089 H   0  0  0  0  0  0  0  0  0  0  0  0
  140.7670   77.3932  219.4781 H   0  0  0  0  0  0  0  0  0  0  0  0
  142.5187   77.5004  219.9123 H   0  0  0  0  0  0  0  0  0  0  0  0
  141.5953   72.7740  226.3849 H   0  0  0  0  0  0  0  0  0  0  0  0
  141.1013   72.2234  228.7689 H   0  0  0  0  0  0  0  0  0  0  0  0
  1  2  2  0
  2  3  1  0
  3  4  2  0
  4  5  1  0
  5  6  1  0
  6  7  1  0
  7  8  1  0
  8  9  2  0
  9 10  1  0
 10 11  1  0
 11 12  1  0
 12 13  1  0
 13 14  1  0
 14 15  1  0
 15 16  1  0
 10 17  2  0
 17 18  1  0
 18 19  1  0
 19 20  1  0
 20 21  1  0
 21 22  1  0
 22 23  1  0
 23 24  1  0
 18 25  2  0
  4 26  1  0
 26 27  2  0
 27  1  1  0
 25  8  1  0
 16 11  1  0
 24 19  1  0
  1 28  1  0
  2 29  1  0
  3 30  1  0
  5 31  1  0
  5 32  1  0
  6 33  1  0
  6 34  1  0
  7 35  1  0
  9 36  1  0
 12 37  1  0
 12 38  1  0
 13 39  1  0
 13 40  1  0
 14 41  1  0
 15 42  1  0
 15 43  1  0
 16 44  1  0
 16 45  1  0
 20 46  1  0
 20 47  1  0
 21 48  1  0
 21 49  1  0
 22 50  1  0
 23 51  1  0
 23 52  1  0
 24 53  1  0
 24 54  1  0
 26 55  1  0
 27 56  1  0
M  END
>  <UniqueID>  (2) 
518

>  <SMILES>  (2) 
c1ccc(CCNc2cc(N3CCNCC3)nc(N3CCNCC3)n2)cc1

>  <Energy>  (2) 
60.55726351164468

>  <Genealogy>  (2) 
c1ccc(CCNc2cc(N3CCNCC3)nc(N3CCNCC3)n2)cc1 (3D coordinates assigned)
c1ccc(CCNc2cc(N3CCNCC3)nc(N3CCNCC3)n2)cc1 (nonaromatic ring conformer: 60.55726351164468 kcal/mol)

>  <smiles>  (2) 
c1ccc(CCNc2cc(N3CCNCC3)nc(N3CCNCC3)n2)cc1

>  <score_type>  (2) 
oracle

>  <origin>  (2) 
autodockgpu

>  <m_score__min__energy>  (2) 
-9.2300000000000004

>  <m_primary>  (2) 
energy

>  <meeko>  (2) 
{"free_energy": -9.23, "intermolecular_energy": -11.02, "internal_energy": -0.83, "cluster_size": 19, "cluster_id": 1, "rank_in_cluster": 2}

>  <energy>  (2) 
-9.23

>  <cluster_rmsd>  (2) 
0.02

>  <rmsd>  (2) 
271.07

>  <cluster>  (2) 
1

$$$$
USJHBUDYBBTILB-MPIMZMORNA-N
     RDKit          3D

 56 59  0  0  0  0  0  0  0  0999 V2000
  140.9660   70.5880  227.4960 C   0  0  0  0  0  0  0  0  0  0  0  0
  139.9540   69.6430  227.3190 C   0  0  0  0  0  0  0  0  0  0  0  0
  139.1980   69.6370  226.1430 C   0  0  0  0  0  0  0  0  0  0  0  0
  139.4490   70.5840  225.1350 C   0  0  0  0  0  0  0  0  0  0  0  0
  138.6590   70.5570  223.8510 C   0  0  0  0  0  0  0  0  0  0  0  0
  139.4960   71.0550  222.6660 C   0  0  0  0  0  0  0  0  0  0  0  0
  139.3920   72.5060  222.5120 N   0  0  0  0  0  0  0  0  0  0  0  0
  140.4520   73.3080  221.9680 C   0  0  0  0  0  0  0  0  0  0  0  0
  141.5810   72.6970  221.4160 C   0  0  0  0  0  0  0  0  0  0  0  0
  142.5920   73.5070  220.8810 C   0  0  0  0  0  0  0  0  0  0  0  0
  143.7640   72.9330  220.2720 N   0  0  0  0  0  0  0  0  0  0  0  0
  145.0560   73.0480  220.9590 C   0  0  0  0  0  0  0  0  0  0  0  0
  146.1970   72.5570  220.0590 C   0  0  0  0  0  0  0  0  0  0  0  0
  145.9880   73.0070  218.6770 N   0  0  0  0  0  0  0  0  0  0  0  0
  144.7760   72.4220  218.0680 C   0  0  0  0  0  0  0  0  0  0  0  0
  143.6690   72.0740  219.0850 C   0  0  0  0  0  0  0  0  0  0  0  0
  142.4350   74.8580  220.8930 N   0  0  0  0  0  0  0  0  0  0  0  0
  141.3340   75.4450  221.4370 C   0  0  0  0  0  0  0  0  0  0  0  0
  141.2040   76.8820  221.4350 N   0  0  0  0  0  0  0  0  0  0  0  0
  140.6650   77.5920  222.6050 C   0  0  0  0  0  0  0  0  0  0  0  0
  141.3770   78.9450  222.8310 C   0  0  0  0  0  0  0  0  0  0  0  0
  141.9440   79.5510  221.6100 N   0  0  0  0  0  0  0  0  0  0  0  0
  141.2460   79.1250  220.3930 C   0  0  0  0  0  0  0  0  0  0  0  0
  141.4250   77.6190  220.1840 C   0  0  0  0  0  0  0  0  0  0  0  0
  140.3580   74.6640  221.9690 N   0  0  0  0  0  0  0  0  0  0  0  0
  140.4760   71.5250  225.3160 C   0  0  0  0  0  0  0  0  0  0  0  0
  141.2280   71.5290  226.4950 C   0  0  0  0  0  0  0  0  0  0  0  0
  141.5578   70.5926  228.4233 H   0  0  0  0  0  0  0  0  0  0  0  0
  139.7510   68.9018  228.1061 H   0  0  0  0  0  0  0  0  0  0  0  0
  138.4038   68.8884  226.0060 H   0  0  0  0  0  0  0  0  0  0  0  0
  138.3359   69.5246  223.6517 H   0  0  0  0  0  0  0  0  0  0  0  0
  137.7914   71.2235  223.9653 H   0  0  0  0  0  0  0  0  0  0  0  0
  140.5496   70.7875  222.8344 H   0  0  0  0  0  0  0  0  0  0  0  0
  139.1149   70.5812  221.7493 H   0  0  0  0  0  0  0  0  0  0  0  0
  138.5050   72.9700  222.8100 H   0  0  0  0  0  0  0  0  0  0  0  0
  141.6745   71.6011  221.4016 H   0  0  0  0  0  0  0  0  0  0  0  0
  145.2320   74.1015  221.2221 H   0  0  0  0  0  0  0  0  0  0  0  0
  145.0297   72.4261  221.8659 H   0  0  0  0  0  0  0  0  0  0  0  0
  147.1509   72.9593  220.4309 H   0  0  0  0  0  0  0  0  0  0  0  0
  146.2181   71.4574  220.0771 H   0  0  0  0  0  0  0  0  0  0  0  0
  145.8950   74.0510  218.6790 H   0  0  0  0  0  0  0  0  0  0  0  0
  144.3680   73.1449  217.3462 H   0  0  0  0  0  0  0  0  0  0  0  0
  145.0817   71.4775  217.5942 H   0  0  0  0  0  0  0  0  0  0  0  0
  142.6863   72.2190  218.6124 H   0  0  0  0  0  0  0  0  0  0  0  0
  143.7926   71.0263  219.3966 H   0  0  0  0  0  0  0  0  0  0  0  0
  139.5920   77.7759  222.4472 H   0  0  0  0  0  0  0  0  0  0  0  0
  140.8312   76.9647  223.4932 H   0  0  0  0  0  0  0  0  0  0  0  0
  140.6479   79.6497  223.2574 H   0  0  0  0  0  0  0  0  0  0  0  0
  142.2247   78.7436  223.5024 H   0  0  0  0  0  0  0  0  0  0  0  0
  142.9500   79.2740  221.5300 H   0  0  0  0  0  0  0  0  0  0  0  0
  140.1744   79.3542  220.4890 H   0  0  0  0  0  0  0  0  0  0  0  0
  141.6674   79.6610  219.5298 H   0  0  0  0  0  0  0  0  0  0  0  0
  140.7026   77.2724  219.4304 H   0  0  0  0  0  0  0  0  0  0  0  0
  142.4552   77.4330  219.8461 H   0  0  0  0  0  0  0  0  0  0  0  0
  140.6895   72.2615  224.5274 H   0  0  0  0  0  0  0  0  0  0  0  0
  142.0262   72.2728  226.6352 H   0  0  0  0  0  0  0  0  0  0  0  0
  1  2  2  0
  2  3  1  0
  3  4  2  0
  4  5  1  0
  5  6  1  0
  6  7  1  0
  7  8  1  0
  8  9  2  0
  9 10  1  0
 10 11  1  0
 11 12  1  0
 12 13  1  0
 13 14  1  0
 14 15  1  0
 15 16  1  0
 10 17  2  0
 17 18  1  0
 18 19  1  0
 19 20  1  0
 20 21  1  0
 21 22  1  0
 22 23  1  0
 23 24  1  0
 18 25  2  0
  4 26  1  0
 26 27  2  0
 27  1  1  0
 25  8  1  0
 16 11  1  0
 24 19  1  0
  1 28  1  0
  2 29  1  0
  3 30  1  0
  5 31  1  0
  5 32  1  0
  6 33  1  0
  6 34  1  0
  7 35  1  0
  9 36  1  0
 12 37  1  0
 12 38  1  0
 13 39  1  0
 13 40  1  0
 14 41  1  0
 15 42  1  0
 15 43  1  0
 16 44  1  0
 16 45  1  0
 20 46  1  0
 20 47  1  0
 21 48  1  0
 21 49  1  0
 22 50  1  0
 23 51  1  0
 23 52  1  0
 24 53  1  0
 24 54  1  0
 26 55  1  0
 27 56  1  0
M  END
>  <UniqueID>  (3) 
518

>  <SMILES>  (3) 
c1ccc(CCNc2cc(N3CCNCC3)nc(N3CCNCC3)n2)cc1

>  <Energy>  (3) 
60.55726351164468

>  <Genealogy>  (3) 
c1ccc(CCNc2cc(N3CCNCC3)nc(N3CCNCC3)n2)cc1 (3D coordinates assigned)
c1ccc(CCNc2cc(N3CCNCC3)nc(N3CCNCC3)n2)cc1 (nonaromatic ring conformer: 60.55726351164468 kcal/mol)

>  <smiles>  (3) 
c1ccc(CCNc2cc(N3CCNCC3)nc(N3CCNCC3)n2)cc1

>  <score_type>  (3) 
oracle

>  <origin>  (3) 
autodockgpu

>  <m_score__min__energy>  (3) 
-9.2300000000000004

>  <m_primary>  (3) 
energy

>  <meeko>  (3) 
{"free_energy": -8.94, "intermolecular_energy": -10.73, "internal_energy": -0.9, "cluster_size": 19, "cluster_id": 1, "rank_in_cluster": 13}

>  <energy>  (3) 
-9.21

>  <cluster_rmsd>  (3) 
0.06

>  <rmsd>  (3) 
271.06

>  <cluster>  (3) 
1

$$$$
USJHBUDYBBTILB-MPIMZMORNA-N
     RDKit          3D

 56 59  0  0  0  0  0  0  0  0999 V2000
  141.0520   70.9880  227.7460 C   0  0  0  0  0  0  0  0  0  0  0  0
  140.0950   69.9790  227.6140 C   0  0  0  0  0  0  0  0  0  0  0  0
  139.3590   69.8630  226.4300 C   0  0  0  0  0  0  0  0  0  0  0  0
  139.5730   70.7630  225.3720 C   0  0  0  0  0  0  0  0  0  0  0  0
  138.8050   70.6180  224.0820 C   0  0  0  0  0  0  0  0  0  0  0  0
  139.6240   71.1130  222.8830 C   0  0  0  0  0  0  0  0  0  0  0  0
  139.4820   72.5570  222.7000 N   0  0  0  0  0  0  0  0  0  0  0  0
  140.4870   73.3620  222.0650 C   0  0  0  0  0  0  0  0  0  0  0  0
  141.5520   72.7550  221.3940 C   0  0  0  0  0  0  0  0  0  0  0  0
  142.5090   73.5670  220.7720 C   0  0  0  0  0  0  0  0  0  0  0  0
  143.6110   72.9970  220.0410 N   0  0  0  0  0  0  0  0  0  0  0  0
  144.8410   72.6460  220.7600 C   0  0  0  0  0  0  0  0  0  0  0  0
  145.9520   72.2490  219.7780 C   0  0  0  0  0  0  0  0  0  0  0  0
  145.9400   73.1340  218.6070 N   0  0  0  0  0  0  0  0  0  0  0  0
  144.7000   73.0080  217.8140 C   0  0  0  0  0  0  0  0  0  0  0  0
  143.4680   72.5810  218.6390 C   0  0  0  0  0  0  0  0  0  0  0  0
  142.3620   74.9190  220.8180 N   0  0  0  0  0  0  0  0  0  0  0  0
  141.3240   75.5030  221.4770 C   0  0  0  0  0  0  0  0  0  0  0  0
  141.2030   76.9400  221.5090 N   0  0  0  0  0  0  0  0  0  0  0  0
  140.6800   77.6270  222.6990 C   0  0  0  0  0  0  0  0  0  0  0  0
  141.4030   78.9710  222.9470 C   0  0  0  0  0  0  0  0  0  0  0  0
  141.9610   79.6000  221.7350 N   0  0  0  0  0  0  0  0  0  0  0  0
  141.2480   79.2060  220.5160 C   0  0  0  0  0  0  0  0  0  0  0  0
  141.4160   77.7030  220.2720 C   0  0  0  0  0  0  0  0  0  0  0  0
  140.4020   74.7180  222.0940 N   0  0  0  0  0  0  0  0  0  0  0  0
  140.5450   71.7670  225.5090 C   0  0  0  0  0  0  0  0  0  0  0  0
  141.2780   71.8810  226.6940 C   0  0  0  0  0  0  0  0  0  0  0  0
  141.6283   71.0801  228.6784 H   0  0  0  0  0  0  0  0  0  0  0  0
  139.9201   69.2755  228.4413 H   0  0  0  0  0  0  0  0  0  0  0  0
  138.6098   69.0642  226.3267 H   0  0  0  0  0  0  0  0  0  0  0  0
  138.5557   69.5572  223.9314 H   0  0  0  0  0  0  0  0  0  0  0  0
  137.8923   71.2279  224.1526 H   0  0  0  0  0  0  0  0  0  0  0  0
  140.6848   70.8762  223.0518 H   0  0  0  0  0  0  0  0  0  0  0  0
  139.2514   70.6108  221.9780 H   0  0  0  0  0  0  0  0  0  0  0  0
  138.6090   73.0140  223.0480 H   0  0  0  0  0  0  0  0  0  0  0  0
  141.6373   71.6590  221.3550 H   0  0  0  0  0  0  0  0  0  0  0  0
  145.1738   73.5128  221.3498 H   0  0  0  0  0  0  0  0  0  0  0  0
  144.6319   71.7913  221.4201 H   0  0  0  0  0  0  0  0  0  0  0  0
  146.9265   72.3279  220.2820 H   0  0  0  0  0  0  0  0  0  0  0  0
  145.7813   71.2145  219.4453 H   0  0  0  0  0  0  0  0  0  0  0  0
  146.0290   74.1240  218.9400 H   0  0  0  0  0  0  0  0  0  0  0  0
  144.4852   73.9823  217.3507 H   0  0  0  0  0  0  0  0  0  0  0  0
  144.8761   72.2155  217.0717 H   0  0  0  0  0  0  0  0  0  0  0  0
  142.5685   73.0498  218.2134 H   0  0  0  0  0  0  0  0  0  0  0  0
  143.3813   71.4850  218.6028 H   0  0  0  0  0  0  0  0  0  0  0  0
  139.6067   77.8206  222.5560 H   0  0  0  0  0  0  0  0  0  0  0  0
  140.8507   76.9795  223.5717 H   0  0  0  0  0  0  0  0  0  0  0  0
  140.6826   79.6705  223.3962 H   0  0  0  0  0  0  0  0  0  0  0  0
  142.2564   78.7496  223.6049 H   0  0  0  0  0  0  0  0  0  0  0  0
  142.9650   79.3190  221.6380 H   0  0  0  0  0  0  0  0  0  0  0  0
  140.1789   79.4394  220.6280 H   0  0  0  0  0  0  0  0  0  0  0  0
  141.6635   79.7588  219.6606 H   0  0  0  0  0  0  0  0  0  0  0  0
  140.6840   77.3773  219.5183 H   0  0  0  0  0  0  0  0  0  0  0  0
  142.4415   77.5185  219.9196 H   0  0  0  0  0  0  0  0  0  0  0  0
  140.7305   72.4666  224.6807 H   0  0  0  0  0  0  0  0  0  0  0  0
  142.0332   72.6739  226.7989 H   0  0  0  0  0  0  0  0  0  0  0  0
  1  2  2  0
  2  3  1  0
  3  4  2  0
  4  5  1  0
  5  6  1  0
  6  7  1  0
  7  8  1  0
  8  9  2  0
  9 10  1  0
 10 11  1  0
 11 12  1  0
 12 13  1  0
 13 14  1  0
 14 15  1  0
 15 16  1  0
 10 17  2  0
 17 18  1  0
 18 19  1  0
 19 20  1  0
 20 21  1  0
 21 22  1  0
 22 23  1  0
 23 24  1  0
 18 25  2  0
  4 26  1  0
 26 27  2  0
 27  1  1  0
 25  8  1  0
 16 11  1  0
 24 19  1  0
  1 28  1  0
  2 29  1  0
  3 30  1  0
  5 31  1  0
  5 32  1  0
  6 33  1  0
  6 34  1  0
  7 35  1  0
  9 36  1  0
 12 37  1  0
 12 38  1  0
 13 39  1  0
 13 40  1  0
 14 41  1  0
 15 42  1  0
 15 43  1  0
 16 44  1  0
 16 45  1  0
 20 46  1  0
 20 47  1  0
 21 48  1  0
 21 49  1  0
 22 50  1  0
 23 51  1  0
 23 52  1  0
 24 53  1  0
 24 54  1  0
 26 55  1  0
 27 56  1  0
M  END
>  <UniqueID>  (4) 
518

>  <SMILES>  (4) 
c1ccc(CCNc2cc(N3CCNCC3)nc(N3CCNCC3)n2)cc1

>  <Energy>  (4) 
60.55726351164468

>  <Genealogy>  (4) 
c1ccc(CCNc2cc(N3CCNCC3)nc(N3CCNCC3)n2)cc1 (3D coordinates assigned)
c1ccc(CCNc2cc(N3CCNCC3)nc(N3CCNCC3)n2)cc1 (nonaromatic ring conformer: 60.55726351164468 kcal/mol)

>  <smiles>  (4) 
c1ccc(CCNc2cc(N3CCNCC3)nc(N3CCNCC3)n2)cc1

>  <score_type>  (4) 
oracle

>  <origin>  (4) 
autodockgpu

>  <m_score__min__energy>  (4) 
-9.2300000000000004

>  <m_primary>  (4) 
energy

>  <meeko>  (4) 
{"free_energy": -8.98, "intermolecular_energy": -10.77, "internal_energy": -0.89, "cluster_size": 19, "cluster_id": 1, "rank_in_cluster": 12}

>  <energy>  (4) 
-9.2

>  <cluster_rmsd>  (4) 
0.08

>  <rmsd>  (4) 
271.05

>  <cluster>  (4) 
1

$$$$
USJHBUDYBBTILB-MPIMZMORNA-N
     RDKit          3D

 56 59  0  0  0  0  0  0  0  0999 V2000
  141.0640   70.6020  227.6290 C   0  0  0  0  0  0  0  0  0  0  0  0
  141.3220   71.5400  226.6270 C   0  0  0  0  0  0  0  0  0  0  0  0
  140.5750   71.5260  225.4450 C   0  0  0  0  0  0  0  0  0  0  0  0
  139.5650   70.5660  225.2570 C   0  0  0  0  0  0  0  0  0  0  0  0
  138.7340   70.5720  223.9990 C   0  0  0  0  0  0  0  0  0  0  0  0
  139.5380   71.0850  222.7970 C   0  0  0  0  0  0  0  0  0  0  0  0
  139.4410   72.5390  222.6720 N   0  0  0  0  0  0  0  0  0  0  0  0
  140.4640   73.3350  222.0540 C   0  0  0  0  0  0  0  0  0  0  0  0
  141.5330   72.7190  221.3990 C   0  0  0  0  0  0  0  0  0  0  0  0
  142.5080   73.5240  220.7940 C   0  0  0  0  0  0  0  0  0  0  0  0
  143.6160   72.9440  220.0790 N   0  0  0  0  0  0  0  0  0  0  0  0
  144.8510   72.6300  220.8080 C   0  0  0  0  0  0  0  0  0  0  0  0
  145.9650   72.2160  219.8370 C   0  0  0  0  0  0  0  0  0  0  0  0
  145.9410   73.0650  218.6400 N   0  0  0  0  0  0  0  0  0  0  0  0
  144.7030   72.9010  217.8530 C   0  0  0  0  0  0  0  0  0  0  0  0
  143.4770   72.4840  218.6920 C   0  0  0  0  0  0  0  0  0  0  0  0
  142.3730   74.8770  220.8420 N   0  0  0  0  0  0  0  0  0  0  0  0
  141.3300   75.4690  221.4850 C   0  0  0  0  0  0  0  0  0  0  0  0
  141.2230   76.9070  221.5180 N   0  0  0  0  0  0  0  0  0  0  0  0
  140.7220   77.6000  222.7150 C   0  0  0  0  0  0  0  0  0  0  0  0
  141.4600   78.9370  222.9530 C   0  0  0  0  0  0  0  0  0  0  0  0
  142.0070   79.5610  221.7330 N   0  0  0  0  0  0  0  0  0  0  0  0
  141.2740   79.1720  220.5240 C   0  0  0  0  0  0  0  0  0  0  0  0
  141.4260   77.6680  220.2780 C   0  0  0  0  0  0  0  0  0  0  0  0
  140.3900   74.6920  222.0850 N   0  0  0  0  0  0  0  0  0  0  0  0
  139.3040   69.6340  226.2750 C   0  0  0  0  0  0  0  0  0  0  0  0
  140.0540   69.6500  227.4550 C   0  0  0  0  0  0  0  0  0  0  0  0
  141.6558   70.6118  228.5562 H   0  0  0  0  0  0  0  0  0  0  0  0
  142.1137   72.2906  226.7677 H   0  0  0  0  0  0  0  0  0  0  0  0
  140.7782   72.2687  224.6594 H   0  0  0  0  0  0  0  0  0  0  0  0
  138.3938   69.5470  223.7903 H   0  0  0  0  0  0  0  0  0  0  0  0
  137.8775   71.2446  224.1541 H   0  0  0  0  0  0  0  0  0  0  0  0
  140.5941   70.8066  222.9276 H   0  0  0  0  0  0  0  0  0  0  0  0
  139.1248   70.6306  221.8845 H   0  0  0  0  0  0  0  0  0  0  0  0
  138.5870   73.0100  223.0480 H   0  0  0  0  0  0  0  0  0  0  0  0
  141.6083   71.6223  221.3587 H   0  0  0  0  0  0  0  0  0  0  0  0
  145.1741   73.5186  221.3702 H   0  0  0  0  0  0  0  0  0  0  0  0
  144.6527   71.7942  221.4951 H   0  0  0  0  0  0  0  0  0  0  0  0
  146.9392   72.3213  220.3368 H   0  0  0  0  0  0  0  0  0  0  0  0
  145.8060   71.1699  219.5362 H   0  0  0  0  0  0  0  0  0  0  0  0
  146.0190   74.0660  218.9420 H   0  0  0  0  0  0  0  0  0  0  0  0
  144.4762   73.8585  217.3613 H   0  0  0  0  0  0  0  0  0  0  0  0
  144.8879   72.0892  217.1341 H   0  0  0  0  0  0  0  0  0  0  0  0
  142.5714   72.9283  218.2534 H   0  0  0  0  0  0  0  0  0  0  0  0
  143.4037   71.3864  218.6893 H   0  0  0  0  0  0  0  0  0  0  0  0
  139.6487   77.8034  222.5860 H   0  0  0  0  0  0  0  0  0  0  0  0
  140.8987   76.9513  223.5856 H   0  0  0  0  0  0  0  0  0  0  0  0
  140.7521   79.6429  223.4119 H   0  0  0  0  0  0  0  0  0  0  0  0
  142.3202   78.7081  223.5993 H   0  0  0  0  0  0  0  0  0  0  0  0
  143.0070   79.2710  221.6230 H   0  0  0  0  0  0  0  0  0  0  0  0
  140.2085   79.4142  220.6507 H   0  0  0  0  0  0  0  0  0  0  0  0
  141.6825   79.7210  219.6628 H   0  0  0  0  0  0  0  0  0  0  0  0
  140.6813   77.3484  219.5342 H   0  0  0  0  0  0  0  0  0  0  0  0
  142.4451   77.4747  219.9119 H   0  0  0  0  0  0  0  0  0  0  0  0
  138.5061   68.8883  226.1433 H   0  0  0  0  0  0  0  0  0  0  0  0
  139.8498   68.9139  228.2465 H   0  0  0  0  0  0  0  0  0  0  0  0
  1  2  2  0
  2  3  1  0
  3  4  2  0
  4  5  1  0
  5  6  1  0
  6  7  1  0
  7  8  1  0
  8  9  2  0
  9 10  1  0
 10 11  1  0
 11 12  1  0
 12 13  1  0
 13 14  1  0
 14 15  1  0
 15 16  1  0
 10 17  2  0
 17 18  1  0
 18 19  1  0
 19 20  1  0
 20 21  1  0
 21 22  1  0
 22 23  1  0
 23 24  1  0
 18 25  2  0
  4 26  1  0
 26 27  2  0
 27  1  1  0
 25  8  1  0
 16 11  1  0
 24 19  1  0
  1 28  1  0
  2 29  1  0
  3 30  1  0
  5 31  1  0
  5 32  1  0
  6 33  1  0
  6 34  1  0
  7 35  1  0
  9 36  1  0
 12 37  1  0
 12 38  1  0
 13 39  1  0
 13 40  1  0
 14 41  1  0
 15 42  1  0
 15 43  1  0
 16 44  1  0
 16 45  1  0
 20 46  1  0
 20 47  1  0
 21 48  1  0
 21 49  1  0
 22 50  1  0
 23 51  1  0
 23 52  1  0
 24 53  1  0
 24 54  1  0
 26 55  1  0
 27 56  1  0
M  END
>  <UniqueID>  (5) 
518

>  <SMILES>  (5) 
c1ccc(CCNc2cc(N3CCNCC3)nc(N3CCNCC3)n2)cc1

>  <Energy>  (5) 
60.55726351164468

>  <Genealogy>  (5) 
c1ccc(CCNc2cc(N3CCNCC3)nc(N3CCNCC3)n2)cc1 (3D coordinates assigned)
c1ccc(CCNc2cc(N3CCNCC3)nc(N3CCNCC3)n2)cc1 (nonaromatic ring conformer: 60.55726351164468 kcal/mol)

>  <smiles>  (5) 
c1ccc(CCNc2cc(N3CCNCC3)nc(N3CCNCC3)n2)cc1

>  <score_type>  (5) 
oracle

>  <origin>  (5) 
autodockgpu

>  <m_score__min__energy>  (5) 
-9.2300000000000004

>  <m_primary>  (5) 
energy

>  <meeko>  (5) 
{"free_energy": -9.01, "intermolecular_energy": -10.8, "internal_energy": -0.89, "cluster_size": 19, "cluster_id": 1, "rank_in_cluster": 9}

>  <energy>  (5) 
-9.18

>  <cluster_rmsd>  (5) 
0.1

>  <rmsd>  (5) 
271.02

>  <cluster>  (5) 
1

$$$$
USJHBUDYBBTILB-MPIMZMORNA-N
     RDKit          3D

 56 59  0  0  0  0  0  0  0  0999 V2000
  142.2920   81.3100  223.3930 C   0  0  0  0  0  0  0  0  0  0  0  0
  142.5180   80.0190  223.8740 C   0  0  0  0  0  0  0  0  0  0  0  0
  141.5620   79.0190  223.6740 C   0  0  0  0  0  0  0  0  0  0  0  0
  140.3670   79.3090  222.9930 C   0  0  0  0  0  0  0  0  0  0  0  0
  139.3500   78.2230  222.7450 C   0  0  0  0  0  0  0  0  0  0  0  0
  139.7010   77.3990  221.5000 C   0  0  0  0  0  0  0  0  0  0  0  0
  141.0280   76.7960  221.6160 N   0  0  0  0  0  0  0  0  0  0  0  0
  141.2510   75.3810  221.5110 C   0  0  0  0  0  0  0  0  0  0  0  0
  142.4180   74.8970  220.9130 C   0  0  0  0  0  0  0  0  0  0  0  0
  142.6120   73.5120  220.8370 C   0  0  0  0  0  0  0  0  0  0  0  0
  143.8090   72.9560  220.2600 N   0  0  0  0  0  0  0  0  0  0  0  0
  145.0830   73.1080  220.9710 C   0  0  0  0  0  0  0  0  0  0  0  0
  146.2530   72.6310  220.1000 C   0  0  0  0  0  0  0  0  0  0  0  0
  146.0620   73.0580  218.7090 N   0  0  0  0  0  0  0  0  0  0  0  0
  144.8760   72.4390  218.0840 C   0  0  0  0  0  0  0  0  0  0  0  0
  143.7560   72.0790  219.0820 C   0  0  0  0  0  0  0  0  0  0  0  0
  141.6740   72.6810  221.3680 N   0  0  0  0  0  0  0  0  0  0  0  0
  140.5390   73.1600  221.9450 C   0  0  0  0  0  0  0  0  0  0  0  0
  139.5640   72.2490  222.4930 N   0  0  0  0  0  0  0  0  0  0  0  0
  139.9690   71.1750  223.4140 C   0  0  0  0  0  0  0  0  0  0  0  0
  138.9100   70.9380  224.5150 C   0  0  0  0  0  0  0  0  0  0  0  0
  137.5330   71.3040  224.1310 N   0  0  0  0  0  0  0  0  0  0  0  0
  137.3150   71.2360  222.6830 C   0  0  0  0  0  0  0  0  0  0  0  0
  138.1920   72.2700  221.9700 C   0  0  0  0  0  0  0  0  0  0  0  0
  140.3400   74.5030  222.0070 N   0  0  0  0  0  0  0  0  0  0  0  0
  140.1520   80.6070  222.5020 C   0  0  0  0  0  0  0  0  0  0  0  0
  141.1100   81.6050  222.7050 C   0  0  0  0  0  0  0  0  0  0  0  0
  143.0441   82.0962  223.5551 H   0  0  0  0  0  0  0  0  0  0  0  0
  143.4498   79.7884  224.4112 H   0  0  0  0  0  0  0  0  0  0  0  0
  141.7454   78.0019  224.0507 H   0  0  0  0  0  0  0  0  0  0  0  0
  139.3195   77.5554  223.6187 H   0  0  0  0  0  0  0  0  0  0  0  0
  138.3712   78.6973  222.5807 H   0  0  0  0  0  0  0  0  0  0  0  0
  138.9545   76.6005  221.3772 H   0  0  0  0  0  0  0  0  0  0  0  0
  139.7009   78.0707  220.6289 H   0  0  0  0  0  0  0  0  0  0  0  0
  141.8430   77.4280  221.7800 H   0  0  0  0  0  0  0  0  0  0  0  0
  143.1701   75.5910  220.5095 H   0  0  0  0  0  0  0  0  0  0  0  0
  145.2306   74.1683  221.2241 H   0  0  0  0  0  0  0  0  0  0  0  0
  145.0518   72.4971  221.8852 H   0  0  0  0  0  0  0  0  0  0  0  0
  147.1900   73.0594  220.4853 H   0  0  0  0  0  0  0  0  0  0  0  0
  146.2981   71.5324  220.1332 H   0  0  0  0  0  0  0  0  0  0  0  0
  145.9460   74.1000  218.6950 H   0  0  0  0  0  0  0  0  0  0  0  0
  144.4672   73.1437  217.3449 H   0  0  0  0  0  0  0  0  0  0  0  0
  145.2122   71.4955  217.6293 H   0  0  0  0  0  0  0  0  0  0  0  0
  142.7803   72.1966  218.5878 H   0  0  0  0  0  0  0  0  0  0  0  0
  143.8948   71.0380  219.4093 H   0  0  0  0  0  0  0  0  0  0  0  0
  140.1023   70.2454  222.8413 H   0  0  0  0  0  0  0  0  0  0  0  0
  140.9086   71.4759  223.9004 H   0  0  0  0  0  0  0  0  0  0  0  0
  138.9207   69.8698  224.7773 H   0  0  0  0  0  0  0  0  0  0  0  0
  139.1833   71.5914  225.3567 H   0  0  0  0  0  0  0  0  0  0  0  0
  137.3400   72.2820  224.4510 H   0  0  0  0  0  0  0  0  0  0  0  0
  137.5736   70.2293  222.3229 H   0  0  0  0  0  0  0  0  0  0  0  0
  136.2578   71.4503  222.4674 H   0  0  0  0  0  0  0  0  0  0  0  0
  138.2140   72.0420  220.8941 H   0  0  0  0  0  0  0  0  0  0  0  0
  137.7665   73.2693  222.1444 H   0  0  0  0  0  0  0  0  0  0  0  0
  139.2261   80.8395  221.9555 H   0  0  0  0  0  0  0  0  0  0  0  0
  140.9344   82.6218  222.3239 H   0  0  0  0  0  0  0  0  0  0  0  0
  1  2  2  0
  2  3  1  0
  3  4  2  0
  4  5  1  0
  5  6  1  0
  6  7  1  0
  7  8  1  0
  8  9  2  0
  9 10  1  0
 10 11  1  0
 11 12  1  0
 12 13  1  0
 13 14  1  0
 14 15  1  0
 15 16  1  0
 10 17  2  0
 17 18  1  0
 18 19  1  0
 19 20  1  0
 20 21  1  0
 21 22  1  0
 22 23  1  0
 23 24  1  0
 18 25  2  0
  4 26  1  0
 26 27  2  0
 27  1  1  0
 25  8  1  0
 16 11  1  0
 24 19  1  0
  1 28  1  0
  2 29  1  0
  3 30  1  0
  5 31  1  0
  5 32  1  0
  6 33  1  0
  6 34  1  0
  7 35  1  0
  9 36  1  0
 12 37  1  0
 12 38  1  0
 13 39  1  0
 13 40  1  0
 14 41  1  0
 15 42  1  0
 15 43  1  0
 16 44  1  0
 16 45  1  0
 20 46  1  0
 20 47  1  0
 21 48  1  0
 21 49  1  0
 22 50  1  0
 23 51  1  0
 23 52  1  0
 24 53  1  0
 24 54  1  0
 26 55  1  0
 27 56  1  0
M  END
>  <UniqueID>  (6) 
518

>  <SMILES>  (6) 
c1ccc(CCNc2cc(N3CCNCC3)nc(N3CCNCC3)n2)cc1

>  <Energy>  (6) 
60.55726351164468

>  <Genealogy>  (6) 
c1ccc(CCNc2cc(N3CCNCC3)nc(N3CCNCC3)n2)cc1 (3D coordinates assigned)
c1ccc(CCNc2cc(N3CCNCC3)nc(N3CCNCC3)n2)cc1 (nonaromatic ring conformer: 60.55726351164468 kcal/mol)

>  <smiles>  (6) 
c1ccc(CCNc2cc(N3CCNCC3)nc(N3CCNCC3)n2)cc1

>  <score_type>  (6) 
oracle

>  <origin>  (6) 
autodockgpu

>  <m_score__min__energy>  (6) 
-9.2300000000000004

>  <m_primary>  (6) 
energy

>  <meeko>  (6) 
{"free_energy": -8.26, "intermolecular_energy": -10.05, "internal_energy": -0.86, "cluster_size": 1, "cluster_id": 2, "rank_in_cluster": 1}

>  <energy>  (6) 
-9.12

>  <cluster_rmsd>  (6) 
0.25

>  <rmsd>  (6) 
271.0

>  <cluster>  (6) 
1

$$$$
USJHBUDYBBTILB-MPIMZMORNA-N
     RDKit          3D

 56 59  0  0  0  0  0  0  0  0999 V2000
  140.6280   69.9340  228.0950 C   0  0  0  0  0  0  0  0  0  0  0  0
  140.2510   69.2110  226.9610 C   0  0  0  0  0  0  0  0  0  0  0  0
  140.2620   69.8240  225.7040 C   0  0  0  0  0  0  0  0  0  0  0  0
  140.6470   71.1690  225.5760 C   0  0  0  0  0  0  0  0  0  0  0  0
  140.6940   71.8210  224.2170 C   0  0  0  0  0  0  0  0  0  0  0  0
  139.4150   71.5450  223.4160 C   0  0  0  0  0  0  0  0  0  0  0  0
  139.2920   72.4540  222.2770 N   0  0  0  0  0  0  0  0  0  0  0  0
  140.3790   73.2670  221.8100 C   0  0  0  0  0  0  0  0  0  0  0  0
  141.5140   72.6690  221.2560 C   0  0  0  0  0  0  0  0  0  0  0  0
  142.5530   73.4890  220.7970 C   0  0  0  0  0  0  0  0  0  0  0  0
  143.7330   72.9300  220.1890 N   0  0  0  0  0  0  0  0  0  0  0  0
  145.0100   73.0040  220.9070 C   0  0  0  0  0  0  0  0  0  0  0  0
  146.1670   72.5400  220.0110 C   0  0  0  0  0  0  0  0  0  0  0  0
  145.9920   73.0500  218.6460 N   0  0  0  0  0  0  0  0  0  0  0  0
  144.7880   72.5040  217.9870 C   0  0  0  0  0  0  0  0  0  0  0  0
  143.6560   72.1230  218.9640 C   0  0  0  0  0  0  0  0  0  0  0  0
  142.4170   74.8400  220.8810 N   0  0  0  0  0  0  0  0  0  0  0  0
  141.3100   75.4150  221.4260 C   0  0  0  0  0  0  0  0  0  0  0  0
  141.2030   76.8510  221.5030 N   0  0  0  0  0  0  0  0  0  0  0  0
  140.6780   77.5060  222.7110 C   0  0  0  0  0  0  0  0  0  0  0  0
  141.4120   78.8330  223.0070 C   0  0  0  0  0  0  0  0  0  0  0  0
  141.9860   79.4950  221.8200 N   0  0  0  0  0  0  0  0  0  0  0  0
  141.2780   79.1470  220.5840 C   0  0  0  0  0  0  0  0  0  0  0  0
  141.4330   77.6520  220.2930 C   0  0  0  0  0  0  0  0  0  0  0  0
  140.3070   74.6220  221.8860 N   0  0  0  0  0  0  0  0  0  0  0  0
  141.0360   71.8860  226.7190 C   0  0  0  0  0  0  0  0  0  0  0  0
  141.0210   71.2710  227.9750 C   0  0  0  0  0  0  0  0  0  0  0  0
  140.6158   69.4515  229.0834 H   0  0  0  0  0  0  0  0  0  0  0  0
  139.9452   68.1587  227.0566 H   0  0  0  0  0  0  0  0  0  0  0  0
  139.9681   69.2509  224.8123 H   0  0  0  0  0  0  0  0  0  0  0  0
  140.8076   72.9075  224.3456 H   0  0  0  0  0  0  0  0  0  0  0  0
  141.5459   71.4010  223.6622 H   0  0  0  0  0  0  0  0  0  0  0  0
  139.4408   70.5093  223.0462 H   0  0  0  0  0  0  0  0  0  0  0  0
  138.5510   71.7015  224.0786 H   0  0  0  0  0  0  0  0  0  0  0  0
  138.3700   72.5070  221.7870 H   0  0  0  0  0  0  0  0  0  0  0  0
  141.5903   71.5742  221.1817 H   0  0  0  0  0  0  0  0  0  0  0  0
  145.1892   74.0438  221.2178 H   0  0  0  0  0  0  0  0  0  0  0  0
  144.9588   72.3449  221.7862 H   0  0  0  0  0  0  0  0  0  0  0  0
  147.1160   72.9169  220.4200 H   0  0  0  0  0  0  0  0  0  0  0  0
  146.1782   71.4404  219.9828 H   0  0  0  0  0  0  0  0  0  0  0  0
  145.9080   74.0940  218.6910 H   0  0  0  0  0  0  0  0  0  0  0  0
  144.4021   73.2616  217.2890 H   0  0  0  0  0  0  0  0  0  0  0  0
  145.0954   71.5778  217.4794 H   0  0  0  0  0  0  0  0  0  0  0  0
  142.6851   72.2975  218.4772 H   0  0  0  0  0  0  0  0  0  0  0  0
  143.7634   71.0617  219.2327 H   0  0  0  0  0  0  0  0  0  0  0  0
  139.6078   77.7152  222.5664 H   0  0  0  0  0  0  0  0  0  0  0  0
  140.8359   76.8294  223.5638 H   0  0  0  0  0  0  0  0  0  0  0  0
  140.6952   79.5251  223.4729 H   0  0  0  0  0  0  0  0  0  0  0  0
  142.2580   78.5818  223.6636 H   0  0  0  0  0  0  0  0  0  0  0  0
  142.9870   79.2070  221.7220 H   0  0  0  0  0  0  0  0  0  0  0  0
  140.2104   79.3872  220.6961 H   0  0  0  0  0  0  0  0  0  0  0  0
  141.7052   79.7227  219.7497 H   0  0  0  0  0  0  0  0  0  0  0  0
  140.7037   77.3582  219.5237 H   0  0  0  0  0  0  0  0  0  0  0  0
  142.4595   77.4688  219.9426 H   0  0  0  0  0  0  0  0  0  0  0  0
  141.3536   72.9350  226.6262 H   0  0  0  0  0  0  0  0  0  0  0  0
  141.3184   71.8390  228.8689 H   0  0  0  0  0  0  0  0  0  0  0  0
  1  2  2  0
  2  3  1  0
  3  4  2  0
  4  5  1  0
  5  6  1  0
  6  7  1  0
  7  8  1  0
  8  9  2  0
  9 10  1  0
 10 11  1  0
 11 12  1  0
 12 13  1  0
 13 14  1  0
 14 15  1  0
 15 16  1  0
 10 17  2  0
 17 18  1  0
 18 19  1  0
 19 20  1  0
 20 21  1  0
 21 22  1  0
 22 23  1  0
 23 24  1  0
 18 25  2  0
  4 26  1  0
 26 27  2  0
 27  1  1  0
 25  8  1  0
 16 11  1  0
 24 19  1  0
  1 28  1  0
  2 29  1  0
  3 30  1  0
  5 31  1  0
  5 32  1  0
  6 33  1  0
  6 34  1  0
  7 35  1  0
  9 36  1  0
 12 37  1  0
 12 38  1  0
 13 39  1  0
 13 40  1  0
 14 41  1  0
 15 42  1  0
 15 43  1  0
 16 44  1  0
 16 45  1  0
 20 46  1  0
 20 47  1  0
 21 48  1  0
 21 49  1  0
 22 50  1  0
 23 51  1  0
 23 52  1  0
 24 53  1  0
 24 54  1  0
 26 55  1  0
 27 56  1  0
M  END
>  <UniqueID>  (7) 
518

>  <SMILES>  (7) 
c1ccc(CCNc2cc(N3CCNCC3)nc(N3CCNCC3)n2)cc1

>  <Energy>  (7) 
60.55726351164468

>  <Genealogy>  (7) 
c1ccc(CCNc2cc(N3CCNCC3)nc(N3CCNCC3)n2)cc1 (3D coordinates assigned)
c1ccc(CCNc2cc(N3CCNCC3)nc(N3CCNCC3)n2)cc1 (nonaromatic ring conformer: 60.55726351164468 kcal/mol)

>  <smiles>  (7) 
c1ccc(CCNc2cc(N3CCNCC3)nc(N3CCNCC3)n2)cc1

>  <score_type>  (7) 
oracle

>  <origin>  (7) 
autodockgpu

>  <m_score__min__energy>  (7) 
-9.2300000000000004

>  <m_primary>  (7) 
energy

>  <meeko>  (7) 
{"free_energy": -9.0, "intermolecular_energy": -10.79, "internal_energy": -0.84, "cluster_size": 19, "cluster_id": 1, "rank_in_cluster": 10}

>  <energy>  (7) 
-9.02

>  <cluster_rmsd>  (7) 
0.39

>  <rmsd>  (7) 
271.05

>  <cluster>  (7) 
1

$$$$
USJHBUDYBBTILB-MPIMZMORNA-N
     RDKit          3D

 56 59  0  0  0  0  0  0  0  0999 V2000
  139.9830   70.5290  228.1980 C   0  0  0  0  0  0  0  0  0  0  0  0
  139.5380   69.6240  227.2310 C   0  0  0  0  0  0  0  0  0  0  0  0
  139.8180   69.8480  225.8800 C   0  0  0  0  0  0  0  0  0  0  0  0
  140.5430   70.9860  225.4860 C   0  0  0  0  0  0  0  0  0  0  0  0
  140.8770   71.2110  224.0330 C   0  0  0  0  0  0  0  0  0  0  0  0
  139.6100   71.2870  223.1710 C   0  0  0  0  0  0  0  0  0  0  0  0
  139.3870   72.6430  222.6690 N   0  0  0  0  0  0  0  0  0  0  0  0
  140.4200   73.4180  222.0410 C   0  0  0  0  0  0  0  0  0  0  0  0
  141.4880   72.7800  221.4050 C   0  0  0  0  0  0  0  0  0  0  0  0
  142.4730   73.5640  220.7900 C   0  0  0  0  0  0  0  0  0  0  0  0
  143.5800   72.9610  220.0940 N   0  0  0  0  0  0  0  0  0  0  0  0
  144.8180   72.6780  220.8300 C   0  0  0  0  0  0  0  0  0  0  0  0
  145.9310   72.2310  219.8720 C   0  0  0  0  0  0  0  0  0  0  0  0
  145.9010   73.0340  218.6440 N   0  0  0  0  0  0  0  0  0  0  0  0
  144.6610   72.8360  217.8670 C   0  0  0  0  0  0  0  0  0  0  0  0
  143.4390   72.4480  218.7250 C   0  0  0  0  0  0  0  0  0  0  0  0
  142.3480   74.9190  220.8080 N   0  0  0  0  0  0  0  0  0  0  0  0
  141.3070   75.5330  221.4330 C   0  0  0  0  0  0  0  0  0  0  0  0
  141.2110   76.9720  221.4350 N   0  0  0  0  0  0  0  0  0  0  0  0
  140.6560   77.6900  222.5930 C   0  0  0  0  0  0  0  0  0  0  0  0
  141.3930   79.0250  222.8450 C   0  0  0  0  0  0  0  0  0  0  0  0
  142.0070   79.6230  221.6430 N   0  0  0  0  0  0  0  0  0  0  0  0
  141.3330   79.2190  220.4060 C   0  0  0  0  0  0  0  0  0  0  0  0
  141.4820   77.7090  220.1940 C   0  0  0  0  0  0  0  0  0  0  0  0
  140.3570   74.7760  222.0430 N   0  0  0  0  0  0  0  0  0  0  0  0
  140.9970   71.8850  226.4650 C   0  0  0  0  0  0  0  0  0  0  0  0
  140.7130   71.6580  227.8150 C   0  0  0  0  0  0  0  0  0  0  0  0
  139.7590   70.3532  229.2605 H   0  0  0  0  0  0  0  0  0  0  0  0
  138.9665   68.7340  227.5333 H   0  0  0  0  0  0  0  0  0  0  0  0
  139.4696   69.1309  225.1221 H   0  0  0  0  0  0  0  0  0  0  0  0
  141.4328   72.1553  223.9359 H   0  0  0  0  0  0  0  0  0  0  0  0
  141.4831   70.3626  223.6824 H   0  0  0  0  0  0  0  0  0  0  0  0
  139.7165   70.6021  222.3169 H   0  0  0  0  0  0  0  0  0  0  0  0
  138.7494   71.0025  223.7943 H   0  0  0  0  0  0  0  0  0  0  0  0
  138.4330   73.0560  222.7730 H   0  0  0  0  0  0  0  0  0  0  0  0
  141.5543   71.6821  221.3874 H   0  0  0  0  0  0  0  0  0  0  0  0
  145.1400   73.5879  221.3576 H   0  0  0  0  0  0  0  0  0  0  0  0
  144.6241   71.8677  221.5482 H   0  0  0  0  0  0  0  0  0  0  0  0
  146.9062   72.3582  220.3647 H   0  0  0  0  0  0  0  0  0  0  0  0
  145.7747   71.1738  219.6113 H   0  0  0  0  0  0  0  0  0  0  0  0
  145.9770   74.0460  218.9080 H   0  0  0  0  0  0  0  0  0  0  0  0
  144.4299   73.7731  217.3394 H   0  0  0  0  0  0  0  0  0  0  0  0
  144.8464   71.9978  217.1792 H   0  0  0  0  0  0  0  0  0  0  0  0
  142.5308   72.8726  218.2723 H   0  0  0  0  0  0  0  0  0  0  0  0
  143.3695   71.3509  218.7646 H   0  0  0  0  0  0  0  0  0  0  0  0
  139.5925   77.8997  222.4061 H   0  0  0  0  0  0  0  0  0  0  0  0
  140.7824   77.0554  223.4826 H   0  0  0  0  0  0  0  0  0  0  0  0
  140.6692   79.7447  223.2550 H   0  0  0  0  0  0  0  0  0  0  0  0
  142.2173   78.8007  223.5381 H   0  0  0  0  0  0  0  0  0  0  0  0
  143.0080   79.3230  221.5890 H   0  0  0  0  0  0  0  0  0  0  0  0
  140.2649   79.4732  220.4740 H   0  0  0  0  0  0  0  0  0  0  0  0
  141.7906   79.7485  219.5573 H   0  0  0  0  0  0  0  0  0  0  0  0
  140.7716   77.3830  219.4200 H   0  0  0  0  0  0  0  0  0  0  0  0
  142.5160   77.5002  219.8821 H   0  0  0  0  0  0  0  0  0  0  0  0
  141.5780   72.7707  226.1685 H   0  0  0  0  0  0  0  0  0  0  0  0
  141.0646   72.3690  228.5771 H   0  0  0  0  0  0  0  0  0  0  0  0
  1  2  2  0
  2  3  1  0
  3  4  2  0
  4  5  1  0
  5  6  1  0
  6  7  1  0
  7  8  1  0
  8  9  2  0
  9 10  1  0
 10 11  1  0
 11 12  1  0
 12 13  1  0
 13 14  1  0
 14 15  1  0
 15 16  1  0
 10 17  2  0
 17 18  1  0
 18 19  1  0
 19 20  1  0
 20 21  1  0
 21 22  1  0
 22 23  1  0
 23 24  1  0
 18 25  2  0
  4 26  1  0
 26 27  2  0
 27  1  1  0
 25  8  1  0
 16 11  1  0
 24 19  1  0
  1 28  1  0
  2 29  1  0
  3 30  1  0
  5 31  1  0
  5 32  1  0
  6 33  1  0
  6 34  1  0
  7 35  1  0
  9 36  1  0
 12 37  1  0
 12 38  1  0
 13 39  1  0
 13 40  1  0
 14 41  1  0
 15 42  1  0
 15 43  1  0
 16 44  1  0
 16 45  1  0
 20 46  1  0
 20 47  1  0
 21 48  1  0
 21 49  1  0
 22 50  1  0
 23 51  1  0
 23 52  1  0
 24 53  1  0
 24 54  1  0
 26 55  1  0
 27 56  1  0
M  END
>  <UniqueID>  (8) 
518

>  <SMILES>  (8) 
c1ccc(CCNc2cc(N3CCNCC3)nc(N3CCNCC3)n2)cc1

>  <Energy>  (8) 
60.55726351164468

>  <Genealogy>  (8) 
c1ccc(CCNc2cc(N3CCNCC3)nc(N3CCNCC3)n2)cc1 (3D coordinates assigned)
c1ccc(CCNc2cc(N3CCNCC3)nc(N3CCNCC3)n2)cc1 (nonaromatic ring conformer: 60.55726351164468 kcal/mol)

>  <smiles>  (8) 
c1ccc(CCNc2cc(N3CCNCC3)nc(N3CCNCC3)n2)cc1

>  <score_type>  (8) 
oracle

>  <origin>  (8) 
autodockgpu

>  <m_score__min__energy>  (8) 
-9.2300000000000004

>  <m_primary>  (8) 
energy

>  <meeko>  (8) 
{"free_energy": -9.18, "intermolecular_energy": -10.97, "internal_energy": -0.83, "cluster_size": 19, "cluster_id": 1, "rank_in_cluster": 5}

>  <energy>  (8) 
-9.01

>  <cluster_rmsd>  (8) 
0.42

>  <rmsd>  (8) 
271.03

>  <cluster>  (8) 
1

$$$$
USJHBUDYBBTILB-MPIMZMORNA-N
     RDKit          3D

 56 59  0  0  0  0  0  0  0  0999 V2000
  140.0230   70.4360  228.3080 C   0  0  0  0  0  0  0  0  0  0  0  0
  139.5700   69.5880  227.2950 C   0  0  0  0  0  0  0  0  0  0  0  0
  139.8410   69.8870  225.9560 C   0  0  0  0  0  0  0  0  0  0  0  0
  140.5660   71.0450  225.6230 C   0  0  0  0  0  0  0  0  0  0  0  0
  140.8900   71.3510  224.1820 C   0  0  0  0  0  0  0  0  0  0  0  0
  139.6300   71.3360  223.3070 C   0  0  0  0  0  0  0  0  0  0  0  0
  139.3880   72.6440  222.6980 N   0  0  0  0  0  0  0  0  0  0  0  0
  140.4280   73.4160  222.0780 C   0  0  0  0  0  0  0  0  0  0  0  0
  141.4930   72.7750  221.4400 C   0  0  0  0  0  0  0  0  0  0  0  0
  142.4850   73.5570  220.8330 C   0  0  0  0  0  0  0  0  0  0  0  0
  143.5890   72.9510  220.1340 N   0  0  0  0  0  0  0  0  0  0  0  0
  144.8430   72.7060  220.8560 C   0  0  0  0  0  0  0  0  0  0  0  0
  145.9460   72.2490  219.8920 C   0  0  0  0  0  0  0  0  0  0  0  0
  145.8840   73.0180  218.6430 N   0  0  0  0  0  0  0  0  0  0  0  0
  144.6340   72.7820  217.8930 C   0  0  0  0  0  0  0  0  0  0  0  0
  143.4320   72.4000  218.7820 C   0  0  0  0  0  0  0  0  0  0  0  0
  142.3700   74.9120  220.8610 N   0  0  0  0  0  0  0  0  0  0  0  0
  141.3320   75.5290  221.4890 C   0  0  0  0  0  0  0  0  0  0  0  0
  141.2460   76.9690  221.5020 N   0  0  0  0  0  0  0  0  0  0  0  0
  140.7290   77.6830  222.6790 C   0  0  0  0  0  0  0  0  0  0  0  0
  141.4820   79.0110  222.9190 C   0  0  0  0  0  0  0  0  0  0  0  0
  142.0680   79.6120  221.7050 N   0  0  0  0  0  0  0  0  0  0  0  0
  141.3570   79.2210  220.4840 C   0  0  0  0  0  0  0  0  0  0  0  0
  141.4900   77.7120  220.2590 C   0  0  0  0  0  0  0  0  0  0  0  0
  140.3760   74.7740  222.0910 N   0  0  0  0  0  0  0  0  0  0  0  0
  141.0270   71.8870  226.6480 C   0  0  0  0  0  0  0  0  0  0  0  0
  140.7530   71.5850  227.9850 C   0  0  0  0  0  0  0  0  0  0  0  0
  139.8057   70.2004  229.3603 H   0  0  0  0  0  0  0  0  0  0  0  0
  138.9990   68.6833  227.5508 H   0  0  0  0  0  0  0  0  0  0  0  0
  139.4861   69.2145  225.1611 H   0  0  0  0  0  0  0  0  0  0  0  0
  141.3539   72.3467  224.1236 H   0  0  0  0  0  0  0  0  0  0  0  0
  141.5772   70.5764  223.8108 H   0  0  0  0  0  0  0  0  0  0  0  0
  139.7563   70.5880  222.5104 H   0  0  0  0  0  0  0  0  0  0  0  0
  138.7688   71.0858  223.9440 H   0  0  0  0  0  0  0  0  0  0  0  0
  138.4150   73.0230  222.7170 H   0  0  0  0  0  0  0  0  0  0  0  0
  141.5517   71.6769  221.4146 H   0  0  0  0  0  0  0  0  0  0  0  0
  145.1604   73.6345  221.3531 H   0  0  0  0  0  0  0  0  0  0  0  0
  144.6731   71.9129  221.5991 H   0  0  0  0  0  0  0  0  0  0  0  0
  146.9273   72.4033  220.3645 H   0  0  0  0  0  0  0  0  0  0  0  0
  145.8007   71.1830  219.6627 H   0  0  0  0  0  0  0  0  0  0  0  0
  145.9490   74.0370  218.8790 H   0  0  0  0  0  0  0  0  0  0  0  0
  144.3806   73.7014  217.3448 H   0  0  0  0  0  0  0  0  0  0  0  0
  144.8199   71.9283  217.2247 H   0  0  0  0  0  0  0  0  0  0  0  0
  142.5104   72.8000  218.3341 H   0  0  0  0  0  0  0  0  0  0  0  0
  143.3786   71.3035  218.8516 H   0  0  0  0  0  0  0  0  0  0  0  0
  139.6622   77.9013  222.5232 H   0  0  0  0  0  0  0  0  0  0  0  0
  140.8758   77.0417  223.5606 H   0  0  0  0  0  0  0  0  0  0  0  0
  140.7746   79.7333  223.3525 H   0  0  0  0  0  0  0  0  0  0  0  0
  142.3228   78.7766  223.5884 H   0  0  0  0  0  0  0  0  0  0  0  0
  143.0650   79.3050  221.6210 H   0  0  0  0  0  0  0  0  0  0  0  0
  140.2930   79.4819  220.5830 H   0  0  0  0  0  0  0  0  0  0  0  0
  141.7941   79.7532  219.6263 H   0  0  0  0  0  0  0  0  0  0  0  0
  140.7577   77.3957  219.5016 H   0  0  0  0  0  0  0  0  0  0  0  0
  142.5141   77.4982  219.9192 H   0  0  0  0  0  0  0  0  0  0  0  0
  141.6062   72.7880  226.3977 H   0  0  0  0  0  0  0  0  0  0  0  0
  141.1115   72.2511  228.7836 H   0  0  0  0  0  0  0  0  0  0  0  0
  1  2  2  0
  2  3  1  0
  3  4  2  0
  4  5  1  0
  5  6  1  0
  6  7  1  0
  7  8  1  0
  8  9  2  0
  9 10  1  0
 10 11  1  0
 11 12  1  0
 12 13  1  0
 13 14  1  0
 14 15  1  0
 15 16  1  0
 10 17  2  0
 17 18  1  0
 18 19  1  0
 19 20  1  0
 20 21  1  0
 21 22  1  0
 22 23  1  0
 23 24  1  0
 18 25  2  0
  4 26  1  0
 26 27  2  0
 27  1  1  0
 25  8  1  0
 16 11  1  0
 24 19  1  0
  1 28  1  0
  2 29  1  0
  3 30  1  0
  5 31  1  0
  5 32  1  0
  6 33  1  0
  6 34  1  0
  7 35  1  0
  9 36  1  0
 12 37  1  0
 12 38  1  0
 13 39  1  0
 13 40  1  0
 14 41  1  0
 15 42  1  0
 15 43  1  0
 16 44  1  0
 16 45  1  0
 20 46  1  0
 20 47  1  0
 21 48  1  0
 21 49  1  0
 22 50  1  0
 23 51  1  0
 23 52  1  0
 24 53  1  0
 24 54  1  0
 26 55  1  0
 27 56  1  0
M  END
>  <UniqueID>  (9) 
518

>  <SMILES>  (9) 
c1ccc(CCNc2cc(N3CCNCC3)nc(N3CCNCC3)n2)cc1

>  <Energy>  (9) 
60.55726351164468

>  <Genealogy>  (9) 
c1ccc(CCNc2cc(N3CCNCC3)nc(N3CCNCC3)n2)cc1 (3D coordinates assigned)
c1ccc(CCNc2cc(N3CCNCC3)nc(N3CCNCC3)n2)cc1 (nonaromatic ring conformer: 60.55726351164468 kcal/mol)

>  <smiles>  (9) 
c1ccc(CCNc2cc(N3CCNCC3)nc(N3CCNCC3)n2)cc1

>  <score_type>  (9) 
oracle

>  <origin>  (9) 
autodockgpu

>  <m_score__min__energy>  (9) 
-9.2300000000000004

>  <m_primary>  (9) 
energy

>  <meeko>  (9) 
{"free_energy": -9.23, "intermolecular_energy": -11.02, "internal_energy": -0.83, "cluster_size": 19, "cluster_id": 1, "rank_in_cluster": 1}

>  <energy>  (9) 
-9.01

>  <cluster_rmsd>  (9) 
0.44

>  <rmsd>  (9) 
270.93

>  <cluster>  (9) 
1

$$$$
USJHBUDYBBTILB-MPIMZMORNA-N
     RDKit          3D

 56 59  0  0  0  0  0  0  0  0999 V2000
  140.4210   70.1720  228.1910 C   0  0  0  0  0  0  0  0  0  0  0  0
  141.0350   71.4070  227.9690 C   0  0  0  0  0  0  0  0  0  0  0  0
  141.1350   71.9150  226.6700 C   0  0  0  0  0  0  0  0  0  0  0  0
  140.6250   71.1850  225.5820 C   0  0  0  0  0  0  0  0  0  0  0  0
  140.7000   71.7470  224.1850 C   0  0  0  0  0  0  0  0  0  0  0  0
  139.3930   71.5170  223.4160 C   0  0  0  0  0  0  0  0  0  0  0  0
  139.3020   72.3910  222.2470 N   0  0  0  0  0  0  0  0  0  0  0  0
  140.3910   73.2160  221.8050 C   0  0  0  0  0  0  0  0  0  0  0  0
  141.5450   72.6300  221.2770 C   0  0  0  0  0  0  0  0  0  0  0  0
  142.5850   73.4620  220.8420 C   0  0  0  0  0  0  0  0  0  0  0  0
  143.7850   72.9150  220.2610 N   0  0  0  0  0  0  0  0  0  0  0  0
  145.0680   73.1240  220.9420 C   0  0  0  0  0  0  0  0  0  0  0  0
  146.2330   72.6450  220.0670 C   0  0  0  0  0  0  0  0  0  0  0  0
  146.0070   73.0190  218.6650 N   0  0  0  0  0  0  0  0  0  0  0  0
  144.8250   72.3490  218.0840 C   0  0  0  0  0  0  0  0  0  0  0  0
  143.7330   71.9970  219.1160 C   0  0  0  0  0  0  0  0  0  0  0  0
  142.4330   74.8110  220.9250 N   0  0  0  0  0  0  0  0  0  0  0  0
  141.3080   75.3740  221.4440 C   0  0  0  0  0  0  0  0  0  0  0  0
  141.1850   76.8090  221.5190 N   0  0  0  0  0  0  0  0  0  0  0  0
  140.6710   77.4590  222.7340 C   0  0  0  0  0  0  0  0  0  0  0  0
  141.3930   78.7970  223.0160 C   0  0  0  0  0  0  0  0  0  0  0  0
  141.9390   79.4630  221.8180 N   0  0  0  0  0  0  0  0  0  0  0  0
  141.2160   79.1030  220.5940 C   0  0  0  0  0  0  0  0  0  0  0  0
  141.3850   77.6090  220.3040 C   0  0  0  0  0  0  0  0  0  0  0  0
  140.3030   74.5700  221.8800 N   0  0  0  0  0  0  0  0  0  0  0  0
  139.9990   69.9500  225.8160 C   0  0  0  0  0  0  0  0  0  0  0  0
  139.9020   69.4440  227.1160 C   0  0  0  0  0  0  0  0  0  0  0  0
  140.3458   69.7718  229.2128 H   0  0  0  0  0  0  0  0  0  0  0  0
  141.4399   71.9800  228.8162 H   0  0  0  0  0  0  0  0  0  0  0  0
  141.6147   72.8899  226.4987 H   0  0  0  0  0  0  0  0  0  0  0  0
  140.8943   72.8281  224.2445 H   0  0  0  0  0  0  0  0  0  0  0  0
  141.5111   71.2325  223.6489 H   0  0  0  0  0  0  0  0  0  0  0  0
  139.3527   70.4692  223.0837 H   0  0  0  0  0  0  0  0  0  0  0  0
  138.5515   71.7460  224.0864 H   0  0  0  0  0  0  0  0  0  0  0  0
  138.4030   72.4090  221.7150 H   0  0  0  0  0  0  0  0  0  0  0  0
  141.6349   71.5361  221.2044 H   0  0  0  0  0  0  0  0  0  0  0  0
  145.1933   74.1960  221.1542 H   0  0  0  0  0  0  0  0  0  0  0  0
  145.0689   72.5460  221.8779 H   0  0  0  0  0  0  0  0  0  0  0  0
  147.1660   73.1085  220.4200 H   0  0  0  0  0  0  0  0  0  0  0  0
  146.3054   71.5496  220.1371 H   0  0  0  0  0  0  0  0  0  0  0  0
  145.8640   74.0560  218.6170 H   0  0  0  0  0  0  0  0  0  0  0  0
  144.3850   73.0170  217.3289 H   0  0  0  0  0  0  0  0  0  0  0  0
  145.1762   71.3988  217.6554 H   0  0  0  0  0  0  0  0  0  0  0  0
  142.7457   72.0729  218.6370 H   0  0  0  0  0  0  0  0  0  0  0  0
  143.9047   70.9721  219.4766 H   0  0  0  0  0  0  0  0  0  0  0  0
  139.5960   77.6540  222.6064 H   0  0  0  0  0  0  0  0  0  0  0  0
  140.8513   76.7861  223.5853 H   0  0  0  0  0  0  0  0  0  0  0  0
  140.6749   79.4810  223.4919 H   0  0  0  0  0  0  0  0  0  0  0  0
  142.2524   78.5586  223.6599 H   0  0  0  0  0  0  0  0  0  0  0  0
  142.9420   79.1870  221.7040 H   0  0  0  0  0  0  0  0  0  0  0  0
  140.1474   79.3302  220.7223 H   0  0  0  0  0  0  0  0  0  0  0  0
  141.6229   79.6818  219.7517 H   0  0  0  0  0  0  0  0  0  0  0  0
  140.6469   77.3041  219.5475 H   0  0  0  0  0  0  0  0  0  0  0  0
  142.4078   77.4377  219.9372 H   0  0  0  0  0  0  0  0  0  0  0  0
  139.5832   69.3783  224.9732 H   0  0  0  0  0  0  0  0  0  0  0  0
  139.4171   68.4726  227.2930 H   0  0  0  0  0  0  0  0  0  0  0  0
  1  2  2  0
  2  3  1  0
  3  4  2  0
  4  5  1  0
  5  6  1  0
  6  7  1  0
  7  8  1  0
  8  9  2  0
  9 10  1  0
 10 11  1  0
 11 12  1  0
 12 13  1  0
 13 14  1  0
 14 15  1  0
 15 16  1  0
 10 17  2  0
 17 18  1  0
 18 19  1  0
 19 20  1  0
 20 21  1  0
 21 22  1  0
 22 23  1  0
 23 24  1  0
 18 25  2  0
  4 26  1  0
 26 27  2  0
 27  1  1  0
 25  8  1  0
 16 11  1  0
 24 19  1  0
  1 28  1  0
  2 29  1  0
  3 30  1  0
  5 31  1  0
  5 32  1  0
  6 33  1  0
  6 34  1  0
  7 35  1  0
  9 36  1  0
 12 37  1  0
 12 38  1  0
 13 39  1  0
 13 40  1  0
 14 41  1  0
 15 42  1  0
 15 43  1  0
 16 44  1  0
 16 45  1  0
 20 46  1  0
 20 47  1  0
 21 48  1  0
 21 49  1  0
 22 50  1  0
 23 51  1  0
 23 52  1  0
 24 53  1  0
 24 54  1  0
 26 55  1  0
 27 56  1  0
M  END
>  <UniqueID>  (10) 
518

>  <SMILES>  (10) 
c1ccc(CCNc2cc(N3CCNCC3)nc(N3CCNCC3)n2)cc1

>  <Energy>  (10) 
60.55726351164468

>  <Genealogy>  (10) 
c1ccc(CCNc2cc(N3CCNCC3)nc(N3CCNCC3)n2)cc1 (3D coordinates assigned)
c1ccc(CCNc2cc(N3CCNCC3)nc(N3CCNCC3)n2)cc1 (nonaromatic ring conformer: 60.55726351164468 kcal/mol)

>  <smiles>  (10) 
c1ccc(CCNc2cc(N3CCNCC3)nc(N3CCNCC3)n2)cc1

>  <score_type>  (10) 
oracle

>  <origin>  (10) 
autodockgpu

>  <m_score__min__energy>  (10) 
-9.2300000000000004

>  <m_primary>  (10) 
energy

>  <meeko>  (10) 
{"free_energy": -9.02, "intermolecular_energy": -10.81, "internal_energy": -0.83, "cluster_size": 19, "cluster_id": 1, "rank_in_cluster": 7}

>  <energy>  (10) 
-9.0

>  <cluster_rmsd>  (10) 
0.39

>  <rmsd>  (10) 
271.04

>  <cluster>  (10) 
1

$$$$
USJHBUDYBBTILB-MPIMZMORNA-N
     RDKit          3D

 56 59  0  0  0  0  0  0  0  0999 V2000
  141.0660   71.4070  228.2970 C   0  0  0  0  0  0  0  0  0  0  0  0
  140.3370   70.2400  228.0580 C   0  0  0  0  0  0  0  0  0  0  0  0
  139.9700   69.8980  226.7530 C   0  0  0  0  0  0  0  0  0  0  0  0
  140.3280   70.7270  225.6760 C   0  0  0  0  0  0  0  0  0  0  0  0
  139.9640   70.3420  224.2640 C   0  0  0  0  0  0  0  0  0  0  0  0
  139.1430   71.4400  223.5760 C   0  0  0  0  0  0  0  0  0  0  0  0
  139.5840   71.6500  222.1970 N   0  0  0  0  0  0  0  0  0  0  0  0
  140.4110   72.7570  221.8060 C   0  0  0  0  0  0  0  0  0  0  0  0
  141.6690   72.5280  221.2420 C   0  0  0  0  0  0  0  0  0  0  0  0
  142.4470   73.6280  220.8590 C   0  0  0  0  0  0  0  0  0  0  0  0
  143.7380   73.4520  220.2450 N   0  0  0  0  0  0  0  0  0  0  0  0
  143.9280   72.3650  219.2780 C   0  0  0  0  0  0  0  0  0  0  0  0
  145.4080   72.2250  218.9000 C   0  0  0  0  0  0  0  0  0  0  0  0
  146.2570   72.3910  220.0860 N   0  0  0  0  0  0  0  0  0  0  0  0
  146.1630   73.7460  220.6650 C   0  0  0  0  0  0  0  0  0  0  0  0
  144.8090   74.4430  220.4150 C   0  0  0  0  0  0  0  0  0  0  0  0
  141.9470   74.8830  221.0230 N   0  0  0  0  0  0  0  0  0  0  0  0
  140.7220   75.0980  221.5760 C   0  0  0  0  0  0  0  0  0  0  0  0
  140.2270   76.4420  221.7390 N   0  0  0  0  0  0  0  0  0  0  0  0
  138.7840   76.7250  221.6990 C   0  0  0  0  0  0  0  0  0  0  0  0
  138.3910   77.8360  222.6990 C   0  0  0  0  0  0  0  0  0  0  0  0
  139.4720   78.7900  223.0120 N   0  0  0  0  0  0  0  0  0  0  0  0
  140.4580   78.8980  221.9330 C   0  0  0  0  0  0  0  0  0  0  0  0
  141.1800   77.5600  221.7440 C   0  0  0  0  0  0  0  0  0  0  0  0
  139.9710   74.0330  221.9630 N   0  0  0  0  0  0  0  0  0  0  0  0
  141.0710   71.8930  225.9230 C   0  0  0  0  0  0  0  0  0  0  0  0
  141.4340   72.2330  227.2300 C   0  0  0  0  0  0  0  0  0  0  0  0
  141.3508   71.6766  229.3247 H   0  0  0  0  0  0  0  0  0  0  0  0
  140.0512   69.5891  228.8975 H   0  0  0  0  0  0  0  0  0  0  0  0
  139.3987   68.9763  226.5684 H   0  0  0  0  0  0  0  0  0  0  0  0
  140.8872   70.1734  223.6902 H   0  0  0  0  0  0  0  0  0  0  0  0
  139.3540   69.4274  224.3019 H   0  0  0  0  0  0  0  0  0  0  0  0
  138.0832   71.1454  223.5721 H   0  0  0  0  0  0  0  0  0  0  0  0
  139.2847   72.3785  224.1320 H   0  0  0  0  0  0  0  0  0  0  0  0
  139.2820   70.9600  221.4730 H   0  0  0  0  0  0  0  0  0  0  0  0
  142.0414   71.5026  221.1014 H   0  0  0  0  0  0  0  0  0  0  0  0
  143.5785   71.4215  219.7227 H   0  0  0  0  0  0  0  0  0  0  0  0
  143.3524   72.5964  218.3697 H   0  0  0  0  0  0  0  0  0  0  0  0
  145.5791   71.2277  218.4685 H   0  0  0  0  0  0  0  0  0  0  0  0
  145.6640   73.0034  218.1661 H   0  0  0  0  0  0  0  0  0  0  0  0
  145.9550   71.6940  220.8090 H   0  0  0  0  0  0  0  0  0  0  0  0
  146.3171   73.6693  221.7514 H   0  0  0  0  0  0  0  0  0  0  0  0
  146.9318   74.3575  220.1701 H   0  0  0  0  0  0  0  0  0  0  0  0
  144.5710   75.0880  221.2736 H   0  0  0  0  0  0  0  0  0  0  0  0
  144.8846   75.0429  219.4961 H   0  0  0  0  0  0  0  0  0  0  0  0
  138.5121   77.0474  220.6831 H   0  0  0  0  0  0  0  0  0  0  0  0
  138.2468   75.8067  221.9784 H   0  0  0  0  0  0  0  0  0  0  0  0
  137.5486   78.3999  222.2720 H   0  0  0  0  0  0  0  0  0  0  0  0
  138.1375   77.3310  223.6428 H   0  0  0  0  0  0  0  0  0  0  0  0
  139.9630   78.4730  223.8800 H   0  0  0  0  0  0  0  0  0  0  0  0
  139.9461   79.1705  220.9983 H   0  0  0  0  0  0  0  0  0  0  0  0
  141.1953   79.6712  222.1949 H   0  0  0  0  0  0  0  0  0  0  0  0
  141.7209   77.5756  220.7863 H   0  0  0  0  0  0  0  0  0  0  0  0
  141.8802   77.4191  222.5806 H   0  0  0  0  0  0  0  0  0  0  0  0
  141.3684   72.5411  225.0854 H   0  0  0  0  0  0  0  0  0  0  0  0
  142.0096   73.1511  227.4191 H   0  0  0  0  0  0  0  0  0  0  0  0
  1  2  2  0
  2  3  1  0
  3  4  2  0
  4  5  1  0
  5  6  1  0
  6  7  1  0
  7  8  1  0
  8  9  2  0
  9 10  1  0
 10 11  1  0
 11 12  1  0
 12 13  1  0
 13 14  1  0
 14 15  1  0
 15 16  1  0
 10 17  2  0
 17 18  1  0
 18 19  1  0
 19 20  1  0
 20 21  1  0
 21 22  1  0
 22 23  1  0
 23 24  1  0
 18 25  2  0
  4 26  1  0
 26 27  2  0
 27  1  1  0
 25  8  1  0
 16 11  1  0
 24 19  1  0
  1 28  1  0
  2 29  1  0
  3 30  1  0
  5 31  1  0
  5 32  1  0
  6 33  1  0
  6 34  1  0
  7 35  1  0
  9 36  1  0
 12 37  1  0
 12 38  1  0
 13 39  1  0
 13 40  1  0
 14 41  1  0
 15 42  1  0
 15 43  1  0
 16 44  1  0
 16 45  1  0
 20 46  1  0
 20 47  1  0
 21 48  1  0
 21 49  1  0
 22 50  1  0
 23 51  1  0
 23 52  1  0
 24 53  1  0
 24 54  1  0
 26 55  1  0
 27 56  1  0
M  END
>  <UniqueID>  (11) 
518

>  <SMILES>  (11) 
c1ccc(CCNc2cc(N3CCNCC3)nc(N3CCNCC3)n2)cc1

>  <Energy>  (11) 
60.55726351164468

>  <Genealogy>  (11) 
c1ccc(CCNc2cc(N3CCNCC3)nc(N3CCNCC3)n2)cc1 (3D coordinates assigned)
c1ccc(CCNc2cc(N3CCNCC3)nc(N3CCNCC3)n2)cc1 (nonaromatic ring conformer: 60.55726351164468 kcal/mol)

>  <smiles>  (11) 
c1ccc(CCNc2cc(N3CCNCC3)nc(N3CCNCC3)n2)cc1

>  <score_type>  (11) 
oracle

>  <origin>  (11) 
autodockgpu

>  <m_score__min__energy>  (11) 
-9.2300000000000004

>  <m_primary>  (11) 
energy

>  <meeko>  (11) 
{"free_energy": -8.42, "intermolecular_energy": -10.21, "internal_energy": -0.9, "cluster_size": 19, "cluster_id": 1, "rank_in_cluster": 19}

>  <energy>  (11) 
-8.99

>  <cluster_rmsd>  (11) 
0.44

>  <rmsd>  (11) 
270.91

>  <cluster>  (11) 
1

$$$$
USJHBUDYBBTILB-MPIMZMORNA-N
     RDKit          3D

 56 59  0  0  0  0  0  0  0  0999 V2000
  140.0390   70.4690  228.2320 C   0  0  0  0  0  0  0  0  0  0  0  0
  139.5790   69.5930  227.2460 C   0  0  0  0  0  0  0  0  0  0  0  0
  139.8490   69.8520  225.8980 C   0  0  0  0  0  0  0  0  0  0  0  0
  140.5790   70.9950  225.5290 C   0  0  0  0  0  0  0  0  0  0  0  0
  140.9020   71.2560  224.0790 C   0  0  0  0  0  0  0  0  0  0  0  0
  139.6310   71.3060  223.2210 C   0  0  0  0  0  0  0  0  0  0  0  0
  139.4050   72.6460  222.6800 N   0  0  0  0  0  0  0  0  0  0  0  0
  140.4430   73.4180  222.0570 C   0  0  0  0  0  0  0  0  0  0  0  0
  141.5070   72.7760  221.4160 C   0  0  0  0  0  0  0  0  0  0  0  0
  142.4970   73.5570  220.8060 C   0  0  0  0  0  0  0  0  0  0  0  0
  143.6000   72.9510  220.1060 N   0  0  0  0  0  0  0  0  0  0  0  0
  144.8390   72.6610  220.8370 C   0  0  0  0  0  0  0  0  0  0  0  0
  145.9470   72.2110  219.8760 C   0  0  0  0  0  0  0  0  0  0  0  0
  145.9170   73.0170  218.6490 N   0  0  0  0  0  0  0  0  0  0  0  0
  144.6730   72.8260  217.8750 C   0  0  0  0  0  0  0  0  0  0  0  0
  143.4520   72.4410  218.7370 C   0  0  0  0  0  0  0  0  0  0  0  0
  142.3820   74.9130  220.8340 N   0  0  0  0  0  0  0  0  0  0  0  0
  141.3460   75.5300  221.4630 C   0  0  0  0  0  0  0  0  0  0  0  0
  141.2600   76.9700  221.4760 N   0  0  0  0  0  0  0  0  0  0  0  0
  140.7360   77.6850  222.6500 C   0  0  0  0  0  0  0  0  0  0  0  0
  141.4880   79.0130  222.8930 C   0  0  0  0  0  0  0  0  0  0  0  0
  142.0800   79.6130  221.6820 N   0  0  0  0  0  0  0  0  0  0  0  0
  141.3770   79.2210  220.4570 C   0  0  0  0  0  0  0  0  0  0  0  0
  141.5110   77.7120  220.2330 C   0  0  0  0  0  0  0  0  0  0  0  0
  140.3910   74.7760  222.0680 N   0  0  0  0  0  0  0  0  0  0  0  0
  141.0470   71.8640  226.5270 C   0  0  0  0  0  0  0  0  0  0  0  0
  140.7740   71.6030  227.8740 C   0  0  0  0  0  0  0  0  0  0  0  0
  139.8227   70.2663  229.2913 H   0  0  0  0  0  0  0  0  0  0  0  0
  139.0042   68.6991  227.5296 H   0  0  0  0  0  0  0  0  0  0  0  0
  139.4886   69.1585  225.1239 H   0  0  0  0  0  0  0  0  0  0  0  0
  141.4268   72.2193  223.9973 H   0  0  0  0  0  0  0  0  0  0  0  0
  141.5342   70.4339  223.7124 H   0  0  0  0  0  0  0  0  0  0  0  0
  139.7339   70.5960  222.3871 H   0  0  0  0  0  0  0  0  0  0  0  0
  138.7735   71.0399  223.8565 H   0  0  0  0  0  0  0  0  0  0  0  0
  138.4440   73.0490  222.7510 H   0  0  0  0  0  0  0  0  0  0  0  0
  141.5655   71.6778  221.3912 H   0  0  0  0  0  0  0  0  0  0  0  0
  145.1667   73.5685  221.3653 H   0  0  0  0  0  0  0  0  0  0  0  0
  144.6434   71.8497  221.5537 H   0  0  0  0  0  0  0  0  0  0  0  0
  146.9241   72.3331  220.3663 H   0  0  0  0  0  0  0  0  0  0  0  0
  145.7857   71.1549  219.6139 H   0  0  0  0  0  0  0  0  0  0  0  0
  145.9970   74.0280  218.9150 H   0  0  0  0  0  0  0  0  0  0  0  0
  144.4440   73.7653  217.3504 H   0  0  0  0  0  0  0  0  0  0  0  0
  144.8525   71.9889  217.1843 H   0  0  0  0  0  0  0  0  0  0  0  0
  142.5439   72.8700  218.2883 H   0  0  0  0  0  0  0  0  0  0  0  0
  143.3783   71.3441  218.7749 H   0  0  0  0  0  0  0  0  0  0  0  0
  139.6701   77.9034  222.4880 H   0  0  0  0  0  0  0  0  0  0  0  0
  140.8773   77.0443  223.5329 H   0  0  0  0  0  0  0  0  0  0  0  0
  140.7785   79.7356  223.3225 H   0  0  0  0  0  0  0  0  0  0  0  0
  142.3254   78.7788  223.5667 H   0  0  0  0  0  0  0  0  0  0  0  0
  143.0780   79.3060  221.6050 H   0  0  0  0  0  0  0  0  0  0  0  0
  140.3124   79.4820  220.5492 H   0  0  0  0  0  0  0  0  0  0  0  0
  141.8201   79.7525  219.6019 H   0  0  0  0  0  0  0  0  0  0  0  0
  140.7826   77.3954  219.4719 H   0  0  0  0  0  0  0  0  0  0  0  0
  142.5366   77.4975  219.8983 H   0  0  0  0  0  0  0  0  0  0  0  0
  141.6308   72.7538  226.2488 H   0  0  0  0  0  0  0  0  0  0  0  0
  141.1379   72.2904  228.6519 H   0  0  0  0  0  0  0  0  0  0  0  0
  1  2  2  0
  2  3  1  0
  3  4  2  0
  4  5  1  0
  5  6  1  0
  6  7  1  0
  7  8  1  0
  8  9  2  0
  9 10  1  0
 10 11  1  0
 11 12  1  0
 12 13  1  0
 13 14  1  0
 14 15  1  0
 15 16  1  0
 10 17  2  0
 17 18  1  0
 18 19  1  0
 19 20  1  0
 20 21  1  0
 21 22  1  0
 22 23  1  0
 23 24  1  0
 18 25  2  0
  4 26  1  0
 26 27  2  0
 27  1  1  0
 25  8  1  0
 16 11  1  0
 24 19  1  0
  1 28  1  0
  2 29  1  0
  3 30  1  0
  5 31  1  0
  5 32  1  0
  6 33  1  0
  6 34  1  0
  7 35  1  0
  9 36  1  0
 12 37  1  0
 12 38  1  0
 13 39  1  0
 13 40  1  0
 14 41  1  0
 15 42  1  0
 15 43  1  0
 16 44  1  0
 16 45  1  0
 20 46  1  0
 20 47  1  0
 21 48  1  0
 21 49  1  0
 22 50  1  0
 23 51  1  0
 23 52  1  0
 24 53  1  0
 24 54  1  0
 26 55  1  0
 27 56  1  0
M  END
>  <UniqueID>  (12) 
518

>  <SMILES>  (12) 
c1ccc(CCNc2cc(N3CCNCC3)nc(N3CCNCC3)n2)cc1

>  <Energy>  (12) 
60.55726351164468

>  <Genealogy>  (12) 
c1ccc(CCNc2cc(N3CCNCC3)nc(N3CCNCC3)n2)cc1 (3D coordinates assigned)
c1ccc(CCNc2cc(N3CCNCC3)nc(N3CCNCC3)n2)cc1 (nonaromatic ring conformer: 60.55726351164468 kcal/mol)

>  <smiles>  (12) 
c1ccc(CCNc2cc(N3CCNCC3)nc(N3CCNCC3)n2)cc1

>  <score_type>  (12) 
oracle

>  <origin>  (12) 
autodockgpu

>  <m_score__min__energy>  (12) 
-9.2300000000000004

>  <m_primary>  (12) 
energy

>  <meeko>  (12) 
{"free_energy": -9.21, "intermolecular_energy": -11.0, "internal_energy": -0.83, "cluster_size": 19, "cluster_id": 1, "rank_in_cluster": 3}

>  <energy>  (12) 
-8.98

>  <cluster_rmsd>  (12) 
0.44

>  <rmsd>  (12) 
270.97

>  <cluster>  (12) 
1

$$$$
USJHBUDYBBTILB-MPIMZMORNA-N
     RDKit          3D

 56 59  0  0  0  0  0  0  0  0999 V2000
  139.7990   69.8010  228.0790 C   0  0  0  0  0  0  0  0  0  0  0  0
  140.3840   71.0640  227.9730 C   0  0  0  0  0  0  0  0  0  0  0  0
  140.7290   71.5740  226.7180 C   0  0  0  0  0  0  0  0  0  0  0  0
  140.4930   70.8170  225.5570 C   0  0  0  0  0  0  0  0  0  0  0  0
  140.8310   71.3790  224.2000 C   0  0  0  0  0  0  0  0  0  0  0  0
  139.6120   71.3690  223.2680 C   0  0  0  0  0  0  0  0  0  0  0  0
  139.3850   72.6850  222.6710 N   0  0  0  0  0  0  0  0  0  0  0  0
  140.4310   73.4440  222.0450 C   0  0  0  0  0  0  0  0  0  0  0  0
  141.4930   72.7900  221.4150 C   0  0  0  0  0  0  0  0  0  0  0  0
  142.4900   73.5580  220.8010 C   0  0  0  0  0  0  0  0  0  0  0  0
  143.5920   72.9380  220.1120 N   0  0  0  0  0  0  0  0  0  0  0  0
  144.8430   72.6910  220.8390 C   0  0  0  0  0  0  0  0  0  0  0  0
  145.9450   72.2160  219.8820 C   0  0  0  0  0  0  0  0  0  0  0  0
  145.8920   72.9750  218.6260 N   0  0  0  0  0  0  0  0  0  0  0  0
  144.6420   72.7400  217.8750 C   0  0  0  0  0  0  0  0  0  0  0  0
  143.4350   72.3750  218.7640 C   0  0  0  0  0  0  0  0  0  0  0  0
  142.3840   74.9150  220.8150 N   0  0  0  0  0  0  0  0  0  0  0  0
  141.3490   75.5450  221.4330 C   0  0  0  0  0  0  0  0  0  0  0  0
  141.2720   76.9850  221.4300 N   0  0  0  0  0  0  0  0  0  0  0  0
  140.6940   77.7130  222.5710 C   0  0  0  0  0  0  0  0  0  0  0  0
  141.4420   79.0380  222.8410 C   0  0  0  0  0  0  0  0  0  0  0  0
  142.0980   79.6250  221.6570 N   0  0  0  0  0  0  0  0  0  0  0  0
  141.4540   79.2280  220.4010 C   0  0  0  0  0  0  0  0  0  0  0  0
  141.5890   77.7160  220.1960 C   0  0  0  0  0  0  0  0  0  0  0  0
  140.3870   74.8030  222.0420 N   0  0  0  0  0  0  0  0  0  0  0  0
  139.8930   69.5520  225.6710 C   0  0  0  0  0  0  0  0  0  0  0  0
  139.5520   69.0450  226.9290 C   0  0  0  0  0  0  0  0  0  0  0  0
  139.5321   69.4002  229.0680 H   0  0  0  0  0  0  0  0  0  0  0  0
  140.5738   71.6589  228.8786 H   0  0  0  0  0  0  0  0  0  0  0  0
  141.1867   72.5711  226.6385 H   0  0  0  0  0  0  0  0  0  0  0  0
  141.1814   72.4149  224.3192 H   0  0  0  0  0  0  0  0  0  0  0  0
  141.6140   70.7502  223.7511 H   0  0  0  0  0  0  0  0  0  0  0  0
  139.7814   70.6364  222.4652 H   0  0  0  0  0  0  0  0  0  0  0  0
  138.7253   71.1006  223.8611 H   0  0  0  0  0  0  0  0  0  0  0  0
  138.4190   73.0810  222.7040 H   0  0  0  0  0  0  0  0  0  0  0  0
  141.5449   71.6913  221.4016 H   0  0  0  0  0  0  0  0  0  0  0  0
  145.1662   73.6222  221.3273 H   0  0  0  0  0  0  0  0  0  0  0  0
  144.6656   71.9066  221.5895 H   0  0  0  0  0  0  0  0  0  0  0  0
  146.9264   72.3664  220.3556 H   0  0  0  0  0  0  0  0  0  0  0  0
  145.7920   71.1492  219.6619 H   0  0  0  0  0  0  0  0  0  0  0  0
  145.9640   73.9960  218.8530 H   0  0  0  0  0  0  0  0  0  0  0  0
  144.3963   73.6556  217.3171 H   0  0  0  0  0  0  0  0  0  0  0  0
  144.8239   71.8783  217.2159 H   0  0  0  0  0  0  0  0  0  0  0  0
  142.5175   72.7771  218.3096 H   0  0  0  0  0  0  0  0  0  0  0  0
  143.3738   71.2796  218.8438 H   0  0  0  0  0  0  0  0  0  0  0  0
  139.6392   77.9369  222.3537 H   0  0  0  0  0  0  0  0  0  0  0  0
  140.7860   77.0787  223.4650 H   0  0  0  0  0  0  0  0  0  0  0  0
  140.7169   79.7685  223.2290 H   0  0  0  0  0  0  0  0  0  0  0  0
  142.2432   78.8034  223.5572 H   0  0  0  0  0  0  0  0  0  0  0  0
  143.0960   79.3120  221.6320 H   0  0  0  0  0  0  0  0  0  0  0  0
  140.3879   79.4965  220.4379 H   0  0  0  0  0  0  0  0  0  0  0  0
  141.9424   79.7500  219.5649 H   0  0  0  0  0  0  0  0  0  0  0  0
  140.8973   77.3978  219.4021 H   0  0  0  0  0  0  0  0  0  0  0  0
  142.6288   77.4929  219.9149 H   0  0  0  0  0  0  0  0  0  0  0  0
  139.6906   68.9580  224.7675 H   0  0  0  0  0  0  0  0  0  0  0  0
  139.0891   68.0507  227.0138 H   0  0  0  0  0  0  0  0  0  0  0  0
  1  2  2  0
  2  3  1  0
  3  4  2  0
  4  5  1  0
  5  6  1  0
  6  7  1  0
  7  8  1  0
  8  9  2  0
  9 10  1  0
 10 11  1  0
 11 12  1  0
 12 13  1  0
 13 14  1  0
 14 15  1  0
 15 16  1  0
 10 17  2  0
 17 18  1  0
 18 19  1  0
 19 20  1  0
 20 21  1  0
 21 22  1  0
 22 23  1  0
 23 24  1  0
 18 25  2  0
  4 26  1  0
 26 27  2  0
 27  1  1  0
 25  8  1  0
 16 11  1  0
 24 19  1  0
  1 28  1  0
  2 29  1  0
  3 30  1  0
  5 31  1  0
  5 32  1  0
  6 33  1  0
  6 34  1  0
  7 35  1  0
  9 36  1  0
 12 37  1  0
 12 38  1  0
 13 39  1  0
 13 40  1  0
 14 41  1  0
 15 42  1  0
 15 43  1  0
 16 44  1  0
 16 45  1  0
 20 46  1  0
 20 47  1  0
 21 48  1  0
 21 49  1  0
 22 50  1  0
 23 51  1  0
 23 52  1  0
 24 53  1  0
 24 54  1  0
 26 55  1  0
 27 56  1  0
M  END
>  <UniqueID>  (13) 
518

>  <SMILES>  (13) 
c1ccc(CCNc2cc(N3CCNCC3)nc(N3CCNCC3)n2)cc1

>  <Energy>  (13) 
60.55726351164468

>  <Genealogy>  (13) 
c1ccc(CCNc2cc(N3CCNCC3)nc(N3CCNCC3)n2)cc1 (3D coordinates assigned)
c1ccc(CCNc2cc(N3CCNCC3)nc(N3CCNCC3)n2)cc1 (nonaromatic ring conformer: 60.55726351164468 kcal/mol)

>  <smiles>  (13) 
c1ccc(CCNc2cc(N3CCNCC3)nc(N3CCNCC3)n2)cc1

>  <score_type>  (13) 
oracle

>  <origin>  (13) 
autodockgpu

>  <m_score__min__energy>  (13) 
-9.2300000000000004

>  <m_primary>  (13) 
energy

>  <meeko>  (13) 
{"free_energy": -9.12, "intermolecular_energy": -10.91, "internal_energy": -0.82, "cluster_size": 19, "cluster_id": 1, "rank_in_cluster": 6}

>  <energy>  (13) 
-8.94

>  <cluster_rmsd>  (13) 
0.5

>  <rmsd>  (13) 
270.88

>  <cluster>  (13) 
1

$$$$
USJHBUDYBBTILB-MPIMZMORNA-N
     RDKit          3D

 56 59  0  0  0  0  0  0  0  0999 V2000
  140.4940   70.1160  227.9500 C   0  0  0  0  0  0  0  0  0  0  0  0
  139.9790   69.4110  226.8600 C   0  0  0  0  0  0  0  0  0  0  0  0
  140.0310   69.9680  225.5780 C   0  0  0  0  0  0  0  0  0  0  0  0
  140.5970   71.2390  225.3800 C   0  0  0  0  0  0  0  0  0  0  0  0
  140.6860   71.8260  223.9940 C   0  0  0  0  0  0  0  0  0  0  0  0
  139.4180   71.5380  223.1800 C   0  0  0  0  0  0  0  0  0  0  0  0
  139.2200   72.5380  222.1310 N   0  0  0  0  0  0  0  0  0  0  0  0
  140.2680   73.4080  221.6780 C   0  0  0  0  0  0  0  0  0  0  0  0
  140.1340   74.7940  221.8030 C   0  0  0  0  0  0  0  0  0  0  0  0
  141.1810   75.6150  221.3650 C   0  0  0  0  0  0  0  0  0  0  0  0
  141.1120   77.0470  221.4960 N   0  0  0  0  0  0  0  0  0  0  0  0
  141.3760   77.8870  220.3220 C   0  0  0  0  0  0  0  0  0  0  0  0
  141.4510   79.3680  220.7160 C   0  0  0  0  0  0  0  0  0  0  0  0
  142.1750   79.5230  221.9840 N   0  0  0  0  0  0  0  0  0  0  0  0
  141.4740   78.8860  223.1180 C   0  0  0  0  0  0  0  0  0  0  0  0
  140.5970   77.6820  222.7170 C   0  0  0  0  0  0  0  0  0  0  0  0
  142.3040   75.0410  220.8540 N   0  0  0  0  0  0  0  0  0  0  0  0
  142.4260   73.6910  220.7320 C   0  0  0  0  0  0  0  0  0  0  0  0
  143.6300   73.1190  220.1810 N   0  0  0  0  0  0  0  0  0  0  0  0
  143.5680   72.1480  219.0780 C   0  0  0  0  0  0  0  0  0  0  0  0
  144.7400   72.3330  218.0880 C   0  0  0  0  0  0  0  0  0  0  0  0
  145.9550   72.9260  218.6790 N   0  0  0  0  0  0  0  0  0  0  0  0
  146.0620   72.6730  220.1190 C   0  0  0  0  0  0  0  0  0  0  0  0
  144.9100   73.3580  220.8610 C   0  0  0  0  0  0  0  0  0  0  0  0
  141.4060   72.8920  221.1430 N   0  0  0  0  0  0  0  0  0  0  0  0
  141.1230   71.9360  226.4800 C   0  0  0  0  0  0  0  0  0  0  0  0
  141.0670   71.3780  227.7610 C   0  0  0  0  0  0  0  0  0  0  0  0
  140.4490   69.6784  228.9582 H   0  0  0  0  0  0  0  0  0  0  0  0
  139.5322   68.4171  227.0097 H   0  0  0  0  0  0  0  0  0  0  0  0
  139.6272   69.4088  224.7211 H   0  0  0  0  0  0  0  0  0  0  0  0
  140.8195   72.9149  224.0747 H   0  0  0  0  0  0  0  0  0  0  0  0
  141.5405   71.3644  223.4775 H   0  0  0  0  0  0  0  0  0  0  0  0
  139.5084   70.5449  222.7156 H   0  0  0  0  0  0  0  0  0  0  0  0
  138.5541   71.5731  223.8600 H   0  0  0  0  0  0  0  0  0  0  0  0
  138.2720   72.6140  221.6970 H   0  0  0  0  0  0  0  0  0  0  0  0
  139.2231   75.2317  222.2373 H   0  0  0  0  0  0  0  0  0  0  0  0
  142.3327   77.5852  219.8707 H   0  0  0  0  0  0  0  0  0  0  0  0
  140.5542   77.7552  219.6028 H   0  0  0  0  0  0  0  0  0  0  0  0
  141.9765   79.9269  219.9276 H   0  0  0  0  0  0  0  0  0  0  0  0
  140.4295   79.7576  220.8378 H   0  0  0  0  0  0  0  0  0  0  0  0
  143.1210   79.0830  221.8810 H   0  0  0  0  0  0  0  0  0  0  0  0
  142.2280   78.5395  223.8401 H   0  0  0  0  0  0  0  0  0  0  0  0
  140.7990   79.6444  223.5414 H   0  0  0  0  0  0  0  0  0  0  0  0
  140.5985   76.9462  223.5347 H   0  0  0  0  0  0  0  0  0  0  0  0
  139.5741   78.0383  222.5254 H   0  0  0  0  0  0  0  0  0  0  0  0
  143.6108   71.1311  219.4953 H   0  0  0  0  0  0  0  0  0  0  0  0
  142.6276   72.3099  218.5307 H   0  0  0  0  0  0  0  0  0  0  0  0
  145.0035   71.3461  217.6798 H   0  0  0  0  0  0  0  0  0  0  0  0
  144.3908   73.0383  217.3195 H   0  0  0  0  0  0  0  0  0  0  0  0
  145.9380   73.9610  218.5240 H   0  0  0  0  0  0  0  0  0  0  0  0
  146.0193   71.5892  220.3021 H   0  0  0  0  0  0  0  0  0  0  0  0
  147.0171   73.0772  220.4855 H   0  0  0  0  0  0  0  0  0  0  0  0
  144.8536   72.9590  221.8845 H   0  0  0  0  0  0  0  0  0  0  0  0
  145.1001   74.4413  220.8797 H   0  0  0  0  0  0  0  0  0  0  0  0
  141.5811   72.9253  226.3332 H   0  0  0  0  0  0  0  0  0  0  0  0
  141.4736   71.9316  228.6202 H   0  0  0  0  0  0  0  0  0  0  0  0
  1  2  2  0
  2  3  1  0
  3  4  2  0
  4  5  1  0
  5  6  1  0
  6  7  1  0
  7  8  1  0
  8  9  2  0
  9 10  1  0
 10 11  1  0
 11 12  1  0
 12 13  1  0
 13 14  1  0
 14 15  1  0
 15 16  1  0
 10 17  2  0
 17 18  1  0
 18 19  1  0
 19 20  1  0
 20 21  1  0
 21 22  1  0
 22 23  1  0
 23 24  1  0
 18 25  2  0
  4 26  1  0
 26 27  2  0
 27  1  1  0
 25  8  1  0
 16 11  1  0
 24 19  1  0
  1 28  1  0
  2 29  1  0
  3 30  1  0
  5 31  1  0
  5 32  1  0
  6 33  1  0
  6 34  1  0
  7 35  1  0
  9 36  1  0
 12 37  1  0
 12 38  1  0
 13 39  1  0
 13 40  1  0
 14 41  1  0
 15 42  1  0
 15 43  1  0
 16 44  1  0
 16 45  1  0
 20 46  1  0
 20 47  1  0
 21 48  1  0
 21 49  1  0
 22 50  1  0
 23 51  1  0
 23 52  1  0
 24 53  1  0
 24 54  1  0
 26 55  1  0
 27 56  1  0
M  END
>  <UniqueID>  (14) 
518

>  <SMILES>  (14) 
c1ccc(CCNc2cc(N3CCNCC3)nc(N3CCNCC3)n2)cc1

>  <Energy>  (14) 
60.55726351164468

>  <Genealogy>  (14) 
c1ccc(CCNc2cc(N3CCNCC3)nc(N3CCNCC3)n2)cc1 (3D coordinates assigned)
c1ccc(CCNc2cc(N3CCNCC3)nc(N3CCNCC3)n2)cc1 (nonaromatic ring conformer: 60.55726351164468 kcal/mol)

>  <smiles>  (14) 
c1ccc(CCNc2cc(N3CCNCC3)nc(N3CCNCC3)n2)cc1

>  <score_type>  (14) 
oracle

>  <origin>  (14) 
autodockgpu

>  <m_score__min__energy>  (14) 
-9.2300000000000004

>  <m_primary>  (14) 
energy

>  <meeko>  (14) 
{"free_energy": -8.63, "intermolecular_energy": -10.42, "internal_energy": -0.89, "cluster_size": 19, "cluster_id": 1, "rank_in_cluster": 17}

>  <energy>  (14) 
-8.93

>  <cluster_rmsd>  (14) 
1.08

>  <rmsd>  (14) 
271.03

>  <cluster>  (14) 
1

$$$$
USJHBUDYBBTILB-MPIMZMORNA-N
     RDKit          3D

 56 59  0  0  0  0  0  0  0  0999 V2000
  140.5980   70.0550  228.3200 C   0  0  0  0  0  0  0  0  0  0  0  0
  140.2500   69.1980  227.2730 C   0  0  0  0  0  0  0  0  0  0  0  0
  140.2730   69.6590  225.9530 C   0  0  0  0  0  0  0  0  0  0  0  0
  140.6400   70.9860  225.6730 C   0  0  0  0  0  0  0  0  0  0  0  0
  140.6990   71.4750  224.2470 C   0  0  0  0  0  0  0  0  0  0  0  0
  139.3030   71.5270  223.6130 C   0  0  0  0  0  0  0  0  0  0  0  0
  139.3500   72.0980  222.2670 N   0  0  0  0  0  0  0  0  0  0  0  0
  140.4090   72.9610  221.8260 C   0  0  0  0  0  0  0  0  0  0  0  0
  141.5780   72.4180  221.2860 C   0  0  0  0  0  0  0  0  0  0  0  0
  142.5870   73.2880  220.8520 C   0  0  0  0  0  0  0  0  0  0  0  0
  143.8010   72.7860  220.2600 N   0  0  0  0  0  0  0  0  0  0  0  0
  145.0700   72.9570  220.9780 C   0  0  0  0  0  0  0  0  0  0  0  0
  146.2550   72.5410  220.0950 C   0  0  0  0  0  0  0  0  0  0  0  0
  146.0520   73.0040  218.7170 N   0  0  0  0  0  0  0  0  0  0  0  0
  144.8860   72.3680  218.0710 C   0  0  0  0  0  0  0  0  0  0  0  0
  143.7770   71.9440  219.0570 C   0  0  0  0  0  0  0  0  0  0  0  0
  142.3910   74.6310  220.9460 N   0  0  0  0  0  0  0  0  0  0  0  0
  141.2510   75.1520  221.4760 C   0  0  0  0  0  0  0  0  0  0  0  0
  141.0800   76.5810  221.5630 N   0  0  0  0  0  0  0  0  0  0  0  0
  140.1370   77.1710  222.5250 C   0  0  0  0  0  0  0  0  0  0  0  0
  140.6750   78.4940  223.1150 C   0  0  0  0  0  0  0  0  0  0  0  0
  141.6160   79.2190  222.2390 N   0  0  0  0  0  0  0  0  0  0  0  0
  141.4100   78.9180  220.8190 C   0  0  0  0  0  0  0  0  0  0  0  0
  141.7040   77.4390  220.5470 C   0  0  0  0  0  0  0  0  0  0  0  0
  140.2760   74.3110  221.9110 N   0  0  0  0  0  0  0  0  0  0  0  0
  140.9990   71.8380  226.7300 C   0  0  0  0  0  0  0  0  0  0  0  0
  140.9740   71.3740  228.0490 C   0  0  0  0  0  0  0  0  0  0  0  0
  140.5762   69.6918  229.3581 H   0  0  0  0  0  0  0  0  0  0  0  0
  139.9576   68.1594  227.4872 H   0  0  0  0  0  0  0  0  0  0  0  0
  140.0027   68.9801  225.1308 H   0  0  0  0  0  0  0  0  0  0  0  0
  141.1359   72.4844  224.2329 H   0  0  0  0  0  0  0  0  0  0  0  0
  141.3161   70.7734  223.6665 H   0  0  0  0  0  0  0  0  0  0  0  0
  138.8979   70.5060  223.5549 H   0  0  0  0  0  0  0  0  0  0  0  0
  138.6619   72.1658  224.2383 H   0  0  0  0  0  0  0  0  0  0  0  0
  138.5780   71.8600  221.6040 H   0  0  0  0  0  0  0  0  0  0  0  0
  141.7036   71.3283  221.2032 H   0  0  0  0  0  0  0  0  0  0  0  0
  145.1847   74.0136  221.2615 H   0  0  0  0  0  0  0  0  0  0  0  0
  145.0570   72.3199  221.8746 H   0  0  0  0  0  0  0  0  0  0  0  0
  147.1786   72.9853  220.4945 H   0  0  0  0  0  0  0  0  0  0  0  0
  146.3332   71.4438  220.0955 H   0  0  0  0  0  0  0  0  0  0  0  0
  145.9040   74.0420  218.7340 H   0  0  0  0  0  0  0  0  0  0  0  0
  144.4562   73.0818  217.3528 H   0  0  0  0  0  0  0  0  0  0  0  0
  145.2510   71.4496  217.5879 H   0  0  0  0  0  0  0  0  0  0  0  0
  142.7984   72.0454  218.5649 H   0  0  0  0  0  0  0  0  0  0  0  0
  143.9489   70.8989  219.3539 H   0  0  0  0  0  0  0  0  0  0  0  0
  139.1839   77.3704  222.0133 H   0  0  0  0  0  0  0  0  0  0  0  0
  139.9993   76.4581  223.3513 H   0  0  0  0  0  0  0  0  0  0  0  0
  139.8179   79.1529  223.3179 H   0  0  0  0  0  0  0  0  0  0  0  0
  141.2367   78.2256  224.0219 H   0  0  0  0  0  0  0  0  0  0  0  0
  142.5940   78.9510  222.4970 H   0  0  0  0  0  0  0  0  0  0  0  0
  140.3667   79.1375  220.5480 H   0  0  0  0  0  0  0  0  0  0  0  0
  142.0910   79.5374  220.2169 H   0  0  0  0  0  0  0  0  0  0  0  0
  141.3076   77.1700  219.5568 H   0  0  0  0  0  0  0  0  0  0  0  0
  142.7929   77.2868  220.5816 H   0  0  0  0  0  0  0  0  0  0  0  0
  141.3011   72.8746  226.5196 H   0  0  0  0  0  0  0  0  0  0  0  0
  141.2504   72.0473  228.8738 H   0  0  0  0  0  0  0  0  0  0  0  0
  1  2  2  0
  2  3  1  0
  3  4  2  0
  4  5  1  0
  5  6  1  0
  6  7  1  0
  7  8  1  0
  8  9  2  0
  9 10  1  0
 10 11  1  0
 11 12  1  0
 12 13  1  0
 13 14  1  0
 14 15  1  0
 15 16  1  0
 10 17  2  0
 17 18  1  0
 18 19  1  0
 19 20  1  0
 20 21  1  0
 21 22  1  0
 22 23  1  0
 23 24  1  0
 18 25  2  0
  4 26  1  0
 26 27  2  0
 27  1  1  0
 25  8  1  0
 16 11  1  0
 24 19  1  0
  1 28  1  0
  2 29  1  0
  3 30  1  0
  5 31  1  0
  5 32  1  0
  6 33  1  0
  6 34  1  0
  7 35  1  0
  9 36  1  0
 12 37  1  0
 12 38  1  0
 13 39  1  0
 13 40  1  0
 14 41  1  0
 15 42  1  0
 15 43  1  0
 16 44  1  0
 16 45  1  0
 20 46  1  0
 20 47  1  0
 21 48  1  0
 21 49  1  0
 22 50  1  0
 23 51  1  0
 23 52  1  0
 24 53  1  0
 24 54  1  0
 26 55  1  0
 27 56  1  0
M  END
>  <UniqueID>  (15) 
518

>  <SMILES>  (15) 
c1ccc(CCNc2cc(N3CCNCC3)nc(N3CCNCC3)n2)cc1

>  <Energy>  (15) 
60.55726351164468

>  <Genealogy>  (15) 
c1ccc(CCNc2cc(N3CCNCC3)nc(N3CCNCC3)n2)cc1 (3D coordinates assigned)
c1ccc(CCNc2cc(N3CCNCC3)nc(N3CCNCC3)n2)cc1 (nonaromatic ring conformer: 60.55726351164468 kcal/mol)

>  <smiles>  (15) 
c1ccc(CCNc2cc(N3CCNCC3)nc(N3CCNCC3)n2)cc1

>  <score_type>  (15) 
oracle

>  <origin>  (15) 
autodockgpu

>  <m_score__min__energy>  (15) 
-9.2300000000000004

>  <m_primary>  (15) 
energy

>  <meeko>  (15) 
{"free_energy": -8.62, "intermolecular_energy": -10.41, "internal_energy": -0.85, "cluster_size": 19, "cluster_id": 1, "rank_in_cluster": 18}

>  <energy>  (15) 
-8.87

>  <cluster_rmsd>  (15) 
0.99

>  <rmsd>  (15) 
271.03

>  <cluster>  (15) 
1

$$$$
USJHBUDYBBTILB-MPIMZMORNA-N
     RDKit          3D

 56 59  0  0  0  0  0  0  0  0999 V2000
  141.0700   70.9540  227.6460 C   0  0  0  0  0  0  0  0  0  0  0  0
  141.3480   71.8610  226.6210 C   0  0  0  0  0  0  0  0  0  0  0  0
  140.6910   71.7520  225.3910 C   0  0  0  0  0  0  0  0  0  0  0  0
  139.7520   70.7280  225.1780 C   0  0  0  0  0  0  0  0  0  0  0  0
  139.0170   70.6310  223.8660 C   0  0  0  0  0  0  0  0  0  0  0  0
  139.8440   71.2140  222.7130 C   0  0  0  0  0  0  0  0  0  0  0  0
  139.6350   72.6560  222.5820 N   0  0  0  0  0  0  0  0  0  0  0  0
  140.5920   73.5270  221.9610 C   0  0  0  0  0  0  0  0  0  0  0  0
  140.3700   74.9060  221.9310 C   0  0  0  0  0  0  0  0  0  0  0  0
  141.3300   75.7310  221.3290 C   0  0  0  0  0  0  0  0  0  0  0  0
  141.1690   77.1620  221.2960 N   0  0  0  0  0  0  0  0  0  0  0  0
  141.4700   77.8860  220.0560 C   0  0  0  0  0  0  0  0  0  0  0  0
  141.4320   79.4030  220.2880 C   0  0  0  0  0  0  0  0  0  0  0  0
  142.0520   79.7380  221.5760 N   0  0  0  0  0  0  0  0  0  0  0  0
  141.3080   79.1820  222.7240 C   0  0  0  0  0  0  0  0  0  0  0  0
  140.5320   77.8880  222.4020 C   0  0  0  0  0  0  0  0  0  0  0  0
  142.4570   75.1690  220.8140 N   0  0  0  0  0  0  0  0  0  0  0  0
  142.6630   73.8250  220.8430 C   0  0  0  0  0  0  0  0  0  0  0  0
  143.8690   73.2650  220.2830 N   0  0  0  0  0  0  0  0  0  0  0  0
  143.8080   72.1680  219.3050 C   0  0  0  0  0  0  0  0  0  0  0  0
  144.9050   72.3050  218.2240 C   0  0  0  0  0  0  0  0  0  0  0  0
  146.1100   73.0350  218.6620 N   0  0  0  0  0  0  0  0  0  0  0  0
  146.3180   72.9610  220.1110 C   0  0  0  0  0  0  0  0  0  0  0  0
  145.1680   73.6590  220.8440 C   0  0  0  0  0  0  0  0  0  0  0  0
  141.7280   73.0200  221.4130 N   0  0  0  0  0  0  0  0  0  0  0  0
  139.4690   69.8270  226.2180 C   0  0  0  0  0  0  0  0  0  0  0  0
  140.1300   69.9380  227.4460 C   0  0  0  0  0  0  0  0  0  0  0  0
  141.5907   71.0388  228.6112 H   0  0  0  0  0  0  0  0  0  0  0  0
  142.0846   72.6621  226.7812 H   0  0  0  0  0  0  0  0  0  0  0  0
  140.9100   72.4704  224.5873 H   0  0  0  0  0  0  0  0  0  0  0  0
  138.8036   69.5731  223.6534 H   0  0  0  0  0  0  0  0  0  0  0  0
  138.0853   71.2098  223.9491 H   0  0  0  0  0  0  0  0  0  0  0  0
  140.9101   71.0229  222.9049 H   0  0  0  0  0  0  0  0  0  0  0  0
  139.5230   70.7313  221.7781 H   0  0  0  0  0  0  0  0  0  0  0  0
  138.7470   73.0600  222.9570 H   0  0  0  0  0  0  0  0  0  0  0  0
  139.4586   75.3364  222.3717 H   0  0  0  0  0  0  0  0  0  0  0  0
  142.4726   77.5997  219.7054 H   0  0  0  0  0  0  0  0  0  0  0  0
  140.7122   77.6253  219.3025 H   0  0  0  0  0  0  0  0  0  0  0  0
  141.9808   79.9075  219.4791 H   0  0  0  0  0  0  0  0  0  0  0  0
  140.3840   79.7369  220.2982 H   0  0  0  0  0  0  0  0  0  0  0  0
  143.0260   79.3520  221.5850 H   0  0  0  0  0  0  0  0  0  0  0  0
  142.0259   78.9637  223.5283 H   0  0  0  0  0  0  0  0  0  0  0  0
  140.5620   79.9362  223.0150 H   0  0  0  0  0  0  0  0  0  0  0  0
  140.5162   77.2450  223.2943 H   0  0  0  0  0  0  0  0  0  0  0  0
  139.5069   78.1550  222.1056 H   0  0  0  0  0  0  0  0  0  0  0  0
  143.9442   71.2122  219.8322 H   0  0  0  0  0  0  0  0  0  0  0  0
  142.8282   72.2066  218.8065 H   0  0  0  0  0  0  0  0  0  0  0  0
  145.2096   71.2945  217.9140 H   0  0  0  0  0  0  0  0  0  0  0  0
  144.4645   72.8926  217.4050 H   0  0  0  0  0  0  0  0  0  0  0  0
  146.0130   74.0420  218.3910 H   0  0  0  0  0  0  0  0  0  0  0  0
  146.3588   71.9059  220.4193 H   0  0  0  0  0  0  0  0  0  0  0  0
  147.2638   73.4619  220.3651 H   0  0  0  0  0  0  0  0  0  0  0  0
  145.1991   73.3819  221.9081 H   0  0  0  0  0  0  0  0  0  0  0  0
  145.2856   74.7462  220.7248 H   0  0  0  0  0  0  0  0  0  0  0  0
  138.7249   69.0312  226.0662 H   0  0  0  0  0  0  0  0  0  0  0  0
  139.9102   69.2256  228.2548 H   0  0  0  0  0  0  0  0  0  0  0  0
  1  2  2  0
  2  3  1  0
  3  4  2  0
  4  5  1  0
  5  6  1  0
  6  7  1  0
  7  8  1  0
  8  9  2  0
  9 10  1  0
 10 11  1  0
 11 12  1  0
 12 13  1  0
 13 14  1  0
 14 15  1  0
 15 16  1  0
 10 17  2  0
 17 18  1  0
 18 19  1  0
 19 20  1  0
 20 21  1  0
 21 22  1  0
 22 23  1  0
 23 24  1  0
 18 25  2  0
  4 26  1  0
 26 27  2  0
 27  1  1  0
 25  8  1  0
 16 11  1  0
 24 19  1  0
  1 28  1  0
  2 29  1  0
  3 30  1  0
  5 31  1  0
  5 32  1  0
  6 33  1  0
  6 34  1  0
  7 35  1  0
  9 36  1  0
 12 37  1  0
 12 38  1  0
 13 39  1  0
 13 40  1  0
 14 41  1  0
 15 42  1  0
 15 43  1  0
 16 44  1  0
 16 45  1  0
 20 46  1  0
 20 47  1  0
 21 48  1  0
 21 49  1  0
 22 50  1  0
 23 51  1  0
 23 52  1  0
 24 53  1  0
 24 54  1  0
 26 55  1  0
 27 56  1  0
M  END
>  <UniqueID>  (16) 
518

>  <SMILES>  (16) 
c1ccc(CCNc2cc(N3CCNCC3)nc(N3CCNCC3)n2)cc1

>  <Energy>  (16) 
60.55726351164468

>  <Genealogy>  (16) 
c1ccc(CCNc2cc(N3CCNCC3)nc(N3CCNCC3)n2)cc1 (3D coordinates assigned)
c1ccc(CCNc2cc(N3CCNCC3)nc(N3CCNCC3)n2)cc1 (nonaromatic ring conformer: 60.55726351164468 kcal/mol)

>  <smiles>  (16) 
c1ccc(CCNc2cc(N3CCNCC3)nc(N3CCNCC3)n2)cc1

>  <score_type>  (16) 
oracle

>  <origin>  (16) 
autodockgpu

>  <m_score__min__energy>  (16) 
-9.2300000000000004

>  <m_primary>  (16) 
energy

>  <meeko>  (16) 
{"free_energy": -8.78, "intermolecular_energy": -10.57, "internal_energy": -0.88, "cluster_size": 19, "cluster_id": 1, "rank_in_cluster": 16}

>  <energy>  (16) 
-8.78

>  <cluster_rmsd>  (16) 
0.69

>  <rmsd>  (16) 
271.01

>  <cluster>  (16) 
1

$$$$
USJHBUDYBBTILB-MPIMZMORNA-N
     RDKit          3D

 56 59  0  0  0  0  0  0  0  0999 V2000
  140.1320   68.3300  227.9760 C   0  0  0  0  0  0  0  0  0  0  0  0
  139.9620   67.9980  226.6300 C   0  0  0  0  0  0  0  0  0  0  0  0
  140.1410   68.9700  225.6410 C   0  0  0  0  0  0  0  0  0  0  0  0
  140.4870   70.2850  225.9950 C   0  0  0  0  0  0  0  0  0  0  0  0
  140.7150   71.3260  224.9280 C   0  0  0  0  0  0  0  0  0  0  0  0
  139.8220   71.0810  223.7050 C   0  0  0  0  0  0  0  0  0  0  0  0
  139.4860   72.3350  223.0310 N   0  0  0  0  0  0  0  0  0  0  0  0
  140.4480   73.1020  222.2900 C   0  0  0  0  0  0  0  0  0  0  0  0
  141.4560   72.4550  221.5700 C   0  0  0  0  0  0  0  0  0  0  0  0
  142.3720   73.2300  220.8460 C   0  0  0  0  0  0  0  0  0  0  0  0
  143.4130   72.6180  220.0620 N   0  0  0  0  0  0  0  0  0  0  0  0
  143.5320   71.1550  220.0480 C   0  0  0  0  0  0  0  0  0  0  0  0
  144.8130   70.7190  219.3250 C   0  0  0  0  0  0  0  0  0  0  0  0
  145.9280   71.6040  219.6820 N   0  0  0  0  0  0  0  0  0  0  0  0
  145.7160   72.9930  219.2280 C   0  0  0  0  0  0  0  0  0  0  0  0
  144.2320   73.4020  219.1280 C   0  0  0  0  0  0  0  0  0  0  0  0
  142.2400   74.5840  220.8470 N   0  0  0  0  0  0  0  0  0  0  0  0
  141.2580   75.2070  221.5540 C   0  0  0  0  0  0  0  0  0  0  0  0
  141.1510   76.6450  221.5340 N   0  0  0  0  0  0  0  0  0  0  0  0
  140.6370   77.3800  222.6990 C   0  0  0  0  0  0  0  0  0  0  0  0
  141.3730   78.7240  222.8980 C   0  0  0  0  0  0  0  0  0  0  0  0
  141.9360   79.3040  221.6630 N   0  0  0  0  0  0  0  0  0  0  0  0
  141.2180   78.8730  220.4600 C   0  0  0  0  0  0  0  0  0  0  0  0
  141.3710   77.3610  220.2700 C   0  0  0  0  0  0  0  0  0  0  0  0
  140.3760   74.4590  222.2680 N   0  0  0  0  0  0  0  0  0  0  0  0
  140.6680   70.6080  227.3500 C   0  0  0  0  0  0  0  0  0  0  0  0
  140.4860   69.6340  228.3370 C   0  0  0  0  0  0  0  0  0  0  0  0
  139.9873   67.5650  228.7530 H   0  0  0  0  0  0  0  0  0  0  0  0
  139.6871   66.9710  226.3478 H   0  0  0  0  0  0  0  0  0  0  0  0
  140.0104   68.7042  224.5816 H   0  0  0  0  0  0  0  0  0  0  0  0
  140.4884   72.3191  225.3431 H   0  0  0  0  0  0  0  0  0  0  0  0
  141.7653   71.2669  224.6064 H   0  0  0  0  0  0  0  0  0  0  0  0
  140.3536   70.4262  222.9989 H   0  0  0  0  0  0  0  0  0  0  0  0
  138.8884   70.6099  224.0462 H   0  0  0  0  0  0  0  0  0  0  0  0
  138.5010   72.6790  223.0930 H   0  0  0  0  0  0  0  0  0  0  0  0
  141.5291   71.3574  221.5716 H   0  0  0  0  0  0  0  0  0  0  0  0
  143.5590   70.7855  221.0838 H   0  0  0  0  0  0  0  0  0  0  0  0
  142.6662   70.7361  219.5143 H   0  0  0  0  0  0  0  0  0  0  0  0
  145.0609   69.6878  219.6168 H   0  0  0  0  0  0  0  0  0  0  0  0
  144.6466   70.7747  218.2391 H   0  0  0  0  0  0  0  0  0  0  0  0
  146.0310   71.6020  220.7250 H   0  0  0  0  0  0  0  0  0  0  0  0
  146.2137   73.6688  219.9390 H   0  0  0  0  0  0  0  0  0  0  0  0
  146.1339   73.0628  218.2129 H   0  0  0  0  0  0  0  0  0  0  0  0
  144.1347   74.4703  219.3716 H   0  0  0  0  0  0  0  0  0  0  0  0
  143.8808   73.2105  218.1033 H   0  0  0  0  0  0  0  0  0  0  0  0
  139.5654   77.5791  222.5503 H   0  0  0  0  0  0  0  0  0  0  0  0
  140.8031   76.7626  223.5941 H   0  0  0  0  0  0  0  0  0  0  0  0
  140.6601   79.4462  223.3224 H   0  0  0  0  0  0  0  0  0  0  0  0
  142.2249   78.5179  223.5626 H   0  0  0  0  0  0  0  0  0  0  0  0
  142.9370   79.0090  221.5760 H   0  0  0  0  0  0  0  0  0  0  0  0
  140.1513   79.1206  220.5645 H   0  0  0  0  0  0  0  0  0  0  0  0
  141.6380   79.3905  219.5849 H   0  0  0  0  0  0  0  0  0  0  0  0
  140.6355   77.0157  219.5286 H   0  0  0  0  0  0  0  0  0  0  0  0
  142.3944   77.1537  219.9242 H   0  0  0  0  0  0  0  0  0  0  0  0
  140.9540   71.6310  227.6359 H   0  0  0  0  0  0  0  0  0  0  0  0
  140.6213   69.8936  229.3973 H   0  0  0  0  0  0  0  0  0  0  0  0
  1  2  2  0
  2  3  1  0
  3  4  2  0
  4  5  1  0
  5  6  1  0
  6  7  1  0
  7  8  1  0
  8  9  2  0
  9 10  1  0
 10 11  1  0
 11 12  1  0
 12 13  1  0
 13 14  1  0
 14 15  1  0
 15 16  1  0
 10 17  2  0
 17 18  1  0
 18 19  1  0
 19 20  1  0
 20 21  1  0
 21 22  1  0
 22 23  1  0
 23 24  1  0
 18 25  2  0
  4 26  1  0
 26 27  2  0
 27  1  1  0
 25  8  1  0
 16 11  1  0
 24 19  1  0
  1 28  1  0
  2 29  1  0
  3 30  1  0
  5 31  1  0
  5 32  1  0
  6 33  1  0
  6 34  1  0
  7 35  1  0
  9 36  1  0
 12 37  1  0
 12 38  1  0
 13 39  1  0
 13 40  1  0
 14 41  1  0
 15 42  1  0
 15 43  1  0
 16 44  1  0
 16 45  1  0
 20 46  1  0
 20 47  1  0
 21 48  1  0
 21 49  1  0
 22 50  1  0
 23 51  1  0
 23 52  1  0
 24 53  1  0
 24 54  1  0
 26 55  1  0
 27 56  1  0
M  END
>  <UniqueID>  (17) 
518

>  <SMILES>  (17) 
c1ccc(CCNc2cc(N3CCNCC3)nc(N3CCNCC3)n2)cc1

>  <Energy>  (17) 
60.55726351164468

>  <Genealogy>  (17) 
c1ccc(CCNc2cc(N3CCNCC3)nc(N3CCNCC3)n2)cc1 (3D coordinates assigned)
c1ccc(CCNc2cc(N3CCNCC3)nc(N3CCNCC3)n2)cc1 (nonaromatic ring conformer: 60.55726351164468 kcal/mol)

>  <smiles>  (17) 
c1ccc(CCNc2cc(N3CCNCC3)nc(N3CCNCC3)n2)cc1

>  <score_type>  (17) 
oracle

>  <origin>  (17) 
autodockgpu

>  <m_score__min__energy>  (17) 
-9.2300000000000004

>  <m_primary>  (17) 
energy

>  <meeko>  (17) 
{"free_energy": -8.93, "intermolecular_energy": -10.72, "internal_energy": -0.81, "cluster_size": 19, "cluster_id": 1, "rank_in_cluster": 14}

>  <energy>  (17) 
-8.63

>  <cluster_rmsd>  (17) 
0.65

>  <rmsd>  (17) 
271.0

>  <cluster>  (17) 
1

$$$$
USJHBUDYBBTILB-MPIMZMORNA-N
     RDKit          3D

 56 59  0  0  0  0  0  0  0  0999 V2000
  141.0790   70.9590  227.9700 C   0  0  0  0  0  0  0  0  0  0  0  0
  141.2700   71.8370  226.9010 C   0  0  0  0  0  0  0  0  0  0  0  0
  140.5770   71.6430  225.7020 C   0  0  0  0  0  0  0  0  0  0  0  0
  139.6900   70.5610  225.5640 C   0  0  0  0  0  0  0  0  0  0  0  0
  138.9150   70.3710  224.2850 C   0  0  0  0  0  0  0  0  0  0  0  0
  139.7180   70.8420  223.0660 C   0  0  0  0  0  0  0  0  0  0  0  0
  139.5450   72.2760  222.8350 N   0  0  0  0  0  0  0  0  0  0  0  0
  140.5230   73.0760  222.1530 C   0  0  0  0  0  0  0  0  0  0  0  0
  141.5610   72.4640  221.4460 C   0  0  0  0  0  0  0  0  0  0  0  0
  142.4920   73.2730  220.7800 C   0  0  0  0  0  0  0  0  0  0  0  0
  143.5650   72.6970  220.0100 N   0  0  0  0  0  0  0  0  0  0  0  0
  143.6360   71.2390  219.8610 C   0  0  0  0  0  0  0  0  0  0  0  0
  144.9500   70.8240  219.1860 C   0  0  0  0  0  0  0  0  0  0  0  0
  146.0660   71.6270  219.7020 N   0  0  0  0  0  0  0  0  0  0  0  0
  145.9320   73.0610  219.3730 C   0  0  0  0  0  0  0  0  0  0  0  0
  144.4720   73.5340  219.2140 C   0  0  0  0  0  0  0  0  0  0  0  0
  142.3440   74.6250  220.8210 N   0  0  0  0  0  0  0  0  0  0  0  0
  141.3330   75.2130  221.5150 C   0  0  0  0  0  0  0  0  0  0  0  0
  141.2110   76.6500  221.5400 N   0  0  0  0  0  0  0  0  0  0  0  0
  140.6900   77.3430  222.7280 C   0  0  0  0  0  0  0  0  0  0  0  0
  141.4130   78.6880  222.9670 C   0  0  0  0  0  0  0  0  0  0  0  0
  141.9680   79.3120  221.7510 N   0  0  0  0  0  0  0  0  0  0  0  0
  141.2530   78.9110  220.5350 C   0  0  0  0  0  0  0  0  0  0  0  0
  141.4210   77.4070  220.2980 C   0  0  0  0  0  0  0  0  0  0  0  0
  140.4370   74.4330  222.1740 N   0  0  0  0  0  0  0  0  0  0  0  0
  139.4950   69.6900  226.6480 C   0  0  0  0  0  0  0  0  0  0  0  0
  140.1910   69.8860  227.8450 C   0  0  0  0  0  0  0  0  0  0  0  0
  141.6275   71.1116  228.9112 H   0  0  0  0  0  0  0  0  0  0  0  0
  141.9665   72.6823  227.0022 H   0  0  0  0  0  0  0  0  0  0  0  0
  140.7264   72.3395  224.8638 H   0  0  0  0  0  0  0  0  0  0  0  0
  138.6777   69.3035  224.1660 H   0  0  0  0  0  0  0  0  0  0  0  0
  137.9957   70.9720  224.3459 H   0  0  0  0  0  0  0  0  0  0  0  0
  140.7843   70.6331  223.2373 H   0  0  0  0  0  0  0  0  0  0  0  0
  139.3520   70.3019  222.1804 H   0  0  0  0  0  0  0  0  0  0  0  0
  138.6690   72.7280  223.1810 H   0  0  0  0  0  0  0  0  0  0  0  0
  141.6461   71.3678  221.4126 H   0  0  0  0  0  0  0  0  0  0  0  0
  143.5778   70.7716  220.8550 H   0  0  0  0  0  0  0  0  0  0  0  0
  142.7964   70.9074  219.2324 H   0  0  0  0  0  0  0  0  0  0  0  0
  145.1430   69.7607  219.3914 H   0  0  0  0  0  0  0  0  0  0  0  0
  144.8623   70.9895  218.1021 H   0  0  0  0  0  0  0  0  0  0  0  0
  146.0950   71.5210  220.7450 H   0  0  0  0  0  0  0  0  0  0  0  0
  146.3994   73.6460  220.1788 H   0  0  0  0  0  0  0  0  0  0  0  0
  146.4234   73.2119  218.4005 H   0  0  0  0  0  0  0  0  0  0  0  0
  144.3915   74.5773  219.5533 H   0  0  0  0  0  0  0  0  0  0  0  0
  144.1880   73.4541  218.1543 H   0  0  0  0  0  0  0  0  0  0  0  0
  139.6163   77.5355  222.5864 H   0  0  0  0  0  0  0  0  0  0  0  0
  140.8626   76.7001  223.6037 H   0  0  0  0  0  0  0  0  0  0  0  0
  140.6935   79.3894  223.4146 H   0  0  0  0  0  0  0  0  0  0  0  0
  142.2684   78.4696  223.6232 H   0  0  0  0  0  0  0  0  0  0  0  0
  142.9720   79.0310  221.6540 H   0  0  0  0  0  0  0  0  0  0  0  0
  140.1840   79.1445  220.6477 H   0  0  0  0  0  0  0  0  0  0  0  0
  141.6671   79.4595  219.6761 H   0  0  0  0  0  0  0  0  0  0  0  0
  140.6874   77.0772  219.5476 H   0  0  0  0  0  0  0  0  0  0  0  0
  142.4457   77.2210  219.9440 H   0  0  0  0  0  0  0  0  0  0  0  0
  138.7914   68.8495  226.5552 H   0  0  0  0  0  0  0  0  0  0  0  0
  140.0399   69.1961  228.6883 H   0  0  0  0  0  0  0  0  0  0  0  0
  1  2  2  0
  2  3  1  0
  3  4  2  0
  4  5  1  0
  5  6  1  0
  6  7  1  0
  7  8  1  0
  8  9  2  0
  9 10  1  0
 10 11  1  0
 11 12  1  0
 12 13  1  0
 13 14  1  0
 14 15  1  0
 15 16  1  0
 10 17  2  0
 17 18  1  0
 18 19  1  0
 19 20  1  0
 20 21  1  0
 21 22  1  0
 22 23  1  0
 23 24  1  0
 18 25  2  0
  4 26  1  0
 26 27  2  0
 27  1  1  0
 25  8  1  0
 16 11  1  0
 24 19  1  0
  1 28  1  0
  2 29  1  0
  3 30  1  0
  5 31  1  0
  5 32  1  0
  6 33  1  0
  6 34  1  0
  7 35  1  0
  9 36  1  0
 12 37  1  0
 12 38  1  0
 13 39  1  0
 13 40  1  0
 14 41  1  0
 15 42  1  0
 15 43  1  0
 16 44  1  0
 16 45  1  0
 20 46  1  0
 20 47  1  0
 21 48  1  0
 21 49  1  0
 22 50  1  0
 23 51  1  0
 23 52  1  0
 24 53  1  0
 24 54  1  0
 26 55  1  0
 27 56  1  0
M  END
>  <UniqueID>  (18) 
518

>  <SMILES>  (18) 
c1ccc(CCNc2cc(N3CCNCC3)nc(N3CCNCC3)n2)cc1

>  <Energy>  (18) 
60.55726351164468

>  <Genealogy>  (18) 
c1ccc(CCNc2cc(N3CCNCC3)nc(N3CCNCC3)n2)cc1 (3D coordinates assigned)
c1ccc(CCNc2cc(N3CCNCC3)nc(N3CCNCC3)n2)cc1 (nonaromatic ring conformer: 60.55726351164468 kcal/mol)

>  <smiles>  (18) 
c1ccc(CCNc2cc(N3CCNCC3)nc(N3CCNCC3)n2)cc1

>  <score_type>  (18) 
oracle

>  <origin>  (18) 
autodockgpu

>  <m_score__min__energy>  (18) 
-9.2300000000000004

>  <m_primary>  (18) 
energy

>  <meeko>  (18) 
{"free_energy": -8.87, "intermolecular_energy": -10.66, "internal_energy": -0.89, "cluster_size": 19, "cluster_id": 1, "rank_in_cluster": 15}

>  <energy>  (18) 
-8.62

>  <cluster_rmsd>  (18) 
0.6

>  <rmsd>  (18) 
271.06

>  <cluster>  (18) 
1

$$$$
USJHBUDYBBTILB-MPIMZMORNA-N
     RDKit          3D

 56 59  0  0  0  0  0  0  0  0999 V2000
  140.5450   70.0490  228.1350 C   0  0  0  0  0  0  0  0  0  0  0  0
  140.1150   69.2960  227.0400 C   0  0  0  0  0  0  0  0  0  0  0  0
  140.1490   69.8460  225.7550 C   0  0  0  0  0  0  0  0  0  0  0  0
  140.6100   71.1600  225.5590 C   0  0  0  0  0  0  0  0  0  0  0  0
  140.6810   71.7420  224.1700 C   0  0  0  0  0  0  0  0  0  0  0  0
  139.3750   71.5140  223.3980 C   0  0  0  0  0  0  0  0  0  0  0  0
  139.3020   72.3650  222.2100 N   0  0  0  0  0  0  0  0  0  0  0  0
  140.3950   73.1900  221.7770 C   0  0  0  0  0  0  0  0  0  0  0  0
  141.5530   72.6060  221.2570 C   0  0  0  0  0  0  0  0  0  0  0  0
  142.5960   73.4390  220.8310 C   0  0  0  0  0  0  0  0  0  0  0  0
  143.8000   72.8940  220.2590 N   0  0  0  0  0  0  0  0  0  0  0  0
  145.0750   73.0890  220.9580 C   0  0  0  0  0  0  0  0  0  0  0  0
  146.2500   72.6150  220.0910 C   0  0  0  0  0  0  0  0  0  0  0  0
  146.0420   73.0050  218.6910 N   0  0  0  0  0  0  0  0  0  0  0  0
  144.8640   72.3480  218.0880 C   0  0  0  0  0  0  0  0  0  0  0  0
  143.7580   71.9890  219.1020 C   0  0  0  0  0  0  0  0  0  0  0  0
  142.4420   74.7880  220.9130 N   0  0  0  0  0  0  0  0  0  0  0  0
  141.3130   75.3490  221.4250 C   0  0  0  0  0  0  0  0  0  0  0  0
  141.1880   76.7840  221.5000 N   0  0  0  0  0  0  0  0  0  0  0  0
  140.6860   77.4350  222.7200 C   0  0  0  0  0  0  0  0  0  0  0  0
  141.4090   78.7740  222.9930 C   0  0  0  0  0  0  0  0  0  0  0  0
  141.9410   79.4400  221.7880 N   0  0  0  0  0  0  0  0  0  0  0  0
  141.2050   79.0780  220.5730 C   0  0  0  0  0  0  0  0  0  0  0  0
  141.3730   77.5840  220.2820 C   0  0  0  0  0  0  0  0  0  0  0  0
  140.3050   74.5450  221.8520 N   0  0  0  0  0  0  0  0  0  0  0  0
  141.0510   71.9060  226.6640 C   0  0  0  0  0  0  0  0  0  0  0  0
  141.0140   71.3530  227.9480 C   0  0  0  0  0  0  0  0  0  0  0  0
  140.5147   69.6157  229.1456 H   0  0  0  0  0  0  0  0  0  0  0  0
  139.7493   68.2693  227.1887 H   0  0  0  0  0  0  0  0  0  0  0  0
  139.8139   69.2487  224.8942 H   0  0  0  0  0  0  0  0  0  0  0  0
  140.8681   72.8234  224.2446 H   0  0  0  0  0  0  0  0  0  0  0  0
  141.4954   71.2405  223.6266 H   0  0  0  0  0  0  0  0  0  0  0  0
  139.3222   70.4601  223.0872 H   0  0  0  0  0  0  0  0  0  0  0  0
  138.5332   71.7686  224.0587 H   0  0  0  0  0  0  0  0  0  0  0  0
  138.4160   72.3640  221.6580 H   0  0  0  0  0  0  0  0  0  0  0  0
  141.6441   71.5123  221.1834 H   0  0  0  0  0  0  0  0  0  0  0  0
  145.2022   74.1578  221.1847 H   0  0  0  0  0  0  0  0  0  0  0  0
  145.0617   72.4996  221.8867 H   0  0  0  0  0  0  0  0  0  0  0  0
  147.1803   73.0714  220.4602 H   0  0  0  0  0  0  0  0  0  0  0  0
  146.3180   71.5187  220.1500 H   0  0  0  0  0  0  0  0  0  0  0  0
  145.9040   74.0440  218.6540 H   0  0  0  0  0  0  0  0  0  0  0  0
  144.4364   73.0272  217.3358 H   0  0  0  0  0  0  0  0  0  0  0  0
  145.2159   71.4012  217.6525 H   0  0  0  0  0  0  0  0  0  0  0  0
  142.7770   72.0750  218.6118 H   0  0  0  0  0  0  0  0  0  0  0  0
  143.9206   70.9591  219.4527 H   0  0  0  0  0  0  0  0  0  0  0  0
  139.6094   77.6285  222.6035 H   0  0  0  0  0  0  0  0  0  0  0  0
  140.8763   76.7632  223.5700 H   0  0  0  0  0  0  0  0  0  0  0  0
  140.6952   79.4574  223.4762 H   0  0  0  0  0  0  0  0  0  0  0  0
  142.2757   78.5374  223.6277 H   0  0  0  0  0  0  0  0  0  0  0  0
  142.9430   79.1660  221.6630 H   0  0  0  0  0  0  0  0  0  0  0  0
  140.1376   79.3036  220.7133 H   0  0  0  0  0  0  0  0  0  0  0  0
  141.6015   79.6568  219.7258 H   0  0  0  0  0  0  0  0  0  0  0  0
  140.6269   77.2775  219.5341 H   0  0  0  0  0  0  0  0  0  0  0  0
  142.3919   77.4141  219.9038 H   0  0  0  0  0  0  0  0  0  0  0  0
  141.4271   72.9295  226.5190 H   0  0  0  0  0  0  0  0  0  0  0  0
  141.3540   71.9441  228.8112 H   0  0  0  0  0  0  0  0  0  0  0  0
  1  2  2  0
  2  3  1  0
  3  4  2  0
  4  5  1  0
  5  6  1  0
  6  7  1  0
  7  8  1  0
  8  9  2  0
  9 10  1  0
 10 11  1  0
 11 12  1  0
 12 13  1  0
 13 14  1  0
 14 15  1  0
 15 16  1  0
 10 17  2  0
 17 18  1  0
 18 19  1  0
 19 20  1  0
 20 21  1  0
 21 22  1  0
 22 23  1  0
 23 24  1  0
 18 25  2  0
  4 26  1  0
 26 27  2  0
 27  1  1  0
 25  8  1  0
 16 11  1  0
 24 19  1  0
  1 28  1  0
  2 29  1  0
  3 30  1  0
  5 31  1  0
  5 32  1  0
  6 33  1  0
  6 34  1  0
  7 35  1  0
  9 36  1  0
 12 37  1  0
 12 38  1  0
 13 39  1  0
 13 40  1  0
 14 41  1  0
 15 42  1  0
 15 43  1  0
 16 44  1  0
 16 45  1  0
 20 46  1  0
 20 47  1  0
 21 48  1  0
 21 49  1  0
 22 50  1  0
 23 51  1  0
 23 52  1  0
 24 53  1  0
 24 54  1  0
 26 55  1  0
 27 56  1  0
M  END
>  <UniqueID>  (19) 
518

>  <SMILES>  (19) 
c1ccc(CCNc2cc(N3CCNCC3)nc(N3CCNCC3)n2)cc1

>  <Energy>  (19) 
60.55726351164468

>  <Genealogy>  (19) 
c1ccc(CCNc2cc(N3CCNCC3)nc(N3CCNCC3)n2)cc1 (3D coordinates assigned)
c1ccc(CCNc2cc(N3CCNCC3)nc(N3CCNCC3)n2)cc1 (nonaromatic ring conformer: 60.55726351164468 kcal/mol)

>  <smiles>  (19) 
c1ccc(CCNc2cc(N3CCNCC3)nc(N3CCNCC3)n2)cc1

>  <score_type>  (19) 
oracle

>  <origin>  (19) 
autodockgpu

>  <m_score__min__energy>  (19) 
-9.2300000000000004

>  <m_primary>  (19) 
energy

>  <meeko>  (19) 
{"free_energy": -9.01, "intermolecular_energy": -10.8, "internal_energy": -0.83, "cluster_size": 19, "cluster_id": 1, "rank_in_cluster": 8}

>  <energy>  (19) 
-8.42

>  <cluster_rmsd>  (19) 
1.58

>  <rmsd>  (19) 
271.07

>  <cluster>  (19) 
1

$$$$
USJHBUDYBBTILB-MPIMZMORNA-N
     RDKit          3D

 56 59  0  0  0  0  0  0  0  0999 V2000
  141.0630   70.5530  227.6290 C   0  0  0  0  0  0  0  0  0  0  0  0
  140.0680   69.5960  227.4200 C   0  0  0  0  0  0  0  0  0  0  0  0
  139.3000   69.6280  226.2510 C   0  0  0  0  0  0  0  0  0  0  0  0
  139.5230   70.6240  225.2850 C   0  0  0  0  0  0  0  0  0  0  0  0
  138.7210   70.6380  224.0080 C   0  0  0  0  0  0  0  0  0  0  0  0
  139.5660   71.1120  222.8190 C   0  0  0  0  0  0  0  0  0  0  0  0
  139.4270   72.5530  222.6060 N   0  0  0  0  0  0  0  0  0  0  0  0
  140.4550   73.3520  222.0020 C   0  0  0  0  0  0  0  0  0  0  0  0
  141.5340   72.7390  221.3590 C   0  0  0  0  0  0  0  0  0  0  0  0
  142.5140   73.5470  220.7680 C   0  0  0  0  0  0  0  0  0  0  0  0
  143.6320   72.9720  220.0660 N   0  0  0  0  0  0  0  0  0  0  0  0
  144.8720   72.6940  220.8010 C   0  0  0  0  0  0  0  0  0  0  0  0
  145.9930   72.2780  219.8400 C   0  0  0  0  0  0  0  0  0  0  0  0
  145.9570   73.1010  218.6250 N   0  0  0  0  0  0  0  0  0  0  0  0
  144.7210   72.8990  217.8410 C   0  0  0  0  0  0  0  0  0  0  0  0
  143.5020   72.4790  218.6880 C   0  0  0  0  0  0  0  0  0  0  0  0
  142.3760   74.9000  220.8160 N   0  0  0  0  0  0  0  0  0  0  0  0
  141.3240   75.4890  221.4470 C   0  0  0  0  0  0  0  0  0  0  0  0
  141.2130   76.9270  221.4810 N   0  0  0  0  0  0  0  0  0  0  0  0
  140.7050   77.6170  222.6770 C   0  0  0  0  0  0  0  0  0  0  0  0
  141.4390   78.9550  222.9190 C   0  0  0  0  0  0  0  0  0  0  0  0
  141.9900   79.5820  221.7020 N   0  0  0  0  0  0  0  0  0  0  0  0
  141.2640   79.1930  220.4900 C   0  0  0  0  0  0  0  0  0  0  0  0
  141.4190   77.6900  220.2420 C   0  0  0  0  0  0  0  0  0  0  0  0
  140.3790   74.7090  222.0340 N   0  0  0  0  0  0  0  0  0  0  0  0
  140.5330   71.5750  225.4980 C   0  0  0  0  0  0  0  0  0  0  0  0
  141.2970   71.5420  226.6680 C   0  0  0  0  0  0  0  0  0  0  0  0
  141.6635   70.5291  228.5503 H   0  0  0  0  0  0  0  0  0  0  0  0
  139.8878   68.8165  228.1749 H   0  0  0  0  0  0  0  0  0  0  0  0
  138.5189   68.8709  226.0875 H   0  0  0  0  0  0  0  0  0  0  0  0
  138.3558   69.6206  223.8040 H   0  0  0  0  0  0  0  0  0  0  0  0
  137.8813   71.3371  224.1353 H   0  0  0  0  0  0  0  0  0  0  0  0
  140.6230   70.8796  223.0159 H   0  0  0  0  0  0  0  0  0  0  0  0
  139.2140   70.5929  221.9153 H   0  0  0  0  0  0  0  0  0  0  0  0
  138.5370   73.0100  222.9060 H   0  0  0  0  0  0  0  0  0  0  0  0
  141.6122   71.6426  221.3177 H   0  0  0  0  0  0  0  0  0  0  0  0
  145.1801   73.5996  221.3441 H   0  0  0  0  0  0  0  0  0  0  0  0
  144.6872   71.8695  221.5053 H   0  0  0  0  0  0  0  0  0  0  0  0
  146.9649   72.4095  220.3382 H   0  0  0  0  0  0  0  0  0  0  0  0
  145.8509   71.2235  219.5611 H   0  0  0  0  0  0  0  0  0  0  0  0
  146.0170   74.1090  218.9060 H   0  0  0  0  0  0  0  0  0  0  0  0
  144.4781   73.8419  217.3292 H   0  0  0  0  0  0  0  0  0  0  0  0
  144.9201   72.0753  217.1397 H   0  0  0  0  0  0  0  0  0  0  0  0
  142.5891   72.8977  218.2394 H   0  0  0  0  0  0  0  0  0  0  0  0
  143.4478   71.3805  218.7092 H   0  0  0  0  0  0  0  0  0  0  0  0
  139.6318   77.8180  222.5439 H   0  0  0  0  0  0  0  0  0  0  0  0
  140.8790   76.9677  223.5477 H   0  0  0  0  0  0  0  0  0  0  0  0
  140.7277   79.6589  223.3757 H   0  0  0  0  0  0  0  0  0  0  0  0
  142.2972   78.7270  223.5682 H   0  0  0  0  0  0  0  0  0  0  0  0
  142.9910   79.2940  221.5960 H   0  0  0  0  0  0  0  0  0  0  0  0
  140.1975   79.4333  220.6121 H   0  0  0  0  0  0  0  0  0  0  0  0
  141.6764   79.7435  219.6316 H   0  0  0  0  0  0  0  0  0  0  0  0
  140.6772   77.3704  219.4953 H   0  0  0  0  0  0  0  0  0  0  0  0
  142.4394   77.4985  219.8785 H   0  0  0  0  0  0  0  0  0  0  0  0
  140.7242   72.3497  224.7408 H   0  0  0  0  0  0  0  0  0  0  0  0
  142.0826   72.2941  226.8331 H   0  0  0  0  0  0  0  0  0  0  0  0
  1  2  2  0
  2  3  1  0
  3  4  2  0
  4  5  1  0
  5  6  1  0
  6  7  1  0
  7  8  1  0
  8  9  2  0
  9 10  1  0
 10 11  1  0
 11 12  1  0
 12 13  1  0
 13 14  1  0
 14 15  1  0
 15 16  1  0
 10 17  2  0
 17 18  1  0
 18 19  1  0
 19 20  1  0
 20 21  1  0
 21 22  1  0
 22 23  1  0
 23 24  1  0
 18 25  2  0
  4 26  1  0
 26 27  2  0
 27  1  1  0
 25  8  1  0
 16 11  1  0
 24 19  1  0
  1 28  1  0
  2 29  1  0
  3 30  1  0
  5 31  1  0
  5 32  1  0
  6 33  1  0
  6 34  1  0
  7 35  1  0
  9 36  1  0
 12 37  1  0
 12 38  1  0
 13 39  1  0
 13 40  1  0
 14 41  1  0
 15 42  1  0
 15 43  1  0
 16 44  1  0
 16 45  1  0
 20 46  1  0
 20 47  1  0
 21 48  1  0
 21 49  1  0
 22 50  1  0
 23 51  1  0
 23 52  1  0
 24 53  1  0
 24 54  1  0
 26 55  1  0
 27 56  1  0
M  END
>  <UniqueID>  (20) 
518

>  <SMILES>  (20) 
c1ccc(CCNc2cc(N3CCNCC3)nc(N3CCNCC3)n2)cc1

>  <Energy>  (20) 
60.55726351164468

>  <Genealogy>  (20) 
c1ccc(CCNc2cc(N3CCNCC3)nc(N3CCNCC3)n2)cc1 (3D coordinates assigned)
c1ccc(CCNc2cc(N3CCNCC3)nc(N3CCNCC3)n2)cc1 (nonaromatic ring conformer: 60.55726351164468 kcal/mol)

>  <smiles>  (20) 
c1ccc(CCNc2cc(N3CCNCC3)nc(N3CCNCC3)n2)cc1

>  <score_type>  (20) 
oracle

>  <origin>  (20) 
autodockgpu

>  <m_score__min__energy>  (20) 
-9.2300000000000004

>  <m_primary>  (20) 
energy

>  <meeko>  (20) 
{"free_energy": -8.99, "intermolecular_energy": -10.77, "internal_energy": -0.88, "cluster_size": 19, "cluster_id": 1, "rank_in_cluster": 11}

>  <energy>  (20) 
-8.26

>  <cluster_rmsd>  (20) 
0.0

>  <rmsd>  (20) 
270.77

>  <cluster>  (20) 
2

$$$$
USJHBUDYBBTILB-MPIMZMORNA-N
     RDKit          3D

 56 59  0  0  0  0  0  0  0  0999 V2000
  140.0400   70.5520  228.2420 C   0  0  0  0  0  0  0  0  0  0  0  0
  139.5920   69.6340  227.2890 C   0  0  0  0  0  0  0  0  0  0  0  0
  139.8600   69.8460  225.9330 C   0  0  0  0  0  0  0  0  0  0  0  0
  140.5750   70.9830  225.5210 C   0  0  0  0  0  0  0  0  0  0  0  0
  140.8960   71.1940  224.0630 C   0  0  0  0  0  0  0  0  0  0  0  0
  139.6210   71.2670  223.2130 C   0  0  0  0  0  0  0  0  0  0  0  0
  139.3940   72.6210  222.7070 N   0  0  0  0  0  0  0  0  0  0  0  0
  140.4250   73.4000  222.0820 C   0  0  0  0  0  0  0  0  0  0  0  0
  141.4930   72.7660  221.4410 C   0  0  0  0  0  0  0  0  0  0  0  0
  142.4760   73.5540  220.8290 C   0  0  0  0  0  0  0  0  0  0  0  0
  143.5830   72.9560  220.1280 N   0  0  0  0  0  0  0  0  0  0  0  0
  144.8410   72.7210  220.8470 C   0  0  0  0  0  0  0  0  0  0  0  0
  145.9440   72.2710  219.8800 C   0  0  0  0  0  0  0  0  0  0  0  0
  145.8730   73.0380  218.6300 N   0  0  0  0  0  0  0  0  0  0  0  0
  144.6230   72.7920  217.8840 C   0  0  0  0  0  0  0  0  0  0  0  0
  143.4260   72.4020  218.7770 C   0  0  0  0  0  0  0  0  0  0  0  0
  142.3510   74.9090  220.8550 N   0  0  0  0  0  0  0  0  0  0  0  0
  141.3100   75.5190  221.4850 C   0  0  0  0  0  0  0  0  0  0  0  0
  141.2130   76.9580  221.4950 N   0  0  0  0  0  0  0  0  0  0  0  0
  140.7090   77.6720  222.6790 C   0  0  0  0  0  0  0  0  0  0  0  0
  141.4550   79.0070  222.9020 C   0  0  0  0  0  0  0  0  0  0  0  0
  142.0160   79.6080  221.6760 N   0  0  0  0  0  0  0  0  0  0  0  0
  141.2880   79.2080  220.4680 C   0  0  0  0  0  0  0  0  0  0  0  0
  141.4300   77.6990  220.2460 C   0  0  0  0  0  0  0  0  0  0  0  0
  140.3620   74.7580  222.0920 N   0  0  0  0  0  0  0  0  0  0  0  0
  141.0320   71.8950  226.4870 C   0  0  0  0  0  0  0  0  0  0  0  0
  140.7610   71.6810  227.8420 C   0  0  0  0  0  0  0  0  0  0  0  0
  139.8253   70.3864  229.3081 H   0  0  0  0  0  0  0  0  0  0  0  0
  139.0282   68.7440  227.6054 H   0  0  0  0  0  0  0  0  0  0  0  0
  139.5094   69.1192  225.1855 H   0  0  0  0  0  0  0  0  0  0  0  0
  141.4542   72.1354  223.9522 H   0  0  0  0  0  0  0  0  0  0  0  0
  141.4958   70.3406  223.7140 H   0  0  0  0  0  0  0  0  0  0  0  0
  139.7189   70.5782  222.3610 H   0  0  0  0  0  0  0  0  0  0  0  0
  138.7663   70.9859  223.8458 H   0  0  0  0  0  0  0  0  0  0  0  0
  138.4370   73.0290  222.8070 H   0  0  0  0  0  0  0  0  0  0  0  0
  141.5603   71.6683  221.4176 H   0  0  0  0  0  0  0  0  0  0  0  0
  145.1531   73.6524  221.3421 H   0  0  0  0  0  0  0  0  0  0  0  0
  144.6792   71.9278  221.5918 H   0  0  0  0  0  0  0  0  0  0  0  0
  146.9256   72.4328  220.3493 H   0  0  0  0  0  0  0  0  0  0  0  0
  145.8053   71.2038  219.6522 H   0  0  0  0  0  0  0  0  0  0  0  0
  145.9320   74.0580  218.8650 H   0  0  0  0  0  0  0  0  0  0  0  0
  144.3612   73.7089  217.3355 H   0  0  0  0  0  0  0  0  0  0  0  0
  144.8133   71.9390  217.2161 H   0  0  0  0  0  0  0  0  0  0  0  0
  142.5001   72.7946  218.3313 H   0  0  0  0  0  0  0  0  0  0  0  0
  143.3807   71.3052  218.8480 H   0  0  0  0  0  0  0  0  0  0  0  0
  139.6380   77.8810  222.5401 H   0  0  0  0  0  0  0  0  0  0  0  0
  140.8753   77.0349  223.5602 H   0  0  0  0  0  0  0  0  0  0  0  0
  140.7490   79.7252  223.3444 H   0  0  0  0  0  0  0  0  0  0  0  0
  142.3085   78.7821  223.5585 H   0  0  0  0  0  0  0  0  0  0  0  0
  143.0140   79.3100  221.5780 H   0  0  0  0  0  0  0  0  0  0  0  0
  140.2237   79.4606  220.5838 H   0  0  0  0  0  0  0  0  0  0  0  0
  141.7060   79.7413  219.6014 H   0  0  0  0  0  0  0  0  0  0  0  0
  140.6879   77.3740  219.5019 H   0  0  0  0  0  0  0  0  0  0  0  0
  142.4502   77.4928  219.8903 H   0  0  0  0  0  0  0  0  0  0  0  0
  141.6052   72.7809  226.1762 H   0  0  0  0  0  0  0  0  0  0  0  0
  141.1154   72.4016  228.5938 H   0  0  0  0  0  0  0  0  0  0  0  0
  1  2  2  0
  2  3  1  0
  3  4  2  0
  4  5  1  0
  5  6  1  0
  6  7  1  0
  7  8  1  0
  8  9  2  0
  9 10  1  0
 10 11  1  0
 11 12  1  0
 12 13  1  0
 13 14  1  0
 14 15  1  0
 15 16  1  0
 10 17  2  0
 17 18  1  0
 18 19  1  0
 19 20  1  0
 20 21  1  0
 21 22  1  0
 22 23  1  0
 23 24  1  0
 18 25  2  0
  4 26  1  0
 26 27  2  0
 27  1  1  0
 25  8  1  0
 16 11  1  0
 24 19  1  0
  1 28  1  0
  2 29  1  0
  3 30  1  0
  5 31  1  0
  5 32  1  0
  6 33  1  0
  6 34  1  0
  7 35  1  0
  9 36  1  0
 12 37  1  0
 12 38  1  0
 13 39  1  0
 13 40  1  0
 14 41  1  0
 15 42  1  0
 15 43  1  0
 16 44  1  0
 16 45  1  0
 20 46  1  0
 20 47  1  0
 21 48  1  0
 21 49  1  0
 22 50  1  0
 23 51  1  0
 23 52  1  0
 24 53  1  0
 24 54  1  0
 26 55  1  0
 27 56  1  0
M  END
>  <UniqueID>  (21) 
519

>  <SMILES>  (21) 
c1ccc(CCNc2cc(N3CCNCC3)nc(N3CCNCC3)n2)cc1

>  <Energy>  (21) 
62.81689782955762

>  <Genealogy>  (21) 
c1ccc(CCNc2cc(N3CCNCC3)nc(N3CCNCC3)n2)cc1 (3D coordinates assigned)
c1ccc(CCNc2cc(N3CCNCC3)nc(N3CCNCC3)n2)cc1 (nonaromatic ring conformer: 62.81689782955762 kcal/mol)

>  <smiles>  (21) 
c1ccc(CCNc2cc(N3CCNCC3)nc(N3CCNCC3)n2)cc1

>  <score_type>  (21) 
oracle

>  <origin>  (21) 
autodockgpu

>  <m_score__min__energy>  (21) 
-9.2300000000000004

>  <m_primary>  (21) 
energy

>  <meeko>  (21) 
{"free_energy": -9.2, "intermolecular_energy": -10.99, "internal_energy": -0.83, "cluster_size": 19, "cluster_id": 1, "rank_in_cluster": 4}

>  <energy>  (21) 
-9.23

>  <cluster_rmsd>  (21) 
0.0

>  <rmsd>  (21) 
271.08

>  <cluster>  (21) 
1

$$$$
USJHBUDYBBTILB-MPIMZMORNA-N
     RDKit          3D

 56 59  0  0  0  0  0  0  0  0999 V2000
  140.0280   70.4020  228.2840 C   0  0  0  0  0  0  0  0  0  0  0  0
  139.5820   69.5550  227.2680 C   0  0  0  0  0  0  0  0  0  0  0  0
  139.8510   69.8630  225.9300 C   0  0  0  0  0  0  0  0  0  0  0  0
  140.5670   71.0270  225.6020 C   0  0  0  0  0  0  0  0  0  0  0  0
  140.8890   71.3420  224.1630 C   0  0  0  0  0  0  0  0  0  0  0  0
  139.6270   71.3350  223.2900 C   0  0  0  0  0  0  0  0  0  0  0  0
  139.3870   72.6470  222.6900 N   0  0  0  0  0  0  0  0  0  0  0  0
  140.4250   73.4200  222.0700 C   0  0  0  0  0  0  0  0  0  0  0  0
  141.4930   72.7790  221.4340 C   0  0  0  0  0  0  0  0  0  0  0  0
  142.4840   73.5620  220.8270 C   0  0  0  0  0  0  0  0  0  0  0  0
  143.5910   72.9570  220.1320 N   0  0  0  0  0  0  0  0  0  0  0  0
  144.8400   72.7040  220.8600 C   0  0  0  0  0  0  0  0  0  0  0  0
  145.9470   72.2490  219.9000 C   0  0  0  0  0  0  0  0  0  0  0  0
  145.8950   73.0260  218.6550 N   0  0  0  0  0  0  0  0  0  0  0  0
  144.6480   72.7970  217.8960 C   0  0  0  0  0  0  0  0  0  0  0  0
  143.4400   72.4130  218.7760 C   0  0  0  0  0  0  0  0  0  0  0  0
  142.3660   74.9170  220.8520 N   0  0  0  0  0  0  0  0  0  0  0  0
  141.3250   75.5330  221.4760 C   0  0  0  0  0  0  0  0  0  0  0  0
  141.2360   76.9730  221.4850 N   0  0  0  0  0  0  0  0  0  0  0  0
  140.7050   77.6890  222.6550 C   0  0  0  0  0  0  0  0  0  0  0  0
  141.4530   79.0190  222.8990 C   0  0  0  0  0  0  0  0  0  0  0  0
  142.0490   79.6180  221.6900 N   0  0  0  0  0  0  0  0  0  0  0  0
  141.3520   79.2230  220.4630 C   0  0  0  0  0  0  0  0  0  0  0  0
  141.4910   77.7130  220.2420 C   0  0  0  0  0  0  0  0  0  0  0  0
  140.3700   74.7780  222.0780 N   0  0  0  0  0  0  0  0  0  0  0  0
  141.0220   71.8680  226.6310 C   0  0  0  0  0  0  0  0  0  0  0  0
  140.7490   71.5580  227.9670 C   0  0  0  0  0  0  0  0  0  0  0  0
  139.8122   70.1601  229.3352 H   0  0  0  0  0  0  0  0  0  0  0  0
  139.0185   68.6444  227.5196 H   0  0  0  0  0  0  0  0  0  0  0  0
  139.5009   69.1918  225.1320 H   0  0  0  0  0  0  0  0  0  0  0  0
  141.3545   72.3373  224.1104 H   0  0  0  0  0  0  0  0  0  0  0  0
  141.5743   70.5689  223.7854 H   0  0  0  0  0  0  0  0  0  0  0  0
  139.7502   70.5918  222.4884 H   0  0  0  0  0  0  0  0  0  0  0  0
  138.7664   71.0825  223.9269 H   0  0  0  0  0  0  0  0  0  0  0  0
  138.4140   73.0280  222.7150 H   0  0  0  0  0  0  0  0  0  0  0  0
  141.5539   71.6809  221.4107 H   0  0  0  0  0  0  0  0  0  0  0  0
  145.1573   73.6287  221.3642 H   0  0  0  0  0  0  0  0  0  0  0  0
  144.6632   71.9073  221.5976 H   0  0  0  0  0  0  0  0  0  0  0  0
  146.9260   72.3971  220.3792 H   0  0  0  0  0  0  0  0  0  0  0  0
  145.7995   71.1849  219.6634 H   0  0  0  0  0  0  0  0  0  0  0  0
  145.9610   74.0430  218.8960 H   0  0  0  0  0  0  0  0  0  0  0  0
  144.3999   73.7200  217.3514 H   0  0  0  0  0  0  0  0  0  0  0  0
  144.8357   71.9466  217.2240 H   0  0  0  0  0  0  0  0  0  0  0  0
  142.5218   72.8174  218.3250 H   0  0  0  0  0  0  0  0  0  0  0  0
  143.3834   71.3163  218.8395 H   0  0  0  0  0  0  0  0  0  0  0  0
  139.6395   77.9048  222.4875 H   0  0  0  0  0  0  0  0  0  0  0  0
  140.8435   77.0503  223.5398 H   0  0  0  0  0  0  0  0  0  0  0  0
  140.7400   79.7409  223.3240 H   0  0  0  0  0  0  0  0  0  0  0  0
  142.2879   78.7878  223.5769 H   0  0  0  0  0  0  0  0  0  0  0  0
  143.0480   79.3140  221.6180 H   0  0  0  0  0  0  0  0  0  0  0  0
  140.2864   79.4814  220.5505 H   0  0  0  0  0  0  0  0  0  0  0  0
  141.7969   79.7546  219.6089 H   0  0  0  0  0  0  0  0  0  0  0  0
  140.7670   77.3932  219.4781 H   0  0  0  0  0  0  0  0  0  0  0  0
  142.5187   77.5004  219.9123 H   0  0  0  0  0  0  0  0  0  0  0  0
  141.5953   72.7740  226.3849 H   0  0  0  0  0  0  0  0  0  0  0  0
  141.1013   72.2234  228.7689 H   0  0  0  0  0  0  0  0  0  0  0  0
  1  2  2  0
  2  3  1  0
  3  4  2  0
  4  5  1  0
  5  6  1  0
  6  7  1  0
  7  8  1  0
  8  9  2  0
  9 10  1  0
 10 11  1  0
 11 12  1  0
 12 13  1  0
 13 14  1  0
 14 15  1  0
 15 16  1  0
 10 17  2  0
 17 18  1  0
 18 19  1  0
 19 20  1  0
 20 21  1  0
 21 22  1  0
 22 23  1  0
 23 24  1  0
 18 25  2  0
  4 26  1  0
 26 27  2  0
 27  1  1  0
 25  8  1  0
 16 11  1  0
 24 19  1  0
  1 28  1  0
  2 29  1  0
  3 30  1  0
  5 31  1  0
  5 32  1  0
  6 33  1  0
  6 34  1  0
  7 35  1  0
  9 36  1  0
 12 37  1  0
 12 38  1  0
 13 39  1  0
 13 40  1  0
 14 41  1  0
 15 42  1  0
 15 43  1  0
 16 44  1  0
 16 45  1  0
 20 46  1  0
 20 47  1  0
 21 48  1  0
 21 49  1  0
 22 50  1  0
 23 51  1  0
 23 52  1  0
 24 53  1  0
 24 54  1  0
 26 55  1  0
 27 56  1  0
M  END
>  <UniqueID>  (22) 
519

>  <SMILES>  (22) 
c1ccc(CCNc2cc(N3CCNCC3)nc(N3CCNCC3)n2)cc1

>  <Energy>  (22) 
62.81689782955762

>  <Genealogy>  (22) 
c1ccc(CCNc2cc(N3CCNCC3)nc(N3CCNCC3)n2)cc1 (3D coordinates assigned)
c1ccc(CCNc2cc(N3CCNCC3)nc(N3CCNCC3)n2)cc1 (nonaromatic ring conformer: 62.81689782955762 kcal/mol)

>  <smiles>  (22) 
c1ccc(CCNc2cc(N3CCNCC3)nc(N3CCNCC3)n2)cc1

>  <score_type>  (22) 
oracle

>  <origin>  (22) 
autodockgpu

>  <m_score__min__energy>  (22) 
-9.2300000000000004

>  <m_primary>  (22) 
energy

>  <meeko>  (22) 
{"free_energy": -9.23, "intermolecular_energy": -11.02, "internal_energy": -0.83, "cluster_size": 19, "cluster_id": 1, "rank_in_cluster": 2}

>  <energy>  (22) 
-9.23

>  <cluster_rmsd>  (22) 
0.02

>  <rmsd>  (22) 
271.07

>  <cluster>  (22) 
1

$$$$
USJHBUDYBBTILB-MPIMZMORNA-N
     RDKit          3D

 56 59  0  0  0  0  0  0  0  0999 V2000
  140.9660   70.5880  227.4960 C   0  0  0  0  0  0  0  0  0  0  0  0
  139.9540   69.6430  227.3190 C   0  0  0  0  0  0  0  0  0  0  0  0
  139.1980   69.6370  226.1430 C   0  0  0  0  0  0  0  0  0  0  0  0
  139.4490   70.5840  225.1350 C   0  0  0  0  0  0  0  0  0  0  0  0
  138.6590   70.5570  223.8510 C   0  0  0  0  0  0  0  0  0  0  0  0
  139.4960   71.0550  222.6660 C   0  0  0  0  0  0  0  0  0  0  0  0
  139.3920   72.5060  222.5120 N   0  0  0  0  0  0  0  0  0  0  0  0
  140.4520   73.3080  221.9680 C   0  0  0  0  0  0  0  0  0  0  0  0
  141.5810   72.6970  221.4160 C   0  0  0  0  0  0  0  0  0  0  0  0
  142.5920   73.5070  220.8810 C   0  0  0  0  0  0  0  0  0  0  0  0
  143.7640   72.9330  220.2720 N   0  0  0  0  0  0  0  0  0  0  0  0
  145.0560   73.0480  220.9590 C   0  0  0  0  0  0  0  0  0  0  0  0
  146.1970   72.5570  220.0590 C   0  0  0  0  0  0  0  0  0  0  0  0
  145.9880   73.0070  218.6770 N   0  0  0  0  0  0  0  0  0  0  0  0
  144.7760   72.4220  218.0680 C   0  0  0  0  0  0  0  0  0  0  0  0
  143.6690   72.0740  219.0850 C   0  0  0  0  0  0  0  0  0  0  0  0
  142.4350   74.8580  220.8930 N   0  0  0  0  0  0  0  0  0  0  0  0
  141.3340   75.4450  221.4370 C   0  0  0  0  0  0  0  0  0  0  0  0
  141.2040   76.8820  221.4350 N   0  0  0  0  0  0  0  0  0  0  0  0
  140.6650   77.5920  222.6050 C   0  0  0  0  0  0  0  0  0  0  0  0
  141.3770   78.9450  222.8310 C   0  0  0  0  0  0  0  0  0  0  0  0
  141.9440   79.5510  221.6100 N   0  0  0  0  0  0  0  0  0  0  0  0
  141.2460   79.1250  220.3930 C   0  0  0  0  0  0  0  0  0  0  0  0
  141.4250   77.6190  220.1840 C   0  0  0  0  0  0  0  0  0  0  0  0
  140.3580   74.6640  221.9690 N   0  0  0  0  0  0  0  0  0  0  0  0
  140.4760   71.5250  225.3160 C   0  0  0  0  0  0  0  0  0  0  0  0
  141.2280   71.5290  226.4950 C   0  0  0  0  0  0  0  0  0  0  0  0
  141.5578   70.5926  228.4233 H   0  0  0  0  0  0  0  0  0  0  0  0
  139.7510   68.9018  228.1061 H   0  0  0  0  0  0  0  0  0  0  0  0
  138.4038   68.8884  226.0060 H   0  0  0  0  0  0  0  0  0  0  0  0
  138.3359   69.5246  223.6517 H   0  0  0  0  0  0  0  0  0  0  0  0
  137.7914   71.2235  223.9653 H   0  0  0  0  0  0  0  0  0  0  0  0
  140.5496   70.7875  222.8344 H   0  0  0  0  0  0  0  0  0  0  0  0
  139.1149   70.5812  221.7493 H   0  0  0  0  0  0  0  0  0  0  0  0
  138.5050   72.9700  222.8100 H   0  0  0  0  0  0  0  0  0  0  0  0
  141.6745   71.6011  221.4016 H   0  0  0  0  0  0  0  0  0  0  0  0
  145.2320   74.1015  221.2221 H   0  0  0  0  0  0  0  0  0  0  0  0
  145.0297   72.4261  221.8659 H   0  0  0  0  0  0  0  0  0  0  0  0
  147.1509   72.9593  220.4309 H   0  0  0  0  0  0  0  0  0  0  0  0
  146.2181   71.4574  220.0771 H   0  0  0  0  0  0  0  0  0  0  0  0
  145.8950   74.0510  218.6790 H   0  0  0  0  0  0  0  0  0  0  0  0
  144.3680   73.1449  217.3462 H   0  0  0  0  0  0  0  0  0  0  0  0
  145.0817   71.4775  217.5942 H   0  0  0  0  0  0  0  0  0  0  0  0
  142.6863   72.2190  218.6124 H   0  0  0  0  0  0  0  0  0  0  0  0
  143.7926   71.0263  219.3966 H   0  0  0  0  0  0  0  0  0  0  0  0
  139.5920   77.7759  222.4472 H   0  0  0  0  0  0  0  0  0  0  0  0
  140.8312   76.9647  223.4932 H   0  0  0  0  0  0  0  0  0  0  0  0
  140.6479   79.6497  223.2574 H   0  0  0  0  0  0  0  0  0  0  0  0
  142.2247   78.7436  223.5024 H   0  0  0  0  0  0  0  0  0  0  0  0
  142.9500   79.2740  221.5300 H   0  0  0  0  0  0  0  0  0  0  0  0
  140.1744   79.3542  220.4890 H   0  0  0  0  0  0  0  0  0  0  0  0
  141.6674   79.6610  219.5298 H   0  0  0  0  0  0  0  0  0  0  0  0
  140.7026   77.2724  219.4304 H   0  0  0  0  0  0  0  0  0  0  0  0
  142.4552   77.4330  219.8461 H   0  0  0  0  0  0  0  0  0  0  0  0
  140.6895   72.2615  224.5274 H   0  0  0  0  0  0  0  0  0  0  0  0
  142.0262   72.2728  226.6352 H   0  0  0  0  0  0  0  0  0  0  0  0
  1  2  2  0
  2  3  1  0
  3  4  2  0
  4  5  1  0
  5  6  1  0
  6  7  1  0
  7  8  1  0
  8  9  2  0
  9 10  1  0
 10 11  1  0
 11 12  1  0
 12 13  1  0
 13 14  1  0
 14 15  1  0
 15 16  1  0
 10 17  2  0
 17 18  1  0
 18 19  1  0
 19 20  1  0
 20 21  1  0
 21 22  1  0
 22 23  1  0
 23 24  1  0
 18 25  2  0
  4 26  1  0
 26 27  2  0
 27  1  1  0
 25  8  1  0
 16 11  1  0
 24 19  1  0
  1 28  1  0
  2 29  1  0
  3 30  1  0
  5 31  1  0
  5 32  1  0
  6 33  1  0
  6 34  1  0
  7 35  1  0
  9 36  1  0
 12 37  1  0
 12 38  1  0
 13 39  1  0
 13 40  1  0
 14 41  1  0
 15 42  1  0
 15 43  1  0
 16 44  1  0
 16 45  1  0
 20 46  1  0
 20 47  1  0
 21 48  1  0
 21 49  1  0
 22 50  1  0
 23 51  1  0
 23 52  1  0
 24 53  1  0
 24 54  1  0
 26 55  1  0
 27 56  1  0
M  END
>  <UniqueID>  (23) 
519

>  <SMILES>  (23) 
c1ccc(CCNc2cc(N3CCNCC3)nc(N3CCNCC3)n2)cc1

>  <Energy>  (23) 
62.81689782955762

>  <Genealogy>  (23) 
c1ccc(CCNc2cc(N3CCNCC3)nc(N3CCNCC3)n2)cc1 (3D coordinates assigned)
c1ccc(CCNc2cc(N3CCNCC3)nc(N3CCNCC3)n2)cc1 (nonaromatic ring conformer: 62.81689782955762 kcal/mol)

>  <smiles>  (23) 
c1ccc(CCNc2cc(N3CCNCC3)nc(N3CCNCC3)n2)cc1

>  <score_type>  (23) 
oracle

>  <origin>  (23) 
autodockgpu

>  <m_score__min__energy>  (23) 
-9.2300000000000004

>  <m_primary>  (23) 
energy

>  <meeko>  (23) 
{"free_energy": -8.94, "intermolecular_energy": -10.73, "internal_energy": -0.9, "cluster_size": 19, "cluster_id": 1, "rank_in_cluster": 13}

>  <energy>  (23) 
-9.21

>  <cluster_rmsd>  (23) 
0.06

>  <rmsd>  (23) 
271.06

>  <cluster>  (23) 
1

$$$$
USJHBUDYBBTILB-MPIMZMORNA-N
     RDKit          3D

 56 59  0  0  0  0  0  0  0  0999 V2000
  141.0520   70.9880  227.7460 C   0  0  0  0  0  0  0  0  0  0  0  0
  140.0950   69.9790  227.6140 C   0  0  0  0  0  0  0  0  0  0  0  0
  139.3590   69.8630  226.4300 C   0  0  0  0  0  0  0  0  0  0  0  0
  139.5730   70.7630  225.3720 C   0  0  0  0  0  0  0  0  0  0  0  0
  138.8050   70.6180  224.0820 C   0  0  0  0  0  0  0  0  0  0  0  0
  139.6240   71.1130  222.8830 C   0  0  0  0  0  0  0  0  0  0  0  0
  139.4820   72.5570  222.7000 N   0  0  0  0  0  0  0  0  0  0  0  0
  140.4870   73.3620  222.0650 C   0  0  0  0  0  0  0  0  0  0  0  0
  141.5520   72.7550  221.3940 C   0  0  0  0  0  0  0  0  0  0  0  0
  142.5090   73.5670  220.7720 C   0  0  0  0  0  0  0  0  0  0  0  0
  143.6110   72.9970  220.0410 N   0  0  0  0  0  0  0  0  0  0  0  0
  144.8410   72.6460  220.7600 C   0  0  0  0  0  0  0  0  0  0  0  0
  145.9520   72.2490  219.7780 C   0  0  0  0  0  0  0  0  0  0  0  0
  145.9400   73.1340  218.6070 N   0  0  0  0  0  0  0  0  0  0  0  0
  144.7000   73.0080  217.8140 C   0  0  0  0  0  0  0  0  0  0  0  0
  143.4680   72.5810  218.6390 C   0  0  0  0  0  0  0  0  0  0  0  0
  142.3620   74.9190  220.8180 N   0  0  0  0  0  0  0  0  0  0  0  0
  141.3240   75.5030  221.4770 C   0  0  0  0  0  0  0  0  0  0  0  0
  141.2030   76.9400  221.5090 N   0  0  0  0  0  0  0  0  0  0  0  0
  140.6800   77.6270  222.6990 C   0  0  0  0  0  0  0  0  0  0  0  0
  141.4030   78.9710  222.9470 C   0  0  0  0  0  0  0  0  0  0  0  0
  141.9610   79.6000  221.7350 N   0  0  0  0  0  0  0  0  0  0  0  0
  141.2480   79.2060  220.5160 C   0  0  0  0  0  0  0  0  0  0  0  0
  141.4160   77.7030  220.2720 C   0  0  0  0  0  0  0  0  0  0  0  0
  140.4020   74.7180  222.0940 N   0  0  0  0  0  0  0  0  0  0  0  0
  140.5450   71.7670  225.5090 C   0  0  0  0  0  0  0  0  0  0  0  0
  141.2780   71.8810  226.6940 C   0  0  0  0  0  0  0  0  0  0  0  0
  141.6283   71.0801  228.6784 H   0  0  0  0  0  0  0  0  0  0  0  0
  139.9201   69.2755  228.4413 H   0  0  0  0  0  0  0  0  0  0  0  0
  138.6098   69.0642  226.3267 H   0  0  0  0  0  0  0  0  0  0  0  0
  138.5557   69.5572  223.9314 H   0  0  0  0  0  0  0  0  0  0  0  0
  137.8923   71.2279  224.1526 H   0  0  0  0  0  0  0  0  0  0  0  0
  140.6848   70.8762  223.0518 H   0  0  0  0  0  0  0  0  0  0  0  0
  139.2514   70.6108  221.9780 H   0  0  0  0  0  0  0  0  0  0  0  0
  138.6090   73.0140  223.0480 H   0  0  0  0  0  0  0  0  0  0  0  0
  141.6373   71.6590  221.3550 H   0  0  0  0  0  0  0  0  0  0  0  0
  145.1738   73.5128  221.3498 H   0  0  0  0  0  0  0  0  0  0  0  0
  144.6319   71.7913  221.4201 H   0  0  0  0  0  0  0  0  0  0  0  0
  146.9265   72.3279  220.2820 H   0  0  0  0  0  0  0  0  0  0  0  0
  145.7813   71.2145  219.4453 H   0  0  0  0  0  0  0  0  0  0  0  0
  146.0290   74.1240  218.9400 H   0  0  0  0  0  0  0  0  0  0  0  0
  144.4852   73.9823  217.3507 H   0  0  0  0  0  0  0  0  0  0  0  0
  144.8761   72.2155  217.0717 H   0  0  0  0  0  0  0  0  0  0  0  0
  142.5685   73.0498  218.2134 H   0  0  0  0  0  0  0  0  0  0  0  0
  143.3813   71.4850  218.6028 H   0  0  0  0  0  0  0  0  0  0  0  0
  139.6067   77.8206  222.5560 H   0  0  0  0  0  0  0  0  0  0  0  0
  140.8507   76.9795  223.5717 H   0  0  0  0  0  0  0  0  0  0  0  0
  140.6826   79.6705  223.3962 H   0  0  0  0  0  0  0  0  0  0  0  0
  142.2564   78.7496  223.6049 H   0  0  0  0  0  0  0  0  0  0  0  0
  142.9650   79.3190  221.6380 H   0  0  0  0  0  0  0  0  0  0  0  0
  140.1789   79.4394  220.6280 H   0  0  0  0  0  0  0  0  0  0  0  0
  141.6635   79.7588  219.6606 H   0  0  0  0  0  0  0  0  0  0  0  0
  140.6840   77.3773  219.5183 H   0  0  0  0  0  0  0  0  0  0  0  0
  142.4415   77.5185  219.9196 H   0  0  0  0  0  0  0  0  0  0  0  0
  140.7305   72.4666  224.6807 H   0  0  0  0  0  0  0  0  0  0  0  0
  142.0332   72.6739  226.7989 H   0  0  0  0  0  0  0  0  0  0  0  0
  1  2  2  0
  2  3  1  0
  3  4  2  0
  4  5  1  0
  5  6  1  0
  6  7  1  0
  7  8  1  0
  8  9  2  0
  9 10  1  0
 10 11  1  0
 11 12  1  0
 12 13  1  0
 13 14  1  0
 14 15  1  0
 15 16  1  0
 10 17  2  0
 17 18  1  0
 18 19  1  0
 19 20  1  0
 20 21  1  0
 21 22  1  0
 22 23  1  0
 23 24  1  0
 18 25  2  0
  4 26  1  0
 26 27  2  0
 27  1  1  0
 25  8  1  0
 16 11  1  0
 24 19  1  0
  1 28  1  0
  2 29  1  0
  3 30  1  0
  5 31  1  0
  5 32  1  0
  6 33  1  0
  6 34  1  0
  7 35  1  0
  9 36  1  0
 12 37  1  0
 12 38  1  0
 13 39  1  0
 13 40  1  0
 14 41  1  0
 15 42  1  0
 15 43  1  0
 16 44  1  0
 16 45  1  0
 20 46  1  0
 20 47  1  0
 21 48  1  0
 21 49  1  0
 22 50  1  0
 23 51  1  0
 23 52  1  0
 24 53  1  0
 24 54  1  0
 26 55  1  0
 27 56  1  0
M  END
>  <UniqueID>  (24) 
519

>  <SMILES>  (24) 
c1ccc(CCNc2cc(N3CCNCC3)nc(N3CCNCC3)n2)cc1

>  <Energy>  (24) 
62.81689782955762

>  <Genealogy>  (24) 
c1ccc(CCNc2cc(N3CCNCC3)nc(N3CCNCC3)n2)cc1 (3D coordinates assigned)
c1ccc(CCNc2cc(N3CCNCC3)nc(N3CCNCC3)n2)cc1 (nonaromatic ring conformer: 62.81689782955762 kcal/mol)

>  <smiles>  (24) 
c1ccc(CCNc2cc(N3CCNCC3)nc(N3CCNCC3)n2)cc1

>  <score_type>  (24) 
oracle

>  <origin>  (24) 
autodockgpu

>  <m_score__min__energy>  (24) 
-9.2300000000000004

>  <m_primary>  (24) 
energy

>  <meeko>  (24) 
{"free_energy": -8.98, "intermolecular_energy": -10.77, "internal_energy": -0.89, "cluster_size": 19, "cluster_id": 1, "rank_in_cluster": 12}

>  <energy>  (24) 
-9.2

>  <cluster_rmsd>  (24) 
0.08

>  <rmsd>  (24) 
271.05

>  <cluster>  (24) 
1

$$$$
USJHBUDYBBTILB-MPIMZMORNA-N
     RDKit          3D

 56 59  0  0  0  0  0  0  0  0999 V2000
  141.0640   70.6020  227.6290 C   0  0  0  0  0  0  0  0  0  0  0  0
  141.3220   71.5400  226.6270 C   0  0  0  0  0  0  0  0  0  0  0  0
  140.5750   71.5260  225.4450 C   0  0  0  0  0  0  0  0  0  0  0  0
  139.5650   70.5660  225.2570 C   0  0  0  0  0  0  0  0  0  0  0  0
  138.7340   70.5720  223.9990 C   0  0  0  0  0  0  0  0  0  0  0  0
  139.5380   71.0850  222.7970 C   0  0  0  0  0  0  0  0  0  0  0  0
  139.4410   72.5390  222.6720 N   0  0  0  0  0  0  0  0  0  0  0  0
  140.4640   73.3350  222.0540 C   0  0  0  0  0  0  0  0  0  0  0  0
  141.5330   72.7190  221.3990 C   0  0  0  0  0  0  0  0  0  0  0  0
  142.5080   73.5240  220.7940 C   0  0  0  0  0  0  0  0  0  0  0  0
  143.6160   72.9440  220.0790 N   0  0  0  0  0  0  0  0  0  0  0  0
  144.8510   72.6300  220.8080 C   0  0  0  0  0  0  0  0  0  0  0  0
  145.9650   72.2160  219.8370 C   0  0  0  0  0  0  0  0  0  0  0  0
  145.9410   73.0650  218.6400 N   0  0  0  0  0  0  0  0  0  0  0  0
  144.7030   72.9010  217.8530 C   0  0  0  0  0  0  0  0  0  0  0  0
  143.4770   72.4840  218.6920 C   0  0  0  0  0  0  0  0  0  0  0  0
  142.3730   74.8770  220.8420 N   0  0  0  0  0  0  0  0  0  0  0  0
  141.3300   75.4690  221.4850 C   0  0  0  0  0  0  0  0  0  0  0  0
  141.2230   76.9070  221.5180 N   0  0  0  0  0  0  0  0  0  0  0  0
  140.7220   77.6000  222.7150 C   0  0  0  0  0  0  0  0  0  0  0  0
  141.4600   78.9370  222.9530 C   0  0  0  0  0  0  0  0  0  0  0  0
  142.0070   79.5610  221.7330 N   0  0  0  0  0  0  0  0  0  0  0  0
  141.2740   79.1720  220.5240 C   0  0  0  0  0  0  0  0  0  0  0  0
  141.4260   77.6680  220.2780 C   0  0  0  0  0  0  0  0  0  0  0  0
  140.3900   74.6920  222.0850 N   0  0  0  0  0  0  0  0  0  0  0  0
  139.3040   69.6340  226.2750 C   0  0  0  0  0  0  0  0  0  0  0  0
  140.0540   69.6500  227.4550 C   0  0  0  0  0  0  0  0  0  0  0  0
  141.6558   70.6118  228.5562 H   0  0  0  0  0  0  0  0  0  0  0  0
  142.1137   72.2906  226.7677 H   0  0  0  0  0  0  0  0  0  0  0  0
  140.7782   72.2687  224.6594 H   0  0  0  0  0  0  0  0  0  0  0  0
  138.3938   69.5470  223.7903 H   0  0  0  0  0  0  0  0  0  0  0  0
  137.8775   71.2446  224.1541 H   0  0  0  0  0  0  0  0  0  0  0  0
  140.5941   70.8066  222.9276 H   0  0  0  0  0  0  0  0  0  0  0  0
  139.1248   70.6306  221.8845 H   0  0  0  0  0  0  0  0  0  0  0  0
  138.5870   73.0100  223.0480 H   0  0  0  0  0  0  0  0  0  0  0  0
  141.6083   71.6223  221.3587 H   0  0  0  0  0  0  0  0  0  0  0  0
  145.1741   73.5186  221.3702 H   0  0  0  0  0  0  0  0  0  0  0  0
  144.6527   71.7942  221.4951 H   0  0  0  0  0  0  0  0  0  0  0  0
  146.9392   72.3213  220.3368 H   0  0  0  0  0  0  0  0  0  0  0  0
  145.8060   71.1699  219.5362 H   0  0  0  0  0  0  0  0  0  0  0  0
  146.0190   74.0660  218.9420 H   0  0  0  0  0  0  0  0  0  0  0  0
  144.4762   73.8585  217.3613 H   0  0  0  0  0  0  0  0  0  0  0  0
  144.8879   72.0892  217.1341 H   0  0  0  0  0  0  0  0  0  0  0  0
  142.5714   72.9283  218.2534 H   0  0  0  0  0  0  0  0  0  0  0  0
  143.4037   71.3864  218.6893 H   0  0  0  0  0  0  0  0  0  0  0  0
  139.6487   77.8034  222.5860 H   0  0  0  0  0  0  0  0  0  0  0  0
  140.8987   76.9513  223.5856 H   0  0  0  0  0  0  0  0  0  0  0  0
  140.7521   79.6429  223.4119 H   0  0  0  0  0  0  0  0  0  0  0  0
  142.3202   78.7081  223.5993 H   0  0  0  0  0  0  0  0  0  0  0  0
  143.0070   79.2710  221.6230 H   0  0  0  0  0  0  0  0  0  0  0  0
  140.2085   79.4142  220.6507 H   0  0  0  0  0  0  0  0  0  0  0  0
  141.6825   79.7210  219.6628 H   0  0  0  0  0  0  0  0  0  0  0  0
  140.6813   77.3484  219.5342 H   0  0  0  0  0  0  0  0  0  0  0  0
  142.4451   77.4747  219.9119 H   0  0  0  0  0  0  0  0  0  0  0  0
  138.5061   68.8883  226.1433 H   0  0  0  0  0  0  0  0  0  0  0  0
  139.8498   68.9139  228.2465 H   0  0  0  0  0  0  0  0  0  0  0  0
  1  2  2  0
  2  3  1  0
  3  4  2  0
  4  5  1  0
  5  6  1  0
  6  7  1  0
  7  8  1  0
  8  9  2  0
  9 10  1  0
 10 11  1  0
 11 12  1  0
 12 13  1  0
 13 14  1  0
 14 15  1  0
 15 16  1  0
 10 17  2  0
 17 18  1  0
 18 19  1  0
 19 20  1  0
 20 21  1  0
 21 22  1  0
 22 23  1  0
 23 24  1  0
 18 25  2  0
  4 26  1  0
 26 27  2  0
 27  1  1  0
 25  8  1  0
 16 11  1  0
 24 19  1  0
  1 28  1  0
  2 29  1  0
  3 30  1  0
  5 31  1  0
  5 32  1  0
  6 33  1  0
  6 34  1  0
  7 35  1  0
  9 36  1  0
 12 37  1  0
 12 38  1  0
 13 39  1  0
 13 40  1  0
 14 41  1  0
 15 42  1  0
 15 43  1  0
 16 44  1  0
 16 45  1  0
 20 46  1  0
 20 47  1  0
 21 48  1  0
 21 49  1  0
 22 50  1  0
 23 51  1  0
 23 52  1  0
 24 53  1  0
 24 54  1  0
 26 55  1  0
 27 56  1  0
M  END
>  <UniqueID>  (25) 
519

>  <SMILES>  (25) 
c1ccc(CCNc2cc(N3CCNCC3)nc(N3CCNCC3)n2)cc1

>  <Energy>  (25) 
62.81689782955762

>  <Genealogy>  (25) 
c1ccc(CCNc2cc(N3CCNCC3)nc(N3CCNCC3)n2)cc1 (3D coordinates assigned)
c1ccc(CCNc2cc(N3CCNCC3)nc(N3CCNCC3)n2)cc1 (nonaromatic ring conformer: 62.81689782955762 kcal/mol)

>  <smiles>  (25) 
c1ccc(CCNc2cc(N3CCNCC3)nc(N3CCNCC3)n2)cc1

>  <score_type>  (25) 
oracle

>  <origin>  (25) 
autodockgpu

>  <m_score__min__energy>  (25) 
-9.2300000000000004

>  <m_primary>  (25) 
energy

>  <meeko>  (25) 
{"free_energy": -9.01, "intermolecular_energy": -10.8, "internal_energy": -0.89, "cluster_size": 19, "cluster_id": 1, "rank_in_cluster": 9}

>  <energy>  (25) 
-9.18

>  <cluster_rmsd>  (25) 
0.1

>  <rmsd>  (25) 
271.02

>  <cluster>  (25) 
1

$$$$
USJHBUDYBBTILB-MPIMZMORNA-N
     RDKit          3D

 56 59  0  0  0  0  0  0  0  0999 V2000
  142.2920   81.3100  223.3930 C   0  0  0  0  0  0  0  0  0  0  0  0
  142.5180   80.0190  223.8740 C   0  0  0  0  0  0  0  0  0  0  0  0
  141.5620   79.0190  223.6740 C   0  0  0  0  0  0  0  0  0  0  0  0
  140.3670   79.3090  222.9930 C   0  0  0  0  0  0  0  0  0  0  0  0
  139.3500   78.2230  222.7450 C   0  0  0  0  0  0  0  0  0  0  0  0
  139.7010   77.3990  221.5000 C   0  0  0  0  0  0  0  0  0  0  0  0
  141.0280   76.7960  221.6160 N   0  0  0  0  0  0  0  0  0  0  0  0
  141.2510   75.3810  221.5110 C   0  0  0  0  0  0  0  0  0  0  0  0
  142.4180   74.8970  220.9130 C   0  0  0  0  0  0  0  0  0  0  0  0
  142.6120   73.5120  220.8370 C   0  0  0  0  0  0  0  0  0  0  0  0
  143.8090   72.9560  220.2600 N   0  0  0  0  0  0  0  0  0  0  0  0
  145.0830   73.1080  220.9710 C   0  0  0  0  0  0  0  0  0  0  0  0
  146.2530   72.6310  220.1000 C   0  0  0  0  0  0  0  0  0  0  0  0
  146.0620   73.0580  218.7090 N   0  0  0  0  0  0  0  0  0  0  0  0
  144.8760   72.4390  218.0840 C   0  0  0  0  0  0  0  0  0  0  0  0
  143.7560   72.0790  219.0820 C   0  0  0  0  0  0  0  0  0  0  0  0
  141.6740   72.6810  221.3680 N   0  0  0  0  0  0  0  0  0  0  0  0
  140.5390   73.1600  221.9450 C   0  0  0  0  0  0  0  0  0  0  0  0
  139.5640   72.2490  222.4930 N   0  0  0  0  0  0  0  0  0  0  0  0
  139.9690   71.1750  223.4140 C   0  0  0  0  0  0  0  0  0  0  0  0
  138.9100   70.9380  224.5150 C   0  0  0  0  0  0  0  0  0  0  0  0
  137.5330   71.3040  224.1310 N   0  0  0  0  0  0  0  0  0  0  0  0
  137.3150   71.2360  222.6830 C   0  0  0  0  0  0  0  0  0  0  0  0
  138.1920   72.2700  221.9700 C   0  0  0  0  0  0  0  0  0  0  0  0
  140.3400   74.5030  222.0070 N   0  0  0  0  0  0  0  0  0  0  0  0
  140.1520   80.6070  222.5020 C   0  0  0  0  0  0  0  0  0  0  0  0
  141.1100   81.6050  222.7050 C   0  0  0  0  0  0  0  0  0  0  0  0
  143.0441   82.0962  223.5551 H   0  0  0  0  0  0  0  0  0  0  0  0
  143.4498   79.7884  224.4112 H   0  0  0  0  0  0  0  0  0  0  0  0
  141.7454   78.0019  224.0507 H   0  0  0  0  0  0  0  0  0  0  0  0
  139.3195   77.5554  223.6187 H   0  0  0  0  0  0  0  0  0  0  0  0
  138.3712   78.6973  222.5807 H   0  0  0  0  0  0  0  0  0  0  0  0
  138.9545   76.6005  221.3772 H   0  0  0  0  0  0  0  0  0  0  0  0
  139.7009   78.0707  220.6289 H   0  0  0  0  0  0  0  0  0  0  0  0
  141.8430   77.4280  221.7800 H   0  0  0  0  0  0  0  0  0  0  0  0
  143.1701   75.5910  220.5095 H   0  0  0  0  0  0  0  0  0  0  0  0
  145.2306   74.1683  221.2241 H   0  0  0  0  0  0  0  0  0  0  0  0
  145.0518   72.4971  221.8852 H   0  0  0  0  0  0  0  0  0  0  0  0
  147.1900   73.0594  220.4853 H   0  0  0  0  0  0  0  0  0  0  0  0
  146.2981   71.5324  220.1332 H   0  0  0  0  0  0  0  0  0  0  0  0
  145.9460   74.1000  218.6950 H   0  0  0  0  0  0  0  0  0  0  0  0
  144.4672   73.1437  217.3449 H   0  0  0  0  0  0  0  0  0  0  0  0
  145.2122   71.4955  217.6293 H   0  0  0  0  0  0  0  0  0  0  0  0
  142.7803   72.1966  218.5878 H   0  0  0  0  0  0  0  0  0  0  0  0
  143.8948   71.0380  219.4093 H   0  0  0  0  0  0  0  0  0  0  0  0
  140.1023   70.2454  222.8413 H   0  0  0  0  0  0  0  0  0  0  0  0
  140.9086   71.4759  223.9004 H   0  0  0  0  0  0  0  0  0  0  0  0
  138.9207   69.8698  224.7773 H   0  0  0  0  0  0  0  0  0  0  0  0
  139.1833   71.5914  225.3567 H   0  0  0  0  0  0  0  0  0  0  0  0
  137.3400   72.2820  224.4510 H   0  0  0  0  0  0  0  0  0  0  0  0
  137.5736   70.2293  222.3229 H   0  0  0  0  0  0  0  0  0  0  0  0
  136.2578   71.4503  222.4674 H   0  0  0  0  0  0  0  0  0  0  0  0
  138.2140   72.0420  220.8941 H   0  0  0  0  0  0  0  0  0  0  0  0
  137.7665   73.2693  222.1444 H   0  0  0  0  0  0  0  0  0  0  0  0
  139.2261   80.8395  221.9555 H   0  0  0  0  0  0  0  0  0  0  0  0
  140.9344   82.6218  222.3239 H   0  0  0  0  0  0  0  0  0  0  0  0
  1  2  2  0
  2  3  1  0
  3  4  2  0
  4  5  1  0
  5  6  1  0
  6  7  1  0
  7  8  1  0
  8  9  2  0
  9 10  1  0
 10 11  1  0
 11 12  1  0
 12 13  1  0
 13 14  1  0
 14 15  1  0
 15 16  1  0
 10 17  2  0
 17 18  1  0
 18 19  1  0
 19 20  1  0
 20 21  1  0
 21 22  1  0
 22 23  1  0
 23 24  1  0
 18 25  2  0
  4 26  1  0
 26 27  2  0
 27  1  1  0
 25  8  1  0
 16 11  1  0
 24 19  1  0
  1 28  1  0
  2 29  1  0
  3 30  1  0
  5 31  1  0
  5 32  1  0
  6 33  1  0
  6 34  1  0
  7 35  1  0
  9 36  1  0
 12 37  1  0
 12 38  1  0
 13 39  1  0
 13 40  1  0
 14 41  1  0
 15 42  1  0
 15 43  1  0
 16 44  1  0
 16 45  1  0
 20 46  1  0
 20 47  1  0
 21 48  1  0
 21 49  1  0
 22 50  1  0
 23 51  1  0
 23 52  1  0
 24 53  1  0
 24 54  1  0
 26 55  1  0
 27 56  1  0
M  END
>  <UniqueID>  (26) 
519

>  <SMILES>  (26) 
c1ccc(CCNc2cc(N3CCNCC3)nc(N3CCNCC3)n2)cc1

>  <Energy>  (26) 
62.81689782955762

>  <Genealogy>  (26) 
c1ccc(CCNc2cc(N3CCNCC3)nc(N3CCNCC3)n2)cc1 (3D coordinates assigned)
c1ccc(CCNc2cc(N3CCNCC3)nc(N3CCNCC3)n2)cc1 (nonaromatic ring conformer: 62.81689782955762 kcal/mol)

>  <smiles>  (26) 
c1ccc(CCNc2cc(N3CCNCC3)nc(N3CCNCC3)n2)cc1

>  <score_type>  (26) 
oracle

>  <origin>  (26) 
autodockgpu

>  <m_score__min__energy>  (26) 
-9.2300000000000004

>  <m_primary>  (26) 
energy

>  <meeko>  (26) 
{"free_energy": -8.26, "intermolecular_energy": -10.05, "internal_energy": -0.86, "cluster_size": 1, "cluster_id": 2, "rank_in_cluster": 1}

>  <energy>  (26) 
-9.12

>  <cluster_rmsd>  (26) 
0.25

>  <rmsd>  (26) 
271.0

>  <cluster>  (26) 
1

$$$$
USJHBUDYBBTILB-MPIMZMORNA-N
     RDKit          3D

 56 59  0  0  0  0  0  0  0  0999 V2000
  140.6280   69.9340  228.0950 C   0  0  0  0  0  0  0  0  0  0  0  0
  140.2510   69.2110  226.9610 C   0  0  0  0  0  0  0  0  0  0  0  0
  140.2620   69.8240  225.7040 C   0  0  0  0  0  0  0  0  0  0  0  0
  140.6470   71.1690  225.5760 C   0  0  0  0  0  0  0  0  0  0  0  0
  140.6940   71.8210  224.2170 C   0  0  0  0  0  0  0  0  0  0  0  0
  139.4150   71.5450  223.4160 C   0  0  0  0  0  0  0  0  0  0  0  0
  139.2920   72.4540  222.2770 N   0  0  0  0  0  0  0  0  0  0  0  0
  140.3790   73.2670  221.8100 C   0  0  0  0  0  0  0  0  0  0  0  0
  141.5140   72.6690  221.2560 C   0  0  0  0  0  0  0  0  0  0  0  0
  142.5530   73.4890  220.7970 C   0  0  0  0  0  0  0  0  0  0  0  0
  143.7330   72.9300  220.1890 N   0  0  0  0  0  0  0  0  0  0  0  0
  145.0100   73.0040  220.9070 C   0  0  0  0  0  0  0  0  0  0  0  0
  146.1670   72.5400  220.0110 C   0  0  0  0  0  0  0  0  0  0  0  0
  145.9920   73.0500  218.6460 N   0  0  0  0  0  0  0  0  0  0  0  0
  144.7880   72.5040  217.9870 C   0  0  0  0  0  0  0  0  0  0  0  0
  143.6560   72.1230  218.9640 C   0  0  0  0  0  0  0  0  0  0  0  0
  142.4170   74.8400  220.8810 N   0  0  0  0  0  0  0  0  0  0  0  0
  141.3100   75.4150  221.4260 C   0  0  0  0  0  0  0  0  0  0  0  0
  141.2030   76.8510  221.5030 N   0  0  0  0  0  0  0  0  0  0  0  0
  140.6780   77.5060  222.7110 C   0  0  0  0  0  0  0  0  0  0  0  0
  141.4120   78.8330  223.0070 C   0  0  0  0  0  0  0  0  0  0  0  0
  141.9860   79.4950  221.8200 N   0  0  0  0  0  0  0  0  0  0  0  0
  141.2780   79.1470  220.5840 C   0  0  0  0  0  0  0  0  0  0  0  0
  141.4330   77.6520  220.2930 C   0  0  0  0  0  0  0  0  0  0  0  0
  140.3070   74.6220  221.8860 N   0  0  0  0  0  0  0  0  0  0  0  0
  141.0360   71.8860  226.7190 C   0  0  0  0  0  0  0  0  0  0  0  0
  141.0210   71.2710  227.9750 C   0  0  0  0  0  0  0  0  0  0  0  0
  140.6158   69.4515  229.0834 H   0  0  0  0  0  0  0  0  0  0  0  0
  139.9452   68.1587  227.0566 H   0  0  0  0  0  0  0  0  0  0  0  0
  139.9681   69.2509  224.8123 H   0  0  0  0  0  0  0  0  0  0  0  0
  140.8076   72.9075  224.3456 H   0  0  0  0  0  0  0  0  0  0  0  0
  141.5459   71.4010  223.6622 H   0  0  0  0  0  0  0  0  0  0  0  0
  139.4408   70.5093  223.0462 H   0  0  0  0  0  0  0  0  0  0  0  0
  138.5510   71.7015  224.0786 H   0  0  0  0  0  0  0  0  0  0  0  0
  138.3700   72.5070  221.7870 H   0  0  0  0  0  0  0  0  0  0  0  0
  141.5903   71.5742  221.1817 H   0  0  0  0  0  0  0  0  0  0  0  0
  145.1892   74.0438  221.2178 H   0  0  0  0  0  0  0  0  0  0  0  0
  144.9588   72.3449  221.7862 H   0  0  0  0  0  0  0  0  0  0  0  0
  147.1160   72.9169  220.4200 H   0  0  0  0  0  0  0  0  0  0  0  0
  146.1782   71.4404  219.9828 H   0  0  0  0  0  0  0  0  0  0  0  0
  145.9080   74.0940  218.6910 H   0  0  0  0  0  0  0  0  0  0  0  0
  144.4021   73.2616  217.2890 H   0  0  0  0  0  0  0  0  0  0  0  0
  145.0954   71.5778  217.4794 H   0  0  0  0  0  0  0  0  0  0  0  0
  142.6851   72.2975  218.4772 H   0  0  0  0  0  0  0  0  0  0  0  0
  143.7634   71.0617  219.2327 H   0  0  0  0  0  0  0  0  0  0  0  0
  139.6078   77.7152  222.5664 H   0  0  0  0  0  0  0  0  0  0  0  0
  140.8359   76.8294  223.5638 H   0  0  0  0  0  0  0  0  0  0  0  0
  140.6952   79.5251  223.4729 H   0  0  0  0  0  0  0  0  0  0  0  0
  142.2580   78.5818  223.6636 H   0  0  0  0  0  0  0  0  0  0  0  0
  142.9870   79.2070  221.7220 H   0  0  0  0  0  0  0  0  0  0  0  0
  140.2104   79.3872  220.6961 H   0  0  0  0  0  0  0  0  0  0  0  0
  141.7052   79.7227  219.7497 H   0  0  0  0  0  0  0  0  0  0  0  0
  140.7037   77.3582  219.5237 H   0  0  0  0  0  0  0  0  0  0  0  0
  142.4595   77.4688  219.9426 H   0  0  0  0  0  0  0  0  0  0  0  0
  141.3536   72.9350  226.6262 H   0  0  0  0  0  0  0  0  0  0  0  0
  141.3184   71.8390  228.8689 H   0  0  0  0  0  0  0  0  0  0  0  0
  1  2  2  0
  2  3  1  0
  3  4  2  0
  4  5  1  0
  5  6  1  0
  6  7  1  0
  7  8  1  0
  8  9  2  0
  9 10  1  0
 10 11  1  0
 11 12  1  0
 12 13  1  0
 13 14  1  0
 14 15  1  0
 15 16  1  0
 10 17  2  0
 17 18  1  0
 18 19  1  0
 19 20  1  0
 20 21  1  0
 21 22  1  0
 22 23  1  0
 23 24  1  0
 18 25  2  0
  4 26  1  0
 26 27  2  0
 27  1  1  0
 25  8  1  0
 16 11  1  0
 24 19  1  0
  1 28  1  0
  2 29  1  0
  3 30  1  0
  5 31  1  0
  5 32  1  0
  6 33  1  0
  6 34  1  0
  7 35  1  0
  9 36  1  0
 12 37  1  0
 12 38  1  0
 13 39  1  0
 13 40  1  0
 14 41  1  0
 15 42  1  0
 15 43  1  0
 16 44  1  0
 16 45  1  0
 20 46  1  0
 20 47  1  0
 21 48  1  0
 21 49  1  0
 22 50  1  0
 23 51  1  0
 23 52  1  0
 24 53  1  0
 24 54  1  0
 26 55  1  0
 27 56  1  0
M  END
>  <UniqueID>  (27) 
519

>  <SMILES>  (27) 
c1ccc(CCNc2cc(N3CCNCC3)nc(N3CCNCC3)n2)cc1

>  <Energy>  (27) 
62.81689782955762

>  <Genealogy>  (27) 
c1ccc(CCNc2cc(N3CCNCC3)nc(N3CCNCC3)n2)cc1 (3D coordinates assigned)
c1ccc(CCNc2cc(N3CCNCC3)nc(N3CCNCC3)n2)cc1 (nonaromatic ring conformer: 62.81689782955762 kcal/mol)

>  <smiles>  (27) 
c1ccc(CCNc2cc(N3CCNCC3)nc(N3CCNCC3)n2)cc1

>  <score_type>  (27) 
oracle

>  <origin>  (27) 
autodockgpu

>  <m_score__min__energy>  (27) 
-9.2300000000000004

>  <m_primary>  (27) 
energy

>  <meeko>  (27) 
{"free_energy": -9.0, "intermolecular_energy": -10.79, "internal_energy": -0.84, "cluster_size": 19, "cluster_id": 1, "rank_in_cluster": 10}

>  <energy>  (27) 
-9.02

>  <cluster_rmsd>  (27) 
0.39

>  <rmsd>  (27) 
271.05

>  <cluster>  (27) 
1

$$$$
USJHBUDYBBTILB-MPIMZMORNA-N
     RDKit          3D

 56 59  0  0  0  0  0  0  0  0999 V2000
  139.9830   70.5290  228.1980 C   0  0  0  0  0  0  0  0  0  0  0  0
  139.5380   69.6240  227.2310 C   0  0  0  0  0  0  0  0  0  0  0  0
  139.8180   69.8480  225.8800 C   0  0  0  0  0  0  0  0  0  0  0  0
  140.5430   70.9860  225.4860 C   0  0  0  0  0  0  0  0  0  0  0  0
  140.8770   71.2110  224.0330 C   0  0  0  0  0  0  0  0  0  0  0  0
  139.6100   71.2870  223.1710 C   0  0  0  0  0  0  0  0  0  0  0  0
  139.3870   72.6430  222.6690 N   0  0  0  0  0  0  0  0  0  0  0  0
  140.4200   73.4180  222.0410 C   0  0  0  0  0  0  0  0  0  0  0  0
  141.4880   72.7800  221.4050 C   0  0  0  0  0  0  0  0  0  0  0  0
  142.4730   73.5640  220.7900 C   0  0  0  0  0  0  0  0  0  0  0  0
  143.5800   72.9610  220.0940 N   0  0  0  0  0  0  0  0  0  0  0  0
  144.8180   72.6780  220.8300 C   0  0  0  0  0  0  0  0  0  0  0  0
  145.9310   72.2310  219.8720 C   0  0  0  0  0  0  0  0  0  0  0  0
  145.9010   73.0340  218.6440 N   0  0  0  0  0  0  0  0  0  0  0  0
  144.6610   72.8360  217.8670 C   0  0  0  0  0  0  0  0  0  0  0  0
  143.4390   72.4480  218.7250 C   0  0  0  0  0  0  0  0  0  0  0  0
  142.3480   74.9190  220.8080 N   0  0  0  0  0  0  0  0  0  0  0  0
  141.3070   75.5330  221.4330 C   0  0  0  0  0  0  0  0  0  0  0  0
  141.2110   76.9720  221.4350 N   0  0  0  0  0  0  0  0  0  0  0  0
  140.6560   77.6900  222.5930 C   0  0  0  0  0  0  0  0  0  0  0  0
  141.3930   79.0250  222.8450 C   0  0  0  0  0  0  0  0  0  0  0  0
  142.0070   79.6230  221.6430 N   0  0  0  0  0  0  0  0  0  0  0  0
  141.3330   79.2190  220.4060 C   0  0  0  0  0  0  0  0  0  0  0  0
  141.4820   77.7090  220.1940 C   0  0  0  0  0  0  0  0  0  0  0  0
  140.3570   74.7760  222.0430 N   0  0  0  0  0  0  0  0  0  0  0  0
  140.9970   71.8850  226.4650 C   0  0  0  0  0  0  0  0  0  0  0  0
  140.7130   71.6580  227.8150 C   0  0  0  0  0  0  0  0  0  0  0  0
  139.7590   70.3532  229.2605 H   0  0  0  0  0  0  0  0  0  0  0  0
  138.9665   68.7340  227.5333 H   0  0  0  0  0  0  0  0  0  0  0  0
  139.4696   69.1309  225.1221 H   0  0  0  0  0  0  0  0  0  0  0  0
  141.4328   72.1553  223.9359 H   0  0  0  0  0  0  0  0  0  0  0  0
  141.4831   70.3626  223.6824 H   0  0  0  0  0  0  0  0  0  0  0  0
  139.7165   70.6021  222.3169 H   0  0  0  0  0  0  0  0  0  0  0  0
  138.7494   71.0025  223.7943 H   0  0  0  0  0  0  0  0  0  0  0  0
  138.4330   73.0560  222.7730 H   0  0  0  0  0  0  0  0  0  0  0  0
  141.5543   71.6821  221.3874 H   0  0  0  0  0  0  0  0  0  0  0  0
  145.1400   73.5879  221.3576 H   0  0  0  0  0  0  0  0  0  0  0  0
  144.6241   71.8677  221.5482 H   0  0  0  0  0  0  0  0  0  0  0  0
  146.9062   72.3582  220.3647 H   0  0  0  0  0  0  0  0  0  0  0  0
  145.7747   71.1738  219.6113 H   0  0  0  0  0  0  0  0  0  0  0  0
  145.9770   74.0460  218.9080 H   0  0  0  0  0  0  0  0  0  0  0  0
  144.4299   73.7731  217.3394 H   0  0  0  0  0  0  0  0  0  0  0  0
  144.8464   71.9978  217.1792 H   0  0  0  0  0  0  0  0  0  0  0  0
  142.5308   72.8726  218.2723 H   0  0  0  0  0  0  0  0  0  0  0  0
  143.3695   71.3509  218.7646 H   0  0  0  0  0  0  0  0  0  0  0  0
  139.5925   77.8997  222.4061 H   0  0  0  0  0  0  0  0  0  0  0  0
  140.7824   77.0554  223.4826 H   0  0  0  0  0  0  0  0  0  0  0  0
  140.6692   79.7447  223.2550 H   0  0  0  0  0  0  0  0  0  0  0  0
  142.2173   78.8007  223.5381 H   0  0  0  0  0  0  0  0  0  0  0  0
  143.0080   79.3230  221.5890 H   0  0  0  0  0  0  0  0  0  0  0  0
  140.2649   79.4732  220.4740 H   0  0  0  0  0  0  0  0  0  0  0  0
  141.7906   79.7485  219.5573 H   0  0  0  0  0  0  0  0  0  0  0  0
  140.7716   77.3830  219.4200 H   0  0  0  0  0  0  0  0  0  0  0  0
  142.5160   77.5002  219.8821 H   0  0  0  0  0  0  0  0  0  0  0  0
  141.5780   72.7707  226.1685 H   0  0  0  0  0  0  0  0  0  0  0  0
  141.0646   72.3690  228.5771 H   0  0  0  0  0  0  0  0  0  0  0  0
  1  2  2  0
  2  3  1  0
  3  4  2  0
  4  5  1  0
  5  6  1  0
  6  7  1  0
  7  8  1  0
  8  9  2  0
  9 10  1  0
 10 11  1  0
 11 12  1  0
 12 13  1  0
 13 14  1  0
 14 15  1  0
 15 16  1  0
 10 17  2  0
 17 18  1  0
 18 19  1  0
 19 20  1  0
 20 21  1  0
 21 22  1  0
 22 23  1  0
 23 24  1  0
 18 25  2  0
  4 26  1  0
 26 27  2  0
 27  1  1  0
 25  8  1  0
 16 11  1  0
 24 19  1  0
  1 28  1  0
  2 29  1  0
  3 30  1  0
  5 31  1  0
  5 32  1  0
  6 33  1  0
  6 34  1  0
  7 35  1  0
  9 36  1  0
 12 37  1  0
 12 38  1  0
 13 39  1  0
 13 40  1  0
 14 41  1  0
 15 42  1  0
 15 43  1  0
 16 44  1  0
 16 45  1  0
 20 46  1  0
 20 47  1  0
 21 48  1  0
 21 49  1  0
 22 50  1  0
 23 51  1  0
 23 52  1  0
 24 53  1  0
 24 54  1  0
 26 55  1  0
 27 56  1  0
M  END
>  <UniqueID>  (28) 
519

>  <SMILES>  (28) 
c1ccc(CCNc2cc(N3CCNCC3)nc(N3CCNCC3)n2)cc1

>  <Energy>  (28) 
62.81689782955762

>  <Genealogy>  (28) 
c1ccc(CCNc2cc(N3CCNCC3)nc(N3CCNCC3)n2)cc1 (3D coordinates assigned)
c1ccc(CCNc2cc(N3CCNCC3)nc(N3CCNCC3)n2)cc1 (nonaromatic ring conformer: 62.81689782955762 kcal/mol)

>  <smiles>  (28) 
c1ccc(CCNc2cc(N3CCNCC3)nc(N3CCNCC3)n2)cc1

>  <score_type>  (28) 
oracle

>  <origin>  (28) 
autodockgpu

>  <m_score__min__energy>  (28) 
-9.2300000000000004

>  <m_primary>  (28) 
energy

>  <meeko>  (28) 
{"free_energy": -9.18, "intermolecular_energy": -10.97, "internal_energy": -0.83, "cluster_size": 19, "cluster_id": 1, "rank_in_cluster": 5}

>  <energy>  (28) 
-9.01

>  <cluster_rmsd>  (28) 
0.42

>  <rmsd>  (28) 
271.03

>  <cluster>  (28) 
1

$$$$
USJHBUDYBBTILB-MPIMZMORNA-N
     RDKit          3D

 56 59  0  0  0  0  0  0  0  0999 V2000
  140.0230   70.4360  228.3080 C   0  0  0  0  0  0  0  0  0  0  0  0
  139.5700   69.5880  227.2950 C   0  0  0  0  0  0  0  0  0  0  0  0
  139.8410   69.8870  225.9560 C   0  0  0  0  0  0  0  0  0  0  0  0
  140.5660   71.0450  225.6230 C   0  0  0  0  0  0  0  0  0  0  0  0
  140.8900   71.3510  224.1820 C   0  0  0  0  0  0  0  0  0  0  0  0
  139.6300   71.3360  223.3070 C   0  0  0  0  0  0  0  0  0  0  0  0
  139.3880   72.6440  222.6980 N   0  0  0  0  0  0  0  0  0  0  0  0
  140.4280   73.4160  222.0780 C   0  0  0  0  0  0  0  0  0  0  0  0
  141.4930   72.7750  221.4400 C   0  0  0  0  0  0  0  0  0  0  0  0
  142.4850   73.5570  220.8330 C   0  0  0  0  0  0  0  0  0  0  0  0
  143.5890   72.9510  220.1340 N   0  0  0  0  0  0  0  0  0  0  0  0
  144.8430   72.7060  220.8560 C   0  0  0  0  0  0  0  0  0  0  0  0
  145.9460   72.2490  219.8920 C   0  0  0  0  0  0  0  0  0  0  0  0
  145.8840   73.0180  218.6430 N   0  0  0  0  0  0  0  0  0  0  0  0
  144.6340   72.7820  217.8930 C   0  0  0  0  0  0  0  0  0  0  0  0
  143.4320   72.4000  218.7820 C   0  0  0  0  0  0  0  0  0  0  0  0
  142.3700   74.9120  220.8610 N   0  0  0  0  0  0  0  0  0  0  0  0
  141.3320   75.5290  221.4890 C   0  0  0  0  0  0  0  0  0  0  0  0
  141.2460   76.9690  221.5020 N   0  0  0  0  0  0  0  0  0  0  0  0
  140.7290   77.6830  222.6790 C   0  0  0  0  0  0  0  0  0  0  0  0
  141.4820   79.0110  222.9190 C   0  0  0  0  0  0  0  0  0  0  0  0
  142.0680   79.6120  221.7050 N   0  0  0  0  0  0  0  0  0  0  0  0
  141.3570   79.2210  220.4840 C   0  0  0  0  0  0  0  0  0  0  0  0
  141.4900   77.7120  220.2590 C   0  0  0  0  0  0  0  0  0  0  0  0
  140.3760   74.7740  222.0910 N   0  0  0  0  0  0  0  0  0  0  0  0
  141.0270   71.8870  226.6480 C   0  0  0  0  0  0  0  0  0  0  0  0
  140.7530   71.5850  227.9850 C   0  0  0  0  0  0  0  0  0  0  0  0
  139.8057   70.2004  229.3603 H   0  0  0  0  0  0  0  0  0  0  0  0
  138.9990   68.6833  227.5508 H   0  0  0  0  0  0  0  0  0  0  0  0
  139.4861   69.2145  225.1611 H   0  0  0  0  0  0  0  0  0  0  0  0
  141.3539   72.3467  224.1236 H   0  0  0  0  0  0  0  0  0  0  0  0
  141.5772   70.5764  223.8108 H   0  0  0  0  0  0  0  0  0  0  0  0
  139.7563   70.5880  222.5104 H   0  0  0  0  0  0  0  0  0  0  0  0
  138.7688   71.0858  223.9440 H   0  0  0  0  0  0  0  0  0  0  0  0
  138.4150   73.0230  222.7170 H   0  0  0  0  0  0  0  0  0  0  0  0
  141.5517   71.6769  221.4146 H   0  0  0  0  0  0  0  0  0  0  0  0
  145.1604   73.6345  221.3531 H   0  0  0  0  0  0  0  0  0  0  0  0
  144.6731   71.9129  221.5991 H   0  0  0  0  0  0  0  0  0  0  0  0
  146.9273   72.4033  220.3645 H   0  0  0  0  0  0  0  0  0  0  0  0
  145.8007   71.1830  219.6627 H   0  0  0  0  0  0  0  0  0  0  0  0
  145.9490   74.0370  218.8790 H   0  0  0  0  0  0  0  0  0  0  0  0
  144.3806   73.7014  217.3448 H   0  0  0  0  0  0  0  0  0  0  0  0
  144.8199   71.9283  217.2247 H   0  0  0  0  0  0  0  0  0  0  0  0
  142.5104   72.8000  218.3341 H   0  0  0  0  0  0  0  0  0  0  0  0
  143.3786   71.3035  218.8516 H   0  0  0  0  0  0  0  0  0  0  0  0
  139.6622   77.9013  222.5232 H   0  0  0  0  0  0  0  0  0  0  0  0
  140.8758   77.0417  223.5606 H   0  0  0  0  0  0  0  0  0  0  0  0
  140.7746   79.7333  223.3525 H   0  0  0  0  0  0  0  0  0  0  0  0
  142.3228   78.7766  223.5884 H   0  0  0  0  0  0  0  0  0  0  0  0
  143.0650   79.3050  221.6210 H   0  0  0  0  0  0  0  0  0  0  0  0
  140.2930   79.4819  220.5830 H   0  0  0  0  0  0  0  0  0  0  0  0
  141.7941   79.7532  219.6263 H   0  0  0  0  0  0  0  0  0  0  0  0
  140.7577   77.3957  219.5016 H   0  0  0  0  0  0  0  0  0  0  0  0
  142.5141   77.4982  219.9192 H   0  0  0  0  0  0  0  0  0  0  0  0
  141.6062   72.7880  226.3977 H   0  0  0  0  0  0  0  0  0  0  0  0
  141.1115   72.2511  228.7836 H   0  0  0  0  0  0  0  0  0  0  0  0
  1  2  2  0
  2  3  1  0
  3  4  2  0
  4  5  1  0
  5  6  1  0
  6  7  1  0
  7  8  1  0
  8  9  2  0
  9 10  1  0
 10 11  1  0
 11 12  1  0
 12 13  1  0
 13 14  1  0
 14 15  1  0
 15 16  1  0
 10 17  2  0
 17 18  1  0
 18 19  1  0
 19 20  1  0
 20 21  1  0
 21 22  1  0
 22 23  1  0
 23 24  1  0
 18 25  2  0
  4 26  1  0
 26 27  2  0
 27  1  1  0
 25  8  1  0
 16 11  1  0
 24 19  1  0
  1 28  1  0
  2 29  1  0
  3 30  1  0
  5 31  1  0
  5 32  1  0
  6 33  1  0
  6 34  1  0
  7 35  1  0
  9 36  1  0
 12 37  1  0
 12 38  1  0
 13 39  1  0
 13 40  1  0
 14 41  1  0
 15 42  1  0
 15 43  1  0
 16 44  1  0
 16 45  1  0
 20 46  1  0
 20 47  1  0
 21 48  1  0
 21 49  1  0
 22 50  1  0
 23 51  1  0
 23 52  1  0
 24 53  1  0
 24 54  1  0
 26 55  1  0
 27 56  1  0
M  END
>  <UniqueID>  (29) 
519

>  <SMILES>  (29) 
c1ccc(CCNc2cc(N3CCNCC3)nc(N3CCNCC3)n2)cc1

>  <Energy>  (29) 
62.81689782955762

>  <Genealogy>  (29) 
c1ccc(CCNc2cc(N3CCNCC3)nc(N3CCNCC3)n2)cc1 (3D coordinates assigned)
c1ccc(CCNc2cc(N3CCNCC3)nc(N3CCNCC3)n2)cc1 (nonaromatic ring conformer: 62.81689782955762 kcal/mol)

>  <smiles>  (29) 
c1ccc(CCNc2cc(N3CCNCC3)nc(N3CCNCC3)n2)cc1

>  <score_type>  (29) 
oracle

>  <origin>  (29) 
autodockgpu

>  <m_score__min__energy>  (29) 
-9.2300000000000004

>  <m_primary>  (29) 
energy

>  <meeko>  (29) 
{"free_energy": -9.23, "intermolecular_energy": -11.02, "internal_energy": -0.83, "cluster_size": 19, "cluster_id": 1, "rank_in_cluster": 1}

>  <energy>  (29) 
-9.01

>  <cluster_rmsd>  (29) 
0.44

>  <rmsd>  (29) 
270.93

>  <cluster>  (29) 
1

$$$$
USJHBUDYBBTILB-MPIMZMORNA-N
     RDKit          3D

 56 59  0  0  0  0  0  0  0  0999 V2000
  140.4210   70.1720  228.1910 C   0  0  0  0  0  0  0  0  0  0  0  0
  141.0350   71.4070  227.9690 C   0  0  0  0  0  0  0  0  0  0  0  0
  141.1350   71.9150  226.6700 C   0  0  0  0  0  0  0  0  0  0  0  0
  140.6250   71.1850  225.5820 C   0  0  0  0  0  0  0  0  0  0  0  0
  140.7000   71.7470  224.1850 C   0  0  0  0  0  0  0  0  0  0  0  0
  139.3930   71.5170  223.4160 C   0  0  0  0  0  0  0  0  0  0  0  0
  139.3020   72.3910  222.2470 N   0  0  0  0  0  0  0  0  0  0  0  0
  140.3910   73.2160  221.8050 C   0  0  0  0  0  0  0  0  0  0  0  0
  141.5450   72.6300  221.2770 C   0  0  0  0  0  0  0  0  0  0  0  0
  142.5850   73.4620  220.8420 C   0  0  0  0  0  0  0  0  0  0  0  0
  143.7850   72.9150  220.2610 N   0  0  0  0  0  0  0  0  0  0  0  0
  145.0680   73.1240  220.9420 C   0  0  0  0  0  0  0  0  0  0  0  0
  146.2330   72.6450  220.0670 C   0  0  0  0  0  0  0  0  0  0  0  0
  146.0070   73.0190  218.6650 N   0  0  0  0  0  0  0  0  0  0  0  0
  144.8250   72.3490  218.0840 C   0  0  0  0  0  0  0  0  0  0  0  0
  143.7330   71.9970  219.1160 C   0  0  0  0  0  0  0  0  0  0  0  0
  142.4330   74.8110  220.9250 N   0  0  0  0  0  0  0  0  0  0  0  0
  141.3080   75.3740  221.4440 C   0  0  0  0  0  0  0  0  0  0  0  0
  141.1850   76.8090  221.5190 N   0  0  0  0  0  0  0  0  0  0  0  0
  140.6710   77.4590  222.7340 C   0  0  0  0  0  0  0  0  0  0  0  0
  141.3930   78.7970  223.0160 C   0  0  0  0  0  0  0  0  0  0  0  0
  141.9390   79.4630  221.8180 N   0  0  0  0  0  0  0  0  0  0  0  0
  141.2160   79.1030  220.5940 C   0  0  0  0  0  0  0  0  0  0  0  0
  141.3850   77.6090  220.3040 C   0  0  0  0  0  0  0  0  0  0  0  0
  140.3030   74.5700  221.8800 N   0  0  0  0  0  0  0  0  0  0  0  0
  139.9990   69.9500  225.8160 C   0  0  0  0  0  0  0  0  0  0  0  0
  139.9020   69.4440  227.1160 C   0  0  0  0  0  0  0  0  0  0  0  0
  140.3458   69.7718  229.2128 H   0  0  0  0  0  0  0  0  0  0  0  0
  141.4399   71.9800  228.8162 H   0  0  0  0  0  0  0  0  0  0  0  0
  141.6147   72.8899  226.4987 H   0  0  0  0  0  0  0  0  0  0  0  0
  140.8943   72.8281  224.2445 H   0  0  0  0  0  0  0  0  0  0  0  0
  141.5111   71.2325  223.6489 H   0  0  0  0  0  0  0  0  0  0  0  0
  139.3527   70.4692  223.0837 H   0  0  0  0  0  0  0  0  0  0  0  0
  138.5515   71.7460  224.0864 H   0  0  0  0  0  0  0  0  0  0  0  0
  138.4030   72.4090  221.7150 H   0  0  0  0  0  0  0  0  0  0  0  0
  141.6349   71.5361  221.2044 H   0  0  0  0  0  0  0  0  0  0  0  0
  145.1933   74.1960  221.1542 H   0  0  0  0  0  0  0  0  0  0  0  0
  145.0689   72.5460  221.8779 H   0  0  0  0  0  0  0  0  0  0  0  0
  147.1660   73.1085  220.4200 H   0  0  0  0  0  0  0  0  0  0  0  0
  146.3054   71.5496  220.1371 H   0  0  0  0  0  0  0  0  0  0  0  0
  145.8640   74.0560  218.6170 H   0  0  0  0  0  0  0  0  0  0  0  0
  144.3850   73.0170  217.3289 H   0  0  0  0  0  0  0  0  0  0  0  0
  145.1762   71.3988  217.6554 H   0  0  0  0  0  0  0  0  0  0  0  0
  142.7457   72.0729  218.6370 H   0  0  0  0  0  0  0  0  0  0  0  0
  143.9047   70.9721  219.4766 H   0  0  0  0  0  0  0  0  0  0  0  0
  139.5960   77.6540  222.6064 H   0  0  0  0  0  0  0  0  0  0  0  0
  140.8513   76.7861  223.5853 H   0  0  0  0  0  0  0  0  0  0  0  0
  140.6749   79.4810  223.4919 H   0  0  0  0  0  0  0  0  0  0  0  0
  142.2524   78.5586  223.6599 H   0  0  0  0  0  0  0  0  0  0  0  0
  142.9420   79.1870  221.7040 H   0  0  0  0  0  0  0  0  0  0  0  0
  140.1474   79.3302  220.7223 H   0  0  0  0  0  0  0  0  0  0  0  0
  141.6229   79.6818  219.7517 H   0  0  0  0  0  0  0  0  0  0  0  0
  140.6469   77.3041  219.5475 H   0  0  0  0  0  0  0  0  0  0  0  0
  142.4078   77.4377  219.9372 H   0  0  0  0  0  0  0  0  0  0  0  0
  139.5832   69.3783  224.9732 H   0  0  0  0  0  0  0  0  0  0  0  0
  139.4171   68.4726  227.2930 H   0  0  0  0  0  0  0  0  0  0  0  0
  1  2  2  0
  2  3  1  0
  3  4  2  0
  4  5  1  0
  5  6  1  0
  6  7  1  0
  7  8  1  0
  8  9  2  0
  9 10  1  0
 10 11  1  0
 11 12  1  0
 12 13  1  0
 13 14  1  0
 14 15  1  0
 15 16  1  0
 10 17  2  0
 17 18  1  0
 18 19  1  0
 19 20  1  0
 20 21  1  0
 21 22  1  0
 22 23  1  0
 23 24  1  0
 18 25  2  0
  4 26  1  0
 26 27  2  0
 27  1  1  0
 25  8  1  0
 16 11  1  0
 24 19  1  0
  1 28  1  0
  2 29  1  0
  3 30  1  0
  5 31  1  0
  5 32  1  0
  6 33  1  0
  6 34  1  0
  7 35  1  0
  9 36  1  0
 12 37  1  0
 12 38  1  0
 13 39  1  0
 13 40  1  0
 14 41  1  0
 15 42  1  0
 15 43  1  0
 16 44  1  0
 16 45  1  0
 20 46  1  0
 20 47  1  0
 21 48  1  0
 21 49  1  0
 22 50  1  0
 23 51  1  0
 23 52  1  0
 24 53  1  0
 24 54  1  0
 26 55  1  0
 27 56  1  0
M  END
>  <UniqueID>  (30) 
519

>  <SMILES>  (30) 
c1ccc(CCNc2cc(N3CCNCC3)nc(N3CCNCC3)n2)cc1

>  <Energy>  (30) 
62.81689782955762

>  <Genealogy>  (30) 
c1ccc(CCNc2cc(N3CCNCC3)nc(N3CCNCC3)n2)cc1 (3D coordinates assigned)
c1ccc(CCNc2cc(N3CCNCC3)nc(N3CCNCC3)n2)cc1 (nonaromatic ring conformer: 62.81689782955762 kcal/mol)

>  <smiles>  (30) 
c1ccc(CCNc2cc(N3CCNCC3)nc(N3CCNCC3)n2)cc1

>  <score_type>  (30) 
oracle

>  <origin>  (30) 
autodockgpu

>  <m_score__min__energy>  (30) 
-9.2300000000000004

>  <m_primary>  (30) 
energy

>  <meeko>  (30) 
{"free_energy": -9.02, "intermolecular_energy": -10.81, "internal_energy": -0.83, "cluster_size": 19, "cluster_id": 1, "rank_in_cluster": 7}

>  <energy>  (30) 
-9.0

>  <cluster_rmsd>  (30) 
0.39

>  <rmsd>  (30) 
271.04

>  <cluster>  (30) 
1

$$$$
USJHBUDYBBTILB-MPIMZMORNA-N
     RDKit          3D

 56 59  0  0  0  0  0  0  0  0999 V2000
  141.0660   71.4070  228.2970 C   0  0  0  0  0  0  0  0  0  0  0  0
  140.3370   70.2400  228.0580 C   0  0  0  0  0  0  0  0  0  0  0  0
  139.9700   69.8980  226.7530 C   0  0  0  0  0  0  0  0  0  0  0  0
  140.3280   70.7270  225.6760 C   0  0  0  0  0  0  0  0  0  0  0  0
  139.9640   70.3420  224.2640 C   0  0  0  0  0  0  0  0  0  0  0  0
  139.1430   71.4400  223.5760 C   0  0  0  0  0  0  0  0  0  0  0  0
  139.5840   71.6500  222.1970 N   0  0  0  0  0  0  0  0  0  0  0  0
  140.4110   72.7570  221.8060 C   0  0  0  0  0  0  0  0  0  0  0  0
  141.6690   72.5280  221.2420 C   0  0  0  0  0  0  0  0  0  0  0  0
  142.4470   73.6280  220.8590 C   0  0  0  0  0  0  0  0  0  0  0  0
  143.7380   73.4520  220.2450 N   0  0  0  0  0  0  0  0  0  0  0  0
  143.9280   72.3650  219.2780 C   0  0  0  0  0  0  0  0  0  0  0  0
  145.4080   72.2250  218.9000 C   0  0  0  0  0  0  0  0  0  0  0  0
  146.2570   72.3910  220.0860 N   0  0  0  0  0  0  0  0  0  0  0  0
  146.1630   73.7460  220.6650 C   0  0  0  0  0  0  0  0  0  0  0  0
  144.8090   74.4430  220.4150 C   0  0  0  0  0  0  0  0  0  0  0  0
  141.9470   74.8830  221.0230 N   0  0  0  0  0  0  0  0  0  0  0  0
  140.7220   75.0980  221.5760 C   0  0  0  0  0  0  0  0  0  0  0  0
  140.2270   76.4420  221.7390 N   0  0  0  0  0  0  0  0  0  0  0  0
  138.7840   76.7250  221.6990 C   0  0  0  0  0  0  0  0  0  0  0  0
  138.3910   77.8360  222.6990 C   0  0  0  0  0  0  0  0  0  0  0  0
  139.4720   78.7900  223.0120 N   0  0  0  0  0  0  0  0  0  0  0  0
  140.4580   78.8980  221.9330 C   0  0  0  0  0  0  0  0  0  0  0  0
  141.1800   77.5600  221.7440 C   0  0  0  0  0  0  0  0  0  0  0  0
  139.9710   74.0330  221.9630 N   0  0  0  0  0  0  0  0  0  0  0  0
  141.0710   71.8930  225.9230 C   0  0  0  0  0  0  0  0  0  0  0  0
  141.4340   72.2330  227.2300 C   0  0  0  0  0  0  0  0  0  0  0  0
  141.3508   71.6766  229.3247 H   0  0  0  0  0  0  0  0  0  0  0  0
  140.0512   69.5891  228.8975 H   0  0  0  0  0  0  0  0  0  0  0  0
  139.3987   68.9763  226.5684 H   0  0  0  0  0  0  0  0  0  0  0  0
  140.8872   70.1734  223.6902 H   0  0  0  0  0  0  0  0  0  0  0  0
  139.3540   69.4274  224.3019 H   0  0  0  0  0  0  0  0  0  0  0  0
  138.0832   71.1454  223.5721 H   0  0  0  0  0  0  0  0  0  0  0  0
  139.2847   72.3785  224.1320 H   0  0  0  0  0  0  0  0  0  0  0  0
  139.2820   70.9600  221.4730 H   0  0  0  0  0  0  0  0  0  0  0  0
  142.0414   71.5026  221.1014 H   0  0  0  0  0  0  0  0  0  0  0  0
  143.5785   71.4215  219.7227 H   0  0  0  0  0  0  0  0  0  0  0  0
  143.3524   72.5964  218.3697 H   0  0  0  0  0  0  0  0  0  0  0  0
  145.5791   71.2277  218.4685 H   0  0  0  0  0  0  0  0  0  0  0  0
  145.6640   73.0034  218.1661 H   0  0  0  0  0  0  0  0  0  0  0  0
  145.9550   71.6940  220.8090 H   0  0  0  0  0  0  0  0  0  0  0  0
  146.3171   73.6693  221.7514 H   0  0  0  0  0  0  0  0  0  0  0  0
  146.9318   74.3575  220.1701 H   0  0  0  0  0  0  0  0  0  0  0  0
  144.5710   75.0880  221.2736 H   0  0  0  0  0  0  0  0  0  0  0  0
  144.8846   75.0429  219.4961 H   0  0  0  0  0  0  0  0  0  0  0  0
  138.5121   77.0474  220.6831 H   0  0  0  0  0  0  0  0  0  0  0  0
  138.2468   75.8067  221.9784 H   0  0  0  0  0  0  0  0  0  0  0  0
  137.5486   78.3999  222.2720 H   0  0  0  0  0  0  0  0  0  0  0  0
  138.1375   77.3310  223.6428 H   0  0  0  0  0  0  0  0  0  0  0  0
  139.9630   78.4730  223.8800 H   0  0  0  0  0  0  0  0  0  0  0  0
  139.9461   79.1705  220.9983 H   0  0  0  0  0  0  0  0  0  0  0  0
  141.1953   79.6712  222.1949 H   0  0  0  0  0  0  0  0  0  0  0  0
  141.7209   77.5756  220.7863 H   0  0  0  0  0  0  0  0  0  0  0  0
  141.8802   77.4191  222.5806 H   0  0  0  0  0  0  0  0  0  0  0  0
  141.3684   72.5411  225.0854 H   0  0  0  0  0  0  0  0  0  0  0  0
  142.0096   73.1511  227.4191 H   0  0  0  0  0  0  0  0  0  0  0  0
  1  2  2  0
  2  3  1  0
  3  4  2  0
  4  5  1  0
  5  6  1  0
  6  7  1  0
  7  8  1  0
  8  9  2  0
  9 10  1  0
 10 11  1  0
 11 12  1  0
 12 13  1  0
 13 14  1  0
 14 15  1  0
 15 16  1  0
 10 17  2  0
 17 18  1  0
 18 19  1  0
 19 20  1  0
 20 21  1  0
 21 22  1  0
 22 23  1  0
 23 24  1  0
 18 25  2  0
  4 26  1  0
 26 27  2  0
 27  1  1  0
 25  8  1  0
 16 11  1  0
 24 19  1  0
  1 28  1  0
  2 29  1  0
  3 30  1  0
  5 31  1  0
  5 32  1  0
  6 33  1  0
  6 34  1  0
  7 35  1  0
  9 36  1  0
 12 37  1  0
 12 38  1  0
 13 39  1  0
 13 40  1  0
 14 41  1  0
 15 42  1  0
 15 43  1  0
 16 44  1  0
 16 45  1  0
 20 46  1  0
 20 47  1  0
 21 48  1  0
 21 49  1  0
 22 50  1  0
 23 51  1  0
 23 52  1  0
 24 53  1  0
 24 54  1  0
 26 55  1  0
 27 56  1  0
M  END
>  <UniqueID>  (31) 
519

>  <SMILES>  (31) 
c1ccc(CCNc2cc(N3CCNCC3)nc(N3CCNCC3)n2)cc1

>  <Energy>  (31) 
62.81689782955762

>  <Genealogy>  (31) 
c1ccc(CCNc2cc(N3CCNCC3)nc(N3CCNCC3)n2)cc1 (3D coordinates assigned)
c1ccc(CCNc2cc(N3CCNCC3)nc(N3CCNCC3)n2)cc1 (nonaromatic ring conformer: 62.81689782955762 kcal/mol)

>  <smiles>  (31) 
c1ccc(CCNc2cc(N3CCNCC3)nc(N3CCNCC3)n2)cc1

>  <score_type>  (31) 
oracle

>  <origin>  (31) 
autodockgpu

>  <m_score__min__energy>  (31) 
-9.2300000000000004

>  <m_primary>  (31) 
energy

>  <meeko>  (31) 
{"free_energy": -8.42, "intermolecular_energy": -10.21, "internal_energy": -0.9, "cluster_size": 19, "cluster_id": 1, "rank_in_cluster": 19}

>  <energy>  (31) 
-8.99

>  <cluster_rmsd>  (31) 
0.44

>  <rmsd>  (31) 
270.91

>  <cluster>  (31) 
1

$$$$
USJHBUDYBBTILB-MPIMZMORNA-N
     RDKit          3D

 56 59  0  0  0  0  0  0  0  0999 V2000
  140.0390   70.4690  228.2320 C   0  0  0  0  0  0  0  0  0  0  0  0
  139.5790   69.5930  227.2460 C   0  0  0  0  0  0  0  0  0  0  0  0
  139.8490   69.8520  225.8980 C   0  0  0  0  0  0  0  0  0  0  0  0
  140.5790   70.9950  225.5290 C   0  0  0  0  0  0  0  0  0  0  0  0
  140.9020   71.2560  224.0790 C   0  0  0  0  0  0  0  0  0  0  0  0
  139.6310   71.3060  223.2210 C   0  0  0  0  0  0  0  0  0  0  0  0
  139.4050   72.6460  222.6800 N   0  0  0  0  0  0  0  0  0  0  0  0
  140.4430   73.4180  222.0570 C   0  0  0  0  0  0  0  0  0  0  0  0
  141.5070   72.7760  221.4160 C   0  0  0  0  0  0  0  0  0  0  0  0
  142.4970   73.5570  220.8060 C   0  0  0  0  0  0  0  0  0  0  0  0
  143.6000   72.9510  220.1060 N   0  0  0  0  0  0  0  0  0  0  0  0
  144.8390   72.6610  220.8370 C   0  0  0  0  0  0  0  0  0  0  0  0
  145.9470   72.2110  219.8760 C   0  0  0  0  0  0  0  0  0  0  0  0
  145.9170   73.0170  218.6490 N   0  0  0  0  0  0  0  0  0  0  0  0
  144.6730   72.8260  217.8750 C   0  0  0  0  0  0  0  0  0  0  0  0
  143.4520   72.4410  218.7370 C   0  0  0  0  0  0  0  0  0  0  0  0
  142.3820   74.9130  220.8340 N   0  0  0  0  0  0  0  0  0  0  0  0
  141.3460   75.5300  221.4630 C   0  0  0  0  0  0  0  0  0  0  0  0
  141.2600   76.9700  221.4760 N   0  0  0  0  0  0  0  0  0  0  0  0
  140.7360   77.6850  222.6500 C   0  0  0  0  0  0  0  0  0  0  0  0
  141.4880   79.0130  222.8930 C   0  0  0  0  0  0  0  0  0  0  0  0
  142.0800   79.6130  221.6820 N   0  0  0  0  0  0  0  0  0  0  0  0
  141.3770   79.2210  220.4570 C   0  0  0  0  0  0  0  0  0  0  0  0
  141.5110   77.7120  220.2330 C   0  0  0  0  0  0  0  0  0  0  0  0
  140.3910   74.7760  222.0680 N   0  0  0  0  0  0  0  0  0  0  0  0
  141.0470   71.8640  226.5270 C   0  0  0  0  0  0  0  0  0  0  0  0
  140.7740   71.6030  227.8740 C   0  0  0  0  0  0  0  0  0  0  0  0
  139.8227   70.2663  229.2913 H   0  0  0  0  0  0  0  0  0  0  0  0
  139.0042   68.6991  227.5296 H   0  0  0  0  0  0  0  0  0  0  0  0
  139.4886   69.1585  225.1239 H   0  0  0  0  0  0  0  0  0  0  0  0
  141.4268   72.2193  223.9973 H   0  0  0  0  0  0  0  0  0  0  0  0
  141.5342   70.4339  223.7124 H   0  0  0  0  0  0  0  0  0  0  0  0
  139.7339   70.5960  222.3871 H   0  0  0  0  0  0  0  0  0  0  0  0
  138.7735   71.0399  223.8565 H   0  0  0  0  0  0  0  0  0  0  0  0
  138.4440   73.0490  222.7510 H   0  0  0  0  0  0  0  0  0  0  0  0
  141.5655   71.6778  221.3912 H   0  0  0  0  0  0  0  0  0  0  0  0
  145.1667   73.5685  221.3653 H   0  0  0  0  0  0  0  0  0  0  0  0
  144.6434   71.8497  221.5537 H   0  0  0  0  0  0  0  0  0  0  0  0
  146.9241   72.3331  220.3663 H   0  0  0  0  0  0  0  0  0  0  0  0
  145.7857   71.1549  219.6139 H   0  0  0  0  0  0  0  0  0  0  0  0
  145.9970   74.0280  218.9150 H   0  0  0  0  0  0  0  0  0  0  0  0
  144.4440   73.7653  217.3504 H   0  0  0  0  0  0  0  0  0  0  0  0
  144.8525   71.9889  217.1843 H   0  0  0  0  0  0  0  0  0  0  0  0
  142.5439   72.8700  218.2883 H   0  0  0  0  0  0  0  0  0  0  0  0
  143.3783   71.3441  218.7749 H   0  0  0  0  0  0  0  0  0  0  0  0
  139.6701   77.9034  222.4880 H   0  0  0  0  0  0  0  0  0  0  0  0
  140.8773   77.0443  223.5329 H   0  0  0  0  0  0  0  0  0  0  0  0
  140.7785   79.7356  223.3225 H   0  0  0  0  0  0  0  0  0  0  0  0
  142.3254   78.7788  223.5667 H   0  0  0  0  0  0  0  0  0  0  0  0
  143.0780   79.3060  221.6050 H   0  0  0  0  0  0  0  0  0  0  0  0
  140.3124   79.4820  220.5492 H   0  0  0  0  0  0  0  0  0  0  0  0
  141.8201   79.7525  219.6019 H   0  0  0  0  0  0  0  0  0  0  0  0
  140.7826   77.3954  219.4719 H   0  0  0  0  0  0  0  0  0  0  0  0
  142.5366   77.4975  219.8983 H   0  0  0  0  0  0  0  0  0  0  0  0
  141.6308   72.7538  226.2488 H   0  0  0  0  0  0  0  0  0  0  0  0
  141.1379   72.2904  228.6519 H   0  0  0  0  0  0  0  0  0  0  0  0
  1  2  2  0
  2  3  1  0
  3  4  2  0
  4  5  1  0
  5  6  1  0
  6  7  1  0
  7  8  1  0
  8  9  2  0
  9 10  1  0
 10 11  1  0
 11 12  1  0
 12 13  1  0
 13 14  1  0
 14 15  1  0
 15 16  1  0
 10 17  2  0
 17 18  1  0
 18 19  1  0
 19 20  1  0
 20 21  1  0
 21 22  1  0
 22 23  1  0
 23 24  1  0
 18 25  2  0
  4 26  1  0
 26 27  2  0
 27  1  1  0
 25  8  1  0
 16 11  1  0
 24 19  1  0
  1 28  1  0
  2 29  1  0
  3 30  1  0
  5 31  1  0
  5 32  1  0
  6 33  1  0
  6 34  1  0
  7 35  1  0
  9 36  1  0
 12 37  1  0
 12 38  1  0
 13 39  1  0
 13 40  1  0
 14 41  1  0
 15 42  1  0
 15 43  1  0
 16 44  1  0
 16 45  1  0
 20 46  1  0
 20 47  1  0
 21 48  1  0
 21 49  1  0
 22 50  1  0
 23 51  1  0
 23 52  1  0
 24 53  1  0
 24 54  1  0
 26 55  1  0
 27 56  1  0
M  END
>  <UniqueID>  (32) 
519

>  <SMILES>  (32) 
c1ccc(CCNc2cc(N3CCNCC3)nc(N3CCNCC3)n2)cc1

>  <Energy>  (32) 
62.81689782955762

>  <Genealogy>  (32) 
c1ccc(CCNc2cc(N3CCNCC3)nc(N3CCNCC3)n2)cc1 (3D coordinates assigned)
c1ccc(CCNc2cc(N3CCNCC3)nc(N3CCNCC3)n2)cc1 (nonaromatic ring conformer: 62.81689782955762 kcal/mol)

>  <smiles>  (32) 
c1ccc(CCNc2cc(N3CCNCC3)nc(N3CCNCC3)n2)cc1

>  <score_type>  (32) 
oracle

>  <origin>  (32) 
autodockgpu

>  <m_score__min__energy>  (32) 
-9.2300000000000004

>  <m_primary>  (32) 
energy

>  <meeko>  (32) 
{"free_energy": -9.21, "intermolecular_energy": -11.0, "internal_energy": -0.83, "cluster_size": 19, "cluster_id": 1, "rank_in_cluster": 3}

>  <energy>  (32) 
-8.98

>  <cluster_rmsd>  (32) 
0.44

>  <rmsd>  (32) 
270.97

>  <cluster>  (32) 
1

$$$$
USJHBUDYBBTILB-MPIMZMORNA-N
     RDKit          3D

 56 59  0  0  0  0  0  0  0  0999 V2000
  139.7990   69.8010  228.0790 C   0  0  0  0  0  0  0  0  0  0  0  0
  140.3840   71.0640  227.9730 C   0  0  0  0  0  0  0  0  0  0  0  0
  140.7290   71.5740  226.7180 C   0  0  0  0  0  0  0  0  0  0  0  0
  140.4930   70.8170  225.5570 C   0  0  0  0  0  0  0  0  0  0  0  0
  140.8310   71.3790  224.2000 C   0  0  0  0  0  0  0  0  0  0  0  0
  139.6120   71.3690  223.2680 C   0  0  0  0  0  0  0  0  0  0  0  0
  139.3850   72.6850  222.6710 N   0  0  0  0  0  0  0  0  0  0  0  0
  140.4310   73.4440  222.0450 C   0  0  0  0  0  0  0  0  0  0  0  0
  141.4930   72.7900  221.4150 C   0  0  0  0  0  0  0  0  0  0  0  0
  142.4900   73.5580  220.8010 C   0  0  0  0  0  0  0  0  0  0  0  0
  143.5920   72.9380  220.1120 N   0  0  0  0  0  0  0  0  0  0  0  0
  144.8430   72.6910  220.8390 C   0  0  0  0  0  0  0  0  0  0  0  0
  145.9450   72.2160  219.8820 C   0  0  0  0  0  0  0  0  0  0  0  0
  145.8920   72.9750  218.6260 N   0  0  0  0  0  0  0  0  0  0  0  0
  144.6420   72.7400  217.8750 C   0  0  0  0  0  0  0  0  0  0  0  0
  143.4350   72.3750  218.7640 C   0  0  0  0  0  0  0  0  0  0  0  0
  142.3840   74.9150  220.8150 N   0  0  0  0  0  0  0  0  0  0  0  0
  141.3490   75.5450  221.4330 C   0  0  0  0  0  0  0  0  0  0  0  0
  141.2720   76.9850  221.4300 N   0  0  0  0  0  0  0  0  0  0  0  0
  140.6940   77.7130  222.5710 C   0  0  0  0  0  0  0  0  0  0  0  0
  141.4420   79.0380  222.8410 C   0  0  0  0  0  0  0  0  0  0  0  0
  142.0980   79.6250  221.6570 N   0  0  0  0  0  0  0  0  0  0  0  0
  141.4540   79.2280  220.4010 C   0  0  0  0  0  0  0  0  0  0  0  0
  141.5890   77.7160  220.1960 C   0  0  0  0  0  0  0  0  0  0  0  0
  140.3870   74.8030  222.0420 N   0  0  0  0  0  0  0  0  0  0  0  0
  139.8930   69.5520  225.6710 C   0  0  0  0  0  0  0  0  0  0  0  0
  139.5520   69.0450  226.9290 C   0  0  0  0  0  0  0  0  0  0  0  0
  139.5321   69.4002  229.0680 H   0  0  0  0  0  0  0  0  0  0  0  0
  140.5738   71.6589  228.8786 H   0  0  0  0  0  0  0  0  0  0  0  0
  141.1867   72.5711  226.6385 H   0  0  0  0  0  0  0  0  0  0  0  0
  141.1814   72.4149  224.3192 H   0  0  0  0  0  0  0  0  0  0  0  0
  141.6140   70.7502  223.7511 H   0  0  0  0  0  0  0  0  0  0  0  0
  139.7814   70.6364  222.4652 H   0  0  0  0  0  0  0  0  0  0  0  0
  138.7253   71.1006  223.8611 H   0  0  0  0  0  0  0  0  0  0  0  0
  138.4190   73.0810  222.7040 H   0  0  0  0  0  0  0  0  0  0  0  0
  141.5449   71.6913  221.4016 H   0  0  0  0  0  0  0  0  0  0  0  0
  145.1662   73.6222  221.3273 H   0  0  0  0  0  0  0  0  0  0  0  0
  144.6656   71.9066  221.5895 H   0  0  0  0  0  0  0  0  0  0  0  0
  146.9264   72.3664  220.3556 H   0  0  0  0  0  0  0  0  0  0  0  0
  145.7920   71.1492  219.6619 H   0  0  0  0  0  0  0  0  0  0  0  0
  145.9640   73.9960  218.8530 H   0  0  0  0  0  0  0  0  0  0  0  0
  144.3963   73.6556  217.3171 H   0  0  0  0  0  0  0  0  0  0  0  0
  144.8239   71.8783  217.2159 H   0  0  0  0  0  0  0  0  0  0  0  0
  142.5175   72.7771  218.3096 H   0  0  0  0  0  0  0  0  0  0  0  0
  143.3738   71.2796  218.8438 H   0  0  0  0  0  0  0  0  0  0  0  0
  139.6392   77.9369  222.3537 H   0  0  0  0  0  0  0  0  0  0  0  0
  140.7860   77.0787  223.4650 H   0  0  0  0  0  0  0  0  0  0  0  0
  140.7169   79.7685  223.2290 H   0  0  0  0  0  0  0  0  0  0  0  0
  142.2432   78.8034  223.5572 H   0  0  0  0  0  0  0  0  0  0  0  0
  143.0960   79.3120  221.6320 H   0  0  0  0  0  0  0  0  0  0  0  0
  140.3879   79.4965  220.4379 H   0  0  0  0  0  0  0  0  0  0  0  0
  141.9424   79.7500  219.5649 H   0  0  0  0  0  0  0  0  0  0  0  0
  140.8973   77.3978  219.4021 H   0  0  0  0  0  0  0  0  0  0  0  0
  142.6288   77.4929  219.9149 H   0  0  0  0  0  0  0  0  0  0  0  0
  139.6906   68.9580  224.7675 H   0  0  0  0  0  0  0  0  0  0  0  0
  139.0891   68.0507  227.0138 H   0  0  0  0  0  0  0  0  0  0  0  0
  1  2  2  0
  2  3  1  0
  3  4  2  0
  4  5  1  0
  5  6  1  0
  6  7  1  0
  7  8  1  0
  8  9  2  0
  9 10  1  0
 10 11  1  0
 11 12  1  0
 12 13  1  0
 13 14  1  0
 14 15  1  0
 15 16  1  0
 10 17  2  0
 17 18  1  0
 18 19  1  0
 19 20  1  0
 20 21  1  0
 21 22  1  0
 22 23  1  0
 23 24  1  0
 18 25  2  0
  4 26  1  0
 26 27  2  0
 27  1  1  0
 25  8  1  0
 16 11  1  0
 24 19  1  0
  1 28  1  0
  2 29  1  0
  3 30  1  0
  5 31  1  0
  5 32  1  0
  6 33  1  0
  6 34  1  0
  7 35  1  0
  9 36  1  0
 12 37  1  0
 12 38  1  0
 13 39  1  0
 13 40  1  0
 14 41  1  0
 15 42  1  0
 15 43  1  0
 16 44  1  0
 16 45  1  0
 20 46  1  0
 20 47  1  0
 21 48  1  0
 21 49  1  0
 22 50  1  0
 23 51  1  0
 23 52  1  0
 24 53  1  0
 24 54  1  0
 26 55  1  0
 27 56  1  0
M  END
>  <UniqueID>  (33) 
519

>  <SMILES>  (33) 
c1ccc(CCNc2cc(N3CCNCC3)nc(N3CCNCC3)n2)cc1

>  <Energy>  (33) 
62.81689782955762

>  <Genealogy>  (33) 
c1ccc(CCNc2cc(N3CCNCC3)nc(N3CCNCC3)n2)cc1 (3D coordinates assigned)
c1ccc(CCNc2cc(N3CCNCC3)nc(N3CCNCC3)n2)cc1 (nonaromatic ring conformer: 62.81689782955762 kcal/mol)

>  <smiles>  (33) 
c1ccc(CCNc2cc(N3CCNCC3)nc(N3CCNCC3)n2)cc1

>  <score_type>  (33) 
oracle

>  <origin>  (33) 
autodockgpu

>  <m_score__min__energy>  (33) 
-9.2300000000000004

>  <m_primary>  (33) 
energy

>  <meeko>  (33) 
{"free_energy": -9.12, "intermolecular_energy": -10.91, "internal_energy": -0.82, "cluster_size": 19, "cluster_id": 1, "rank_in_cluster": 6}

>  <energy>  (33) 
-8.94

>  <cluster_rmsd>  (33) 
0.5

>  <rmsd>  (33) 
270.88

>  <cluster>  (33) 
1

$$$$
USJHBUDYBBTILB-MPIMZMORNA-N
     RDKit          3D

 56 59  0  0  0  0  0  0  0  0999 V2000
  140.4940   70.1160  227.9500 C   0  0  0  0  0  0  0  0  0  0  0  0
  139.9790   69.4110  226.8600 C   0  0  0  0  0  0  0  0  0  0  0  0
  140.0310   69.9680  225.5780 C   0  0  0  0  0  0  0  0  0  0  0  0
  140.5970   71.2390  225.3800 C   0  0  0  0  0  0  0  0  0  0  0  0
  140.6860   71.8260  223.9940 C   0  0  0  0  0  0  0  0  0  0  0  0
  139.4180   71.5380  223.1800 C   0  0  0  0  0  0  0  0  0  0  0  0
  139.2200   72.5380  222.1310 N   0  0  0  0  0  0  0  0  0  0  0  0
  140.2680   73.4080  221.6780 C   0  0  0  0  0  0  0  0  0  0  0  0
  140.1340   74.7940  221.8030 C   0  0  0  0  0  0  0  0  0  0  0  0
  141.1810   75.6150  221.3650 C   0  0  0  0  0  0  0  0  0  0  0  0
  141.1120   77.0470  221.4960 N   0  0  0  0  0  0  0  0  0  0  0  0
  141.3760   77.8870  220.3220 C   0  0  0  0  0  0  0  0  0  0  0  0
  141.4510   79.3680  220.7160 C   0  0  0  0  0  0  0  0  0  0  0  0
  142.1750   79.5230  221.9840 N   0  0  0  0  0  0  0  0  0  0  0  0
  141.4740   78.8860  223.1180 C   0  0  0  0  0  0  0  0  0  0  0  0
  140.5970   77.6820  222.7170 C   0  0  0  0  0  0  0  0  0  0  0  0
  142.3040   75.0410  220.8540 N   0  0  0  0  0  0  0  0  0  0  0  0
  142.4260   73.6910  220.7320 C   0  0  0  0  0  0  0  0  0  0  0  0
  143.6300   73.1190  220.1810 N   0  0  0  0  0  0  0  0  0  0  0  0
  143.5680   72.1480  219.0780 C   0  0  0  0  0  0  0  0  0  0  0  0
  144.7400   72.3330  218.0880 C   0  0  0  0  0  0  0  0  0  0  0  0
  145.9550   72.9260  218.6790 N   0  0  0  0  0  0  0  0  0  0  0  0
  146.0620   72.6730  220.1190 C   0  0  0  0  0  0  0  0  0  0  0  0
  144.9100   73.3580  220.8610 C   0  0  0  0  0  0  0  0  0  0  0  0
  141.4060   72.8920  221.1430 N   0  0  0  0  0  0  0  0  0  0  0  0
  141.1230   71.9360  226.4800 C   0  0  0  0  0  0  0  0  0  0  0  0
  141.0670   71.3780  227.7610 C   0  0  0  0  0  0  0  0  0  0  0  0
  140.4490   69.6784  228.9582 H   0  0  0  0  0  0  0  0  0  0  0  0
  139.5322   68.4171  227.0097 H   0  0  0  0  0  0  0  0  0  0  0  0
  139.6272   69.4088  224.7211 H   0  0  0  0  0  0  0  0  0  0  0  0
  140.8195   72.9149  224.0747 H   0  0  0  0  0  0  0  0  0  0  0  0
  141.5405   71.3644  223.4775 H   0  0  0  0  0  0  0  0  0  0  0  0
  139.5084   70.5449  222.7156 H   0  0  0  0  0  0  0  0  0  0  0  0
  138.5541   71.5731  223.8600 H   0  0  0  0  0  0  0  0  0  0  0  0
  138.2720   72.6140  221.6970 H   0  0  0  0  0  0  0  0  0  0  0  0
  139.2231   75.2317  222.2373 H   0  0  0  0  0  0  0  0  0  0  0  0
  142.3327   77.5852  219.8707 H   0  0  0  0  0  0  0  0  0  0  0  0
  140.5542   77.7552  219.6028 H   0  0  0  0  0  0  0  0  0  0  0  0
  141.9765   79.9269  219.9276 H   0  0  0  0  0  0  0  0  0  0  0  0
  140.4295   79.7576  220.8378 H   0  0  0  0  0  0  0  0  0  0  0  0
  143.1210   79.0830  221.8810 H   0  0  0  0  0  0  0  0  0  0  0  0
  142.2280   78.5395  223.8401 H   0  0  0  0  0  0  0  0  0  0  0  0
  140.7990   79.6444  223.5414 H   0  0  0  0  0  0  0  0  0  0  0  0
  140.5985   76.9462  223.5347 H   0  0  0  0  0  0  0  0  0  0  0  0
  139.5741   78.0383  222.5254 H   0  0  0  0  0  0  0  0  0  0  0  0
  143.6108   71.1311  219.4953 H   0  0  0  0  0  0  0  0  0  0  0  0
  142.6276   72.3099  218.5307 H   0  0  0  0  0  0  0  0  0  0  0  0
  145.0035   71.3461  217.6798 H   0  0  0  0  0  0  0  0  0  0  0  0
  144.3908   73.0383  217.3195 H   0  0  0  0  0  0  0  0  0  0  0  0
  145.9380   73.9610  218.5240 H   0  0  0  0  0  0  0  0  0  0  0  0
  146.0193   71.5892  220.3021 H   0  0  0  0  0  0  0  0  0  0  0  0
  147.0171   73.0772  220.4855 H   0  0  0  0  0  0  0  0  0  0  0  0
  144.8536   72.9590  221.8845 H   0  0  0  0  0  0  0  0  0  0  0  0
  145.1001   74.4413  220.8797 H   0  0  0  0  0  0  0  0  0  0  0  0
  141.5811   72.9253  226.3332 H   0  0  0  0  0  0  0  0  0  0  0  0
  141.4736   71.9316  228.6202 H   0  0  0  0  0  0  0  0  0  0  0  0
  1  2  2  0
  2  3  1  0
  3  4  2  0
  4  5  1  0
  5  6  1  0
  6  7  1  0
  7  8  1  0
  8  9  2  0
  9 10  1  0
 10 11  1  0
 11 12  1  0
 12 13  1  0
 13 14  1  0
 14 15  1  0
 15 16  1  0
 10 17  2  0
 17 18  1  0
 18 19  1  0
 19 20  1  0
 20 21  1  0
 21 22  1  0
 22 23  1  0
 23 24  1  0
 18 25  2  0
  4 26  1  0
 26 27  2  0
 27  1  1  0
 25  8  1  0
 16 11  1  0
 24 19  1  0
  1 28  1  0
  2 29  1  0
  3 30  1  0
  5 31  1  0
  5 32  1  0
  6 33  1  0
  6 34  1  0
  7 35  1  0
  9 36  1  0
 12 37  1  0
 12 38  1  0
 13 39  1  0
 13 40  1  0
 14 41  1  0
 15 42  1  0
 15 43  1  0
 16 44  1  0
 16 45  1  0
 20 46  1  0
 20 47  1  0
 21 48  1  0
 21 49  1  0
 22 50  1  0
 23 51  1  0
 23 52  1  0
 24 53  1  0
 24 54  1  0
 26 55  1  0
 27 56  1  0
M  END
>  <UniqueID>  (34) 
519

>  <SMILES>  (34) 
c1ccc(CCNc2cc(N3CCNCC3)nc(N3CCNCC3)n2)cc1

>  <Energy>  (34) 
62.81689782955762

>  <Genealogy>  (34) 
c1ccc(CCNc2cc(N3CCNCC3)nc(N3CCNCC3)n2)cc1 (3D coordinates assigned)
c1ccc(CCNc2cc(N3CCNCC3)nc(N3CCNCC3)n2)cc1 (nonaromatic ring conformer: 62.81689782955762 kcal/mol)

>  <smiles>  (34) 
c1ccc(CCNc2cc(N3CCNCC3)nc(N3CCNCC3)n2)cc1

>  <score_type>  (34) 
oracle

>  <origin>  (34) 
autodockgpu

>  <m_score__min__energy>  (34) 
-9.2300000000000004

>  <m_primary>  (34) 
energy

>  <meeko>  (34) 
{"free_energy": -8.63, "intermolecular_energy": -10.42, "internal_energy": -0.89, "cluster_size": 19, "cluster_id": 1, "rank_in_cluster": 17}

>  <energy>  (34) 
-8.93

>  <cluster_rmsd>  (34) 
1.08

>  <rmsd>  (34) 
271.03

>  <cluster>  (34) 
1

$$$$
USJHBUDYBBTILB-MPIMZMORNA-N
     RDKit          3D

 56 59  0  0  0  0  0  0  0  0999 V2000
  140.5980   70.0550  228.3200 C   0  0  0  0  0  0  0  0  0  0  0  0
  140.2500   69.1980  227.2730 C   0  0  0  0  0  0  0  0  0  0  0  0
  140.2730   69.6590  225.9530 C   0  0  0  0  0  0  0  0  0  0  0  0
  140.6400   70.9860  225.6730 C   0  0  0  0  0  0  0  0  0  0  0  0
  140.6990   71.4750  224.2470 C   0  0  0  0  0  0  0  0  0  0  0  0
  139.3030   71.5270  223.6130 C   0  0  0  0  0  0  0  0  0  0  0  0
  139.3500   72.0980  222.2670 N   0  0  0  0  0  0  0  0  0  0  0  0
  140.4090   72.9610  221.8260 C   0  0  0  0  0  0  0  0  0  0  0  0
  141.5780   72.4180  221.2860 C   0  0  0  0  0  0  0  0  0  0  0  0
  142.5870   73.2880  220.8520 C   0  0  0  0  0  0  0  0  0  0  0  0
  143.8010   72.7860  220.2600 N   0  0  0  0  0  0  0  0  0  0  0  0
  145.0700   72.9570  220.9780 C   0  0  0  0  0  0  0  0  0  0  0  0
  146.2550   72.5410  220.0950 C   0  0  0  0  0  0  0  0  0  0  0  0
  146.0520   73.0040  218.7170 N   0  0  0  0  0  0  0  0  0  0  0  0
  144.8860   72.3680  218.0710 C   0  0  0  0  0  0  0  0  0  0  0  0
  143.7770   71.9440  219.0570 C   0  0  0  0  0  0  0  0  0  0  0  0
  142.3910   74.6310  220.9460 N   0  0  0  0  0  0  0  0  0  0  0  0
  141.2510   75.1520  221.4760 C   0  0  0  0  0  0  0  0  0  0  0  0
  141.0800   76.5810  221.5630 N   0  0  0  0  0  0  0  0  0  0  0  0
  140.1370   77.1710  222.5250 C   0  0  0  0  0  0  0  0  0  0  0  0
  140.6750   78.4940  223.1150 C   0  0  0  0  0  0  0  0  0  0  0  0
  141.6160   79.2190  222.2390 N   0  0  0  0  0  0  0  0  0  0  0  0
  141.4100   78.9180  220.8190 C   0  0  0  0  0  0  0  0  0  0  0  0
  141.7040   77.4390  220.5470 C   0  0  0  0  0  0  0  0  0  0  0  0
  140.2760   74.3110  221.9110 N   0  0  0  0  0  0  0  0  0  0  0  0
  140.9990   71.8380  226.7300 C   0  0  0  0  0  0  0  0  0  0  0  0
  140.9740   71.3740  228.0490 C   0  0  0  0  0  0  0  0  0  0  0  0
  140.5762   69.6918  229.3581 H   0  0  0  0  0  0  0  0  0  0  0  0
  139.9576   68.1594  227.4872 H   0  0  0  0  0  0  0  0  0  0  0  0
  140.0027   68.9801  225.1308 H   0  0  0  0  0  0  0  0  0  0  0  0
  141.1359   72.4844  224.2329 H   0  0  0  0  0  0  0  0  0  0  0  0
  141.3161   70.7734  223.6665 H   0  0  0  0  0  0  0  0  0  0  0  0
  138.8979   70.5060  223.5549 H   0  0  0  0  0  0  0  0  0  0  0  0
  138.6619   72.1658  224.2383 H   0  0  0  0  0  0  0  0  0  0  0  0
  138.5780   71.8600  221.6040 H   0  0  0  0  0  0  0  0  0  0  0  0
  141.7036   71.3283  221.2032 H   0  0  0  0  0  0  0  0  0  0  0  0
  145.1847   74.0136  221.2615 H   0  0  0  0  0  0  0  0  0  0  0  0
  145.0570   72.3199  221.8746 H   0  0  0  0  0  0  0  0  0  0  0  0
  147.1786   72.9853  220.4945 H   0  0  0  0  0  0  0  0  0  0  0  0
  146.3332   71.4438  220.0955 H   0  0  0  0  0  0  0  0  0  0  0  0
  145.9040   74.0420  218.7340 H   0  0  0  0  0  0  0  0  0  0  0  0
  144.4562   73.0818  217.3528 H   0  0  0  0  0  0  0  0  0  0  0  0
  145.2510   71.4496  217.5879 H   0  0  0  0  0  0  0  0  0  0  0  0
  142.7984   72.0454  218.5649 H   0  0  0  0  0  0  0  0  0  0  0  0
  143.9489   70.8989  219.3539 H   0  0  0  0  0  0  0  0  0  0  0  0
  139.1839   77.3704  222.0133 H   0  0  0  0  0  0  0  0  0  0  0  0
  139.9993   76.4581  223.3513 H   0  0  0  0  0  0  0  0  0  0  0  0
  139.8179   79.1529  223.3179 H   0  0  0  0  0  0  0  0  0  0  0  0
  141.2367   78.2256  224.0219 H   0  0  0  0  0  0  0  0  0  0  0  0
  142.5940   78.9510  222.4970 H   0  0  0  0  0  0  0  0  0  0  0  0
  140.3667   79.1375  220.5480 H   0  0  0  0  0  0  0  0  0  0  0  0
  142.0910   79.5374  220.2169 H   0  0  0  0  0  0  0  0  0  0  0  0
  141.3076   77.1700  219.5568 H   0  0  0  0  0  0  0  0  0  0  0  0
  142.7929   77.2868  220.5816 H   0  0  0  0  0  0  0  0  0  0  0  0
  141.3011   72.8746  226.5196 H   0  0  0  0  0  0  0  0  0  0  0  0
  141.2504   72.0473  228.8738 H   0  0  0  0  0  0  0  0  0  0  0  0
  1  2  2  0
  2  3  1  0
  3  4  2  0
  4  5  1  0
  5  6  1  0
  6  7  1  0
  7  8  1  0
  8  9  2  0
  9 10  1  0
 10 11  1  0
 11 12  1  0
 12 13  1  0
 13 14  1  0
 14 15  1  0
 15 16  1  0
 10 17  2  0
 17 18  1  0
 18 19  1  0
 19 20  1  0
 20 21  1  0
 21 22  1  0
 22 23  1  0
 23 24  1  0
 18 25  2  0
  4 26  1  0
 26 27  2  0
 27  1  1  0
 25  8  1  0
 16 11  1  0
 24 19  1  0
  1 28  1  0
  2 29  1  0
  3 30  1  0
  5 31  1  0
  5 32  1  0
  6 33  1  0
  6 34  1  0
  7 35  1  0
  9 36  1  0
 12 37  1  0
 12 38  1  0
 13 39  1  0
 13 40  1  0
 14 41  1  0
 15 42  1  0
 15 43  1  0
 16 44  1  0
 16 45  1  0
 20 46  1  0
 20 47  1  0
 21 48  1  0
 21 49  1  0
 22 50  1  0
 23 51  1  0
 23 52  1  0
 24 53  1  0
 24 54  1  0
 26 55  1  0
 27 56  1  0
M  END
>  <UniqueID>  (35) 
519

>  <SMILES>  (35) 
c1ccc(CCNc2cc(N3CCNCC3)nc(N3CCNCC3)n2)cc1

>  <Energy>  (35) 
62.81689782955762

>  <Genealogy>  (35) 
c1ccc(CCNc2cc(N3CCNCC3)nc(N3CCNCC3)n2)cc1 (3D coordinates assigned)
c1ccc(CCNc2cc(N3CCNCC3)nc(N3CCNCC3)n2)cc1 (nonaromatic ring conformer: 62.81689782955762 kcal/mol)

>  <smiles>  (35) 
c1ccc(CCNc2cc(N3CCNCC3)nc(N3CCNCC3)n2)cc1

>  <score_type>  (35) 
oracle

>  <origin>  (35) 
autodockgpu

>  <m_score__min__energy>  (35) 
-9.2300000000000004

>  <m_primary>  (35) 
energy

>  <meeko>  (35) 
{"free_energy": -8.62, "intermolecular_energy": -10.41, "internal_energy": -0.85, "cluster_size": 19, "cluster_id": 1, "rank_in_cluster": 18}

>  <energy>  (35) 
-8.87

>  <cluster_rmsd>  (35) 
0.99

>  <rmsd>  (35) 
271.03

>  <cluster>  (35) 
1

$$$$
USJHBUDYBBTILB-MPIMZMORNA-N
     RDKit          3D

 56 59  0  0  0  0  0  0  0  0999 V2000
  141.0700   70.9540  227.6460 C   0  0  0  0  0  0  0  0  0  0  0  0
  141.3480   71.8610  226.6210 C   0  0  0  0  0  0  0  0  0  0  0  0
  140.6910   71.7520  225.3910 C   0  0  0  0  0  0  0  0  0  0  0  0
  139.7520   70.7280  225.1780 C   0  0  0  0  0  0  0  0  0  0  0  0
  139.0170   70.6310  223.8660 C   0  0  0  0  0  0  0  0  0  0  0  0
  139.8440   71.2140  222.7130 C   0  0  0  0  0  0  0  0  0  0  0  0
  139.6350   72.6560  222.5820 N   0  0  0  0  0  0  0  0  0  0  0  0
  140.5920   73.5270  221.9610 C   0  0  0  0  0  0  0  0  0  0  0  0
  140.3700   74.9060  221.9310 C   0  0  0  0  0  0  0  0  0  0  0  0
  141.3300   75.7310  221.3290 C   0  0  0  0  0  0  0  0  0  0  0  0
  141.1690   77.1620  221.2960 N   0  0  0  0  0  0  0  0  0  0  0  0
  141.4700   77.8860  220.0560 C   0  0  0  0  0  0  0  0  0  0  0  0
  141.4320   79.4030  220.2880 C   0  0  0  0  0  0  0  0  0  0  0  0
  142.0520   79.7380  221.5760 N   0  0  0  0  0  0  0  0  0  0  0  0
  141.3080   79.1820  222.7240 C   0  0  0  0  0  0  0  0  0  0  0  0
  140.5320   77.8880  222.4020 C   0  0  0  0  0  0  0  0  0  0  0  0
  142.4570   75.1690  220.8140 N   0  0  0  0  0  0  0  0  0  0  0  0
  142.6630   73.8250  220.8430 C   0  0  0  0  0  0  0  0  0  0  0  0
  143.8690   73.2650  220.2830 N   0  0  0  0  0  0  0  0  0  0  0  0
  143.8080   72.1680  219.3050 C   0  0  0  0  0  0  0  0  0  0  0  0
  144.9050   72.3050  218.2240 C   0  0  0  0  0  0  0  0  0  0  0  0
  146.1100   73.0350  218.6620 N   0  0  0  0  0  0  0  0  0  0  0  0
  146.3180   72.9610  220.1110 C   0  0  0  0  0  0  0  0  0  0  0  0
  145.1680   73.6590  220.8440 C   0  0  0  0  0  0  0  0  0  0  0  0
  141.7280   73.0200  221.4130 N   0  0  0  0  0  0  0  0  0  0  0  0
  139.4690   69.8270  226.2180 C   0  0  0  0  0  0  0  0  0  0  0  0
  140.1300   69.9380  227.4460 C   0  0  0  0  0  0  0  0  0  0  0  0
  141.5907   71.0388  228.6112 H   0  0  0  0  0  0  0  0  0  0  0  0
  142.0846   72.6621  226.7812 H   0  0  0  0  0  0  0  0  0  0  0  0
  140.9100   72.4704  224.5873 H   0  0  0  0  0  0  0  0  0  0  0  0
  138.8036   69.5731  223.6534 H   0  0  0  0  0  0  0  0  0  0  0  0
  138.0853   71.2098  223.9491 H   0  0  0  0  0  0  0  0  0  0  0  0
  140.9101   71.0229  222.9049 H   0  0  0  0  0  0  0  0  0  0  0  0
  139.5230   70.7313  221.7781 H   0  0  0  0  0  0  0  0  0  0  0  0
  138.7470   73.0600  222.9570 H   0  0  0  0  0  0  0  0  0  0  0  0
  139.4586   75.3364  222.3717 H   0  0  0  0  0  0  0  0  0  0  0  0
  142.4726   77.5997  219.7054 H   0  0  0  0  0  0  0  0  0  0  0  0
  140.7122   77.6253  219.3025 H   0  0  0  0  0  0  0  0  0  0  0  0
  141.9808   79.9075  219.4791 H   0  0  0  0  0  0  0  0  0  0  0  0
  140.3840   79.7369  220.2982 H   0  0  0  0  0  0  0  0  0  0  0  0
  143.0260   79.3520  221.5850 H   0  0  0  0  0  0  0  0  0  0  0  0
  142.0259   78.9637  223.5283 H   0  0  0  0  0  0  0  0  0  0  0  0
  140.5620   79.9362  223.0150 H   0  0  0  0  0  0  0  0  0  0  0  0
  140.5162   77.2450  223.2943 H   0  0  0  0  0  0  0  0  0  0  0  0
  139.5069   78.1550  222.1056 H   0  0  0  0  0  0  0  0  0  0  0  0
  143.9442   71.2122  219.8322 H   0  0  0  0  0  0  0  0  0  0  0  0
  142.8282   72.2066  218.8065 H   0  0  0  0  0  0  0  0  0  0  0  0
  145.2096   71.2945  217.9140 H   0  0  0  0  0  0  0  0  0  0  0  0
  144.4645   72.8926  217.4050 H   0  0  0  0  0  0  0  0  0  0  0  0
  146.0130   74.0420  218.3910 H   0  0  0  0  0  0  0  0  0  0  0  0
  146.3588   71.9059  220.4193 H   0  0  0  0  0  0  0  0  0  0  0  0
  147.2638   73.4619  220.3651 H   0  0  0  0  0  0  0  0  0  0  0  0
  145.1991   73.3819  221.9081 H   0  0  0  0  0  0  0  0  0  0  0  0
  145.2856   74.7462  220.7248 H   0  0  0  0  0  0  0  0  0  0  0  0
  138.7249   69.0312  226.0662 H   0  0  0  0  0  0  0  0  0  0  0  0
  139.9102   69.2256  228.2548 H   0  0  0  0  0  0  0  0  0  0  0  0
  1  2  2  0
  2  3  1  0
  3  4  2  0
  4  5  1  0
  5  6  1  0
  6  7  1  0
  7  8  1  0
  8  9  2  0
  9 10  1  0
 10 11  1  0
 11 12  1  0
 12 13  1  0
 13 14  1  0
 14 15  1  0
 15 16  1  0
 10 17  2  0
 17 18  1  0
 18 19  1  0
 19 20  1  0
 20 21  1  0
 21 22  1  0
 22 23  1  0
 23 24  1  0
 18 25  2  0
  4 26  1  0
 26 27  2  0
 27  1  1  0
 25  8  1  0
 16 11  1  0
 24 19  1  0
  1 28  1  0
  2 29  1  0
  3 30  1  0
  5 31  1  0
  5 32  1  0
  6 33  1  0
  6 34  1  0
  7 35  1  0
  9 36  1  0
 12 37  1  0
 12 38  1  0
 13 39  1  0
 13 40  1  0
 14 41  1  0
 15 42  1  0
 15 43  1  0
 16 44  1  0
 16 45  1  0
 20 46  1  0
 20 47  1  0
 21 48  1  0
 21 49  1  0
 22 50  1  0
 23 51  1  0
 23 52  1  0
 24 53  1  0
 24 54  1  0
 26 55  1  0
 27 56  1  0
M  END
>  <UniqueID>  (36) 
519

>  <SMILES>  (36) 
c1ccc(CCNc2cc(N3CCNCC3)nc(N3CCNCC3)n2)cc1

>  <Energy>  (36) 
62.81689782955762

>  <Genealogy>  (36) 
c1ccc(CCNc2cc(N3CCNCC3)nc(N3CCNCC3)n2)cc1 (3D coordinates assigned)
c1ccc(CCNc2cc(N3CCNCC3)nc(N3CCNCC3)n2)cc1 (nonaromatic ring conformer: 62.81689782955762 kcal/mol)

>  <smiles>  (36) 
c1ccc(CCNc2cc(N3CCNCC3)nc(N3CCNCC3)n2)cc1

>  <score_type>  (36) 
oracle

>  <origin>  (36) 
autodockgpu

>  <m_score__min__energy>  (36) 
-9.2300000000000004

>  <m_primary>  (36) 
energy

>  <meeko>  (36) 
{"free_energy": -8.78, "intermolecular_energy": -10.57, "internal_energy": -0.88, "cluster_size": 19, "cluster_id": 1, "rank_in_cluster": 16}

>  <energy>  (36) 
-8.78

>  <cluster_rmsd>  (36) 
0.69

>  <rmsd>  (36) 
271.01

>  <cluster>  (36) 
1

$$$$
USJHBUDYBBTILB-MPIMZMORNA-N
     RDKit          3D

 56 59  0  0  0  0  0  0  0  0999 V2000
  140.1320   68.3300  227.9760 C   0  0  0  0  0  0  0  0  0  0  0  0
  139.9620   67.9980  226.6300 C   0  0  0  0  0  0  0  0  0  0  0  0
  140.1410   68.9700  225.6410 C   0  0  0  0  0  0  0  0  0  0  0  0
  140.4870   70.2850  225.9950 C   0  0  0  0  0  0  0  0  0  0  0  0
  140.7150   71.3260  224.9280 C   0  0  0  0  0  0  0  0  0  0  0  0
  139.8220   71.0810  223.7050 C   0  0  0  0  0  0  0  0  0  0  0  0
  139.4860   72.3350  223.0310 N   0  0  0  0  0  0  0  0  0  0  0  0
  140.4480   73.1020  222.2900 C   0  0  0  0  0  0  0  0  0  0  0  0
  141.4560   72.4550  221.5700 C   0  0  0  0  0  0  0  0  0  0  0  0
  142.3720   73.2300  220.8460 C   0  0  0  0  0  0  0  0  0  0  0  0
  143.4130   72.6180  220.0620 N   0  0  0  0  0  0  0  0  0  0  0  0
  143.5320   71.1550  220.0480 C   0  0  0  0  0  0  0  0  0  0  0  0
  144.8130   70.7190  219.3250 C   0  0  0  0  0  0  0  0  0  0  0  0
  145.9280   71.6040  219.6820 N   0  0  0  0  0  0  0  0  0  0  0  0
  145.7160   72.9930  219.2280 C   0  0  0  0  0  0  0  0  0  0  0  0
  144.2320   73.4020  219.1280 C   0  0  0  0  0  0  0  0  0  0  0  0
  142.2400   74.5840  220.8470 N   0  0  0  0  0  0  0  0  0  0  0  0
  141.2580   75.2070  221.5540 C   0  0  0  0  0  0  0  0  0  0  0  0
  141.1510   76.6450  221.5340 N   0  0  0  0  0  0  0  0  0  0  0  0
  140.6370   77.3800  222.6990 C   0  0  0  0  0  0  0  0  0  0  0  0
  141.3730   78.7240  222.8980 C   0  0  0  0  0  0  0  0  0  0  0  0
  141.9360   79.3040  221.6630 N   0  0  0  0  0  0  0  0  0  0  0  0
  141.2180   78.8730  220.4600 C   0  0  0  0  0  0  0  0  0  0  0  0
  141.3710   77.3610  220.2700 C   0  0  0  0  0  0  0  0  0  0  0  0
  140.3760   74.4590  222.2680 N   0  0  0  0  0  0  0  0  0  0  0  0
  140.6680   70.6080  227.3500 C   0  0  0  0  0  0  0  0  0  0  0  0
  140.4860   69.6340  228.3370 C   0  0  0  0  0  0  0  0  0  0  0  0
  139.9873   67.5650  228.7530 H   0  0  0  0  0  0  0  0  0  0  0  0
  139.6871   66.9710  226.3478 H   0  0  0  0  0  0  0  0  0  0  0  0
  140.0104   68.7042  224.5816 H   0  0  0  0  0  0  0  0  0  0  0  0
  140.4884   72.3191  225.3431 H   0  0  0  0  0  0  0  0  0  0  0  0
  141.7653   71.2669  224.6064 H   0  0  0  0  0  0  0  0  0  0  0  0
  140.3536   70.4262  222.9989 H   0  0  0  0  0  0  0  0  0  0  0  0
  138.8884   70.6099  224.0462 H   0  0  0  0  0  0  0  0  0  0  0  0
  138.5010   72.6790  223.0930 H   0  0  0  0  0  0  0  0  0  0  0  0
  141.5291   71.3574  221.5716 H   0  0  0  0  0  0  0  0  0  0  0  0
  143.5590   70.7855  221.0838 H   0  0  0  0  0  0  0  0  0  0  0  0
  142.6662   70.7361  219.5143 H   0  0  0  0  0  0  0  0  0  0  0  0
  145.0609   69.6878  219.6168 H   0  0  0  0  0  0  0  0  0  0  0  0
  144.6466   70.7747  218.2391 H   0  0  0  0  0  0  0  0  0  0  0  0
  146.0310   71.6020  220.7250 H   0  0  0  0  0  0  0  0  0  0  0  0
  146.2137   73.6688  219.9390 H   0  0  0  0  0  0  0  0  0  0  0  0
  146.1339   73.0628  218.2129 H   0  0  0  0  0  0  0  0  0  0  0  0
  144.1347   74.4703  219.3716 H   0  0  0  0  0  0  0  0  0  0  0  0
  143.8808   73.2105  218.1033 H   0  0  0  0  0  0  0  0  0  0  0  0
  139.5654   77.5791  222.5503 H   0  0  0  0  0  0  0  0  0  0  0  0
  140.8031   76.7626  223.5941 H   0  0  0  0  0  0  0  0  0  0  0  0
  140.6601   79.4462  223.3224 H   0  0  0  0  0  0  0  0  0  0  0  0
  142.2249   78.5179  223.5626 H   0  0  0  0  0  0  0  0  0  0  0  0
  142.9370   79.0090  221.5760 H   0  0  0  0  0  0  0  0  0  0  0  0
  140.1513   79.1206  220.5645 H   0  0  0  0  0  0  0  0  0  0  0  0
  141.6380   79.3905  219.5849 H   0  0  0  0  0  0  0  0  0  0  0  0
  140.6355   77.0157  219.5286 H   0  0  0  0  0  0  0  0  0  0  0  0
  142.3944   77.1537  219.9242 H   0  0  0  0  0  0  0  0  0  0  0  0
  140.9540   71.6310  227.6359 H   0  0  0  0  0  0  0  0  0  0  0  0
  140.6213   69.8936  229.3973 H   0  0  0  0  0  0  0  0  0  0  0  0
  1  2  2  0
  2  3  1  0
  3  4  2  0
  4  5  1  0
  5  6  1  0
  6  7  1  0
  7  8  1  0
  8  9  2  0
  9 10  1  0
 10 11  1  0
 11 12  1  0
 12 13  1  0
 13 14  1  0
 14 15  1  0
 15 16  1  0
 10 17  2  0
 17 18  1  0
 18 19  1  0
 19 20  1  0
 20 21  1  0
 21 22  1  0
 22 23  1  0
 23 24  1  0
 18 25  2  0
  4 26  1  0
 26 27  2  0
 27  1  1  0
 25  8  1  0
 16 11  1  0
 24 19  1  0
  1 28  1  0
  2 29  1  0
  3 30  1  0
  5 31  1  0
  5 32  1  0
  6 33  1  0
  6 34  1  0
  7 35  1  0
  9 36  1  0
 12 37  1  0
 12 38  1  0
 13 39  1  0
 13 40  1  0
 14 41  1  0
 15 42  1  0
 15 43  1  0
 16 44  1  0
 16 45  1  0
 20 46  1  0
 20 47  1  0
 21 48  1  0
 21 49  1  0
 22 50  1  0
 23 51  1  0
 23 52  1  0
 24 53  1  0
 24 54  1  0
 26 55  1  0
 27 56  1  0
M  END
>  <UniqueID>  (37) 
519

>  <SMILES>  (37) 
c1ccc(CCNc2cc(N3CCNCC3)nc(N3CCNCC3)n2)cc1

>  <Energy>  (37) 
62.81689782955762

>  <Genealogy>  (37) 
c1ccc(CCNc2cc(N3CCNCC3)nc(N3CCNCC3)n2)cc1 (3D coordinates assigned)
c1ccc(CCNc2cc(N3CCNCC3)nc(N3CCNCC3)n2)cc1 (nonaromatic ring conformer: 62.81689782955762 kcal/mol)

>  <smiles>  (37) 
c1ccc(CCNc2cc(N3CCNCC3)nc(N3CCNCC3)n2)cc1

>  <score_type>  (37) 
oracle

>  <origin>  (37) 
autodockgpu

>  <m_score__min__energy>  (37) 
-9.2300000000000004

>  <m_primary>  (37) 
energy

>  <meeko>  (37) 
{"free_energy": -8.93, "intermolecular_energy": -10.72, "internal_energy": -0.81, "cluster_size": 19, "cluster_id": 1, "rank_in_cluster": 14}

>  <energy>  (37) 
-8.63

>  <cluster_rmsd>  (37) 
0.65

>  <rmsd>  (37) 
271.0

>  <cluster>  (37) 
1

$$$$
USJHBUDYBBTILB-MPIMZMORNA-N
     RDKit          3D

 56 59  0  0  0  0  0  0  0  0999 V2000
  141.0790   70.9590  227.9700 C   0  0  0  0  0  0  0  0  0  0  0  0
  141.2700   71.8370  226.9010 C   0  0  0  0  0  0  0  0  0  0  0  0
  140.5770   71.6430  225.7020 C   0  0  0  0  0  0  0  0  0  0  0  0
  139.6900   70.5610  225.5640 C   0  0  0  0  0  0  0  0  0  0  0  0
  138.9150   70.3710  224.2850 C   0  0  0  0  0  0  0  0  0  0  0  0
  139.7180   70.8420  223.0660 C   0  0  0  0  0  0  0  0  0  0  0  0
  139.5450   72.2760  222.8350 N   0  0  0  0  0  0  0  0  0  0  0  0
  140.5230   73.0760  222.1530 C   0  0  0  0  0  0  0  0  0  0  0  0
  141.5610   72.4640  221.4460 C   0  0  0  0  0  0  0  0  0  0  0  0
  142.4920   73.2730  220.7800 C   0  0  0  0  0  0  0  0  0  0  0  0
  143.5650   72.6970  220.0100 N   0  0  0  0  0  0  0  0  0  0  0  0
  143.6360   71.2390  219.8610 C   0  0  0  0  0  0  0  0  0  0  0  0
  144.9500   70.8240  219.1860 C   0  0  0  0  0  0  0  0  0  0  0  0
  146.0660   71.6270  219.7020 N   0  0  0  0  0  0  0  0  0  0  0  0
  145.9320   73.0610  219.3730 C   0  0  0  0  0  0  0  0  0  0  0  0
  144.4720   73.5340  219.2140 C   0  0  0  0  0  0  0  0  0  0  0  0
  142.3440   74.6250  220.8210 N   0  0  0  0  0  0  0  0  0  0  0  0
  141.3330   75.2130  221.5150 C   0  0  0  0  0  0  0  0  0  0  0  0
  141.2110   76.6500  221.5400 N   0  0  0  0  0  0  0  0  0  0  0  0
  140.6900   77.3430  222.7280 C   0  0  0  0  0  0  0  0  0  0  0  0
  141.4130   78.6880  222.9670 C   0  0  0  0  0  0  0  0  0  0  0  0
  141.9680   79.3120  221.7510 N   0  0  0  0  0  0  0  0  0  0  0  0
  141.2530   78.9110  220.5350 C   0  0  0  0  0  0  0  0  0  0  0  0
  141.4210   77.4070  220.2980 C   0  0  0  0  0  0  0  0  0  0  0  0
  140.4370   74.4330  222.1740 N   0  0  0  0  0  0  0  0  0  0  0  0
  139.4950   69.6900  226.6480 C   0  0  0  0  0  0  0  0  0  0  0  0
  140.1910   69.8860  227.8450 C   0  0  0  0  0  0  0  0  0  0  0  0
  141.6275   71.1116  228.9112 H   0  0  0  0  0  0  0  0  0  0  0  0
  141.9665   72.6823  227.0022 H   0  0  0  0  0  0  0  0  0  0  0  0
  140.7264   72.3395  224.8638 H   0  0  0  0  0  0  0  0  0  0  0  0
  138.6777   69.3035  224.1660 H   0  0  0  0  0  0  0  0  0  0  0  0
  137.9957   70.9720  224.3459 H   0  0  0  0  0  0  0  0  0  0  0  0
  140.7843   70.6331  223.2373 H   0  0  0  0  0  0  0  0  0  0  0  0
  139.3520   70.3019  222.1804 H   0  0  0  0  0  0  0  0  0  0  0  0
  138.6690   72.7280  223.1810 H   0  0  0  0  0  0  0  0  0  0  0  0
  141.6461   71.3678  221.4126 H   0  0  0  0  0  0  0  0  0  0  0  0
  143.5778   70.7716  220.8550 H   0  0  0  0  0  0  0  0  0  0  0  0
  142.7964   70.9074  219.2324 H   0  0  0  0  0  0  0  0  0  0  0  0
  145.1430   69.7607  219.3914 H   0  0  0  0  0  0  0  0  0  0  0  0
  144.8623   70.9895  218.1021 H   0  0  0  0  0  0  0  0  0  0  0  0
  146.0950   71.5210  220.7450 H   0  0  0  0  0  0  0  0  0  0  0  0
  146.3994   73.6460  220.1788 H   0  0  0  0  0  0  0  0  0  0  0  0
  146.4234   73.2119  218.4005 H   0  0  0  0  0  0  0  0  0  0  0  0
  144.3915   74.5773  219.5533 H   0  0  0  0  0  0  0  0  0  0  0  0
  144.1880   73.4541  218.1543 H   0  0  0  0  0  0  0  0  0  0  0  0
  139.6163   77.5355  222.5864 H   0  0  0  0  0  0  0  0  0  0  0  0
  140.8626   76.7001  223.6037 H   0  0  0  0  0  0  0  0  0  0  0  0
  140.6935   79.3894  223.4146 H   0  0  0  0  0  0  0  0  0  0  0  0
  142.2684   78.4696  223.6232 H   0  0  0  0  0  0  0  0  0  0  0  0
  142.9720   79.0310  221.6540 H   0  0  0  0  0  0  0  0  0  0  0  0
  140.1840   79.1445  220.6477 H   0  0  0  0  0  0  0  0  0  0  0  0
  141.6671   79.4595  219.6761 H   0  0  0  0  0  0  0  0  0  0  0  0
  140.6874   77.0772  219.5476 H   0  0  0  0  0  0  0  0  0  0  0  0
  142.4457   77.2210  219.9440 H   0  0  0  0  0  0  0  0  0  0  0  0
  138.7914   68.8495  226.5552 H   0  0  0  0  0  0  0  0  0  0  0  0
  140.0399   69.1961  228.6883 H   0  0  0  0  0  0  0  0  0  0  0  0
  1  2  2  0
  2  3  1  0
  3  4  2  0
  4  5  1  0
  5  6  1  0
  6  7  1  0
  7  8  1  0
  8  9  2  0
  9 10  1  0
 10 11  1  0
 11 12  1  0
 12 13  1  0
 13 14  1  0
 14 15  1  0
 15 16  1  0
 10 17  2  0
 17 18  1  0
 18 19  1  0
 19 20  1  0
 20 21  1  0
 21 22  1  0
 22 23  1  0
 23 24  1  0
 18 25  2  0
  4 26  1  0
 26 27  2  0
 27  1  1  0
 25  8  1  0
 16 11  1  0
 24 19  1  0
  1 28  1  0
  2 29  1  0
  3 30  1  0
  5 31  1  0
  5 32  1  0
  6 33  1  0
  6 34  1  0
  7 35  1  0
  9 36  1  0
 12 37  1  0
 12 38  1  0
 13 39  1  0
 13 40  1  0
 14 41  1  0
 15 42  1  0
 15 43  1  0
 16 44  1  0
 16 45  1  0
 20 46  1  0
 20 47  1  0
 21 48  1  0
 21 49  1  0
 22 50  1  0
 23 51  1  0
 23 52  1  0
 24 53  1  0
 24 54  1  0
 26 55  1  0
 27 56  1  0
M  END
>  <UniqueID>  (38) 
519

>  <SMILES>  (38) 
c1ccc(CCNc2cc(N3CCNCC3)nc(N3CCNCC3)n2)cc1

>  <Energy>  (38) 
62.81689782955762

>  <Genealogy>  (38) 
c1ccc(CCNc2cc(N3CCNCC3)nc(N3CCNCC3)n2)cc1 (3D coordinates assigned)
c1ccc(CCNc2cc(N3CCNCC3)nc(N3CCNCC3)n2)cc1 (nonaromatic ring conformer: 62.81689782955762 kcal/mol)

>  <smiles>  (38) 
c1ccc(CCNc2cc(N3CCNCC3)nc(N3CCNCC3)n2)cc1

>  <score_type>  (38) 
oracle

>  <origin>  (38) 
autodockgpu

>  <m_score__min__energy>  (38) 
-9.2300000000000004

>  <m_primary>  (38) 
energy

>  <meeko>  (38) 
{"free_energy": -8.87, "intermolecular_energy": -10.66, "internal_energy": -0.89, "cluster_size": 19, "cluster_id": 1, "rank_in_cluster": 15}

>  <energy>  (38) 
-8.62

>  <cluster_rmsd>  (38) 
0.6

>  <rmsd>  (38) 
271.06

>  <cluster>  (38) 
1

$$$$
USJHBUDYBBTILB-MPIMZMORNA-N
     RDKit          3D

 56 59  0  0  0  0  0  0  0  0999 V2000
  140.5450   70.0490  228.1350 C   0  0  0  0  0  0  0  0  0  0  0  0
  140.1150   69.2960  227.0400 C   0  0  0  0  0  0  0  0  0  0  0  0
  140.1490   69.8460  225.7550 C   0  0  0  0  0  0  0  0  0  0  0  0
  140.6100   71.1600  225.5590 C   0  0  0  0  0  0  0  0  0  0  0  0
  140.6810   71.7420  224.1700 C   0  0  0  0  0  0  0  0  0  0  0  0
  139.3750   71.5140  223.3980 C   0  0  0  0  0  0  0  0  0  0  0  0
  139.3020   72.3650  222.2100 N   0  0  0  0  0  0  0  0  0  0  0  0
  140.3950   73.1900  221.7770 C   0  0  0  0  0  0  0  0  0  0  0  0
  141.5530   72.6060  221.2570 C   0  0  0  0  0  0  0  0  0  0  0  0
  142.5960   73.4390  220.8310 C   0  0  0  0  0  0  0  0  0  0  0  0
  143.8000   72.8940  220.2590 N   0  0  0  0  0  0  0  0  0  0  0  0
  145.0750   73.0890  220.9580 C   0  0  0  0  0  0  0  0  0  0  0  0
  146.2500   72.6150  220.0910 C   0  0  0  0  0  0  0  0  0  0  0  0
  146.0420   73.0050  218.6910 N   0  0  0  0  0  0  0  0  0  0  0  0
  144.8640   72.3480  218.0880 C   0  0  0  0  0  0  0  0  0  0  0  0
  143.7580   71.9890  219.1020 C   0  0  0  0  0  0  0  0  0  0  0  0
  142.4420   74.7880  220.9130 N   0  0  0  0  0  0  0  0  0  0  0  0
  141.3130   75.3490  221.4250 C   0  0  0  0  0  0  0  0  0  0  0  0
  141.1880   76.7840  221.5000 N   0  0  0  0  0  0  0  0  0  0  0  0
  140.6860   77.4350  222.7200 C   0  0  0  0  0  0  0  0  0  0  0  0
  141.4090   78.7740  222.9930 C   0  0  0  0  0  0  0  0  0  0  0  0
  141.9410   79.4400  221.7880 N   0  0  0  0  0  0  0  0  0  0  0  0
  141.2050   79.0780  220.5730 C   0  0  0  0  0  0  0  0  0  0  0  0
  141.3730   77.5840  220.2820 C   0  0  0  0  0  0  0  0  0  0  0  0
  140.3050   74.5450  221.8520 N   0  0  0  0  0  0  0  0  0  0  0  0
  141.0510   71.9060  226.6640 C   0  0  0  0  0  0  0  0  0  0  0  0
  141.0140   71.3530  227.9480 C   0  0  0  0  0  0  0  0  0  0  0  0
  140.5147   69.6157  229.1456 H   0  0  0  0  0  0  0  0  0  0  0  0
  139.7493   68.2693  227.1887 H   0  0  0  0  0  0  0  0  0  0  0  0
  139.8139   69.2487  224.8942 H   0  0  0  0  0  0  0  0  0  0  0  0
  140.8681   72.8234  224.2446 H   0  0  0  0  0  0  0  0  0  0  0  0
  141.4954   71.2405  223.6266 H   0  0  0  0  0  0  0  0  0  0  0  0
  139.3222   70.4601  223.0872 H   0  0  0  0  0  0  0  0  0  0  0  0
  138.5332   71.7686  224.0587 H   0  0  0  0  0  0  0  0  0  0  0  0
  138.4160   72.3640  221.6580 H   0  0  0  0  0  0  0  0  0  0  0  0
  141.6441   71.5123  221.1834 H   0  0  0  0  0  0  0  0  0  0  0  0
  145.2022   74.1578  221.1847 H   0  0  0  0  0  0  0  0  0  0  0  0
  145.0617   72.4996  221.8867 H   0  0  0  0  0  0  0  0  0  0  0  0
  147.1803   73.0714  220.4602 H   0  0  0  0  0  0  0  0  0  0  0  0
  146.3180   71.5187  220.1500 H   0  0  0  0  0  0  0  0  0  0  0  0
  145.9040   74.0440  218.6540 H   0  0  0  0  0  0  0  0  0  0  0  0
  144.4364   73.0272  217.3358 H   0  0  0  0  0  0  0  0  0  0  0  0
  145.2159   71.4012  217.6525 H   0  0  0  0  0  0  0  0  0  0  0  0
  142.7770   72.0750  218.6118 H   0  0  0  0  0  0  0  0  0  0  0  0
  143.9206   70.9591  219.4527 H   0  0  0  0  0  0  0  0  0  0  0  0
  139.6094   77.6285  222.6035 H   0  0  0  0  0  0  0  0  0  0  0  0
  140.8763   76.7632  223.5700 H   0  0  0  0  0  0  0  0  0  0  0  0
  140.6952   79.4574  223.4762 H   0  0  0  0  0  0  0  0  0  0  0  0
  142.2757   78.5374  223.6277 H   0  0  0  0  0  0  0  0  0  0  0  0
  142.9430   79.1660  221.6630 H   0  0  0  0  0  0  0  0  0  0  0  0
  140.1376   79.3036  220.7133 H   0  0  0  0  0  0  0  0  0  0  0  0
  141.6015   79.6568  219.7258 H   0  0  0  0  0  0  0  0  0  0  0  0
  140.6269   77.2775  219.5341 H   0  0  0  0  0  0  0  0  0  0  0  0
  142.3919   77.4141  219.9038 H   0  0  0  0  0  0  0  0  0  0  0  0
  141.4271   72.9295  226.5190 H   0  0  0  0  0  0  0  0  0  0  0  0
  141.3540   71.9441  228.8112 H   0  0  0  0  0  0  0  0  0  0  0  0
  1  2  2  0
  2  3  1  0
  3  4  2  0
  4  5  1  0
  5  6  1  0
  6  7  1  0
  7  8  1  0
  8  9  2  0
  9 10  1  0
 10 11  1  0
 11 12  1  0
 12 13  1  0
 13 14  1  0
 14 15  1  0
 15 16  1  0
 10 17  2  0
 17 18  1  0
 18 19  1  0
 19 20  1  0
 20 21  1  0
 21 22  1  0
 22 23  1  0
 23 24  1  0
 18 25  2  0
  4 26  1  0
 26 27  2  0
 27  1  1  0
 25  8  1  0
 16 11  1  0
 24 19  1  0
  1 28  1  0
  2 29  1  0
  3 30  1  0
  5 31  1  0
  5 32  1  0
  6 33  1  0
  6 34  1  0
  7 35  1  0
  9 36  1  0
 12 37  1  0
 12 38  1  0
 13 39  1  0
 13 40  1  0
 14 41  1  0
 15 42  1  0
 15 43  1  0
 16 44  1  0
 16 45  1  0
 20 46  1  0
 20 47  1  0
 21 48  1  0
 21 49  1  0
 22 50  1  0
 23 51  1  0
 23 52  1  0
 24 53  1  0
 24 54  1  0
 26 55  1  0
 27 56  1  0
M  END
>  <UniqueID>  (39) 
519

>  <SMILES>  (39) 
c1ccc(CCNc2cc(N3CCNCC3)nc(N3CCNCC3)n2)cc1

>  <Energy>  (39) 
62.81689782955762

>  <Genealogy>  (39) 
c1ccc(CCNc2cc(N3CCNCC3)nc(N3CCNCC3)n2)cc1 (3D coordinates assigned)
c1ccc(CCNc2cc(N3CCNCC3)nc(N3CCNCC3)n2)cc1 (nonaromatic ring conformer: 62.81689782955762 kcal/mol)

>  <smiles>  (39) 
c1ccc(CCNc2cc(N3CCNCC3)nc(N3CCNCC3)n2)cc1

>  <score_type>  (39) 
oracle

>  <origin>  (39) 
autodockgpu

>  <m_score__min__energy>  (39) 
-9.2300000000000004

>  <m_primary>  (39) 
energy

>  <meeko>  (39) 
{"free_energy": -9.01, "intermolecular_energy": -10.8, "internal_energy": -0.83, "cluster_size": 19, "cluster_id": 1, "rank_in_cluster": 8}

>  <energy>  (39) 
-8.42

>  <cluster_rmsd>  (39) 
1.58

>  <rmsd>  (39) 
271.07

>  <cluster>  (39) 
1

$$$$
USJHBUDYBBTILB-MPIMZMORNA-N
     RDKit          3D

 56 59  0  0  0  0  0  0  0  0999 V2000
  141.0630   70.5530  227.6290 C   0  0  0  0  0  0  0  0  0  0  0  0
  140.0680   69.5960  227.4200 C   0  0  0  0  0  0  0  0  0  0  0  0
  139.3000   69.6280  226.2510 C   0  0  0  0  0  0  0  0  0  0  0  0
  139.5230   70.6240  225.2850 C   0  0  0  0  0  0  0  0  0  0  0  0
  138.7210   70.6380  224.0080 C   0  0  0  0  0  0  0  0  0  0  0  0
  139.5660   71.1120  222.8190 C   0  0  0  0  0  0  0  0  0  0  0  0
  139.4270   72.5530  222.6060 N   0  0  0  0  0  0  0  0  0  0  0  0
  140.4550   73.3520  222.0020 C   0  0  0  0  0  0  0  0  0  0  0  0
  141.5340   72.7390  221.3590 C   0  0  0  0  0  0  0  0  0  0  0  0
  142.5140   73.5470  220.7680 C   0  0  0  0  0  0  0  0  0  0  0  0
  143.6320   72.9720  220.0660 N   0  0  0  0  0  0  0  0  0  0  0  0
  144.8720   72.6940  220.8010 C   0  0  0  0  0  0  0  0  0  0  0  0
  145.9930   72.2780  219.8400 C   0  0  0  0  0  0  0  0  0  0  0  0
  145.9570   73.1010  218.6250 N   0  0  0  0  0  0  0  0  0  0  0  0
  144.7210   72.8990  217.8410 C   0  0  0  0  0  0  0  0  0  0  0  0
  143.5020   72.4790  218.6880 C   0  0  0  0  0  0  0  0  0  0  0  0
  142.3760   74.9000  220.8160 N   0  0  0  0  0  0  0  0  0  0  0  0
  141.3240   75.4890  221.4470 C   0  0  0  0  0  0  0  0  0  0  0  0
  141.2130   76.9270  221.4810 N   0  0  0  0  0  0  0  0  0  0  0  0
  140.7050   77.6170  222.6770 C   0  0  0  0  0  0  0  0  0  0  0  0
  141.4390   78.9550  222.9190 C   0  0  0  0  0  0  0  0  0  0  0  0
  141.9900   79.5820  221.7020 N   0  0  0  0  0  0  0  0  0  0  0  0
  141.2640   79.1930  220.4900 C   0  0  0  0  0  0  0  0  0  0  0  0
  141.4190   77.6900  220.2420 C   0  0  0  0  0  0  0  0  0  0  0  0
  140.3790   74.7090  222.0340 N   0  0  0  0  0  0  0  0  0  0  0  0
  140.5330   71.5750  225.4980 C   0  0  0  0  0  0  0  0  0  0  0  0
  141.2970   71.5420  226.6680 C   0  0  0  0  0  0  0  0  0  0  0  0
  141.6635   70.5291  228.5503 H   0  0  0  0  0  0  0  0  0  0  0  0
  139.8878   68.8165  228.1749 H   0  0  0  0  0  0  0  0  0  0  0  0
  138.5189   68.8709  226.0875 H   0  0  0  0  0  0  0  0  0  0  0  0
  138.3558   69.6206  223.8040 H   0  0  0  0  0  0  0  0  0  0  0  0
  137.8813   71.3371  224.1353 H   0  0  0  0  0  0  0  0  0  0  0  0
  140.6230   70.8796  223.0159 H   0  0  0  0  0  0  0  0  0  0  0  0
  139.2140   70.5929  221.9153 H   0  0  0  0  0  0  0  0  0  0  0  0
  138.5370   73.0100  222.9060 H   0  0  0  0  0  0  0  0  0  0  0  0
  141.6122   71.6426  221.3177 H   0  0  0  0  0  0  0  0  0  0  0  0
  145.1801   73.5996  221.3441 H   0  0  0  0  0  0  0  0  0  0  0  0
  144.6872   71.8695  221.5053 H   0  0  0  0  0  0  0  0  0  0  0  0
  146.9649   72.4095  220.3382 H   0  0  0  0  0  0  0  0  0  0  0  0
  145.8509   71.2235  219.5611 H   0  0  0  0  0  0  0  0  0  0  0  0
  146.0170   74.1090  218.9060 H   0  0  0  0  0  0  0  0  0  0  0  0
  144.4781   73.8419  217.3292 H   0  0  0  0  0  0  0  0  0  0  0  0
  144.9201   72.0753  217.1397 H   0  0  0  0  0  0  0  0  0  0  0  0
  142.5891   72.8977  218.2394 H   0  0  0  0  0  0  0  0  0  0  0  0
  143.4478   71.3805  218.7092 H   0  0  0  0  0  0  0  0  0  0  0  0
  139.6318   77.8180  222.5439 H   0  0  0  0  0  0  0  0  0  0  0  0
  140.8790   76.9677  223.5477 H   0  0  0  0  0  0  0  0  0  0  0  0
  140.7277   79.6589  223.3757 H   0  0  0  0  0  0  0  0  0  0  0  0
  142.2972   78.7270  223.5682 H   0  0  0  0  0  0  0  0  0  0  0  0
  142.9910   79.2940  221.5960 H   0  0  0  0  0  0  0  0  0  0  0  0
  140.1975   79.4333  220.6121 H   0  0  0  0  0  0  0  0  0  0  0  0
  141.6764   79.7435  219.6316 H   0  0  0  0  0  0  0  0  0  0  0  0
  140.6772   77.3704  219.4953 H   0  0  0  0  0  0  0  0  0  0  0  0
  142.4394   77.4985  219.8785 H   0  0  0  0  0  0  0  0  0  0  0  0
  140.7242   72.3497  224.7408 H   0  0  0  0  0  0  0  0  0  0  0  0
  142.0826   72.2941  226.8331 H   0  0  0  0  0  0  0  0  0  0  0  0
  1  2  2  0
  2  3  1  0
  3  4  2  0
  4  5  1  0
  5  6  1  0
  6  7  1  0
  7  8  1  0
  8  9  2  0
  9 10  1  0
 10 11  1  0
 11 12  1  0
 12 13  1  0
 13 14  1  0
 14 15  1  0
 15 16  1  0
 10 17  2  0
 17 18  1  0
 18 19  1  0
 19 20  1  0
 20 21  1  0
 21 22  1  0
 22 23  1  0
 23 24  1  0
 18 25  2  0
  4 26  1  0
 26 27  2  0
 27  1  1  0
 25  8  1  0
 16 11  1  0
 24 19  1  0
  1 28  1  0
  2 29  1  0
  3 30  1  0
  5 31  1  0
  5 32  1  0
  6 33  1  0
  6 34  1  0
  7 35  1  0
  9 36  1  0
 12 37  1  0
 12 38  1  0
 13 39  1  0
 13 40  1  0
 14 41  1  0
 15 42  1  0
 15 43  1  0
 16 44  1  0
 16 45  1  0
 20 46  1  0
 20 47  1  0
 21 48  1  0
 21 49  1  0
 22 50  1  0
 23 51  1  0
 23 52  1  0
 24 53  1  0
 24 54  1  0
 26 55  1  0
 27 56  1  0
M  END
>  <UniqueID>  (40) 
519

>  <SMILES>  (40) 
c1ccc(CCNc2cc(N3CCNCC3)nc(N3CCNCC3)n2)cc1

>  <Energy>  (40) 
62.81689782955762

>  <Genealogy>  (40) 
c1ccc(CCNc2cc(N3CCNCC3)nc(N3CCNCC3)n2)cc1 (3D coordinates assigned)
c1ccc(CCNc2cc(N3CCNCC3)nc(N3CCNCC3)n2)cc1 (nonaromatic ring conformer: 62.81689782955762 kcal/mol)

>  <smiles>  (40) 
c1ccc(CCNc2cc(N3CCNCC3)nc(N3CCNCC3)n2)cc1

>  <score_type>  (40) 
oracle

>  <origin>  (40) 
autodockgpu

>  <m_score__min__energy>  (40) 
-9.2300000000000004

>  <m_primary>  (40) 
energy

>  <meeko>  (40) 
{"free_energy": -8.99, "intermolecular_energy": -10.77, "internal_energy": -0.88, "cluster_size": 19, "cluster_id": 1, "rank_in_cluster": 11}

>  <energy>  (40) 
-8.26

>  <cluster_rmsd>  (40) 
0.0

>  <rmsd>  (40) 
270.77

>  <cluster>  (40) 
2

$$$$
USJHBUDYBBTILB-MPIMZMORNA-N
     RDKit          3D

 56 59  0  0  0  0  0  0  0  0999 V2000
  140.0400   70.5520  228.2420 C   0  0  0  0  0  0  0  0  0  0  0  0
  139.5920   69.6340  227.2890 C   0  0  0  0  0  0  0  0  0  0  0  0
  139.8600   69.8460  225.9330 C   0  0  0  0  0  0  0  0  0  0  0  0
  140.5750   70.9830  225.5210 C   0  0  0  0  0  0  0  0  0  0  0  0
  140.8960   71.1940  224.0630 C   0  0  0  0  0  0  0  0  0  0  0  0
  139.6210   71.2670  223.2130 C   0  0  0  0  0  0  0  0  0  0  0  0
  139.3940   72.6210  222.7070 N   0  0  0  0  0  0  0  0  0  0  0  0
  140.4250   73.4000  222.0820 C   0  0  0  0  0  0  0  0  0  0  0  0
  141.4930   72.7660  221.4410 C   0  0  0  0  0  0  0  0  0  0  0  0
  142.4760   73.5540  220.8290 C   0  0  0  0  0  0  0  0  0  0  0  0
  143.5830   72.9560  220.1280 N   0  0  0  0  0  0  0  0  0  0  0  0
  144.8410   72.7210  220.8470 C   0  0  0  0  0  0  0  0  0  0  0  0
  145.9440   72.2710  219.8800 C   0  0  0  0  0  0  0  0  0  0  0  0
  145.8730   73.0380  218.6300 N   0  0  0  0  0  0  0  0  0  0  0  0
  144.6230   72.7920  217.8840 C   0  0  0  0  0  0  0  0  0  0  0  0
  143.4260   72.4020  218.7770 C   0  0  0  0  0  0  0  0  0  0  0  0
  142.3510   74.9090  220.8550 N   0  0  0  0  0  0  0  0  0  0  0  0
  141.3100   75.5190  221.4850 C   0  0  0  0  0  0  0  0  0  0  0  0
  141.2130   76.9580  221.4950 N   0  0  0  0  0  0  0  0  0  0  0  0
  140.7090   77.6720  222.6790 C   0  0  0  0  0  0  0  0  0  0  0  0
  141.4550   79.0070  222.9020 C   0  0  0  0  0  0  0  0  0  0  0  0
  142.0160   79.6080  221.6760 N   0  0  0  0  0  0  0  0  0  0  0  0
  141.2880   79.2080  220.4680 C   0  0  0  0  0  0  0  0  0  0  0  0
  141.4300   77.6990  220.2460 C   0  0  0  0  0  0  0  0  0  0  0  0
  140.3620   74.7580  222.0920 N   0  0  0  0  0  0  0  0  0  0  0  0
  141.0320   71.8950  226.4870 C   0  0  0  0  0  0  0  0  0  0  0  0
  140.7610   71.6810  227.8420 C   0  0  0  0  0  0  0  0  0  0  0  0
  139.8253   70.3864  229.3081 H   0  0  0  0  0  0  0  0  0  0  0  0
  139.0282   68.7440  227.6054 H   0  0  0  0  0  0  0  0  0  0  0  0
  139.5094   69.1192  225.1855 H   0  0  0  0  0  0  0  0  0  0  0  0
  141.4542   72.1354  223.9522 H   0  0  0  0  0  0  0  0  0  0  0  0
  141.4958   70.3406  223.7140 H   0  0  0  0  0  0  0  0  0  0  0  0
  139.7189   70.5782  222.3610 H   0  0  0  0  0  0  0  0  0  0  0  0
  138.7663   70.9859  223.8458 H   0  0  0  0  0  0  0  0  0  0  0  0
  138.4370   73.0290  222.8070 H   0  0  0  0  0  0  0  0  0  0  0  0
  141.5603   71.6683  221.4176 H   0  0  0  0  0  0  0  0  0  0  0  0
  145.1531   73.6524  221.3421 H   0  0  0  0  0  0  0  0  0  0  0  0
  144.6792   71.9278  221.5918 H   0  0  0  0  0  0  0  0  0  0  0  0
  146.9256   72.4328  220.3493 H   0  0  0  0  0  0  0  0  0  0  0  0
  145.8053   71.2038  219.6522 H   0  0  0  0  0  0  0  0  0  0  0  0
  145.9320   74.0580  218.8650 H   0  0  0  0  0  0  0  0  0  0  0  0
  144.3612   73.7089  217.3355 H   0  0  0  0  0  0  0  0  0  0  0  0
  144.8133   71.9390  217.2161 H   0  0  0  0  0  0  0  0  0  0  0  0
  142.5001   72.7946  218.3313 H   0  0  0  0  0  0  0  0  0  0  0  0
  143.3807   71.3052  218.8480 H   0  0  0  0  0  0  0  0  0  0  0  0
  139.6380   77.8810  222.5401 H   0  0  0  0  0  0  0  0  0  0  0  0
  140.8753   77.0349  223.5602 H   0  0  0  0  0  0  0  0  0  0  0  0
  140.7490   79.7252  223.3444 H   0  0  0  0  0  0  0  0  0  0  0  0
  142.3085   78.7821  223.5585 H   0  0  0  0  0  0  0  0  0  0  0  0
  143.0140   79.3100  221.5780 H   0  0  0  0  0  0  0  0  0  0  0  0
  140.2237   79.4606  220.5838 H   0  0  0  0  0  0  0  0  0  0  0  0
  141.7060   79.7413  219.6014 H   0  0  0  0  0  0  0  0  0  0  0  0
  140.6879   77.3740  219.5019 H   0  0  0  0  0  0  0  0  0  0  0  0
  142.4502   77.4928  219.8903 H   0  0  0  0  0  0  0  0  0  0  0  0
  141.6052   72.7809  226.1762 H   0  0  0  0  0  0  0  0  0  0  0  0
  141.1154   72.4016  228.5938 H   0  0  0  0  0  0  0  0  0  0  0  0
  1  2  2  0
  2  3  1  0
  3  4  2  0
  4  5  1  0
  5  6  1  0
  6  7  1  0
  7  8  1  0
  8  9  2  0
  9 10  1  0
 10 11  1  0
 11 12  1  0
 12 13  1  0
 13 14  1  0
 14 15  1  0
 15 16  1  0
 10 17  2  0
 17 18  1  0
 18 19  1  0
 19 20  1  0
 20 21  1  0
 21 22  1  0
 22 23  1  0
 23 24  1  0
 18 25  2  0
  4 26  1  0
 26 27  2  0
 27  1  1  0
 25  8  1  0
 16 11  1  0
 24 19  1  0
  1 28  1  0
  2 29  1  0
  3 30  1  0
  5 31  1  0
  5 32  1  0
  6 33  1  0
  6 34  1  0
  7 35  1  0
  9 36  1  0
 12 37  1  0
 12 38  1  0
 13 39  1  0
 13 40  1  0
 14 41  1  0
 15 42  1  0
 15 43  1  0
 16 44  1  0
 16 45  1  0
 20 46  1  0
 20 47  1  0
 21 48  1  0
 21 49  1  0
 22 50  1  0
 23 51  1  0
 23 52  1  0
 24 53  1  0
 24 54  1  0
 26 55  1  0
 27 56  1  0
M  END
>  <UniqueID>  (41) 
520

>  <SMILES>  (41) 
c1ccc(CCNc2cc(N3CCNCC3)nc(N3CCNCC3)n2)cc1

>  <Energy>  (41) 
64.19033298564075

>  <Genealogy>  (41) 
c1ccc(CCNc2cc(N3CCNCC3)nc(N3CCNCC3)n2)cc1 (3D coordinates assigned)
c1ccc(CCNc2cc(N3CCNCC3)nc(N3CCNCC3)n2)cc1 (nonaromatic ring conformer: 64.19033298564075 kcal/mol)

>  <smiles>  (41) 
c1ccc(CCNc2cc(N3CCNCC3)nc(N3CCNCC3)n2)cc1

>  <score_type>  (41) 
oracle

>  <origin>  (41) 
autodockgpu

>  <m_score__min__energy>  (41) 
-9.2300000000000004

>  <m_primary>  (41) 
energy

>  <meeko>  (41) 
{"free_energy": -9.2, "intermolecular_energy": -10.99, "internal_energy": -0.83, "cluster_size": 19, "cluster_id": 1, "rank_in_cluster": 4}

>  <energy>  (41) 
-9.23

>  <cluster_rmsd>  (41) 
0.0

>  <rmsd>  (41) 
271.08

>  <cluster>  (41) 
1

$$$$
USJHBUDYBBTILB-MPIMZMORNA-N
     RDKit          3D

 56 59  0  0  0  0  0  0  0  0999 V2000
  140.0280   70.4020  228.2840 C   0  0  0  0  0  0  0  0  0  0  0  0
  139.5820   69.5550  227.2680 C   0  0  0  0  0  0  0  0  0  0  0  0
  139.8510   69.8630  225.9300 C   0  0  0  0  0  0  0  0  0  0  0  0
  140.5670   71.0270  225.6020 C   0  0  0  0  0  0  0  0  0  0  0  0
  140.8890   71.3420  224.1630 C   0  0  0  0  0  0  0  0  0  0  0  0
  139.6270   71.3350  223.2900 C   0  0  0  0  0  0  0  0  0  0  0  0
  139.3870   72.6470  222.6900 N   0  0  0  0  0  0  0  0  0  0  0  0
  140.4250   73.4200  222.0700 C   0  0  0  0  0  0  0  0  0  0  0  0
  141.4930   72.7790  221.4340 C   0  0  0  0  0  0  0  0  0  0  0  0
  142.4840   73.5620  220.8270 C   0  0  0  0  0  0  0  0  0  0  0  0
  143.5910   72.9570  220.1320 N   0  0  0  0  0  0  0  0  0  0  0  0
  144.8400   72.7040  220.8600 C   0  0  0  0  0  0  0  0  0  0  0  0
  145.9470   72.2490  219.9000 C   0  0  0  0  0  0  0  0  0  0  0  0
  145.8950   73.0260  218.6550 N   0  0  0  0  0  0  0  0  0  0  0  0
  144.6480   72.7970  217.8960 C   0  0  0  0  0  0  0  0  0  0  0  0
  143.4400   72.4130  218.7760 C   0  0  0  0  0  0  0  0  0  0  0  0
  142.3660   74.9170  220.8520 N   0  0  0  0  0  0  0  0  0  0  0  0
  141.3250   75.5330  221.4760 C   0  0  0  0  0  0  0  0  0  0  0  0
  141.2360   76.9730  221.4850 N   0  0  0  0  0  0  0  0  0  0  0  0
  140.7050   77.6890  222.6550 C   0  0  0  0  0  0  0  0  0  0  0  0
  141.4530   79.0190  222.8990 C   0  0  0  0  0  0  0  0  0  0  0  0
  142.0490   79.6180  221.6900 N   0  0  0  0  0  0  0  0  0  0  0  0
  141.3520   79.2230  220.4630 C   0  0  0  0  0  0  0  0  0  0  0  0
  141.4910   77.7130  220.2420 C   0  0  0  0  0  0  0  0  0  0  0  0
  140.3700   74.7780  222.0780 N   0  0  0  0  0  0  0  0  0  0  0  0
  141.0220   71.8680  226.6310 C   0  0  0  0  0  0  0  0  0  0  0  0
  140.7490   71.5580  227.9670 C   0  0  0  0  0  0  0  0  0  0  0  0
  139.8122   70.1601  229.3352 H   0  0  0  0  0  0  0  0  0  0  0  0
  139.0185   68.6444  227.5196 H   0  0  0  0  0  0  0  0  0  0  0  0
  139.5009   69.1918  225.1320 H   0  0  0  0  0  0  0  0  0  0  0  0
  141.3545   72.3373  224.1104 H   0  0  0  0  0  0  0  0  0  0  0  0
  141.5743   70.5689  223.7854 H   0  0  0  0  0  0  0  0  0  0  0  0
  139.7502   70.5918  222.4884 H   0  0  0  0  0  0  0  0  0  0  0  0
  138.7664   71.0825  223.9269 H   0  0  0  0  0  0  0  0  0  0  0  0
  138.4140   73.0280  222.7150 H   0  0  0  0  0  0  0  0  0  0  0  0
  141.5539   71.6809  221.4107 H   0  0  0  0  0  0  0  0  0  0  0  0
  145.1573   73.6287  221.3642 H   0  0  0  0  0  0  0  0  0  0  0  0
  144.6632   71.9073  221.5976 H   0  0  0  0  0  0  0  0  0  0  0  0
  146.9260   72.3971  220.3792 H   0  0  0  0  0  0  0  0  0  0  0  0
  145.7995   71.1849  219.6634 H   0  0  0  0  0  0  0  0  0  0  0  0
  145.9610   74.0430  218.8960 H   0  0  0  0  0  0  0  0  0  0  0  0
  144.3999   73.7200  217.3514 H   0  0  0  0  0  0  0  0  0  0  0  0
  144.8357   71.9466  217.2240 H   0  0  0  0  0  0  0  0  0  0  0  0
  142.5218   72.8174  218.3250 H   0  0  0  0  0  0  0  0  0  0  0  0
  143.3834   71.3163  218.8395 H   0  0  0  0  0  0  0  0  0  0  0  0
  139.6395   77.9048  222.4875 H   0  0  0  0  0  0  0  0  0  0  0  0
  140.8435   77.0503  223.5398 H   0  0  0  0  0  0  0  0  0  0  0  0
  140.7400   79.7409  223.3240 H   0  0  0  0  0  0  0  0  0  0  0  0
  142.2879   78.7878  223.5769 H   0  0  0  0  0  0  0  0  0  0  0  0
  143.0480   79.3140  221.6180 H   0  0  0  0  0  0  0  0  0  0  0  0
  140.2864   79.4814  220.5505 H   0  0  0  0  0  0  0  0  0  0  0  0
  141.7969   79.7546  219.6089 H   0  0  0  0  0  0  0  0  0  0  0  0
  140.7670   77.3932  219.4781 H   0  0  0  0  0  0  0  0  0  0  0  0
  142.5187   77.5004  219.9123 H   0  0  0  0  0  0  0  0  0  0  0  0
  141.5953   72.7740  226.3849 H   0  0  0  0  0  0  0  0  0  0  0  0
  141.1013   72.2234  228.7689 H   0  0  0  0  0  0  0  0  0  0  0  0
  1  2  2  0
  2  3  1  0
  3  4  2  0
  4  5  1  0
  5  6  1  0
  6  7  1  0
  7  8  1  0
  8  9  2  0
  9 10  1  0
 10 11  1  0
 11 12  1  0
 12 13  1  0
 13 14  1  0
 14 15  1  0
 15 16  1  0
 10 17  2  0
 17 18  1  0
 18 19  1  0
 19 20  1  0
 20 21  1  0
 21 22  1  0
 22 23  1  0
 23 24  1  0
 18 25  2  0
  4 26  1  0
 26 27  2  0
 27  1  1  0
 25  8  1  0
 16 11  1  0
 24 19  1  0
  1 28  1  0
  2 29  1  0
  3 30  1  0
  5 31  1  0
  5 32  1  0
  6 33  1  0
  6 34  1  0
  7 35  1  0
  9 36  1  0
 12 37  1  0
 12 38  1  0
 13 39  1  0
 13 40  1  0
 14 41  1  0
 15 42  1  0
 15 43  1  0
 16 44  1  0
 16 45  1  0
 20 46  1  0
 20 47  1  0
 21 48  1  0
 21 49  1  0
 22 50  1  0
 23 51  1  0
 23 52  1  0
 24 53  1  0
 24 54  1  0
 26 55  1  0
 27 56  1  0
M  END
>  <UniqueID>  (42) 
520

>  <SMILES>  (42) 
c1ccc(CCNc2cc(N3CCNCC3)nc(N3CCNCC3)n2)cc1

>  <Energy>  (42) 
64.19033298564075

>  <Genealogy>  (42) 
c1ccc(CCNc2cc(N3CCNCC3)nc(N3CCNCC3)n2)cc1 (3D coordinates assigned)
c1ccc(CCNc2cc(N3CCNCC3)nc(N3CCNCC3)n2)cc1 (nonaromatic ring conformer: 64.19033298564075 kcal/mol)

>  <smiles>  (42) 
c1ccc(CCNc2cc(N3CCNCC3)nc(N3CCNCC3)n2)cc1

>  <score_type>  (42) 
oracle

>  <origin>  (42) 
autodockgpu

>  <m_score__min__energy>  (42) 
-9.2300000000000004

>  <m_primary>  (42) 
energy

>  <meeko>  (42) 
{"free_energy": -9.23, "intermolecular_energy": -11.02, "internal_energy": -0.83, "cluster_size": 19, "cluster_id": 1, "rank_in_cluster": 2}

>  <energy>  (42) 
-9.23

>  <cluster_rmsd>  (42) 
0.02

>  <rmsd>  (42) 
271.07

>  <cluster>  (42) 
1

$$$$
USJHBUDYBBTILB-MPIMZMORNA-N
     RDKit          3D

 56 59  0  0  0  0  0  0  0  0999 V2000
  140.9660   70.5880  227.4960 C   0  0  0  0  0  0  0  0  0  0  0  0
  139.9540   69.6430  227.3190 C   0  0  0  0  0  0  0  0  0  0  0  0
  139.1980   69.6370  226.1430 C   0  0  0  0  0  0  0  0  0  0  0  0
  139.4490   70.5840  225.1350 C   0  0  0  0  0  0  0  0  0  0  0  0
  138.6590   70.5570  223.8510 C   0  0  0  0  0  0  0  0  0  0  0  0
  139.4960   71.0550  222.6660 C   0  0  0  0  0  0  0  0  0  0  0  0
  139.3920   72.5060  222.5120 N   0  0  0  0  0  0  0  0  0  0  0  0
  140.4520   73.3080  221.9680 C   0  0  0  0  0  0  0  0  0  0  0  0
  141.5810   72.6970  221.4160 C   0  0  0  0  0  0  0  0  0  0  0  0
  142.5920   73.5070  220.8810 C   0  0  0  0  0  0  0  0  0  0  0  0
  143.7640   72.9330  220.2720 N   0  0  0  0  0  0  0  0  0  0  0  0
  145.0560   73.0480  220.9590 C   0  0  0  0  0  0  0  0  0  0  0  0
  146.1970   72.5570  220.0590 C   0  0  0  0  0  0  0  0  0  0  0  0
  145.9880   73.0070  218.6770 N   0  0  0  0  0  0  0  0  0  0  0  0
  144.7760   72.4220  218.0680 C   0  0  0  0  0  0  0  0  0  0  0  0
  143.6690   72.0740  219.0850 C   0  0  0  0  0  0  0  0  0  0  0  0
  142.4350   74.8580  220.8930 N   0  0  0  0  0  0  0  0  0  0  0  0
  141.3340   75.4450  221.4370 C   0  0  0  0  0  0  0  0  0  0  0  0
  141.2040   76.8820  221.4350 N   0  0  0  0  0  0  0  0  0  0  0  0
  140.6650   77.5920  222.6050 C   0  0  0  0  0  0  0  0  0  0  0  0
  141.3770   78.9450  222.8310 C   0  0  0  0  0  0  0  0  0  0  0  0
  141.9440   79.5510  221.6100 N   0  0  0  0  0  0  0  0  0  0  0  0
  141.2460   79.1250  220.3930 C   0  0  0  0  0  0  0  0  0  0  0  0
  141.4250   77.6190  220.1840 C   0  0  0  0  0  0  0  0  0  0  0  0
  140.3580   74.6640  221.9690 N   0  0  0  0  0  0  0  0  0  0  0  0
  140.4760   71.5250  225.3160 C   0  0  0  0  0  0  0  0  0  0  0  0
  141.2280   71.5290  226.4950 C   0  0  0  0  0  0  0  0  0  0  0  0
  141.5578   70.5926  228.4233 H   0  0  0  0  0  0  0  0  0  0  0  0
  139.7510   68.9018  228.1061 H   0  0  0  0  0  0  0  0  0  0  0  0
  138.4038   68.8884  226.0060 H   0  0  0  0  0  0  0  0  0  0  0  0
  138.3359   69.5246  223.6517 H   0  0  0  0  0  0  0  0  0  0  0  0
  137.7914   71.2235  223.9653 H   0  0  0  0  0  0  0  0  0  0  0  0
  140.5496   70.7875  222.8344 H   0  0  0  0  0  0  0  0  0  0  0  0
  139.1149   70.5812  221.7493 H   0  0  0  0  0  0  0  0  0  0  0  0
  138.5050   72.9700  222.8100 H   0  0  0  0  0  0  0  0  0  0  0  0
  141.6745   71.6011  221.4016 H   0  0  0  0  0  0  0  0  0  0  0  0
  145.2320   74.1015  221.2221 H   0  0  0  0  0  0  0  0  0  0  0  0
  145.0297   72.4261  221.8659 H   0  0  0  0  0  0  0  0  0  0  0  0
  147.1509   72.9593  220.4309 H   0  0  0  0  0  0  0  0  0  0  0  0
  146.2181   71.4574  220.0771 H   0  0  0  0  0  0  0  0  0  0  0  0
  145.8950   74.0510  218.6790 H   0  0  0  0  0  0  0  0  0  0  0  0
  144.3680   73.1449  217.3462 H   0  0  0  0  0  0  0  0  0  0  0  0
  145.0817   71.4775  217.5942 H   0  0  0  0  0  0  0  0  0  0  0  0
  142.6863   72.2190  218.6124 H   0  0  0  0  0  0  0  0  0  0  0  0
  143.7926   71.0263  219.3966 H   0  0  0  0  0  0  0  0  0  0  0  0
  139.5920   77.7759  222.4472 H   0  0  0  0  0  0  0  0  0  0  0  0
  140.8312   76.9647  223.4932 H   0  0  0  0  0  0  0  0  0  0  0  0
  140.6479   79.6497  223.2574 H   0  0  0  0  0  0  0  0  0  0  0  0
  142.2247   78.7436  223.5024 H   0  0  0  0  0  0  0  0  0  0  0  0
  142.9500   79.2740  221.5300 H   0  0  0  0  0  0  0  0  0  0  0  0
  140.1744   79.3542  220.4890 H   0  0  0  0  0  0  0  0  0  0  0  0
  141.6674   79.6610  219.5298 H   0  0  0  0  0  0  0  0  0  0  0  0
  140.7026   77.2724  219.4304 H   0  0  0  0  0  0  0  0  0  0  0  0
  142.4552   77.4330  219.8461 H   0  0  0  0  0  0  0  0  0  0  0  0
  140.6895   72.2615  224.5274 H   0  0  0  0  0  0  0  0  0  0  0  0
  142.0262   72.2728  226.6352 H   0  0  0  0  0  0  0  0  0  0  0  0
  1  2  2  0
  2  3  1  0
  3  4  2  0
  4  5  1  0
  5  6  1  0
  6  7  1  0
  7  8  1  0
  8  9  2  0
  9 10  1  0
 10 11  1  0
 11 12  1  0
 12 13  1  0
 13 14  1  0
 14 15  1  0
 15 16  1  0
 10 17  2  0
 17 18  1  0
 18 19  1  0
 19 20  1  0
 20 21  1  0
 21 22  1  0
 22 23  1  0
 23 24  1  0
 18 25  2  0
  4 26  1  0
 26 27  2  0
 27  1  1  0
 25  8  1  0
 16 11  1  0
 24 19  1  0
  1 28  1  0
  2 29  1  0
  3 30  1  0
  5 31  1  0
  5 32  1  0
  6 33  1  0
  6 34  1  0
  7 35  1  0
  9 36  1  0
 12 37  1  0
 12 38  1  0
 13 39  1  0
 13 40  1  0
 14 41  1  0
 15 42  1  0
 15 43  1  0
 16 44  1  0
 16 45  1  0
 20 46  1  0
 20 47  1  0
 21 48  1  0
 21 49  1  0
 22 50  1  0
 23 51  1  0
 23 52  1  0
 24 53  1  0
 24 54  1  0
 26 55  1  0
 27 56  1  0
M  END
>  <UniqueID>  (43) 
520

>  <SMILES>  (43) 
c1ccc(CCNc2cc(N3CCNCC3)nc(N3CCNCC3)n2)cc1

>  <Energy>  (43) 
64.19033298564075

>  <Genealogy>  (43) 
c1ccc(CCNc2cc(N3CCNCC3)nc(N3CCNCC3)n2)cc1 (3D coordinates assigned)
c1ccc(CCNc2cc(N3CCNCC3)nc(N3CCNCC3)n2)cc1 (nonaromatic ring conformer: 64.19033298564075 kcal/mol)

>  <smiles>  (43) 
c1ccc(CCNc2cc(N3CCNCC3)nc(N3CCNCC3)n2)cc1

>  <score_type>  (43) 
oracle

>  <origin>  (43) 
autodockgpu

>  <m_score__min__energy>  (43) 
-9.2300000000000004

>  <m_primary>  (43) 
energy

>  <meeko>  (43) 
{"free_energy": -8.94, "intermolecular_energy": -10.73, "internal_energy": -0.9, "cluster_size": 19, "cluster_id": 1, "rank_in_cluster": 13}

>  <energy>  (43) 
-9.21

>  <cluster_rmsd>  (43) 
0.06

>  <rmsd>  (43) 
271.06

>  <cluster>  (43) 
1

$$$$
USJHBUDYBBTILB-MPIMZMORNA-N
     RDKit          3D

 56 59  0  0  0  0  0  0  0  0999 V2000
  141.0520   70.9880  227.7460 C   0  0  0  0  0  0  0  0  0  0  0  0
  140.0950   69.9790  227.6140 C   0  0  0  0  0  0  0  0  0  0  0  0
  139.3590   69.8630  226.4300 C   0  0  0  0  0  0  0  0  0  0  0  0
  139.5730   70.7630  225.3720 C   0  0  0  0  0  0  0  0  0  0  0  0
  138.8050   70.6180  224.0820 C   0  0  0  0  0  0  0  0  0  0  0  0
  139.6240   71.1130  222.8830 C   0  0  0  0  0  0  0  0  0  0  0  0
  139.4820   72.5570  222.7000 N   0  0  0  0  0  0  0  0  0  0  0  0
  140.4870   73.3620  222.0650 C   0  0  0  0  0  0  0  0  0  0  0  0
  141.5520   72.7550  221.3940 C   0  0  0  0  0  0  0  0  0  0  0  0
  142.5090   73.5670  220.7720 C   0  0  0  0  0  0  0  0  0  0  0  0
  143.6110   72.9970  220.0410 N   0  0  0  0  0  0  0  0  0  0  0  0
  144.8410   72.6460  220.7600 C   0  0  0  0  0  0  0  0  0  0  0  0
  145.9520   72.2490  219.7780 C   0  0  0  0  0  0  0  0  0  0  0  0
  145.9400   73.1340  218.6070 N   0  0  0  0  0  0  0  0  0  0  0  0
  144.7000   73.0080  217.8140 C   0  0  0  0  0  0  0  0  0  0  0  0
  143.4680   72.5810  218.6390 C   0  0  0  0  0  0  0  0  0  0  0  0
  142.3620   74.9190  220.8180 N   0  0  0  0  0  0  0  0  0  0  0  0
  141.3240   75.5030  221.4770 C   0  0  0  0  0  0  0  0  0  0  0  0
  141.2030   76.9400  221.5090 N   0  0  0  0  0  0  0  0  0  0  0  0
  140.6800   77.6270  222.6990 C   0  0  0  0  0  0  0  0  0  0  0  0
  141.4030   78.9710  222.9470 C   0  0  0  0  0  0  0  0  0  0  0  0
  141.9610   79.6000  221.7350 N   0  0  0  0  0  0  0  0  0  0  0  0
  141.2480   79.2060  220.5160 C   0  0  0  0  0  0  0  0  0  0  0  0
  141.4160   77.7030  220.2720 C   0  0  0  0  0  0  0  0  0  0  0  0
  140.4020   74.7180  222.0940 N   0  0  0  0  0  0  0  0  0  0  0  0
  140.5450   71.7670  225.5090 C   0  0  0  0  0  0  0  0  0  0  0  0
  141.2780   71.8810  226.6940 C   0  0  0  0  0  0  0  0  0  0  0  0
  141.6283   71.0801  228.6784 H   0  0  0  0  0  0  0  0  0  0  0  0
  139.9201   69.2755  228.4413 H   0  0  0  0  0  0  0  0  0  0  0  0
  138.6098   69.0642  226.3267 H   0  0  0  0  0  0  0  0  0  0  0  0
  138.5557   69.5572  223.9314 H   0  0  0  0  0  0  0  0  0  0  0  0
  137.8923   71.2279  224.1526 H   0  0  0  0  0  0  0  0  0  0  0  0
  140.6848   70.8762  223.0518 H   0  0  0  0  0  0  0  0  0  0  0  0
  139.2514   70.6108  221.9780 H   0  0  0  0  0  0  0  0  0  0  0  0
  138.6090   73.0140  223.0480 H   0  0  0  0  0  0  0  0  0  0  0  0
  141.6373   71.6590  221.3550 H   0  0  0  0  0  0  0  0  0  0  0  0
  145.1738   73.5128  221.3498 H   0  0  0  0  0  0  0  0  0  0  0  0
  144.6319   71.7913  221.4201 H   0  0  0  0  0  0  0  0  0  0  0  0
  146.9265   72.3279  220.2820 H   0  0  0  0  0  0  0  0  0  0  0  0
  145.7813   71.2145  219.4453 H   0  0  0  0  0  0  0  0  0  0  0  0
  146.0290   74.1240  218.9400 H   0  0  0  0  0  0  0  0  0  0  0  0
  144.4852   73.9823  217.3507 H   0  0  0  0  0  0  0  0  0  0  0  0
  144.8761   72.2155  217.0717 H   0  0  0  0  0  0  0  0  0  0  0  0
  142.5685   73.0498  218.2134 H   0  0  0  0  0  0  0  0  0  0  0  0
  143.3813   71.4850  218.6028 H   0  0  0  0  0  0  0  0  0  0  0  0
  139.6067   77.8206  222.5560 H   0  0  0  0  0  0  0  0  0  0  0  0
  140.8507   76.9795  223.5717 H   0  0  0  0  0  0  0  0  0  0  0  0
  140.6826   79.6705  223.3962 H   0  0  0  0  0  0  0  0  0  0  0  0
  142.2564   78.7496  223.6049 H   0  0  0  0  0  0  0  0  0  0  0  0
  142.9650   79.3190  221.6380 H   0  0  0  0  0  0  0  0  0  0  0  0
  140.1789   79.4394  220.6280 H   0  0  0  0  0  0  0  0  0  0  0  0
  141.6635   79.7588  219.6606 H   0  0  0  0  0  0  0  0  0  0  0  0
  140.6840   77.3773  219.5183 H   0  0  0  0  0  0  0  0  0  0  0  0
  142.4415   77.5185  219.9196 H   0  0  0  0  0  0  0  0  0  0  0  0
  140.7305   72.4666  224.6807 H   0  0  0  0  0  0  0  0  0  0  0  0
  142.0332   72.6739  226.7989 H   0  0  0  0  0  0  0  0  0  0  0  0
  1  2  2  0
  2  3  1  0
  3  4  2  0
  4  5  1  0
  5  6  1  0
  6  7  1  0
  7  8  1  0
  8  9  2  0
  9 10  1  0
 10 11  1  0
 11 12  1  0
 12 13  1  0
 13 14  1  0
 14 15  1  0
 15 16  1  0
 10 17  2  0
 17 18  1  0
 18 19  1  0
 19 20  1  0
 20 21  1  0
 21 22  1  0
 22 23  1  0
 23 24  1  0
 18 25  2  0
  4 26  1  0
 26 27  2  0
 27  1  1  0
 25  8  1  0
 16 11  1  0
 24 19  1  0
  1 28  1  0
  2 29  1  0
  3 30  1  0
  5 31  1  0
  5 32  1  0
  6 33  1  0
  6 34  1  0
  7 35  1  0
  9 36  1  0
 12 37  1  0
 12 38  1  0
 13 39  1  0
 13 40  1  0
 14 41  1  0
 15 42  1  0
 15 43  1  0
 16 44  1  0
 16 45  1  0
 20 46  1  0
 20 47  1  0
 21 48  1  0
 21 49  1  0
 22 50  1  0
 23 51  1  0
 23 52  1  0
 24 53  1  0
 24 54  1  0
 26 55  1  0
 27 56  1  0
M  END
>  <UniqueID>  (44) 
520

>  <SMILES>  (44) 
c1ccc(CCNc2cc(N3CCNCC3)nc(N3CCNCC3)n2)cc1

>  <Energy>  (44) 
64.19033298564075

>  <Genealogy>  (44) 
c1ccc(CCNc2cc(N3CCNCC3)nc(N3CCNCC3)n2)cc1 (3D coordinates assigned)
c1ccc(CCNc2cc(N3CCNCC3)nc(N3CCNCC3)n2)cc1 (nonaromatic ring conformer: 64.19033298564075 kcal/mol)

>  <smiles>  (44) 
c1ccc(CCNc2cc(N3CCNCC3)nc(N3CCNCC3)n2)cc1

>  <score_type>  (44) 
oracle

>  <origin>  (44) 
autodockgpu

>  <m_score__min__energy>  (44) 
-9.2300000000000004

>  <m_primary>  (44) 
energy

>  <meeko>  (44) 
{"free_energy": -8.98, "intermolecular_energy": -10.77, "internal_energy": -0.89, "cluster_size": 19, "cluster_id": 1, "rank_in_cluster": 12}

>  <energy>  (44) 
-9.2

>  <cluster_rmsd>  (44) 
0.08

>  <rmsd>  (44) 
271.05

>  <cluster>  (44) 
1

$$$$
USJHBUDYBBTILB-MPIMZMORNA-N
     RDKit          3D

 56 59  0  0  0  0  0  0  0  0999 V2000
  141.0640   70.6020  227.6290 C   0  0  0  0  0  0  0  0  0  0  0  0
  141.3220   71.5400  226.6270 C   0  0  0  0  0  0  0  0  0  0  0  0
  140.5750   71.5260  225.4450 C   0  0  0  0  0  0  0  0  0  0  0  0
  139.5650   70.5660  225.2570 C   0  0  0  0  0  0  0  0  0  0  0  0
  138.7340   70.5720  223.9990 C   0  0  0  0  0  0  0  0  0  0  0  0
  139.5380   71.0850  222.7970 C   0  0  0  0  0  0  0  0  0  0  0  0
  139.4410   72.5390  222.6720 N   0  0  0  0  0  0  0  0  0  0  0  0
  140.4640   73.3350  222.0540 C   0  0  0  0  0  0  0  0  0  0  0  0
  141.5330   72.7190  221.3990 C   0  0  0  0  0  0  0  0  0  0  0  0
  142.5080   73.5240  220.7940 C   0  0  0  0  0  0  0  0  0  0  0  0
  143.6160   72.9440  220.0790 N   0  0  0  0  0  0  0  0  0  0  0  0
  144.8510   72.6300  220.8080 C   0  0  0  0  0  0  0  0  0  0  0  0
  145.9650   72.2160  219.8370 C   0  0  0  0  0  0  0  0  0  0  0  0
  145.9410   73.0650  218.6400 N   0  0  0  0  0  0  0  0  0  0  0  0
  144.7030   72.9010  217.8530 C   0  0  0  0  0  0  0  0  0  0  0  0
  143.4770   72.4840  218.6920 C   0  0  0  0  0  0  0  0  0  0  0  0
  142.3730   74.8770  220.8420 N   0  0  0  0  0  0  0  0  0  0  0  0
  141.3300   75.4690  221.4850 C   0  0  0  0  0  0  0  0  0  0  0  0
  141.2230   76.9070  221.5180 N   0  0  0  0  0  0  0  0  0  0  0  0
  140.7220   77.6000  222.7150 C   0  0  0  0  0  0  0  0  0  0  0  0
  141.4600   78.9370  222.9530 C   0  0  0  0  0  0  0  0  0  0  0  0
  142.0070   79.5610  221.7330 N   0  0  0  0  0  0  0  0  0  0  0  0
  141.2740   79.1720  220.5240 C   0  0  0  0  0  0  0  0  0  0  0  0
  141.4260   77.6680  220.2780 C   0  0  0  0  0  0  0  0  0  0  0  0
  140.3900   74.6920  222.0850 N   0  0  0  0  0  0  0  0  0  0  0  0
  139.3040   69.6340  226.2750 C   0  0  0  0  0  0  0  0  0  0  0  0
  140.0540   69.6500  227.4550 C   0  0  0  0  0  0  0  0  0  0  0  0
  141.6558   70.6118  228.5562 H   0  0  0  0  0  0  0  0  0  0  0  0
  142.1137   72.2906  226.7677 H   0  0  0  0  0  0  0  0  0  0  0  0
  140.7782   72.2687  224.6594 H   0  0  0  0  0  0  0  0  0  0  0  0
  138.3938   69.5470  223.7903 H   0  0  0  0  0  0  0  0  0  0  0  0
  137.8775   71.2446  224.1541 H   0  0  0  0  0  0  0  0  0  0  0  0
  140.5941   70.8066  222.9276 H   0  0  0  0  0  0  0  0  0  0  0  0
  139.1248   70.6306  221.8845 H   0  0  0  0  0  0  0  0  0  0  0  0
  138.5870   73.0100  223.0480 H   0  0  0  0  0  0  0  0  0  0  0  0
  141.6083   71.6223  221.3587 H   0  0  0  0  0  0  0  0  0  0  0  0
  145.1741   73.5186  221.3702 H   0  0  0  0  0  0  0  0  0  0  0  0
  144.6527   71.7942  221.4951 H   0  0  0  0  0  0  0  0  0  0  0  0
  146.9392   72.3213  220.3368 H   0  0  0  0  0  0  0  0  0  0  0  0
  145.8060   71.1699  219.5362 H   0  0  0  0  0  0  0  0  0  0  0  0
  146.0190   74.0660  218.9420 H   0  0  0  0  0  0  0  0  0  0  0  0
  144.4762   73.8585  217.3613 H   0  0  0  0  0  0  0  0  0  0  0  0
  144.8879   72.0892  217.1341 H   0  0  0  0  0  0  0  0  0  0  0  0
  142.5714   72.9283  218.2534 H   0  0  0  0  0  0  0  0  0  0  0  0
  143.4037   71.3864  218.6893 H   0  0  0  0  0  0  0  0  0  0  0  0
  139.6487   77.8034  222.5860 H   0  0  0  0  0  0  0  0  0  0  0  0
  140.8987   76.9513  223.5856 H   0  0  0  0  0  0  0  0  0  0  0  0
  140.7521   79.6429  223.4119 H   0  0  0  0  0  0  0  0  0  0  0  0
  142.3202   78.7081  223.5993 H   0  0  0  0  0  0  0  0  0  0  0  0
  143.0070   79.2710  221.6230 H   0  0  0  0  0  0  0  0  0  0  0  0
  140.2085   79.4142  220.6507 H   0  0  0  0  0  0  0  0  0  0  0  0
  141.6825   79.7210  219.6628 H   0  0  0  0  0  0  0  0  0  0  0  0
  140.6813   77.3484  219.5342 H   0  0  0  0  0  0  0  0  0  0  0  0
  142.4451   77.4747  219.9119 H   0  0  0  0  0  0  0  0  0  0  0  0
  138.5061   68.8883  226.1433 H   0  0  0  0  0  0  0  0  0  0  0  0
  139.8498   68.9139  228.2465 H   0  0  0  0  0  0  0  0  0  0  0  0
  1  2  2  0
  2  3  1  0
  3  4  2  0
  4  5  1  0
  5  6  1  0
  6  7  1  0
  7  8  1  0
  8  9  2  0
  9 10  1  0
 10 11  1  0
 11 12  1  0
 12 13  1  0
 13 14  1  0
 14 15  1  0
 15 16  1  0
 10 17  2  0
 17 18  1  0
 18 19  1  0
 19 20  1  0
 20 21  1  0
 21 22  1  0
 22 23  1  0
 23 24  1  0
 18 25  2  0
  4 26  1  0
 26 27  2  0
 27  1  1  0
 25  8  1  0
 16 11  1  0
 24 19  1  0
  1 28  1  0
  2 29  1  0
  3 30  1  0
  5 31  1  0
  5 32  1  0
  6 33  1  0
  6 34  1  0
  7 35  1  0
  9 36  1  0
 12 37  1  0
 12 38  1  0
 13 39  1  0
 13 40  1  0
 14 41  1  0
 15 42  1  0
 15 43  1  0
 16 44  1  0
 16 45  1  0
 20 46  1  0
 20 47  1  0
 21 48  1  0
 21 49  1  0
 22 50  1  0
 23 51  1  0
 23 52  1  0
 24 53  1  0
 24 54  1  0
 26 55  1  0
 27 56  1  0
M  END
>  <UniqueID>  (45) 
520

>  <SMILES>  (45) 
c1ccc(CCNc2cc(N3CCNCC3)nc(N3CCNCC3)n2)cc1

>  <Energy>  (45) 
64.19033298564075

>  <Genealogy>  (45) 
c1ccc(CCNc2cc(N3CCNCC3)nc(N3CCNCC3)n2)cc1 (3D coordinates assigned)
c1ccc(CCNc2cc(N3CCNCC3)nc(N3CCNCC3)n2)cc1 (nonaromatic ring conformer: 64.19033298564075 kcal/mol)

>  <smiles>  (45) 
c1ccc(CCNc2cc(N3CCNCC3)nc(N3CCNCC3)n2)cc1

>  <score_type>  (45) 
oracle

>  <origin>  (45) 
autodockgpu

>  <m_score__min__energy>  (45) 
-9.2300000000000004

>  <m_primary>  (45) 
energy

>  <meeko>  (45) 
{"free_energy": -9.01, "intermolecular_energy": -10.8, "internal_energy": -0.89, "cluster_size": 19, "cluster_id": 1, "rank_in_cluster": 9}

>  <energy>  (45) 
-9.18

>  <cluster_rmsd>  (45) 
0.1

>  <rmsd>  (45) 
271.02

>  <cluster>  (45) 
1

$$$$
USJHBUDYBBTILB-MPIMZMORNA-N
     RDKit          3D

 56 59  0  0  0  0  0  0  0  0999 V2000
  142.2920   81.3100  223.3930 C   0  0  0  0  0  0  0  0  0  0  0  0
  142.5180   80.0190  223.8740 C   0  0  0  0  0  0  0  0  0  0  0  0
  141.5620   79.0190  223.6740 C   0  0  0  0  0  0  0  0  0  0  0  0
  140.3670   79.3090  222.9930 C   0  0  0  0  0  0  0  0  0  0  0  0
  139.3500   78.2230  222.7450 C   0  0  0  0  0  0  0  0  0  0  0  0
  139.7010   77.3990  221.5000 C   0  0  0  0  0  0  0  0  0  0  0  0
  141.0280   76.7960  221.6160 N   0  0  0  0  0  0  0  0  0  0  0  0
  141.2510   75.3810  221.5110 C   0  0  0  0  0  0  0  0  0  0  0  0
  142.4180   74.8970  220.9130 C   0  0  0  0  0  0  0  0  0  0  0  0
  142.6120   73.5120  220.8370 C   0  0  0  0  0  0  0  0  0  0  0  0
  143.8090   72.9560  220.2600 N   0  0  0  0  0  0  0  0  0  0  0  0
  145.0830   73.1080  220.9710 C   0  0  0  0  0  0  0  0  0  0  0  0
  146.2530   72.6310  220.1000 C   0  0  0  0  0  0  0  0  0  0  0  0
  146.0620   73.0580  218.7090 N   0  0  0  0  0  0  0  0  0  0  0  0
  144.8760   72.4390  218.0840 C   0  0  0  0  0  0  0  0  0  0  0  0
  143.7560   72.0790  219.0820 C   0  0  0  0  0  0  0  0  0  0  0  0
  141.6740   72.6810  221.3680 N   0  0  0  0  0  0  0  0  0  0  0  0
  140.5390   73.1600  221.9450 C   0  0  0  0  0  0  0  0  0  0  0  0
  139.5640   72.2490  222.4930 N   0  0  0  0  0  0  0  0  0  0  0  0
  139.9690   71.1750  223.4140 C   0  0  0  0  0  0  0  0  0  0  0  0
  138.9100   70.9380  224.5150 C   0  0  0  0  0  0  0  0  0  0  0  0
  137.5330   71.3040  224.1310 N   0  0  0  0  0  0  0  0  0  0  0  0
  137.3150   71.2360  222.6830 C   0  0  0  0  0  0  0  0  0  0  0  0
  138.1920   72.2700  221.9700 C   0  0  0  0  0  0  0  0  0  0  0  0
  140.3400   74.5030  222.0070 N   0  0  0  0  0  0  0  0  0  0  0  0
  140.1520   80.6070  222.5020 C   0  0  0  0  0  0  0  0  0  0  0  0
  141.1100   81.6050  222.7050 C   0  0  0  0  0  0  0  0  0  0  0  0
  143.0441   82.0962  223.5551 H   0  0  0  0  0  0  0  0  0  0  0  0
  143.4498   79.7884  224.4112 H   0  0  0  0  0  0  0  0  0  0  0  0
  141.7454   78.0019  224.0507 H   0  0  0  0  0  0  0  0  0  0  0  0
  139.3195   77.5554  223.6187 H   0  0  0  0  0  0  0  0  0  0  0  0
  138.3712   78.6973  222.5807 H   0  0  0  0  0  0  0  0  0  0  0  0
  138.9545   76.6005  221.3772 H   0  0  0  0  0  0  0  0  0  0  0  0
  139.7009   78.0707  220.6289 H   0  0  0  0  0  0  0  0  0  0  0  0
  141.8430   77.4280  221.7800 H   0  0  0  0  0  0  0  0  0  0  0  0
  143.1701   75.5910  220.5095 H   0  0  0  0  0  0  0  0  0  0  0  0
  145.2306   74.1683  221.2241 H   0  0  0  0  0  0  0  0  0  0  0  0
  145.0518   72.4971  221.8852 H   0  0  0  0  0  0  0  0  0  0  0  0
  147.1900   73.0594  220.4853 H   0  0  0  0  0  0  0  0  0  0  0  0
  146.2981   71.5324  220.1332 H   0  0  0  0  0  0  0  0  0  0  0  0
  145.9460   74.1000  218.6950 H   0  0  0  0  0  0  0  0  0  0  0  0
  144.4672   73.1437  217.3449 H   0  0  0  0  0  0  0  0  0  0  0  0
  145.2122   71.4955  217.6293 H   0  0  0  0  0  0  0  0  0  0  0  0
  142.7803   72.1966  218.5878 H   0  0  0  0  0  0  0  0  0  0  0  0
  143.8948   71.0380  219.4093 H   0  0  0  0  0  0  0  0  0  0  0  0
  140.1023   70.2454  222.8413 H   0  0  0  0  0  0  0  0  0  0  0  0
  140.9086   71.4759  223.9004 H   0  0  0  0  0  0  0  0  0  0  0  0
  138.9207   69.8698  224.7773 H   0  0  0  0  0  0  0  0  0  0  0  0
  139.1833   71.5914  225.3567 H   0  0  0  0  0  0  0  0  0  0  0  0
  137.3400   72.2820  224.4510 H   0  0  0  0  0  0  0  0  0  0  0  0
  137.5736   70.2293  222.3229 H   0  0  0  0  0  0  0  0  0  0  0  0
  136.2578   71.4503  222.4674 H   0  0  0  0  0  0  0  0  0  0  0  0
  138.2140   72.0420  220.8941 H   0  0  0  0  0  0  0  0  0  0  0  0
  137.7665   73.2693  222.1444 H   0  0  0  0  0  0  0  0  0  0  0  0
  139.2261   80.8395  221.9555 H   0  0  0  0  0  0  0  0  0  0  0  0
  140.9344   82.6218  222.3239 H   0  0  0  0  0  0  0  0  0  0  0  0
  1  2  2  0
  2  3  1  0
  3  4  2  0
  4  5  1  0
  5  6  1  0
  6  7  1  0
  7  8  1  0
  8  9  2  0
  9 10  1  0
 10 11  1  0
 11 12  1  0
 12 13  1  0
 13 14  1  0
 14 15  1  0
 15 16  1  0
 10 17  2  0
 17 18  1  0
 18 19  1  0
 19 20  1  0
 20 21  1  0
 21 22  1  0
 22 23  1  0
 23 24  1  0
 18 25  2  0
  4 26  1  0
 26 27  2  0
 27  1  1  0
 25  8  1  0
 16 11  1  0
 24 19  1  0
  1 28  1  0
  2 29  1  0
  3 30  1  0
  5 31  1  0
  5 32  1  0
  6 33  1  0
  6 34  1  0
  7 35  1  0
  9 36  1  0
 12 37  1  0
 12 38  1  0
 13 39  1  0
 13 40  1  0
 14 41  1  0
 15 42  1  0
 15 43  1  0
 16 44  1  0
 16 45  1  0
 20 46  1  0
 20 47  1  0
 21 48  1  0
 21 49  1  0
 22 50  1  0
 23 51  1  0
 23 52  1  0
 24 53  1  0
 24 54  1  0
 26 55  1  0
 27 56  1  0
M  END
>  <UniqueID>  (46) 
520

>  <SMILES>  (46) 
c1ccc(CCNc2cc(N3CCNCC3)nc(N3CCNCC3)n2)cc1

>  <Energy>  (46) 
64.19033298564075

>  <Genealogy>  (46) 
c1ccc(CCNc2cc(N3CCNCC3)nc(N3CCNCC3)n2)cc1 (3D coordinates assigned)
c1ccc(CCNc2cc(N3CCNCC3)nc(N3CCNCC3)n2)cc1 (nonaromatic ring conformer: 64.19033298564075 kcal/mol)

>  <smiles>  (46) 
c1ccc(CCNc2cc(N3CCNCC3)nc(N3CCNCC3)n2)cc1

>  <score_type>  (46) 
oracle

>  <origin>  (46) 
autodockgpu

>  <m_score__min__energy>  (46) 
-9.2300000000000004

>  <m_primary>  (46) 
energy

>  <meeko>  (46) 
{"free_energy": -8.26, "intermolecular_energy": -10.05, "internal_energy": -0.86, "cluster_size": 1, "cluster_id": 2, "rank_in_cluster": 1}

>  <energy>  (46) 
-9.12

>  <cluster_rmsd>  (46) 
0.25

>  <rmsd>  (46) 
271.0

>  <cluster>  (46) 
1

$$$$
USJHBUDYBBTILB-MPIMZMORNA-N
     RDKit          3D

 56 59  0  0  0  0  0  0  0  0999 V2000
  140.6280   69.9340  228.0950 C   0  0  0  0  0  0  0  0  0  0  0  0
  140.2510   69.2110  226.9610 C   0  0  0  0  0  0  0  0  0  0  0  0
  140.2620   69.8240  225.7040 C   0  0  0  0  0  0  0  0  0  0  0  0
  140.6470   71.1690  225.5760 C   0  0  0  0  0  0  0  0  0  0  0  0
  140.6940   71.8210  224.2170 C   0  0  0  0  0  0  0  0  0  0  0  0
  139.4150   71.5450  223.4160 C   0  0  0  0  0  0  0  0  0  0  0  0
  139.2920   72.4540  222.2770 N   0  0  0  0  0  0  0  0  0  0  0  0
  140.3790   73.2670  221.8100 C   0  0  0  0  0  0  0  0  0  0  0  0
  141.5140   72.6690  221.2560 C   0  0  0  0  0  0  0  0  0  0  0  0
  142.5530   73.4890  220.7970 C   0  0  0  0  0  0  0  0  0  0  0  0
  143.7330   72.9300  220.1890 N   0  0  0  0  0  0  0  0  0  0  0  0
  145.0100   73.0040  220.9070 C   0  0  0  0  0  0  0  0  0  0  0  0
  146.1670   72.5400  220.0110 C   0  0  0  0  0  0  0  0  0  0  0  0
  145.9920   73.0500  218.6460 N   0  0  0  0  0  0  0  0  0  0  0  0
  144.7880   72.5040  217.9870 C   0  0  0  0  0  0  0  0  0  0  0  0
  143.6560   72.1230  218.9640 C   0  0  0  0  0  0  0  0  0  0  0  0
  142.4170   74.8400  220.8810 N   0  0  0  0  0  0  0  0  0  0  0  0
  141.3100   75.4150  221.4260 C   0  0  0  0  0  0  0  0  0  0  0  0
  141.2030   76.8510  221.5030 N   0  0  0  0  0  0  0  0  0  0  0  0
  140.6780   77.5060  222.7110 C   0  0  0  0  0  0  0  0  0  0  0  0
  141.4120   78.8330  223.0070 C   0  0  0  0  0  0  0  0  0  0  0  0
  141.9860   79.4950  221.8200 N   0  0  0  0  0  0  0  0  0  0  0  0
  141.2780   79.1470  220.5840 C   0  0  0  0  0  0  0  0  0  0  0  0
  141.4330   77.6520  220.2930 C   0  0  0  0  0  0  0  0  0  0  0  0
  140.3070   74.6220  221.8860 N   0  0  0  0  0  0  0  0  0  0  0  0
  141.0360   71.8860  226.7190 C   0  0  0  0  0  0  0  0  0  0  0  0
  141.0210   71.2710  227.9750 C   0  0  0  0  0  0  0  0  0  0  0  0
  140.6158   69.4515  229.0834 H   0  0  0  0  0  0  0  0  0  0  0  0
  139.9452   68.1587  227.0566 H   0  0  0  0  0  0  0  0  0  0  0  0
  139.9681   69.2509  224.8123 H   0  0  0  0  0  0  0  0  0  0  0  0
  140.8076   72.9075  224.3456 H   0  0  0  0  0  0  0  0  0  0  0  0
  141.5459   71.4010  223.6622 H   0  0  0  0  0  0  0  0  0  0  0  0
  139.4408   70.5093  223.0462 H   0  0  0  0  0  0  0  0  0  0  0  0
  138.5510   71.7015  224.0786 H   0  0  0  0  0  0  0  0  0  0  0  0
  138.3700   72.5070  221.7870 H   0  0  0  0  0  0  0  0  0  0  0  0
  141.5903   71.5742  221.1817 H   0  0  0  0  0  0  0  0  0  0  0  0
  145.1892   74.0438  221.2178 H   0  0  0  0  0  0  0  0  0  0  0  0
  144.9588   72.3449  221.7862 H   0  0  0  0  0  0  0  0  0  0  0  0
  147.1160   72.9169  220.4200 H   0  0  0  0  0  0  0  0  0  0  0  0
  146.1782   71.4404  219.9828 H   0  0  0  0  0  0  0  0  0  0  0  0
  145.9080   74.0940  218.6910 H   0  0  0  0  0  0  0  0  0  0  0  0
  144.4021   73.2616  217.2890 H   0  0  0  0  0  0  0  0  0  0  0  0
  145.0954   71.5778  217.4794 H   0  0  0  0  0  0  0  0  0  0  0  0
  142.6851   72.2975  218.4772 H   0  0  0  0  0  0  0  0  0  0  0  0
  143.7634   71.0617  219.2327 H   0  0  0  0  0  0  0  0  0  0  0  0
  139.6078   77.7152  222.5664 H   0  0  0  0  0  0  0  0  0  0  0  0
  140.8359   76.8294  223.5638 H   0  0  0  0  0  0  0  0  0  0  0  0
  140.6952   79.5251  223.4729 H   0  0  0  0  0  0  0  0  0  0  0  0
  142.2580   78.5818  223.6636 H   0  0  0  0  0  0  0  0  0  0  0  0
  142.9870   79.2070  221.7220 H   0  0  0  0  0  0  0  0  0  0  0  0
  140.2104   79.3872  220.6961 H   0  0  0  0  0  0  0  0  0  0  0  0
  141.7052   79.7227  219.7497 H   0  0  0  0  0  0  0  0  0  0  0  0
  140.7037   77.3582  219.5237 H   0  0  0  0  0  0  0  0  0  0  0  0
  142.4595   77.4688  219.9426 H   0  0  0  0  0  0  0  0  0  0  0  0
  141.3536   72.9350  226.6262 H   0  0  0  0  0  0  0  0  0  0  0  0
  141.3184   71.8390  228.8689 H   0  0  0  0  0  0  0  0  0  0  0  0
  1  2  2  0
  2  3  1  0
  3  4  2  0
  4  5  1  0
  5  6  1  0
  6  7  1  0
  7  8  1  0
  8  9  2  0
  9 10  1  0
 10 11  1  0
 11 12  1  0
 12 13  1  0
 13 14  1  0
 14 15  1  0
 15 16  1  0
 10 17  2  0
 17 18  1  0
 18 19  1  0
 19 20  1  0
 20 21  1  0
 21 22  1  0
 22 23  1  0
 23 24  1  0
 18 25  2  0
  4 26  1  0
 26 27  2  0
 27  1  1  0
 25  8  1  0
 16 11  1  0
 24 19  1  0
  1 28  1  0
  2 29  1  0
  3 30  1  0
  5 31  1  0
  5 32  1  0
  6 33  1  0
  6 34  1  0
  7 35  1  0
  9 36  1  0
 12 37  1  0
 12 38  1  0
 13 39  1  0
 13 40  1  0
 14 41  1  0
 15 42  1  0
 15 43  1  0
 16 44  1  0
 16 45  1  0
 20 46  1  0
 20 47  1  0
 21 48  1  0
 21 49  1  0
 22 50  1  0
 23 51  1  0
 23 52  1  0
 24 53  1  0
 24 54  1  0
 26 55  1  0
 27 56  1  0
M  END
>  <UniqueID>  (47) 
520

>  <SMILES>  (47) 
c1ccc(CCNc2cc(N3CCNCC3)nc(N3CCNCC3)n2)cc1

>  <Energy>  (47) 
64.19033298564075

>  <Genealogy>  (47) 
c1ccc(CCNc2cc(N3CCNCC3)nc(N3CCNCC3)n2)cc1 (3D coordinates assigned)
c1ccc(CCNc2cc(N3CCNCC3)nc(N3CCNCC3)n2)cc1 (nonaromatic ring conformer: 64.19033298564075 kcal/mol)

>  <smiles>  (47) 
c1ccc(CCNc2cc(N3CCNCC3)nc(N3CCNCC3)n2)cc1

>  <score_type>  (47) 
oracle

>  <origin>  (47) 
autodockgpu

>  <m_score__min__energy>  (47) 
-9.2300000000000004

>  <m_primary>  (47) 
energy

>  <meeko>  (47) 
{"free_energy": -9.0, "intermolecular_energy": -10.79, "internal_energy": -0.84, "cluster_size": 19, "cluster_id": 1, "rank_in_cluster": 10}

>  <energy>  (47) 
-9.02

>  <cluster_rmsd>  (47) 
0.39

>  <rmsd>  (47) 
271.05

>  <cluster>  (47) 
1

$$$$
USJHBUDYBBTILB-MPIMZMORNA-N
     RDKit          3D

 56 59  0  0  0  0  0  0  0  0999 V2000
  139.9830   70.5290  228.1980 C   0  0  0  0  0  0  0  0  0  0  0  0
  139.5380   69.6240  227.2310 C   0  0  0  0  0  0  0  0  0  0  0  0
  139.8180   69.8480  225.8800 C   0  0  0  0  0  0  0  0  0  0  0  0
  140.5430   70.9860  225.4860 C   0  0  0  0  0  0  0  0  0  0  0  0
  140.8770   71.2110  224.0330 C   0  0  0  0  0  0  0  0  0  0  0  0
  139.6100   71.2870  223.1710 C   0  0  0  0  0  0  0  0  0  0  0  0
  139.3870   72.6430  222.6690 N   0  0  0  0  0  0  0  0  0  0  0  0
  140.4200   73.4180  222.0410 C   0  0  0  0  0  0  0  0  0  0  0  0
  141.4880   72.7800  221.4050 C   0  0  0  0  0  0  0  0  0  0  0  0
  142.4730   73.5640  220.7900 C   0  0  0  0  0  0  0  0  0  0  0  0
  143.5800   72.9610  220.0940 N   0  0  0  0  0  0  0  0  0  0  0  0
  144.8180   72.6780  220.8300 C   0  0  0  0  0  0  0  0  0  0  0  0
  145.9310   72.2310  219.8720 C   0  0  0  0  0  0  0  0  0  0  0  0
  145.9010   73.0340  218.6440 N   0  0  0  0  0  0  0  0  0  0  0  0
  144.6610   72.8360  217.8670 C   0  0  0  0  0  0  0  0  0  0  0  0
  143.4390   72.4480  218.7250 C   0  0  0  0  0  0  0  0  0  0  0  0
  142.3480   74.9190  220.8080 N   0  0  0  0  0  0  0  0  0  0  0  0
  141.3070   75.5330  221.4330 C   0  0  0  0  0  0  0  0  0  0  0  0
  141.2110   76.9720  221.4350 N   0  0  0  0  0  0  0  0  0  0  0  0
  140.6560   77.6900  222.5930 C   0  0  0  0  0  0  0  0  0  0  0  0
  141.3930   79.0250  222.8450 C   0  0  0  0  0  0  0  0  0  0  0  0
  142.0070   79.6230  221.6430 N   0  0  0  0  0  0  0  0  0  0  0  0
  141.3330   79.2190  220.4060 C   0  0  0  0  0  0  0  0  0  0  0  0
  141.4820   77.7090  220.1940 C   0  0  0  0  0  0  0  0  0  0  0  0
  140.3570   74.7760  222.0430 N   0  0  0  0  0  0  0  0  0  0  0  0
  140.9970   71.8850  226.4650 C   0  0  0  0  0  0  0  0  0  0  0  0
  140.7130   71.6580  227.8150 C   0  0  0  0  0  0  0  0  0  0  0  0
  139.7590   70.3532  229.2605 H   0  0  0  0  0  0  0  0  0  0  0  0
  138.9665   68.7340  227.5333 H   0  0  0  0  0  0  0  0  0  0  0  0
  139.4696   69.1309  225.1221 H   0  0  0  0  0  0  0  0  0  0  0  0
  141.4328   72.1553  223.9359 H   0  0  0  0  0  0  0  0  0  0  0  0
  141.4831   70.3626  223.6824 H   0  0  0  0  0  0  0  0  0  0  0  0
  139.7165   70.6021  222.3169 H   0  0  0  0  0  0  0  0  0  0  0  0
  138.7494   71.0025  223.7943 H   0  0  0  0  0  0  0  0  0  0  0  0
  138.4330   73.0560  222.7730 H   0  0  0  0  0  0  0  0  0  0  0  0
  141.5543   71.6821  221.3874 H   0  0  0  0  0  0  0  0  0  0  0  0
  145.1400   73.5879  221.3576 H   0  0  0  0  0  0  0  0  0  0  0  0
  144.6241   71.8677  221.5482 H   0  0  0  0  0  0  0  0  0  0  0  0
  146.9062   72.3582  220.3647 H   0  0  0  0  0  0  0  0  0  0  0  0
  145.7747   71.1738  219.6113 H   0  0  0  0  0  0  0  0  0  0  0  0
  145.9770   74.0460  218.9080 H   0  0  0  0  0  0  0  0  0  0  0  0
  144.4299   73.7731  217.3394 H   0  0  0  0  0  0  0  0  0  0  0  0
  144.8464   71.9978  217.1792 H   0  0  0  0  0  0  0  0  0  0  0  0
  142.5308   72.8726  218.2723 H   0  0  0  0  0  0  0  0  0  0  0  0
  143.3695   71.3509  218.7646 H   0  0  0  0  0  0  0  0  0  0  0  0
  139.5925   77.8997  222.4061 H   0  0  0  0  0  0  0  0  0  0  0  0
  140.7824   77.0554  223.4826 H   0  0  0  0  0  0  0  0  0  0  0  0
  140.6692   79.7447  223.2550 H   0  0  0  0  0  0  0  0  0  0  0  0
  142.2173   78.8007  223.5381 H   0  0  0  0  0  0  0  0  0  0  0  0
  143.0080   79.3230  221.5890 H   0  0  0  0  0  0  0  0  0  0  0  0
  140.2649   79.4732  220.4740 H   0  0  0  0  0  0  0  0  0  0  0  0
  141.7906   79.7485  219.5573 H   0  0  0  0  0  0  0  0  0  0  0  0
  140.7716   77.3830  219.4200 H   0  0  0  0  0  0  0  0  0  0  0  0
  142.5160   77.5002  219.8821 H   0  0  0  0  0  0  0  0  0  0  0  0
  141.5780   72.7707  226.1685 H   0  0  0  0  0  0  0  0  0  0  0  0
  141.0646   72.3690  228.5771 H   0  0  0  0  0  0  0  0  0  0  0  0
  1  2  2  0
  2  3  1  0
  3  4  2  0
  4  5  1  0
  5  6  1  0
  6  7  1  0
  7  8  1  0
  8  9  2  0
  9 10  1  0
 10 11  1  0
 11 12  1  0
 12 13  1  0
 13 14  1  0
 14 15  1  0
 15 16  1  0
 10 17  2  0
 17 18  1  0
 18 19  1  0
 19 20  1  0
 20 21  1  0
 21 22  1  0
 22 23  1  0
 23 24  1  0
 18 25  2  0
  4 26  1  0
 26 27  2  0
 27  1  1  0
 25  8  1  0
 16 11  1  0
 24 19  1  0
  1 28  1  0
  2 29  1  0
  3 30  1  0
  5 31  1  0
  5 32  1  0
  6 33  1  0
  6 34  1  0
  7 35  1  0
  9 36  1  0
 12 37  1  0
 12 38  1  0
 13 39  1  0
 13 40  1  0
 14 41  1  0
 15 42  1  0
 15 43  1  0
 16 44  1  0
 16 45  1  0
 20 46  1  0
 20 47  1  0
 21 48  1  0
 21 49  1  0
 22 50  1  0
 23 51  1  0
 23 52  1  0
 24 53  1  0
 24 54  1  0
 26 55  1  0
 27 56  1  0
M  END
>  <UniqueID>  (48) 
520

>  <SMILES>  (48) 
c1ccc(CCNc2cc(N3CCNCC3)nc(N3CCNCC3)n2)cc1

>  <Energy>  (48) 
64.19033298564075

>  <Genealogy>  (48) 
c1ccc(CCNc2cc(N3CCNCC3)nc(N3CCNCC3)n2)cc1 (3D coordinates assigned)
c1ccc(CCNc2cc(N3CCNCC3)nc(N3CCNCC3)n2)cc1 (nonaromatic ring conformer: 64.19033298564075 kcal/mol)

>  <smiles>  (48) 
c1ccc(CCNc2cc(N3CCNCC3)nc(N3CCNCC3)n2)cc1

>  <score_type>  (48) 
oracle

>  <origin>  (48) 
autodockgpu

>  <m_score__min__energy>  (48) 
-9.2300000000000004

>  <m_primary>  (48) 
energy

>  <meeko>  (48) 
{"free_energy": -9.18, "intermolecular_energy": -10.97, "internal_energy": -0.83, "cluster_size": 19, "cluster_id": 1, "rank_in_cluster": 5}

>  <energy>  (48) 
-9.01

>  <cluster_rmsd>  (48) 
0.42

>  <rmsd>  (48) 
271.03

>  <cluster>  (48) 
1

$$$$
USJHBUDYBBTILB-MPIMZMORNA-N
     RDKit          3D

 56 59  0  0  0  0  0  0  0  0999 V2000
  140.0230   70.4360  228.3080 C   0  0  0  0  0  0  0  0  0  0  0  0
  139.5700   69.5880  227.2950 C   0  0  0  0  0  0  0  0  0  0  0  0
  139.8410   69.8870  225.9560 C   0  0  0  0  0  0  0  0  0  0  0  0
  140.5660   71.0450  225.6230 C   0  0  0  0  0  0  0  0  0  0  0  0
  140.8900   71.3510  224.1820 C   0  0  0  0  0  0  0  0  0  0  0  0
  139.6300   71.3360  223.3070 C   0  0  0  0  0  0  0  0  0  0  0  0
  139.3880   72.6440  222.6980 N   0  0  0  0  0  0  0  0  0  0  0  0
  140.4280   73.4160  222.0780 C   0  0  0  0  0  0  0  0  0  0  0  0
  141.4930   72.7750  221.4400 C   0  0  0  0  0  0  0  0  0  0  0  0
  142.4850   73.5570  220.8330 C   0  0  0  0  0  0  0  0  0  0  0  0
  143.5890   72.9510  220.1340 N   0  0  0  0  0  0  0  0  0  0  0  0
  144.8430   72.7060  220.8560 C   0  0  0  0  0  0  0  0  0  0  0  0
  145.9460   72.2490  219.8920 C   0  0  0  0  0  0  0  0  0  0  0  0
  145.8840   73.0180  218.6430 N   0  0  0  0  0  0  0  0  0  0  0  0
  144.6340   72.7820  217.8930 C   0  0  0  0  0  0  0  0  0  0  0  0
  143.4320   72.4000  218.7820 C   0  0  0  0  0  0  0  0  0  0  0  0
  142.3700   74.9120  220.8610 N   0  0  0  0  0  0  0  0  0  0  0  0
  141.3320   75.5290  221.4890 C   0  0  0  0  0  0  0  0  0  0  0  0
  141.2460   76.9690  221.5020 N   0  0  0  0  0  0  0  0  0  0  0  0
  140.7290   77.6830  222.6790 C   0  0  0  0  0  0  0  0  0  0  0  0
  141.4820   79.0110  222.9190 C   0  0  0  0  0  0  0  0  0  0  0  0
  142.0680   79.6120  221.7050 N   0  0  0  0  0  0  0  0  0  0  0  0
  141.3570   79.2210  220.4840 C   0  0  0  0  0  0  0  0  0  0  0  0
  141.4900   77.7120  220.2590 C   0  0  0  0  0  0  0  0  0  0  0  0
  140.3760   74.7740  222.0910 N   0  0  0  0  0  0  0  0  0  0  0  0
  141.0270   71.8870  226.6480 C   0  0  0  0  0  0  0  0  0  0  0  0
  140.7530   71.5850  227.9850 C   0  0  0  0  0  0  0  0  0  0  0  0
  139.8057   70.2004  229.3603 H   0  0  0  0  0  0  0  0  0  0  0  0
  138.9990   68.6833  227.5508 H   0  0  0  0  0  0  0  0  0  0  0  0
  139.4861   69.2145  225.1611 H   0  0  0  0  0  0  0  0  0  0  0  0
  141.3539   72.3467  224.1236 H   0  0  0  0  0  0  0  0  0  0  0  0
  141.5772   70.5764  223.8108 H   0  0  0  0  0  0  0  0  0  0  0  0
  139.7563   70.5880  222.5104 H   0  0  0  0  0  0  0  0  0  0  0  0
  138.7688   71.0858  223.9440 H   0  0  0  0  0  0  0  0  0  0  0  0
  138.4150   73.0230  222.7170 H   0  0  0  0  0  0  0  0  0  0  0  0
  141.5517   71.6769  221.4146 H   0  0  0  0  0  0  0  0  0  0  0  0
  145.1604   73.6345  221.3531 H   0  0  0  0  0  0  0  0  0  0  0  0
  144.6731   71.9129  221.5991 H   0  0  0  0  0  0  0  0  0  0  0  0
  146.9273   72.4033  220.3645 H   0  0  0  0  0  0  0  0  0  0  0  0
  145.8007   71.1830  219.6627 H   0  0  0  0  0  0  0  0  0  0  0  0
  145.9490   74.0370  218.8790 H   0  0  0  0  0  0  0  0  0  0  0  0
  144.3806   73.7014  217.3448 H   0  0  0  0  0  0  0  0  0  0  0  0
  144.8199   71.9283  217.2247 H   0  0  0  0  0  0  0  0  0  0  0  0
  142.5104   72.8000  218.3341 H   0  0  0  0  0  0  0  0  0  0  0  0
  143.3786   71.3035  218.8516 H   0  0  0  0  0  0  0  0  0  0  0  0
  139.6622   77.9013  222.5232 H   0  0  0  0  0  0  0  0  0  0  0  0
  140.8758   77.0417  223.5606 H   0  0  0  0  0  0  0  0  0  0  0  0
  140.7746   79.7333  223.3525 H   0  0  0  0  0  0  0  0  0  0  0  0
  142.3228   78.7766  223.5884 H   0  0  0  0  0  0  0  0  0  0  0  0
  143.0650   79.3050  221.6210 H   0  0  0  0  0  0  0  0  0  0  0  0
  140.2930   79.4819  220.5830 H   0  0  0  0  0  0  0  0  0  0  0  0
  141.7941   79.7532  219.6263 H   0  0  0  0  0  0  0  0  0  0  0  0
  140.7577   77.3957  219.5016 H   0  0  0  0  0  0  0  0  0  0  0  0
  142.5141   77.4982  219.9192 H   0  0  0  0  0  0  0  0  0  0  0  0
  141.6062   72.7880  226.3977 H   0  0  0  0  0  0  0  0  0  0  0  0
  141.1115   72.2511  228.7836 H   0  0  0  0  0  0  0  0  0  0  0  0
  1  2  2  0
  2  3  1  0
  3  4  2  0
  4  5  1  0
  5  6  1  0
  6  7  1  0
  7  8  1  0
  8  9  2  0
  9 10  1  0
 10 11  1  0
 11 12  1  0
 12 13  1  0
 13 14  1  0
 14 15  1  0
 15 16  1  0
 10 17  2  0
 17 18  1  0
 18 19  1  0
 19 20  1  0
 20 21  1  0
 21 22  1  0
 22 23  1  0
 23 24  1  0
 18 25  2  0
  4 26  1  0
 26 27  2  0
 27  1  1  0
 25  8  1  0
 16 11  1  0
 24 19  1  0
  1 28  1  0
  2 29  1  0
  3 30  1  0
  5 31  1  0
  5 32  1  0
  6 33  1  0
  6 34  1  0
  7 35  1  0
  9 36  1  0
 12 37  1  0
 12 38  1  0
 13 39  1  0
 13 40  1  0
 14 41  1  0
 15 42  1  0
 15 43  1  0
 16 44  1  0
 16 45  1  0
 20 46  1  0
 20 47  1  0
 21 48  1  0
 21 49  1  0
 22 50  1  0
 23 51  1  0
 23 52  1  0
 24 53  1  0
 24 54  1  0
 26 55  1  0
 27 56  1  0
M  END
>  <UniqueID>  (49) 
520

>  <SMILES>  (49) 
c1ccc(CCNc2cc(N3CCNCC3)nc(N3CCNCC3)n2)cc1

>  <Energy>  (49) 
64.19033298564075

>  <Genealogy>  (49) 
c1ccc(CCNc2cc(N3CCNCC3)nc(N3CCNCC3)n2)cc1 (3D coordinates assigned)
c1ccc(CCNc2cc(N3CCNCC3)nc(N3CCNCC3)n2)cc1 (nonaromatic ring conformer: 64.19033298564075 kcal/mol)

>  <smiles>  (49) 
c1ccc(CCNc2cc(N3CCNCC3)nc(N3CCNCC3)n2)cc1

>  <score_type>  (49) 
oracle

>  <origin>  (49) 
autodockgpu

>  <m_score__min__energy>  (49) 
-9.2300000000000004

>  <m_primary>  (49) 
energy

>  <meeko>  (49) 
{"free_energy": -9.23, "intermolecular_energy": -11.02, "internal_energy": -0.83, "cluster_size": 19, "cluster_id": 1, "rank_in_cluster": 1}

>  <energy>  (49) 
-9.01

>  <cluster_rmsd>  (49) 
0.44

>  <rmsd>  (49) 
270.93

>  <cluster>  (49) 
1

$$$$
USJHBUDYBBTILB-MPIMZMORNA-N
     RDKit          3D

 56 59  0  0  0  0  0  0  0  0999 V2000
  140.4210   70.1720  228.1910 C   0  0  0  0  0  0  0  0  0  0  0  0
  141.0350   71.4070  227.9690 C   0  0  0  0  0  0  0  0  0  0  0  0
  141.1350   71.9150  226.6700 C   0  0  0  0  0  0  0  0  0  0  0  0
  140.6250   71.1850  225.5820 C   0  0  0  0  0  0  0  0  0  0  0  0
  140.7000   71.7470  224.1850 C   0  0  0  0  0  0  0  0  0  0  0  0
  139.3930   71.5170  223.4160 C   0  0  0  0  0  0  0  0  0  0  0  0
  139.3020   72.3910  222.2470 N   0  0  0  0  0  0  0  0  0  0  0  0
  140.3910   73.2160  221.8050 C   0  0  0  0  0  0  0  0  0  0  0  0
  141.5450   72.6300  221.2770 C   0  0  0  0  0  0  0  0  0  0  0  0
  142.5850   73.4620  220.8420 C   0  0  0  0  0  0  0  0  0  0  0  0
  143.7850   72.9150  220.2610 N   0  0  0  0  0  0  0  0  0  0  0  0
  145.0680   73.1240  220.9420 C   0  0  0  0  0  0  0  0  0  0  0  0
  146.2330   72.6450  220.0670 C   0  0  0  0  0  0  0  0  0  0  0  0
  146.0070   73.0190  218.6650 N   0  0  0  0  0  0  0  0  0  0  0  0
  144.8250   72.3490  218.0840 C   0  0  0  0  0  0  0  0  0  0  0  0
  143.7330   71.9970  219.1160 C   0  0  0  0  0  0  0  0  0  0  0  0
  142.4330   74.8110  220.9250 N   0  0  0  0  0  0  0  0  0  0  0  0
  141.3080   75.3740  221.4440 C   0  0  0  0  0  0  0  0  0  0  0  0
  141.1850   76.8090  221.5190 N   0  0  0  0  0  0  0  0  0  0  0  0
  140.6710   77.4590  222.7340 C   0  0  0  0  0  0  0  0  0  0  0  0
  141.3930   78.7970  223.0160 C   0  0  0  0  0  0  0  0  0  0  0  0
  141.9390   79.4630  221.8180 N   0  0  0  0  0  0  0  0  0  0  0  0
  141.2160   79.1030  220.5940 C   0  0  0  0  0  0  0  0  0  0  0  0
  141.3850   77.6090  220.3040 C   0  0  0  0  0  0  0  0  0  0  0  0
  140.3030   74.5700  221.8800 N   0  0  0  0  0  0  0  0  0  0  0  0
  139.9990   69.9500  225.8160 C   0  0  0  0  0  0  0  0  0  0  0  0
  139.9020   69.4440  227.1160 C   0  0  0  0  0  0  0  0  0  0  0  0
  140.3458   69.7718  229.2128 H   0  0  0  0  0  0  0  0  0  0  0  0
  141.4399   71.9800  228.8162 H   0  0  0  0  0  0  0  0  0  0  0  0
  141.6147   72.8899  226.4987 H   0  0  0  0  0  0  0  0  0  0  0  0
  140.8943   72.8281  224.2445 H   0  0  0  0  0  0  0  0  0  0  0  0
  141.5111   71.2325  223.6489 H   0  0  0  0  0  0  0  0  0  0  0  0
  139.3527   70.4692  223.0837 H   0  0  0  0  0  0  0  0  0  0  0  0
  138.5515   71.7460  224.0864 H   0  0  0  0  0  0  0  0  0  0  0  0
  138.4030   72.4090  221.7150 H   0  0  0  0  0  0  0  0  0  0  0  0
  141.6349   71.5361  221.2044 H   0  0  0  0  0  0  0  0  0  0  0  0
  145.1933   74.1960  221.1542 H   0  0  0  0  0  0  0  0  0  0  0  0
  145.0689   72.5460  221.8779 H   0  0  0  0  0  0  0  0  0  0  0  0
  147.1660   73.1085  220.4200 H   0  0  0  0  0  0  0  0  0  0  0  0
  146.3054   71.5496  220.1371 H   0  0  0  0  0  0  0  0  0  0  0  0
  145.8640   74.0560  218.6170 H   0  0  0  0  0  0  0  0  0  0  0  0
  144.3850   73.0170  217.3289 H   0  0  0  0  0  0  0  0  0  0  0  0
  145.1762   71.3988  217.6554 H   0  0  0  0  0  0  0  0  0  0  0  0
  142.7457   72.0729  218.6370 H   0  0  0  0  0  0  0  0  0  0  0  0
  143.9047   70.9721  219.4766 H   0  0  0  0  0  0  0  0  0  0  0  0
  139.5960   77.6540  222.6064 H   0  0  0  0  0  0  0  0  0  0  0  0
  140.8513   76.7861  223.5853 H   0  0  0  0  0  0  0  0  0  0  0  0
  140.6749   79.4810  223.4919 H   0  0  0  0  0  0  0  0  0  0  0  0
  142.2524   78.5586  223.6599 H   0  0  0  0  0  0  0  0  0  0  0  0
  142.9420   79.1870  221.7040 H   0  0  0  0  0  0  0  0  0  0  0  0
  140.1474   79.3302  220.7223 H   0  0  0  0  0  0  0  0  0  0  0  0
  141.6229   79.6818  219.7517 H   0  0  0  0  0  0  0  0  0  0  0  0
  140.6469   77.3041  219.5475 H   0  0  0  0  0  0  0  0  0  0  0  0
  142.4078   77.4377  219.9372 H   0  0  0  0  0  0  0  0  0  0  0  0
  139.5832   69.3783  224.9732 H   0  0  0  0  0  0  0  0  0  0  0  0
  139.4171   68.4726  227.2930 H   0  0  0  0  0  0  0  0  0  0  0  0
  1  2  2  0
  2  3  1  0
  3  4  2  0
  4  5  1  0
  5  6  1  0
  6  7  1  0
  7  8  1  0
  8  9  2  0
  9 10  1  0
 10 11  1  0
 11 12  1  0
 12 13  1  0
 13 14  1  0
 14 15  1  0
 15 16  1  0
 10 17  2  0
 17 18  1  0
 18 19  1  0
 19 20  1  0
 20 21  1  0
 21 22  1  0
 22 23  1  0
 23 24  1  0
 18 25  2  0
  4 26  1  0
 26 27  2  0
 27  1  1  0
 25  8  1  0
 16 11  1  0
 24 19  1  0
  1 28  1  0
  2 29  1  0
  3 30  1  0
  5 31  1  0
  5 32  1  0
  6 33  1  0
  6 34  1  0
  7 35  1  0
  9 36  1  0
 12 37  1  0
 12 38  1  0
 13 39  1  0
 13 40  1  0
 14 41  1  0
 15 42  1  0
 15 43  1  0
 16 44  1  0
 16 45  1  0
 20 46  1  0
 20 47  1  0
 21 48  1  0
 21 49  1  0
 22 50  1  0
 23 51  1  0
 23 52  1  0
 24 53  1  0
 24 54  1  0
 26 55  1  0
 27 56  1  0
M  END
>  <UniqueID>  (50) 
520

>  <SMILES>  (50) 
c1ccc(CCNc2cc(N3CCNCC3)nc(N3CCNCC3)n2)cc1

>  <Energy>  (50) 
64.19033298564075

>  <Genealogy>  (50) 
c1ccc(CCNc2cc(N3CCNCC3)nc(N3CCNCC3)n2)cc1 (3D coordinates assigned)
c1ccc(CCNc2cc(N3CCNCC3)nc(N3CCNCC3)n2)cc1 (nonaromatic ring conformer: 64.19033298564075 kcal/mol)

>  <smiles>  (50) 
c1ccc(CCNc2cc(N3CCNCC3)nc(N3CCNCC3)n2)cc1

>  <score_type>  (50) 
oracle

>  <origin>  (50) 
autodockgpu

>  <m_score__min__energy>  (50) 
-9.2300000000000004

>  <m_primary>  (50) 
energy

>  <meeko>  (50) 
{"free_energy": -9.02, "intermolecular_energy": -10.81, "internal_energy": -0.83, "cluster_size": 19, "cluster_id": 1, "rank_in_cluster": 7}

>  <energy>  (50) 
-9.0

>  <cluster_rmsd>  (50) 
0.39

>  <rmsd>  (50) 
271.04

>  <cluster>  (50) 
1

$$$$
USJHBUDYBBTILB-MPIMZMORNA-N
     RDKit          3D

 56 59  0  0  0  0  0  0  0  0999 V2000
  141.0660   71.4070  228.2970 C   0  0  0  0  0  0  0  0  0  0  0  0
  140.3370   70.2400  228.0580 C   0  0  0  0  0  0  0  0  0  0  0  0
  139.9700   69.8980  226.7530 C   0  0  0  0  0  0  0  0  0  0  0  0
  140.3280   70.7270  225.6760 C   0  0  0  0  0  0  0  0  0  0  0  0
  139.9640   70.3420  224.2640 C   0  0  0  0  0  0  0  0  0  0  0  0
  139.1430   71.4400  223.5760 C   0  0  0  0  0  0  0  0  0  0  0  0
  139.5840   71.6500  222.1970 N   0  0  0  0  0  0  0  0  0  0  0  0
  140.4110   72.7570  221.8060 C   0  0  0  0  0  0  0  0  0  0  0  0
  141.6690   72.5280  221.2420 C   0  0  0  0  0  0  0  0  0  0  0  0
  142.4470   73.6280  220.8590 C   0  0  0  0  0  0  0  0  0  0  0  0
  143.7380   73.4520  220.2450 N   0  0  0  0  0  0  0  0  0  0  0  0
  143.9280   72.3650  219.2780 C   0  0  0  0  0  0  0  0  0  0  0  0
  145.4080   72.2250  218.9000 C   0  0  0  0  0  0  0  0  0  0  0  0
  146.2570   72.3910  220.0860 N   0  0  0  0  0  0  0  0  0  0  0  0
  146.1630   73.7460  220.6650 C   0  0  0  0  0  0  0  0  0  0  0  0
  144.8090   74.4430  220.4150 C   0  0  0  0  0  0  0  0  0  0  0  0
  141.9470   74.8830  221.0230 N   0  0  0  0  0  0  0  0  0  0  0  0
  140.7220   75.0980  221.5760 C   0  0  0  0  0  0  0  0  0  0  0  0
  140.2270   76.4420  221.7390 N   0  0  0  0  0  0  0  0  0  0  0  0
  138.7840   76.7250  221.6990 C   0  0  0  0  0  0  0  0  0  0  0  0
  138.3910   77.8360  222.6990 C   0  0  0  0  0  0  0  0  0  0  0  0
  139.4720   78.7900  223.0120 N   0  0  0  0  0  0  0  0  0  0  0  0
  140.4580   78.8980  221.9330 C   0  0  0  0  0  0  0  0  0  0  0  0
  141.1800   77.5600  221.7440 C   0  0  0  0  0  0  0  0  0  0  0  0
  139.9710   74.0330  221.9630 N   0  0  0  0  0  0  0  0  0  0  0  0
  141.0710   71.8930  225.9230 C   0  0  0  0  0  0  0  0  0  0  0  0
  141.4340   72.2330  227.2300 C   0  0  0  0  0  0  0  0  0  0  0  0
  141.3508   71.6766  229.3247 H   0  0  0  0  0  0  0  0  0  0  0  0
  140.0512   69.5891  228.8975 H   0  0  0  0  0  0  0  0  0  0  0  0
  139.3987   68.9763  226.5684 H   0  0  0  0  0  0  0  0  0  0  0  0
  140.8872   70.1734  223.6902 H   0  0  0  0  0  0  0  0  0  0  0  0
  139.3540   69.4274  224.3019 H   0  0  0  0  0  0  0  0  0  0  0  0
  138.0832   71.1454  223.5721 H   0  0  0  0  0  0  0  0  0  0  0  0
  139.2847   72.3785  224.1320 H   0  0  0  0  0  0  0  0  0  0  0  0
  139.2820   70.9600  221.4730 H   0  0  0  0  0  0  0  0  0  0  0  0
  142.0414   71.5026  221.1014 H   0  0  0  0  0  0  0  0  0  0  0  0
  143.5785   71.4215  219.7227 H   0  0  0  0  0  0  0  0  0  0  0  0
  143.3524   72.5964  218.3697 H   0  0  0  0  0  0  0  0  0  0  0  0
  145.5791   71.2277  218.4685 H   0  0  0  0  0  0  0  0  0  0  0  0
  145.6640   73.0034  218.1661 H   0  0  0  0  0  0  0  0  0  0  0  0
  145.9550   71.6940  220.8090 H   0  0  0  0  0  0  0  0  0  0  0  0
  146.3171   73.6693  221.7514 H   0  0  0  0  0  0  0  0  0  0  0  0
  146.9318   74.3575  220.1701 H   0  0  0  0  0  0  0  0  0  0  0  0
  144.5710   75.0880  221.2736 H   0  0  0  0  0  0  0  0  0  0  0  0
  144.8846   75.0429  219.4961 H   0  0  0  0  0  0  0  0  0  0  0  0
  138.5121   77.0474  220.6831 H   0  0  0  0  0  0  0  0  0  0  0  0
  138.2468   75.8067  221.9784 H   0  0  0  0  0  0  0  0  0  0  0  0
  137.5486   78.3999  222.2720 H   0  0  0  0  0  0  0  0  0  0  0  0
  138.1375   77.3310  223.6428 H   0  0  0  0  0  0  0  0  0  0  0  0
  139.9630   78.4730  223.8800 H   0  0  0  0  0  0  0  0  0  0  0  0
  139.9461   79.1705  220.9983 H   0  0  0  0  0  0  0  0  0  0  0  0
  141.1953   79.6712  222.1949 H   0  0  0  0  0  0  0  0  0  0  0  0
  141.7209   77.5756  220.7863 H   0  0  0  0  0  0  0  0  0  0  0  0
  141.8802   77.4191  222.5806 H   0  0  0  0  0  0  0  0  0  0  0  0
  141.3684   72.5411  225.0854 H   0  0  0  0  0  0  0  0  0  0  0  0
  142.0096   73.1511  227.4191 H   0  0  0  0  0  0  0  0  0  0  0  0
  1  2  2  0
  2  3  1  0
  3  4  2  0
  4  5  1  0
  5  6  1  0
  6  7  1  0
  7  8  1  0
  8  9  2  0
  9 10  1  0
 10 11  1  0
 11 12  1  0
 12 13  1  0
 13 14  1  0
 14 15  1  0
 15 16  1  0
 10 17  2  0
 17 18  1  0
 18 19  1  0
 19 20  1  0
 20 21  1  0
 21 22  1  0
 22 23  1  0
 23 24  1  0
 18 25  2  0
  4 26  1  0
 26 27  2  0
 27  1  1  0
 25  8  1  0
 16 11  1  0
 24 19  1  0
  1 28  1  0
  2 29  1  0
  3 30  1  0
  5 31  1  0
  5 32  1  0
  6 33  1  0
  6 34  1  0
  7 35  1  0
  9 36  1  0
 12 37  1  0
 12 38  1  0
 13 39  1  0
 13 40  1  0
 14 41  1  0
 15 42  1  0
 15 43  1  0
 16 44  1  0
 16 45  1  0
 20 46  1  0
 20 47  1  0
 21 48  1  0
 21 49  1  0
 22 50  1  0
 23 51  1  0
 23 52  1  0
 24 53  1  0
 24 54  1  0
 26 55  1  0
 27 56  1  0
M  END
>  <UniqueID>  (51) 
520

>  <SMILES>  (51) 
c1ccc(CCNc2cc(N3CCNCC3)nc(N3CCNCC3)n2)cc1

>  <Energy>  (51) 
64.19033298564075

>  <Genealogy>  (51) 
c1ccc(CCNc2cc(N3CCNCC3)nc(N3CCNCC3)n2)cc1 (3D coordinates assigned)
c1ccc(CCNc2cc(N3CCNCC3)nc(N3CCNCC3)n2)cc1 (nonaromatic ring conformer: 64.19033298564075 kcal/mol)

>  <smiles>  (51) 
c1ccc(CCNc2cc(N3CCNCC3)nc(N3CCNCC3)n2)cc1

>  <score_type>  (51) 
oracle

>  <origin>  (51) 
autodockgpu

>  <m_score__min__energy>  (51) 
-9.2300000000000004

>  <m_primary>  (51) 
energy

>  <meeko>  (51) 
{"free_energy": -8.42, "intermolecular_energy": -10.21, "internal_energy": -0.9, "cluster_size": 19, "cluster_id": 1, "rank_in_cluster": 19}

>  <energy>  (51) 
-8.99

>  <cluster_rmsd>  (51) 
0.44

>  <rmsd>  (51) 
270.91

>  <cluster>  (51) 
1

$$$$
USJHBUDYBBTILB-MPIMZMORNA-N
     RDKit          3D

 56 59  0  0  0  0  0  0  0  0999 V2000
  140.0390   70.4690  228.2320 C   0  0  0  0  0  0  0  0  0  0  0  0
  139.5790   69.5930  227.2460 C   0  0  0  0  0  0  0  0  0  0  0  0
  139.8490   69.8520  225.8980 C   0  0  0  0  0  0  0  0  0  0  0  0
  140.5790   70.9950  225.5290 C   0  0  0  0  0  0  0  0  0  0  0  0
  140.9020   71.2560  224.0790 C   0  0  0  0  0  0  0  0  0  0  0  0
  139.6310   71.3060  223.2210 C   0  0  0  0  0  0  0  0  0  0  0  0
  139.4050   72.6460  222.6800 N   0  0  0  0  0  0  0  0  0  0  0  0
  140.4430   73.4180  222.0570 C   0  0  0  0  0  0  0  0  0  0  0  0
  141.5070   72.7760  221.4160 C   0  0  0  0  0  0  0  0  0  0  0  0
  142.4970   73.5570  220.8060 C   0  0  0  0  0  0  0  0  0  0  0  0
  143.6000   72.9510  220.1060 N   0  0  0  0  0  0  0  0  0  0  0  0
  144.8390   72.6610  220.8370 C   0  0  0  0  0  0  0  0  0  0  0  0
  145.9470   72.2110  219.8760 C   0  0  0  0  0  0  0  0  0  0  0  0
  145.9170   73.0170  218.6490 N   0  0  0  0  0  0  0  0  0  0  0  0
  144.6730   72.8260  217.8750 C   0  0  0  0  0  0  0  0  0  0  0  0
  143.4520   72.4410  218.7370 C   0  0  0  0  0  0  0  0  0  0  0  0
  142.3820   74.9130  220.8340 N   0  0  0  0  0  0  0  0  0  0  0  0
  141.3460   75.5300  221.4630 C   0  0  0  0  0  0  0  0  0  0  0  0
  141.2600   76.9700  221.4760 N   0  0  0  0  0  0  0  0  0  0  0  0
  140.7360   77.6850  222.6500 C   0  0  0  0  0  0  0  0  0  0  0  0
  141.4880   79.0130  222.8930 C   0  0  0  0  0  0  0  0  0  0  0  0
  142.0800   79.6130  221.6820 N   0  0  0  0  0  0  0  0  0  0  0  0
  141.3770   79.2210  220.4570 C   0  0  0  0  0  0  0  0  0  0  0  0
  141.5110   77.7120  220.2330 C   0  0  0  0  0  0  0  0  0  0  0  0
  140.3910   74.7760  222.0680 N   0  0  0  0  0  0  0  0  0  0  0  0
  141.0470   71.8640  226.5270 C   0  0  0  0  0  0  0  0  0  0  0  0
  140.7740   71.6030  227.8740 C   0  0  0  0  0  0  0  0  0  0  0  0
  139.8227   70.2663  229.2913 H   0  0  0  0  0  0  0  0  0  0  0  0
  139.0042   68.6991  227.5296 H   0  0  0  0  0  0  0  0  0  0  0  0
  139.4886   69.1585  225.1239 H   0  0  0  0  0  0  0  0  0  0  0  0
  141.4268   72.2193  223.9973 H   0  0  0  0  0  0  0  0  0  0  0  0
  141.5342   70.4339  223.7124 H   0  0  0  0  0  0  0  0  0  0  0  0
  139.7339   70.5960  222.3871 H   0  0  0  0  0  0  0  0  0  0  0  0
  138.7735   71.0399  223.8565 H   0  0  0  0  0  0  0  0  0  0  0  0
  138.4440   73.0490  222.7510 H   0  0  0  0  0  0  0  0  0  0  0  0
  141.5655   71.6778  221.3912 H   0  0  0  0  0  0  0  0  0  0  0  0
  145.1667   73.5685  221.3653 H   0  0  0  0  0  0  0  0  0  0  0  0
  144.6434   71.8497  221.5537 H   0  0  0  0  0  0  0  0  0  0  0  0
  146.9241   72.3331  220.3663 H   0  0  0  0  0  0  0  0  0  0  0  0
  145.7857   71.1549  219.6139 H   0  0  0  0  0  0  0  0  0  0  0  0
  145.9970   74.0280  218.9150 H   0  0  0  0  0  0  0  0  0  0  0  0
  144.4440   73.7653  217.3504 H   0  0  0  0  0  0  0  0  0  0  0  0
  144.8525   71.9889  217.1843 H   0  0  0  0  0  0  0  0  0  0  0  0
  142.5439   72.8700  218.2883 H   0  0  0  0  0  0  0  0  0  0  0  0
  143.3783   71.3441  218.7749 H   0  0  0  0  0  0  0  0  0  0  0  0
  139.6701   77.9034  222.4880 H   0  0  0  0  0  0  0  0  0  0  0  0
  140.8773   77.0443  223.5329 H   0  0  0  0  0  0  0  0  0  0  0  0
  140.7785   79.7356  223.3225 H   0  0  0  0  0  0  0  0  0  0  0  0
  142.3254   78.7788  223.5667 H   0  0  0  0  0  0  0  0  0  0  0  0
  143.0780   79.3060  221.6050 H   0  0  0  0  0  0  0  0  0  0  0  0
  140.3124   79.4820  220.5492 H   0  0  0  0  0  0  0  0  0  0  0  0
  141.8201   79.7525  219.6019 H   0  0  0  0  0  0  0  0  0  0  0  0
  140.7826   77.3954  219.4719 H   0  0  0  0  0  0  0  0  0  0  0  0
  142.5366   77.4975  219.8983 H   0  0  0  0  0  0  0  0  0  0  0  0
  141.6308   72.7538  226.2488 H   0  0  0  0  0  0  0  0  0  0  0  0
  141.1379   72.2904  228.6519 H   0  0  0  0  0  0  0  0  0  0  0  0
  1  2  2  0
  2  3  1  0
  3  4  2  0
  4  5  1  0
  5  6  1  0
  6  7  1  0
  7  8  1  0
  8  9  2  0
  9 10  1  0
 10 11  1  0
 11 12  1  0
 12 13  1  0
 13 14  1  0
 14 15  1  0
 15 16  1  0
 10 17  2  0
 17 18  1  0
 18 19  1  0
 19 20  1  0
 20 21  1  0
 21 22  1  0
 22 23  1  0
 23 24  1  0
 18 25  2  0
  4 26  1  0
 26 27  2  0
 27  1  1  0
 25  8  1  0
 16 11  1  0
 24 19  1  0
  1 28  1  0
  2 29  1  0
  3 30  1  0
  5 31  1  0
  5 32  1  0
  6 33  1  0
  6 34  1  0
  7 35  1  0
  9 36  1  0
 12 37  1  0
 12 38  1  0
 13 39  1  0
 13 40  1  0
 14 41  1  0
 15 42  1  0
 15 43  1  0
 16 44  1  0
 16 45  1  0
 20 46  1  0
 20 47  1  0
 21 48  1  0
 21 49  1  0
 22 50  1  0
 23 51  1  0
 23 52  1  0
 24 53  1  0
 24 54  1  0
 26 55  1  0
 27 56  1  0
M  END
>  <UniqueID>  (52) 
520

>  <SMILES>  (52) 
c1ccc(CCNc2cc(N3CCNCC3)nc(N3CCNCC3)n2)cc1

>  <Energy>  (52) 
64.19033298564075

>  <Genealogy>  (52) 
c1ccc(CCNc2cc(N3CCNCC3)nc(N3CCNCC3)n2)cc1 (3D coordinates assigned)
c1ccc(CCNc2cc(N3CCNCC3)nc(N3CCNCC3)n2)cc1 (nonaromatic ring conformer: 64.19033298564075 kcal/mol)

>  <smiles>  (52) 
c1ccc(CCNc2cc(N3CCNCC3)nc(N3CCNCC3)n2)cc1

>  <score_type>  (52) 
oracle

>  <origin>  (52) 
autodockgpu

>  <m_score__min__energy>  (52) 
-9.2300000000000004

>  <m_primary>  (52) 
energy

>  <meeko>  (52) 
{"free_energy": -9.21, "intermolecular_energy": -11.0, "internal_energy": -0.83, "cluster_size": 19, "cluster_id": 1, "rank_in_cluster": 3}

>  <energy>  (52) 
-8.98

>  <cluster_rmsd>  (52) 
0.44

>  <rmsd>  (52) 
270.97

>  <cluster>  (52) 
1

$$$$
USJHBUDYBBTILB-MPIMZMORNA-N
     RDKit          3D

 56 59  0  0  0  0  0  0  0  0999 V2000
  139.7990   69.8010  228.0790 C   0  0  0  0  0  0  0  0  0  0  0  0
  140.3840   71.0640  227.9730 C   0  0  0  0  0  0  0  0  0  0  0  0
  140.7290   71.5740  226.7180 C   0  0  0  0  0  0  0  0  0  0  0  0
  140.4930   70.8170  225.5570 C   0  0  0  0  0  0  0  0  0  0  0  0
  140.8310   71.3790  224.2000 C   0  0  0  0  0  0  0  0  0  0  0  0
  139.6120   71.3690  223.2680 C   0  0  0  0  0  0  0  0  0  0  0  0
  139.3850   72.6850  222.6710 N   0  0  0  0  0  0  0  0  0  0  0  0
  140.4310   73.4440  222.0450 C   0  0  0  0  0  0  0  0  0  0  0  0
  141.4930   72.7900  221.4150 C   0  0  0  0  0  0  0  0  0  0  0  0
  142.4900   73.5580  220.8010 C   0  0  0  0  0  0  0  0  0  0  0  0
  143.5920   72.9380  220.1120 N   0  0  0  0  0  0  0  0  0  0  0  0
  144.8430   72.6910  220.8390 C   0  0  0  0  0  0  0  0  0  0  0  0
  145.9450   72.2160  219.8820 C   0  0  0  0  0  0  0  0  0  0  0  0
  145.8920   72.9750  218.6260 N   0  0  0  0  0  0  0  0  0  0  0  0
  144.6420   72.7400  217.8750 C   0  0  0  0  0  0  0  0  0  0  0  0
  143.4350   72.3750  218.7640 C   0  0  0  0  0  0  0  0  0  0  0  0
  142.3840   74.9150  220.8150 N   0  0  0  0  0  0  0  0  0  0  0  0
  141.3490   75.5450  221.4330 C   0  0  0  0  0  0  0  0  0  0  0  0
  141.2720   76.9850  221.4300 N   0  0  0  0  0  0  0  0  0  0  0  0
  140.6940   77.7130  222.5710 C   0  0  0  0  0  0  0  0  0  0  0  0
  141.4420   79.0380  222.8410 C   0  0  0  0  0  0  0  0  0  0  0  0
  142.0980   79.6250  221.6570 N   0  0  0  0  0  0  0  0  0  0  0  0
  141.4540   79.2280  220.4010 C   0  0  0  0  0  0  0  0  0  0  0  0
  141.5890   77.7160  220.1960 C   0  0  0  0  0  0  0  0  0  0  0  0
  140.3870   74.8030  222.0420 N   0  0  0  0  0  0  0  0  0  0  0  0
  139.8930   69.5520  225.6710 C   0  0  0  0  0  0  0  0  0  0  0  0
  139.5520   69.0450  226.9290 C   0  0  0  0  0  0  0  0  0  0  0  0
  139.5321   69.4002  229.0680 H   0  0  0  0  0  0  0  0  0  0  0  0
  140.5738   71.6589  228.8786 H   0  0  0  0  0  0  0  0  0  0  0  0
  141.1867   72.5711  226.6385 H   0  0  0  0  0  0  0  0  0  0  0  0
  141.1814   72.4149  224.3192 H   0  0  0  0  0  0  0  0  0  0  0  0
  141.6140   70.7502  223.7511 H   0  0  0  0  0  0  0  0  0  0  0  0
  139.7814   70.6364  222.4652 H   0  0  0  0  0  0  0  0  0  0  0  0
  138.7253   71.1006  223.8611 H   0  0  0  0  0  0  0  0  0  0  0  0
  138.4190   73.0810  222.7040 H   0  0  0  0  0  0  0  0  0  0  0  0
  141.5449   71.6913  221.4016 H   0  0  0  0  0  0  0  0  0  0  0  0
  145.1662   73.6222  221.3273 H   0  0  0  0  0  0  0  0  0  0  0  0
  144.6656   71.9066  221.5895 H   0  0  0  0  0  0  0  0  0  0  0  0
  146.9264   72.3664  220.3556 H   0  0  0  0  0  0  0  0  0  0  0  0
  145.7920   71.1492  219.6619 H   0  0  0  0  0  0  0  0  0  0  0  0
  145.9640   73.9960  218.8530 H   0  0  0  0  0  0  0  0  0  0  0  0
  144.3963   73.6556  217.3171 H   0  0  0  0  0  0  0  0  0  0  0  0
  144.8239   71.8783  217.2159 H   0  0  0  0  0  0  0  0  0  0  0  0
  142.5175   72.7771  218.3096 H   0  0  0  0  0  0  0  0  0  0  0  0
  143.3738   71.2796  218.8438 H   0  0  0  0  0  0  0  0  0  0  0  0
  139.6392   77.9369  222.3537 H   0  0  0  0  0  0  0  0  0  0  0  0
  140.7860   77.0787  223.4650 H   0  0  0  0  0  0  0  0  0  0  0  0
  140.7169   79.7685  223.2290 H   0  0  0  0  0  0  0  0  0  0  0  0
  142.2432   78.8034  223.5572 H   0  0  0  0  0  0  0  0  0  0  0  0
  143.0960   79.3120  221.6320 H   0  0  0  0  0  0  0  0  0  0  0  0
  140.3879   79.4965  220.4379 H   0  0  0  0  0  0  0  0  0  0  0  0
  141.9424   79.7500  219.5649 H   0  0  0  0  0  0  0  0  0  0  0  0
  140.8973   77.3978  219.4021 H   0  0  0  0  0  0  0  0  0  0  0  0
  142.6288   77.4929  219.9149 H   0  0  0  0  0  0  0  0  0  0  0  0
  139.6906   68.9580  224.7675 H   0  0  0  0  0  0  0  0  0  0  0  0
  139.0891   68.0507  227.0138 H   0  0  0  0  0  0  0  0  0  0  0  0
  1  2  2  0
  2  3  1  0
  3  4  2  0
  4  5  1  0
  5  6  1  0
  6  7  1  0
  7  8  1  0
  8  9  2  0
  9 10  1  0
 10 11  1  0
 11 12  1  0
 12 13  1  0
 13 14  1  0
 14 15  1  0
 15 16  1  0
 10 17  2  0
 17 18  1  0
 18 19  1  0
 19 20  1  0
 20 21  1  0
 21 22  1  0
 22 23  1  0
 23 24  1  0
 18 25  2  0
  4 26  1  0
 26 27  2  0
 27  1  1  0
 25  8  1  0
 16 11  1  0
 24 19  1  0
  1 28  1  0
  2 29  1  0
  3 30  1  0
  5 31  1  0
  5 32  1  0
  6 33  1  0
  6 34  1  0
  7 35  1  0
  9 36  1  0
 12 37  1  0
 12 38  1  0
 13 39  1  0
 13 40  1  0
 14 41  1  0
 15 42  1  0
 15 43  1  0
 16 44  1  0
 16 45  1  0
 20 46  1  0
 20 47  1  0
 21 48  1  0
 21 49  1  0
 22 50  1  0
 23 51  1  0
 23 52  1  0
 24 53  1  0
 24 54  1  0
 26 55  1  0
 27 56  1  0
M  END
>  <UniqueID>  (53) 
520

>  <SMILES>  (53) 
c1ccc(CCNc2cc(N3CCNCC3)nc(N3CCNCC3)n2)cc1

>  <Energy>  (53) 
64.19033298564075

>  <Genealogy>  (53) 
c1ccc(CCNc2cc(N3CCNCC3)nc(N3CCNCC3)n2)cc1 (3D coordinates assigned)
c1ccc(CCNc2cc(N3CCNCC3)nc(N3CCNCC3)n2)cc1 (nonaromatic ring conformer: 64.19033298564075 kcal/mol)

>  <smiles>  (53) 
c1ccc(CCNc2cc(N3CCNCC3)nc(N3CCNCC3)n2)cc1

>  <score_type>  (53) 
oracle

>  <origin>  (53) 
autodockgpu

>  <m_score__min__energy>  (53) 
-9.2300000000000004

>  <m_primary>  (53) 
energy

>  <meeko>  (53) 
{"free_energy": -9.12, "intermolecular_energy": -10.91, "internal_energy": -0.82, "cluster_size": 19, "cluster_id": 1, "rank_in_cluster": 6}

>  <energy>  (53) 
-8.94

>  <cluster_rmsd>  (53) 
0.5

>  <rmsd>  (53) 
270.88

>  <cluster>  (53) 
1

$$$$
USJHBUDYBBTILB-MPIMZMORNA-N
     RDKit          3D

 56 59  0  0  0  0  0  0  0  0999 V2000
  140.4940   70.1160  227.9500 C   0  0  0  0  0  0  0  0  0  0  0  0
  139.9790   69.4110  226.8600 C   0  0  0  0  0  0  0  0  0  0  0  0
  140.0310   69.9680  225.5780 C   0  0  0  0  0  0  0  0  0  0  0  0
  140.5970   71.2390  225.3800 C   0  0  0  0  0  0  0  0  0  0  0  0
  140.6860   71.8260  223.9940 C   0  0  0  0  0  0  0  0  0  0  0  0
  139.4180   71.5380  223.1800 C   0  0  0  0  0  0  0  0  0  0  0  0
  139.2200   72.5380  222.1310 N   0  0  0  0  0  0  0  0  0  0  0  0
  140.2680   73.4080  221.6780 C   0  0  0  0  0  0  0  0  0  0  0  0
  140.1340   74.7940  221.8030 C   0  0  0  0  0  0  0  0  0  0  0  0
  141.1810   75.6150  221.3650 C   0  0  0  0  0  0  0  0  0  0  0  0
  141.1120   77.0470  221.4960 N   0  0  0  0  0  0  0  0  0  0  0  0
  141.3760   77.8870  220.3220 C   0  0  0  0  0  0  0  0  0  0  0  0
  141.4510   79.3680  220.7160 C   0  0  0  0  0  0  0  0  0  0  0  0
  142.1750   79.5230  221.9840 N   0  0  0  0  0  0  0  0  0  0  0  0
  141.4740   78.8860  223.1180 C   0  0  0  0  0  0  0  0  0  0  0  0
  140.5970   77.6820  222.7170 C   0  0  0  0  0  0  0  0  0  0  0  0
  142.3040   75.0410  220.8540 N   0  0  0  0  0  0  0  0  0  0  0  0
  142.4260   73.6910  220.7320 C   0  0  0  0  0  0  0  0  0  0  0  0
  143.6300   73.1190  220.1810 N   0  0  0  0  0  0  0  0  0  0  0  0
  143.5680   72.1480  219.0780 C   0  0  0  0  0  0  0  0  0  0  0  0
  144.7400   72.3330  218.0880 C   0  0  0  0  0  0  0  0  0  0  0  0
  145.9550   72.9260  218.6790 N   0  0  0  0  0  0  0  0  0  0  0  0
  146.0620   72.6730  220.1190 C   0  0  0  0  0  0  0  0  0  0  0  0
  144.9100   73.3580  220.8610 C   0  0  0  0  0  0  0  0  0  0  0  0
  141.4060   72.8920  221.1430 N   0  0  0  0  0  0  0  0  0  0  0  0
  141.1230   71.9360  226.4800 C   0  0  0  0  0  0  0  0  0  0  0  0
  141.0670   71.3780  227.7610 C   0  0  0  0  0  0  0  0  0  0  0  0
  140.4490   69.6784  228.9582 H   0  0  0  0  0  0  0  0  0  0  0  0
  139.5322   68.4171  227.0097 H   0  0  0  0  0  0  0  0  0  0  0  0
  139.6272   69.4088  224.7211 H   0  0  0  0  0  0  0  0  0  0  0  0
  140.8195   72.9149  224.0747 H   0  0  0  0  0  0  0  0  0  0  0  0
  141.5405   71.3644  223.4775 H   0  0  0  0  0  0  0  0  0  0  0  0
  139.5084   70.5449  222.7156 H   0  0  0  0  0  0  0  0  0  0  0  0
  138.5541   71.5731  223.8600 H   0  0  0  0  0  0  0  0  0  0  0  0
  138.2720   72.6140  221.6970 H   0  0  0  0  0  0  0  0  0  0  0  0
  139.2231   75.2317  222.2373 H   0  0  0  0  0  0  0  0  0  0  0  0
  142.3327   77.5852  219.8707 H   0  0  0  0  0  0  0  0  0  0  0  0
  140.5542   77.7552  219.6028 H   0  0  0  0  0  0  0  0  0  0  0  0
  141.9765   79.9269  219.9276 H   0  0  0  0  0  0  0  0  0  0  0  0
  140.4295   79.7576  220.8378 H   0  0  0  0  0  0  0  0  0  0  0  0
  143.1210   79.0830  221.8810 H   0  0  0  0  0  0  0  0  0  0  0  0
  142.2280   78.5395  223.8401 H   0  0  0  0  0  0  0  0  0  0  0  0
  140.7990   79.6444  223.5414 H   0  0  0  0  0  0  0  0  0  0  0  0
  140.5985   76.9462  223.5347 H   0  0  0  0  0  0  0  0  0  0  0  0
  139.5741   78.0383  222.5254 H   0  0  0  0  0  0  0  0  0  0  0  0
  143.6108   71.1311  219.4953 H   0  0  0  0  0  0  0  0  0  0  0  0
  142.6276   72.3099  218.5307 H   0  0  0  0  0  0  0  0  0  0  0  0
  145.0035   71.3461  217.6798 H   0  0  0  0  0  0  0  0  0  0  0  0
  144.3908   73.0383  217.3195 H   0  0  0  0  0  0  0  0  0  0  0  0
  145.9380   73.9610  218.5240 H   0  0  0  0  0  0  0  0  0  0  0  0
  146.0193   71.5892  220.3021 H   0  0  0  0  0  0  0  0  0  0  0  0
  147.0171   73.0772  220.4855 H   0  0  0  0  0  0  0  0  0  0  0  0
  144.8536   72.9590  221.8845 H   0  0  0  0  0  0  0  0  0  0  0  0
  145.1001   74.4413  220.8797 H   0  0  0  0  0  0  0  0  0  0  0  0
  141.5811   72.9253  226.3332 H   0  0  0  0  0  0  0  0  0  0  0  0
  141.4736   71.9316  228.6202 H   0  0  0  0  0  0  0  0  0  0  0  0
  1  2  2  0
  2  3  1  0
  3  4  2  0
  4  5  1  0
  5  6  1  0
  6  7  1  0
  7  8  1  0
  8  9  2  0
  9 10  1  0
 10 11  1  0
 11 12  1  0
 12 13  1  0
 13 14  1  0
 14 15  1  0
 15 16  1  0
 10 17  2  0
 17 18  1  0
 18 19  1  0
 19 20  1  0
 20 21  1  0
 21 22  1  0
 22 23  1  0
 23 24  1  0
 18 25  2  0
  4 26  1  0
 26 27  2  0
 27  1  1  0
 25  8  1  0
 16 11  1  0
 24 19  1  0
  1 28  1  0
  2 29  1  0
  3 30  1  0
  5 31  1  0
  5 32  1  0
  6 33  1  0
  6 34  1  0
  7 35  1  0
  9 36  1  0
 12 37  1  0
 12 38  1  0
 13 39  1  0
 13 40  1  0
 14 41  1  0
 15 42  1  0
 15 43  1  0
 16 44  1  0
 16 45  1  0
 20 46  1  0
 20 47  1  0
 21 48  1  0
 21 49  1  0
 22 50  1  0
 23 51  1  0
 23 52  1  0
 24 53  1  0
 24 54  1  0
 26 55  1  0
 27 56  1  0
M  END
>  <UniqueID>  (54) 
520

>  <SMILES>  (54) 
c1ccc(CCNc2cc(N3CCNCC3)nc(N3CCNCC3)n2)cc1

>  <Energy>  (54) 
64.19033298564075

>  <Genealogy>  (54) 
c1ccc(CCNc2cc(N3CCNCC3)nc(N3CCNCC3)n2)cc1 (3D coordinates assigned)
c1ccc(CCNc2cc(N3CCNCC3)nc(N3CCNCC3)n2)cc1 (nonaromatic ring conformer: 64.19033298564075 kcal/mol)

>  <smiles>  (54) 
c1ccc(CCNc2cc(N3CCNCC3)nc(N3CCNCC3)n2)cc1

>  <score_type>  (54) 
oracle

>  <origin>  (54) 
autodockgpu

>  <m_score__min__energy>  (54) 
-9.2300000000000004

>  <m_primary>  (54) 
energy

>  <meeko>  (54) 
{"free_energy": -8.63, "intermolecular_energy": -10.42, "internal_energy": -0.89, "cluster_size": 19, "cluster_id": 1, "rank_in_cluster": 17}

>  <energy>  (54) 
-8.93

>  <cluster_rmsd>  (54) 
1.08

>  <rmsd>  (54) 
271.03

>  <cluster>  (54) 
1

$$$$
USJHBUDYBBTILB-MPIMZMORNA-N
     RDKit          3D

 56 59  0  0  0  0  0  0  0  0999 V2000
  140.5980   70.0550  228.3200 C   0  0  0  0  0  0  0  0  0  0  0  0
  140.2500   69.1980  227.2730 C   0  0  0  0  0  0  0  0  0  0  0  0
  140.2730   69.6590  225.9530 C   0  0  0  0  0  0  0  0  0  0  0  0
  140.6400   70.9860  225.6730 C   0  0  0  0  0  0  0  0  0  0  0  0
  140.6990   71.4750  224.2470 C   0  0  0  0  0  0  0  0  0  0  0  0
  139.3030   71.5270  223.6130 C   0  0  0  0  0  0  0  0  0  0  0  0
  139.3500   72.0980  222.2670 N   0  0  0  0  0  0  0  0  0  0  0  0
  140.4090   72.9610  221.8260 C   0  0  0  0  0  0  0  0  0  0  0  0
  141.5780   72.4180  221.2860 C   0  0  0  0  0  0  0  0  0  0  0  0
  142.5870   73.2880  220.8520 C   0  0  0  0  0  0  0  0  0  0  0  0
  143.8010   72.7860  220.2600 N   0  0  0  0  0  0  0  0  0  0  0  0
  145.0700   72.9570  220.9780 C   0  0  0  0  0  0  0  0  0  0  0  0
  146.2550   72.5410  220.0950 C   0  0  0  0  0  0  0  0  0  0  0  0
  146.0520   73.0040  218.7170 N   0  0  0  0  0  0  0  0  0  0  0  0
  144.8860   72.3680  218.0710 C   0  0  0  0  0  0  0  0  0  0  0  0
  143.7770   71.9440  219.0570 C   0  0  0  0  0  0  0  0  0  0  0  0
  142.3910   74.6310  220.9460 N   0  0  0  0  0  0  0  0  0  0  0  0
  141.2510   75.1520  221.4760 C   0  0  0  0  0  0  0  0  0  0  0  0
  141.0800   76.5810  221.5630 N   0  0  0  0  0  0  0  0  0  0  0  0
  140.1370   77.1710  222.5250 C   0  0  0  0  0  0  0  0  0  0  0  0
  140.6750   78.4940  223.1150 C   0  0  0  0  0  0  0  0  0  0  0  0
  141.6160   79.2190  222.2390 N   0  0  0  0  0  0  0  0  0  0  0  0
  141.4100   78.9180  220.8190 C   0  0  0  0  0  0  0  0  0  0  0  0
  141.7040   77.4390  220.5470 C   0  0  0  0  0  0  0  0  0  0  0  0
  140.2760   74.3110  221.9110 N   0  0  0  0  0  0  0  0  0  0  0  0
  140.9990   71.8380  226.7300 C   0  0  0  0  0  0  0  0  0  0  0  0
  140.9740   71.3740  228.0490 C   0  0  0  0  0  0  0  0  0  0  0  0
  140.5762   69.6918  229.3581 H   0  0  0  0  0  0  0  0  0  0  0  0
  139.9576   68.1594  227.4872 H   0  0  0  0  0  0  0  0  0  0  0  0
  140.0027   68.9801  225.1308 H   0  0  0  0  0  0  0  0  0  0  0  0
  141.1359   72.4844  224.2329 H   0  0  0  0  0  0  0  0  0  0  0  0
  141.3161   70.7734  223.6665 H   0  0  0  0  0  0  0  0  0  0  0  0
  138.8979   70.5060  223.5549 H   0  0  0  0  0  0  0  0  0  0  0  0
  138.6619   72.1658  224.2383 H   0  0  0  0  0  0  0  0  0  0  0  0
  138.5780   71.8600  221.6040 H   0  0  0  0  0  0  0  0  0  0  0  0
  141.7036   71.3283  221.2032 H   0  0  0  0  0  0  0  0  0  0  0  0
  145.1847   74.0136  221.2615 H   0  0  0  0  0  0  0  0  0  0  0  0
  145.0570   72.3199  221.8746 H   0  0  0  0  0  0  0  0  0  0  0  0
  147.1786   72.9853  220.4945 H   0  0  0  0  0  0  0  0  0  0  0  0
  146.3332   71.4438  220.0955 H   0  0  0  0  0  0  0  0  0  0  0  0
  145.9040   74.0420  218.7340 H   0  0  0  0  0  0  0  0  0  0  0  0
  144.4562   73.0818  217.3528 H   0  0  0  0  0  0  0  0  0  0  0  0
  145.2510   71.4496  217.5879 H   0  0  0  0  0  0  0  0  0  0  0  0
  142.7984   72.0454  218.5649 H   0  0  0  0  0  0  0  0  0  0  0  0
  143.9489   70.8989  219.3539 H   0  0  0  0  0  0  0  0  0  0  0  0
  139.1839   77.3704  222.0133 H   0  0  0  0  0  0  0  0  0  0  0  0
  139.9993   76.4581  223.3513 H   0  0  0  0  0  0  0  0  0  0  0  0
  139.8179   79.1529  223.3179 H   0  0  0  0  0  0  0  0  0  0  0  0
  141.2367   78.2256  224.0219 H   0  0  0  0  0  0  0  0  0  0  0  0
  142.5940   78.9510  222.4970 H   0  0  0  0  0  0  0  0  0  0  0  0
  140.3667   79.1375  220.5480 H   0  0  0  0  0  0  0  0  0  0  0  0
  142.0910   79.5374  220.2169 H   0  0  0  0  0  0  0  0  0  0  0  0
  141.3076   77.1700  219.5568 H   0  0  0  0  0  0  0  0  0  0  0  0
  142.7929   77.2868  220.5816 H   0  0  0  0  0  0  0  0  0  0  0  0
  141.3011   72.8746  226.5196 H   0  0  0  0  0  0  0  0  0  0  0  0
  141.2504   72.0473  228.8738 H   0  0  0  0  0  0  0  0  0  0  0  0
  1  2  2  0
  2  3  1  0
  3  4  2  0
  4  5  1  0
  5  6  1  0
  6  7  1  0
  7  8  1  0
  8  9  2  0
  9 10  1  0
 10 11  1  0
 11 12  1  0
 12 13  1  0
 13 14  1  0
 14 15  1  0
 15 16  1  0
 10 17  2  0
 17 18  1  0
 18 19  1  0
 19 20  1  0
 20 21  1  0
 21 22  1  0
 22 23  1  0
 23 24  1  0
 18 25  2  0
  4 26  1  0
 26 27  2  0
 27  1  1  0
 25  8  1  0
 16 11  1  0
 24 19  1  0
  1 28  1  0
  2 29  1  0
  3 30  1  0
  5 31  1  0
  5 32  1  0
  6 33  1  0
  6 34  1  0
  7 35  1  0
  9 36  1  0
 12 37  1  0
 12 38  1  0
 13 39  1  0
 13 40  1  0
 14 41  1  0
 15 42  1  0
 15 43  1  0
 16 44  1  0
 16 45  1  0
 20 46  1  0
 20 47  1  0
 21 48  1  0
 21 49  1  0
 22 50  1  0
 23 51  1  0
 23 52  1  0
 24 53  1  0
 24 54  1  0
 26 55  1  0
 27 56  1  0
M  END
>  <UniqueID>  (55) 
520

>  <SMILES>  (55) 
c1ccc(CCNc2cc(N3CCNCC3)nc(N3CCNCC3)n2)cc1

>  <Energy>  (55) 
64.19033298564075

>  <Genealogy>  (55) 
c1ccc(CCNc2cc(N3CCNCC3)nc(N3CCNCC3)n2)cc1 (3D coordinates assigned)
c1ccc(CCNc2cc(N3CCNCC3)nc(N3CCNCC3)n2)cc1 (nonaromatic ring conformer: 64.19033298564075 kcal/mol)

>  <smiles>  (55) 
c1ccc(CCNc2cc(N3CCNCC3)nc(N3CCNCC3)n2)cc1

>  <score_type>  (55) 
oracle

>  <origin>  (55) 
autodockgpu

>  <m_score__min__energy>  (55) 
-9.2300000000000004

>  <m_primary>  (55) 
energy

>  <meeko>  (55) 
{"free_energy": -8.62, "intermolecular_energy": -10.41, "internal_energy": -0.85, "cluster_size": 19, "cluster_id": 1, "rank_in_cluster": 18}

>  <energy>  (55) 
-8.87

>  <cluster_rmsd>  (55) 
0.99

>  <rmsd>  (55) 
271.03

>  <cluster>  (55) 
1

$$$$
USJHBUDYBBTILB-MPIMZMORNA-N
     RDKit          3D

 56 59  0  0  0  0  0  0  0  0999 V2000
  141.0700   70.9540  227.6460 C   0  0  0  0  0  0  0  0  0  0  0  0
  141.3480   71.8610  226.6210 C   0  0  0  0  0  0  0  0  0  0  0  0
  140.6910   71.7520  225.3910 C   0  0  0  0  0  0  0  0  0  0  0  0
  139.7520   70.7280  225.1780 C   0  0  0  0  0  0  0  0  0  0  0  0
  139.0170   70.6310  223.8660 C   0  0  0  0  0  0  0  0  0  0  0  0
  139.8440   71.2140  222.7130 C   0  0  0  0  0  0  0  0  0  0  0  0
  139.6350   72.6560  222.5820 N   0  0  0  0  0  0  0  0  0  0  0  0
  140.5920   73.5270  221.9610 C   0  0  0  0  0  0  0  0  0  0  0  0
  140.3700   74.9060  221.9310 C   0  0  0  0  0  0  0  0  0  0  0  0
  141.3300   75.7310  221.3290 C   0  0  0  0  0  0  0  0  0  0  0  0
  141.1690   77.1620  221.2960 N   0  0  0  0  0  0  0  0  0  0  0  0
  141.4700   77.8860  220.0560 C   0  0  0  0  0  0  0  0  0  0  0  0
  141.4320   79.4030  220.2880 C   0  0  0  0  0  0  0  0  0  0  0  0
  142.0520   79.7380  221.5760 N   0  0  0  0  0  0  0  0  0  0  0  0
  141.3080   79.1820  222.7240 C   0  0  0  0  0  0  0  0  0  0  0  0
  140.5320   77.8880  222.4020 C   0  0  0  0  0  0  0  0  0  0  0  0
  142.4570   75.1690  220.8140 N   0  0  0  0  0  0  0  0  0  0  0  0
  142.6630   73.8250  220.8430 C   0  0  0  0  0  0  0  0  0  0  0  0
  143.8690   73.2650  220.2830 N   0  0  0  0  0  0  0  0  0  0  0  0
  143.8080   72.1680  219.3050 C   0  0  0  0  0  0  0  0  0  0  0  0
  144.9050   72.3050  218.2240 C   0  0  0  0  0  0  0  0  0  0  0  0
  146.1100   73.0350  218.6620 N   0  0  0  0  0  0  0  0  0  0  0  0
  146.3180   72.9610  220.1110 C   0  0  0  0  0  0  0  0  0  0  0  0
  145.1680   73.6590  220.8440 C   0  0  0  0  0  0  0  0  0  0  0  0
  141.7280   73.0200  221.4130 N   0  0  0  0  0  0  0  0  0  0  0  0
  139.4690   69.8270  226.2180 C   0  0  0  0  0  0  0  0  0  0  0  0
  140.1300   69.9380  227.4460 C   0  0  0  0  0  0  0  0  0  0  0  0
  141.5907   71.0388  228.6112 H   0  0  0  0  0  0  0  0  0  0  0  0
  142.0846   72.6621  226.7812 H   0  0  0  0  0  0  0  0  0  0  0  0
  140.9100   72.4704  224.5873 H   0  0  0  0  0  0  0  0  0  0  0  0
  138.8036   69.5731  223.6534 H   0  0  0  0  0  0  0  0  0  0  0  0
  138.0853   71.2098  223.9491 H   0  0  0  0  0  0  0  0  0  0  0  0
  140.9101   71.0229  222.9049 H   0  0  0  0  0  0  0  0  0  0  0  0
  139.5230   70.7313  221.7781 H   0  0  0  0  0  0  0  0  0  0  0  0
  138.7470   73.0600  222.9570 H   0  0  0  0  0  0  0  0  0  0  0  0
  139.4586   75.3364  222.3717 H   0  0  0  0  0  0  0  0  0  0  0  0
  142.4726   77.5997  219.7054 H   0  0  0  0  0  0  0  0  0  0  0  0
  140.7122   77.6253  219.3025 H   0  0  0  0  0  0  0  0  0  0  0  0
  141.9808   79.9075  219.4791 H   0  0  0  0  0  0  0  0  0  0  0  0
  140.3840   79.7369  220.2982 H   0  0  0  0  0  0  0  0  0  0  0  0
  143.0260   79.3520  221.5850 H   0  0  0  0  0  0  0  0  0  0  0  0
  142.0259   78.9637  223.5283 H   0  0  0  0  0  0  0  0  0  0  0  0
  140.5620   79.9362  223.0150 H   0  0  0  0  0  0  0  0  0  0  0  0
  140.5162   77.2450  223.2943 H   0  0  0  0  0  0  0  0  0  0  0  0
  139.5069   78.1550  222.1056 H   0  0  0  0  0  0  0  0  0  0  0  0
  143.9442   71.2122  219.8322 H   0  0  0  0  0  0  0  0  0  0  0  0
  142.8282   72.2066  218.8065 H   0  0  0  0  0  0  0  0  0  0  0  0
  145.2096   71.2945  217.9140 H   0  0  0  0  0  0  0  0  0  0  0  0
  144.4645   72.8926  217.4050 H   0  0  0  0  0  0  0  0  0  0  0  0
  146.0130   74.0420  218.3910 H   0  0  0  0  0  0  0  0  0  0  0  0
  146.3588   71.9059  220.4193 H   0  0  0  0  0  0  0  0  0  0  0  0
  147.2638   73.4619  220.3651 H   0  0  0  0  0  0  0  0  0  0  0  0
  145.1991   73.3819  221.9081 H   0  0  0  0  0  0  0  0  0  0  0  0
  145.2856   74.7462  220.7248 H   0  0  0  0  0  0  0  0  0  0  0  0
  138.7249   69.0312  226.0662 H   0  0  0  0  0  0  0  0  0  0  0  0
  139.9102   69.2256  228.2548 H   0  0  0  0  0  0  0  0  0  0  0  0
  1  2  2  0
  2  3  1  0
  3  4  2  0
  4  5  1  0
  5  6  1  0
  6  7  1  0
  7  8  1  0
  8  9  2  0
  9 10  1  0
 10 11  1  0
 11 12  1  0
 12 13  1  0
 13 14  1  0
 14 15  1  0
 15 16  1  0
 10 17  2  0
 17 18  1  0
 18 19  1  0
 19 20  1  0
 20 21  1  0
 21 22  1  0
 22 23  1  0
 23 24  1  0
 18 25  2  0
  4 26  1  0
 26 27  2  0
 27  1  1  0
 25  8  1  0
 16 11  1  0
 24 19  1  0
  1 28  1  0
  2 29  1  0
  3 30  1  0
  5 31  1  0
  5 32  1  0
  6 33  1  0
  6 34  1  0
  7 35  1  0
  9 36  1  0
 12 37  1  0
 12 38  1  0
 13 39  1  0
 13 40  1  0
 14 41  1  0
 15 42  1  0
 15 43  1  0
 16 44  1  0
 16 45  1  0
 20 46  1  0
 20 47  1  0
 21 48  1  0
 21 49  1  0
 22 50  1  0
 23 51  1  0
 23 52  1  0
 24 53  1  0
 24 54  1  0
 26 55  1  0
 27 56  1  0
M  END
>  <UniqueID>  (56) 
520

>  <SMILES>  (56) 
c1ccc(CCNc2cc(N3CCNCC3)nc(N3CCNCC3)n2)cc1

>  <Energy>  (56) 
64.19033298564075

>  <Genealogy>  (56) 
c1ccc(CCNc2cc(N3CCNCC3)nc(N3CCNCC3)n2)cc1 (3D coordinates assigned)
c1ccc(CCNc2cc(N3CCNCC3)nc(N3CCNCC3)n2)cc1 (nonaromatic ring conformer: 64.19033298564075 kcal/mol)

>  <smiles>  (56) 
c1ccc(CCNc2cc(N3CCNCC3)nc(N3CCNCC3)n2)cc1

>  <score_type>  (56) 
oracle

>  <origin>  (56) 
autodockgpu

>  <m_score__min__energy>  (56) 
-9.2300000000000004

>  <m_primary>  (56) 
energy

>  <meeko>  (56) 
{"free_energy": -8.78, "intermolecular_energy": -10.57, "internal_energy": -0.88, "cluster_size": 19, "cluster_id": 1, "rank_in_cluster": 16}

>  <energy>  (56) 
-8.78

>  <cluster_rmsd>  (56) 
0.69

>  <rmsd>  (56) 
271.01

>  <cluster>  (56) 
1

$$$$
USJHBUDYBBTILB-MPIMZMORNA-N
     RDKit          3D

 56 59  0  0  0  0  0  0  0  0999 V2000
  140.1320   68.3300  227.9760 C   0  0  0  0  0  0  0  0  0  0  0  0
  139.9620   67.9980  226.6300 C   0  0  0  0  0  0  0  0  0  0  0  0
  140.1410   68.9700  225.6410 C   0  0  0  0  0  0  0  0  0  0  0  0
  140.4870   70.2850  225.9950 C   0  0  0  0  0  0  0  0  0  0  0  0
  140.7150   71.3260  224.9280 C   0  0  0  0  0  0  0  0  0  0  0  0
  139.8220   71.0810  223.7050 C   0  0  0  0  0  0  0  0  0  0  0  0
  139.4860   72.3350  223.0310 N   0  0  0  0  0  0  0  0  0  0  0  0
  140.4480   73.1020  222.2900 C   0  0  0  0  0  0  0  0  0  0  0  0
  141.4560   72.4550  221.5700 C   0  0  0  0  0  0  0  0  0  0  0  0
  142.3720   73.2300  220.8460 C   0  0  0  0  0  0  0  0  0  0  0  0
  143.4130   72.6180  220.0620 N   0  0  0  0  0  0  0  0  0  0  0  0
  143.5320   71.1550  220.0480 C   0  0  0  0  0  0  0  0  0  0  0  0
  144.8130   70.7190  219.3250 C   0  0  0  0  0  0  0  0  0  0  0  0
  145.9280   71.6040  219.6820 N   0  0  0  0  0  0  0  0  0  0  0  0
  145.7160   72.9930  219.2280 C   0  0  0  0  0  0  0  0  0  0  0  0
  144.2320   73.4020  219.1280 C   0  0  0  0  0  0  0  0  0  0  0  0
  142.2400   74.5840  220.8470 N   0  0  0  0  0  0  0  0  0  0  0  0
  141.2580   75.2070  221.5540 C   0  0  0  0  0  0  0  0  0  0  0  0
  141.1510   76.6450  221.5340 N   0  0  0  0  0  0  0  0  0  0  0  0
  140.6370   77.3800  222.6990 C   0  0  0  0  0  0  0  0  0  0  0  0
  141.3730   78.7240  222.8980 C   0  0  0  0  0  0  0  0  0  0  0  0
  141.9360   79.3040  221.6630 N   0  0  0  0  0  0  0  0  0  0  0  0
  141.2180   78.8730  220.4600 C   0  0  0  0  0  0  0  0  0  0  0  0
  141.3710   77.3610  220.2700 C   0  0  0  0  0  0  0  0  0  0  0  0
  140.3760   74.4590  222.2680 N   0  0  0  0  0  0  0  0  0  0  0  0
  140.6680   70.6080  227.3500 C   0  0  0  0  0  0  0  0  0  0  0  0
  140.4860   69.6340  228.3370 C   0  0  0  0  0  0  0  0  0  0  0  0
  139.9873   67.5650  228.7530 H   0  0  0  0  0  0  0  0  0  0  0  0
  139.6871   66.9710  226.3478 H   0  0  0  0  0  0  0  0  0  0  0  0
  140.0104   68.7042  224.5816 H   0  0  0  0  0  0  0  0  0  0  0  0
  140.4884   72.3191  225.3431 H   0  0  0  0  0  0  0  0  0  0  0  0
  141.7653   71.2669  224.6064 H   0  0  0  0  0  0  0  0  0  0  0  0
  140.3536   70.4262  222.9989 H   0  0  0  0  0  0  0  0  0  0  0  0
  138.8884   70.6099  224.0462 H   0  0  0  0  0  0  0  0  0  0  0  0
  138.5010   72.6790  223.0930 H   0  0  0  0  0  0  0  0  0  0  0  0
  141.5291   71.3574  221.5716 H   0  0  0  0  0  0  0  0  0  0  0  0
  143.5590   70.7855  221.0838 H   0  0  0  0  0  0  0  0  0  0  0  0
  142.6662   70.7361  219.5143 H   0  0  0  0  0  0  0  0  0  0  0  0
  145.0609   69.6878  219.6168 H   0  0  0  0  0  0  0  0  0  0  0  0
  144.6466   70.7747  218.2391 H   0  0  0  0  0  0  0  0  0  0  0  0
  146.0310   71.6020  220.7250 H   0  0  0  0  0  0  0  0  0  0  0  0
  146.2137   73.6688  219.9390 H   0  0  0  0  0  0  0  0  0  0  0  0
  146.1339   73.0628  218.2129 H   0  0  0  0  0  0  0  0  0  0  0  0
  144.1347   74.4703  219.3716 H   0  0  0  0  0  0  0  0  0  0  0  0
  143.8808   73.2105  218.1033 H   0  0  0  0  0  0  0  0  0  0  0  0
  139.5654   77.5791  222.5503 H   0  0  0  0  0  0  0  0  0  0  0  0
  140.8031   76.7626  223.5941 H   0  0  0  0  0  0  0  0  0  0  0  0
  140.6601   79.4462  223.3224 H   0  0  0  0  0  0  0  0  0  0  0  0
  142.2249   78.5179  223.5626 H   0  0  0  0  0  0  0  0  0  0  0  0
  142.9370   79.0090  221.5760 H   0  0  0  0  0  0  0  0  0  0  0  0
  140.1513   79.1206  220.5645 H   0  0  0  0  0  0  0  0  0  0  0  0
  141.6380   79.3905  219.5849 H   0  0  0  0  0  0  0  0  0  0  0  0
  140.6355   77.0157  219.5286 H   0  0  0  0  0  0  0  0  0  0  0  0
  142.3944   77.1537  219.9242 H   0  0  0  0  0  0  0  0  0  0  0  0
  140.9540   71.6310  227.6359 H   0  0  0  0  0  0  0  0  0  0  0  0
  140.6213   69.8936  229.3973 H   0  0  0  0  0  0  0  0  0  0  0  0
  1  2  2  0
  2  3  1  0
  3  4  2  0
  4  5  1  0
  5  6  1  0
  6  7  1  0
  7  8  1  0
  8  9  2  0
  9 10  1  0
 10 11  1  0
 11 12  1  0
 12 13  1  0
 13 14  1  0
 14 15  1  0
 15 16  1  0
 10 17  2  0
 17 18  1  0
 18 19  1  0
 19 20  1  0
 20 21  1  0
 21 22  1  0
 22 23  1  0
 23 24  1  0
 18 25  2  0
  4 26  1  0
 26 27  2  0
 27  1  1  0
 25  8  1  0
 16 11  1  0
 24 19  1  0
  1 28  1  0
  2 29  1  0
  3 30  1  0
  5 31  1  0
  5 32  1  0
  6 33  1  0
  6 34  1  0
  7 35  1  0
  9 36  1  0
 12 37  1  0
 12 38  1  0
 13 39  1  0
 13 40  1  0
 14 41  1  0
 15 42  1  0
 15 43  1  0
 16 44  1  0
 16 45  1  0
 20 46  1  0
 20 47  1  0
 21 48  1  0
 21 49  1  0
 22 50  1  0
 23 51  1  0
 23 52  1  0
 24 53  1  0
 24 54  1  0
 26 55  1  0
 27 56  1  0
M  END
>  <UniqueID>  (57) 
520

>  <SMILES>  (57) 
c1ccc(CCNc2cc(N3CCNCC3)nc(N3CCNCC3)n2)cc1

>  <Energy>  (57) 
64.19033298564075

>  <Genealogy>  (57) 
c1ccc(CCNc2cc(N3CCNCC3)nc(N3CCNCC3)n2)cc1 (3D coordinates assigned)
c1ccc(CCNc2cc(N3CCNCC3)nc(N3CCNCC3)n2)cc1 (nonaromatic ring conformer: 64.19033298564075 kcal/mol)

>  <smiles>  (57) 
c1ccc(CCNc2cc(N3CCNCC3)nc(N3CCNCC3)n2)cc1

>  <score_type>  (57) 
oracle

>  <origin>  (57) 
autodockgpu

>  <m_score__min__energy>  (57) 
-9.2300000000000004

>  <m_primary>  (57) 
energy

>  <meeko>  (57) 
{"free_energy": -8.93, "intermolecular_energy": -10.72, "internal_energy": -0.81, "cluster_size": 19, "cluster_id": 1, "rank_in_cluster": 14}

>  <energy>  (57) 
-8.63

>  <cluster_rmsd>  (57) 
0.65

>  <rmsd>  (57) 
271.0

>  <cluster>  (57) 
1

$$$$
USJHBUDYBBTILB-MPIMZMORNA-N
     RDKit          3D

 56 59  0  0  0  0  0  0  0  0999 V2000
  141.0790   70.9590  227.9700 C   0  0  0  0  0  0  0  0  0  0  0  0
  141.2700   71.8370  226.9010 C   0  0  0  0  0  0  0  0  0  0  0  0
  140.5770   71.6430  225.7020 C   0  0  0  0  0  0  0  0  0  0  0  0
  139.6900   70.5610  225.5640 C   0  0  0  0  0  0  0  0  0  0  0  0
  138.9150   70.3710  224.2850 C   0  0  0  0  0  0  0  0  0  0  0  0
  139.7180   70.8420  223.0660 C   0  0  0  0  0  0  0  0  0  0  0  0
  139.5450   72.2760  222.8350 N   0  0  0  0  0  0  0  0  0  0  0  0
  140.5230   73.0760  222.1530 C   0  0  0  0  0  0  0  0  0  0  0  0
  141.5610   72.4640  221.4460 C   0  0  0  0  0  0  0  0  0  0  0  0
  142.4920   73.2730  220.7800 C   0  0  0  0  0  0  0  0  0  0  0  0
  143.5650   72.6970  220.0100 N   0  0  0  0  0  0  0  0  0  0  0  0
  143.6360   71.2390  219.8610 C   0  0  0  0  0  0  0  0  0  0  0  0
  144.9500   70.8240  219.1860 C   0  0  0  0  0  0  0  0  0  0  0  0
  146.0660   71.6270  219.7020 N   0  0  0  0  0  0  0  0  0  0  0  0
  145.9320   73.0610  219.3730 C   0  0  0  0  0  0  0  0  0  0  0  0
  144.4720   73.5340  219.2140 C   0  0  0  0  0  0  0  0  0  0  0  0
  142.3440   74.6250  220.8210 N   0  0  0  0  0  0  0  0  0  0  0  0
  141.3330   75.2130  221.5150 C   0  0  0  0  0  0  0  0  0  0  0  0
  141.2110   76.6500  221.5400 N   0  0  0  0  0  0  0  0  0  0  0  0
  140.6900   77.3430  222.7280 C   0  0  0  0  0  0  0  0  0  0  0  0
  141.4130   78.6880  222.9670 C   0  0  0  0  0  0  0  0  0  0  0  0
  141.9680   79.3120  221.7510 N   0  0  0  0  0  0  0  0  0  0  0  0
  141.2530   78.9110  220.5350 C   0  0  0  0  0  0  0  0  0  0  0  0
  141.4210   77.4070  220.2980 C   0  0  0  0  0  0  0  0  0  0  0  0
  140.4370   74.4330  222.1740 N   0  0  0  0  0  0  0  0  0  0  0  0
  139.4950   69.6900  226.6480 C   0  0  0  0  0  0  0  0  0  0  0  0
  140.1910   69.8860  227.8450 C   0  0  0  0  0  0  0  0  0  0  0  0
  141.6275   71.1116  228.9112 H   0  0  0  0  0  0  0  0  0  0  0  0
  141.9665   72.6823  227.0022 H   0  0  0  0  0  0  0  0  0  0  0  0
  140.7264   72.3395  224.8638 H   0  0  0  0  0  0  0  0  0  0  0  0
  138.6777   69.3035  224.1660 H   0  0  0  0  0  0  0  0  0  0  0  0
  137.9957   70.9720  224.3459 H   0  0  0  0  0  0  0  0  0  0  0  0
  140.7843   70.6331  223.2373 H   0  0  0  0  0  0  0  0  0  0  0  0
  139.3520   70.3019  222.1804 H   0  0  0  0  0  0  0  0  0  0  0  0
  138.6690   72.7280  223.1810 H   0  0  0  0  0  0  0  0  0  0  0  0
  141.6461   71.3678  221.4126 H   0  0  0  0  0  0  0  0  0  0  0  0
  143.5778   70.7716  220.8550 H   0  0  0  0  0  0  0  0  0  0  0  0
  142.7964   70.9074  219.2324 H   0  0  0  0  0  0  0  0  0  0  0  0
  145.1430   69.7607  219.3914 H   0  0  0  0  0  0  0  0  0  0  0  0
  144.8623   70.9895  218.1021 H   0  0  0  0  0  0  0  0  0  0  0  0
  146.0950   71.5210  220.7450 H   0  0  0  0  0  0  0  0  0  0  0  0
  146.3994   73.6460  220.1788 H   0  0  0  0  0  0  0  0  0  0  0  0
  146.4234   73.2119  218.4005 H   0  0  0  0  0  0  0  0  0  0  0  0
  144.3915   74.5773  219.5533 H   0  0  0  0  0  0  0  0  0  0  0  0
  144.1880   73.4541  218.1543 H   0  0  0  0  0  0  0  0  0  0  0  0
  139.6163   77.5355  222.5864 H   0  0  0  0  0  0  0  0  0  0  0  0
  140.8626   76.7001  223.6037 H   0  0  0  0  0  0  0  0  0  0  0  0
  140.6935   79.3894  223.4146 H   0  0  0  0  0  0  0  0  0  0  0  0
  142.2684   78.4696  223.6232 H   0  0  0  0  0  0  0  0  0  0  0  0
  142.9720   79.0310  221.6540 H   0  0  0  0  0  0  0  0  0  0  0  0
  140.1840   79.1445  220.6477 H   0  0  0  0  0  0  0  0  0  0  0  0
  141.6671   79.4595  219.6761 H   0  0  0  0  0  0  0  0  0  0  0  0
  140.6874   77.0772  219.5476 H   0  0  0  0  0  0  0  0  0  0  0  0
  142.4457   77.2210  219.9440 H   0  0  0  0  0  0  0  0  0  0  0  0
  138.7914   68.8495  226.5552 H   0  0  0  0  0  0  0  0  0  0  0  0
  140.0399   69.1961  228.6883 H   0  0  0  0  0  0  0  0  0  0  0  0
  1  2  2  0
  2  3  1  0
  3  4  2  0
  4  5  1  0
  5  6  1  0
  6  7  1  0
  7  8  1  0
  8  9  2  0
  9 10  1  0
 10 11  1  0
 11 12  1  0
 12 13  1  0
 13 14  1  0
 14 15  1  0
 15 16  1  0
 10 17  2  0
 17 18  1  0
 18 19  1  0
 19 20  1  0
 20 21  1  0
 21 22  1  0
 22 23  1  0
 23 24  1  0
 18 25  2  0
  4 26  1  0
 26 27  2  0
 27  1  1  0
 25  8  1  0
 16 11  1  0
 24 19  1  0
  1 28  1  0
  2 29  1  0
  3 30  1  0
  5 31  1  0
  5 32  1  0
  6 33  1  0
  6 34  1  0
  7 35  1  0
  9 36  1  0
 12 37  1  0
 12 38  1  0
 13 39  1  0
 13 40  1  0
 14 41  1  0
 15 42  1  0
 15 43  1  0
 16 44  1  0
 16 45  1  0
 20 46  1  0
 20 47  1  0
 21 48  1  0
 21 49  1  0
 22 50  1  0
 23 51  1  0
 23 52  1  0
 24 53  1  0
 24 54  1  0
 26 55  1  0
 27 56  1  0
M  END
>  <UniqueID>  (58) 
520

>  <SMILES>  (58) 
c1ccc(CCNc2cc(N3CCNCC3)nc(N3CCNCC3)n2)cc1

>  <Energy>  (58) 
64.19033298564075

>  <Genealogy>  (58) 
c1ccc(CCNc2cc(N3CCNCC3)nc(N3CCNCC3)n2)cc1 (3D coordinates assigned)
c1ccc(CCNc2cc(N3CCNCC3)nc(N3CCNCC3)n2)cc1 (nonaromatic ring conformer: 64.19033298564075 kcal/mol)

>  <smiles>  (58) 
c1ccc(CCNc2cc(N3CCNCC3)nc(N3CCNCC3)n2)cc1

>  <score_type>  (58) 
oracle

>  <origin>  (58) 
autodockgpu

>  <m_score__min__energy>  (58) 
-9.2300000000000004

>  <m_primary>  (58) 
energy

>  <meeko>  (58) 
{"free_energy": -8.87, "intermolecular_energy": -10.66, "internal_energy": -0.89, "cluster_size": 19, "cluster_id": 1, "rank_in_cluster": 15}

>  <energy>  (58) 
-8.62

>  <cluster_rmsd>  (58) 
0.6

>  <rmsd>  (58) 
271.06

>  <cluster>  (58) 
1

$$$$
USJHBUDYBBTILB-MPIMZMORNA-N
     RDKit          3D

 56 59  0  0  0  0  0  0  0  0999 V2000
  140.5450   70.0490  228.1350 C   0  0  0  0  0  0  0  0  0  0  0  0
  140.1150   69.2960  227.0400 C   0  0  0  0  0  0  0  0  0  0  0  0
  140.1490   69.8460  225.7550 C   0  0  0  0  0  0  0  0  0  0  0  0
  140.6100   71.1600  225.5590 C   0  0  0  0  0  0  0  0  0  0  0  0
  140.6810   71.7420  224.1700 C   0  0  0  0  0  0  0  0  0  0  0  0
  139.3750   71.5140  223.3980 C   0  0  0  0  0  0  0  0  0  0  0  0
  139.3020   72.3650  222.2100 N   0  0  0  0  0  0  0  0  0  0  0  0
  140.3950   73.1900  221.7770 C   0  0  0  0  0  0  0  0  0  0  0  0
  141.5530   72.6060  221.2570 C   0  0  0  0  0  0  0  0  0  0  0  0
  142.5960   73.4390  220.8310 C   0  0  0  0  0  0  0  0  0  0  0  0
  143.8000   72.8940  220.2590 N   0  0  0  0  0  0  0  0  0  0  0  0
  145.0750   73.0890  220.9580 C   0  0  0  0  0  0  0  0  0  0  0  0
  146.2500   72.6150  220.0910 C   0  0  0  0  0  0  0  0  0  0  0  0
  146.0420   73.0050  218.6910 N   0  0  0  0  0  0  0  0  0  0  0  0
  144.8640   72.3480  218.0880 C   0  0  0  0  0  0  0  0  0  0  0  0
  143.7580   71.9890  219.1020 C   0  0  0  0  0  0  0  0  0  0  0  0
  142.4420   74.7880  220.9130 N   0  0  0  0  0  0  0  0  0  0  0  0
  141.3130   75.3490  221.4250 C   0  0  0  0  0  0  0  0  0  0  0  0
  141.1880   76.7840  221.5000 N   0  0  0  0  0  0  0  0  0  0  0  0
  140.6860   77.4350  222.7200 C   0  0  0  0  0  0  0  0  0  0  0  0
  141.4090   78.7740  222.9930 C   0  0  0  0  0  0  0  0  0  0  0  0
  141.9410   79.4400  221.7880 N   0  0  0  0  0  0  0  0  0  0  0  0
  141.2050   79.0780  220.5730 C   0  0  0  0  0  0  0  0  0  0  0  0
  141.3730   77.5840  220.2820 C   0  0  0  0  0  0  0  0  0  0  0  0
  140.3050   74.5450  221.8520 N   0  0  0  0  0  0  0  0  0  0  0  0
  141.0510   71.9060  226.6640 C   0  0  0  0  0  0  0  0  0  0  0  0
  141.0140   71.3530  227.9480 C   0  0  0  0  0  0  0  0  0  0  0  0
  140.5147   69.6157  229.1456 H   0  0  0  0  0  0  0  0  0  0  0  0
  139.7493   68.2693  227.1887 H   0  0  0  0  0  0  0  0  0  0  0  0
  139.8139   69.2487  224.8942 H   0  0  0  0  0  0  0  0  0  0  0  0
  140.8681   72.8234  224.2446 H   0  0  0  0  0  0  0  0  0  0  0  0
  141.4954   71.2405  223.6266 H   0  0  0  0  0  0  0  0  0  0  0  0
  139.3222   70.4601  223.0872 H   0  0  0  0  0  0  0  0  0  0  0  0
  138.5332   71.7686  224.0587 H   0  0  0  0  0  0  0  0  0  0  0  0
  138.4160   72.3640  221.6580 H   0  0  0  0  0  0  0  0  0  0  0  0
  141.6441   71.5123  221.1834 H   0  0  0  0  0  0  0  0  0  0  0  0
  145.2022   74.1578  221.1847 H   0  0  0  0  0  0  0  0  0  0  0  0
  145.0617   72.4996  221.8867 H   0  0  0  0  0  0  0  0  0  0  0  0
  147.1803   73.0714  220.4602 H   0  0  0  0  0  0  0  0  0  0  0  0
  146.3180   71.5187  220.1500 H   0  0  0  0  0  0  0  0  0  0  0  0
  145.9040   74.0440  218.6540 H   0  0  0  0  0  0  0  0  0  0  0  0
  144.4364   73.0272  217.3358 H   0  0  0  0  0  0  0  0  0  0  0  0
  145.2159   71.4012  217.6525 H   0  0  0  0  0  0  0  0  0  0  0  0
  142.7770   72.0750  218.6118 H   0  0  0  0  0  0  0  0  0  0  0  0
  143.9206   70.9591  219.4527 H   0  0  0  0  0  0  0  0  0  0  0  0
  139.6094   77.6285  222.6035 H   0  0  0  0  0  0  0  0  0  0  0  0
  140.8763   76.7632  223.5700 H   0  0  0  0  0  0  0  0  0  0  0  0
  140.6952   79.4574  223.4762 H   0  0  0  0  0  0  0  0  0  0  0  0
  142.2757   78.5374  223.6277 H   0  0  0  0  0  0  0  0  0  0  0  0
  142.9430   79.1660  221.6630 H   0  0  0  0  0  0  0  0  0  0  0  0
  140.1376   79.3036  220.7133 H   0  0  0  0  0  0  0  0  0  0  0  0
  141.6015   79.6568  219.7258 H   0  0  0  0  0  0  0  0  0  0  0  0
  140.6269   77.2775  219.5341 H   0  0  0  0  0  0  0  0  0  0  0  0
  142.3919   77.4141  219.9038 H   0  0  0  0  0  0  0  0  0  0  0  0
  141.4271   72.9295  226.5190 H   0  0  0  0  0  0  0  0  0  0  0  0
  141.3540   71.9441  228.8112 H   0  0  0  0  0  0  0  0  0  0  0  0
  1  2  2  0
  2  3  1  0
  3  4  2  0
  4  5  1  0
  5  6  1  0
  6  7  1  0
  7  8  1  0
  8  9  2  0
  9 10  1  0
 10 11  1  0
 11 12  1  0
 12 13  1  0
 13 14  1  0
 14 15  1  0
 15 16  1  0
 10 17  2  0
 17 18  1  0
 18 19  1  0
 19 20  1  0
 20 21  1  0
 21 22  1  0
 22 23  1  0
 23 24  1  0
 18 25  2  0
  4 26  1  0
 26 27  2  0
 27  1  1  0
 25  8  1  0
 16 11  1  0
 24 19  1  0
  1 28  1  0
  2 29  1  0
  3 30  1  0
  5 31  1  0
  5 32  1  0
  6 33  1  0
  6 34  1  0
  7 35  1  0
  9 36  1  0
 12 37  1  0
 12 38  1  0
 13 39  1  0
 13 40  1  0
 14 41  1  0
 15 42  1  0
 15 43  1  0
 16 44  1  0
 16 45  1  0
 20 46  1  0
 20 47  1  0
 21 48  1  0
 21 49  1  0
 22 50  1  0
 23 51  1  0
 23 52  1  0
 24 53  1  0
 24 54  1  0
 26 55  1  0
 27 56  1  0
M  END
>  <UniqueID>  (59) 
520

>  <SMILES>  (59) 
c1ccc(CCNc2cc(N3CCNCC3)nc(N3CCNCC3)n2)cc1

>  <Energy>  (59) 
64.19033298564075

>  <Genealogy>  (59) 
c1ccc(CCNc2cc(N3CCNCC3)nc(N3CCNCC3)n2)cc1 (3D coordinates assigned)
c1ccc(CCNc2cc(N3CCNCC3)nc(N3CCNCC3)n2)cc1 (nonaromatic ring conformer: 64.19033298564075 kcal/mol)

>  <smiles>  (59) 
c1ccc(CCNc2cc(N3CCNCC3)nc(N3CCNCC3)n2)cc1

>  <score_type>  (59) 
oracle

>  <origin>  (59) 
autodockgpu

>  <m_score__min__energy>  (59) 
-9.2300000000000004

>  <m_primary>  (59) 
energy

>  <meeko>  (59) 
{"free_energy": -9.01, "intermolecular_energy": -10.8, "internal_energy": -0.83, "cluster_size": 19, "cluster_id": 1, "rank_in_cluster": 8}

>  <energy>  (59) 
-8.42

>  <cluster_rmsd>  (59) 
1.58

>  <rmsd>  (59) 
271.07

>  <cluster>  (59) 
1

$$$$
USJHBUDYBBTILB-MPIMZMORNA-N
     RDKit          3D

 56 59  0  0  0  0  0  0  0  0999 V2000
  141.0630   70.5530  227.6290 C   0  0  0  0  0  0  0  0  0  0  0  0
  140.0680   69.5960  227.4200 C   0  0  0  0  0  0  0  0  0  0  0  0
  139.3000   69.6280  226.2510 C   0  0  0  0  0  0  0  0  0  0  0  0
  139.5230   70.6240  225.2850 C   0  0  0  0  0  0  0  0  0  0  0  0
  138.7210   70.6380  224.0080 C   0  0  0  0  0  0  0  0  0  0  0  0
  139.5660   71.1120  222.8190 C   0  0  0  0  0  0  0  0  0  0  0  0
  139.4270   72.5530  222.6060 N   0  0  0  0  0  0  0  0  0  0  0  0
  140.4550   73.3520  222.0020 C   0  0  0  0  0  0  0  0  0  0  0  0
  141.5340   72.7390  221.3590 C   0  0  0  0  0  0  0  0  0  0  0  0
  142.5140   73.5470  220.7680 C   0  0  0  0  0  0  0  0  0  0  0  0
  143.6320   72.9720  220.0660 N   0  0  0  0  0  0  0  0  0  0  0  0
  144.8720   72.6940  220.8010 C   0  0  0  0  0  0  0  0  0  0  0  0
  145.9930   72.2780  219.8400 C   0  0  0  0  0  0  0  0  0  0  0  0
  145.9570   73.1010  218.6250 N   0  0  0  0  0  0  0  0  0  0  0  0
  144.7210   72.8990  217.8410 C   0  0  0  0  0  0  0  0  0  0  0  0
  143.5020   72.4790  218.6880 C   0  0  0  0  0  0  0  0  0  0  0  0
  142.3760   74.9000  220.8160 N   0  0  0  0  0  0  0  0  0  0  0  0
  141.3240   75.4890  221.4470 C   0  0  0  0  0  0  0  0  0  0  0  0
  141.2130   76.9270  221.4810 N   0  0  0  0  0  0  0  0  0  0  0  0
  140.7050   77.6170  222.6770 C   0  0  0  0  0  0  0  0  0  0  0  0
  141.4390   78.9550  222.9190 C   0  0  0  0  0  0  0  0  0  0  0  0
  141.9900   79.5820  221.7020 N   0  0  0  0  0  0  0  0  0  0  0  0
  141.2640   79.1930  220.4900 C   0  0  0  0  0  0  0  0  0  0  0  0
  141.4190   77.6900  220.2420 C   0  0  0  0  0  0  0  0  0  0  0  0
  140.3790   74.7090  222.0340 N   0  0  0  0  0  0  0  0  0  0  0  0
  140.5330   71.5750  225.4980 C   0  0  0  0  0  0  0  0  0  0  0  0
  141.2970   71.5420  226.6680 C   0  0  0  0  0  0  0  0  0  0  0  0
  141.6635   70.5291  228.5503 H   0  0  0  0  0  0  0  0  0  0  0  0
  139.8878   68.8165  228.1749 H   0  0  0  0  0  0  0  0  0  0  0  0
  138.5189   68.8709  226.0875 H   0  0  0  0  0  0  0  0  0  0  0  0
  138.3558   69.6206  223.8040 H   0  0  0  0  0  0  0  0  0  0  0  0
  137.8813   71.3371  224.1353 H   0  0  0  0  0  0  0  0  0  0  0  0
  140.6230   70.8796  223.0159 H   0  0  0  0  0  0  0  0  0  0  0  0
  139.2140   70.5929  221.9153 H   0  0  0  0  0  0  0  0  0  0  0  0
  138.5370   73.0100  222.9060 H   0  0  0  0  0  0  0  0  0  0  0  0
  141.6122   71.6426  221.3177 H   0  0  0  0  0  0  0  0  0  0  0  0
  145.1801   73.5996  221.3441 H   0  0  0  0  0  0  0  0  0  0  0  0
  144.6872   71.8695  221.5053 H   0  0  0  0  0  0  0  0  0  0  0  0
  146.9649   72.4095  220.3382 H   0  0  0  0  0  0  0  0  0  0  0  0
  145.8509   71.2235  219.5611 H   0  0  0  0  0  0  0  0  0  0  0  0
  146.0170   74.1090  218.9060 H   0  0  0  0  0  0  0  0  0  0  0  0
  144.4781   73.8419  217.3292 H   0  0  0  0  0  0  0  0  0  0  0  0
  144.9201   72.0753  217.1397 H   0  0  0  0  0  0  0  0  0  0  0  0
  142.5891   72.8977  218.2394 H   0  0  0  0  0  0  0  0  0  0  0  0
  143.4478   71.3805  218.7092 H   0  0  0  0  0  0  0  0  0  0  0  0
  139.6318   77.8180  222.5439 H   0  0  0  0  0  0  0  0  0  0  0  0
  140.8790   76.9677  223.5477 H   0  0  0  0  0  0  0  0  0  0  0  0
  140.7277   79.6589  223.3757 H   0  0  0  0  0  0  0  0  0  0  0  0
  142.2972   78.7270  223.5682 H   0  0  0  0  0  0  0  0  0  0  0  0
  142.9910   79.2940  221.5960 H   0  0  0  0  0  0  0  0  0  0  0  0
  140.1975   79.4333  220.6121 H   0  0  0  0  0  0  0  0  0  0  0  0
  141.6764   79.7435  219.6316 H   0  0  0  0  0  0  0  0  0  0  0  0
  140.6772   77.3704  219.4953 H   0  0  0  0  0  0  0  0  0  0  0  0
  142.4394   77.4985  219.8785 H   0  0  0  0  0  0  0  0  0  0  0  0
  140.7242   72.3497  224.7408 H   0  0  0  0  0  0  0  0  0  0  0  0
  142.0826   72.2941  226.8331 H   0  0  0  0  0  0  0  0  0  0  0  0
  1  2  2  0
  2  3  1  0
  3  4  2  0
  4  5  1  0
  5  6  1  0
  6  7  1  0
  7  8  1  0
  8  9  2  0
  9 10  1  0
 10 11  1  0
 11 12  1  0
 12 13  1  0
 13 14  1  0
 14 15  1  0
 15 16  1  0
 10 17  2  0
 17 18  1  0
 18 19  1  0
 19 20  1  0
 20 21  1  0
 21 22  1  0
 22 23  1  0
 23 24  1  0
 18 25  2  0
  4 26  1  0
 26 27  2  0
 27  1  1  0
 25  8  1  0
 16 11  1  0
 24 19  1  0
  1 28  1  0
  2 29  1  0
  3 30  1  0
  5 31  1  0
  5 32  1  0
  6 33  1  0
  6 34  1  0
  7 35  1  0
  9 36  1  0
 12 37  1  0
 12 38  1  0
 13 39  1  0
 13 40  1  0
 14 41  1  0
 15 42  1  0
 15 43  1  0
 16 44  1  0
 16 45  1  0
 20 46  1  0
 20 47  1  0
 21 48  1  0
 21 49  1  0
 22 50  1  0
 23 51  1  0
 23 52  1  0
 24 53  1  0
 24 54  1  0
 26 55  1  0
 27 56  1  0
M  END
>  <UniqueID>  (60) 
520

>  <SMILES>  (60) 
c1ccc(CCNc2cc(N3CCNCC3)nc(N3CCNCC3)n2)cc1

>  <Energy>  (60) 
64.19033298564075

>  <Genealogy>  (60) 
c1ccc(CCNc2cc(N3CCNCC3)nc(N3CCNCC3)n2)cc1 (3D coordinates assigned)
c1ccc(CCNc2cc(N3CCNCC3)nc(N3CCNCC3)n2)cc1 (nonaromatic ring conformer: 64.19033298564075 kcal/mol)

>  <smiles>  (60) 
c1ccc(CCNc2cc(N3CCNCC3)nc(N3CCNCC3)n2)cc1

>  <score_type>  (60) 
oracle

>  <origin>  (60) 
autodockgpu

>  <m_score__min__energy>  (60) 
-9.2300000000000004

>  <m_primary>  (60) 
energy

>  <meeko>  (60) 
{"free_energy": -8.99, "intermolecular_energy": -10.77, "internal_energy": -0.88, "cluster_size": 19, "cluster_id": 1, "rank_in_cluster": 11}

>  <energy>  (60) 
-8.26

>  <cluster_rmsd>  (60) 
0.0

>  <rmsd>  (60) 
270.77

>  <cluster>  (60) 
2

$$$$
USJHBUDYBBTILB-MPIMZMORNA-N
     RDKit          3D

 56 59  0  0  0  0  0  0  0  0999 V2000
  140.0400   70.5520  228.2420 C   0  0  0  0  0  0  0  0  0  0  0  0
  139.5920   69.6340  227.2890 C   0  0  0  0  0  0  0  0  0  0  0  0
  139.8600   69.8460  225.9330 C   0  0  0  0  0  0  0  0  0  0  0  0
  140.5750   70.9830  225.5210 C   0  0  0  0  0  0  0  0  0  0  0  0
  140.8960   71.1940  224.0630 C   0  0  0  0  0  0  0  0  0  0  0  0
  139.6210   71.2670  223.2130 C   0  0  0  0  0  0  0  0  0  0  0  0
  139.3940   72.6210  222.7070 N   0  0  0  0  0  0  0  0  0  0  0  0
  140.4250   73.4000  222.0820 C   0  0  0  0  0  0  0  0  0  0  0  0
  141.4930   72.7660  221.4410 C   0  0  0  0  0  0  0  0  0  0  0  0
  142.4760   73.5540  220.8290 C   0  0  0  0  0  0  0  0  0  0  0  0
  143.5830   72.9560  220.1280 N   0  0  0  0  0  0  0  0  0  0  0  0
  144.8410   72.7210  220.8470 C   0  0  0  0  0  0  0  0  0  0  0  0
  145.9440   72.2710  219.8800 C   0  0  0  0  0  0  0  0  0  0  0  0
  145.8730   73.0380  218.6300 N   0  0  0  0  0  0  0  0  0  0  0  0
  144.6230   72.7920  217.8840 C   0  0  0  0  0  0  0  0  0  0  0  0
  143.4260   72.4020  218.7770 C   0  0  0  0  0  0  0  0  0  0  0  0
  142.3510   74.9090  220.8550 N   0  0  0  0  0  0  0  0  0  0  0  0
  141.3100   75.5190  221.4850 C   0  0  0  0  0  0  0  0  0  0  0  0
  141.2130   76.9580  221.4950 N   0  0  0  0  0  0  0  0  0  0  0  0
  140.7090   77.6720  222.6790 C   0  0  0  0  0  0  0  0  0  0  0  0
  141.4550   79.0070  222.9020 C   0  0  0  0  0  0  0  0  0  0  0  0
  142.0160   79.6080  221.6760 N   0  0  0  0  0  0  0  0  0  0  0  0
  141.2880   79.2080  220.4680 C   0  0  0  0  0  0  0  0  0  0  0  0
  141.4300   77.6990  220.2460 C   0  0  0  0  0  0  0  0  0  0  0  0
  140.3620   74.7580  222.0920 N   0  0  0  0  0  0  0  0  0  0  0  0
  141.0320   71.8950  226.4870 C   0  0  0  0  0  0  0  0  0  0  0  0
  140.7610   71.6810  227.8420 C   0  0  0  0  0  0  0  0  0  0  0  0
  139.8253   70.3864  229.3081 H   0  0  0  0  0  0  0  0  0  0  0  0
  139.0282   68.7440  227.6054 H   0  0  0  0  0  0  0  0  0  0  0  0
  139.5094   69.1192  225.1855 H   0  0  0  0  0  0  0  0  0  0  0  0
  141.4542   72.1354  223.9522 H   0  0  0  0  0  0  0  0  0  0  0  0
  141.4958   70.3406  223.7140 H   0  0  0  0  0  0  0  0  0  0  0  0
  139.7189   70.5782  222.3610 H   0  0  0  0  0  0  0  0  0  0  0  0
  138.7663   70.9859  223.8458 H   0  0  0  0  0  0  0  0  0  0  0  0
  138.4370   73.0290  222.8070 H   0  0  0  0  0  0  0  0  0  0  0  0
  141.5603   71.6683  221.4176 H   0  0  0  0  0  0  0  0  0  0  0  0
  145.1531   73.6524  221.3421 H   0  0  0  0  0  0  0  0  0  0  0  0
  144.6792   71.9278  221.5918 H   0  0  0  0  0  0  0  0  0  0  0  0
  146.9256   72.4328  220.3493 H   0  0  0  0  0  0  0  0  0  0  0  0
  145.8053   71.2038  219.6522 H   0  0  0  0  0  0  0  0  0  0  0  0
  145.9320   74.0580  218.8650 H   0  0  0  0  0  0  0  0  0  0  0  0
  144.3612   73.7089  217.3355 H   0  0  0  0  0  0  0  0  0  0  0  0
  144.8133   71.9390  217.2161 H   0  0  0  0  0  0  0  0  0  0  0  0
  142.5001   72.7946  218.3313 H   0  0  0  0  0  0  0  0  0  0  0  0
  143.3807   71.3052  218.8480 H   0  0  0  0  0  0  0  0  0  0  0  0
  139.6380   77.8810  222.5401 H   0  0  0  0  0  0  0  0  0  0  0  0
  140.8753   77.0349  223.5602 H   0  0  0  0  0  0  0  0  0  0  0  0
  140.7490   79.7252  223.3444 H   0  0  0  0  0  0  0  0  0  0  0  0
  142.3085   78.7821  223.5585 H   0  0  0  0  0  0  0  0  0  0  0  0
  143.0140   79.3100  221.5780 H   0  0  0  0  0  0  0  0  0  0  0  0
  140.2237   79.4606  220.5838 H   0  0  0  0  0  0  0  0  0  0  0  0
  141.7060   79.7413  219.6014 H   0  0  0  0  0  0  0  0  0  0  0  0
  140.6879   77.3740  219.5019 H   0  0  0  0  0  0  0  0  0  0  0  0
  142.4502   77.4928  219.8903 H   0  0  0  0  0  0  0  0  0  0  0  0
  141.6052   72.7809  226.1762 H   0  0  0  0  0  0  0  0  0  0  0  0
  141.1154   72.4016  228.5938 H   0  0  0  0  0  0  0  0  0  0  0  0
  1  2  2  0
  2  3  1  0
  3  4  2  0
  4  5  1  0
  5  6  1  0
  6  7  1  0
  7  8  1  0
  8  9  2  0
  9 10  1  0
 10 11  1  0
 11 12  1  0
 12 13  1  0
 13 14  1  0
 14 15  1  0
 15 16  1  0
 10 17  2  0
 17 18  1  0
 18 19  1  0
 19 20  1  0
 20 21  1  0
 21 22  1  0
 22 23  1  0
 23 24  1  0
 18 25  2  0
  4 26  1  0
 26 27  2  0
 27  1  1  0
 25  8  1  0
 16 11  1  0
 24 19  1  0
  1 28  1  0
  2 29  1  0
  3 30  1  0
  5 31  1  0
  5 32  1  0
  6 33  1  0
  6 34  1  0
  7 35  1  0
  9 36  1  0
 12 37  1  0
 12 38  1  0
 13 39  1  0
 13 40  1  0
 14 41  1  0
 15 42  1  0
 15 43  1  0
 16 44  1  0
 16 45  1  0
 20 46  1  0
 20 47  1  0
 21 48  1  0
 21 49  1  0
 22 50  1  0
 23 51  1  0
 23 52  1  0
 24 53  1  0
 24 54  1  0
 26 55  1  0
 27 56  1  0
M  END
>  <UniqueID>  (61) 
521

>  <SMILES>  (61) 
c1ccc(CCNc2cc(N3CCNCC3)nc(N3CCNCC3)n2)cc1

>  <Energy>  (61) 
64.25807105318853

>  <Genealogy>  (61) 
c1ccc(CCNc2cc(N3CCNCC3)nc(N3CCNCC3)n2)cc1 (3D coordinates assigned)
c1ccc(CCNc2cc(N3CCNCC3)nc(N3CCNCC3)n2)cc1 (nonaromatic ring conformer: 64.25807105318853 kcal/mol)

>  <smiles>  (61) 
c1ccc(CCNc2cc(N3CCNCC3)nc(N3CCNCC3)n2)cc1

>  <score_type>  (61) 
oracle

>  <origin>  (61) 
autodockgpu

>  <m_score__min__energy>  (61) 
-9.2300000000000004

>  <m_primary>  (61) 
energy

>  <meeko>  (61) 
{"free_energy": -9.2, "intermolecular_energy": -10.99, "internal_energy": -0.83, "cluster_size": 19, "cluster_id": 1, "rank_in_cluster": 4}

>  <energy>  (61) 
-9.23

>  <cluster_rmsd>  (61) 
0.0

>  <rmsd>  (61) 
271.08

>  <cluster>  (61) 
1

$$$$
USJHBUDYBBTILB-MPIMZMORNA-N
     RDKit          3D

 56 59  0  0  0  0  0  0  0  0999 V2000
  140.0280   70.4020  228.2840 C   0  0  0  0  0  0  0  0  0  0  0  0
  139.5820   69.5550  227.2680 C   0  0  0  0  0  0  0  0  0  0  0  0
  139.8510   69.8630  225.9300 C   0  0  0  0  0  0  0  0  0  0  0  0
  140.5670   71.0270  225.6020 C   0  0  0  0  0  0  0  0  0  0  0  0
  140.8890   71.3420  224.1630 C   0  0  0  0  0  0  0  0  0  0  0  0
  139.6270   71.3350  223.2900 C   0  0  0  0  0  0  0  0  0  0  0  0
  139.3870   72.6470  222.6900 N   0  0  0  0  0  0  0  0  0  0  0  0
  140.4250   73.4200  222.0700 C   0  0  0  0  0  0  0  0  0  0  0  0
  141.4930   72.7790  221.4340 C   0  0  0  0  0  0  0  0  0  0  0  0
  142.4840   73.5620  220.8270 C   0  0  0  0  0  0  0  0  0  0  0  0
  143.5910   72.9570  220.1320 N   0  0  0  0  0  0  0  0  0  0  0  0
  144.8400   72.7040  220.8600 C   0  0  0  0  0  0  0  0  0  0  0  0
  145.9470   72.2490  219.9000 C   0  0  0  0  0  0  0  0  0  0  0  0
  145.8950   73.0260  218.6550 N   0  0  0  0  0  0  0  0  0  0  0  0
  144.6480   72.7970  217.8960 C   0  0  0  0  0  0  0  0  0  0  0  0
  143.4400   72.4130  218.7760 C   0  0  0  0  0  0  0  0  0  0  0  0
  142.3660   74.9170  220.8520 N   0  0  0  0  0  0  0  0  0  0  0  0
  141.3250   75.5330  221.4760 C   0  0  0  0  0  0  0  0  0  0  0  0
  141.2360   76.9730  221.4850 N   0  0  0  0  0  0  0  0  0  0  0  0
  140.7050   77.6890  222.6550 C   0  0  0  0  0  0  0  0  0  0  0  0
  141.4530   79.0190  222.8990 C   0  0  0  0  0  0  0  0  0  0  0  0
  142.0490   79.6180  221.6900 N   0  0  0  0  0  0  0  0  0  0  0  0
  141.3520   79.2230  220.4630 C   0  0  0  0  0  0  0  0  0  0  0  0
  141.4910   77.7130  220.2420 C   0  0  0  0  0  0  0  0  0  0  0  0
  140.3700   74.7780  222.0780 N   0  0  0  0  0  0  0  0  0  0  0  0
  141.0220   71.8680  226.6310 C   0  0  0  0  0  0  0  0  0  0  0  0
  140.7490   71.5580  227.9670 C   0  0  0  0  0  0  0  0  0  0  0  0
  139.8122   70.1601  229.3352 H   0  0  0  0  0  0  0  0  0  0  0  0
  139.0185   68.6444  227.5196 H   0  0  0  0  0  0  0  0  0  0  0  0
  139.5009   69.1918  225.1320 H   0  0  0  0  0  0  0  0  0  0  0  0
  141.3545   72.3373  224.1104 H   0  0  0  0  0  0  0  0  0  0  0  0
  141.5743   70.5689  223.7854 H   0  0  0  0  0  0  0  0  0  0  0  0
  139.7502   70.5918  222.4884 H   0  0  0  0  0  0  0  0  0  0  0  0
  138.7664   71.0825  223.9269 H   0  0  0  0  0  0  0  0  0  0  0  0
  138.4140   73.0280  222.7150 H   0  0  0  0  0  0  0  0  0  0  0  0
  141.5539   71.6809  221.4107 H   0  0  0  0  0  0  0  0  0  0  0  0
  145.1573   73.6287  221.3642 H   0  0  0  0  0  0  0  0  0  0  0  0
  144.6632   71.9073  221.5976 H   0  0  0  0  0  0  0  0  0  0  0  0
  146.9260   72.3971  220.3792 H   0  0  0  0  0  0  0  0  0  0  0  0
  145.7995   71.1849  219.6634 H   0  0  0  0  0  0  0  0  0  0  0  0
  145.9610   74.0430  218.8960 H   0  0  0  0  0  0  0  0  0  0  0  0
  144.3999   73.7200  217.3514 H   0  0  0  0  0  0  0  0  0  0  0  0
  144.8357   71.9466  217.2240 H   0  0  0  0  0  0  0  0  0  0  0  0
  142.5218   72.8174  218.3250 H   0  0  0  0  0  0  0  0  0  0  0  0
  143.3834   71.3163  218.8395 H   0  0  0  0  0  0  0  0  0  0  0  0
  139.6395   77.9048  222.4875 H   0  0  0  0  0  0  0  0  0  0  0  0
  140.8435   77.0503  223.5398 H   0  0  0  0  0  0  0  0  0  0  0  0
  140.7400   79.7409  223.3240 H   0  0  0  0  0  0  0  0  0  0  0  0
  142.2879   78.7878  223.5769 H   0  0  0  0  0  0  0  0  0  0  0  0
  143.0480   79.3140  221.6180 H   0  0  0  0  0  0  0  0  0  0  0  0
  140.2864   79.4814  220.5505 H   0  0  0  0  0  0  0  0  0  0  0  0
  141.7969   79.7546  219.6089 H   0  0  0  0  0  0  0  0  0  0  0  0
  140.7670   77.3932  219.4781 H   0  0  0  0  0  0  0  0  0  0  0  0
  142.5187   77.5004  219.9123 H   0  0  0  0  0  0  0  0  0  0  0  0
  141.5953   72.7740  226.3849 H   0  0  0  0  0  0  0  0  0  0  0  0
  141.1013   72.2234  228.7689 H   0  0  0  0  0  0  0  0  0  0  0  0
  1  2  2  0
  2  3  1  0
  3  4  2  0
  4  5  1  0
  5  6  1  0
  6  7  1  0
  7  8  1  0
  8  9  2  0
  9 10  1  0
 10 11  1  0
 11 12  1  0
 12 13  1  0
 13 14  1  0
 14 15  1  0
 15 16  1  0
 10 17  2  0
 17 18  1  0
 18 19  1  0
 19 20  1  0
 20 21  1  0
 21 22  1  0
 22 23  1  0
 23 24  1  0
 18 25  2  0
  4 26  1  0
 26 27  2  0
 27  1  1  0
 25  8  1  0
 16 11  1  0
 24 19  1  0
  1 28  1  0
  2 29  1  0
  3 30  1  0
  5 31  1  0
  5 32  1  0
  6 33  1  0
  6 34  1  0
  7 35  1  0
  9 36  1  0
 12 37  1  0
 12 38  1  0
 13 39  1  0
 13 40  1  0
 14 41  1  0
 15 42  1  0
 15 43  1  0
 16 44  1  0
 16 45  1  0
 20 46  1  0
 20 47  1  0
 21 48  1  0
 21 49  1  0
 22 50  1  0
 23 51  1  0
 23 52  1  0
 24 53  1  0
 24 54  1  0
 26 55  1  0
 27 56  1  0
M  END
>  <UniqueID>  (62) 
521

>  <SMILES>  (62) 
c1ccc(CCNc2cc(N3CCNCC3)nc(N3CCNCC3)n2)cc1

>  <Energy>  (62) 
64.25807105318853

>  <Genealogy>  (62) 
c1ccc(CCNc2cc(N3CCNCC3)nc(N3CCNCC3)n2)cc1 (3D coordinates assigned)
c1ccc(CCNc2cc(N3CCNCC3)nc(N3CCNCC3)n2)cc1 (nonaromatic ring conformer: 64.25807105318853 kcal/mol)

>  <smiles>  (62) 
c1ccc(CCNc2cc(N3CCNCC3)nc(N3CCNCC3)n2)cc1

>  <score_type>  (62) 
oracle

>  <origin>  (62) 
autodockgpu

>  <m_score__min__energy>  (62) 
-9.2300000000000004

>  <m_primary>  (62) 
energy

>  <meeko>  (62) 
{"free_energy": -9.23, "intermolecular_energy": -11.02, "internal_energy": -0.83, "cluster_size": 19, "cluster_id": 1, "rank_in_cluster": 2}

>  <energy>  (62) 
-9.23

>  <cluster_rmsd>  (62) 
0.02

>  <rmsd>  (62) 
271.07

>  <cluster>  (62) 
1

$$$$
USJHBUDYBBTILB-MPIMZMORNA-N
     RDKit          3D

 56 59  0  0  0  0  0  0  0  0999 V2000
  140.9660   70.5880  227.4960 C   0  0  0  0  0  0  0  0  0  0  0  0
  139.9540   69.6430  227.3190 C   0  0  0  0  0  0  0  0  0  0  0  0
  139.1980   69.6370  226.1430 C   0  0  0  0  0  0  0  0  0  0  0  0
  139.4490   70.5840  225.1350 C   0  0  0  0  0  0  0  0  0  0  0  0
  138.6590   70.5570  223.8510 C   0  0  0  0  0  0  0  0  0  0  0  0
  139.4960   71.0550  222.6660 C   0  0  0  0  0  0  0  0  0  0  0  0
  139.3920   72.5060  222.5120 N   0  0  0  0  0  0  0  0  0  0  0  0
  140.4520   73.3080  221.9680 C   0  0  0  0  0  0  0  0  0  0  0  0
  141.5810   72.6970  221.4160 C   0  0  0  0  0  0  0  0  0  0  0  0
  142.5920   73.5070  220.8810 C   0  0  0  0  0  0  0  0  0  0  0  0
  143.7640   72.9330  220.2720 N   0  0  0  0  0  0  0  0  0  0  0  0
  145.0560   73.0480  220.9590 C   0  0  0  0  0  0  0  0  0  0  0  0
  146.1970   72.5570  220.0590 C   0  0  0  0  0  0  0  0  0  0  0  0
  145.9880   73.0070  218.6770 N   0  0  0  0  0  0  0  0  0  0  0  0
  144.7760   72.4220  218.0680 C   0  0  0  0  0  0  0  0  0  0  0  0
  143.6690   72.0740  219.0850 C   0  0  0  0  0  0  0  0  0  0  0  0
  142.4350   74.8580  220.8930 N   0  0  0  0  0  0  0  0  0  0  0  0
  141.3340   75.4450  221.4370 C   0  0  0  0  0  0  0  0  0  0  0  0
  141.2040   76.8820  221.4350 N   0  0  0  0  0  0  0  0  0  0  0  0
  140.6650   77.5920  222.6050 C   0  0  0  0  0  0  0  0  0  0  0  0
  141.3770   78.9450  222.8310 C   0  0  0  0  0  0  0  0  0  0  0  0
  141.9440   79.5510  221.6100 N   0  0  0  0  0  0  0  0  0  0  0  0
  141.2460   79.1250  220.3930 C   0  0  0  0  0  0  0  0  0  0  0  0
  141.4250   77.6190  220.1840 C   0  0  0  0  0  0  0  0  0  0  0  0
  140.3580   74.6640  221.9690 N   0  0  0  0  0  0  0  0  0  0  0  0
  140.4760   71.5250  225.3160 C   0  0  0  0  0  0  0  0  0  0  0  0
  141.2280   71.5290  226.4950 C   0  0  0  0  0  0  0  0  0  0  0  0
  141.5578   70.5926  228.4233 H   0  0  0  0  0  0  0  0  0  0  0  0
  139.7510   68.9018  228.1061 H   0  0  0  0  0  0  0  0  0  0  0  0
  138.4038   68.8884  226.0060 H   0  0  0  0  0  0  0  0  0  0  0  0
  138.3359   69.5246  223.6517 H   0  0  0  0  0  0  0  0  0  0  0  0
  137.7914   71.2235  223.9653 H   0  0  0  0  0  0  0  0  0  0  0  0
  140.5496   70.7875  222.8344 H   0  0  0  0  0  0  0  0  0  0  0  0
  139.1149   70.5812  221.7493 H   0  0  0  0  0  0  0  0  0  0  0  0
  138.5050   72.9700  222.8100 H   0  0  0  0  0  0  0  0  0  0  0  0
  141.6745   71.6011  221.4016 H   0  0  0  0  0  0  0  0  0  0  0  0
  145.2320   74.1015  221.2221 H   0  0  0  0  0  0  0  0  0  0  0  0
  145.0297   72.4261  221.8659 H   0  0  0  0  0  0  0  0  0  0  0  0
  147.1509   72.9593  220.4309 H   0  0  0  0  0  0  0  0  0  0  0  0
  146.2181   71.4574  220.0771 H   0  0  0  0  0  0  0  0  0  0  0  0
  145.8950   74.0510  218.6790 H   0  0  0  0  0  0  0  0  0  0  0  0
  144.3680   73.1449  217.3462 H   0  0  0  0  0  0  0  0  0  0  0  0
  145.0817   71.4775  217.5942 H   0  0  0  0  0  0  0  0  0  0  0  0
  142.6863   72.2190  218.6124 H   0  0  0  0  0  0  0  0  0  0  0  0
  143.7926   71.0263  219.3966 H   0  0  0  0  0  0  0  0  0  0  0  0
  139.5920   77.7759  222.4472 H   0  0  0  0  0  0  0  0  0  0  0  0
  140.8312   76.9647  223.4932 H   0  0  0  0  0  0  0  0  0  0  0  0
  140.6479   79.6497  223.2574 H   0  0  0  0  0  0  0  0  0  0  0  0
  142.2247   78.7436  223.5024 H   0  0  0  0  0  0  0  0  0  0  0  0
  142.9500   79.2740  221.5300 H   0  0  0  0  0  0  0  0  0  0  0  0
  140.1744   79.3542  220.4890 H   0  0  0  0  0  0  0  0  0  0  0  0
  141.6674   79.6610  219.5298 H   0  0  0  0  0  0  0  0  0  0  0  0
  140.7026   77.2724  219.4304 H   0  0  0  0  0  0  0  0  0  0  0  0
  142.4552   77.4330  219.8461 H   0  0  0  0  0  0  0  0  0  0  0  0
  140.6895   72.2615  224.5274 H   0  0  0  0  0  0  0  0  0  0  0  0
  142.0262   72.2728  226.6352 H   0  0  0  0  0  0  0  0  0  0  0  0
  1  2  2  0
  2  3  1  0
  3  4  2  0
  4  5  1  0
  5  6  1  0
  6  7  1  0
  7  8  1  0
  8  9  2  0
  9 10  1  0
 10 11  1  0
 11 12  1  0
 12 13  1  0
 13 14  1  0
 14 15  1  0
 15 16  1  0
 10 17  2  0
 17 18  1  0
 18 19  1  0
 19 20  1  0
 20 21  1  0
 21 22  1  0
 22 23  1  0
 23 24  1  0
 18 25  2  0
  4 26  1  0
 26 27  2  0
 27  1  1  0
 25  8  1  0
 16 11  1  0
 24 19  1  0
  1 28  1  0
  2 29  1  0
  3 30  1  0
  5 31  1  0
  5 32  1  0
  6 33  1  0
  6 34  1  0
  7 35  1  0
  9 36  1  0
 12 37  1  0
 12 38  1  0
 13 39  1  0
 13 40  1  0
 14 41  1  0
 15 42  1  0
 15 43  1  0
 16 44  1  0
 16 45  1  0
 20 46  1  0
 20 47  1  0
 21 48  1  0
 21 49  1  0
 22 50  1  0
 23 51  1  0
 23 52  1  0
 24 53  1  0
 24 54  1  0
 26 55  1  0
 27 56  1  0
M  END
>  <UniqueID>  (63) 
521

>  <SMILES>  (63) 
c1ccc(CCNc2cc(N3CCNCC3)nc(N3CCNCC3)n2)cc1

>  <Energy>  (63) 
64.25807105318853

>  <Genealogy>  (63) 
c1ccc(CCNc2cc(N3CCNCC3)nc(N3CCNCC3)n2)cc1 (3D coordinates assigned)
c1ccc(CCNc2cc(N3CCNCC3)nc(N3CCNCC3)n2)cc1 (nonaromatic ring conformer: 64.25807105318853 kcal/mol)

>  <smiles>  (63) 
c1ccc(CCNc2cc(N3CCNCC3)nc(N3CCNCC3)n2)cc1

>  <score_type>  (63) 
oracle

>  <origin>  (63) 
autodockgpu

>  <m_score__min__energy>  (63) 
-9.2300000000000004

>  <m_primary>  (63) 
energy

>  <meeko>  (63) 
{"free_energy": -8.94, "intermolecular_energy": -10.73, "internal_energy": -0.9, "cluster_size": 19, "cluster_id": 1, "rank_in_cluster": 13}

>  <energy>  (63) 
-9.21

>  <cluster_rmsd>  (63) 
0.06

>  <rmsd>  (63) 
271.06

>  <cluster>  (63) 
1

$$$$
USJHBUDYBBTILB-MPIMZMORNA-N
     RDKit          3D

 56 59  0  0  0  0  0  0  0  0999 V2000
  141.0520   70.9880  227.7460 C   0  0  0  0  0  0  0  0  0  0  0  0
  140.0950   69.9790  227.6140 C   0  0  0  0  0  0  0  0  0  0  0  0
  139.3590   69.8630  226.4300 C   0  0  0  0  0  0  0  0  0  0  0  0
  139.5730   70.7630  225.3720 C   0  0  0  0  0  0  0  0  0  0  0  0
  138.8050   70.6180  224.0820 C   0  0  0  0  0  0  0  0  0  0  0  0
  139.6240   71.1130  222.8830 C   0  0  0  0  0  0  0  0  0  0  0  0
  139.4820   72.5570  222.7000 N   0  0  0  0  0  0  0  0  0  0  0  0
  140.4870   73.3620  222.0650 C   0  0  0  0  0  0  0  0  0  0  0  0
  141.5520   72.7550  221.3940 C   0  0  0  0  0  0  0  0  0  0  0  0
  142.5090   73.5670  220.7720 C   0  0  0  0  0  0  0  0  0  0  0  0
  143.6110   72.9970  220.0410 N   0  0  0  0  0  0  0  0  0  0  0  0
  144.8410   72.6460  220.7600 C   0  0  0  0  0  0  0  0  0  0  0  0
  145.9520   72.2490  219.7780 C   0  0  0  0  0  0  0  0  0  0  0  0
  145.9400   73.1340  218.6070 N   0  0  0  0  0  0  0  0  0  0  0  0
  144.7000   73.0080  217.8140 C   0  0  0  0  0  0  0  0  0  0  0  0
  143.4680   72.5810  218.6390 C   0  0  0  0  0  0  0  0  0  0  0  0
  142.3620   74.9190  220.8180 N   0  0  0  0  0  0  0  0  0  0  0  0
  141.3240   75.5030  221.4770 C   0  0  0  0  0  0  0  0  0  0  0  0
  141.2030   76.9400  221.5090 N   0  0  0  0  0  0  0  0  0  0  0  0
  140.6800   77.6270  222.6990 C   0  0  0  0  0  0  0  0  0  0  0  0
  141.4030   78.9710  222.9470 C   0  0  0  0  0  0  0  0  0  0  0  0
  141.9610   79.6000  221.7350 N   0  0  0  0  0  0  0  0  0  0  0  0
  141.2480   79.2060  220.5160 C   0  0  0  0  0  0  0  0  0  0  0  0
  141.4160   77.7030  220.2720 C   0  0  0  0  0  0  0  0  0  0  0  0
  140.4020   74.7180  222.0940 N   0  0  0  0  0  0  0  0  0  0  0  0
  140.5450   71.7670  225.5090 C   0  0  0  0  0  0  0  0  0  0  0  0
  141.2780   71.8810  226.6940 C   0  0  0  0  0  0  0  0  0  0  0  0
  141.6283   71.0801  228.6784 H   0  0  0  0  0  0  0  0  0  0  0  0
  139.9201   69.2755  228.4413 H   0  0  0  0  0  0  0  0  0  0  0  0
  138.6098   69.0642  226.3267 H   0  0  0  0  0  0  0  0  0  0  0  0
  138.5557   69.5572  223.9314 H   0  0  0  0  0  0  0  0  0  0  0  0
  137.8923   71.2279  224.1526 H   0  0  0  0  0  0  0  0  0  0  0  0
  140.6848   70.8762  223.0518 H   0  0  0  0  0  0  0  0  0  0  0  0
  139.2514   70.6108  221.9780 H   0  0  0  0  0  0  0  0  0  0  0  0
  138.6090   73.0140  223.0480 H   0  0  0  0  0  0  0  0  0  0  0  0
  141.6373   71.6590  221.3550 H   0  0  0  0  0  0  0  0  0  0  0  0
  145.1738   73.5128  221.3498 H   0  0  0  0  0  0  0  0  0  0  0  0
  144.6319   71.7913  221.4201 H   0  0  0  0  0  0  0  0  0  0  0  0
  146.9265   72.3279  220.2820 H   0  0  0  0  0  0  0  0  0  0  0  0
  145.7813   71.2145  219.4453 H   0  0  0  0  0  0  0  0  0  0  0  0
  146.0290   74.1240  218.9400 H   0  0  0  0  0  0  0  0  0  0  0  0
  144.4852   73.9823  217.3507 H   0  0  0  0  0  0  0  0  0  0  0  0
  144.8761   72.2155  217.0717 H   0  0  0  0  0  0  0  0  0  0  0  0
  142.5685   73.0498  218.2134 H   0  0  0  0  0  0  0  0  0  0  0  0
  143.3813   71.4850  218.6028 H   0  0  0  0  0  0  0  0  0  0  0  0
  139.6067   77.8206  222.5560 H   0  0  0  0  0  0  0  0  0  0  0  0
  140.8507   76.9795  223.5717 H   0  0  0  0  0  0  0  0  0  0  0  0
  140.6826   79.6705  223.3962 H   0  0  0  0  0  0  0  0  0  0  0  0
  142.2564   78.7496  223.6049 H   0  0  0  0  0  0  0  0  0  0  0  0
  142.9650   79.3190  221.6380 H   0  0  0  0  0  0  0  0  0  0  0  0
  140.1789   79.4394  220.6280 H   0  0  0  0  0  0  0  0  0  0  0  0
  141.6635   79.7588  219.6606 H   0  0  0  0  0  0  0  0  0  0  0  0
  140.6840   77.3773  219.5183 H   0  0  0  0  0  0  0  0  0  0  0  0
  142.4415   77.5185  219.9196 H   0  0  0  0  0  0  0  0  0  0  0  0
  140.7305   72.4666  224.6807 H   0  0  0  0  0  0  0  0  0  0  0  0
  142.0332   72.6739  226.7989 H   0  0  0  0  0  0  0  0  0  0  0  0
  1  2  2  0
  2  3  1  0
  3  4  2  0
  4  5  1  0
  5  6  1  0
  6  7  1  0
  7  8  1  0
  8  9  2  0
  9 10  1  0
 10 11  1  0
 11 12  1  0
 12 13  1  0
 13 14  1  0
 14 15  1  0
 15 16  1  0
 10 17  2  0
 17 18  1  0
 18 19  1  0
 19 20  1  0
 20 21  1  0
 21 22  1  0
 22 23  1  0
 23 24  1  0
 18 25  2  0
  4 26  1  0
 26 27  2  0
 27  1  1  0
 25  8  1  0
 16 11  1  0
 24 19  1  0
  1 28  1  0
  2 29  1  0
  3 30  1  0
  5 31  1  0
  5 32  1  0
  6 33  1  0
  6 34  1  0
  7 35  1  0
  9 36  1  0
 12 37  1  0
 12 38  1  0
 13 39  1  0
 13 40  1  0
 14 41  1  0
 15 42  1  0
 15 43  1  0
 16 44  1  0
 16 45  1  0
 20 46  1  0
 20 47  1  0
 21 48  1  0
 21 49  1  0
 22 50  1  0
 23 51  1  0
 23 52  1  0
 24 53  1  0
 24 54  1  0
 26 55  1  0
 27 56  1  0
M  END
>  <UniqueID>  (64) 
521

>  <SMILES>  (64) 
c1ccc(CCNc2cc(N3CCNCC3)nc(N3CCNCC3)n2)cc1

>  <Energy>  (64) 
64.25807105318853

>  <Genealogy>  (64) 
c1ccc(CCNc2cc(N3CCNCC3)nc(N3CCNCC3)n2)cc1 (3D coordinates assigned)
c1ccc(CCNc2cc(N3CCNCC3)nc(N3CCNCC3)n2)cc1 (nonaromatic ring conformer: 64.25807105318853 kcal/mol)

>  <smiles>  (64) 
c1ccc(CCNc2cc(N3CCNCC3)nc(N3CCNCC3)n2)cc1

>  <score_type>  (64) 
oracle

>  <origin>  (64) 
autodockgpu

>  <m_score__min__energy>  (64) 
-9.2300000000000004

>  <m_primary>  (64) 
energy

>  <meeko>  (64) 
{"free_energy": -8.98, "intermolecular_energy": -10.77, "internal_energy": -0.89, "cluster_size": 19, "cluster_id": 1, "rank_in_cluster": 12}

>  <energy>  (64) 
-9.2

>  <cluster_rmsd>  (64) 
0.08

>  <rmsd>  (64) 
271.05

>  <cluster>  (64) 
1

$$$$
USJHBUDYBBTILB-MPIMZMORNA-N
     RDKit          3D

 56 59  0  0  0  0  0  0  0  0999 V2000
  141.0640   70.6020  227.6290 C   0  0  0  0  0  0  0  0  0  0  0  0
  141.3220   71.5400  226.6270 C   0  0  0  0  0  0  0  0  0  0  0  0
  140.5750   71.5260  225.4450 C   0  0  0  0  0  0  0  0  0  0  0  0
  139.5650   70.5660  225.2570 C   0  0  0  0  0  0  0  0  0  0  0  0
  138.7340   70.5720  223.9990 C   0  0  0  0  0  0  0  0  0  0  0  0
  139.5380   71.0850  222.7970 C   0  0  0  0  0  0  0  0  0  0  0  0
  139.4410   72.5390  222.6720 N   0  0  0  0  0  0  0  0  0  0  0  0
  140.4640   73.3350  222.0540 C   0  0  0  0  0  0  0  0  0  0  0  0
  141.5330   72.7190  221.3990 C   0  0  0  0  0  0  0  0  0  0  0  0
  142.5080   73.5240  220.7940 C   0  0  0  0  0  0  0  0  0  0  0  0
  143.6160   72.9440  220.0790 N   0  0  0  0  0  0  0  0  0  0  0  0
  144.8510   72.6300  220.8080 C   0  0  0  0  0  0  0  0  0  0  0  0
  145.9650   72.2160  219.8370 C   0  0  0  0  0  0  0  0  0  0  0  0
  145.9410   73.0650  218.6400 N   0  0  0  0  0  0  0  0  0  0  0  0
  144.7030   72.9010  217.8530 C   0  0  0  0  0  0  0  0  0  0  0  0
  143.4770   72.4840  218.6920 C   0  0  0  0  0  0  0  0  0  0  0  0
  142.3730   74.8770  220.8420 N   0  0  0  0  0  0  0  0  0  0  0  0
  141.3300   75.4690  221.4850 C   0  0  0  0  0  0  0  0  0  0  0  0
  141.2230   76.9070  221.5180 N   0  0  0  0  0  0  0  0  0  0  0  0
  140.7220   77.6000  222.7150 C   0  0  0  0  0  0  0  0  0  0  0  0
  141.4600   78.9370  222.9530 C   0  0  0  0  0  0  0  0  0  0  0  0
  142.0070   79.5610  221.7330 N   0  0  0  0  0  0  0  0  0  0  0  0
  141.2740   79.1720  220.5240 C   0  0  0  0  0  0  0  0  0  0  0  0
  141.4260   77.6680  220.2780 C   0  0  0  0  0  0  0  0  0  0  0  0
  140.3900   74.6920  222.0850 N   0  0  0  0  0  0  0  0  0  0  0  0
  139.3040   69.6340  226.2750 C   0  0  0  0  0  0  0  0  0  0  0  0
  140.0540   69.6500  227.4550 C   0  0  0  0  0  0  0  0  0  0  0  0
  141.6558   70.6118  228.5562 H   0  0  0  0  0  0  0  0  0  0  0  0
  142.1137   72.2906  226.7677 H   0  0  0  0  0  0  0  0  0  0  0  0
  140.7782   72.2687  224.6594 H   0  0  0  0  0  0  0  0  0  0  0  0
  138.3938   69.5470  223.7903 H   0  0  0  0  0  0  0  0  0  0  0  0
  137.8775   71.2446  224.1541 H   0  0  0  0  0  0  0  0  0  0  0  0
  140.5941   70.8066  222.9276 H   0  0  0  0  0  0  0  0  0  0  0  0
  139.1248   70.6306  221.8845 H   0  0  0  0  0  0  0  0  0  0  0  0
  138.5870   73.0100  223.0480 H   0  0  0  0  0  0  0  0  0  0  0  0
  141.6083   71.6223  221.3587 H   0  0  0  0  0  0  0  0  0  0  0  0
  145.1741   73.5186  221.3702 H   0  0  0  0  0  0  0  0  0  0  0  0
  144.6527   71.7942  221.4951 H   0  0  0  0  0  0  0  0  0  0  0  0
  146.9392   72.3213  220.3368 H   0  0  0  0  0  0  0  0  0  0  0  0
  145.8060   71.1699  219.5362 H   0  0  0  0  0  0  0  0  0  0  0  0
  146.0190   74.0660  218.9420 H   0  0  0  0  0  0  0  0  0  0  0  0
  144.4762   73.8585  217.3613 H   0  0  0  0  0  0  0  0  0  0  0  0
  144.8879   72.0892  217.1341 H   0  0  0  0  0  0  0  0  0  0  0  0
  142.5714   72.9283  218.2534 H   0  0  0  0  0  0  0  0  0  0  0  0
  143.4037   71.3864  218.6893 H   0  0  0  0  0  0  0  0  0  0  0  0
  139.6487   77.8034  222.5860 H   0  0  0  0  0  0  0  0  0  0  0  0
  140.8987   76.9513  223.5856 H   0  0  0  0  0  0  0  0  0  0  0  0
  140.7521   79.6429  223.4119 H   0  0  0  0  0  0  0  0  0  0  0  0
  142.3202   78.7081  223.5993 H   0  0  0  0  0  0  0  0  0  0  0  0
  143.0070   79.2710  221.6230 H   0  0  0  0  0  0  0  0  0  0  0  0
  140.2085   79.4142  220.6507 H   0  0  0  0  0  0  0  0  0  0  0  0
  141.6825   79.7210  219.6628 H   0  0  0  0  0  0  0  0  0  0  0  0
  140.6813   77.3484  219.5342 H   0  0  0  0  0  0  0  0  0  0  0  0
  142.4451   77.4747  219.9119 H   0  0  0  0  0  0  0  0  0  0  0  0
  138.5061   68.8883  226.1433 H   0  0  0  0  0  0  0  0  0  0  0  0
  139.8498   68.9139  228.2465 H   0  0  0  0  0  0  0  0  0  0  0  0
  1  2  2  0
  2  3  1  0
  3  4  2  0
  4  5  1  0
  5  6  1  0
  6  7  1  0
  7  8  1  0
  8  9  2  0
  9 10  1  0
 10 11  1  0
 11 12  1  0
 12 13  1  0
 13 14  1  0
 14 15  1  0
 15 16  1  0
 10 17  2  0
 17 18  1  0
 18 19  1  0
 19 20  1  0
 20 21  1  0
 21 22  1  0
 22 23  1  0
 23 24  1  0
 18 25  2  0
  4 26  1  0
 26 27  2  0
 27  1  1  0
 25  8  1  0
 16 11  1  0
 24 19  1  0
  1 28  1  0
  2 29  1  0
  3 30  1  0
  5 31  1  0
  5 32  1  0
  6 33  1  0
  6 34  1  0
  7 35  1  0
  9 36  1  0
 12 37  1  0
 12 38  1  0
 13 39  1  0
 13 40  1  0
 14 41  1  0
 15 42  1  0
 15 43  1  0
 16 44  1  0
 16 45  1  0
 20 46  1  0
 20 47  1  0
 21 48  1  0
 21 49  1  0
 22 50  1  0
 23 51  1  0
 23 52  1  0
 24 53  1  0
 24 54  1  0
 26 55  1  0
 27 56  1  0
M  END
>  <UniqueID>  (65) 
521

>  <SMILES>  (65) 
c1ccc(CCNc2cc(N3CCNCC3)nc(N3CCNCC3)n2)cc1

>  <Energy>  (65) 
64.25807105318853

>  <Genealogy>  (65) 
c1ccc(CCNc2cc(N3CCNCC3)nc(N3CCNCC3)n2)cc1 (3D coordinates assigned)
c1ccc(CCNc2cc(N3CCNCC3)nc(N3CCNCC3)n2)cc1 (nonaromatic ring conformer: 64.25807105318853 kcal/mol)

>  <smiles>  (65) 
c1ccc(CCNc2cc(N3CCNCC3)nc(N3CCNCC3)n2)cc1

>  <score_type>  (65) 
oracle

>  <origin>  (65) 
autodockgpu

>  <m_score__min__energy>  (65) 
-9.2300000000000004

>  <m_primary>  (65) 
energy

>  <meeko>  (65) 
{"free_energy": -9.01, "intermolecular_energy": -10.8, "internal_energy": -0.89, "cluster_size": 19, "cluster_id": 1, "rank_in_cluster": 9}

>  <energy>  (65) 
-9.18

>  <cluster_rmsd>  (65) 
0.1

>  <rmsd>  (65) 
271.02

>  <cluster>  (65) 
1

$$$$
USJHBUDYBBTILB-MPIMZMORNA-N
     RDKit          3D

 56 59  0  0  0  0  0  0  0  0999 V2000
  142.2920   81.3100  223.3930 C   0  0  0  0  0  0  0  0  0  0  0  0
  142.5180   80.0190  223.8740 C   0  0  0  0  0  0  0  0  0  0  0  0
  141.5620   79.0190  223.6740 C   0  0  0  0  0  0  0  0  0  0  0  0
  140.3670   79.3090  222.9930 C   0  0  0  0  0  0  0  0  0  0  0  0
  139.3500   78.2230  222.7450 C   0  0  0  0  0  0  0  0  0  0  0  0
  139.7010   77.3990  221.5000 C   0  0  0  0  0  0  0  0  0  0  0  0
  141.0280   76.7960  221.6160 N   0  0  0  0  0  0  0  0  0  0  0  0
  141.2510   75.3810  221.5110 C   0  0  0  0  0  0  0  0  0  0  0  0
  142.4180   74.8970  220.9130 C   0  0  0  0  0  0  0  0  0  0  0  0
  142.6120   73.5120  220.8370 C   0  0  0  0  0  0  0  0  0  0  0  0
  143.8090   72.9560  220.2600 N   0  0  0  0  0  0  0  0  0  0  0  0
  145.0830   73.1080  220.9710 C   0  0  0  0  0  0  0  0  0  0  0  0
  146.2530   72.6310  220.1000 C   0  0  0  0  0  0  0  0  0  0  0  0
  146.0620   73.0580  218.7090 N   0  0  0  0  0  0  0  0  0  0  0  0
  144.8760   72.4390  218.0840 C   0  0  0  0  0  0  0  0  0  0  0  0
  143.7560   72.0790  219.0820 C   0  0  0  0  0  0  0  0  0  0  0  0
  141.6740   72.6810  221.3680 N   0  0  0  0  0  0  0  0  0  0  0  0
  140.5390   73.1600  221.9450 C   0  0  0  0  0  0  0  0  0  0  0  0
  139.5640   72.2490  222.4930 N   0  0  0  0  0  0  0  0  0  0  0  0
  139.9690   71.1750  223.4140 C   0  0  0  0  0  0  0  0  0  0  0  0
  138.9100   70.9380  224.5150 C   0  0  0  0  0  0  0  0  0  0  0  0
  137.5330   71.3040  224.1310 N   0  0  0  0  0  0  0  0  0  0  0  0
  137.3150   71.2360  222.6830 C   0  0  0  0  0  0  0  0  0  0  0  0
  138.1920   72.2700  221.9700 C   0  0  0  0  0  0  0  0  0  0  0  0
  140.3400   74.5030  222.0070 N   0  0  0  0  0  0  0  0  0  0  0  0
  140.1520   80.6070  222.5020 C   0  0  0  0  0  0  0  0  0  0  0  0
  141.1100   81.6050  222.7050 C   0  0  0  0  0  0  0  0  0  0  0  0
  143.0441   82.0962  223.5551 H   0  0  0  0  0  0  0  0  0  0  0  0
  143.4498   79.7884  224.4112 H   0  0  0  0  0  0  0  0  0  0  0  0
  141.7454   78.0019  224.0507 H   0  0  0  0  0  0  0  0  0  0  0  0
  139.3195   77.5554  223.6187 H   0  0  0  0  0  0  0  0  0  0  0  0
  138.3712   78.6973  222.5807 H   0  0  0  0  0  0  0  0  0  0  0  0
  138.9545   76.6005  221.3772 H   0  0  0  0  0  0  0  0  0  0  0  0
  139.7009   78.0707  220.6289 H   0  0  0  0  0  0  0  0  0  0  0  0
  141.8430   77.4280  221.7800 H   0  0  0  0  0  0  0  0  0  0  0  0
  143.1701   75.5910  220.5095 H   0  0  0  0  0  0  0  0  0  0  0  0
  145.2306   74.1683  221.2241 H   0  0  0  0  0  0  0  0  0  0  0  0
  145.0518   72.4971  221.8852 H   0  0  0  0  0  0  0  0  0  0  0  0
  147.1900   73.0594  220.4853 H   0  0  0  0  0  0  0  0  0  0  0  0
  146.2981   71.5324  220.1332 H   0  0  0  0  0  0  0  0  0  0  0  0
  145.9460   74.1000  218.6950 H   0  0  0  0  0  0  0  0  0  0  0  0
  144.4672   73.1437  217.3449 H   0  0  0  0  0  0  0  0  0  0  0  0
  145.2122   71.4955  217.6293 H   0  0  0  0  0  0  0  0  0  0  0  0
  142.7803   72.1966  218.5878 H   0  0  0  0  0  0  0  0  0  0  0  0
  143.8948   71.0380  219.4093 H   0  0  0  0  0  0  0  0  0  0  0  0
  140.1023   70.2454  222.8413 H   0  0  0  0  0  0  0  0  0  0  0  0
  140.9086   71.4759  223.9004 H   0  0  0  0  0  0  0  0  0  0  0  0
  138.9207   69.8698  224.7773 H   0  0  0  0  0  0  0  0  0  0  0  0
  139.1833   71.5914  225.3567 H   0  0  0  0  0  0  0  0  0  0  0  0
  137.3400   72.2820  224.4510 H   0  0  0  0  0  0  0  0  0  0  0  0
  137.5736   70.2293  222.3229 H   0  0  0  0  0  0  0  0  0  0  0  0
  136.2578   71.4503  222.4674 H   0  0  0  0  0  0  0  0  0  0  0  0
  138.2140   72.0420  220.8941 H   0  0  0  0  0  0  0  0  0  0  0  0
  137.7665   73.2693  222.1444 H   0  0  0  0  0  0  0  0  0  0  0  0
  139.2261   80.8395  221.9555 H   0  0  0  0  0  0  0  0  0  0  0  0
  140.9344   82.6218  222.3239 H   0  0  0  0  0  0  0  0  0  0  0  0
  1  2  2  0
  2  3  1  0
  3  4  2  0
  4  5  1  0
  5  6  1  0
  6  7  1  0
  7  8  1  0
  8  9  2  0
  9 10  1  0
 10 11  1  0
 11 12  1  0
 12 13  1  0
 13 14  1  0
 14 15  1  0
 15 16  1  0
 10 17  2  0
 17 18  1  0
 18 19  1  0
 19 20  1  0
 20 21  1  0
 21 22  1  0
 22 23  1  0
 23 24  1  0
 18 25  2  0
  4 26  1  0
 26 27  2  0
 27  1  1  0
 25  8  1  0
 16 11  1  0
 24 19  1  0
  1 28  1  0
  2 29  1  0
  3 30  1  0
  5 31  1  0
  5 32  1  0
  6 33  1  0
  6 34  1  0
  7 35  1  0
  9 36  1  0
 12 37  1  0
 12 38  1  0
 13 39  1  0
 13 40  1  0
 14 41  1  0
 15 42  1  0
 15 43  1  0
 16 44  1  0
 16 45  1  0
 20 46  1  0
 20 47  1  0
 21 48  1  0
 21 49  1  0
 22 50  1  0
 23 51  1  0
 23 52  1  0
 24 53  1  0
 24 54  1  0
 26 55  1  0
 27 56  1  0
M  END
>  <UniqueID>  (66) 
521

>  <SMILES>  (66) 
c1ccc(CCNc2cc(N3CCNCC3)nc(N3CCNCC3)n2)cc1

>  <Energy>  (66) 
64.25807105318853

>  <Genealogy>  (66) 
c1ccc(CCNc2cc(N3CCNCC3)nc(N3CCNCC3)n2)cc1 (3D coordinates assigned)
c1ccc(CCNc2cc(N3CCNCC3)nc(N3CCNCC3)n2)cc1 (nonaromatic ring conformer: 64.25807105318853 kcal/mol)

>  <smiles>  (66) 
c1ccc(CCNc2cc(N3CCNCC3)nc(N3CCNCC3)n2)cc1

>  <score_type>  (66) 
oracle

>  <origin>  (66) 
autodockgpu

>  <m_score__min__energy>  (66) 
-9.2300000000000004

>  <m_primary>  (66) 
energy

>  <meeko>  (66) 
{"free_energy": -8.26, "intermolecular_energy": -10.05, "internal_energy": -0.86, "cluster_size": 1, "cluster_id": 2, "rank_in_cluster": 1}

>  <energy>  (66) 
-9.12

>  <cluster_rmsd>  (66) 
0.25

>  <rmsd>  (66) 
271.0

>  <cluster>  (66) 
1

$$$$
USJHBUDYBBTILB-MPIMZMORNA-N
     RDKit          3D

 56 59  0  0  0  0  0  0  0  0999 V2000
  140.6280   69.9340  228.0950 C   0  0  0  0  0  0  0  0  0  0  0  0
  140.2510   69.2110  226.9610 C   0  0  0  0  0  0  0  0  0  0  0  0
  140.2620   69.8240  225.7040 C   0  0  0  0  0  0  0  0  0  0  0  0
  140.6470   71.1690  225.5760 C   0  0  0  0  0  0  0  0  0  0  0  0
  140.6940   71.8210  224.2170 C   0  0  0  0  0  0  0  0  0  0  0  0
  139.4150   71.5450  223.4160 C   0  0  0  0  0  0  0  0  0  0  0  0
  139.2920   72.4540  222.2770 N   0  0  0  0  0  0  0  0  0  0  0  0
  140.3790   73.2670  221.8100 C   0  0  0  0  0  0  0  0  0  0  0  0
  141.5140   72.6690  221.2560 C   0  0  0  0  0  0  0  0  0  0  0  0
  142.5530   73.4890  220.7970 C   0  0  0  0  0  0  0  0  0  0  0  0
  143.7330   72.9300  220.1890 N   0  0  0  0  0  0  0  0  0  0  0  0
  145.0100   73.0040  220.9070 C   0  0  0  0  0  0  0  0  0  0  0  0
  146.1670   72.5400  220.0110 C   0  0  0  0  0  0  0  0  0  0  0  0
  145.9920   73.0500  218.6460 N   0  0  0  0  0  0  0  0  0  0  0  0
  144.7880   72.5040  217.9870 C   0  0  0  0  0  0  0  0  0  0  0  0
  143.6560   72.1230  218.9640 C   0  0  0  0  0  0  0  0  0  0  0  0
  142.4170   74.8400  220.8810 N   0  0  0  0  0  0  0  0  0  0  0  0
  141.3100   75.4150  221.4260 C   0  0  0  0  0  0  0  0  0  0  0  0
  141.2030   76.8510  221.5030 N   0  0  0  0  0  0  0  0  0  0  0  0
  140.6780   77.5060  222.7110 C   0  0  0  0  0  0  0  0  0  0  0  0
  141.4120   78.8330  223.0070 C   0  0  0  0  0  0  0  0  0  0  0  0
  141.9860   79.4950  221.8200 N   0  0  0  0  0  0  0  0  0  0  0  0
  141.2780   79.1470  220.5840 C   0  0  0  0  0  0  0  0  0  0  0  0
  141.4330   77.6520  220.2930 C   0  0  0  0  0  0  0  0  0  0  0  0
  140.3070   74.6220  221.8860 N   0  0  0  0  0  0  0  0  0  0  0  0
  141.0360   71.8860  226.7190 C   0  0  0  0  0  0  0  0  0  0  0  0
  141.0210   71.2710  227.9750 C   0  0  0  0  0  0  0  0  0  0  0  0
  140.6158   69.4515  229.0834 H   0  0  0  0  0  0  0  0  0  0  0  0
  139.9452   68.1587  227.0566 H   0  0  0  0  0  0  0  0  0  0  0  0
  139.9681   69.2509  224.8123 H   0  0  0  0  0  0  0  0  0  0  0  0
  140.8076   72.9075  224.3456 H   0  0  0  0  0  0  0  0  0  0  0  0
  141.5459   71.4010  223.6622 H   0  0  0  0  0  0  0  0  0  0  0  0
  139.4408   70.5093  223.0462 H   0  0  0  0  0  0  0  0  0  0  0  0
  138.5510   71.7015  224.0786 H   0  0  0  0  0  0  0  0  0  0  0  0
  138.3700   72.5070  221.7870 H   0  0  0  0  0  0  0  0  0  0  0  0
  141.5903   71.5742  221.1817 H   0  0  0  0  0  0  0  0  0  0  0  0
  145.1892   74.0438  221.2178 H   0  0  0  0  0  0  0  0  0  0  0  0
  144.9588   72.3449  221.7862 H   0  0  0  0  0  0  0  0  0  0  0  0
  147.1160   72.9169  220.4200 H   0  0  0  0  0  0  0  0  0  0  0  0
  146.1782   71.4404  219.9828 H   0  0  0  0  0  0  0  0  0  0  0  0
  145.9080   74.0940  218.6910 H   0  0  0  0  0  0  0  0  0  0  0  0
  144.4021   73.2616  217.2890 H   0  0  0  0  0  0  0  0  0  0  0  0
  145.0954   71.5778  217.4794 H   0  0  0  0  0  0  0  0  0  0  0  0
  142.6851   72.2975  218.4772 H   0  0  0  0  0  0  0  0  0  0  0  0
  143.7634   71.0617  219.2327 H   0  0  0  0  0  0  0  0  0  0  0  0
  139.6078   77.7152  222.5664 H   0  0  0  0  0  0  0  0  0  0  0  0
  140.8359   76.8294  223.5638 H   0  0  0  0  0  0  0  0  0  0  0  0
  140.6952   79.5251  223.4729 H   0  0  0  0  0  0  0  0  0  0  0  0
  142.2580   78.5818  223.6636 H   0  0  0  0  0  0  0  0  0  0  0  0
  142.9870   79.2070  221.7220 H   0  0  0  0  0  0  0  0  0  0  0  0
  140.2104   79.3872  220.6961 H   0  0  0  0  0  0  0  0  0  0  0  0
  141.7052   79.7227  219.7497 H   0  0  0  0  0  0  0  0  0  0  0  0
  140.7037   77.3582  219.5237 H   0  0  0  0  0  0  0  0  0  0  0  0
  142.4595   77.4688  219.9426 H   0  0  0  0  0  0  0  0  0  0  0  0
  141.3536   72.9350  226.6262 H   0  0  0  0  0  0  0  0  0  0  0  0
  141.3184   71.8390  228.8689 H   0  0  0  0  0  0  0  0  0  0  0  0
  1  2  2  0
  2  3  1  0
  3  4  2  0
  4  5  1  0
  5  6  1  0
  6  7  1  0
  7  8  1  0
  8  9  2  0
  9 10  1  0
 10 11  1  0
 11 12  1  0
 12 13  1  0
 13 14  1  0
 14 15  1  0
 15 16  1  0
 10 17  2  0
 17 18  1  0
 18 19  1  0
 19 20  1  0
 20 21  1  0
 21 22  1  0
 22 23  1  0
 23 24  1  0
 18 25  2  0
  4 26  1  0
 26 27  2  0
 27  1  1  0
 25  8  1  0
 16 11  1  0
 24 19  1  0
  1 28  1  0
  2 29  1  0
  3 30  1  0
  5 31  1  0
  5 32  1  0
  6 33  1  0
  6 34  1  0
  7 35  1  0
  9 36  1  0
 12 37  1  0
 12 38  1  0
 13 39  1  0
 13 40  1  0
 14 41  1  0
 15 42  1  0
 15 43  1  0
 16 44  1  0
 16 45  1  0
 20 46  1  0
 20 47  1  0
 21 48  1  0
 21 49  1  0
 22 50  1  0
 23 51  1  0
 23 52  1  0
 24 53  1  0
 24 54  1  0
 26 55  1  0
 27 56  1  0
M  END
>  <UniqueID>  (67) 
521

>  <SMILES>  (67) 
c1ccc(CCNc2cc(N3CCNCC3)nc(N3CCNCC3)n2)cc1

>  <Energy>  (67) 
64.25807105318853

>  <Genealogy>  (67) 
c1ccc(CCNc2cc(N3CCNCC3)nc(N3CCNCC3)n2)cc1 (3D coordinates assigned)
c1ccc(CCNc2cc(N3CCNCC3)nc(N3CCNCC3)n2)cc1 (nonaromatic ring conformer: 64.25807105318853 kcal/mol)

>  <smiles>  (67) 
c1ccc(CCNc2cc(N3CCNCC3)nc(N3CCNCC3)n2)cc1

>  <score_type>  (67) 
oracle

>  <origin>  (67) 
autodockgpu

>  <m_score__min__energy>  (67) 
-9.2300000000000004

>  <m_primary>  (67) 
energy

>  <meeko>  (67) 
{"free_energy": -9.0, "intermolecular_energy": -10.79, "internal_energy": -0.84, "cluster_size": 19, "cluster_id": 1, "rank_in_cluster": 10}

>  <energy>  (67) 
-9.02

>  <cluster_rmsd>  (67) 
0.39

>  <rmsd>  (67) 
271.05

>  <cluster>  (67) 
1

$$$$
USJHBUDYBBTILB-MPIMZMORNA-N
     RDKit          3D

 56 59  0  0  0  0  0  0  0  0999 V2000
  139.9830   70.5290  228.1980 C   0  0  0  0  0  0  0  0  0  0  0  0
  139.5380   69.6240  227.2310 C   0  0  0  0  0  0  0  0  0  0  0  0
  139.8180   69.8480  225.8800 C   0  0  0  0  0  0  0  0  0  0  0  0
  140.5430   70.9860  225.4860 C   0  0  0  0  0  0  0  0  0  0  0  0
  140.8770   71.2110  224.0330 C   0  0  0  0  0  0  0  0  0  0  0  0
  139.6100   71.2870  223.1710 C   0  0  0  0  0  0  0  0  0  0  0  0
  139.3870   72.6430  222.6690 N   0  0  0  0  0  0  0  0  0  0  0  0
  140.4200   73.4180  222.0410 C   0  0  0  0  0  0  0  0  0  0  0  0
  141.4880   72.7800  221.4050 C   0  0  0  0  0  0  0  0  0  0  0  0
  142.4730   73.5640  220.7900 C   0  0  0  0  0  0  0  0  0  0  0  0
  143.5800   72.9610  220.0940 N   0  0  0  0  0  0  0  0  0  0  0  0
  144.8180   72.6780  220.8300 C   0  0  0  0  0  0  0  0  0  0  0  0
  145.9310   72.2310  219.8720 C   0  0  0  0  0  0  0  0  0  0  0  0
  145.9010   73.0340  218.6440 N   0  0  0  0  0  0  0  0  0  0  0  0
  144.6610   72.8360  217.8670 C   0  0  0  0  0  0  0  0  0  0  0  0
  143.4390   72.4480  218.7250 C   0  0  0  0  0  0  0  0  0  0  0  0
  142.3480   74.9190  220.8080 N   0  0  0  0  0  0  0  0  0  0  0  0
  141.3070   75.5330  221.4330 C   0  0  0  0  0  0  0  0  0  0  0  0
  141.2110   76.9720  221.4350 N   0  0  0  0  0  0  0  0  0  0  0  0
  140.6560   77.6900  222.5930 C   0  0  0  0  0  0  0  0  0  0  0  0
  141.3930   79.0250  222.8450 C   0  0  0  0  0  0  0  0  0  0  0  0
  142.0070   79.6230  221.6430 N   0  0  0  0  0  0  0  0  0  0  0  0
  141.3330   79.2190  220.4060 C   0  0  0  0  0  0  0  0  0  0  0  0
  141.4820   77.7090  220.1940 C   0  0  0  0  0  0  0  0  0  0  0  0
  140.3570   74.7760  222.0430 N   0  0  0  0  0  0  0  0  0  0  0  0
  140.9970   71.8850  226.4650 C   0  0  0  0  0  0  0  0  0  0  0  0
  140.7130   71.6580  227.8150 C   0  0  0  0  0  0  0  0  0  0  0  0
  139.7590   70.3532  229.2605 H   0  0  0  0  0  0  0  0  0  0  0  0
  138.9665   68.7340  227.5333 H   0  0  0  0  0  0  0  0  0  0  0  0
  139.4696   69.1309  225.1221 H   0  0  0  0  0  0  0  0  0  0  0  0
  141.4328   72.1553  223.9359 H   0  0  0  0  0  0  0  0  0  0  0  0
  141.4831   70.3626  223.6824 H   0  0  0  0  0  0  0  0  0  0  0  0
  139.7165   70.6021  222.3169 H   0  0  0  0  0  0  0  0  0  0  0  0
  138.7494   71.0025  223.7943 H   0  0  0  0  0  0  0  0  0  0  0  0
  138.4330   73.0560  222.7730 H   0  0  0  0  0  0  0  0  0  0  0  0
  141.5543   71.6821  221.3874 H   0  0  0  0  0  0  0  0  0  0  0  0
  145.1400   73.5879  221.3576 H   0  0  0  0  0  0  0  0  0  0  0  0
  144.6241   71.8677  221.5482 H   0  0  0  0  0  0  0  0  0  0  0  0
  146.9062   72.3582  220.3647 H   0  0  0  0  0  0  0  0  0  0  0  0
  145.7747   71.1738  219.6113 H   0  0  0  0  0  0  0  0  0  0  0  0
  145.9770   74.0460  218.9080 H   0  0  0  0  0  0  0  0  0  0  0  0
  144.4299   73.7731  217.3394 H   0  0  0  0  0  0  0  0  0  0  0  0
  144.8464   71.9978  217.1792 H   0  0  0  0  0  0  0  0  0  0  0  0
  142.5308   72.8726  218.2723 H   0  0  0  0  0  0  0  0  0  0  0  0
  143.3695   71.3509  218.7646 H   0  0  0  0  0  0  0  0  0  0  0  0
  139.5925   77.8997  222.4061 H   0  0  0  0  0  0  0  0  0  0  0  0
  140.7824   77.0554  223.4826 H   0  0  0  0  0  0  0  0  0  0  0  0
  140.6692   79.7447  223.2550 H   0  0  0  0  0  0  0  0  0  0  0  0
  142.2173   78.8007  223.5381 H   0  0  0  0  0  0  0  0  0  0  0  0
  143.0080   79.3230  221.5890 H   0  0  0  0  0  0  0  0  0  0  0  0
  140.2649   79.4732  220.4740 H   0  0  0  0  0  0  0  0  0  0  0  0
  141.7906   79.7485  219.5573 H   0  0  0  0  0  0  0  0  0  0  0  0
  140.7716   77.3830  219.4200 H   0  0  0  0  0  0  0  0  0  0  0  0
  142.5160   77.5002  219.8821 H   0  0  0  0  0  0  0  0  0  0  0  0
  141.5780   72.7707  226.1685 H   0  0  0  0  0  0  0  0  0  0  0  0
  141.0646   72.3690  228.5771 H   0  0  0  0  0  0  0  0  0  0  0  0
  1  2  2  0
  2  3  1  0
  3  4  2  0
  4  5  1  0
  5  6  1  0
  6  7  1  0
  7  8  1  0
  8  9  2  0
  9 10  1  0
 10 11  1  0
 11 12  1  0
 12 13  1  0
 13 14  1  0
 14 15  1  0
 15 16  1  0
 10 17  2  0
 17 18  1  0
 18 19  1  0
 19 20  1  0
 20 21  1  0
 21 22  1  0
 22 23  1  0
 23 24  1  0
 18 25  2  0
  4 26  1  0
 26 27  2  0
 27  1  1  0
 25  8  1  0
 16 11  1  0
 24 19  1  0
  1 28  1  0
  2 29  1  0
  3 30  1  0
  5 31  1  0
  5 32  1  0
  6 33  1  0
  6 34  1  0
  7 35  1  0
  9 36  1  0
 12 37  1  0
 12 38  1  0
 13 39  1  0
 13 40  1  0
 14 41  1  0
 15 42  1  0
 15 43  1  0
 16 44  1  0
 16 45  1  0
 20 46  1  0
 20 47  1  0
 21 48  1  0
 21 49  1  0
 22 50  1  0
 23 51  1  0
 23 52  1  0
 24 53  1  0
 24 54  1  0
 26 55  1  0
 27 56  1  0
M  END
>  <UniqueID>  (68) 
521

>  <SMILES>  (68) 
c1ccc(CCNc2cc(N3CCNCC3)nc(N3CCNCC3)n2)cc1

>  <Energy>  (68) 
64.25807105318853

>  <Genealogy>  (68) 
c1ccc(CCNc2cc(N3CCNCC3)nc(N3CCNCC3)n2)cc1 (3D coordinates assigned)
c1ccc(CCNc2cc(N3CCNCC3)nc(N3CCNCC3)n2)cc1 (nonaromatic ring conformer: 64.25807105318853 kcal/mol)

>  <smiles>  (68) 
c1ccc(CCNc2cc(N3CCNCC3)nc(N3CCNCC3)n2)cc1

>  <score_type>  (68) 
oracle

>  <origin>  (68) 
autodockgpu

>  <m_score__min__energy>  (68) 
-9.2300000000000004

>  <m_primary>  (68) 
energy

>  <meeko>  (68) 
{"free_energy": -9.18, "intermolecular_energy": -10.97, "internal_energy": -0.83, "cluster_size": 19, "cluster_id": 1, "rank_in_cluster": 5}

>  <energy>  (68) 
-9.01

>  <cluster_rmsd>  (68) 
0.42

>  <rmsd>  (68) 
271.03

>  <cluster>  (68) 
1

$$$$
USJHBUDYBBTILB-MPIMZMORNA-N
     RDKit          3D

 56 59  0  0  0  0  0  0  0  0999 V2000
  140.0230   70.4360  228.3080 C   0  0  0  0  0  0  0  0  0  0  0  0
  139.5700   69.5880  227.2950 C   0  0  0  0  0  0  0  0  0  0  0  0
  139.8410   69.8870  225.9560 C   0  0  0  0  0  0  0  0  0  0  0  0
  140.5660   71.0450  225.6230 C   0  0  0  0  0  0  0  0  0  0  0  0
  140.8900   71.3510  224.1820 C   0  0  0  0  0  0  0  0  0  0  0  0
  139.6300   71.3360  223.3070 C   0  0  0  0  0  0  0  0  0  0  0  0
  139.3880   72.6440  222.6980 N   0  0  0  0  0  0  0  0  0  0  0  0
  140.4280   73.4160  222.0780 C   0  0  0  0  0  0  0  0  0  0  0  0
  141.4930   72.7750  221.4400 C   0  0  0  0  0  0  0  0  0  0  0  0
  142.4850   73.5570  220.8330 C   0  0  0  0  0  0  0  0  0  0  0  0
  143.5890   72.9510  220.1340 N   0  0  0  0  0  0  0  0  0  0  0  0
  144.8430   72.7060  220.8560 C   0  0  0  0  0  0  0  0  0  0  0  0
  145.9460   72.2490  219.8920 C   0  0  0  0  0  0  0  0  0  0  0  0
  145.8840   73.0180  218.6430 N   0  0  0  0  0  0  0  0  0  0  0  0
  144.6340   72.7820  217.8930 C   0  0  0  0  0  0  0  0  0  0  0  0
  143.4320   72.4000  218.7820 C   0  0  0  0  0  0  0  0  0  0  0  0
  142.3700   74.9120  220.8610 N   0  0  0  0  0  0  0  0  0  0  0  0
  141.3320   75.5290  221.4890 C   0  0  0  0  0  0  0  0  0  0  0  0
  141.2460   76.9690  221.5020 N   0  0  0  0  0  0  0  0  0  0  0  0
  140.7290   77.6830  222.6790 C   0  0  0  0  0  0  0  0  0  0  0  0
  141.4820   79.0110  222.9190 C   0  0  0  0  0  0  0  0  0  0  0  0
  142.0680   79.6120  221.7050 N   0  0  0  0  0  0  0  0  0  0  0  0
  141.3570   79.2210  220.4840 C   0  0  0  0  0  0  0  0  0  0  0  0
  141.4900   77.7120  220.2590 C   0  0  0  0  0  0  0  0  0  0  0  0
  140.3760   74.7740  222.0910 N   0  0  0  0  0  0  0  0  0  0  0  0
  141.0270   71.8870  226.6480 C   0  0  0  0  0  0  0  0  0  0  0  0
  140.7530   71.5850  227.9850 C   0  0  0  0  0  0  0  0  0  0  0  0
  139.8057   70.2004  229.3603 H   0  0  0  0  0  0  0  0  0  0  0  0
  138.9990   68.6833  227.5508 H   0  0  0  0  0  0  0  0  0  0  0  0
  139.4861   69.2145  225.1611 H   0  0  0  0  0  0  0  0  0  0  0  0
  141.3539   72.3467  224.1236 H   0  0  0  0  0  0  0  0  0  0  0  0
  141.5772   70.5764  223.8108 H   0  0  0  0  0  0  0  0  0  0  0  0
  139.7563   70.5880  222.5104 H   0  0  0  0  0  0  0  0  0  0  0  0
  138.7688   71.0858  223.9440 H   0  0  0  0  0  0  0  0  0  0  0  0
  138.4150   73.0230  222.7170 H   0  0  0  0  0  0  0  0  0  0  0  0
  141.5517   71.6769  221.4146 H   0  0  0  0  0  0  0  0  0  0  0  0
  145.1604   73.6345  221.3531 H   0  0  0  0  0  0  0  0  0  0  0  0
  144.6731   71.9129  221.5991 H   0  0  0  0  0  0  0  0  0  0  0  0
  146.9273   72.4033  220.3645 H   0  0  0  0  0  0  0  0  0  0  0  0
  145.8007   71.1830  219.6627 H   0  0  0  0  0  0  0  0  0  0  0  0
  145.9490   74.0370  218.8790 H   0  0  0  0  0  0  0  0  0  0  0  0
  144.3806   73.7014  217.3448 H   0  0  0  0  0  0  0  0  0  0  0  0
  144.8199   71.9283  217.2247 H   0  0  0  0  0  0  0  0  0  0  0  0
  142.5104   72.8000  218.3341 H   0  0  0  0  0  0  0  0  0  0  0  0
  143.3786   71.3035  218.8516 H   0  0  0  0  0  0  0  0  0  0  0  0
  139.6622   77.9013  222.5232 H   0  0  0  0  0  0  0  0  0  0  0  0
  140.8758   77.0417  223.5606 H   0  0  0  0  0  0  0  0  0  0  0  0
  140.7746   79.7333  223.3525 H   0  0  0  0  0  0  0  0  0  0  0  0
  142.3228   78.7766  223.5884 H   0  0  0  0  0  0  0  0  0  0  0  0
  143.0650   79.3050  221.6210 H   0  0  0  0  0  0  0  0  0  0  0  0
  140.2930   79.4819  220.5830 H   0  0  0  0  0  0  0  0  0  0  0  0
  141.7941   79.7532  219.6263 H   0  0  0  0  0  0  0  0  0  0  0  0
  140.7577   77.3957  219.5016 H   0  0  0  0  0  0  0  0  0  0  0  0
  142.5141   77.4982  219.9192 H   0  0  0  0  0  0  0  0  0  0  0  0
  141.6062   72.7880  226.3977 H   0  0  0  0  0  0  0  0  0  0  0  0
  141.1115   72.2511  228.7836 H   0  0  0  0  0  0  0  0  0  0  0  0
  1  2  2  0
  2  3  1  0
  3  4  2  0
  4  5  1  0
  5  6  1  0
  6  7  1  0
  7  8  1  0
  8  9  2  0
  9 10  1  0
 10 11  1  0
 11 12  1  0
 12 13  1  0
 13 14  1  0
 14 15  1  0
 15 16  1  0
 10 17  2  0
 17 18  1  0
 18 19  1  0
 19 20  1  0
 20 21  1  0
 21 22  1  0
 22 23  1  0
 23 24  1  0
 18 25  2  0
  4 26  1  0
 26 27  2  0
 27  1  1  0
 25  8  1  0
 16 11  1  0
 24 19  1  0
  1 28  1  0
  2 29  1  0
  3 30  1  0
  5 31  1  0
  5 32  1  0
  6 33  1  0
  6 34  1  0
  7 35  1  0
  9 36  1  0
 12 37  1  0
 12 38  1  0
 13 39  1  0
 13 40  1  0
 14 41  1  0
 15 42  1  0
 15 43  1  0
 16 44  1  0
 16 45  1  0
 20 46  1  0
 20 47  1  0
 21 48  1  0
 21 49  1  0
 22 50  1  0
 23 51  1  0
 23 52  1  0
 24 53  1  0
 24 54  1  0
 26 55  1  0
 27 56  1  0
M  END
>  <UniqueID>  (69) 
521

>  <SMILES>  (69) 
c1ccc(CCNc2cc(N3CCNCC3)nc(N3CCNCC3)n2)cc1

>  <Energy>  (69) 
64.25807105318853

>  <Genealogy>  (69) 
c1ccc(CCNc2cc(N3CCNCC3)nc(N3CCNCC3)n2)cc1 (3D coordinates assigned)
c1ccc(CCNc2cc(N3CCNCC3)nc(N3CCNCC3)n2)cc1 (nonaromatic ring conformer: 64.25807105318853 kcal/mol)

>  <smiles>  (69) 
c1ccc(CCNc2cc(N3CCNCC3)nc(N3CCNCC3)n2)cc1

>  <score_type>  (69) 
oracle

>  <origin>  (69) 
autodockgpu

>  <m_score__min__energy>  (69) 
-9.2300000000000004

>  <m_primary>  (69) 
energy

>  <meeko>  (69) 
{"free_energy": -9.23, "intermolecular_energy": -11.02, "internal_energy": -0.83, "cluster_size": 19, "cluster_id": 1, "rank_in_cluster": 1}

>  <energy>  (69) 
-9.01

>  <cluster_rmsd>  (69) 
0.44

>  <rmsd>  (69) 
270.93

>  <cluster>  (69) 
1

$$$$
USJHBUDYBBTILB-MPIMZMORNA-N
     RDKit          3D

 56 59  0  0  0  0  0  0  0  0999 V2000
  140.4210   70.1720  228.1910 C   0  0  0  0  0  0  0  0  0  0  0  0
  141.0350   71.4070  227.9690 C   0  0  0  0  0  0  0  0  0  0  0  0
  141.1350   71.9150  226.6700 C   0  0  0  0  0  0  0  0  0  0  0  0
  140.6250   71.1850  225.5820 C   0  0  0  0  0  0  0  0  0  0  0  0
  140.7000   71.7470  224.1850 C   0  0  0  0  0  0  0  0  0  0  0  0
  139.3930   71.5170  223.4160 C   0  0  0  0  0  0  0  0  0  0  0  0
  139.3020   72.3910  222.2470 N   0  0  0  0  0  0  0  0  0  0  0  0
  140.3910   73.2160  221.8050 C   0  0  0  0  0  0  0  0  0  0  0  0
  141.5450   72.6300  221.2770 C   0  0  0  0  0  0  0  0  0  0  0  0
  142.5850   73.4620  220.8420 C   0  0  0  0  0  0  0  0  0  0  0  0
  143.7850   72.9150  220.2610 N   0  0  0  0  0  0  0  0  0  0  0  0
  145.0680   73.1240  220.9420 C   0  0  0  0  0  0  0  0  0  0  0  0
  146.2330   72.6450  220.0670 C   0  0  0  0  0  0  0  0  0  0  0  0
  146.0070   73.0190  218.6650 N   0  0  0  0  0  0  0  0  0  0  0  0
  144.8250   72.3490  218.0840 C   0  0  0  0  0  0  0  0  0  0  0  0
  143.7330   71.9970  219.1160 C   0  0  0  0  0  0  0  0  0  0  0  0
  142.4330   74.8110  220.9250 N   0  0  0  0  0  0  0  0  0  0  0  0
  141.3080   75.3740  221.4440 C   0  0  0  0  0  0  0  0  0  0  0  0
  141.1850   76.8090  221.5190 N   0  0  0  0  0  0  0  0  0  0  0  0
  140.6710   77.4590  222.7340 C   0  0  0  0  0  0  0  0  0  0  0  0
  141.3930   78.7970  223.0160 C   0  0  0  0  0  0  0  0  0  0  0  0
  141.9390   79.4630  221.8180 N   0  0  0  0  0  0  0  0  0  0  0  0
  141.2160   79.1030  220.5940 C   0  0  0  0  0  0  0  0  0  0  0  0
  141.3850   77.6090  220.3040 C   0  0  0  0  0  0  0  0  0  0  0  0
  140.3030   74.5700  221.8800 N   0  0  0  0  0  0  0  0  0  0  0  0
  139.9990   69.9500  225.8160 C   0  0  0  0  0  0  0  0  0  0  0  0
  139.9020   69.4440  227.1160 C   0  0  0  0  0  0  0  0  0  0  0  0
  140.3458   69.7718  229.2128 H   0  0  0  0  0  0  0  0  0  0  0  0
  141.4399   71.9800  228.8162 H   0  0  0  0  0  0  0  0  0  0  0  0
  141.6147   72.8899  226.4987 H   0  0  0  0  0  0  0  0  0  0  0  0
  140.8943   72.8281  224.2445 H   0  0  0  0  0  0  0  0  0  0  0  0
  141.5111   71.2325  223.6489 H   0  0  0  0  0  0  0  0  0  0  0  0
  139.3527   70.4692  223.0837 H   0  0  0  0  0  0  0  0  0  0  0  0
  138.5515   71.7460  224.0864 H   0  0  0  0  0  0  0  0  0  0  0  0
  138.4030   72.4090  221.7150 H   0  0  0  0  0  0  0  0  0  0  0  0
  141.6349   71.5361  221.2044 H   0  0  0  0  0  0  0  0  0  0  0  0
  145.1933   74.1960  221.1542 H   0  0  0  0  0  0  0  0  0  0  0  0
  145.0689   72.5460  221.8779 H   0  0  0  0  0  0  0  0  0  0  0  0
  147.1660   73.1085  220.4200 H   0  0  0  0  0  0  0  0  0  0  0  0
  146.3054   71.5496  220.1371 H   0  0  0  0  0  0  0  0  0  0  0  0
  145.8640   74.0560  218.6170 H   0  0  0  0  0  0  0  0  0  0  0  0
  144.3850   73.0170  217.3289 H   0  0  0  0  0  0  0  0  0  0  0  0
  145.1762   71.3988  217.6554 H   0  0  0  0  0  0  0  0  0  0  0  0
  142.7457   72.0729  218.6370 H   0  0  0  0  0  0  0  0  0  0  0  0
  143.9047   70.9721  219.4766 H   0  0  0  0  0  0  0  0  0  0  0  0
  139.5960   77.6540  222.6064 H   0  0  0  0  0  0  0  0  0  0  0  0
  140.8513   76.7861  223.5853 H   0  0  0  0  0  0  0  0  0  0  0  0
  140.6749   79.4810  223.4919 H   0  0  0  0  0  0  0  0  0  0  0  0
  142.2524   78.5586  223.6599 H   0  0  0  0  0  0  0  0  0  0  0  0
  142.9420   79.1870  221.7040 H   0  0  0  0  0  0  0  0  0  0  0  0
  140.1474   79.3302  220.7223 H   0  0  0  0  0  0  0  0  0  0  0  0
  141.6229   79.6818  219.7517 H   0  0  0  0  0  0  0  0  0  0  0  0
  140.6469   77.3041  219.5475 H   0  0  0  0  0  0  0  0  0  0  0  0
  142.4078   77.4377  219.9372 H   0  0  0  0  0  0  0  0  0  0  0  0
  139.5832   69.3783  224.9732 H   0  0  0  0  0  0  0  0  0  0  0  0
  139.4171   68.4726  227.2930 H   0  0  0  0  0  0  0  0  0  0  0  0
  1  2  2  0
  2  3  1  0
  3  4  2  0
  4  5  1  0
  5  6  1  0
  6  7  1  0
  7  8  1  0
  8  9  2  0
  9 10  1  0
 10 11  1  0
 11 12  1  0
 12 13  1  0
 13 14  1  0
 14 15  1  0
 15 16  1  0
 10 17  2  0
 17 18  1  0
 18 19  1  0
 19 20  1  0
 20 21  1  0
 21 22  1  0
 22 23  1  0
 23 24  1  0
 18 25  2  0
  4 26  1  0
 26 27  2  0
 27  1  1  0
 25  8  1  0
 16 11  1  0
 24 19  1  0
  1 28  1  0
  2 29  1  0
  3 30  1  0
  5 31  1  0
  5 32  1  0
  6 33  1  0
  6 34  1  0
  7 35  1  0
  9 36  1  0
 12 37  1  0
 12 38  1  0
 13 39  1  0
 13 40  1  0
 14 41  1  0
 15 42  1  0
 15 43  1  0
 16 44  1  0
 16 45  1  0
 20 46  1  0
 20 47  1  0
 21 48  1  0
 21 49  1  0
 22 50  1  0
 23 51  1  0
 23 52  1  0
 24 53  1  0
 24 54  1  0
 26 55  1  0
 27 56  1  0
M  END
>  <UniqueID>  (70) 
521

>  <SMILES>  (70) 
c1ccc(CCNc2cc(N3CCNCC3)nc(N3CCNCC3)n2)cc1

>  <Energy>  (70) 
64.25807105318853

>  <Genealogy>  (70) 
c1ccc(CCNc2cc(N3CCNCC3)nc(N3CCNCC3)n2)cc1 (3D coordinates assigned)
c1ccc(CCNc2cc(N3CCNCC3)nc(N3CCNCC3)n2)cc1 (nonaromatic ring conformer: 64.25807105318853 kcal/mol)

>  <smiles>  (70) 
c1ccc(CCNc2cc(N3CCNCC3)nc(N3CCNCC3)n2)cc1

>  <score_type>  (70) 
oracle

>  <origin>  (70) 
autodockgpu

>  <m_score__min__energy>  (70) 
-9.2300000000000004

>  <m_primary>  (70) 
energy

>  <meeko>  (70) 
{"free_energy": -9.02, "intermolecular_energy": -10.81, "internal_energy": -0.83, "cluster_size": 19, "cluster_id": 1, "rank_in_cluster": 7}

>  <energy>  (70) 
-9.0

>  <cluster_rmsd>  (70) 
0.39

>  <rmsd>  (70) 
271.04

>  <cluster>  (70) 
1

$$$$
USJHBUDYBBTILB-MPIMZMORNA-N
     RDKit          3D

 56 59  0  0  0  0  0  0  0  0999 V2000
  141.0660   71.4070  228.2970 C   0  0  0  0  0  0  0  0  0  0  0  0
  140.3370   70.2400  228.0580 C   0  0  0  0  0  0  0  0  0  0  0  0
  139.9700   69.8980  226.7530 C   0  0  0  0  0  0  0  0  0  0  0  0
  140.3280   70.7270  225.6760 C   0  0  0  0  0  0  0  0  0  0  0  0
  139.9640   70.3420  224.2640 C   0  0  0  0  0  0  0  0  0  0  0  0
  139.1430   71.4400  223.5760 C   0  0  0  0  0  0  0  0  0  0  0  0
  139.5840   71.6500  222.1970 N   0  0  0  0  0  0  0  0  0  0  0  0
  140.4110   72.7570  221.8060 C   0  0  0  0  0  0  0  0  0  0  0  0
  141.6690   72.5280  221.2420 C   0  0  0  0  0  0  0  0  0  0  0  0
  142.4470   73.6280  220.8590 C   0  0  0  0  0  0  0  0  0  0  0  0
  143.7380   73.4520  220.2450 N   0  0  0  0  0  0  0  0  0  0  0  0
  143.9280   72.3650  219.2780 C   0  0  0  0  0  0  0  0  0  0  0  0
  145.4080   72.2250  218.9000 C   0  0  0  0  0  0  0  0  0  0  0  0
  146.2570   72.3910  220.0860 N   0  0  0  0  0  0  0  0  0  0  0  0
  146.1630   73.7460  220.6650 C   0  0  0  0  0  0  0  0  0  0  0  0
  144.8090   74.4430  220.4150 C   0  0  0  0  0  0  0  0  0  0  0  0
  141.9470   74.8830  221.0230 N   0  0  0  0  0  0  0  0  0  0  0  0
  140.7220   75.0980  221.5760 C   0  0  0  0  0  0  0  0  0  0  0  0
  140.2270   76.4420  221.7390 N   0  0  0  0  0  0  0  0  0  0  0  0
  138.7840   76.7250  221.6990 C   0  0  0  0  0  0  0  0  0  0  0  0
  138.3910   77.8360  222.6990 C   0  0  0  0  0  0  0  0  0  0  0  0
  139.4720   78.7900  223.0120 N   0  0  0  0  0  0  0  0  0  0  0  0
  140.4580   78.8980  221.9330 C   0  0  0  0  0  0  0  0  0  0  0  0
  141.1800   77.5600  221.7440 C   0  0  0  0  0  0  0  0  0  0  0  0
  139.9710   74.0330  221.9630 N   0  0  0  0  0  0  0  0  0  0  0  0
  141.0710   71.8930  225.9230 C   0  0  0  0  0  0  0  0  0  0  0  0
  141.4340   72.2330  227.2300 C   0  0  0  0  0  0  0  0  0  0  0  0
  141.3508   71.6766  229.3247 H   0  0  0  0  0  0  0  0  0  0  0  0
  140.0512   69.5891  228.8975 H   0  0  0  0  0  0  0  0  0  0  0  0
  139.3987   68.9763  226.5684 H   0  0  0  0  0  0  0  0  0  0  0  0
  140.8872   70.1734  223.6902 H   0  0  0  0  0  0  0  0  0  0  0  0
  139.3540   69.4274  224.3019 H   0  0  0  0  0  0  0  0  0  0  0  0
  138.0832   71.1454  223.5721 H   0  0  0  0  0  0  0  0  0  0  0  0
  139.2847   72.3785  224.1320 H   0  0  0  0  0  0  0  0  0  0  0  0
  139.2820   70.9600  221.4730 H   0  0  0  0  0  0  0  0  0  0  0  0
  142.0414   71.5026  221.1014 H   0  0  0  0  0  0  0  0  0  0  0  0
  143.5785   71.4215  219.7227 H   0  0  0  0  0  0  0  0  0  0  0  0
  143.3524   72.5964  218.3697 H   0  0  0  0  0  0  0  0  0  0  0  0
  145.5791   71.2277  218.4685 H   0  0  0  0  0  0  0  0  0  0  0  0
  145.6640   73.0034  218.1661 H   0  0  0  0  0  0  0  0  0  0  0  0
  145.9550   71.6940  220.8090 H   0  0  0  0  0  0  0  0  0  0  0  0
  146.3171   73.6693  221.7514 H   0  0  0  0  0  0  0  0  0  0  0  0
  146.9318   74.3575  220.1701 H   0  0  0  0  0  0  0  0  0  0  0  0
  144.5710   75.0880  221.2736 H   0  0  0  0  0  0  0  0  0  0  0  0
  144.8846   75.0429  219.4961 H   0  0  0  0  0  0  0  0  0  0  0  0
  138.5121   77.0474  220.6831 H   0  0  0  0  0  0  0  0  0  0  0  0
  138.2468   75.8067  221.9784 H   0  0  0  0  0  0  0  0  0  0  0  0
  137.5486   78.3999  222.2720 H   0  0  0  0  0  0  0  0  0  0  0  0
  138.1375   77.3310  223.6428 H   0  0  0  0  0  0  0  0  0  0  0  0
  139.9630   78.4730  223.8800 H   0  0  0  0  0  0  0  0  0  0  0  0
  139.9461   79.1705  220.9983 H   0  0  0  0  0  0  0  0  0  0  0  0
  141.1953   79.6712  222.1949 H   0  0  0  0  0  0  0  0  0  0  0  0
  141.7209   77.5756  220.7863 H   0  0  0  0  0  0  0  0  0  0  0  0
  141.8802   77.4191  222.5806 H   0  0  0  0  0  0  0  0  0  0  0  0
  141.3684   72.5411  225.0854 H   0  0  0  0  0  0  0  0  0  0  0  0
  142.0096   73.1511  227.4191 H   0  0  0  0  0  0  0  0  0  0  0  0
  1  2  2  0
  2  3  1  0
  3  4  2  0
  4  5  1  0
  5  6  1  0
  6  7  1  0
  7  8  1  0
  8  9  2  0
  9 10  1  0
 10 11  1  0
 11 12  1  0
 12 13  1  0
 13 14  1  0
 14 15  1  0
 15 16  1  0
 10 17  2  0
 17 18  1  0
 18 19  1  0
 19 20  1  0
 20 21  1  0
 21 22  1  0
 22 23  1  0
 23 24  1  0
 18 25  2  0
  4 26  1  0
 26 27  2  0
 27  1  1  0
 25  8  1  0
 16 11  1  0
 24 19  1  0
  1 28  1  0
  2 29  1  0
  3 30  1  0
  5 31  1  0
  5 32  1  0
  6 33  1  0
  6 34  1  0
  7 35  1  0
  9 36  1  0
 12 37  1  0
 12 38  1  0
 13 39  1  0
 13 40  1  0
 14 41  1  0
 15 42  1  0
 15 43  1  0
 16 44  1  0
 16 45  1  0
 20 46  1  0
 20 47  1  0
 21 48  1  0
 21 49  1  0
 22 50  1  0
 23 51  1  0
 23 52  1  0
 24 53  1  0
 24 54  1  0
 26 55  1  0
 27 56  1  0
M  END
>  <UniqueID>  (71) 
521

>  <SMILES>  (71) 
c1ccc(CCNc2cc(N3CCNCC3)nc(N3CCNCC3)n2)cc1

>  <Energy>  (71) 
64.25807105318853

>  <Genealogy>  (71) 
c1ccc(CCNc2cc(N3CCNCC3)nc(N3CCNCC3)n2)cc1 (3D coordinates assigned)
c1ccc(CCNc2cc(N3CCNCC3)nc(N3CCNCC3)n2)cc1 (nonaromatic ring conformer: 64.25807105318853 kcal/mol)

>  <smiles>  (71) 
c1ccc(CCNc2cc(N3CCNCC3)nc(N3CCNCC3)n2)cc1

>  <score_type>  (71) 
oracle

>  <origin>  (71) 
autodockgpu

>  <m_score__min__energy>  (71) 
-9.2300000000000004

>  <m_primary>  (71) 
energy

>  <meeko>  (71) 
{"free_energy": -8.42, "intermolecular_energy": -10.21, "internal_energy": -0.9, "cluster_size": 19, "cluster_id": 1, "rank_in_cluster": 19}

>  <energy>  (71) 
-8.99

>  <cluster_rmsd>  (71) 
0.44

>  <rmsd>  (71) 
270.91

>  <cluster>  (71) 
1

$$$$
USJHBUDYBBTILB-MPIMZMORNA-N
     RDKit          3D

 56 59  0  0  0  0  0  0  0  0999 V2000
  140.0390   70.4690  228.2320 C   0  0  0  0  0  0  0  0  0  0  0  0
  139.5790   69.5930  227.2460 C   0  0  0  0  0  0  0  0  0  0  0  0
  139.8490   69.8520  225.8980 C   0  0  0  0  0  0  0  0  0  0  0  0
  140.5790   70.9950  225.5290 C   0  0  0  0  0  0  0  0  0  0  0  0
  140.9020   71.2560  224.0790 C   0  0  0  0  0  0  0  0  0  0  0  0
  139.6310   71.3060  223.2210 C   0  0  0  0  0  0  0  0  0  0  0  0
  139.4050   72.6460  222.6800 N   0  0  0  0  0  0  0  0  0  0  0  0
  140.4430   73.4180  222.0570 C   0  0  0  0  0  0  0  0  0  0  0  0
  141.5070   72.7760  221.4160 C   0  0  0  0  0  0  0  0  0  0  0  0
  142.4970   73.5570  220.8060 C   0  0  0  0  0  0  0  0  0  0  0  0
  143.6000   72.9510  220.1060 N   0  0  0  0  0  0  0  0  0  0  0  0
  144.8390   72.6610  220.8370 C   0  0  0  0  0  0  0  0  0  0  0  0
  145.9470   72.2110  219.8760 C   0  0  0  0  0  0  0  0  0  0  0  0
  145.9170   73.0170  218.6490 N   0  0  0  0  0  0  0  0  0  0  0  0
  144.6730   72.8260  217.8750 C   0  0  0  0  0  0  0  0  0  0  0  0
  143.4520   72.4410  218.7370 C   0  0  0  0  0  0  0  0  0  0  0  0
  142.3820   74.9130  220.8340 N   0  0  0  0  0  0  0  0  0  0  0  0
  141.3460   75.5300  221.4630 C   0  0  0  0  0  0  0  0  0  0  0  0
  141.2600   76.9700  221.4760 N   0  0  0  0  0  0  0  0  0  0  0  0
  140.7360   77.6850  222.6500 C   0  0  0  0  0  0  0  0  0  0  0  0
  141.4880   79.0130  222.8930 C   0  0  0  0  0  0  0  0  0  0  0  0
  142.0800   79.6130  221.6820 N   0  0  0  0  0  0  0  0  0  0  0  0
  141.3770   79.2210  220.4570 C   0  0  0  0  0  0  0  0  0  0  0  0
  141.5110   77.7120  220.2330 C   0  0  0  0  0  0  0  0  0  0  0  0
  140.3910   74.7760  222.0680 N   0  0  0  0  0  0  0  0  0  0  0  0
  141.0470   71.8640  226.5270 C   0  0  0  0  0  0  0  0  0  0  0  0
  140.7740   71.6030  227.8740 C   0  0  0  0  0  0  0  0  0  0  0  0
  139.8227   70.2663  229.2913 H   0  0  0  0  0  0  0  0  0  0  0  0
  139.0042   68.6991  227.5296 H   0  0  0  0  0  0  0  0  0  0  0  0
  139.4886   69.1585  225.1239 H   0  0  0  0  0  0  0  0  0  0  0  0
  141.4268   72.2193  223.9973 H   0  0  0  0  0  0  0  0  0  0  0  0
  141.5342   70.4339  223.7124 H   0  0  0  0  0  0  0  0  0  0  0  0
  139.7339   70.5960  222.3871 H   0  0  0  0  0  0  0  0  0  0  0  0
  138.7735   71.0399  223.8565 H   0  0  0  0  0  0  0  0  0  0  0  0
  138.4440   73.0490  222.7510 H   0  0  0  0  0  0  0  0  0  0  0  0
  141.5655   71.6778  221.3912 H   0  0  0  0  0  0  0  0  0  0  0  0
  145.1667   73.5685  221.3653 H   0  0  0  0  0  0  0  0  0  0  0  0
  144.6434   71.8497  221.5537 H   0  0  0  0  0  0  0  0  0  0  0  0
  146.9241   72.3331  220.3663 H   0  0  0  0  0  0  0  0  0  0  0  0
  145.7857   71.1549  219.6139 H   0  0  0  0  0  0  0  0  0  0  0  0
  145.9970   74.0280  218.9150 H   0  0  0  0  0  0  0  0  0  0  0  0
  144.4440   73.7653  217.3504 H   0  0  0  0  0  0  0  0  0  0  0  0
  144.8525   71.9889  217.1843 H   0  0  0  0  0  0  0  0  0  0  0  0
  142.5439   72.8700  218.2883 H   0  0  0  0  0  0  0  0  0  0  0  0
  143.3783   71.3441  218.7749 H   0  0  0  0  0  0  0  0  0  0  0  0
  139.6701   77.9034  222.4880 H   0  0  0  0  0  0  0  0  0  0  0  0
  140.8773   77.0443  223.5329 H   0  0  0  0  0  0  0  0  0  0  0  0
  140.7785   79.7356  223.3225 H   0  0  0  0  0  0  0  0  0  0  0  0
  142.3254   78.7788  223.5667 H   0  0  0  0  0  0  0  0  0  0  0  0
  143.0780   79.3060  221.6050 H   0  0  0  0  0  0  0  0  0  0  0  0
  140.3124   79.4820  220.5492 H   0  0  0  0  0  0  0  0  0  0  0  0
  141.8201   79.7525  219.6019 H   0  0  0  0  0  0  0  0  0  0  0  0
  140.7826   77.3954  219.4719 H   0  0  0  0  0  0  0  0  0  0  0  0
  142.5366   77.4975  219.8983 H   0  0  0  0  0  0  0  0  0  0  0  0
  141.6308   72.7538  226.2488 H   0  0  0  0  0  0  0  0  0  0  0  0
  141.1379   72.2904  228.6519 H   0  0  0  0  0  0  0  0  0  0  0  0
  1  2  2  0
  2  3  1  0
  3  4  2  0
  4  5  1  0
  5  6  1  0
  6  7  1  0
  7  8  1  0
  8  9  2  0
  9 10  1  0
 10 11  1  0
 11 12  1  0
 12 13  1  0
 13 14  1  0
 14 15  1  0
 15 16  1  0
 10 17  2  0
 17 18  1  0
 18 19  1  0
 19 20  1  0
 20 21  1  0
 21 22  1  0
 22 23  1  0
 23 24  1  0
 18 25  2  0
  4 26  1  0
 26 27  2  0
 27  1  1  0
 25  8  1  0
 16 11  1  0
 24 19  1  0
  1 28  1  0
  2 29  1  0
  3 30  1  0
  5 31  1  0
  5 32  1  0
  6 33  1  0
  6 34  1  0
  7 35  1  0
  9 36  1  0
 12 37  1  0
 12 38  1  0
 13 39  1  0
 13 40  1  0
 14 41  1  0
 15 42  1  0
 15 43  1  0
 16 44  1  0
 16 45  1  0
 20 46  1  0
 20 47  1  0
 21 48  1  0
 21 49  1  0
 22 50  1  0
 23 51  1  0
 23 52  1  0
 24 53  1  0
 24 54  1  0
 26 55  1  0
 27 56  1  0
M  END
>  <UniqueID>  (72) 
521

>  <SMILES>  (72) 
c1ccc(CCNc2cc(N3CCNCC3)nc(N3CCNCC3)n2)cc1

>  <Energy>  (72) 
64.25807105318853

>  <Genealogy>  (72) 
c1ccc(CCNc2cc(N3CCNCC3)nc(N3CCNCC3)n2)cc1 (3D coordinates assigned)
c1ccc(CCNc2cc(N3CCNCC3)nc(N3CCNCC3)n2)cc1 (nonaromatic ring conformer: 64.25807105318853 kcal/mol)

>  <smiles>  (72) 
c1ccc(CCNc2cc(N3CCNCC3)nc(N3CCNCC3)n2)cc1

>  <score_type>  (72) 
oracle

>  <origin>  (72) 
autodockgpu

>  <m_score__min__energy>  (72) 
-9.2300000000000004

>  <m_primary>  (72) 
energy

>  <meeko>  (72) 
{"free_energy": -9.21, "intermolecular_energy": -11.0, "internal_energy": -0.83, "cluster_size": 19, "cluster_id": 1, "rank_in_cluster": 3}

>  <energy>  (72) 
-8.98

>  <cluster_rmsd>  (72) 
0.44

>  <rmsd>  (72) 
270.97

>  <cluster>  (72) 
1

$$$$
USJHBUDYBBTILB-MPIMZMORNA-N
     RDKit          3D

 56 59  0  0  0  0  0  0  0  0999 V2000
  139.7990   69.8010  228.0790 C   0  0  0  0  0  0  0  0  0  0  0  0
  140.3840   71.0640  227.9730 C   0  0  0  0  0  0  0  0  0  0  0  0
  140.7290   71.5740  226.7180 C   0  0  0  0  0  0  0  0  0  0  0  0
  140.4930   70.8170  225.5570 C   0  0  0  0  0  0  0  0  0  0  0  0
  140.8310   71.3790  224.2000 C   0  0  0  0  0  0  0  0  0  0  0  0
  139.6120   71.3690  223.2680 C   0  0  0  0  0  0  0  0  0  0  0  0
  139.3850   72.6850  222.6710 N   0  0  0  0  0  0  0  0  0  0  0  0
  140.4310   73.4440  222.0450 C   0  0  0  0  0  0  0  0  0  0  0  0
  141.4930   72.7900  221.4150 C   0  0  0  0  0  0  0  0  0  0  0  0
  142.4900   73.5580  220.8010 C   0  0  0  0  0  0  0  0  0  0  0  0
  143.5920   72.9380  220.1120 N   0  0  0  0  0  0  0  0  0  0  0  0
  144.8430   72.6910  220.8390 C   0  0  0  0  0  0  0  0  0  0  0  0
  145.9450   72.2160  219.8820 C   0  0  0  0  0  0  0  0  0  0  0  0
  145.8920   72.9750  218.6260 N   0  0  0  0  0  0  0  0  0  0  0  0
  144.6420   72.7400  217.8750 C   0  0  0  0  0  0  0  0  0  0  0  0
  143.4350   72.3750  218.7640 C   0  0  0  0  0  0  0  0  0  0  0  0
  142.3840   74.9150  220.8150 N   0  0  0  0  0  0  0  0  0  0  0  0
  141.3490   75.5450  221.4330 C   0  0  0  0  0  0  0  0  0  0  0  0
  141.2720   76.9850  221.4300 N   0  0  0  0  0  0  0  0  0  0  0  0
  140.6940   77.7130  222.5710 C   0  0  0  0  0  0  0  0  0  0  0  0
  141.4420   79.0380  222.8410 C   0  0  0  0  0  0  0  0  0  0  0  0
  142.0980   79.6250  221.6570 N   0  0  0  0  0  0  0  0  0  0  0  0
  141.4540   79.2280  220.4010 C   0  0  0  0  0  0  0  0  0  0  0  0
  141.5890   77.7160  220.1960 C   0  0  0  0  0  0  0  0  0  0  0  0
  140.3870   74.8030  222.0420 N   0  0  0  0  0  0  0  0  0  0  0  0
  139.8930   69.5520  225.6710 C   0  0  0  0  0  0  0  0  0  0  0  0
  139.5520   69.0450  226.9290 C   0  0  0  0  0  0  0  0  0  0  0  0
  139.5321   69.4002  229.0680 H   0  0  0  0  0  0  0  0  0  0  0  0
  140.5738   71.6589  228.8786 H   0  0  0  0  0  0  0  0  0  0  0  0
  141.1867   72.5711  226.6385 H   0  0  0  0  0  0  0  0  0  0  0  0
  141.1814   72.4149  224.3192 H   0  0  0  0  0  0  0  0  0  0  0  0
  141.6140   70.7502  223.7511 H   0  0  0  0  0  0  0  0  0  0  0  0
  139.7814   70.6364  222.4652 H   0  0  0  0  0  0  0  0  0  0  0  0
  138.7253   71.1006  223.8611 H   0  0  0  0  0  0  0  0  0  0  0  0
  138.4190   73.0810  222.7040 H   0  0  0  0  0  0  0  0  0  0  0  0
  141.5449   71.6913  221.4016 H   0  0  0  0  0  0  0  0  0  0  0  0
  145.1662   73.6222  221.3273 H   0  0  0  0  0  0  0  0  0  0  0  0
  144.6656   71.9066  221.5895 H   0  0  0  0  0  0  0  0  0  0  0  0
  146.9264   72.3664  220.3556 H   0  0  0  0  0  0  0  0  0  0  0  0
  145.7920   71.1492  219.6619 H   0  0  0  0  0  0  0  0  0  0  0  0
  145.9640   73.9960  218.8530 H   0  0  0  0  0  0  0  0  0  0  0  0
  144.3963   73.6556  217.3171 H   0  0  0  0  0  0  0  0  0  0  0  0
  144.8239   71.8783  217.2159 H   0  0  0  0  0  0  0  0  0  0  0  0
  142.5175   72.7771  218.3096 H   0  0  0  0  0  0  0  0  0  0  0  0
  143.3738   71.2796  218.8438 H   0  0  0  0  0  0  0  0  0  0  0  0
  139.6392   77.9369  222.3537 H   0  0  0  0  0  0  0  0  0  0  0  0
  140.7860   77.0787  223.4650 H   0  0  0  0  0  0  0  0  0  0  0  0
  140.7169   79.7685  223.2290 H   0  0  0  0  0  0  0  0  0  0  0  0
  142.2432   78.8034  223.5572 H   0  0  0  0  0  0  0  0  0  0  0  0
  143.0960   79.3120  221.6320 H   0  0  0  0  0  0  0  0  0  0  0  0
  140.3879   79.4965  220.4379 H   0  0  0  0  0  0  0  0  0  0  0  0
  141.9424   79.7500  219.5649 H   0  0  0  0  0  0  0  0  0  0  0  0
  140.8973   77.3978  219.4021 H   0  0  0  0  0  0  0  0  0  0  0  0
  142.6288   77.4929  219.9149 H   0  0  0  0  0  0  0  0  0  0  0  0
  139.6906   68.9580  224.7675 H   0  0  0  0  0  0  0  0  0  0  0  0
  139.0891   68.0507  227.0138 H   0  0  0  0  0  0  0  0  0  0  0  0
  1  2  2  0
  2  3  1  0
  3  4  2  0
  4  5  1  0
  5  6  1  0
  6  7  1  0
  7  8  1  0
  8  9  2  0
  9 10  1  0
 10 11  1  0
 11 12  1  0
 12 13  1  0
 13 14  1  0
 14 15  1  0
 15 16  1  0
 10 17  2  0
 17 18  1  0
 18 19  1  0
 19 20  1  0
 20 21  1  0
 21 22  1  0
 22 23  1  0
 23 24  1  0
 18 25  2  0
  4 26  1  0
 26 27  2  0
 27  1  1  0
 25  8  1  0
 16 11  1  0
 24 19  1  0
  1 28  1  0
  2 29  1  0
  3 30  1  0
  5 31  1  0
  5 32  1  0
  6 33  1  0
  6 34  1  0
  7 35  1  0
  9 36  1  0
 12 37  1  0
 12 38  1  0
 13 39  1  0
 13 40  1  0
 14 41  1  0
 15 42  1  0
 15 43  1  0
 16 44  1  0
 16 45  1  0
 20 46  1  0
 20 47  1  0
 21 48  1  0
 21 49  1  0
 22 50  1  0
 23 51  1  0
 23 52  1  0
 24 53  1  0
 24 54  1  0
 26 55  1  0
 27 56  1  0
M  END
>  <UniqueID>  (73) 
521

>  <SMILES>  (73) 
c1ccc(CCNc2cc(N3CCNCC3)nc(N3CCNCC3)n2)cc1

>  <Energy>  (73) 
64.25807105318853

>  <Genealogy>  (73) 
c1ccc(CCNc2cc(N3CCNCC3)nc(N3CCNCC3)n2)cc1 (3D coordinates assigned)
c1ccc(CCNc2cc(N3CCNCC3)nc(N3CCNCC3)n2)cc1 (nonaromatic ring conformer: 64.25807105318853 kcal/mol)

>  <smiles>  (73) 
c1ccc(CCNc2cc(N3CCNCC3)nc(N3CCNCC3)n2)cc1

>  <score_type>  (73) 
oracle

>  <origin>  (73) 
autodockgpu

>  <m_score__min__energy>  (73) 
-9.2300000000000004

>  <m_primary>  (73) 
energy

>  <meeko>  (73) 
{"free_energy": -9.12, "intermolecular_energy": -10.91, "internal_energy": -0.82, "cluster_size": 19, "cluster_id": 1, "rank_in_cluster": 6}

>  <energy>  (73) 
-8.94

>  <cluster_rmsd>  (73) 
0.5

>  <rmsd>  (73) 
270.88

>  <cluster>  (73) 
1

$$$$
USJHBUDYBBTILB-MPIMZMORNA-N
     RDKit          3D

 56 59  0  0  0  0  0  0  0  0999 V2000
  140.4940   70.1160  227.9500 C   0  0  0  0  0  0  0  0  0  0  0  0
  139.9790   69.4110  226.8600 C   0  0  0  0  0  0  0  0  0  0  0  0
  140.0310   69.9680  225.5780 C   0  0  0  0  0  0  0  0  0  0  0  0
  140.5970   71.2390  225.3800 C   0  0  0  0  0  0  0  0  0  0  0  0
  140.6860   71.8260  223.9940 C   0  0  0  0  0  0  0  0  0  0  0  0
  139.4180   71.5380  223.1800 C   0  0  0  0  0  0  0  0  0  0  0  0
  139.2200   72.5380  222.1310 N   0  0  0  0  0  0  0  0  0  0  0  0
  140.2680   73.4080  221.6780 C   0  0  0  0  0  0  0  0  0  0  0  0
  140.1340   74.7940  221.8030 C   0  0  0  0  0  0  0  0  0  0  0  0
  141.1810   75.6150  221.3650 C   0  0  0  0  0  0  0  0  0  0  0  0
  141.1120   77.0470  221.4960 N   0  0  0  0  0  0  0  0  0  0  0  0
  141.3760   77.8870  220.3220 C   0  0  0  0  0  0  0  0  0  0  0  0
  141.4510   79.3680  220.7160 C   0  0  0  0  0  0  0  0  0  0  0  0
  142.1750   79.5230  221.9840 N   0  0  0  0  0  0  0  0  0  0  0  0
  141.4740   78.8860  223.1180 C   0  0  0  0  0  0  0  0  0  0  0  0
  140.5970   77.6820  222.7170 C   0  0  0  0  0  0  0  0  0  0  0  0
  142.3040   75.0410  220.8540 N   0  0  0  0  0  0  0  0  0  0  0  0
  142.4260   73.6910  220.7320 C   0  0  0  0  0  0  0  0  0  0  0  0
  143.6300   73.1190  220.1810 N   0  0  0  0  0  0  0  0  0  0  0  0
  143.5680   72.1480  219.0780 C   0  0  0  0  0  0  0  0  0  0  0  0
  144.7400   72.3330  218.0880 C   0  0  0  0  0  0  0  0  0  0  0  0
  145.9550   72.9260  218.6790 N   0  0  0  0  0  0  0  0  0  0  0  0
  146.0620   72.6730  220.1190 C   0  0  0  0  0  0  0  0  0  0  0  0
  144.9100   73.3580  220.8610 C   0  0  0  0  0  0  0  0  0  0  0  0
  141.4060   72.8920  221.1430 N   0  0  0  0  0  0  0  0  0  0  0  0
  141.1230   71.9360  226.4800 C   0  0  0  0  0  0  0  0  0  0  0  0
  141.0670   71.3780  227.7610 C   0  0  0  0  0  0  0  0  0  0  0  0
  140.4490   69.6784  228.9582 H   0  0  0  0  0  0  0  0  0  0  0  0
  139.5322   68.4171  227.0097 H   0  0  0  0  0  0  0  0  0  0  0  0
  139.6272   69.4088  224.7211 H   0  0  0  0  0  0  0  0  0  0  0  0
  140.8195   72.9149  224.0747 H   0  0  0  0  0  0  0  0  0  0  0  0
  141.5405   71.3644  223.4775 H   0  0  0  0  0  0  0  0  0  0  0  0
  139.5084   70.5449  222.7156 H   0  0  0  0  0  0  0  0  0  0  0  0
  138.5541   71.5731  223.8600 H   0  0  0  0  0  0  0  0  0  0  0  0
  138.2720   72.6140  221.6970 H   0  0  0  0  0  0  0  0  0  0  0  0
  139.2231   75.2317  222.2373 H   0  0  0  0  0  0  0  0  0  0  0  0
  142.3327   77.5852  219.8707 H   0  0  0  0  0  0  0  0  0  0  0  0
  140.5542   77.7552  219.6028 H   0  0  0  0  0  0  0  0  0  0  0  0
  141.9765   79.9269  219.9276 H   0  0  0  0  0  0  0  0  0  0  0  0
  140.4295   79.7576  220.8378 H   0  0  0  0  0  0  0  0  0  0  0  0
  143.1210   79.0830  221.8810 H   0  0  0  0  0  0  0  0  0  0  0  0
  142.2280   78.5395  223.8401 H   0  0  0  0  0  0  0  0  0  0  0  0
  140.7990   79.6444  223.5414 H   0  0  0  0  0  0  0  0  0  0  0  0
  140.5985   76.9462  223.5347 H   0  0  0  0  0  0  0  0  0  0  0  0
  139.5741   78.0383  222.5254 H   0  0  0  0  0  0  0  0  0  0  0  0
  143.6108   71.1311  219.4953 H   0  0  0  0  0  0  0  0  0  0  0  0
  142.6276   72.3099  218.5307 H   0  0  0  0  0  0  0  0  0  0  0  0
  145.0035   71.3461  217.6798 H   0  0  0  0  0  0  0  0  0  0  0  0
  144.3908   73.0383  217.3195 H   0  0  0  0  0  0  0  0  0  0  0  0
  145.9380   73.9610  218.5240 H   0  0  0  0  0  0  0  0  0  0  0  0
  146.0193   71.5892  220.3021 H   0  0  0  0  0  0  0  0  0  0  0  0
  147.0171   73.0772  220.4855 H   0  0  0  0  0  0  0  0  0  0  0  0
  144.8536   72.9590  221.8845 H   0  0  0  0  0  0  0  0  0  0  0  0
  145.1001   74.4413  220.8797 H   0  0  0  0  0  0  0  0  0  0  0  0
  141.5811   72.9253  226.3332 H   0  0  0  0  0  0  0  0  0  0  0  0
  141.4736   71.9316  228.6202 H   0  0  0  0  0  0  0  0  0  0  0  0
  1  2  2  0
  2  3  1  0
  3  4  2  0
  4  5  1  0
  5  6  1  0
  6  7  1  0
  7  8  1  0
  8  9  2  0
  9 10  1  0
 10 11  1  0
 11 12  1  0
 12 13  1  0
 13 14  1  0
 14 15  1  0
 15 16  1  0
 10 17  2  0
 17 18  1  0
 18 19  1  0
 19 20  1  0
 20 21  1  0
 21 22  1  0
 22 23  1  0
 23 24  1  0
 18 25  2  0
  4 26  1  0
 26 27  2  0
 27  1  1  0
 25  8  1  0
 16 11  1  0
 24 19  1  0
  1 28  1  0
  2 29  1  0
  3 30  1  0
  5 31  1  0
  5 32  1  0
  6 33  1  0
  6 34  1  0
  7 35  1  0
  9 36  1  0
 12 37  1  0
 12 38  1  0
 13 39  1  0
 13 40  1  0
 14 41  1  0
 15 42  1  0
 15 43  1  0
 16 44  1  0
 16 45  1  0
 20 46  1  0
 20 47  1  0
 21 48  1  0
 21 49  1  0
 22 50  1  0
 23 51  1  0
 23 52  1  0
 24 53  1  0
 24 54  1  0
 26 55  1  0
 27 56  1  0
M  END
>  <UniqueID>  (74) 
521

>  <SMILES>  (74) 
c1ccc(CCNc2cc(N3CCNCC3)nc(N3CCNCC3)n2)cc1

>  <Energy>  (74) 
64.25807105318853

>  <Genealogy>  (74) 
c1ccc(CCNc2cc(N3CCNCC3)nc(N3CCNCC3)n2)cc1 (3D coordinates assigned)
c1ccc(CCNc2cc(N3CCNCC3)nc(N3CCNCC3)n2)cc1 (nonaromatic ring conformer: 64.25807105318853 kcal/mol)

>  <smiles>  (74) 
c1ccc(CCNc2cc(N3CCNCC3)nc(N3CCNCC3)n2)cc1

>  <score_type>  (74) 
oracle

>  <origin>  (74) 
autodockgpu

>  <m_score__min__energy>  (74) 
-9.2300000000000004

>  <m_primary>  (74) 
energy

>  <meeko>  (74) 
{"free_energy": -8.63, "intermolecular_energy": -10.42, "internal_energy": -0.89, "cluster_size": 19, "cluster_id": 1, "rank_in_cluster": 17}

>  <energy>  (74) 
-8.93

>  <cluster_rmsd>  (74) 
1.08

>  <rmsd>  (74) 
271.03

>  <cluster>  (74) 
1

$$$$
USJHBUDYBBTILB-MPIMZMORNA-N
     RDKit          3D

 56 59  0  0  0  0  0  0  0  0999 V2000
  140.5980   70.0550  228.3200 C   0  0  0  0  0  0  0  0  0  0  0  0
  140.2500   69.1980  227.2730 C   0  0  0  0  0  0  0  0  0  0  0  0
  140.2730   69.6590  225.9530 C   0  0  0  0  0  0  0  0  0  0  0  0
  140.6400   70.9860  225.6730 C   0  0  0  0  0  0  0  0  0  0  0  0
  140.6990   71.4750  224.2470 C   0  0  0  0  0  0  0  0  0  0  0  0
  139.3030   71.5270  223.6130 C   0  0  0  0  0  0  0  0  0  0  0  0
  139.3500   72.0980  222.2670 N   0  0  0  0  0  0  0  0  0  0  0  0
  140.4090   72.9610  221.8260 C   0  0  0  0  0  0  0  0  0  0  0  0
  141.5780   72.4180  221.2860 C   0  0  0  0  0  0  0  0  0  0  0  0
  142.5870   73.2880  220.8520 C   0  0  0  0  0  0  0  0  0  0  0  0
  143.8010   72.7860  220.2600 N   0  0  0  0  0  0  0  0  0  0  0  0
  145.0700   72.9570  220.9780 C   0  0  0  0  0  0  0  0  0  0  0  0
  146.2550   72.5410  220.0950 C   0  0  0  0  0  0  0  0  0  0  0  0
  146.0520   73.0040  218.7170 N   0  0  0  0  0  0  0  0  0  0  0  0
  144.8860   72.3680  218.0710 C   0  0  0  0  0  0  0  0  0  0  0  0
  143.7770   71.9440  219.0570 C   0  0  0  0  0  0  0  0  0  0  0  0
  142.3910   74.6310  220.9460 N   0  0  0  0  0  0  0  0  0  0  0  0
  141.2510   75.1520  221.4760 C   0  0  0  0  0  0  0  0  0  0  0  0
  141.0800   76.5810  221.5630 N   0  0  0  0  0  0  0  0  0  0  0  0
  140.1370   77.1710  222.5250 C   0  0  0  0  0  0  0  0  0  0  0  0
  140.6750   78.4940  223.1150 C   0  0  0  0  0  0  0  0  0  0  0  0
  141.6160   79.2190  222.2390 N   0  0  0  0  0  0  0  0  0  0  0  0
  141.4100   78.9180  220.8190 C   0  0  0  0  0  0  0  0  0  0  0  0
  141.7040   77.4390  220.5470 C   0  0  0  0  0  0  0  0  0  0  0  0
  140.2760   74.3110  221.9110 N   0  0  0  0  0  0  0  0  0  0  0  0
  140.9990   71.8380  226.7300 C   0  0  0  0  0  0  0  0  0  0  0  0
  140.9740   71.3740  228.0490 C   0  0  0  0  0  0  0  0  0  0  0  0
  140.5762   69.6918  229.3581 H   0  0  0  0  0  0  0  0  0  0  0  0
  139.9576   68.1594  227.4872 H   0  0  0  0  0  0  0  0  0  0  0  0
  140.0027   68.9801  225.1308 H   0  0  0  0  0  0  0  0  0  0  0  0
  141.1359   72.4844  224.2329 H   0  0  0  0  0  0  0  0  0  0  0  0
  141.3161   70.7734  223.6665 H   0  0  0  0  0  0  0  0  0  0  0  0
  138.8979   70.5060  223.5549 H   0  0  0  0  0  0  0  0  0  0  0  0
  138.6619   72.1658  224.2383 H   0  0  0  0  0  0  0  0  0  0  0  0
  138.5780   71.8600  221.6040 H   0  0  0  0  0  0  0  0  0  0  0  0
  141.7036   71.3283  221.2032 H   0  0  0  0  0  0  0  0  0  0  0  0
  145.1847   74.0136  221.2615 H   0  0  0  0  0  0  0  0  0  0  0  0
  145.0570   72.3199  221.8746 H   0  0  0  0  0  0  0  0  0  0  0  0
  147.1786   72.9853  220.4945 H   0  0  0  0  0  0  0  0  0  0  0  0
  146.3332   71.4438  220.0955 H   0  0  0  0  0  0  0  0  0  0  0  0
  145.9040   74.0420  218.7340 H   0  0  0  0  0  0  0  0  0  0  0  0
  144.4562   73.0818  217.3528 H   0  0  0  0  0  0  0  0  0  0  0  0
  145.2510   71.4496  217.5879 H   0  0  0  0  0  0  0  0  0  0  0  0
  142.7984   72.0454  218.5649 H   0  0  0  0  0  0  0  0  0  0  0  0
  143.9489   70.8989  219.3539 H   0  0  0  0  0  0  0  0  0  0  0  0
  139.1839   77.3704  222.0133 H   0  0  0  0  0  0  0  0  0  0  0  0
  139.9993   76.4581  223.3513 H   0  0  0  0  0  0  0  0  0  0  0  0
  139.8179   79.1529  223.3179 H   0  0  0  0  0  0  0  0  0  0  0  0
  141.2367   78.2256  224.0219 H   0  0  0  0  0  0  0  0  0  0  0  0
  142.5940   78.9510  222.4970 H   0  0  0  0  0  0  0  0  0  0  0  0
  140.3667   79.1375  220.5480 H   0  0  0  0  0  0  0  0  0  0  0  0
  142.0910   79.5374  220.2169 H   0  0  0  0  0  0  0  0  0  0  0  0
  141.3076   77.1700  219.5568 H   0  0  0  0  0  0  0  0  0  0  0  0
  142.7929   77.2868  220.5816 H   0  0  0  0  0  0  0  0  0  0  0  0
  141.3011   72.8746  226.5196 H   0  0  0  0  0  0  0  0  0  0  0  0
  141.2504   72.0473  228.8738 H   0  0  0  0  0  0  0  0  0  0  0  0
  1  2  2  0
  2  3  1  0
  3  4  2  0
  4  5  1  0
  5  6  1  0
  6  7  1  0
  7  8  1  0
  8  9  2  0
  9 10  1  0
 10 11  1  0
 11 12  1  0
 12 13  1  0
 13 14  1  0
 14 15  1  0
 15 16  1  0
 10 17  2  0
 17 18  1  0
 18 19  1  0
 19 20  1  0
 20 21  1  0
 21 22  1  0
 22 23  1  0
 23 24  1  0
 18 25  2  0
  4 26  1  0
 26 27  2  0
 27  1  1  0
 25  8  1  0
 16 11  1  0
 24 19  1  0
  1 28  1  0
  2 29  1  0
  3 30  1  0
  5 31  1  0
  5 32  1  0
  6 33  1  0
  6 34  1  0
  7 35  1  0
  9 36  1  0
 12 37  1  0
 12 38  1  0
 13 39  1  0
 13 40  1  0
 14 41  1  0
 15 42  1  0
 15 43  1  0
 16 44  1  0
 16 45  1  0
 20 46  1  0
 20 47  1  0
 21 48  1  0
 21 49  1  0
 22 50  1  0
 23 51  1  0
 23 52  1  0
 24 53  1  0
 24 54  1  0
 26 55  1  0
 27 56  1  0
M  END
>  <UniqueID>  (75) 
521

>  <SMILES>  (75) 
c1ccc(CCNc2cc(N3CCNCC3)nc(N3CCNCC3)n2)cc1

>  <Energy>  (75) 
64.25807105318853

>  <Genealogy>  (75) 
c1ccc(CCNc2cc(N3CCNCC3)nc(N3CCNCC3)n2)cc1 (3D coordinates assigned)
c1ccc(CCNc2cc(N3CCNCC3)nc(N3CCNCC3)n2)cc1 (nonaromatic ring conformer: 64.25807105318853 kcal/mol)

>  <smiles>  (75) 
c1ccc(CCNc2cc(N3CCNCC3)nc(N3CCNCC3)n2)cc1

>  <score_type>  (75) 
oracle

>  <origin>  (75) 
autodockgpu

>  <m_score__min__energy>  (75) 
-9.2300000000000004

>  <m_primary>  (75) 
energy

>  <meeko>  (75) 
{"free_energy": -8.62, "intermolecular_energy": -10.41, "internal_energy": -0.85, "cluster_size": 19, "cluster_id": 1, "rank_in_cluster": 18}

>  <energy>  (75) 
-8.87

>  <cluster_rmsd>  (75) 
0.99

>  <rmsd>  (75) 
271.03

>  <cluster>  (75) 
1

$$$$
USJHBUDYBBTILB-MPIMZMORNA-N
     RDKit          3D

 56 59  0  0  0  0  0  0  0  0999 V2000
  141.0700   70.9540  227.6460 C   0  0  0  0  0  0  0  0  0  0  0  0
  141.3480   71.8610  226.6210 C   0  0  0  0  0  0  0  0  0  0  0  0
  140.6910   71.7520  225.3910 C   0  0  0  0  0  0  0  0  0  0  0  0
  139.7520   70.7280  225.1780 C   0  0  0  0  0  0  0  0  0  0  0  0
  139.0170   70.6310  223.8660 C   0  0  0  0  0  0  0  0  0  0  0  0
  139.8440   71.2140  222.7130 C   0  0  0  0  0  0  0  0  0  0  0  0
  139.6350   72.6560  222.5820 N   0  0  0  0  0  0  0  0  0  0  0  0
  140.5920   73.5270  221.9610 C   0  0  0  0  0  0  0  0  0  0  0  0
  140.3700   74.9060  221.9310 C   0  0  0  0  0  0  0  0  0  0  0  0
  141.3300   75.7310  221.3290 C   0  0  0  0  0  0  0  0  0  0  0  0
  141.1690   77.1620  221.2960 N   0  0  0  0  0  0  0  0  0  0  0  0
  141.4700   77.8860  220.0560 C   0  0  0  0  0  0  0  0  0  0  0  0
  141.4320   79.4030  220.2880 C   0  0  0  0  0  0  0  0  0  0  0  0
  142.0520   79.7380  221.5760 N   0  0  0  0  0  0  0  0  0  0  0  0
  141.3080   79.1820  222.7240 C   0  0  0  0  0  0  0  0  0  0  0  0
  140.5320   77.8880  222.4020 C   0  0  0  0  0  0  0  0  0  0  0  0
  142.4570   75.1690  220.8140 N   0  0  0  0  0  0  0  0  0  0  0  0
  142.6630   73.8250  220.8430 C   0  0  0  0  0  0  0  0  0  0  0  0
  143.8690   73.2650  220.2830 N   0  0  0  0  0  0  0  0  0  0  0  0
  143.8080   72.1680  219.3050 C   0  0  0  0  0  0  0  0  0  0  0  0
  144.9050   72.3050  218.2240 C   0  0  0  0  0  0  0  0  0  0  0  0
  146.1100   73.0350  218.6620 N   0  0  0  0  0  0  0  0  0  0  0  0
  146.3180   72.9610  220.1110 C   0  0  0  0  0  0  0  0  0  0  0  0
  145.1680   73.6590  220.8440 C   0  0  0  0  0  0  0  0  0  0  0  0
  141.7280   73.0200  221.4130 N   0  0  0  0  0  0  0  0  0  0  0  0
  139.4690   69.8270  226.2180 C   0  0  0  0  0  0  0  0  0  0  0  0
  140.1300   69.9380  227.4460 C   0  0  0  0  0  0  0  0  0  0  0  0
  141.5907   71.0388  228.6112 H   0  0  0  0  0  0  0  0  0  0  0  0
  142.0846   72.6621  226.7812 H   0  0  0  0  0  0  0  0  0  0  0  0
  140.9100   72.4704  224.5873 H   0  0  0  0  0  0  0  0  0  0  0  0
  138.8036   69.5731  223.6534 H   0  0  0  0  0  0  0  0  0  0  0  0
  138.0853   71.2098  223.9491 H   0  0  0  0  0  0  0  0  0  0  0  0
  140.9101   71.0229  222.9049 H   0  0  0  0  0  0  0  0  0  0  0  0
  139.5230   70.7313  221.7781 H   0  0  0  0  0  0  0  0  0  0  0  0
  138.7470   73.0600  222.9570 H   0  0  0  0  0  0  0  0  0  0  0  0
  139.4586   75.3364  222.3717 H   0  0  0  0  0  0  0  0  0  0  0  0
  142.4726   77.5997  219.7054 H   0  0  0  0  0  0  0  0  0  0  0  0
  140.7122   77.6253  219.3025 H   0  0  0  0  0  0  0  0  0  0  0  0
  141.9808   79.9075  219.4791 H   0  0  0  0  0  0  0  0  0  0  0  0
  140.3840   79.7369  220.2982 H   0  0  0  0  0  0  0  0  0  0  0  0
  143.0260   79.3520  221.5850 H   0  0  0  0  0  0  0  0  0  0  0  0
  142.0259   78.9637  223.5283 H   0  0  0  0  0  0  0  0  0  0  0  0
  140.5620   79.9362  223.0150 H   0  0  0  0  0  0  0  0  0  0  0  0
  140.5162   77.2450  223.2943 H   0  0  0  0  0  0  0  0  0  0  0  0
  139.5069   78.1550  222.1056 H   0  0  0  0  0  0  0  0  0  0  0  0
  143.9442   71.2122  219.8322 H   0  0  0  0  0  0  0  0  0  0  0  0
  142.8282   72.2066  218.8065 H   0  0  0  0  0  0  0  0  0  0  0  0
  145.2096   71.2945  217.9140 H   0  0  0  0  0  0  0  0  0  0  0  0
  144.4645   72.8926  217.4050 H   0  0  0  0  0  0  0  0  0  0  0  0
  146.0130   74.0420  218.3910 H   0  0  0  0  0  0  0  0  0  0  0  0
  146.3588   71.9059  220.4193 H   0  0  0  0  0  0  0  0  0  0  0  0
  147.2638   73.4619  220.3651 H   0  0  0  0  0  0  0  0  0  0  0  0
  145.1991   73.3819  221.9081 H   0  0  0  0  0  0  0  0  0  0  0  0
  145.2856   74.7462  220.7248 H   0  0  0  0  0  0  0  0  0  0  0  0
  138.7249   69.0312  226.0662 H   0  0  0  0  0  0  0  0  0  0  0  0
  139.9102   69.2256  228.2548 H   0  0  0  0  0  0  0  0  0  0  0  0
  1  2  2  0
  2  3  1  0
  3  4  2  0
  4  5  1  0
  5  6  1  0
  6  7  1  0
  7  8  1  0
  8  9  2  0
  9 10  1  0
 10 11  1  0
 11 12  1  0
 12 13  1  0
 13 14  1  0
 14 15  1  0
 15 16  1  0
 10 17  2  0
 17 18  1  0
 18 19  1  0
 19 20  1  0
 20 21  1  0
 21 22  1  0
 22 23  1  0
 23 24  1  0
 18 25  2  0
  4 26  1  0
 26 27  2  0
 27  1  1  0
 25  8  1  0
 16 11  1  0
 24 19  1  0
  1 28  1  0
  2 29  1  0
  3 30  1  0
  5 31  1  0
  5 32  1  0
  6 33  1  0
  6 34  1  0
  7 35  1  0
  9 36  1  0
 12 37  1  0
 12 38  1  0
 13 39  1  0
 13 40  1  0
 14 41  1  0
 15 42  1  0
 15 43  1  0
 16 44  1  0
 16 45  1  0
 20 46  1  0
 20 47  1  0
 21 48  1  0
 21 49  1  0
 22 50  1  0
 23 51  1  0
 23 52  1  0
 24 53  1  0
 24 54  1  0
 26 55  1  0
 27 56  1  0
M  END
>  <UniqueID>  (76) 
521

>  <SMILES>  (76) 
c1ccc(CCNc2cc(N3CCNCC3)nc(N3CCNCC3)n2)cc1

>  <Energy>  (76) 
64.25807105318853

>  <Genealogy>  (76) 
c1ccc(CCNc2cc(N3CCNCC3)nc(N3CCNCC3)n2)cc1 (3D coordinates assigned)
c1ccc(CCNc2cc(N3CCNCC3)nc(N3CCNCC3)n2)cc1 (nonaromatic ring conformer: 64.25807105318853 kcal/mol)

>  <smiles>  (76) 
c1ccc(CCNc2cc(N3CCNCC3)nc(N3CCNCC3)n2)cc1

>  <score_type>  (76) 
oracle

>  <origin>  (76) 
autodockgpu

>  <m_score__min__energy>  (76) 
-9.2300000000000004

>  <m_primary>  (76) 
energy

>  <meeko>  (76) 
{"free_energy": -8.78, "intermolecular_energy": -10.57, "internal_energy": -0.88, "cluster_size": 19, "cluster_id": 1, "rank_in_cluster": 16}

>  <energy>  (76) 
-8.78

>  <cluster_rmsd>  (76) 
0.69

>  <rmsd>  (76) 
271.01

>  <cluster>  (76) 
1

$$$$
USJHBUDYBBTILB-MPIMZMORNA-N
     RDKit          3D

 56 59  0  0  0  0  0  0  0  0999 V2000
  140.1320   68.3300  227.9760 C   0  0  0  0  0  0  0  0  0  0  0  0
  139.9620   67.9980  226.6300 C   0  0  0  0  0  0  0  0  0  0  0  0
  140.1410   68.9700  225.6410 C   0  0  0  0  0  0  0  0  0  0  0  0
  140.4870   70.2850  225.9950 C   0  0  0  0  0  0  0  0  0  0  0  0
  140.7150   71.3260  224.9280 C   0  0  0  0  0  0  0  0  0  0  0  0
  139.8220   71.0810  223.7050 C   0  0  0  0  0  0  0  0  0  0  0  0
  139.4860   72.3350  223.0310 N   0  0  0  0  0  0  0  0  0  0  0  0
  140.4480   73.1020  222.2900 C   0  0  0  0  0  0  0  0  0  0  0  0
  141.4560   72.4550  221.5700 C   0  0  0  0  0  0  0  0  0  0  0  0
  142.3720   73.2300  220.8460 C   0  0  0  0  0  0  0  0  0  0  0  0
  143.4130   72.6180  220.0620 N   0  0  0  0  0  0  0  0  0  0  0  0
  143.5320   71.1550  220.0480 C   0  0  0  0  0  0  0  0  0  0  0  0
  144.8130   70.7190  219.3250 C   0  0  0  0  0  0  0  0  0  0  0  0
  145.9280   71.6040  219.6820 N   0  0  0  0  0  0  0  0  0  0  0  0
  145.7160   72.9930  219.2280 C   0  0  0  0  0  0  0  0  0  0  0  0
  144.2320   73.4020  219.1280 C   0  0  0  0  0  0  0  0  0  0  0  0
  142.2400   74.5840  220.8470 N   0  0  0  0  0  0  0  0  0  0  0  0
  141.2580   75.2070  221.5540 C   0  0  0  0  0  0  0  0  0  0  0  0
  141.1510   76.6450  221.5340 N   0  0  0  0  0  0  0  0  0  0  0  0
  140.6370   77.3800  222.6990 C   0  0  0  0  0  0  0  0  0  0  0  0
  141.3730   78.7240  222.8980 C   0  0  0  0  0  0  0  0  0  0  0  0
  141.9360   79.3040  221.6630 N   0  0  0  0  0  0  0  0  0  0  0  0
  141.2180   78.8730  220.4600 C   0  0  0  0  0  0  0  0  0  0  0  0
  141.3710   77.3610  220.2700 C   0  0  0  0  0  0  0  0  0  0  0  0
  140.3760   74.4590  222.2680 N   0  0  0  0  0  0  0  0  0  0  0  0
  140.6680   70.6080  227.3500 C   0  0  0  0  0  0  0  0  0  0  0  0
  140.4860   69.6340  228.3370 C   0  0  0  0  0  0  0  0  0  0  0  0
  139.9873   67.5650  228.7530 H   0  0  0  0  0  0  0  0  0  0  0  0
  139.6871   66.9710  226.3478 H   0  0  0  0  0  0  0  0  0  0  0  0
  140.0104   68.7042  224.5816 H   0  0  0  0  0  0  0  0  0  0  0  0
  140.4884   72.3191  225.3431 H   0  0  0  0  0  0  0  0  0  0  0  0
  141.7653   71.2669  224.6064 H   0  0  0  0  0  0  0  0  0  0  0  0
  140.3536   70.4262  222.9989 H   0  0  0  0  0  0  0  0  0  0  0  0
  138.8884   70.6099  224.0462 H   0  0  0  0  0  0  0  0  0  0  0  0
  138.5010   72.6790  223.0930 H   0  0  0  0  0  0  0  0  0  0  0  0
  141.5291   71.3574  221.5716 H   0  0  0  0  0  0  0  0  0  0  0  0
  143.5590   70.7855  221.0838 H   0  0  0  0  0  0  0  0  0  0  0  0
  142.6662   70.7361  219.5143 H   0  0  0  0  0  0  0  0  0  0  0  0
  145.0609   69.6878  219.6168 H   0  0  0  0  0  0  0  0  0  0  0  0
  144.6466   70.7747  218.2391 H   0  0  0  0  0  0  0  0  0  0  0  0
  146.0310   71.6020  220.7250 H   0  0  0  0  0  0  0  0  0  0  0  0
  146.2137   73.6688  219.9390 H   0  0  0  0  0  0  0  0  0  0  0  0
  146.1339   73.0628  218.2129 H   0  0  0  0  0  0  0  0  0  0  0  0
  144.1347   74.4703  219.3716 H   0  0  0  0  0  0  0  0  0  0  0  0
  143.8808   73.2105  218.1033 H   0  0  0  0  0  0  0  0  0  0  0  0
  139.5654   77.5791  222.5503 H   0  0  0  0  0  0  0  0  0  0  0  0
  140.8031   76.7626  223.5941 H   0  0  0  0  0  0  0  0  0  0  0  0
  140.6601   79.4462  223.3224 H   0  0  0  0  0  0  0  0  0  0  0  0
  142.2249   78.5179  223.5626 H   0  0  0  0  0  0  0  0  0  0  0  0
  142.9370   79.0090  221.5760 H   0  0  0  0  0  0  0  0  0  0  0  0
  140.1513   79.1206  220.5645 H   0  0  0  0  0  0  0  0  0  0  0  0
  141.6380   79.3905  219.5849 H   0  0  0  0  0  0  0  0  0  0  0  0
  140.6355   77.0157  219.5286 H   0  0  0  0  0  0  0  0  0  0  0  0
  142.3944   77.1537  219.9242 H   0  0  0  0  0  0  0  0  0  0  0  0
  140.9540   71.6310  227.6359 H   0  0  0  0  0  0  0  0  0  0  0  0
  140.6213   69.8936  229.3973 H   0  0  0  0  0  0  0  0  0  0  0  0
  1  2  2  0
  2  3  1  0
  3  4  2  0
  4  5  1  0
  5  6  1  0
  6  7  1  0
  7  8  1  0
  8  9  2  0
  9 10  1  0
 10 11  1  0
 11 12  1  0
 12 13  1  0
 13 14  1  0
 14 15  1  0
 15 16  1  0
 10 17  2  0
 17 18  1  0
 18 19  1  0
 19 20  1  0
 20 21  1  0
 21 22  1  0
 22 23  1  0
 23 24  1  0
 18 25  2  0
  4 26  1  0
 26 27  2  0
 27  1  1  0
 25  8  1  0
 16 11  1  0
 24 19  1  0
  1 28  1  0
  2 29  1  0
  3 30  1  0
  5 31  1  0
  5 32  1  0
  6 33  1  0
  6 34  1  0
  7 35  1  0
  9 36  1  0
 12 37  1  0
 12 38  1  0
 13 39  1  0
 13 40  1  0
 14 41  1  0
 15 42  1  0
 15 43  1  0
 16 44  1  0
 16 45  1  0
 20 46  1  0
 20 47  1  0
 21 48  1  0
 21 49  1  0
 22 50  1  0
 23 51  1  0
 23 52  1  0
 24 53  1  0
 24 54  1  0
 26 55  1  0
 27 56  1  0
M  END
>  <UniqueID>  (77) 
521

>  <SMILES>  (77) 
c1ccc(CCNc2cc(N3CCNCC3)nc(N3CCNCC3)n2)cc1

>  <Energy>  (77) 
64.25807105318853

>  <Genealogy>  (77) 
c1ccc(CCNc2cc(N3CCNCC3)nc(N3CCNCC3)n2)cc1 (3D coordinates assigned)
c1ccc(CCNc2cc(N3CCNCC3)nc(N3CCNCC3)n2)cc1 (nonaromatic ring conformer: 64.25807105318853 kcal/mol)

>  <smiles>  (77) 
c1ccc(CCNc2cc(N3CCNCC3)nc(N3CCNCC3)n2)cc1

>  <score_type>  (77) 
oracle

>  <origin>  (77) 
autodockgpu

>  <m_score__min__energy>  (77) 
-9.2300000000000004

>  <m_primary>  (77) 
energy

>  <meeko>  (77) 
{"free_energy": -8.93, "intermolecular_energy": -10.72, "internal_energy": -0.81, "cluster_size": 19, "cluster_id": 1, "rank_in_cluster": 14}

>  <energy>  (77) 
-8.63

>  <cluster_rmsd>  (77) 
0.65

>  <rmsd>  (77) 
271.0

>  <cluster>  (77) 
1

$$$$
USJHBUDYBBTILB-MPIMZMORNA-N
     RDKit          3D

 56 59  0  0  0  0  0  0  0  0999 V2000
  141.0790   70.9590  227.9700 C   0  0  0  0  0  0  0  0  0  0  0  0
  141.2700   71.8370  226.9010 C   0  0  0  0  0  0  0  0  0  0  0  0
  140.5770   71.6430  225.7020 C   0  0  0  0  0  0  0  0  0  0  0  0
  139.6900   70.5610  225.5640 C   0  0  0  0  0  0  0  0  0  0  0  0
  138.9150   70.3710  224.2850 C   0  0  0  0  0  0  0  0  0  0  0  0
  139.7180   70.8420  223.0660 C   0  0  0  0  0  0  0  0  0  0  0  0
  139.5450   72.2760  222.8350 N   0  0  0  0  0  0  0  0  0  0  0  0
  140.5230   73.0760  222.1530 C   0  0  0  0  0  0  0  0  0  0  0  0
  141.5610   72.4640  221.4460 C   0  0  0  0  0  0  0  0  0  0  0  0
  142.4920   73.2730  220.7800 C   0  0  0  0  0  0  0  0  0  0  0  0
  143.5650   72.6970  220.0100 N   0  0  0  0  0  0  0  0  0  0  0  0
  143.6360   71.2390  219.8610 C   0  0  0  0  0  0  0  0  0  0  0  0
  144.9500   70.8240  219.1860 C   0  0  0  0  0  0  0  0  0  0  0  0
  146.0660   71.6270  219.7020 N   0  0  0  0  0  0  0  0  0  0  0  0
  145.9320   73.0610  219.3730 C   0  0  0  0  0  0  0  0  0  0  0  0
  144.4720   73.5340  219.2140 C   0  0  0  0  0  0  0  0  0  0  0  0
  142.3440   74.6250  220.8210 N   0  0  0  0  0  0  0  0  0  0  0  0
  141.3330   75.2130  221.5150 C   0  0  0  0  0  0  0  0  0  0  0  0
  141.2110   76.6500  221.5400 N   0  0  0  0  0  0  0  0  0  0  0  0
  140.6900   77.3430  222.7280 C   0  0  0  0  0  0  0  0  0  0  0  0
  141.4130   78.6880  222.9670 C   0  0  0  0  0  0  0  0  0  0  0  0
  141.9680   79.3120  221.7510 N   0  0  0  0  0  0  0  0  0  0  0  0
  141.2530   78.9110  220.5350 C   0  0  0  0  0  0  0  0  0  0  0  0
  141.4210   77.4070  220.2980 C   0  0  0  0  0  0  0  0  0  0  0  0
  140.4370   74.4330  222.1740 N   0  0  0  0  0  0  0  0  0  0  0  0
  139.4950   69.6900  226.6480 C   0  0  0  0  0  0  0  0  0  0  0  0
  140.1910   69.8860  227.8450 C   0  0  0  0  0  0  0  0  0  0  0  0
  141.6275   71.1116  228.9112 H   0  0  0  0  0  0  0  0  0  0  0  0
  141.9665   72.6823  227.0022 H   0  0  0  0  0  0  0  0  0  0  0  0
  140.7264   72.3395  224.8638 H   0  0  0  0  0  0  0  0  0  0  0  0
  138.6777   69.3035  224.1660 H   0  0  0  0  0  0  0  0  0  0  0  0
  137.9957   70.9720  224.3459 H   0  0  0  0  0  0  0  0  0  0  0  0
  140.7843   70.6331  223.2373 H   0  0  0  0  0  0  0  0  0  0  0  0
  139.3520   70.3019  222.1804 H   0  0  0  0  0  0  0  0  0  0  0  0
  138.6690   72.7280  223.1810 H   0  0  0  0  0  0  0  0  0  0  0  0
  141.6461   71.3678  221.4126 H   0  0  0  0  0  0  0  0  0  0  0  0
  143.5778   70.7716  220.8550 H   0  0  0  0  0  0  0  0  0  0  0  0
  142.7964   70.9074  219.2324 H   0  0  0  0  0  0  0  0  0  0  0  0
  145.1430   69.7607  219.3914 H   0  0  0  0  0  0  0  0  0  0  0  0
  144.8623   70.9895  218.1021 H   0  0  0  0  0  0  0  0  0  0  0  0
  146.0950   71.5210  220.7450 H   0  0  0  0  0  0  0  0  0  0  0  0
  146.3994   73.6460  220.1788 H   0  0  0  0  0  0  0  0  0  0  0  0
  146.4234   73.2119  218.4005 H   0  0  0  0  0  0  0  0  0  0  0  0
  144.3915   74.5773  219.5533 H   0  0  0  0  0  0  0  0  0  0  0  0
  144.1880   73.4541  218.1543 H   0  0  0  0  0  0  0  0  0  0  0  0
  139.6163   77.5355  222.5864 H   0  0  0  0  0  0  0  0  0  0  0  0
  140.8626   76.7001  223.6037 H   0  0  0  0  0  0  0  0  0  0  0  0
  140.6935   79.3894  223.4146 H   0  0  0  0  0  0  0  0  0  0  0  0
  142.2684   78.4696  223.6232 H   0  0  0  0  0  0  0  0  0  0  0  0
  142.9720   79.0310  221.6540 H   0  0  0  0  0  0  0  0  0  0  0  0
  140.1840   79.1445  220.6477 H   0  0  0  0  0  0  0  0  0  0  0  0
  141.6671   79.4595  219.6761 H   0  0  0  0  0  0  0  0  0  0  0  0
  140.6874   77.0772  219.5476 H   0  0  0  0  0  0  0  0  0  0  0  0
  142.4457   77.2210  219.9440 H   0  0  0  0  0  0  0  0  0  0  0  0
  138.7914   68.8495  226.5552 H   0  0  0  0  0  0  0  0  0  0  0  0
  140.0399   69.1961  228.6883 H   0  0  0  0  0  0  0  0  0  0  0  0
  1  2  2  0
  2  3  1  0
  3  4  2  0
  4  5  1  0
  5  6  1  0
  6  7  1  0
  7  8  1  0
  8  9  2  0
  9 10  1  0
 10 11  1  0
 11 12  1  0
 12 13  1  0
 13 14  1  0
 14 15  1  0
 15 16  1  0
 10 17  2  0
 17 18  1  0
 18 19  1  0
 19 20  1  0
 20 21  1  0
 21 22  1  0
 22 23  1  0
 23 24  1  0
 18 25  2  0
  4 26  1  0
 26 27  2  0
 27  1  1  0
 25  8  1  0
 16 11  1  0
 24 19  1  0
  1 28  1  0
  2 29  1  0
  3 30  1  0
  5 31  1  0
  5 32  1  0
  6 33  1  0
  6 34  1  0
  7 35  1  0
  9 36  1  0
 12 37  1  0
 12 38  1  0
 13 39  1  0
 13 40  1  0
 14 41  1  0
 15 42  1  0
 15 43  1  0
 16 44  1  0
 16 45  1  0
 20 46  1  0
 20 47  1  0
 21 48  1  0
 21 49  1  0
 22 50  1  0
 23 51  1  0
 23 52  1  0
 24 53  1  0
 24 54  1  0
 26 55  1  0
 27 56  1  0
M  END
>  <UniqueID>  (78) 
521

>  <SMILES>  (78) 
c1ccc(CCNc2cc(N3CCNCC3)nc(N3CCNCC3)n2)cc1

>  <Energy>  (78) 
64.25807105318853

>  <Genealogy>  (78) 
c1ccc(CCNc2cc(N3CCNCC3)nc(N3CCNCC3)n2)cc1 (3D coordinates assigned)
c1ccc(CCNc2cc(N3CCNCC3)nc(N3CCNCC3)n2)cc1 (nonaromatic ring conformer: 64.25807105318853 kcal/mol)

>  <smiles>  (78) 
c1ccc(CCNc2cc(N3CCNCC3)nc(N3CCNCC3)n2)cc1

>  <score_type>  (78) 
oracle

>  <origin>  (78) 
autodockgpu

>  <m_score__min__energy>  (78) 
-9.2300000000000004

>  <m_primary>  (78) 
energy

>  <meeko>  (78) 
{"free_energy": -8.87, "intermolecular_energy": -10.66, "internal_energy": -0.89, "cluster_size": 19, "cluster_id": 1, "rank_in_cluster": 15}

>  <energy>  (78) 
-8.62

>  <cluster_rmsd>  (78) 
0.6

>  <rmsd>  (78) 
271.06

>  <cluster>  (78) 
1

$$$$
USJHBUDYBBTILB-MPIMZMORNA-N
     RDKit          3D

 56 59  0  0  0  0  0  0  0  0999 V2000
  140.5450   70.0490  228.1350 C   0  0  0  0  0  0  0  0  0  0  0  0
  140.1150   69.2960  227.0400 C   0  0  0  0  0  0  0  0  0  0  0  0
  140.1490   69.8460  225.7550 C   0  0  0  0  0  0  0  0  0  0  0  0
  140.6100   71.1600  225.5590 C   0  0  0  0  0  0  0  0  0  0  0  0
  140.6810   71.7420  224.1700 C   0  0  0  0  0  0  0  0  0  0  0  0
  139.3750   71.5140  223.3980 C   0  0  0  0  0  0  0  0  0  0  0  0
  139.3020   72.3650  222.2100 N   0  0  0  0  0  0  0  0  0  0  0  0
  140.3950   73.1900  221.7770 C   0  0  0  0  0  0  0  0  0  0  0  0
  141.5530   72.6060  221.2570 C   0  0  0  0  0  0  0  0  0  0  0  0
  142.5960   73.4390  220.8310 C   0  0  0  0  0  0  0  0  0  0  0  0
  143.8000   72.8940  220.2590 N   0  0  0  0  0  0  0  0  0  0  0  0
  145.0750   73.0890  220.9580 C   0  0  0  0  0  0  0  0  0  0  0  0
  146.2500   72.6150  220.0910 C   0  0  0  0  0  0  0  0  0  0  0  0
  146.0420   73.0050  218.6910 N   0  0  0  0  0  0  0  0  0  0  0  0
  144.8640   72.3480  218.0880 C   0  0  0  0  0  0  0  0  0  0  0  0
  143.7580   71.9890  219.1020 C   0  0  0  0  0  0  0  0  0  0  0  0
  142.4420   74.7880  220.9130 N   0  0  0  0  0  0  0  0  0  0  0  0
  141.3130   75.3490  221.4250 C   0  0  0  0  0  0  0  0  0  0  0  0
  141.1880   76.7840  221.5000 N   0  0  0  0  0  0  0  0  0  0  0  0
  140.6860   77.4350  222.7200 C   0  0  0  0  0  0  0  0  0  0  0  0
  141.4090   78.7740  222.9930 C   0  0  0  0  0  0  0  0  0  0  0  0
  141.9410   79.4400  221.7880 N   0  0  0  0  0  0  0  0  0  0  0  0
  141.2050   79.0780  220.5730 C   0  0  0  0  0  0  0  0  0  0  0  0
  141.3730   77.5840  220.2820 C   0  0  0  0  0  0  0  0  0  0  0  0
  140.3050   74.5450  221.8520 N   0  0  0  0  0  0  0  0  0  0  0  0
  141.0510   71.9060  226.6640 C   0  0  0  0  0  0  0  0  0  0  0  0
  141.0140   71.3530  227.9480 C   0  0  0  0  0  0  0  0  0  0  0  0
  140.5147   69.6157  229.1456 H   0  0  0  0  0  0  0  0  0  0  0  0
  139.7493   68.2693  227.1887 H   0  0  0  0  0  0  0  0  0  0  0  0
  139.8139   69.2487  224.8942 H   0  0  0  0  0  0  0  0  0  0  0  0
  140.8681   72.8234  224.2446 H   0  0  0  0  0  0  0  0  0  0  0  0
  141.4954   71.2405  223.6266 H   0  0  0  0  0  0  0  0  0  0  0  0
  139.3222   70.4601  223.0872 H   0  0  0  0  0  0  0  0  0  0  0  0
  138.5332   71.7686  224.0587 H   0  0  0  0  0  0  0  0  0  0  0  0
  138.4160   72.3640  221.6580 H   0  0  0  0  0  0  0  0  0  0  0  0
  141.6441   71.5123  221.1834 H   0  0  0  0  0  0  0  0  0  0  0  0
  145.2022   74.1578  221.1847 H   0  0  0  0  0  0  0  0  0  0  0  0
  145.0617   72.4996  221.8867 H   0  0  0  0  0  0  0  0  0  0  0  0
  147.1803   73.0714  220.4602 H   0  0  0  0  0  0  0  0  0  0  0  0
  146.3180   71.5187  220.1500 H   0  0  0  0  0  0  0  0  0  0  0  0
  145.9040   74.0440  218.6540 H   0  0  0  0  0  0  0  0  0  0  0  0
  144.4364   73.0272  217.3358 H   0  0  0  0  0  0  0  0  0  0  0  0
  145.2159   71.4012  217.6525 H   0  0  0  0  0  0  0  0  0  0  0  0
  142.7770   72.0750  218.6118 H   0  0  0  0  0  0  0  0  0  0  0  0
  143.9206   70.9591  219.4527 H   0  0  0  0  0  0  0  0  0  0  0  0
  139.6094   77.6285  222.6035 H   0  0  0  0  0  0  0  0  0  0  0  0
  140.8763   76.7632  223.5700 H   0  0  0  0  0  0  0  0  0  0  0  0
  140.6952   79.4574  223.4762 H   0  0  0  0  0  0  0  0  0  0  0  0
  142.2757   78.5374  223.6277 H   0  0  0  0  0  0  0  0  0  0  0  0
  142.9430   79.1660  221.6630 H   0  0  0  0  0  0  0  0  0  0  0  0
  140.1376   79.3036  220.7133 H   0  0  0  0  0  0  0  0  0  0  0  0
  141.6015   79.6568  219.7258 H   0  0  0  0  0  0  0  0  0  0  0  0
  140.6269   77.2775  219.5341 H   0  0  0  0  0  0  0  0  0  0  0  0
  142.3919   77.4141  219.9038 H   0  0  0  0  0  0  0  0  0  0  0  0
  141.4271   72.9295  226.5190 H   0  0  0  0  0  0  0  0  0  0  0  0
  141.3540   71.9441  228.8112 H   0  0  0  0  0  0  0  0  0  0  0  0
  1  2  2  0
  2  3  1  0
  3  4  2  0
  4  5  1  0
  5  6  1  0
  6  7  1  0
  7  8  1  0
  8  9  2  0
  9 10  1  0
 10 11  1  0
 11 12  1  0
 12 13  1  0
 13 14  1  0
 14 15  1  0
 15 16  1  0
 10 17  2  0
 17 18  1  0
 18 19  1  0
 19 20  1  0
 20 21  1  0
 21 22  1  0
 22 23  1  0
 23 24  1  0
 18 25  2  0
  4 26  1  0
 26 27  2  0
 27  1  1  0
 25  8  1  0
 16 11  1  0
 24 19  1  0
  1 28  1  0
  2 29  1  0
  3 30  1  0
  5 31  1  0
  5 32  1  0
  6 33  1  0
  6 34  1  0
  7 35  1  0
  9 36  1  0
 12 37  1  0
 12 38  1  0
 13 39  1  0
 13 40  1  0
 14 41  1  0
 15 42  1  0
 15 43  1  0
 16 44  1  0
 16 45  1  0
 20 46  1  0
 20 47  1  0
 21 48  1  0
 21 49  1  0
 22 50  1  0
 23 51  1  0
 23 52  1  0
 24 53  1  0
 24 54  1  0
 26 55  1  0
 27 56  1  0
M  END
>  <UniqueID>  (79) 
521

>  <SMILES>  (79) 
c1ccc(CCNc2cc(N3CCNCC3)nc(N3CCNCC3)n2)cc1

>  <Energy>  (79) 
64.25807105318853

>  <Genealogy>  (79) 
c1ccc(CCNc2cc(N3CCNCC3)nc(N3CCNCC3)n2)cc1 (3D coordinates assigned)
c1ccc(CCNc2cc(N3CCNCC3)nc(N3CCNCC3)n2)cc1 (nonaromatic ring conformer: 64.25807105318853 kcal/mol)

>  <smiles>  (79) 
c1ccc(CCNc2cc(N3CCNCC3)nc(N3CCNCC3)n2)cc1

>  <score_type>  (79) 
oracle

>  <origin>  (79) 
autodockgpu

>  <m_score__min__energy>  (79) 
-9.2300000000000004

>  <m_primary>  (79) 
energy

>  <meeko>  (79) 
{"free_energy": -9.01, "intermolecular_energy": -10.8, "internal_energy": -0.83, "cluster_size": 19, "cluster_id": 1, "rank_in_cluster": 8}

>  <energy>  (79) 
-8.42

>  <cluster_rmsd>  (79) 
1.58

>  <rmsd>  (79) 
271.07

>  <cluster>  (79) 
1

$$$$
USJHBUDYBBTILB-MPIMZMORNA-N
     RDKit          3D

 56 59  0  0  0  0  0  0  0  0999 V2000
  141.0630   70.5530  227.6290 C   0  0  0  0  0  0  0  0  0  0  0  0
  140.0680   69.5960  227.4200 C   0  0  0  0  0  0  0  0  0  0  0  0
  139.3000   69.6280  226.2510 C   0  0  0  0  0  0  0  0  0  0  0  0
  139.5230   70.6240  225.2850 C   0  0  0  0  0  0  0  0  0  0  0  0
  138.7210   70.6380  224.0080 C   0  0  0  0  0  0  0  0  0  0  0  0
  139.5660   71.1120  222.8190 C   0  0  0  0  0  0  0  0  0  0  0  0
  139.4270   72.5530  222.6060 N   0  0  0  0  0  0  0  0  0  0  0  0
  140.4550   73.3520  222.0020 C   0  0  0  0  0  0  0  0  0  0  0  0
  141.5340   72.7390  221.3590 C   0  0  0  0  0  0  0  0  0  0  0  0
  142.5140   73.5470  220.7680 C   0  0  0  0  0  0  0  0  0  0  0  0
  143.6320   72.9720  220.0660 N   0  0  0  0  0  0  0  0  0  0  0  0
  144.8720   72.6940  220.8010 C   0  0  0  0  0  0  0  0  0  0  0  0
  145.9930   72.2780  219.8400 C   0  0  0  0  0  0  0  0  0  0  0  0
  145.9570   73.1010  218.6250 N   0  0  0  0  0  0  0  0  0  0  0  0
  144.7210   72.8990  217.8410 C   0  0  0  0  0  0  0  0  0  0  0  0
  143.5020   72.4790  218.6880 C   0  0  0  0  0  0  0  0  0  0  0  0
  142.3760   74.9000  220.8160 N   0  0  0  0  0  0  0  0  0  0  0  0
  141.3240   75.4890  221.4470 C   0  0  0  0  0  0  0  0  0  0  0  0
  141.2130   76.9270  221.4810 N   0  0  0  0  0  0  0  0  0  0  0  0
  140.7050   77.6170  222.6770 C   0  0  0  0  0  0  0  0  0  0  0  0
  141.4390   78.9550  222.9190 C   0  0  0  0  0  0  0  0  0  0  0  0
  141.9900   79.5820  221.7020 N   0  0  0  0  0  0  0  0  0  0  0  0
  141.2640   79.1930  220.4900 C   0  0  0  0  0  0  0  0  0  0  0  0
  141.4190   77.6900  220.2420 C   0  0  0  0  0  0  0  0  0  0  0  0
  140.3790   74.7090  222.0340 N   0  0  0  0  0  0  0  0  0  0  0  0
  140.5330   71.5750  225.4980 C   0  0  0  0  0  0  0  0  0  0  0  0
  141.2970   71.5420  226.6680 C   0  0  0  0  0  0  0  0  0  0  0  0
  141.6635   70.5291  228.5503 H   0  0  0  0  0  0  0  0  0  0  0  0
  139.8878   68.8165  228.1749 H   0  0  0  0  0  0  0  0  0  0  0  0
  138.5189   68.8709  226.0875 H   0  0  0  0  0  0  0  0  0  0  0  0
  138.3558   69.6206  223.8040 H   0  0  0  0  0  0  0  0  0  0  0  0
  137.8813   71.3371  224.1353 H   0  0  0  0  0  0  0  0  0  0  0  0
  140.6230   70.8796  223.0159 H   0  0  0  0  0  0  0  0  0  0  0  0
  139.2140   70.5929  221.9153 H   0  0  0  0  0  0  0  0  0  0  0  0
  138.5370   73.0100  222.9060 H   0  0  0  0  0  0  0  0  0  0  0  0
  141.6122   71.6426  221.3177 H   0  0  0  0  0  0  0  0  0  0  0  0
  145.1801   73.5996  221.3441 H   0  0  0  0  0  0  0  0  0  0  0  0
  144.6872   71.8695  221.5053 H   0  0  0  0  0  0  0  0  0  0  0  0
  146.9649   72.4095  220.3382 H   0  0  0  0  0  0  0  0  0  0  0  0
  145.8509   71.2235  219.5611 H   0  0  0  0  0  0  0  0  0  0  0  0
  146.0170   74.1090  218.9060 H   0  0  0  0  0  0  0  0  0  0  0  0
  144.4781   73.8419  217.3292 H   0  0  0  0  0  0  0  0  0  0  0  0
  144.9201   72.0753  217.1397 H   0  0  0  0  0  0  0  0  0  0  0  0
  142.5891   72.8977  218.2394 H   0  0  0  0  0  0  0  0  0  0  0  0
  143.4478   71.3805  218.7092 H   0  0  0  0  0  0  0  0  0  0  0  0
  139.6318   77.8180  222.5439 H   0  0  0  0  0  0  0  0  0  0  0  0
  140.8790   76.9677  223.5477 H   0  0  0  0  0  0  0  0  0  0  0  0
  140.7277   79.6589  223.3757 H   0  0  0  0  0  0  0  0  0  0  0  0
  142.2972   78.7270  223.5682 H   0  0  0  0  0  0  0  0  0  0  0  0
  142.9910   79.2940  221.5960 H   0  0  0  0  0  0  0  0  0  0  0  0
  140.1975   79.4333  220.6121 H   0  0  0  0  0  0  0  0  0  0  0  0
  141.6764   79.7435  219.6316 H   0  0  0  0  0  0  0  0  0  0  0  0
  140.6772   77.3704  219.4953 H   0  0  0  0  0  0  0  0  0  0  0  0
  142.4394   77.4985  219.8785 H   0  0  0  0  0  0  0  0  0  0  0  0
  140.7242   72.3497  224.7408 H   0  0  0  0  0  0  0  0  0  0  0  0
  142.0826   72.2941  226.8331 H   0  0  0  0  0  0  0  0  0  0  0  0
  1  2  2  0
  2  3  1  0
  3  4  2  0
  4  5  1  0
  5  6  1  0
  6  7  1  0
  7  8  1  0
  8  9  2  0
  9 10  1  0
 10 11  1  0
 11 12  1  0
 12 13  1  0
 13 14  1  0
 14 15  1  0
 15 16  1  0
 10 17  2  0
 17 18  1  0
 18 19  1  0
 19 20  1  0
 20 21  1  0
 21 22  1  0
 22 23  1  0
 23 24  1  0
 18 25  2  0
  4 26  1  0
 26 27  2  0
 27  1  1  0
 25  8  1  0
 16 11  1  0
 24 19  1  0
  1 28  1  0
  2 29  1  0
  3 30  1  0
  5 31  1  0
  5 32  1  0
  6 33  1  0
  6 34  1  0
  7 35  1  0
  9 36  1  0
 12 37  1  0
 12 38  1  0
 13 39  1  0
 13 40  1  0
 14 41  1  0
 15 42  1  0
 15 43  1  0
 16 44  1  0
 16 45  1  0
 20 46  1  0
 20 47  1  0
 21 48  1  0
 21 49  1  0
 22 50  1  0
 23 51  1  0
 23 52  1  0
 24 53  1  0
 24 54  1  0
 26 55  1  0
 27 56  1  0
M  END
>  <UniqueID>  (80) 
521

>  <SMILES>  (80) 
c1ccc(CCNc2cc(N3CCNCC3)nc(N3CCNCC3)n2)cc1

>  <Energy>  (80) 
64.25807105318853

>  <Genealogy>  (80) 
c1ccc(CCNc2cc(N3CCNCC3)nc(N3CCNCC3)n2)cc1 (3D coordinates assigned)
c1ccc(CCNc2cc(N3CCNCC3)nc(N3CCNCC3)n2)cc1 (nonaromatic ring conformer: 64.25807105318853 kcal/mol)

>  <smiles>  (80) 
c1ccc(CCNc2cc(N3CCNCC3)nc(N3CCNCC3)n2)cc1

>  <score_type>  (80) 
oracle

>  <origin>  (80) 
autodockgpu

>  <m_score__min__energy>  (80) 
-9.2300000000000004

>  <m_primary>  (80) 
energy

>  <meeko>  (80) 
{"free_energy": -8.99, "intermolecular_energy": -10.77, "internal_energy": -0.88, "cluster_size": 19, "cluster_id": 1, "rank_in_cluster": 11}

>  <energy>  (80) 
-8.26

>  <cluster_rmsd>  (80) 
0.0

>  <rmsd>  (80) 
270.77

>  <cluster>  (80) 
2

$$$$
