IILOZLGKIKELDM-UHFFFAOYNA-N
     RDKit          3D

 51 54  0  0  0  0  0  0  0  0999 V2000
  137.2060   78.5680  222.5980 C   0  0  0  0  0  0  0  0  0  0  0  0
  138.6850   78.3240  222.7140 C   0  0  0  0  0  0  0  0  0  0  0  0
  139.5040   79.2800  223.3420 C   0  0  0  0  0  0  0  0  0  0  0  0
  140.8770   79.0570  223.4740 C   0  0  0  0  0  0  0  0  0  0  0  0
  141.4440   77.8760  222.9910 C   0  0  0  0  0  0  0  0  0  0  0  0
  140.6400   76.9130  222.3770 C   0  0  0  0  0  0  0  0  0  0  0  0
  139.2600   77.1260  222.2420 C   0  0  0  0  0  0  0  0  0  0  0  0
  138.4520   76.1210  221.6160 N   0  0  0  0  0  0  0  0  0  0  0  0
  138.4020   76.0650  220.1540 C   0  0  0  0  0  0  0  0  0  0  0  0
  137.4230   74.9820  219.6870 C   0  0  0  0  0  0  0  0  0  0  0  0
  137.5480   73.7430  220.4880 N   0  0  0  0  0  0  0  0  0  0  0  0
  138.8280   73.0290  220.2730 C   0  0  0  0  0  0  0  0  0  0  0  0
  139.3440   72.4280  221.5440 C   0  0  0  0  0  0  0  0  0  0  0  0
  140.1970   73.1270  222.3370 N   0  0  0  0  0  0  0  0  0  0  0  0
  140.6360   72.6140  223.4870 N   0  0  0  0  0  0  0  0  0  0  0  0
  140.2400   71.3810  223.9000 C   0  0  0  0  0  0  0  0  0  0  0  0
  140.6800   70.8390  225.1040 C   0  0  0  0  0  0  0  0  0  0  0  0
  141.4660   71.5070  225.8330 O   0  0  0  0  0  0  0  0  0  0  0  0
  140.2520   69.5970  225.4910 N   0  0  0  0  0  0  0  0  0  0  0  0
  140.6850   69.0410  226.7840 C   0  0  0  0  0  0  0  0  0  0  0  0
  139.3540   68.9040  224.7120 C   0  0  0  0  0  0  0  0  0  0  0  0
  138.9050   67.7930  225.1160 O   0  0  0  0  0  0  0  0  0  0  0  0
  138.9350   69.4080  223.5040 N   0  0  0  0  0  0  0  0  0  0  0  0
  137.9690   68.6620  222.6800 C   0  0  0  0  0  0  0  0  0  0  0  0
  139.3580   70.6470  223.1020 C   0  0  0  0  0  0  0  0  0  0  0  0
  138.9250   71.1970  221.9350 N   0  0  0  0  0  0  0  0  0  0  0  0
  137.2750   73.9610  221.9350 C   0  0  0  0  0  0  0  0  0  0  0  0
  137.4390   75.4210  222.4080 C   0  0  0  0  0  0  0  0  0  0  0  0
  136.7664   78.6405  223.6037 H   0  0  0  0  0  0  0  0  0  0  0  0
  137.0310   79.5072  222.0527 H   0  0  0  0  0  0  0  0  0  0  0  0
  136.7386   77.7348  222.0527 H   0  0  0  0  0  0  0  0  0  0  0  0
  139.0609   80.2085  223.7314 H   0  0  0  0  0  0  0  0  0  0  0  0
  141.5121   79.8129  223.9591 H   0  0  0  0  0  0  0  0  0  0  0  0
  142.5255   77.7038  223.0942 H   0  0  0  0  0  0  0  0  0  0  0  0
  141.0906   75.9839  221.9978 H   0  0  0  0  0  0  0  0  0  0  0  0
  138.0733   77.0405  219.7662 H   0  0  0  0  0  0  0  0  0  0  0  0
  139.4056   75.8222  219.7746 H   0  0  0  0  0  0  0  0  0  0  0  0
  136.3964   75.3653  219.7826 H   0  0  0  0  0  0  0  0  0  0  0  0
  137.6588   74.7372  218.6408 H   0  0  0  0  0  0  0  0  0  0  0  0
  138.6701   72.2268  219.5371 H   0  0  0  0  0  0  0  0  0  0  0  0
  139.5702   73.7549  219.9094 H   0  0  0  0  0  0  0  0  0  0  0  0
  140.2333   69.6210  227.6023 H   0  0  0  0  0  0  0  0  0  0  0  0
  140.3640   67.9915  226.8578 H   0  0  0  0  0  0  0  0  0  0  0  0
  141.7812   69.0952  226.8578 H   0  0  0  0  0  0  0  0  0  0  0  0
  137.2692   68.1216  223.3344 H   0  0  0  0  0  0  0  0  0  0  0  0
  137.4092   69.3645  222.0451 H   0  0  0  0  0  0  0  0  0  0  0  0
  138.5071   67.9427  222.0451 H   0  0  0  0  0  0  0  0  0  0  0  0
  136.2404   73.6484  222.1396 H   0  0  0  0  0  0  0  0  0  0  0  0
  138.0218   73.3698  222.4852 H   0  0  0  0  0  0  0  0  0  0  0  0
  136.4765   75.9431  222.3025 H   0  0  0  0  0  0  0  0  0  0  0  0
  137.7615   75.4134  223.4596 H   0  0  0  0  0  0  0  0  0  0  0  0
  1  2  1  0
  2  3  2  0
  3  4  1  0
  4  5  2  0
  5  6  1  0
  6  7  2  0
  7  8  1  0
  8  9  1  0
  9 10  1  0
 10 11  1  0
 11 12  1  0
 12 13  1  0
 13 14  2  0
 14 15  1  0
 15 16  2  0
 16 17  1  0
 17 18  2  0
 17 19  1  0
 19 20  1  0
 19 21  1  0
 21 22  2  0
 21 23  1  0
 23 24  1  0
 23 25  1  0
 25 26  2  0
 11 27  1  0
 27 28  1  0
  7  2  1  0
 28  8  1  0
 26 13  1  0
 25 16  1  0
  1 29  1  0
  1 30  1  0
  1 31  1  0
  3 32  1  0
  4 33  1  0
  5 34  1  0
  6 35  1  0
  9 36  1  0
  9 37  1  0
 10 38  1  0
 10 39  1  0
 12 40  1  0
 12 41  1  0
 20 42  1  0
 20 43  1  0
 20 44  1  0
 24 45  1  0
 24 46  1  0
 24 47  1  0
 27 48  1  0
 27 49  1  0
 28 50  1  0
 28 51  1  0
M  END
>  <UniqueID>  (1) 
20

>  <SMILES>  (1) 
Cc1ccccc1N1CCN(Cc2nnc3c(=O)n(C)c(=O)n(C)c3n2)CC1

>  <Energy>  (1) 
77.21757867199318

>  <Genealogy>  (1) 
Cc1ccccc1N1CCN(Cc2nnc3c(=O)n(C)c(=O)n(C)c3n2)CC1 (3D coordinates assigned)
Cc1ccccc1N1CCN(Cc2nnc3c(=O)n(C)c(=O)n(C)c3n2)CC1 (nonaromatic ring conformer: 77.21757867199318 kcal/mol)

>  <smiles>  (1) 
Cc1ccccc1N1CCN(Cc2nnc3c(=O)n(C)c(=O)n(C)c3n2)CC1

>  <score_type>  (1) 
oracle

>  <origin>  (1) 
autodockgpu

>  <m_score__min__energy>  (1) 
-7.6600000000000001

>  <m_primary>  (1) 
energy

>  <meeko>  (1) 
{"free_energy": -6.66, "intermolecular_energy": -7.55, "internal_energy": -1.03, "cluster_size": 4, "cluster_id": 4, "rank_in_cluster": 4}

>  <energy>  (1) 
-7.66

>  <cluster_rmsd>  (1) 
0.0

>  <rmsd>  (1) 
269.5

>  <cluster>  (1) 
1

$$$$
IILOZLGKIKELDM-UHFFFAOYNA-N
     RDKit          3D

 51 54  0  0  0  0  0  0  0  0999 V2000
  141.2570   75.5350  221.5920 C   0  0  0  0  0  0  0  0  0  0  0  0
  140.4340   76.6700  222.1340 C   0  0  0  0  0  0  0  0  0  0  0  0
  141.0720   77.8030  222.6710 C   0  0  0  0  0  0  0  0  0  0  0  0
  140.3170   78.8730  223.1610 C   0  0  0  0  0  0  0  0  0  0  0  0
  138.9230   78.8280  223.1110 C   0  0  0  0  0  0  0  0  0  0  0  0
  138.2780   77.7140  222.5690 C   0  0  0  0  0  0  0  0  0  0  0  0
  139.0250   76.6350  222.0720 C   0  0  0  0  0  0  0  0  0  0  0  0
  138.3430   75.5060  221.5120 N   0  0  0  0  0  0  0  0  0  0  0  0
  138.3990   75.2940  220.0650 C   0  0  0  0  0  0  0  0  0  0  0  0
  137.5430   74.0880  219.6600 C   0  0  0  0  0  0  0  0  0  0  0  0
  137.7100   72.9540  220.5980 N   0  0  0  0  0  0  0  0  0  0  0  0
  139.0540   72.3350  220.5390 C   0  0  0  0  0  0  0  0  0  0  0  0
  139.4990   71.8570  221.8870 C   0  0  0  0  0  0  0  0  0  0  0  0
  140.2130   72.6740  222.7040 N   0  0  0  0  0  0  0  0  0  0  0  0
  140.5850   72.2700  223.9190 N   0  0  0  0  0  0  0  0  0  0  0  0
  140.2590   71.0320  224.3750 C   0  0  0  0  0  0  0  0  0  0  0  0
  140.6300   70.6010  225.6450 C   0  0  0  0  0  0  0  0  0  0  0  0
  141.2850   71.3790  226.3960 O   0  0  0  0  0  0  0  0  0  0  0  0
  140.2760   69.3490  226.0740 N   0  0  0  0  0  0  0  0  0  0  0  0
  140.6330   68.9100  227.4340 C   0  0  0  0  0  0  0  0  0  0  0  0
  139.5160   68.5340  225.2660 C   0  0  0  0  0  0  0  0  0  0  0  0
  139.1280   67.4120  225.7010 O   0  0  0  0  0  0  0  0  0  0  0  0
  139.1700   68.9290  223.9960 N   0  0  0  0  0  0  0  0  0  0  0  0
  138.3510   68.0520  223.1410 C   0  0  0  0  0  0  0  0  0  0  0  0
  139.5210   70.1760  223.5530 C   0  0  0  0  0  0  0  0  0  0  0  0
  139.1530   70.6170  222.3190 N   0  0  0  0  0  0  0  0  0  0  0  0
  137.3210   73.2970  221.9930 C   0  0  0  0  0  0  0  0  0  0  0  0
  137.3370   74.8070  222.3130 C   0  0  0  0  0  0  0  0  0  0  0  0
  141.6773   74.9554  222.4271 H   0  0  0  0  0  0  0  0  0  0  0  0
  140.6209   74.8823  220.9761 H   0  0  0  0  0  0  0  0  0  0  0  0
  142.0751   75.9367  220.9761 H   0  0  0  0  0  0  0  0  0  0  0  0
  142.1706   77.8474  222.7056 H   0  0  0  0  0  0  0  0  0  0  0  0
  140.8228   79.7521  223.5868 H   0  0  0  0  0  0  0  0  0  0  0  0
  138.3317   79.6706  223.4988 H   0  0  0  0  0  0  0  0  0  0  0  0
  137.1791   77.6823  222.5315 H   0  0  0  0  0  0  0  0  0  0  0  0
  138.0223   76.1921  219.5537 H   0  0  0  0  0  0  0  0  0  0  0  0
  139.4425   75.0997  219.7763 H   0  0  0  0  0  0  0  0  0  0  0  0
  136.4851   74.3894  219.6508 H   0  0  0  0  0  0  0  0  0  0  0  0
  137.8690   73.7572  218.6628 H   0  0  0  0  0  0  0  0  0  0  0  0
  139.0231   71.4791  219.8487 H   0  0  0  0  0  0  0  0  0  0  0  0
  139.7684   73.0949  220.1896 H   0  0  0  0  0  0  0  0  0  0  0  0
  140.1177   69.5436  228.1709 H   0  0  0  0  0  0  0  0  0  0  0  0
  140.3271   67.8626  227.5734 H   0  0  0  0  0  0  0  0  0  0  0  0
  141.7207   68.9959  227.5734 H   0  0  0  0  0  0  0  0  0  0  0  0
  137.7364   67.3939  223.7729 H   0  0  0  0  0  0  0  0  0  0  0  0
  137.6961   68.6667  222.5059 H   0  0  0  0  0  0  0  0  0  0  0  0
  139.0090   67.4407  222.5059 H   0  0  0  0  0  0  0  0  0  0  0  0
  136.3023   72.9203  222.1673 H   0  0  0  0  0  0  0  0  0  0  0  0
  138.0718   72.8319  222.6488 H   0  0  0  0  0  0  0  0  0  0  0  0
  136.3458   75.2309  222.0941 H   0  0  0  0  0  0  0  0  0  0  0  0
  137.5869   74.9356  223.3765 H   0  0  0  0  0  0  0  0  0  0  0  0
  1  2  1  0
  2  3  2  0
  3  4  1  0
  4  5  2  0
  5  6  1  0
  6  7  2  0
  7  8  1  0
  8  9  1  0
  9 10  1  0
 10 11  1  0
 11 12  1  0
 12 13  1  0
 13 14  2  0
 14 15  1  0
 15 16  2  0
 16 17  1  0
 17 18  2  0
 17 19  1  0
 19 20  1  0
 19 21  1  0
 21 22  2  0
 21 23  1  0
 23 24  1  0
 23 25  1  0
 25 26  2  0
 11 27  1  0
 27 28  1  0
  7  2  1  0
 28  8  1  0
 26 13  1  0
 25 16  1  0
  1 29  1  0
  1 30  1  0
  1 31  1  0
  3 32  1  0
  4 33  1  0
  5 34  1  0
  6 35  1  0
  9 36  1  0
  9 37  1  0
 10 38  1  0
 10 39  1  0
 12 40  1  0
 12 41  1  0
 20 42  1  0
 20 43  1  0
 20 44  1  0
 24 45  1  0
 24 46  1  0
 24 47  1  0
 27 48  1  0
 27 49  1  0
 28 50  1  0
 28 51  1  0
M  END
>  <UniqueID>  (2) 
20

>  <SMILES>  (2) 
Cc1ccccc1N1CCN(Cc2nnc3c(=O)n(C)c(=O)n(C)c3n2)CC1

>  <Energy>  (2) 
77.21757867199318

>  <Genealogy>  (2) 
Cc1ccccc1N1CCN(Cc2nnc3c(=O)n(C)c(=O)n(C)c3n2)CC1 (3D coordinates assigned)
Cc1ccccc1N1CCN(Cc2nnc3c(=O)n(C)c(=O)n(C)c3n2)CC1 (nonaromatic ring conformer: 77.21757867199318 kcal/mol)

>  <smiles>  (2) 
Cc1ccccc1N1CCN(Cc2nnc3c(=O)n(C)c(=O)n(C)c3n2)CC1

>  <score_type>  (2) 
oracle

>  <origin>  (2) 
autodockgpu

>  <m_score__min__energy>  (2) 
-7.6600000000000001

>  <m_primary>  (2) 
energy

>  <meeko>  (2) 
{"free_energy": -6.84, "intermolecular_energy": -7.73, "internal_energy": -1.14, "cluster_size": 6, "cluster_id": 2, "rank_in_cluster": 4}

>  <energy>  (2) 
-7.65

>  <cluster_rmsd>  (2) 
0.03

>  <rmsd>  (2) 
269.49

>  <cluster>  (2) 
1

$$$$
IILOZLGKIKELDM-UHFFFAOYNA-N
     RDKit          3D

 51 54  0  0  0  0  0  0  0  0999 V2000
  141.2860   75.5080  221.6050 C   0  0  0  0  0  0  0  0  0  0  0  0
  140.4710   76.6480  222.1490 C   0  0  0  0  0  0  0  0  0  0  0  0
  141.1170   77.7750  222.6880 C   0  0  0  0  0  0  0  0  0  0  0  0
  140.3710   78.8500  223.1790 C   0  0  0  0  0  0  0  0  0  0  0  0
  138.9760   78.8150  223.1290 C   0  0  0  0  0  0  0  0  0  0  0  0
  138.3230   77.7070  222.5850 C   0  0  0  0  0  0  0  0  0  0  0  0
  139.0620   76.6240  222.0870 C   0  0  0  0  0  0  0  0  0  0  0  0
  138.3720   75.5010  221.5250 N   0  0  0  0  0  0  0  0  0  0  0  0
  138.4240   75.2920  220.0770 C   0  0  0  0  0  0  0  0  0  0  0  0
  137.5590   74.0930  219.6700 C   0  0  0  0  0  0  0  0  0  0  0  0
  137.7200   72.9560  220.6050 N   0  0  0  0  0  0  0  0  0  0  0  0
  139.0600   72.3280  220.5430 C   0  0  0  0  0  0  0  0  0  0  0  0
  139.5060   71.8500  221.8910 C   0  0  0  0  0  0  0  0  0  0  0  0
  140.2170   72.6690  222.7090 N   0  0  0  0  0  0  0  0  0  0  0  0
  140.5920   72.2650  223.9220 N   0  0  0  0  0  0  0  0  0  0  0  0
  140.2690   71.0250  224.3780 C   0  0  0  0  0  0  0  0  0  0  0  0
  140.6410   70.5950  225.6480 C   0  0  0  0  0  0  0  0  0  0  0  0
  141.2940   71.3740  226.3990 O   0  0  0  0  0  0  0  0  0  0  0  0
  140.2910   69.3420  226.0760 N   0  0  0  0  0  0  0  0  0  0  0  0
  140.6490   68.9020  227.4350 C   0  0  0  0  0  0  0  0  0  0  0  0
  139.5330   68.5250  225.2680 C   0  0  0  0  0  0  0  0  0  0  0  0
  139.1480   67.4010  225.7010 O   0  0  0  0  0  0  0  0  0  0  0  0
  139.1860   68.9200  223.9970 N   0  0  0  0  0  0  0  0  0  0  0  0
  138.3690   68.0410  223.1420 C   0  0  0  0  0  0  0  0  0  0  0  0
  139.5340   70.1680  223.5550 C   0  0  0  0  0  0  0  0  0  0  0  0
  139.1640   70.6080  222.3220 N   0  0  0  0  0  0  0  0  0  0  0  0
  137.3350   73.2980  222.0020 C   0  0  0  0  0  0  0  0  0  0  0  0
  137.3620   74.8070  222.3250 C   0  0  0  0  0  0  0  0  0  0  0  0
  141.7031   74.9246  222.4391 H   0  0  0  0  0  0  0  0  0  0  0  0
  140.6450   74.8603  220.9889 H   0  0  0  0  0  0  0  0  0  0  0  0
  142.1063   75.9049  220.9889 H   0  0  0  0  0  0  0  0  0  0  0  0
  142.2159   77.8106  222.7233 H   0  0  0  0  0  0  0  0  0  0  0  0
  140.8835   79.7249  223.6054 H   0  0  0  0  0  0  0  0  0  0  0  0
  138.3908   79.6611  223.5185 H   0  0  0  0  0  0  0  0  0  0  0  0
  137.2239   77.6835  222.5469 H   0  0  0  0  0  0  0  0  0  0  0  0
  138.0527   76.1940  219.5686 H   0  0  0  0  0  0  0  0  0  0  0  0
  139.4657   75.0909  219.7863 H   0  0  0  0  0  0  0  0  0  0  0  0
  136.5032   74.4016  219.6632 H   0  0  0  0  0  0  0  0  0  0  0  0
  137.8808   73.7626  218.6714 H   0  0  0  0  0  0  0  0  0  0  0  0
  139.0214   71.4708  219.8547 H   0  0  0  0  0  0  0  0  0  0  0  0
  139.7783   73.0824  220.1896 H   0  0  0  0  0  0  0  0  0  0  0  0
  140.1341   69.5348  228.1728 H   0  0  0  0  0  0  0  0  0  0  0  0
  140.3435   67.8544  227.5736 H   0  0  0  0  0  0  0  0  0  0  0  0
  141.7368   68.9881  227.5736 H   0  0  0  0  0  0  0  0  0  0  0  0
  137.7560   67.3815  223.7739 H   0  0  0  0  0  0  0  0  0  0  0  0
  137.7127   68.6541  222.5069 H   0  0  0  0  0  0  0  0  0  0  0  0
  139.0284   67.4312  222.5069 H   0  0  0  0  0  0  0  0  0  0  0  0
  136.3140   72.9280  222.1768 H   0  0  0  0  0  0  0  0  0  0  0  0
  138.0830   72.8259  222.6559 H   0  0  0  0  0  0  0  0  0  0  0  0
  136.3736   75.2382  222.1078 H   0  0  0  0  0  0  0  0  0  0  0  0
  137.6140   74.9313  223.3885 H   0  0  0  0  0  0  0  0  0  0  0  0
  1  2  1  0
  2  3  2  0
  3  4  1  0
  4  5  2  0
  5  6  1  0
  6  7  2  0
  7  8  1  0
  8  9  1  0
  9 10  1  0
 10 11  1  0
 11 12  1  0
 12 13  1  0
 13 14  2  0
 14 15  1  0
 15 16  2  0
 16 17  1  0
 17 18  2  0
 17 19  1  0
 19 20  1  0
 19 21  1  0
 21 22  2  0
 21 23  1  0
 23 24  1  0
 23 25  1  0
 25 26  2  0
 11 27  1  0
 27 28  1  0
  7  2  1  0
 28  8  1  0
 26 13  1  0
 25 16  1  0
  1 29  1  0
  1 30  1  0
  1 31  1  0
  3 32  1  0
  4 33  1  0
  5 34  1  0
  6 35  1  0
  9 36  1  0
  9 37  1  0
 10 38  1  0
 10 39  1  0
 12 40  1  0
 12 41  1  0
 20 42  1  0
 20 43  1  0
 20 44  1  0
 24 45  1  0
 24 46  1  0
 24 47  1  0
 27 48  1  0
 27 49  1  0
 28 50  1  0
 28 51  1  0
M  END
>  <UniqueID>  (3) 
20

>  <SMILES>  (3) 
Cc1ccccc1N1CCN(Cc2nnc3c(=O)n(C)c(=O)n(C)c3n2)CC1

>  <Energy>  (3) 
77.21757867199318

>  <Genealogy>  (3) 
Cc1ccccc1N1CCN(Cc2nnc3c(=O)n(C)c(=O)n(C)c3n2)CC1 (3D coordinates assigned)
Cc1ccccc1N1CCN(Cc2nnc3c(=O)n(C)c(=O)n(C)c3n2)CC1 (nonaromatic ring conformer: 77.21757867199318 kcal/mol)

>  <smiles>  (3) 
Cc1ccccc1N1CCN(Cc2nnc3c(=O)n(C)c(=O)n(C)c3n2)CC1

>  <score_type>  (3) 
oracle

>  <origin>  (3) 
autodockgpu

>  <m_score__min__energy>  (3) 
-7.6600000000000001

>  <m_primary>  (3) 
energy

>  <meeko>  (3) 
{"free_energy": -6.83, "intermolecular_energy": -7.73, "internal_energy": -1.14, "cluster_size": 6, "cluster_id": 2, "rank_in_cluster": 5}

>  <energy>  (3) 
-7.65

>  <cluster_rmsd>  (3) 
0.06

>  <rmsd>  (3) 
269.5

>  <cluster>  (3) 
1

$$$$
IILOZLGKIKELDM-UHFFFAOYNA-N
     RDKit          3D

 51 54  0  0  0  0  0  0  0  0999 V2000
  141.2820   75.5620  221.6020 C   0  0  0  0  0  0  0  0  0  0  0  0
  140.4600   76.6960  222.1480 C   0  0  0  0  0  0  0  0  0  0  0  0
  141.0990   77.8300  222.6810 C   0  0  0  0  0  0  0  0  0  0  0  0
  140.3460   78.8990  223.1740 C   0  0  0  0  0  0  0  0  0  0  0  0
  138.9520   78.8530  223.1300 C   0  0  0  0  0  0  0  0  0  0  0  0
  138.3050   77.7380  222.5910 C   0  0  0  0  0  0  0  0  0  0  0  0
  139.0510   76.6600  222.0920 C   0  0  0  0  0  0  0  0  0  0  0  0
  138.3680   75.5290  221.5360 N   0  0  0  0  0  0  0  0  0  0  0  0
  138.4090   75.3230  220.0870 C   0  0  0  0  0  0  0  0  0  0  0  0
  137.5530   74.1150  219.6870 C   0  0  0  0  0  0  0  0  0  0  0  0
  137.7360   72.9790  220.6190 N   0  0  0  0  0  0  0  0  0  0  0  0
  139.0810   72.3650  220.5430 C   0  0  0  0  0  0  0  0  0  0  0  0
  139.5370   71.8710  221.8820 C   0  0  0  0  0  0  0  0  0  0  0  0
  140.2710   72.6730  222.6960 N   0  0  0  0  0  0  0  0  0  0  0  0
  140.6540   72.2540  223.9030 N   0  0  0  0  0  0  0  0  0  0  0  0
  140.3180   71.0170  224.3540 C   0  0  0  0  0  0  0  0  0  0  0  0
  140.6990   70.5720  225.6160 C   0  0  0  0  0  0  0  0  0  0  0  0
  141.3730   71.3350  226.3640 O   0  0  0  0  0  0  0  0  0  0  0  0
  140.3340   69.3210  226.0390 N   0  0  0  0  0  0  0  0  0  0  0  0
  140.7020   68.8670  227.3910 C   0  0  0  0  0  0  0  0  0  0  0  0
  139.5530   68.5230  225.2350 C   0  0  0  0  0  0  0  0  0  0  0  0
  139.1560   67.4020  225.6660 O   0  0  0  0  0  0  0  0  0  0  0  0
  139.1970   68.9320  223.9720 N   0  0  0  0  0  0  0  0  0  0  0  0
  138.3560   68.0710  223.1210 C   0  0  0  0  0  0  0  0  0  0  0  0
  139.5580   70.1770  223.5340 C   0  0  0  0  0  0  0  0  0  0  0  0
  139.1800   70.6320  222.3090 N   0  0  0  0  0  0  0  0  0  0  0  0
  137.3600   73.3150  222.0200 C   0  0  0  0  0  0  0  0  0  0  0  0
  137.3730   74.8230  222.3450 C   0  0  0  0  0  0  0  0  0  0  0  0
  141.7036   74.9804  222.4351 H   0  0  0  0  0  0  0  0  0  0  0  0
  140.6448   74.9108  220.9857 H   0  0  0  0  0  0  0  0  0  0  0  0
  142.0992   75.9650  220.9857 H   0  0  0  0  0  0  0  0  0  0  0  0
  142.1977   77.8756  222.7099 H   0  0  0  0  0  0  0  0  0  0  0  0
  140.8531   79.7785  223.5976 H   0  0  0  0  0  0  0  0  0  0  0  0
  138.3619   79.6954  223.5201 H   0  0  0  0  0  0  0  0  0  0  0  0
  137.2060   77.7054  222.5579 H   0  0  0  0  0  0  0  0  0  0  0  0
  138.0232   76.2216  219.5834 H   0  0  0  0  0  0  0  0  0  0  0  0
  139.4500   75.1342  219.7859 H   0  0  0  0  0  0  0  0  0  0  0  0
  136.4939   74.4120  219.6912 H   0  0  0  0  0  0  0  0  0  0  0  0
  137.8681   73.7893  218.6847 H   0  0  0  0  0  0  0  0  0  0  0  0
  139.0478   71.5179  219.8421 H   0  0  0  0  0  0  0  0  0  0  0  0
  139.7907   73.1316  220.1986 H   0  0  0  0  0  0  0  0  0  0  0  0
  140.1942   69.4935  228.1391 H   0  0  0  0  0  0  0  0  0  0  0  0
  140.3956   67.8187  227.5218 H   0  0  0  0  0  0  0  0  0  0  0  0
  141.7910   68.9498  227.5218 H   0  0  0  0  0  0  0  0  0  0  0  0
  137.7284   67.4285  223.7561 H   0  0  0  0  0  0  0  0  0  0  0  0
  137.7135   68.6986  222.4859 H   0  0  0  0  0  0  0  0  0  0  0  0
  138.9985   67.4434  222.4859 H   0  0  0  0  0  0  0  0  0  0  0  0
  136.3448   72.9333  222.2036 H   0  0  0  0  0  0  0  0  0  0  0  0
  138.1194   72.8505  222.6662 H   0  0  0  0  0  0  0  0  0  0  0  0
  136.3779   75.2435  222.1378 H   0  0  0  0  0  0  0  0  0  0  0  0
  137.6333   74.9489  223.4063 H   0  0  0  0  0  0  0  0  0  0  0  0
  1  2  1  0
  2  3  2  0
  3  4  1  0
  4  5  2  0
  5  6  1  0
  6  7  2  0
  7  8  1  0
  8  9  1  0
  9 10  1  0
 10 11  1  0
 11 12  1  0
 12 13  1  0
 13 14  2  0
 14 15  1  0
 15 16  2  0
 16 17  1  0
 17 18  2  0
 17 19  1  0
 19 20  1  0
 19 21  1  0
 21 22  2  0
 21 23  1  0
 23 24  1  0
 23 25  1  0
 25 26  2  0
 11 27  1  0
 27 28  1  0
  7  2  1  0
 28  8  1  0
 26 13  1  0
 25 16  1  0
  1 29  1  0
  1 30  1  0
  1 31  1  0
  3 32  1  0
  4 33  1  0
  5 34  1  0
  6 35  1  0
  9 36  1  0
  9 37  1  0
 10 38  1  0
 10 39  1  0
 12 40  1  0
 12 41  1  0
 20 42  1  0
 20 43  1  0
 20 44  1  0
 24 45  1  0
 24 46  1  0
 24 47  1  0
 27 48  1  0
 27 49  1  0
 28 50  1  0
 28 51  1  0
M  END
>  <UniqueID>  (4) 
20

>  <SMILES>  (4) 
Cc1ccccc1N1CCN(Cc2nnc3c(=O)n(C)c(=O)n(C)c3n2)CC1

>  <Energy>  (4) 
77.21757867199318

>  <Genealogy>  (4) 
Cc1ccccc1N1CCN(Cc2nnc3c(=O)n(C)c(=O)n(C)c3n2)CC1 (3D coordinates assigned)
Cc1ccccc1N1CCN(Cc2nnc3c(=O)n(C)c(=O)n(C)c3n2)CC1 (nonaromatic ring conformer: 77.21757867199318 kcal/mol)

>  <smiles>  (4) 
Cc1ccccc1N1CCN(Cc2nnc3c(=O)n(C)c(=O)n(C)c3n2)CC1

>  <score_type>  (4) 
oracle

>  <origin>  (4) 
autodockgpu

>  <m_score__min__energy>  (4) 
-7.6600000000000001

>  <m_primary>  (4) 
energy

>  <meeko>  (4) 
{"free_energy": -6.84, "intermolecular_energy": -7.73, "internal_energy": -1.14, "cluster_size": 6, "cluster_id": 2, "rank_in_cluster": 2}

>  <energy>  (4) 
-7.62

>  <cluster_rmsd>  (4) 
0.1

>  <rmsd>  (4) 
269.5

>  <cluster>  (4) 
1

$$$$
IILOZLGKIKELDM-UHFFFAOYNA-N
     RDKit          3D

 51 54  0  0  0  0  0  0  0  0999 V2000
  141.4360   80.0170  219.9630 C   0  0  0  0  0  0  0  0  0  0  0  0
  141.7070   79.8790  221.4350 C   0  0  0  0  0  0  0  0  0  0  0  0
  142.3590   80.9160  222.1260 C   0  0  0  0  0  0  0  0  0  0  0  0
  142.6000   80.8080  223.4990 C   0  0  0  0  0  0  0  0  0  0  0  0
  142.1840   79.6720  224.1950 C   0  0  0  0  0  0  0  0  0  0  0  0
  141.5250   78.6410  223.5230 C   0  0  0  0  0  0  0  0  0  0  0  0
  141.2760   78.7400  222.1460 C   0  0  0  0  0  0  0  0  0  0  0  0
  140.5900   77.6740  221.4770 N   0  0  0  0  0  0  0  0  0  0  0  0
  141.3620   76.7530  220.6410 C   0  0  0  0  0  0  0  0  0  0  0  0
  140.4370   75.7420  219.9520 C   0  0  0  0  0  0  0  0  0  0  0  0
  139.3920   75.2350  220.8710 N   0  0  0  0  0  0  0  0  0  0  0  0
  139.9260   74.3820  221.9570 C   0  0  0  0  0  0  0  0  0  0  0  0
  140.8830   73.3570  221.4310 C   0  0  0  0  0  0  0  0  0  0  0  0
  140.4720   72.0790  221.2190 N   0  0  0  0  0  0  0  0  0  0  0  0
  141.3070   71.1670  220.7210 N   0  0  0  0  0  0  0  0  0  0  0  0
  142.5900   71.4890  220.4060 C   0  0  0  0  0  0  0  0  0  0  0  0
  143.4680   70.5510  219.8720 C   0  0  0  0  0  0  0  0  0  0  0  0
  143.0660   69.3700  219.6730 O   0  0  0  0  0  0  0  0  0  0  0  0
  144.7510   70.9150  219.5600 N   0  0  0  0  0  0  0  0  0  0  0  0
  145.6680   69.9320  218.9570 C   0  0  0  0  0  0  0  0  0  0  0  0
  145.1580   72.2180  219.7320 C   0  0  0  0  0  0  0  0  0  0  0  0
  146.3190   72.5630  219.3680 O   0  0  0  0  0  0  0  0  0  0  0  0
  144.3160   73.1500  220.2900 N   0  0  0  0  0  0  0  0  0  0  0  0
  144.7590   74.5450  220.4640 C   0  0  0  0  0  0  0  0  0  0  0  0
  143.0320   72.7990  220.6110 C   0  0  0  0  0  0  0  0  0  0  0  0
  142.1570   73.7090  221.1190 N   0  0  0  0  0  0  0  0  0  0  0  0
  138.5150   76.3160  221.3990 C   0  0  0  0  0  0  0  0  0  0  0  0
  139.1330   77.7290  221.3470 C   0  0  0  0  0  0  0  0  0  0  0  0
  140.4648   80.5115  219.8137 H   0  0  0  0  0  0  0  0  0  0  0  0
  142.2300   80.6206  219.4990 H   0  0  0  0  0  0  0  0  0  0  0  0
  141.4149   79.0199  219.4990 H   0  0  0  0  0  0  0  0  0  0  0  0
  142.6811   81.8170  221.5833 H   0  0  0  0  0  0  0  0  0  0  0  0
  143.1181   81.6193  224.0313 H   0  0  0  0  0  0  0  0  0  0  0  0
  142.3758   79.5889  225.2750 H   0  0  0  0  0  0  0  0  0  0  0  0
  141.1996   77.7472  224.0755 H   0  0  0  0  0  0  0  0  0  0  0  0
  141.9032   77.3278  219.8750 H   0  0  0  0  0  0  0  0  0  0  0  0
  142.0713   76.2058  221.2793 H   0  0  0  0  0  0  0  0  0  0  0  0
  139.9505   76.2313  219.0953 H   0  0  0  0  0  0  0  0  0  0  0  0
  141.0481   74.8876  219.6256 H   0  0  0  0  0  0  0  0  0  0  0  0
  140.4490   75.0180  222.6864 H   0  0  0  0  0  0  0  0  0  0  0  0
  139.0827   73.8563  222.4287 H   0  0  0  0  0  0  0  0  0  0  0  0
  146.1857   69.3770  219.7532 H   0  0  0  0  0  0  0  0  0  0  0  0
  145.0947   69.2299  218.3338 H   0  0  0  0  0  0  0  0  0  0  0  0
  146.4082   70.4552  218.3338 H   0  0  0  0  0  0  0  0  0  0  0  0
  144.8321   74.7753  221.5371 H   0  0  0  0  0  0  0  0  0  0  0  0
  145.7438   74.6785  219.9924 H   0  0  0  0  0  0  0  0  0  0  0  0
  144.0317   75.2222  219.9924 H   0  0  0  0  0  0  0  0  0  0  0  0
  137.5879   76.3252  220.8070 H   0  0  0  0  0  0  0  0  0  0  0  0
  138.3466   76.0888  222.4620 H   0  0  0  0  0  0  0  0  0  0  0  0
  138.8759   78.1980  220.3858 H   0  0  0  0  0  0  0  0  0  0  0  0
  138.7302   78.3167  222.1851 H   0  0  0  0  0  0  0  0  0  0  0  0
  1  2  1  0
  2  3  2  0
  3  4  1  0
  4  5  2  0
  5  6  1  0
  6  7  2  0
  7  8  1  0
  8  9  1  0
  9 10  1  0
 10 11  1  0
 11 12  1  0
 12 13  1  0
 13 14  2  0
 14 15  1  0
 15 16  2  0
 16 17  1  0
 17 18  2  0
 17 19  1  0
 19 20  1  0
 19 21  1  0
 21 22  2  0
 21 23  1  0
 23 24  1  0
 23 25  1  0
 25 26  2  0
 11 27  1  0
 27 28  1  0
  7  2  1  0
 28  8  1  0
 26 13  1  0
 25 16  1  0
  1 29  1  0
  1 30  1  0
  1 31  1  0
  3 32  1  0
  4 33  1  0
  5 34  1  0
  6 35  1  0
  9 36  1  0
  9 37  1  0
 10 38  1  0
 10 39  1  0
 12 40  1  0
 12 41  1  0
 20 42  1  0
 20 43  1  0
 20 44  1  0
 24 45  1  0
 24 46  1  0
 24 47  1  0
 27 48  1  0
 27 49  1  0
 28 50  1  0
 28 51  1  0
M  END
>  <UniqueID>  (5) 
20

>  <SMILES>  (5) 
Cc1ccccc1N1CCN(Cc2nnc3c(=O)n(C)c(=O)n(C)c3n2)CC1

>  <Energy>  (5) 
77.21757867199318

>  <Genealogy>  (5) 
Cc1ccccc1N1CCN(Cc2nnc3c(=O)n(C)c(=O)n(C)c3n2)CC1 (3D coordinates assigned)
Cc1ccccc1N1CCN(Cc2nnc3c(=O)n(C)c(=O)n(C)c3n2)CC1 (nonaromatic ring conformer: 77.21757867199318 kcal/mol)

>  <smiles>  (5) 
Cc1ccccc1N1CCN(Cc2nnc3c(=O)n(C)c(=O)n(C)c3n2)CC1

>  <score_type>  (5) 
oracle

>  <origin>  (5) 
autodockgpu

>  <m_score__min__energy>  (5) 
-7.6600000000000001

>  <m_primary>  (5) 
energy

>  <meeko>  (5) 
{"free_energy": -6.66, "intermolecular_energy": -7.56, "internal_energy": -0.85, "cluster_size": 1, "cluster_id": 6, "rank_in_cluster": 1}

>  <energy>  (5) 
-7.58

>  <cluster_rmsd>  (5) 
0.17

>  <rmsd>  (5) 
269.5

>  <cluster>  (5) 
1

$$$$
IILOZLGKIKELDM-UHFFFAOYNA-N
     RDKit          3D

 51 54  0  0  0  0  0  0  0  0999 V2000
  141.4340   71.2160  225.7280 C   0  0  0  0  0  0  0  0  0  0  0  0
  140.7620   69.9270  226.1110 C   0  0  0  0  0  0  0  0  0  0  0  0
  141.0370   69.3380  227.3580 C   0  0  0  0  0  0  0  0  0  0  0  0
  140.4040   68.1500  227.7340 C   0  0  0  0  0  0  0  0  0  0  0  0
  139.4850   67.5450  226.8760 C   0  0  0  0  0  0  0  0  0  0  0  0
  139.1920   68.1270  225.6410 C   0  0  0  0  0  0  0  0  0  0  0  0
  139.8200   69.3200  225.2540 C   0  0  0  0  0  0  0  0  0  0  0  0
  139.4990   69.9050  223.9850 N   0  0  0  0  0  0  0  0  0  0  0  0
  139.1180   71.3170  223.9350 C   0  0  0  0  0  0  0  0  0  0  0  0
  138.7360   71.7250  222.5070 C   0  0  0  0  0  0  0  0  0  0  0  0
  139.6650   71.1560  221.5050 N   0  0  0  0  0  0  0  0  0  0  0  0
  141.0270   71.7320  221.5710 C   0  0  0  0  0  0  0  0  0  0  0  0
  140.9990   73.2260  221.4610 C   0  0  0  0  0  0  0  0  0  0  0  0
  140.2740   73.9660  222.3400 N   0  0  0  0  0  0  0  0  0  0  0  0
  140.2680   75.2970  222.2700 N   0  0  0  0  0  0  0  0  0  0  0  0
  140.9890   75.9520  221.3230 C   0  0  0  0  0  0  0  0  0  0  0  0
  141.0030   77.3410  221.2470 C   0  0  0  0  0  0  0  0  0  0  0  0
  140.3300   78.0130  222.0790 O   0  0  0  0  0  0  0  0  0  0  0  0
  141.7490   77.9660  220.2830 N   0  0  0  0  0  0  0  0  0  0  0  0
  141.7960   79.4380  220.2300 C   0  0  0  0  0  0  0  0  0  0  0  0
  142.5200   77.2230  219.4190 C   0  0  0  0  0  0  0  0  0  0  0  0
  143.2650   77.8120  218.5840 O   0  0  0  0  0  0  0  0  0  0  0  0
  142.4910   75.8490  219.4560 N   0  0  0  0  0  0  0  0  0  0  0  0
  143.3240   75.0620  218.5300 C   0  0  0  0  0  0  0  0  0  0  0  0
  141.7470   75.2110  220.4110 C   0  0  0  0  0  0  0  0  0  0  0  0
  141.7350   73.8540  220.5070 N   0  0  0  0  0  0  0  0  0  0  0  0
  139.6940   69.6680  221.5230 C   0  0  0  0  0  0  0  0  0  0  0  0
  139.2140   69.0320  222.8450 C   0  0  0  0  0  0  0  0  0  0  0  0
  141.7201   71.7647  226.6374 H   0  0  0  0  0  0  0  0  0  0  0  0
  142.3333   70.9981  225.1331 H   0  0  0  0  0  0  0  0  0  0  0  0
  140.7404   71.8285  225.1331 H   0  0  0  0  0  0  0  0  0  0  0  0
  141.7546   69.8151  228.0416 H   0  0  0  0  0  0  0  0  0  0  0  0
  140.6307   67.6913  228.7078 H   0  0  0  0  0  0  0  0  0  0  0  0
  138.9906   66.6083  227.1729 H   0  0  0  0  0  0  0  0  0  0  0  0
  138.4653   67.6477  224.9685 H   0  0  0  0  0  0  0  0  0  0  0  0
  138.2578   71.4827  224.6002 H   0  0  0  0  0  0  0  0  0  0  0  0
  139.9744   71.9261  224.2598 H   0  0  0  0  0  0  0  0  0  0  0  0
  137.7186   71.3649  222.2940 H   0  0  0  0  0  0  0  0  0  0  0  0
  138.7899   72.8216  222.4390 H   0  0  0  0  0  0  0  0  0  0  0  0
  141.4866   71.4531  222.5307 H   0  0  0  0  0  0  0  0  0  0  0  0
  141.6100   71.3353  220.7267 H   0  0  0  0  0  0  0  0  0  0  0  0
  141.8089   79.8415  221.2532 H   0  0  0  0  0  0  0  0  0  0  0  0
  142.7048   79.7569  219.6986 H   0  0  0  0  0  0  0  0  0  0  0  0
  140.9094   79.8143  219.6986 H   0  0  0  0  0  0  0  0  0  0  0  0
  144.0051   74.4185  219.1062 H   0  0  0  0  0  0  0  0  0  0  0  0
  142.6776   74.4371  217.8962 H   0  0  0  0  0  0  0  0  0  0  0  0
  143.9112   75.7428  217.8962 H   0  0  0  0  0  0  0  0  0  0  0  0
  139.0474   69.3024  220.7117 H   0  0  0  0  0  0  0  0  0  0  0  0
  140.7472   69.3752  221.4005 H   0  0  0  0  0  0  0  0  0  0  0  0
  138.1292   68.8594  222.7873 H   0  0  0  0  0  0  0  0  0  0  0  0
  139.7499   68.0824  222.9902 H   0  0  0  0  0  0  0  0  0  0  0  0
  1  2  1  0
  2  3  2  0
  3  4  1  0
  4  5  2  0
  5  6  1  0
  6  7  2  0
  7  8  1  0
  8  9  1  0
  9 10  1  0
 10 11  1  0
 11 12  1  0
 12 13  1  0
 13 14  2  0
 14 15  1  0
 15 16  2  0
 16 17  1  0
 17 18  2  0
 17 19  1  0
 19 20  1  0
 19 21  1  0
 21 22  2  0
 21 23  1  0
 23 24  1  0
 23 25  1  0
 25 26  2  0
 11 27  1  0
 27 28  1  0
  7  2  1  0
 28  8  1  0
 26 13  1  0
 25 16  1  0
  1 29  1  0
  1 30  1  0
  1 31  1  0
  3 32  1  0
  4 33  1  0
  5 34  1  0
  6 35  1  0
  9 36  1  0
  9 37  1  0
 10 38  1  0
 10 39  1  0
 12 40  1  0
 12 41  1  0
 20 42  1  0
 20 43  1  0
 20 44  1  0
 24 45  1  0
 24 46  1  0
 24 47  1  0
 27 48  1  0
 27 49  1  0
 28 50  1  0
 28 51  1  0
M  END
>  <UniqueID>  (6) 
20

>  <SMILES>  (6) 
Cc1ccccc1N1CCN(Cc2nnc3c(=O)n(C)c(=O)n(C)c3n2)CC1

>  <Energy>  (6) 
77.21757867199318

>  <Genealogy>  (6) 
Cc1ccccc1N1CCN(Cc2nnc3c(=O)n(C)c(=O)n(C)c3n2)CC1 (3D coordinates assigned)
Cc1ccccc1N1CCN(Cc2nnc3c(=O)n(C)c(=O)n(C)c3n2)CC1 (nonaromatic ring conformer: 77.21757867199318 kcal/mol)

>  <smiles>  (6) 
Cc1ccccc1N1CCN(Cc2nnc3c(=O)n(C)c(=O)n(C)c3n2)CC1

>  <score_type>  (6) 
oracle

>  <origin>  (6) 
autodockgpu

>  <m_score__min__energy>  (6) 
-7.6600000000000001

>  <m_primary>  (6) 
energy

>  <meeko>  (6) 
{"free_energy": -7.62, "intermolecular_energy": -8.52, "internal_energy": -0.44, "cluster_size": 5, "cluster_id": 1, "rank_in_cluster": 4}

>  <energy>  (6) 
-7.55

>  <cluster_rmsd>  (6) 
0.0

>  <rmsd>  (6) 
270.19

>  <cluster>  (6) 
2

$$$$
IILOZLGKIKELDM-UHFFFAOYNA-N
     RDKit          3D

 51 54  0  0  0  0  0  0  0  0999 V2000
  141.2340   75.4510  221.5940 C   0  0  0  0  0  0  0  0  0  0  0  0
  140.4370   76.6000  222.1450 C   0  0  0  0  0  0  0  0  0  0  0  0
  141.1000   77.7180  222.6810 C   0  0  0  0  0  0  0  0  0  0  0  0
  140.3690   78.8010  223.1780 C   0  0  0  0  0  0  0  0  0  0  0  0
  138.9750   78.7830  223.1380 C   0  0  0  0  0  0  0  0  0  0  0  0
  138.3050   77.6840  222.5970 C   0  0  0  0  0  0  0  0  0  0  0  0
  139.0270   76.5920  222.0920 C   0  0  0  0  0  0  0  0  0  0  0  0
  138.3200   75.4780  221.5340 N   0  0  0  0  0  0  0  0  0  0  0  0
  138.3590   75.2710  220.0850 C   0  0  0  0  0  0  0  0  0  0  0  0
  137.4770   74.0830  219.6830 C   0  0  0  0  0  0  0  0  0  0  0  0
  137.6320   72.9420  220.6140 N   0  0  0  0  0  0  0  0  0  0  0  0
  138.9640   72.2990  220.5410 C   0  0  0  0  0  0  0  0  0  0  0  0
  139.4240   71.8320  221.8880 C   0  0  0  0  0  0  0  0  0  0  0  0
  140.1170   72.6670  222.7050 N   0  0  0  0  0  0  0  0  0  0  0  0
  140.5030   72.2720  223.9180 N   0  0  0  0  0  0  0  0  0  0  0  0
  140.2100   71.0250  224.3740 C   0  0  0  0  0  0  0  0  0  0  0  0
  140.5950   70.6040  225.6440 C   0  0  0  0  0  0  0  0  0  0  0  0
  141.2310   71.3980  226.3930 O   0  0  0  0  0  0  0  0  0  0  0  0
  140.2740   69.3430  226.0720 N   0  0  0  0  0  0  0  0  0  0  0  0
  140.6460   68.9120  227.4310 C   0  0  0  0  0  0  0  0  0  0  0  0
  139.5350   68.5090  225.2650 C   0  0  0  0  0  0  0  0  0  0  0  0
  139.1770   67.3760  225.7000 O   0  0  0  0  0  0  0  0  0  0  0  0
  139.1760   68.8950  223.9960 N   0  0  0  0  0  0  0  0  0  0  0  0
  138.3790   67.9970  223.1420 C   0  0  0  0  0  0  0  0  0  0  0  0
  139.4940   70.1510  223.5530 C   0  0  0  0  0  0  0  0  0  0  0  0
  139.1110   70.5830  222.3200 N   0  0  0  0  0  0  0  0  0  0  0  0
  137.2620   73.2860  222.0140 C   0  0  0  0  0  0  0  0  0  0  0  0
  137.3080   74.7940  222.3400 C   0  0  0  0  0  0  0  0  0  0  0  0
  141.6451   74.8583  222.4245 H   0  0  0  0  0  0  0  0  0  0  0  0
  140.5821   74.8150  220.9771 H   0  0  0  0  0  0  0  0  0  0  0  0
  142.0581   75.8388  220.9771 H   0  0  0  0  0  0  0  0  0  0  0  0
  142.1994   77.7406  222.7094 H   0  0  0  0  0  0  0  0  0  0  0  0
  140.8945   79.6695  223.6016 H   0  0  0  0  0  0  0  0  0  0  0  0
  138.4029   79.6354  223.5330 H   0  0  0  0  0  0  0  0  0  0  0  0
  137.2055   77.6742  222.5665 H   0  0  0  0  0  0  0  0  0  0  0  0
  137.9945   76.1782  219.5808 H   0  0  0  0  0  0  0  0  0  0  0  0
  139.3960   75.0585  219.7860 H   0  0  0  0  0  0  0  0  0  0  0  0
  136.4249   74.4040  219.6855 H   0  0  0  0  0  0  0  0  0  0  0  0
  137.7872   73.7509  218.6812 H   0  0  0  0  0  0  0  0  0  0  0  0
  138.9066   71.4343  219.8635 H   0  0  0  0  0  0  0  0  0  0  0  0
  139.6852   73.0415  220.1689 H   0  0  0  0  0  0  0  0  0  0  0  0
  140.1136   69.5289  228.1699 H   0  0  0  0  0  0  0  0  0  0  0  0
  140.3711   67.8558  227.5688 H   0  0  0  0  0  0  0  0  0  0  0  0
  141.7310   69.0295  227.5688 H   0  0  0  0  0  0  0  0  0  0  0  0
  137.7816   67.3240  223.7746 H   0  0  0  0  0  0  0  0  0  0  0  0
  137.7084   68.5945  222.5069 H   0  0  0  0  0  0  0  0  0  0  0  0
  139.0519   67.4021  222.5069 H   0  0  0  0  0  0  0  0  0  0  0  0
  136.2384   72.9269  222.1962 H   0  0  0  0  0  0  0  0  0  0  0  0
  138.0103   72.8048  222.6609 H   0  0  0  0  0  0  0  0  0  0  0  0
  136.3230   75.2367  222.1308 H   0  0  0  0  0  0  0  0  0  0  0  0
  137.5687   74.9135  223.4020 H   0  0  0  0  0  0  0  0  0  0  0  0
  1  2  1  0
  2  3  2  0
  3  4  1  0
  4  5  2  0
  5  6  1  0
  6  7  2  0
  7  8  1  0
  8  9  1  0
  9 10  1  0
 10 11  1  0
 11 12  1  0
 12 13  1  0
 13 14  2  0
 14 15  1  0
 15 16  2  0
 16 17  1  0
 17 18  2  0
 17 19  1  0
 19 20  1  0
 19 21  1  0
 21 22  2  0
 21 23  1  0
 23 24  1  0
 23 25  1  0
 25 26  2  0
 11 27  1  0
 27 28  1  0
  7  2  1  0
 28  8  1  0
 26 13  1  0
 25 16  1  0
  1 29  1  0
  1 30  1  0
  1 31  1  0
  3 32  1  0
  4 33  1  0
  5 34  1  0
  6 35  1  0
  9 36  1  0
  9 37  1  0
 10 38  1  0
 10 39  1  0
 12 40  1  0
 12 41  1  0
 20 42  1  0
 20 43  1  0
 20 44  1  0
 24 45  1  0
 24 46  1  0
 24 47  1  0
 27 48  1  0
 27 49  1  0
 28 50  1  0
 28 51  1  0
M  END
>  <UniqueID>  (7) 
20

>  <SMILES>  (7) 
Cc1ccccc1N1CCN(Cc2nnc3c(=O)n(C)c(=O)n(C)c3n2)CC1

>  <Energy>  (7) 
77.21757867199318

>  <Genealogy>  (7) 
Cc1ccccc1N1CCN(Cc2nnc3c(=O)n(C)c(=O)n(C)c3n2)CC1 (3D coordinates assigned)
Cc1ccccc1N1CCN(Cc2nnc3c(=O)n(C)c(=O)n(C)c3n2)CC1 (nonaromatic ring conformer: 77.21757867199318 kcal/mol)

>  <smiles>  (7) 
Cc1ccccc1N1CCN(Cc2nnc3c(=O)n(C)c(=O)n(C)c3n2)CC1

>  <score_type>  (7) 
oracle

>  <origin>  (7) 
autodockgpu

>  <m_score__min__energy>  (7) 
-7.6600000000000001

>  <m_primary>  (7) 
energy

>  <meeko>  (7) 
{"free_energy": -6.82, "intermolecular_energy": -7.71, "internal_energy": -1.14, "cluster_size": 6, "cluster_id": 2, "rank_in_cluster": 6}

>  <energy>  (7) 
-6.84

>  <cluster_rmsd>  (7) 
1.92

>  <rmsd>  (7) 
269.24

>  <cluster>  (7) 
2

$$$$
IILOZLGKIKELDM-UHFFFAOYNA-N
     RDKit          3D

 51 54  0  0  0  0  0  0  0  0999 V2000
  141.4320   71.2060  225.7350 C   0  0  0  0  0  0  0  0  0  0  0  0
  140.7620   69.9190  226.1300 C   0  0  0  0  0  0  0  0  0  0  0  0
  141.0420   69.3410  227.3800 C   0  0  0  0  0  0  0  0  0  0  0  0
  140.4120   68.1540  227.7670 C   0  0  0  0  0  0  0  0  0  0  0  0
  139.4910   67.5410  226.9170 C   0  0  0  0  0  0  0  0  0  0  0  0
  139.1950   68.1130  225.6770 C   0  0  0  0  0  0  0  0  0  0  0  0
  139.8190   69.3040  225.2800 C   0  0  0  0  0  0  0  0  0  0  0  0
  139.4940   69.8780  224.0070 N   0  0  0  0  0  0  0  0  0  0  0  0
  139.1210   71.2920  223.9460 C   0  0  0  0  0  0  0  0  0  0  0  0
  138.7320   71.6890  222.5170 C   0  0  0  0  0  0  0  0  0  0  0  0
  139.6530   71.1050  221.5140 N   0  0  0  0  0  0  0  0  0  0  0  0
  141.0180   71.6740  221.5660 C   0  0  0  0  0  0  0  0  0  0  0  0
  140.9960   73.1680  221.4590 C   0  0  0  0  0  0  0  0  0  0  0  0
  140.2730   73.9090  222.3380 N   0  0  0  0  0  0  0  0  0  0  0  0
  140.2730   75.2410  222.2710 N   0  0  0  0  0  0  0  0  0  0  0  0
  140.9990   75.8940  221.3260 C   0  0  0  0  0  0  0  0  0  0  0  0
  141.0190   77.2840  221.2530 C   0  0  0  0  0  0  0  0  0  0  0  0
  140.3470   77.9570  222.0850 O   0  0  0  0  0  0  0  0  0  0  0  0
  141.7690   77.9070  220.2910 N   0  0  0  0  0  0  0  0  0  0  0  0
  141.8220   79.3780  220.2410 C   0  0  0  0  0  0  0  0  0  0  0  0
  142.5380   77.1620  219.4270 C   0  0  0  0  0  0  0  0  0  0  0  0
  143.2870   77.7490  218.5940 O   0  0  0  0  0  0  0  0  0  0  0  0
  142.5040   75.7890  219.4620 N   0  0  0  0  0  0  0  0  0  0  0  0
  143.3350   74.9990  218.5350 C   0  0  0  0  0  0  0  0  0  0  0  0
  141.7540   75.1520  220.4140 C   0  0  0  0  0  0  0  0  0  0  0  0
  141.7370   73.7940  220.5080 N   0  0  0  0  0  0  0  0  0  0  0  0
  139.6730   69.6170  221.5470 C   0  0  0  0  0  0  0  0  0  0  0  0
  139.1980   68.9960  222.8770 C   0  0  0  0  0  0  0  0  0  0  0  0
  141.7212   71.7614  226.6394 H   0  0  0  0  0  0  0  0  0  0  0  0
  142.3291   70.9843  225.1383 H   0  0  0  0  0  0  0  0  0  0  0  0
  140.7358   71.8137  225.1383 H   0  0  0  0  0  0  0  0  0  0  0  0
  141.7607   69.8249  228.0577 H   0  0  0  0  0  0  0  0  0  0  0  0
  140.6430   67.7028  228.7433 H   0  0  0  0  0  0  0  0  0  0  0  0
  138.9975   66.6068  227.2232 H   0  0  0  0  0  0  0  0  0  0  0  0
  138.4689   67.6265  225.0091 H   0  0  0  0  0  0  0  0  0  0  0  0
  138.2662   71.4691  224.6153 H   0  0  0  0  0  0  0  0  0  0  0  0
  139.9833   71.8989  224.2592 H   0  0  0  0  0  0  0  0  0  0  0  0
  137.7115   71.3324  222.3136 H   0  0  0  0  0  0  0  0  0  0  0  0
  138.7908   72.7846  222.4384 H   0  0  0  0  0  0  0  0  0  0  0  0
  141.4868   71.3911  222.5200 H   0  0  0  0  0  0  0  0  0  0  0  0
  141.5898   71.2760  220.7147 H   0  0  0  0  0  0  0  0  0  0  0  0
  141.8365   79.7794  221.2650 H   0  0  0  0  0  0  0  0  0  0  0  0
  142.7321   79.6943  219.7103 H   0  0  0  0  0  0  0  0  0  0  0  0
  140.9370   79.7590  219.7103 H   0  0  0  0  0  0  0  0  0  0  0  0
  144.0142   74.3533  219.1110 H   0  0  0  0  0  0  0  0  0  0  0  0
  142.6866   74.3762  217.9012 H   0  0  0  0  0  0  0  0  0  0  0  0
  143.9242   75.6781  217.9012 H   0  0  0  0  0  0  0  0  0  0  0  0
  139.0191   69.2475  220.7433 H   0  0  0  0  0  0  0  0  0  0  0  0
  140.7239   69.3172  221.4216 H   0  0  0  0  0  0  0  0  0  0  0  0
  138.1120   68.8283  222.8273 H   0  0  0  0  0  0  0  0  0  0  0  0
  139.7301   68.0452  223.0278 H   0  0  0  0  0  0  0  0  0  0  0  0
  1  2  1  0
  2  3  2  0
  3  4  1  0
  4  5  2  0
  5  6  1  0
  6  7  2  0
  7  8  1  0
  8  9  1  0
  9 10  1  0
 10 11  1  0
 11 12  1  0
 12 13  1  0
 13 14  2  0
 14 15  1  0
 15 16  2  0
 16 17  1  0
 17 18  2  0
 17 19  1  0
 19 20  1  0
 19 21  1  0
 21 22  2  0
 21 23  1  0
 23 24  1  0
 23 25  1  0
 25 26  2  0
 11 27  1  0
 27 28  1  0
  7  2  1  0
 28  8  1  0
 26 13  1  0
 25 16  1  0
  1 29  1  0
  1 30  1  0
  1 31  1  0
  3 32  1  0
  4 33  1  0
  5 34  1  0
  6 35  1  0
  9 36  1  0
  9 37  1  0
 10 38  1  0
 10 39  1  0
 12 40  1  0
 12 41  1  0
 20 42  1  0
 20 43  1  0
 20 44  1  0
 24 45  1  0
 24 46  1  0
 24 47  1  0
 27 48  1  0
 27 49  1  0
 28 50  1  0
 28 51  1  0
M  END
>  <UniqueID>  (8) 
20

>  <SMILES>  (8) 
Cc1ccccc1N1CCN(Cc2nnc3c(=O)n(C)c(=O)n(C)c3n2)CC1

>  <Energy>  (8) 
77.21757867199318

>  <Genealogy>  (8) 
Cc1ccccc1N1CCN(Cc2nnc3c(=O)n(C)c(=O)n(C)c3n2)CC1 (3D coordinates assigned)
Cc1ccccc1N1CCN(Cc2nnc3c(=O)n(C)c(=O)n(C)c3n2)CC1 (nonaromatic ring conformer: 77.21757867199318 kcal/mol)

>  <smiles>  (8) 
Cc1ccccc1N1CCN(Cc2nnc3c(=O)n(C)c(=O)n(C)c3n2)CC1

>  <score_type>  (8) 
oracle

>  <origin>  (8) 
autodockgpu

>  <m_score__min__energy>  (8) 
-7.6600000000000001

>  <m_primary>  (8) 
energy

>  <meeko>  (8) 
{"free_energy": -7.65, "intermolecular_energy": -8.54, "internal_energy": -0.42, "cluster_size": 5, "cluster_id": 1, "rank_in_cluster": 3}

>  <energy>  (8) 
-6.84

>  <cluster_rmsd>  (8) 
1.92

>  <rmsd>  (8) 
269.24

>  <cluster>  (8) 
2

$$$$
IILOZLGKIKELDM-UHFFFAOYNA-N
     RDKit          3D

 51 54  0  0  0  0  0  0  0  0999 V2000
  142.0120   79.0250  219.1070 C   0  0  0  0  0  0  0  0  0  0  0  0
  141.8120   80.5120  219.1850 C   0  0  0  0  0  0  0  0  0  0  0  0
  142.1450   81.3220  218.0840 C   0  0  0  0  0  0  0  0  0  0  0  0
  141.9450   82.7040  218.1370 C   0  0  0  0  0  0  0  0  0  0  0  0
  141.4030   83.2900  219.2820 C   0  0  0  0  0  0  0  0  0  0  0  0
  141.0560   82.4950  220.3770 C   0  0  0  0  0  0  0  0  0  0  0  0
  141.2500   81.1070  220.3340 C   0  0  0  0  0  0  0  0  0  0  0  0
  140.8790   80.3100  221.4660 N   0  0  0  0  0  0  0  0  0  0  0  0
  139.5210   80.4280  221.9970 C   0  0  0  0  0  0  0  0  0  0  0  0
  139.3510   79.5600  223.2500 C   0  0  0  0  0  0  0  0  0  0  0  0
  139.9890   78.2330  223.0910 N   0  0  0  0  0  0  0  0  0  0  0  0
  139.3110   77.3690  222.0980 C   0  0  0  0  0  0  0  0  0  0  0  0
  140.0650   76.0950  221.8710 C   0  0  0  0  0  0  0  0  0  0  0  0
  139.5840   74.9180  222.3490 N   0  0  0  0  0  0  0  0  0  0  0  0
  140.2310   73.7740  222.1250 N   0  0  0  0  0  0  0  0  0  0  0  0
  141.3860   73.7510  221.4090 C   0  0  0  0  0  0  0  0  0  0  0  0
  142.0650   72.5630  221.1560 C   0  0  0  0  0  0  0  0  0  0  0  0
  141.5970   71.4760  221.6000 O   0  0  0  0  0  0  0  0  0  0  0  0
  143.2220   72.5790  220.4230 N   0  0  0  0  0  0  0  0  0  0  0  0
  143.9170   71.3160  220.1200 C   0  0  0  0  0  0  0  0  0  0  0  0
  143.6890   73.7620  219.8990 C   0  0  0  0  0  0  0  0  0  0  0  0
  144.7150   73.7560  219.1590 O   0  0  0  0  0  0  0  0  0  0  0  0
  143.0520   74.9500  220.1680 N   0  0  0  0  0  0  0  0  0  0  0  0
  143.5570   76.2120  219.5980 C   0  0  0  0  0  0  0  0  0  0  0  0
  141.8970   74.9500  220.9030 C   0  0  0  0  0  0  0  0  0  0  0  0
  141.2140   76.1020  221.1460 N   0  0  0  0  0  0  0  0  0  0  0  0
  141.4530   78.3230  222.8360 C   0  0  0  0  0  0  0  0  0  0  0  0
  141.9250   79.6800  222.2720 C   0  0  0  0  0  0  0  0  0  0  0  0
  142.0680   78.6087  220.1237 H   0  0  0  0  0  0  0  0  0  0  0  0
  141.1671   78.5691  218.5701 H   0  0  0  0  0  0  0  0  0  0  0  0
  142.9473   78.8085  218.5701 H   0  0  0  0  0  0  0  0  0  0  0  0
  142.5653   80.8648  217.1761 H   0  0  0  0  0  0  0  0  0  0  0  0
  142.2152   83.3312  217.2747 H   0  0  0  0  0  0  0  0  0  0  0  0
  141.2490   84.3784  219.3221 H   0  0  0  0  0  0  0  0  0  0  0  0
  140.6284   82.9602  221.2774 H   0  0  0  0  0  0  0  0  0  0  0  0
  139.3249   81.4788  222.2564 H   0  0  0  0  0  0  0  0  0  0  0  0
  138.8107   80.0850  221.2303 H   0  0  0  0  0  0  0  0  0  0  0  0
  139.8111   80.0760  224.1056 H   0  0  0  0  0  0  0  0  0  0  0  0
  138.2746   79.4042  223.4143 H   0  0  0  0  0  0  0  0  0  0  0  0
  138.3026   77.1267  222.4648 H   0  0  0  0  0  0  0  0  0  0  0  0
  139.2610   77.9144  221.1440 H   0  0  0  0  0  0  0  0  0  0  0  0
  144.1928   70.8147  221.0595 H   0  0  0  0  0  0  0  0  0  0  0  0
  143.2517   70.6621  219.5371 H   0  0  0  0  0  0  0  0  0  0  0  0
  144.8255   71.5281  219.5371 H   0  0  0  0  0  0  0  0  0  0  0  0
  143.8316   76.8983  220.4126 H   0  0  0  0  0  0  0  0  0  0  0  0
  144.4420   76.0061  218.9780 H   0  0  0  0  0  0  0  0  0  0  0  0
  142.7743   76.6734  218.9780 H   0  0  0  0  0  0  0  0  0  0  0  0
  141.9783   78.1449  223.7859 H   0  0  0  0  0  0  0  0  0  0  0  0
  141.6825   77.5696  222.0681 H   0  0  0  0  0  0  0  0  0  0  0  0
  142.1836   80.3459  223.1085 H   0  0  0  0  0  0  0  0  0  0  0  0
  142.8014   79.5051  221.6307 H   0  0  0  0  0  0  0  0  0  0  0  0
  1  2  1  0
  2  3  2  0
  3  4  1  0
  4  5  2  0
  5  6  1  0
  6  7  2  0
  7  8  1  0
  8  9  1  0
  9 10  1  0
 10 11  1  0
 11 12  1  0
 12 13  1  0
 13 14  2  0
 14 15  1  0
 15 16  2  0
 16 17  1  0
 17 18  2  0
 17 19  1  0
 19 20  1  0
 19 21  1  0
 21 22  2  0
 21 23  1  0
 23 24  1  0
 23 25  1  0
 25 26  2  0
 11 27  1  0
 27 28  1  0
  7  2  1  0
 28  8  1  0
 26 13  1  0
 25 16  1  0
  1 29  1  0
  1 30  1  0
  1 31  1  0
  3 32  1  0
  4 33  1  0
  5 34  1  0
  6 35  1  0
  9 36  1  0
  9 37  1  0
 10 38  1  0
 10 39  1  0
 12 40  1  0
 12 41  1  0
 20 42  1  0
 20 43  1  0
 20 44  1  0
 24 45  1  0
 24 46  1  0
 24 47  1  0
 27 48  1  0
 27 49  1  0
 28 50  1  0
 28 51  1  0
M  END
>  <UniqueID>  (9) 
20

>  <SMILES>  (9) 
Cc1ccccc1N1CCN(Cc2nnc3c(=O)n(C)c(=O)n(C)c3n2)CC1

>  <Energy>  (9) 
77.21757867199318

>  <Genealogy>  (9) 
Cc1ccccc1N1CCN(Cc2nnc3c(=O)n(C)c(=O)n(C)c3n2)CC1 (3D coordinates assigned)
Cc1ccccc1N1CCN(Cc2nnc3c(=O)n(C)c(=O)n(C)c3n2)CC1 (nonaromatic ring conformer: 77.21757867199318 kcal/mol)

>  <smiles>  (9) 
Cc1ccccc1N1CCN(Cc2nnc3c(=O)n(C)c(=O)n(C)c3n2)CC1

>  <score_type>  (9) 
oracle

>  <origin>  (9) 
autodockgpu

>  <m_score__min__energy>  (9) 
-7.6600000000000001

>  <m_primary>  (9) 
energy

>  <meeko>  (9) 
{"free_energy": -6.65, "intermolecular_energy": -7.54, "internal_energy": -0.92, "cluster_size": 3, "cluster_id": 5, "rank_in_cluster": 3}

>  <energy>  (9) 
-6.84

>  <cluster_rmsd>  (9) 
1.93

>  <rmsd>  (9) 
269.22

>  <cluster>  (9) 
2

$$$$
IILOZLGKIKELDM-UHFFFAOYNA-N
     RDKit          3D

 51 54  0  0  0  0  0  0  0  0999 V2000
  141.8220   79.7940  219.2710 C   0  0  0  0  0  0  0  0  0  0  0  0
  141.4540   81.2250  219.5450 C   0  0  0  0  0  0  0  0  0  0  0  0
  141.6570   82.2020  218.5540 C   0  0  0  0  0  0  0  0  0  0  0  0
  141.3010   83.5330  218.7900 C   0  0  0  0  0  0  0  0  0  0  0  0
  140.7310   83.9000  220.0100 C   0  0  0  0  0  0  0  0  0  0  0  0
  140.5130   82.9370  220.9980 C   0  0  0  0  0  0  0  0  0  0  0  0
  140.8640   81.5980  220.7720 C   0  0  0  0  0  0  0  0  0  0  0  0
  140.6240   80.6240  221.7960 N   0  0  0  0  0  0  0  0  0  0  0  0
  139.2820   80.5250  222.3730 C   0  0  0  0  0  0  0  0  0  0  0  0
  139.2540   79.4880  223.5020 C   0  0  0  0  0  0  0  0  0  0  0  0
  140.0200   78.2700  223.1510 N   0  0  0  0  0  0  0  0  0  0  0  0
  139.3960   77.4740  222.0690 C   0  0  0  0  0  0  0  0  0  0  0  0
  140.1250   76.1850  221.8440 C   0  0  0  0  0  0  0  0  0  0  0  0
  139.6210   75.0180  222.3260 N   0  0  0  0  0  0  0  0  0  0  0  0
  140.2450   73.8620  222.1040 N   0  0  0  0  0  0  0  0  0  0  0  0
  141.3980   73.8140  221.3860 C   0  0  0  0  0  0  0  0  0  0  0  0
  142.0530   72.6130  221.1340 C   0  0  0  0  0  0  0  0  0  0  0  0
  141.5650   71.5370  221.5820 O   0  0  0  0  0  0  0  0  0  0  0  0
  143.2080   72.6040  220.3990 N   0  0  0  0  0  0  0  0  0  0  0  0
  143.8780   71.3270  220.0990 C   0  0  0  0  0  0  0  0  0  0  0  0
  143.6980   73.7770  219.8720 C   0  0  0  0  0  0  0  0  0  0  0  0
  144.7220   73.7480  219.1300 O   0  0  0  0  0  0  0  0  0  0  0  0
  143.0850   74.9770  220.1390 N   0  0  0  0  0  0  0  0  0  0  0  0
  143.6130   76.2280  219.5650 C   0  0  0  0  0  0  0  0  0  0  0  0
  141.9310   75.0020  220.8760 C   0  0  0  0  0  0  0  0  0  0  0  0
  141.2720   76.1670  221.1170 N   0  0  0  0  0  0  0  0  0  0  0  0
  141.4550   78.5500  222.8730 C   0  0  0  0  0  0  0  0  0  0  0  0
  141.7610   80.0120  222.4840 C   0  0  0  0  0  0  0  0  0  0  0  0
  141.9589   79.2617  220.2238 H   0  0  0  0  0  0  0  0  0  0  0  0
  141.0184   79.3127  218.6943 H   0  0  0  0  0  0  0  0  0  0  0  0
  142.7581   79.7601  218.6943 H   0  0  0  0  0  0  0  0  0  0  0  0
  142.0985   81.9171  217.5876 H   0  0  0  0  0  0  0  0  0  0  0  0
  141.4704   84.2926  218.0127 H   0  0  0  0  0  0  0  0  0  0  0  0
  140.4532   84.9484  220.1936 H   0  0  0  0  0  0  0  0  0  0  0  0
  140.0637   83.2303  221.9583 H   0  0  0  0  0  0  0  0  0  0  0  0
  138.9886   81.5057  222.7758 H   0  0  0  0  0  0  0  0  0  0  0  0
  138.5804   80.2109  221.5861 H   0  0  0  0  0  0  0  0  0  0  0  0
  139.6916   79.9351  224.4067 H   0  0  0  0  0  0  0  0  0  0  0  0
  138.2071   79.1959  223.6712 H   0  0  0  0  0  0  0  0  0  0  0  0
  138.3543   77.2520  222.3441 H   0  0  0  0  0  0  0  0  0  0  0  0
  139.4396   78.0613  221.1400 H   0  0  0  0  0  0  0  0  0  0  0  0
  144.1429   70.8221  221.0397 H   0  0  0  0  0  0  0  0  0  0  0  0
  143.2004   70.6854  219.5166 H   0  0  0  0  0  0  0  0  0  0  0  0
  144.7910   71.5199  219.5166 H   0  0  0  0  0  0  0  0  0  0  0  0
  143.9014   76.9112  220.3775 H   0  0  0  0  0  0  0  0  0  0  0  0
  144.4933   76.0039  218.9446 H   0  0  0  0  0  0  0  0  0  0  0  0
  142.8384   76.7024  218.9446 H   0  0  0  0  0  0  0  0  0  0  0  0
  142.0332   78.3073  223.7767 H   0  0  0  0  0  0  0  0  0  0  0  0
  141.7306   77.9325  222.0054 H   0  0  0  0  0  0  0  0  0  0  0  0
  141.9814   80.5874  223.3952 H   0  0  0  0  0  0  0  0  0  0  0  0
  142.6253   80.0185  221.8035 H   0  0  0  0  0  0  0  0  0  0  0  0
  1  2  1  0
  2  3  2  0
  3  4  1  0
  4  5  2  0
  5  6  1  0
  6  7  2  0
  7  8  1  0
  8  9  1  0
  9 10  1  0
 10 11  1  0
 11 12  1  0
 12 13  1  0
 13 14  2  0
 14 15  1  0
 15 16  2  0
 16 17  1  0
 17 18  2  0
 17 19  1  0
 19 20  1  0
 19 21  1  0
 21 22  2  0
 21 23  1  0
 23 24  1  0
 23 25  1  0
 25 26  2  0
 11 27  1  0
 27 28  1  0
  7  2  1  0
 28  8  1  0
 26 13  1  0
 25 16  1  0
  1 29  1  0
  1 30  1  0
  1 31  1  0
  3 32  1  0
  4 33  1  0
  5 34  1  0
  6 35  1  0
  9 36  1  0
  9 37  1  0
 10 38  1  0
 10 39  1  0
 12 40  1  0
 12 41  1  0
 20 42  1  0
 20 43  1  0
 20 44  1  0
 24 45  1  0
 24 46  1  0
 24 47  1  0
 27 48  1  0
 27 49  1  0
 28 50  1  0
 28 51  1  0
M  END
>  <UniqueID>  (10) 
20

>  <SMILES>  (10) 
Cc1ccccc1N1CCN(Cc2nnc3c(=O)n(C)c(=O)n(C)c3n2)CC1

>  <Energy>  (10) 
77.21757867199318

>  <Genealogy>  (10) 
Cc1ccccc1N1CCN(Cc2nnc3c(=O)n(C)c(=O)n(C)c3n2)CC1 (3D coordinates assigned)
Cc1ccccc1N1CCN(Cc2nnc3c(=O)n(C)c(=O)n(C)c3n2)CC1 (nonaromatic ring conformer: 77.21757867199318 kcal/mol)

>  <smiles>  (10) 
Cc1ccccc1N1CCN(Cc2nnc3c(=O)n(C)c(=O)n(C)c3n2)CC1

>  <score_type>  (10) 
oracle

>  <origin>  (10) 
autodockgpu

>  <m_score__min__energy>  (10) 
-7.6600000000000001

>  <m_primary>  (10) 
energy

>  <meeko>  (10) 
{"free_energy": -6.65, "intermolecular_energy": -7.55, "internal_energy": -0.91, "cluster_size": 3, "cluster_id": 5, "rank_in_cluster": 2}

>  <energy>  (10) 
-6.83

>  <cluster_rmsd>  (10) 
1.92

>  <rmsd>  (10) 
269.24

>  <cluster>  (10) 
2

$$$$
IILOZLGKIKELDM-UHFFFAOYNA-N
     RDKit          3D

 51 54  0  0  0  0  0  0  0  0999 V2000
  141.4330   71.1880  225.7240 C   0  0  0  0  0  0  0  0  0  0  0  0
  140.7710   69.8980  226.1230 C   0  0  0  0  0  0  0  0  0  0  0  0
  141.0540   69.3240  227.3750 C   0  0  0  0  0  0  0  0  0  0  0  0
  140.4300   68.1360  227.7650 C   0  0  0  0  0  0  0  0  0  0  0  0
  139.5120   67.5160  226.9160 C   0  0  0  0  0  0  0  0  0  0  0  0
  139.2130   68.0830  225.6750 C   0  0  0  0  0  0  0  0  0  0  0  0
  139.8310   69.2760  225.2740 C   0  0  0  0  0  0  0  0  0  0  0  0
  139.5030   69.8450  224.0000 N   0  0  0  0  0  0  0  0  0  0  0  0
  139.1310   71.2590  223.9340 C   0  0  0  0  0  0  0  0  0  0  0  0
  138.7390   71.6500  222.5040 C   0  0  0  0  0  0  0  0  0  0  0  0
  139.6560   71.0610  221.5010 N   0  0  0  0  0  0  0  0  0  0  0  0
  141.0220   71.6290  221.5470 C   0  0  0  0  0  0  0  0  0  0  0  0
  141.0000   73.1230  221.4470 C   0  0  0  0  0  0  0  0  0  0  0  0
  140.2810   73.8610  222.3330 N   0  0  0  0  0  0  0  0  0  0  0  0
  140.2810   75.1930  222.2710 N   0  0  0  0  0  0  0  0  0  0  0  0
  141.0030   75.8500  221.3260 C   0  0  0  0  0  0  0  0  0  0  0  0
  141.0230   77.2400  221.2590 C   0  0  0  0  0  0  0  0  0  0  0  0
  140.3560   77.9100  222.0970 O   0  0  0  0  0  0  0  0  0  0  0  0
  141.7690   77.8670  220.2960 N   0  0  0  0  0  0  0  0  0  0  0  0
  141.8230   79.3390  220.2520 C   0  0  0  0  0  0  0  0  0  0  0  0
  142.5330   77.1260  219.4250 C   0  0  0  0  0  0  0  0  0  0  0  0
  143.2790   77.7160  218.5910 O   0  0  0  0  0  0  0  0  0  0  0  0
  142.4990   75.7520  219.4540 N   0  0  0  0  0  0  0  0  0  0  0  0
  143.3250   74.9670  218.5200 C   0  0  0  0  0  0  0  0  0  0  0  0
  141.7540   75.1120  220.4070 C   0  0  0  0  0  0  0  0  0  0  0  0
  141.7370   73.7530  220.4950 N   0  0  0  0  0  0  0  0  0  0  0  0
  139.6750   69.5730  221.5400 C   0  0  0  0  0  0  0  0  0  0  0  0
  139.2030   68.9580  222.8750 C   0  0  0  0  0  0  0  0  0  0  0  0
  141.7200   71.7473  226.6266 H   0  0  0  0  0  0  0  0  0  0  0  0
  142.3307   70.9701  225.1268 H   0  0  0  0  0  0  0  0  0  0  0  0
  140.7325   71.7902  225.1268 H   0  0  0  0  0  0  0  0  0  0  0  0
  141.7707   69.8129  228.0513 H   0  0  0  0  0  0  0  0  0  0  0  0
  140.6627   67.6888  228.7427 H   0  0  0  0  0  0  0  0  0  0  0  0
  139.0235   66.5799  227.2245 H   0  0  0  0  0  0  0  0  0  0  0  0
  138.4890   67.5911  225.0088 H   0  0  0  0  0  0  0  0  0  0  0  0
  138.2779   71.4396  224.6045 H   0  0  0  0  0  0  0  0  0  0  0  0
  139.9943   71.8667  224.2428 H   0  0  0  0  0  0  0  0  0  0  0  0
  137.7175   71.2937  222.3049 H   0  0  0  0  0  0  0  0  0  0  0  0
  138.7994   72.7452  222.4206 H   0  0  0  0  0  0  0  0  0  0  0  0
  141.4966   71.3415  222.4968 H   0  0  0  0  0  0  0  0  0  0  0  0
  141.5883   71.2346  220.6904 H   0  0  0  0  0  0  0  0  0  0  0  0
  141.8376   79.7362  221.2777 H   0  0  0  0  0  0  0  0  0  0  0  0
  142.7334   79.6569  219.7227 H   0  0  0  0  0  0  0  0  0  0  0  0
  140.9383   79.7227  219.7227 H   0  0  0  0  0  0  0  0  0  0  0  0
  144.0071   74.3188  219.0897 H   0  0  0  0  0  0  0  0  0  0  0  0
  142.6736   74.3471  217.8865 H   0  0  0  0  0  0  0  0  0  0  0  0
  143.9110   75.6491  217.8865 H   0  0  0  0  0  0  0  0  0  0  0  0
  139.0185   69.2006  220.7398 H   0  0  0  0  0  0  0  0  0  0  0  0
  140.7252   69.2716  221.4125 H   0  0  0  0  0  0  0  0  0  0  0  0
  138.1167   68.7909  222.8292 H   0  0  0  0  0  0  0  0  0  0  0  0
  139.7347   68.0074  223.0286 H   0  0  0  0  0  0  0  0  0  0  0  0
  1  2  1  0
  2  3  2  0
  3  4  1  0
  4  5  2  0
  5  6  1  0
  6  7  2  0
  7  8  1  0
  8  9  1  0
  9 10  1  0
 10 11  1  0
 11 12  1  0
 12 13  1  0
 13 14  2  0
 14 15  1  0
 15 16  2  0
 16 17  1  0
 17 18  2  0
 17 19  1  0
 19 20  1  0
 19 21  1  0
 21 22  2  0
 21 23  1  0
 23 24  1  0
 23 25  1  0
 25 26  2  0
 11 27  1  0
 27 28  1  0
  7  2  1  0
 28  8  1  0
 26 13  1  0
 25 16  1  0
  1 29  1  0
  1 30  1  0
  1 31  1  0
  3 32  1  0
  4 33  1  0
  5 34  1  0
  6 35  1  0
  9 36  1  0
  9 37  1  0
 10 38  1  0
 10 39  1  0
 12 40  1  0
 12 41  1  0
 20 42  1  0
 20 43  1  0
 20 44  1  0
 24 45  1  0
 24 46  1  0
 24 47  1  0
 27 48  1  0
 27 49  1  0
 28 50  1  0
 28 51  1  0
M  END
>  <UniqueID>  (11) 
20

>  <SMILES>  (11) 
Cc1ccccc1N1CCN(Cc2nnc3c(=O)n(C)c(=O)n(C)c3n2)CC1

>  <Energy>  (11) 
77.21757867199318

>  <Genealogy>  (11) 
Cc1ccccc1N1CCN(Cc2nnc3c(=O)n(C)c(=O)n(C)c3n2)CC1 (3D coordinates assigned)
Cc1ccccc1N1CCN(Cc2nnc3c(=O)n(C)c(=O)n(C)c3n2)CC1 (nonaromatic ring conformer: 77.21757867199318 kcal/mol)

>  <smiles>  (11) 
Cc1ccccc1N1CCN(Cc2nnc3c(=O)n(C)c(=O)n(C)c3n2)CC1

>  <score_type>  (11) 
oracle

>  <origin>  (11) 
autodockgpu

>  <m_score__min__energy>  (11) 
-7.6600000000000001

>  <m_primary>  (11) 
energy

>  <meeko>  (11) 
{"free_energy": -7.65, "intermolecular_energy": -8.55, "internal_energy": -0.41, "cluster_size": 5, "cluster_id": 1, "rank_in_cluster": 2}

>  <energy>  (11) 
-6.82

>  <cluster_rmsd>  (11) 
1.94

>  <rmsd>  (11) 
269.21

>  <cluster>  (11) 
2

$$$$
IILOZLGKIKELDM-UHFFFAOYNA-N
     RDKit          3D

 51 54  0  0  0  0  0  0  0  0999 V2000
  141.4370   71.1880  225.7360 C   0  0  0  0  0  0  0  0  0  0  0  0
  140.7770   69.8990  226.1410 C   0  0  0  0  0  0  0  0  0  0  0  0
  141.0630   69.3300  227.3940 C   0  0  0  0  0  0  0  0  0  0  0  0
  140.4420   68.1420  227.7900 C   0  0  0  0  0  0  0  0  0  0  0  0
  139.5230   67.5180  226.9450 C   0  0  0  0  0  0  0  0  0  0  0  0
  139.2200   68.0800  225.7030 C   0  0  0  0  0  0  0  0  0  0  0  0
  139.8370   69.2720  225.2970 C   0  0  0  0  0  0  0  0  0  0  0  0
  139.5050   69.8370  224.0210 N   0  0  0  0  0  0  0  0  0  0  0  0
  139.1330   71.2500  223.9510 C   0  0  0  0  0  0  0  0  0  0  0  0
  138.7370   71.6360  222.5200 C   0  0  0  0  0  0  0  0  0  0  0  0
  139.6510   71.0420  221.5170 N   0  0  0  0  0  0  0  0  0  0  0  0
  141.0180   71.6100  221.5570 C   0  0  0  0  0  0  0  0  0  0  0  0
  140.9960   73.1050  221.4590 C   0  0  0  0  0  0  0  0  0  0  0  0
  140.2750   73.8400  222.3450 N   0  0  0  0  0  0  0  0  0  0  0  0
  140.2750   75.1720  222.2860 N   0  0  0  0  0  0  0  0  0  0  0  0
  140.9990   75.8320  221.3430 C   0  0  0  0  0  0  0  0  0  0  0  0
  141.0190   77.2210  221.2780 C   0  0  0  0  0  0  0  0  0  0  0  0
  140.3500   77.8900  222.1160 O   0  0  0  0  0  0  0  0  0  0  0  0
  141.7680   77.8510  220.3190 N   0  0  0  0  0  0  0  0  0  0  0  0
  141.8210   79.3220  220.2770 C   0  0  0  0  0  0  0  0  0  0  0  0
  142.5340   77.1110  219.4480 C   0  0  0  0  0  0  0  0  0  0  0  0
  143.2820   77.7020  218.6170 O   0  0  0  0  0  0  0  0  0  0  0  0
  142.5000   75.7370  219.4740 N   0  0  0  0  0  0  0  0  0  0  0  0
  143.3280   74.9530  218.5410 C   0  0  0  0  0  0  0  0  0  0  0  0
  141.7530   75.0950  220.4250 C   0  0  0  0  0  0  0  0  0  0  0  0
  141.7350   73.7360  220.5100 N   0  0  0  0  0  0  0  0  0  0  0  0
  139.6700   69.5550  221.5620 C   0  0  0  0  0  0  0  0  0  0  0  0
  139.2010   68.9460  222.9010 C   0  0  0  0  0  0  0  0  0  0  0  0
  141.7252   71.7509  226.6360 H   0  0  0  0  0  0  0  0  0  0  0  0
  142.3337   70.9687  225.1379 H   0  0  0  0  0  0  0  0  0  0  0  0
  140.7348   71.7873  225.1379 H   0  0  0  0  0  0  0  0  0  0  0  0
  141.7800   69.8227  228.0672 H   0  0  0  0  0  0  0  0  0  0  0  0
  140.6778   67.6984  228.7686 H   0  0  0  0  0  0  0  0  0  0  0  0
  139.0367   66.5822  227.2578 H   0  0  0  0  0  0  0  0  0  0  0  0
  138.4943   67.5856  225.0404 H   0  0  0  0  0  0  0  0  0  0  0  0
  138.2817   71.4330  224.6231 H   0  0  0  0  0  0  0  0  0  0  0  0
  139.9971   71.8588  224.2553 H   0  0  0  0  0  0  0  0  0  0  0  0
  137.7147   71.2798  222.3251 H   0  0  0  0  0  0  0  0  0  0  0  0
  138.7978   72.7308  222.4320 H   0  0  0  0  0  0  0  0  0  0  0  0
  141.4972   71.3212  222.5041 H   0  0  0  0  0  0  0  0  0  0  0  0
  141.5799   71.2166  220.6971 H   0  0  0  0  0  0  0  0  0  0  0  0
  141.8353   79.7178  221.3032 H   0  0  0  0  0  0  0  0  0  0  0  0
  142.7312   79.6412  219.7482 H   0  0  0  0  0  0  0  0  0  0  0  0
  140.9361   79.7058  219.7482 H   0  0  0  0  0  0  0  0  0  0  0  0
  144.0110   74.3064  219.1115 H   0  0  0  0  0  0  0  0  0  0  0  0
  142.6781   74.3315  217.9075 H   0  0  0  0  0  0  0  0  0  0  0  0
  143.9131   75.6358  217.9075 H   0  0  0  0  0  0  0  0  0  0  0  0
  139.0115   69.1793  220.7650 H   0  0  0  0  0  0  0  0  0  0  0  0
  140.7198   69.2528  221.4330 H   0  0  0  0  0  0  0  0  0  0  0  0
  138.1144   68.7799  222.8589 H   0  0  0  0  0  0  0  0  0  0  0  0
  139.7321   67.9954  223.0571 H   0  0  0  0  0  0  0  0  0  0  0  0
  1  2  1  0
  2  3  2  0
  3  4  1  0
  4  5  2  0
  5  6  1  0
  6  7  2  0
  7  8  1  0
  8  9  1  0
  9 10  1  0
 10 11  1  0
 11 12  1  0
 12 13  1  0
 13 14  2  0
 14 15  1  0
 15 16  2  0
 16 17  1  0
 17 18  2  0
 17 19  1  0
 19 20  1  0
 19 21  1  0
 21 22  2  0
 21 23  1  0
 23 24  1  0
 23 25  1  0
 25 26  2  0
 11 27  1  0
 27 28  1  0
  7  2  1  0
 28  8  1  0
 26 13  1  0
 25 16  1  0
  1 29  1  0
  1 30  1  0
  1 31  1  0
  3 32  1  0
  4 33  1  0
  5 34  1  0
  6 35  1  0
  9 36  1  0
  9 37  1  0
 10 38  1  0
 10 39  1  0
 12 40  1  0
 12 41  1  0
 20 42  1  0
 20 43  1  0
 20 44  1  0
 24 45  1  0
 24 46  1  0
 24 47  1  0
 27 48  1  0
 27 49  1  0
 28 50  1  0
 28 51  1  0
M  END
>  <UniqueID>  (12) 
20

>  <SMILES>  (12) 
Cc1ccccc1N1CCN(Cc2nnc3c(=O)n(C)c(=O)n(C)c3n2)CC1

>  <Energy>  (12) 
77.21757867199318

>  <Genealogy>  (12) 
Cc1ccccc1N1CCN(Cc2nnc3c(=O)n(C)c(=O)n(C)c3n2)CC1 (3D coordinates assigned)
Cc1ccccc1N1CCN(Cc2nnc3c(=O)n(C)c(=O)n(C)c3n2)CC1 (nonaromatic ring conformer: 77.21757867199318 kcal/mol)

>  <smiles>  (12) 
Cc1ccccc1N1CCN(Cc2nnc3c(=O)n(C)c(=O)n(C)c3n2)CC1

>  <score_type>  (12) 
oracle

>  <origin>  (12) 
autodockgpu

>  <m_score__min__energy>  (12) 
-7.6600000000000001

>  <m_primary>  (12) 
energy

>  <meeko>  (12) 
{"free_energy": -7.66, "intermolecular_energy": -8.56, "internal_energy": -0.4, "cluster_size": 5, "cluster_id": 1, "rank_in_cluster": 1}

>  <energy>  (12) 
-6.97

>  <cluster_rmsd>  (12) 
0.0

>  <rmsd>  (12) 
269.03

>  <cluster>  (12) 
3

$$$$
IILOZLGKIKELDM-UHFFFAOYNA-N
     RDKit          3D

 51 54  0  0  0  0  0  0  0  0999 V2000
  141.4160   71.2180  225.7910 C   0  0  0  0  0  0  0  0  0  0  0  0
  140.7350   69.9280  226.1550 C   0  0  0  0  0  0  0  0  0  0  0  0
  141.0060   69.3190  227.3930 C   0  0  0  0  0  0  0  0  0  0  0  0
  140.3660   68.1300  227.7510 C   0  0  0  0  0  0  0  0  0  0  0  0
  139.4430   67.5430  226.8840 C   0  0  0  0  0  0  0  0  0  0  0  0
  139.1550   68.1450  225.6570 C   0  0  0  0  0  0  0  0  0  0  0  0
  139.7900   69.3400  225.2890 C   0  0  0  0  0  0  0  0  0  0  0  0
  139.4740   69.9450  224.0280 N   0  0  0  0  0  0  0  0  0  0  0  0
  139.0920   71.3580  224.0010 C   0  0  0  0  0  0  0  0  0  0  0  0
  138.7150   71.7900  222.5780 C   0  0  0  0  0  0  0  0  0  0  0  0
  139.6480   71.2380  221.5700 N   0  0  0  0  0  0  0  0  0  0  0  0
  141.0100   71.8150  221.6510 C   0  0  0  0  0  0  0  0  0  0  0  0
  140.9870   73.3040  221.4940 C   0  0  0  0  0  0  0  0  0  0  0  0
  140.2590   74.0730  222.3450 N   0  0  0  0  0  0  0  0  0  0  0  0
  140.2580   75.4020  222.2340 N   0  0  0  0  0  0  0  0  0  0  0  0
  140.9880   76.0240  221.2710 C   0  0  0  0  0  0  0  0  0  0  0  0
  141.0070   77.4110  221.1520 C   0  0  0  0  0  0  0  0  0  0  0  0
  140.3310   78.1100  221.9590 O   0  0  0  0  0  0  0  0  0  0  0  0
  141.7610   78.0030  220.1740 N   0  0  0  0  0  0  0  0  0  0  0  0
  141.8130   79.4720  220.0740 C   0  0  0  0  0  0  0  0  0  0  0  0
  142.5330   77.2310  219.3370 C   0  0  0  0  0  0  0  0  0  0  0  0
  143.2850   77.7900  218.4880 O   0  0  0  0  0  0  0  0  0  0  0  0
  142.5000   75.8590  219.4170 N   0  0  0  0  0  0  0  0  0  0  0  0
  143.3360   75.0400  218.5210 C   0  0  0  0  0  0  0  0  0  0  0  0
  141.7480   75.2530  220.3870 C   0  0  0  0  0  0  0  0  0  0  0  0
  141.7310   73.8990  220.5260 N   0  0  0  0  0  0  0  0  0  0  0  0
  139.6780   69.7500  221.5640 C   0  0  0  0  0  0  0  0  0  0  0  0
  139.1940   69.0920  222.8730 C   0  0  0  0  0  0  0  0  0  0  0  0
  141.6993   71.7547  226.7085 H   0  0  0  0  0  0  0  0  0  0  0  0
  142.3177   71.0023  225.1991 H   0  0  0  0  0  0  0  0  0  0  0  0
  140.7292   71.8409  225.1991 H   0  0  0  0  0  0  0  0  0  0  0  0
  141.7263   69.7816  228.0838 H   0  0  0  0  0  0  0  0  0  0  0  0
  140.5898   67.6555  228.7178 H   0  0  0  0  0  0  0  0  0  0  0  0
  138.9420   66.6056  227.1673 H   0  0  0  0  0  0  0  0  0  0  0  0
  138.4269   67.6797  224.9763 H   0  0  0  0  0  0  0  0  0  0  0  0
  138.2291   71.5117  224.6657 H   0  0  0  0  0  0  0  0  0  0  0  0
  139.9465   71.9622  224.3396 H   0  0  0  0  0  0  0  0  0  0  0  0
  137.6986   71.4333  222.3552 H   0  0  0  0  0  0  0  0  0  0  0  0
  138.7689   72.8876  222.5286 H   0  0  0  0  0  0  0  0  0  0  0  0
  141.4459   71.5657  222.6297 H   0  0  0  0  0  0  0  0  0  0  0  0
  141.6126   71.3917  220.8339 H   0  0  0  0  0  0  0  0  0  0  0  0
  141.8284   79.9079  221.0838 H   0  0  0  0  0  0  0  0  0  0  0  0
  142.7223   79.7706  219.5318 H   0  0  0  0  0  0  0  0  0  0  0  0
  140.9271   79.8342  219.5318 H   0  0  0  0  0  0  0  0  0  0  0  0
  143.9943   74.3951  219.1216 H   0  0  0  0  0  0  0  0  0  0  0  0
  142.6903   74.4153  217.8864 H   0  0  0  0  0  0  0  0  0  0  0  0
  143.9473   75.6984  217.8864 H   0  0  0  0  0  0  0  0  0  0  0  0
  139.0346   69.3973  220.7445 H   0  0  0  0  0  0  0  0  0  0  0  0
  140.7319   69.4602  221.4408 H   0  0  0  0  0  0  0  0  0  0  0  0
  138.1095   68.9197  222.8085 H   0  0  0  0  0  0  0  0  0  0  0  0
  139.7303   68.1406  223.0040 H   0  0  0  0  0  0  0  0  0  0  0  0
  1  2  1  0
  2  3  2  0
  3  4  1  0
  4  5  2  0
  5  6  1  0
  6  7  2  0
  7  8  1  0
  8  9  1  0
  9 10  1  0
 10 11  1  0
 11 12  1  0
 12 13  1  0
 13 14  2  0
 14 15  1  0
 15 16  2  0
 16 17  1  0
 17 18  2  0
 17 19  1  0
 19 20  1  0
 19 21  1  0
 21 22  2  0
 21 23  1  0
 23 24  1  0
 23 25  1  0
 25 26  2  0
 11 27  1  0
 27 28  1  0
  7  2  1  0
 28  8  1  0
 26 13  1  0
 25 16  1  0
  1 29  1  0
  1 30  1  0
  1 31  1  0
  3 32  1  0
  4 33  1  0
  5 34  1  0
  6 35  1  0
  9 36  1  0
  9 37  1  0
 10 38  1  0
 10 39  1  0
 12 40  1  0
 12 41  1  0
 20 42  1  0
 20 43  1  0
 20 44  1  0
 24 45  1  0
 24 46  1  0
 24 47  1  0
 27 48  1  0
 27 49  1  0
 28 50  1  0
 28 51  1  0
M  END
>  <UniqueID>  (13) 
20

>  <SMILES>  (13) 
Cc1ccccc1N1CCN(Cc2nnc3c(=O)n(C)c(=O)n(C)c3n2)CC1

>  <Energy>  (13) 
77.21757867199318

>  <Genealogy>  (13) 
Cc1ccccc1N1CCN(Cc2nnc3c(=O)n(C)c(=O)n(C)c3n2)CC1 (3D coordinates assigned)
Cc1ccccc1N1CCN(Cc2nnc3c(=O)n(C)c(=O)n(C)c3n2)CC1 (nonaromatic ring conformer: 77.21757867199318 kcal/mol)

>  <smiles>  (13) 
Cc1ccccc1N1CCN(Cc2nnc3c(=O)n(C)c(=O)n(C)c3n2)CC1

>  <score_type>  (13) 
oracle

>  <origin>  (13) 
autodockgpu

>  <m_score__min__energy>  (13) 
-7.6600000000000001

>  <m_primary>  (13) 
energy

>  <meeko>  (13) 
{"free_energy": -7.58, "intermolecular_energy": -8.47, "internal_energy": -0.5, "cluster_size": 5, "cluster_id": 1, "rank_in_cluster": 5}

>  <energy>  (13) 
-6.78

>  <cluster_rmsd>  (13) 
0.0

>  <rmsd>  (13) 
269.19

>  <cluster>  (13) 
4

$$$$
IILOZLGKIKELDM-UHFFFAOYNA-N
     RDKit          3D

 51 54  0  0  0  0  0  0  0  0999 V2000
  141.0640   75.8850  221.6040 C   0  0  0  0  0  0  0  0  0  0  0  0
  140.4530   77.0870  222.2700 C   0  0  0  0  0  0  0  0  0  0  0  0
  141.2840   78.0980  222.7850 C   0  0  0  0  0  0  0  0  0  0  0  0
  140.7280   79.2290  223.3900 C   0  0  0  0  0  0  0  0  0  0  0  0
  139.3420   79.3660  223.4780 C   0  0  0  0  0  0  0  0  0  0  0  0
  138.5060   78.3750  222.9590 C   0  0  0  0  0  0  0  0  0  0  0  0
  139.0530   77.2370  222.3480 C   0  0  0  0  0  0  0  0  0  0  0  0
  138.1770   76.2350  221.8140 N   0  0  0  0  0  0  0  0  0  0  0  0
  137.9810   76.1690  220.3650 C   0  0  0  0  0  0  0  0  0  0  0  0
  136.9510   75.0920  220.0060 C   0  0  0  0  0  0  0  0  0  0  0  0
  137.1450   73.8570  220.8010 N   0  0  0  0  0  0  0  0  0  0  0  0
  138.3910   73.1310  220.4650 C   0  0  0  0  0  0  0  0  0  0  0  0
  139.0080   72.5060  221.6790 C   0  0  0  0  0  0  0  0  0  0  0  0
  139.9720   73.1620  222.3740 N   0  0  0  0  0  0  0  0  0  0  0  0
  140.5050   72.6290  223.4740 N   0  0  0  0  0  0  0  0  0  0  0  0
  140.0950   71.4170  223.9330 C   0  0  0  0  0  0  0  0  0  0  0  0
  140.6320   70.8540  225.0870 C   0  0  0  0  0  0  0  0  0  0  0  0
  141.5220   71.4840  225.7260 O   0  0  0  0  0  0  0  0  0  0  0  0
  140.1880   69.6340  225.5230 N   0  0  0  0  0  0  0  0  0  0  0  0
  140.7270   69.0580  226.7670 C   0  0  0  0  0  0  0  0  0  0  0  0
  139.1800   68.9850  224.8470 C   0  0  0  0  0  0  0  0  0  0  0  0
  138.7230   67.8980  225.3010 O   0  0  0  0  0  0  0  0  0  0  0  0
  138.6620   69.5100  223.6860 N   0  0  0  0  0  0  0  0  0  0  0  0
  137.5790   68.8100  222.9720 C   0  0  0  0  0  0  0  0  0  0  0  0
  139.1000   70.7260  223.2360 C   0  0  0  0  0  0  0  0  0  0  0  0
  138.5740   71.2960  222.1180 N   0  0  0  0  0  0  0  0  0  0  0  0
  137.0190   74.0890  222.2660 C   0  0  0  0  0  0  0  0  0  0  0  0
  137.2430   75.5500  222.7080 C   0  0  0  0  0  0  0  0  0  0  0  0
  141.4211   75.1825  222.3715 H   0  0  0  0  0  0  0  0  0  0  0  0
  140.3083   75.3897  220.9767 H   0  0  0  0  0  0  0  0  0  0  0  0
  141.9096   76.2036  220.9767 H   0  0  0  0  0  0  0  0  0  0  0  0
  142.3770   77.9983  222.7114 H   0  0  0  0  0  0  0  0  0  0  0  0
  141.3841   80.0123  223.7974 H   0  0  0  0  0  0  0  0  0  0  0  0
  138.9074   80.2558  223.9568 H   0  0  0  0  0  0  0  0  0  0  0  0
  137.4140   78.4873  223.0296 H   0  0  0  0  0  0  0  0  0  0  0  0
  137.6238   77.1448  220.0041 H   0  0  0  0  0  0  0  0  0  0  0  0
  138.9397   75.9139  219.8898 H   0  0  0  0  0  0  0  0  0  0  0  0
  135.9423   75.4855  220.2002 H   0  0  0  0  0  0  0  0  0  0  0  0
  137.0790   74.8378  218.9435 H   0  0  0  0  0  0  0  0  0  0  0  0
  138.1586   72.3411  219.7355 H   0  0  0  0  0  0  0  0  0  0  0  0
  139.1082   73.8525  220.0466 H   0  0  0  0  0  0  0  0  0  0  0  0
  140.2627   69.5541  227.6320 H   0  0  0  0  0  0  0  0  0  0  0  0
  140.5046   67.9812  226.7990 H   0  0  0  0  0  0  0  0  0  0  0  0
  141.8162   69.2085  226.7990 H   0  0  0  0  0  0  0  0  0  0  0  0
  136.8877   68.3632  223.7017 H   0  0  0  0  0  0  0  0  0  0  0  0
  137.0330   69.5265  222.3407 H   0  0  0  0  0  0  0  0  0  0  0  0
  138.0081   68.0179  222.3407 H   0  0  0  0  0  0  0  0  0  0  0  0
  136.0068   73.7888  222.5748 H   0  0  0  0  0  0  0  0  0  0  0  0
  137.8111   73.4943  222.7444 H   0  0  0  0  0  0  0  0  0  0  0  0
  136.2795   76.0806  222.6954 H   0  0  0  0  0  0  0  0  0  0  0  0
  137.6699   75.5461  223.7218 H   0  0  0  0  0  0  0  0  0  0  0  0
  1  2  1  0
  2  3  2  0
  3  4  1  0
  4  5  2  0
  5  6  1  0
  6  7  2  0
  7  8  1  0
  8  9  1  0
  9 10  1  0
 10 11  1  0
 11 12  1  0
 12 13  1  0
 13 14  2  0
 14 15  1  0
 15 16  2  0
 16 17  1  0
 17 18  2  0
 17 19  1  0
 19 20  1  0
 19 21  1  0
 21 22  2  0
 21 23  1  0
 23 24  1  0
 23 25  1  0
 25 26  2  0
 11 27  1  0
 27 28  1  0
  7  2  1  0
 28  8  1  0
 26 13  1  0
 25 16  1  0
  1 29  1  0
  1 30  1  0
  1 31  1  0
  3 32  1  0
  4 33  1  0
  5 34  1  0
  6 35  1  0
  9 36  1  0
  9 37  1  0
 10 38  1  0
 10 39  1  0
 12 40  1  0
 12 41  1  0
 20 42  1  0
 20 43  1  0
 20 44  1  0
 24 45  1  0
 24 46  1  0
 24 47  1  0
 27 48  1  0
 27 49  1  0
 28 50  1  0
 28 51  1  0
M  END
>  <UniqueID>  (14) 
20

>  <SMILES>  (14) 
Cc1ccccc1N1CCN(Cc2nnc3c(=O)n(C)c(=O)n(C)c3n2)CC1

>  <Energy>  (14) 
77.21757867199318

>  <Genealogy>  (14) 
Cc1ccccc1N1CCN(Cc2nnc3c(=O)n(C)c(=O)n(C)c3n2)CC1 (3D coordinates assigned)
Cc1ccccc1N1CCN(Cc2nnc3c(=O)n(C)c(=O)n(C)c3n2)CC1 (nonaromatic ring conformer: 77.21757867199318 kcal/mol)

>  <smiles>  (14) 
Cc1ccccc1N1CCN(Cc2nnc3c(=O)n(C)c(=O)n(C)c3n2)CC1

>  <score_type>  (14) 
oracle

>  <origin>  (14) 
autodockgpu

>  <m_score__min__energy>  (14) 
-7.6600000000000001

>  <m_primary>  (14) 
energy

>  <meeko>  (14) 
{"free_energy": -6.76, "intermolecular_energy": -7.66, "internal_energy": -1.16, "cluster_size": 4, "cluster_id": 4, "rank_in_cluster": 3}

>  <energy>  (14) 
-6.77

>  <cluster_rmsd>  (14) 
0.14

>  <rmsd>  (14) 
269.17

>  <cluster>  (14) 
4

$$$$
IILOZLGKIKELDM-UHFFFAOYNA-N
     RDKit          3D

 51 54  0  0  0  0  0  0  0  0999 V2000
  141.2660   75.5790  221.5870 C   0  0  0  0  0  0  0  0  0  0  0  0
  140.4410   76.7100  222.1350 C   0  0  0  0  0  0  0  0  0  0  0  0
  141.0780   77.8450  222.6680 C   0  0  0  0  0  0  0  0  0  0  0  0
  140.3220   78.9120  223.1630 C   0  0  0  0  0  0  0  0  0  0  0  0
  138.9280   78.8610  223.1220 C   0  0  0  0  0  0  0  0  0  0  0  0
  138.2840   77.7450  222.5830 C   0  0  0  0  0  0  0  0  0  0  0  0
  139.0320   76.6700  222.0810 C   0  0  0  0  0  0  0  0  0  0  0  0
  138.3520   75.5380  221.5250 N   0  0  0  0  0  0  0  0  0  0  0  0
  138.3970   75.3290  220.0760 C   0  0  0  0  0  0  0  0  0  0  0  0
  137.5430   74.1200  219.6760 C   0  0  0  0  0  0  0  0  0  0  0  0
  137.7240   72.9850  220.6100 N   0  0  0  0  0  0  0  0  0  0  0  0
  139.0700   72.3720  220.5390 C   0  0  0  0  0  0  0  0  0  0  0  0
  139.5240   71.8840  221.8810 C   0  0  0  0  0  0  0  0  0  0  0  0
  140.2530   72.6910  222.6950 N   0  0  0  0  0  0  0  0  0  0  0  0
  140.6340   72.2780  223.9040 N   0  0  0  0  0  0  0  0  0  0  0  0
  140.3010   71.0400  224.3580 C   0  0  0  0  0  0  0  0  0  0  0  0
  140.6800   70.6010  225.6230 C   0  0  0  0  0  0  0  0  0  0  0  0
  141.3500   71.3690  226.3700 O   0  0  0  0  0  0  0  0  0  0  0  0
  140.3180   69.3510  226.0490 N   0  0  0  0  0  0  0  0  0  0  0  0
  140.6840   68.9020  227.4030 C   0  0  0  0  0  0  0  0  0  0  0  0
  139.5430   68.5460  225.2450 C   0  0  0  0  0  0  0  0  0  0  0  0
  139.1480   67.4260  225.6790 O   0  0  0  0  0  0  0  0  0  0  0  0
  139.1880   68.9500  223.9800 N   0  0  0  0  0  0  0  0  0  0  0  0
  138.3520   68.0840  223.1290 C   0  0  0  0  0  0  0  0  0  0  0  0
  139.5470   70.1950  223.5390 C   0  0  0  0  0  0  0  0  0  0  0  0
  139.1700   70.6450  222.3110 N   0  0  0  0  0  0  0  0  0  0  0  0
  137.3450   73.3230  222.0090 C   0  0  0  0  0  0  0  0  0  0  0  0
  137.3550   74.8320  222.3320 C   0  0  0  0  0  0  0  0  0  0  0  0
  141.6900   74.9977  222.4191 H   0  0  0  0  0  0  0  0  0  0  0  0
  140.6302   74.9266  220.9705 H   0  0  0  0  0  0  0  0  0  0  0  0
  142.0814   75.9852  220.9705 H   0  0  0  0  0  0  0  0  0  0  0  0
  142.1766   77.8935  222.6956 H   0  0  0  0  0  0  0  0  0  0  0  0
  140.8270   79.7932  223.5855 H   0  0  0  0  0  0  0  0  0  0  0  0
  138.3357   79.7007  223.5146 H   0  0  0  0  0  0  0  0  0  0  0  0
  137.1850   77.7090  222.5521 H   0  0  0  0  0  0  0  0  0  0  0  0
  138.0120   76.2264  219.5696 H   0  0  0  0  0  0  0  0  0  0  0  0
  139.4389   75.1401  219.7781 H   0  0  0  0  0  0  0  0  0  0  0  0
  136.4837   74.4165  219.6771 H   0  0  0  0  0  0  0  0  0  0  0  0
  137.8613   73.7930  218.6751 H   0  0  0  0  0  0  0  0  0  0  0  0
  139.0390   71.5220  219.8415 H   0  0  0  0  0  0  0  0  0  0  0  0
  139.7796   73.1379  220.1927 H   0  0  0  0  0  0  0  0  0  0  0  0
  140.1727   69.5293  228.1480 H   0  0  0  0  0  0  0  0  0  0  0  0
  140.3802   67.8532  227.5361 H   0  0  0  0  0  0  0  0  0  0  0  0
  141.7725   68.9882  227.5361 H   0  0  0  0  0  0  0  0  0  0  0  0
  137.7282   67.4379  223.7642 H   0  0  0  0  0  0  0  0  0  0  0  0
  137.7058   68.7078  222.4939 H   0  0  0  0  0  0  0  0  0  0  0  0
  138.9981   67.4602  222.4939 H   0  0  0  0  0  0  0  0  0  0  0  0
  136.3300   72.9401  222.1913 H   0  0  0  0  0  0  0  0  0  0  0  0
  138.1041   72.8610  222.6573 H   0  0  0  0  0  0  0  0  0  0  0  0
  136.3601   75.2510  222.1209 H   0  0  0  0  0  0  0  0  0  0  0  0
  137.6115   74.9599  223.3940 H   0  0  0  0  0  0  0  0  0  0  0  0
  1  2  1  0
  2  3  2  0
  3  4  1  0
  4  5  2  0
  5  6  1  0
  6  7  2  0
  7  8  1  0
  8  9  1  0
  9 10  1  0
 10 11  1  0
 11 12  1  0
 12 13  1  0
 13 14  2  0
 14 15  1  0
 15 16  2  0
 16 17  1  0
 17 18  2  0
 17 19  1  0
 19 20  1  0
 19 21  1  0
 21 22  2  0
 21 23  1  0
 23 24  1  0
 23 25  1  0
 25 26  2  0
 11 27  1  0
 27 28  1  0
  7  2  1  0
 28  8  1  0
 26 13  1  0
 25 16  1  0
  1 29  1  0
  1 30  1  0
  1 31  1  0
  3 32  1  0
  4 33  1  0
  5 34  1  0
  6 35  1  0
  9 36  1  0
  9 37  1  0
 10 38  1  0
 10 39  1  0
 12 40  1  0
 12 41  1  0
 20 42  1  0
 20 43  1  0
 20 44  1  0
 24 45  1  0
 24 46  1  0
 24 47  1  0
 27 48  1  0
 27 49  1  0
 28 50  1  0
 28 51  1  0
M  END
>  <UniqueID>  (15) 
20

>  <SMILES>  (15) 
Cc1ccccc1N1CCN(Cc2nnc3c(=O)n(C)c(=O)n(C)c3n2)CC1

>  <Energy>  (15) 
77.21757867199318

>  <Genealogy>  (15) 
Cc1ccccc1N1CCN(Cc2nnc3c(=O)n(C)c(=O)n(C)c3n2)CC1 (3D coordinates assigned)
Cc1ccccc1N1CCN(Cc2nnc3c(=O)n(C)c(=O)n(C)c3n2)CC1 (nonaromatic ring conformer: 77.21757867199318 kcal/mol)

>  <smiles>  (15) 
Cc1ccccc1N1CCN(Cc2nnc3c(=O)n(C)c(=O)n(C)c3n2)CC1

>  <score_type>  (15) 
oracle

>  <origin>  (15) 
autodockgpu

>  <m_score__min__energy>  (15) 
-7.6600000000000001

>  <m_primary>  (15) 
energy

>  <meeko>  (15) 
{"free_energy": -6.84, "intermolecular_energy": -7.73, "internal_energy": -1.14, "cluster_size": 6, "cluster_id": 2, "rank_in_cluster": 3}

>  <energy>  (15) 
-6.76

>  <cluster_rmsd>  (15) 
0.08

>  <rmsd>  (15) 
269.21

>  <cluster>  (15) 
4

$$$$
IILOZLGKIKELDM-UHFFFAOYNA-N
     RDKit          3D

 51 54  0  0  0  0  0  0  0  0999 V2000
  141.0850   75.7940  221.5660 C   0  0  0  0  0  0  0  0  0  0  0  0
  140.4810   76.9930  222.2420 C   0  0  0  0  0  0  0  0  0  0  0  0
  141.3170   77.9940  222.7680 C   0  0  0  0  0  0  0  0  0  0  0  0
  140.7670   79.1230  223.3830 C   0  0  0  0  0  0  0  0  0  0  0  0
  139.3820   79.2680  223.4700 C   0  0  0  0  0  0  0  0  0  0  0  0
  138.5410   78.2870  222.9400 C   0  0  0  0  0  0  0  0  0  0  0  0
  139.0820   77.1510  222.3190 C   0  0  0  0  0  0  0  0  0  0  0  0
  138.2010   76.1600  221.7750 N   0  0  0  0  0  0  0  0  0  0  0  0
  138.0210   76.0960  220.3240 C   0  0  0  0  0  0  0  0  0  0  0  0
  136.9830   75.0310  219.9530 C   0  0  0  0  0  0  0  0  0  0  0  0
  137.1530   73.7940  220.7500 N   0  0  0  0  0  0  0  0  0  0  0  0
  138.3940   73.0530  220.4280 C   0  0  0  0  0  0  0  0  0  0  0  0
  139.0120   72.4560  221.6550 C   0  0  0  0  0  0  0  0  0  0  0  0
  139.9410   73.1500  222.3630 N   0  0  0  0  0  0  0  0  0  0  0  0
  140.4730   72.6410  223.4740 N   0  0  0  0  0  0  0  0  0  0  0  0
  140.0990   71.4180  223.9340 C   0  0  0  0  0  0  0  0  0  0  0  0
  140.6360   70.8810  225.0990 C   0  0  0  0  0  0  0  0  0  0  0  0
  141.4920   71.5450  225.7500 O   0  0  0  0  0  0  0  0  0  0  0  0
  140.2270   69.6480  225.5360 N   0  0  0  0  0  0  0  0  0  0  0  0
  140.7660   69.0980  226.7910 C   0  0  0  0  0  0  0  0  0  0  0  0
  139.2550   68.9610  224.8460 C   0  0  0  0  0  0  0  0  0  0  0  0
  138.8290   67.8600  225.2990 O   0  0  0  0  0  0  0  0  0  0  0  0
  138.7380   69.4600  223.6740 N   0  0  0  0  0  0  0  0  0  0  0  0
  137.6930   68.7190  222.9460 C   0  0  0  0  0  0  0  0  0  0  0  0
  139.1410   70.6890  223.2240 C   0  0  0  0  0  0  0  0  0  0  0  0
  138.6130   71.2340  222.0940 N   0  0  0  0  0  0  0  0  0  0  0  0
  137.0120   74.0270  222.2130 C   0  0  0  0  0  0  0  0  0  0  0  0
  137.2480   75.4860  222.6580 C   0  0  0  0  0  0  0  0  0  0  0  0
  141.4422   75.0850  222.3274 H   0  0  0  0  0  0  0  0  0  0  0  0
  140.3253   75.3057  220.9379 H   0  0  0  0  0  0  0  0  0  0  0  0
  141.9295   76.1139  220.9379 H   0  0  0  0  0  0  0  0  0  0  0  0
  142.4095   77.8883  222.6953 H   0  0  0  0  0  0  0  0  0  0  0  0
  141.4274   79.8982  223.7989 H   0  0  0  0  0  0  0  0  0  0  0  0
  138.9520   80.1559  223.9566 H   0  0  0  0  0  0  0  0  0  0  0  0
  137.4496   78.4055  223.0097 H   0  0  0  0  0  0  0  0  0  0  0  0
  137.6793   77.0758  219.9590 H   0  0  0  0  0  0  0  0  0  0  0  0
  138.9821   75.8297  219.8599 H   0  0  0  0  0  0  0  0  0  0  0  0
  135.9767   75.4362  220.1353 H   0  0  0  0  0  0  0  0  0  0  0  0
  137.1208   74.7751  218.8921 H   0  0  0  0  0  0  0  0  0  0  0  0
  138.1547   72.2461  219.7197 H   0  0  0  0  0  0  0  0  0  0  0  0
  139.1134   73.7597  219.9887 H   0  0  0  0  0  0  0  0  0  0  0  0
  140.2815   69.5924  227.6459 H   0  0  0  0  0  0  0  0  0  0  0  0
  140.5681   68.0167  226.8323 H   0  0  0  0  0  0  0  0  0  0  0  0
  141.8510   69.2740  226.8323 H   0  0  0  0  0  0  0  0  0  0  0  0
  137.0150   68.2382  223.6665 H   0  0  0  0  0  0  0  0  0  0  0  0
  137.1224   69.4154  222.3140 H   0  0  0  0  0  0  0  0  0  0  0  0
  138.1614   67.9501  222.3140 H   0  0  0  0  0  0  0  0  0  0  0  0
  135.9927   73.7387  222.5095 H   0  0  0  0  0  0  0  0  0  0  0  0
  137.7910   73.4228  222.7009 H   0  0  0  0  0  0  0  0  0  0  0  0
  136.2911   76.0279  222.6339 H   0  0  0  0  0  0  0  0  0  0  0  0
  137.6626   75.4772  223.6768 H   0  0  0  0  0  0  0  0  0  0  0  0
  1  2  1  0
  2  3  2  0
  3  4  1  0
  4  5  2  0
  5  6  1  0
  6  7  2  0
  7  8  1  0
  8  9  1  0
  9 10  1  0
 10 11  1  0
 11 12  1  0
 12 13  1  0
 13 14  2  0
 14 15  1  0
 15 16  2  0
 16 17  1  0
 17 18  2  0
 17 19  1  0
 19 20  1  0
 19 21  1  0
 21 22  2  0
 21 23  1  0
 23 24  1  0
 23 25  1  0
 25 26  2  0
 11 27  1  0
 27 28  1  0
  7  2  1  0
 28  8  1  0
 26 13  1  0
 25 16  1  0
  1 29  1  0
  1 30  1  0
  1 31  1  0
  3 32  1  0
  4 33  1  0
  5 34  1  0
  6 35  1  0
  9 36  1  0
  9 37  1  0
 10 38  1  0
 10 39  1  0
 12 40  1  0
 12 41  1  0
 20 42  1  0
 20 43  1  0
 20 44  1  0
 24 45  1  0
 24 46  1  0
 24 47  1  0
 27 48  1  0
 27 49  1  0
 28 50  1  0
 28 51  1  0
M  END
>  <UniqueID>  (16) 
20

>  <SMILES>  (16) 
Cc1ccccc1N1CCN(Cc2nnc3c(=O)n(C)c(=O)n(C)c3n2)CC1

>  <Energy>  (16) 
77.21757867199318

>  <Genealogy>  (16) 
Cc1ccccc1N1CCN(Cc2nnc3c(=O)n(C)c(=O)n(C)c3n2)CC1 (3D coordinates assigned)
Cc1ccccc1N1CCN(Cc2nnc3c(=O)n(C)c(=O)n(C)c3n2)CC1 (nonaromatic ring conformer: 77.21757867199318 kcal/mol)

>  <smiles>  (16) 
Cc1ccccc1N1CCN(Cc2nnc3c(=O)n(C)c(=O)n(C)c3n2)CC1

>  <score_type>  (16) 
oracle

>  <origin>  (16) 
autodockgpu

>  <m_score__min__energy>  (16) 
-7.6600000000000001

>  <m_primary>  (16) 
energy

>  <meeko>  (16) 
{"free_energy": -6.78, "intermolecular_energy": -7.67, "internal_energy": -1.16, "cluster_size": 4, "cluster_id": 4, "rank_in_cluster": 1}

>  <energy>  (16) 
-6.66

>  <cluster_rmsd>  (16) 
0.65

>  <rmsd>  (16) 
269.19

>  <cluster>  (16) 
4

$$$$
IILOZLGKIKELDM-UHFFFAOYNA-N
     RDKit          3D

 51 54  0  0  0  0  0  0  0  0999 V2000
  140.8910   82.9250  220.9080 C   0  0  0  0  0  0  0  0  0  0  0  0
  141.4580   82.0280  219.8430 C   0  0  0  0  0  0  0  0  0  0  0  0
  142.0220   82.5880  218.6830 C   0  0  0  0  0  0  0  0  0  0  0  0
  142.5690   81.7660  217.6940 C   0  0  0  0  0  0  0  0  0  0  0  0
  142.5670   80.3800  217.8570 C   0  0  0  0  0  0  0  0  0  0  0  0
  142.0210   79.8110  219.0100 C   0  0  0  0  0  0  0  0  0  0  0  0
  141.4720   80.6270  220.0090 C   0  0  0  0  0  0  0  0  0  0  0  0
  140.9250   80.0230  221.1880 N   0  0  0  0  0  0  0  0  0  0  0  0
  139.5310   80.3010  221.5410 C   0  0  0  0  0  0  0  0  0  0  0  0
  139.1660   79.6320  222.8720 C   0  0  0  0  0  0  0  0  0  0  0  0
  139.7110   78.2580  222.9660 N   0  0  0  0  0  0  0  0  0  0  0  0
  139.0750   77.3060  222.0280 C   0  0  0  0  0  0  0  0  0  0  0  0
  139.9320   76.0980  221.8040 C   0  0  0  0  0  0  0  0  0  0  0  0
  139.5810   74.8990  222.3380 N   0  0  0  0  0  0  0  0  0  0  0  0
  140.3200   73.8120  222.1170 N   0  0  0  0  0  0  0  0  0  0  0  0
  141.4400   73.8690  221.3490 C   0  0  0  0  0  0  0  0  0  0  0  0
  142.2130   72.7390  221.1000 C   0  0  0  0  0  0  0  0  0  0  0  0
  141.8660   71.6300  221.5970 O   0  0  0  0  0  0  0  0  0  0  0  0
  143.3310   72.8350  220.3140 N   0  0  0  0  0  0  0  0  0  0  0  0
  144.1250   71.6310  220.0160 C   0  0  0  0  0  0  0  0  0  0  0  0
  143.6650   74.0380  219.7350 C   0  0  0  0  0  0  0  0  0  0  0  0
  144.6540   74.0990  218.9490 O   0  0  0  0  0  0  0  0  0  0  0  0
  142.9340   75.1720  219.9990 N   0  0  0  0  0  0  0  0  0  0  0  0
  143.2960   76.4540  219.3700 C   0  0  0  0  0  0  0  0  0  0  0  0
  141.8170   75.0920  220.7860 C   0  0  0  0  0  0  0  0  0  0  0  0
  141.0420   76.1850  221.0270 N   0  0  0  0  0  0  0  0  0  0  0  0
  141.1960   78.2190  222.8700 C   0  0  0  0  0  0  0  0  0  0  0  0
  141.8290   79.4500  222.1860 C   0  0  0  0  0  0  0  0  0  0  0  0
  141.1453   82.5228  221.8998 H   0  0  0  0  0  0  0  0  0  0  0  0
  141.3157   83.9342  220.8017 H   0  0  0  0  0  0  0  0  0  0  0  0
  139.7973   82.9744  220.8017 H   0  0  0  0  0  0  0  0  0  0  0  0
  142.0327   83.6803  218.5532 H   0  0  0  0  0  0  0  0  0  0  0  0
  143.0015   82.2119  216.7862 H   0  0  0  0  0  0  0  0  0  0  0  0
  142.9960   79.7346  217.0763 H   0  0  0  0  0  0  0  0  0  0  0  0
  142.0218   78.7181  219.1346 H   0  0  0  0  0  0  0  0  0  0  0  0
  139.3916   81.3882  221.6330 H   0  0  0  0  0  0  0  0  0  0  0  0
  138.8789   79.8984  220.7519 H   0  0  0  0  0  0  0  0  0  0  0  0
  139.5748   80.2342  223.6968 H   0  0  0  0  0  0  0  0  0  0  0  0
  138.0695   79.5693  222.9332 H   0  0  0  0  0  0  0  0  0  0  0  0
  138.1086   76.9859  222.4446 H   0  0  0  0  0  0  0  0  0  0  0  0
  138.9371   77.8143  221.0623 H   0  0  0  0  0  0  0  0  0  0  0  0
  144.4382   71.1561  220.9575 H   0  0  0  0  0  0  0  0  0  0  0  0
  143.5151   70.9244  219.4340 H   0  0  0  0  0  0  0  0  0  0  0  0
  145.0147   71.9133  219.4340 H   0  0  0  0  0  0  0  0  0  0  0  0
  143.5064   77.1992  220.1512 H   0  0  0  0  0  0  0  0  0  0  0  0
  144.1903   76.3160  218.7445 H   0  0  0  0  0  0  0  0  0  0  0  0
  142.4616   76.8041  218.7445 H   0  0  0  0  0  0  0  0  0  0  0  0
  141.6038   78.1453  223.8890 H   0  0  0  0  0  0  0  0  0  0  0  0
  141.4448   77.3512  222.2415 H   0  0  0  0  0  0  0  0  0  0  0  0
  142.0498   80.2108  222.9492 H   0  0  0  0  0  0  0  0  0  0  0  0
  142.7514   79.1311  221.6787 H   0  0  0  0  0  0  0  0  0  0  0  0
  1  2  1  0
  2  3  2  0
  3  4  1  0
  4  5  2  0
  5  6  1  0
  6  7  2  0
  7  8  1  0
  8  9  1  0
  9 10  1  0
 10 11  1  0
 11 12  1  0
 12 13  1  0
 13 14  2  0
 14 15  1  0
 15 16  2  0
 16 17  1  0
 17 18  2  0
 17 19  1  0
 19 20  1  0
 19 21  1  0
 21 22  2  0
 21 23  1  0
 23 24  1  0
 23 25  1  0
 25 26  2  0
 11 27  1  0
 27 28  1  0
  7  2  1  0
 28  8  1  0
 26 13  1  0
 25 16  1  0
  1 29  1  0
  1 30  1  0
  1 31  1  0
  3 32  1  0
  4 33  1  0
  5 34  1  0
  6 35  1  0
  9 36  1  0
  9 37  1  0
 10 38  1  0
 10 39  1  0
 12 40  1  0
 12 41  1  0
 20 42  1  0
 20 43  1  0
 20 44  1  0
 24 45  1  0
 24 46  1  0
 24 47  1  0
 27 48  1  0
 27 49  1  0
 28 50  1  0
 28 51  1  0
M  END
>  <UniqueID>  (17) 
20

>  <SMILES>  (17) 
Cc1ccccc1N1CCN(Cc2nnc3c(=O)n(C)c(=O)n(C)c3n2)CC1

>  <Energy>  (17) 
77.21757867199318

>  <Genealogy>  (17) 
Cc1ccccc1N1CCN(Cc2nnc3c(=O)n(C)c(=O)n(C)c3n2)CC1 (3D coordinates assigned)
Cc1ccccc1N1CCN(Cc2nnc3c(=O)n(C)c(=O)n(C)c3n2)CC1 (nonaromatic ring conformer: 77.21757867199318 kcal/mol)

>  <smiles>  (17) 
Cc1ccccc1N1CCN(Cc2nnc3c(=O)n(C)c(=O)n(C)c3n2)CC1

>  <score_type>  (17) 
oracle

>  <origin>  (17) 
autodockgpu

>  <m_score__min__energy>  (17) 
-7.6600000000000001

>  <m_primary>  (17) 
energy

>  <meeko>  (17) 
{"free_energy": -6.68, "intermolecular_energy": -7.58, "internal_energy": -0.83, "cluster_size": 3, "cluster_id": 5, "rank_in_cluster": 1}

>  <energy>  (17) 
-6.68

>  <cluster_rmsd>  (17) 
0.0

>  <rmsd>  (17) 
269.66

>  <cluster>  (17) 
5

$$$$
IILOZLGKIKELDM-UHFFFAOYNA-N
     RDKit          3D

 51 54  0  0  0  0  0  0  0  0999 V2000
  141.0920   75.9150  221.5480 C   0  0  0  0  0  0  0  0  0  0  0  0
  140.5060   77.1200  222.2300 C   0  0  0  0  0  0  0  0  0  0  0  0
  141.3550   78.1200  222.7350 C   0  0  0  0  0  0  0  0  0  0  0  0
  140.8220   79.2540  223.3530 C   0  0  0  0  0  0  0  0  0  0  0  0
  139.4390   79.4060  223.4650 C   0  0  0  0  0  0  0  0  0  0  0  0
  138.5840   78.4260  222.9560 C   0  0  0  0  0  0  0  0  0  0  0  0
  139.1090   77.2850  222.3320 C   0  0  0  0  0  0  0  0  0  0  0  0
  138.2130   76.2950  221.8090 N   0  0  0  0  0  0  0  0  0  0  0  0
  137.9920   76.2360  220.3630 C   0  0  0  0  0  0  0  0  0  0  0  0
  136.9450   75.1710  220.0170 C   0  0  0  0  0  0  0  0  0  0  0  0
  137.1390   73.9320  220.8040 N   0  0  0  0  0  0  0  0  0  0  0  0
  138.3710   73.1930  220.4440 C   0  0  0  0  0  0  0  0  0  0  0  0
  138.9920   72.5410  221.6410 C   0  0  0  0  0  0  0  0  0  0  0  0
  139.9370   73.1950  222.3660 N   0  0  0  0  0  0  0  0  0  0  0  0
  140.4710   72.6360  223.4520 N   0  0  0  0  0  0  0  0  0  0  0  0
  140.0850   71.4010  223.8670 C   0  0  0  0  0  0  0  0  0  0  0  0
  140.6240   70.8120  225.0060 C   0  0  0  0  0  0  0  0  0  0  0  0
  141.4950   71.4390  225.6740 O   0  0  0  0  0  0  0  0  0  0  0  0
  140.2030   69.5680  225.3980 N   0  0  0  0  0  0  0  0  0  0  0  0
  140.7450   68.9630  226.6270 C   0  0  0  0  0  0  0  0  0  0  0  0
  139.2160   68.9210  224.6910 C   0  0  0  0  0  0  0  0  0  0  0  0
  138.7790   67.8090  225.1050 O   0  0  0  0  0  0  0  0  0  0  0  0
  138.6960   69.4730  223.5440 N   0  0  0  0  0  0  0  0  0  0  0  0
  137.6340   68.7750  222.7980 C   0  0  0  0  0  0  0  0  0  0  0  0
  139.1110   70.7130  223.1390 C   0  0  0  0  0  0  0  0  0  0  0  0
  138.5810   71.3090  222.0360 N   0  0  0  0  0  0  0  0  0  0  0  0
  137.0410   74.1580  222.2720 C   0  0  0  0  0  0  0  0  0  0  0  0
  137.2870   75.6150  222.7160 C   0  0  0  0  0  0  0  0  0  0  0  0
  141.4406   75.1981  222.3059 H   0  0  0  0  0  0  0  0  0  0  0  0
  140.3243   75.4399  220.9196 H   0  0  0  0  0  0  0  0  0  0  0  0
  141.9397   76.2254  220.9196 H   0  0  0  0  0  0  0  0  0  0  0  0
  142.4455   78.0091  222.6431 H   0  0  0  0  0  0  0  0  0  0  0  0
  141.4935   80.0285  223.7520 H   0  0  0  0  0  0  0  0  0  0  0  0
  139.0221   80.2985  223.9546 H   0  0  0  0  0  0  0  0  0  0  0  0
  137.4946   78.5495  223.0449 H   0  0  0  0  0  0  0  0  0  0  0  0
  137.6390   77.2167  220.0115 H   0  0  0  0  0  0  0  0  0  0  0  0
  138.9400   75.9724  219.8712 H   0  0  0  0  0  0  0  0  0  0  0  0
  135.9437   75.5742  220.2290 H   0  0  0  0  0  0  0  0  0  0  0  0
  137.0530   74.9193  218.9516 H   0  0  0  0  0  0  0  0  0  0  0  0
  138.1193   72.4176  219.7054 H   0  0  0  0  0  0  0  0  0  0  0  0
  139.0940   73.9106  220.0290 H   0  0  0  0  0  0  0  0  0  0  0  0
  140.3026   69.4568  227.5047 H   0  0  0  0  0  0  0  0  0  0  0  0
  140.4996   67.8909  226.6470 H   0  0  0  0  0  0  0  0  0  0  0  0
  141.8375   69.0895  226.6470 H   0  0  0  0  0  0  0  0  0  0  0  0
  136.9310   68.3130  223.5068 H   0  0  0  0  0  0  0  0  0  0  0  0
  137.0958   69.4961  222.1652 H   0  0  0  0  0  0  0  0  0  0  0  0
  138.0824   67.9950  222.1652 H   0  0  0  0  0  0  0  0  0  0  0  0
  136.0316   73.8661  222.5973 H   0  0  0  0  0  0  0  0  0  0  0  0
  137.8353   73.5533  222.7340 H   0  0  0  0  0  0  0  0  0  0  0  0
  136.3287   76.1551  222.7218 H   0  0  0  0  0  0  0  0  0  0  0  0
  137.7309   75.6025  223.7224 H   0  0  0  0  0  0  0  0  0  0  0  0
  1  2  1  0
  2  3  2  0
  3  4  1  0
  4  5  2  0
  5  6  1  0
  6  7  2  0
  7  8  1  0
  8  9  1  0
  9 10  1  0
 10 11  1  0
 11 12  1  0
 12 13  1  0
 13 14  2  0
 14 15  1  0
 15 16  2  0
 16 17  1  0
 17 18  2  0
 17 19  1  0
 19 20  1  0
 19 21  1  0
 21 22  2  0
 21 23  1  0
 23 24  1  0
 23 25  1  0
 25 26  2  0
 11 27  1  0
 27 28  1  0
  7  2  1  0
 28  8  1  0
 26 13  1  0
 25 16  1  0
  1 29  1  0
  1 30  1  0
  1 31  1  0
  3 32  1  0
  4 33  1  0
  5 34  1  0
  6 35  1  0
  9 36  1  0
  9 37  1  0
 10 38  1  0
 10 39  1  0
 12 40  1  0
 12 41  1  0
 20 42  1  0
 20 43  1  0
 20 44  1  0
 24 45  1  0
 24 46  1  0
 24 47  1  0
 27 48  1  0
 27 49  1  0
 28 50  1  0
 28 51  1  0
M  END
>  <UniqueID>  (18) 
20

>  <SMILES>  (18) 
Cc1ccccc1N1CCN(Cc2nnc3c(=O)n(C)c(=O)n(C)c3n2)CC1

>  <Energy>  (18) 
77.21757867199318

>  <Genealogy>  (18) 
Cc1ccccc1N1CCN(Cc2nnc3c(=O)n(C)c(=O)n(C)c3n2)CC1 (3D coordinates assigned)
Cc1ccccc1N1CCN(Cc2nnc3c(=O)n(C)c(=O)n(C)c3n2)CC1 (nonaromatic ring conformer: 77.21757867199318 kcal/mol)

>  <smiles>  (18) 
Cc1ccccc1N1CCN(Cc2nnc3c(=O)n(C)c(=O)n(C)c3n2)CC1

>  <score_type>  (18) 
oracle

>  <origin>  (18) 
autodockgpu

>  <m_score__min__energy>  (18) 
-7.6600000000000001

>  <m_primary>  (18) 
energy

>  <meeko>  (18) 
{"free_energy": -6.77, "intermolecular_energy": -7.67, "internal_energy": -1.15, "cluster_size": 4, "cluster_id": 4, "rank_in_cluster": 2}

>  <energy>  (18) 
-6.65

>  <cluster_rmsd>  (18) 
0.91

>  <rmsd>  (18) 
269.86

>  <cluster>  (18) 
5

$$$$
IILOZLGKIKELDM-UHFFFAOYNA-N
     RDKit          3D

 51 54  0  0  0  0  0  0  0  0999 V2000
  140.7980   78.9860  219.7650 C   0  0  0  0  0  0  0  0  0  0  0  0
  141.2470   79.0790  221.1960 C   0  0  0  0  0  0  0  0  0  0  0  0
  141.8310   80.2660  221.6700 C   0  0  0  0  0  0  0  0  0  0  0  0
  142.2360   80.3720  223.0040 C   0  0  0  0  0  0  0  0  0  0  0  0
  142.0530   79.2990  223.8780 C   0  0  0  0  0  0  0  0  0  0  0  0
  141.4620   78.1180  223.4220 C   0  0  0  0  0  0  0  0  0  0  0  0
  141.0510   78.0020  222.0870 C   0  0  0  0  0  0  0  0  0  0  0  0
  140.4390   76.7850  221.6420 N   0  0  0  0  0  0  0  0  0  0  0  0
  140.9860   76.1100  220.4640 C   0  0  0  0  0  0  0  0  0  0  0  0
  140.1440   74.8790  220.1050 C   0  0  0  0  0  0  0  0  0  0  0  0
  139.7580   74.1070  221.3080 N   0  0  0  0  0  0  0  0  0  0  0  0
  140.9010   73.4410  221.9730 C   0  0  0  0  0  0  0  0  0  0  0  0
  140.4650   72.2200  222.7250 C   0  0  0  0  0  0  0  0  0  0  0  0
  139.8860   71.1810  222.0700 N   0  0  0  0  0  0  0  0  0  0  0  0
  139.5240   70.0770  222.7250 N   0  0  0  0  0  0  0  0  0  0  0  0
  139.7280   69.9590  224.0640 C   0  0  0  0  0  0  0  0  0  0  0  0
  139.3680   68.8080  224.7580 C   0  0  0  0  0  0  0  0  0  0  0  0
  138.8390   67.8470  224.1310 O   0  0  0  0  0  0  0  0  0  0  0  0
  139.5970   68.7220  226.1060 N   0  0  0  0  0  0  0  0  0  0  0  0
  139.2530   67.4880  226.8320 C   0  0  0  0  0  0  0  0  0  0  0  0
  140.2230   69.7550  226.7650 C   0  0  0  0  0  0  0  0  0  0  0  0
  140.5010   69.6340  227.9930 O   0  0  0  0  0  0  0  0  0  0  0  0
  140.5540   70.9130  226.1030 N   0  0  0  0  0  0  0  0  0  0  0  0
  141.2300   72.0110  226.8170 C   0  0  0  0  0  0  0  0  0  0  0  0
  140.3270   71.0150  224.7570 C   0  0  0  0  0  0  0  0  0  0  0  0
  140.6880   72.1280  224.0620 N   0  0  0  0  0  0  0  0  0  0  0  0
  138.9480   74.9040  222.2700 C   0  0  0  0  0  0  0  0  0  0  0  0
  139.1050   76.4330  222.1300 C   0  0  0  0  0  0  0  0  0  0  0  0
  139.7213   78.7630  219.7323 H   0  0  0  0  0  0  0  0  0  0  0  0
  140.9898   79.9429  219.2576 H   0  0  0  0  0  0  0  0  0  0  0  0
  141.3542   78.1840  219.2576 H   0  0  0  0  0  0  0  0  0  0  0  0
  141.9704   81.1171  220.9872 H   0  0  0  0  0  0  0  0  0  0  0  0
  142.6993   81.3020  223.3652 H   0  0  0  0  0  0  0  0  0  0  0  0
  142.3744   79.3834  224.9266 H   0  0  0  0  0  0  0  0  0  0  0  0
  141.3186   77.2751  224.1140 H   0  0  0  0  0  0  0  0  0  0  0  0
  140.9848   76.8087  219.6144 H   0  0  0  0  0  0  0  0  0  0  0  0
  142.0123   75.7835  220.6880 H   0  0  0  0  0  0  0  0  0  0  0  0
  139.2320   75.2102  219.5867 H   0  0  0  0  0  0  0  0  0  0  0  0
  140.7504   74.2263  219.4599 H   0  0  0  0  0  0  0  0  0  0  0  0
  141.6364   73.1468  221.2097 H   0  0  0  0  0  0  0  0  0  0  0  0
  141.3422   74.1484  222.6906 H   0  0  0  0  0  0  0  0  0  0  0  0
  139.3047   67.6733  227.9151 H   0  0  0  0  0  0  0  0  0  0  0  0
  138.2335   67.1756  226.5617 H   0  0  0  0  0  0  0  0  0  0  0  0
  139.9639   66.6933  226.5617 H   0  0  0  0  0  0  0  0  0  0  0  0
  141.1348   71.8563  227.9019 H   0  0  0  0  0  0  0  0  0  0  0  0
  142.2947   72.0272  226.5410 H   0  0  0  0  0  0  0  0  0  0  0  0
  140.7650   72.9689  226.5410 H   0  0  0  0  0  0  0  0  0  0  0  0
  137.8881   74.6525  222.1169 H   0  0  0  0  0  0  0  0  0  0  0  0
  139.3125   74.6439  223.2748 H   0  0  0  0  0  0  0  0  0  0  0  0
  138.3528   76.8075  221.4202 H   0  0  0  0  0  0  0  0  0  0  0  0
  138.9644   76.8900  223.1207 H   0  0  0  0  0  0  0  0  0  0  0  0
  1  2  1  0
  2  3  2  0
  3  4  1  0
  4  5  2  0
  5  6  1  0
  6  7  2  0
  7  8  1  0
  8  9  1  0
  9 10  1  0
 10 11  1  0
 11 12  1  0
 12 13  1  0
 13 14  2  0
 14 15  1  0
 15 16  2  0
 16 17  1  0
 17 18  2  0
 17 19  1  0
 19 20  1  0
 19 21  1  0
 21 22  2  0
 21 23  1  0
 23 24  1  0
 23 25  1  0
 25 26  2  0
 11 27  1  0
 27 28  1  0
  7  2  1  0
 28  8  1  0
 26 13  1  0
 25 16  1  0
  1 29  1  0
  1 30  1  0
  1 31  1  0
  3 32  1  0
  4 33  1  0
  5 34  1  0
  6 35  1  0
  9 36  1  0
  9 37  1  0
 10 38  1  0
 10 39  1  0
 12 40  1  0
 12 41  1  0
 20 42  1  0
 20 43  1  0
 20 44  1  0
 24 45  1  0
 24 46  1  0
 24 47  1  0
 27 48  1  0
 27 49  1  0
 28 50  1  0
 28 51  1  0
M  END
>  <UniqueID>  (19) 
20

>  <SMILES>  (19) 
Cc1ccccc1N1CCN(Cc2nnc3c(=O)n(C)c(=O)n(C)c3n2)CC1

>  <Energy>  (19) 
77.21757867199318

>  <Genealogy>  (19) 
Cc1ccccc1N1CCN(Cc2nnc3c(=O)n(C)c(=O)n(C)c3n2)CC1 (3D coordinates assigned)
Cc1ccccc1N1CCN(Cc2nnc3c(=O)n(C)c(=O)n(C)c3n2)CC1 (nonaromatic ring conformer: 77.21757867199318 kcal/mol)

>  <smiles>  (19) 
Cc1ccccc1N1CCN(Cc2nnc3c(=O)n(C)c(=O)n(C)c3n2)CC1

>  <score_type>  (19) 
oracle

>  <origin>  (19) 
autodockgpu

>  <m_score__min__energy>  (19) 
-7.6600000000000001

>  <m_primary>  (19) 
energy

>  <meeko>  (19) 
{"free_energy": -7.55, "intermolecular_energy": -8.45, "internal_energy": -0.56, "cluster_size": 6, "cluster_id": 2, "rank_in_cluster": 1}

>  <energy>  (19) 
-6.65

>  <cluster_rmsd>  (19) 
0.71

>  <rmsd>  (19) 
269.74

>  <cluster>  (19) 
5

$$$$
IILOZLGKIKELDM-UHFFFAOYNA-N
     RDKit          3D

 51 54  0  0  0  0  0  0  0  0999 V2000
  142.3540   75.0960  220.0970 C   0  0  0  0  0  0  0  0  0  0  0  0
  143.6100   74.2720  220.1500 C   0  0  0  0  0  0  0  0  0  0  0  0
  144.8360   74.8840  220.4650 C   0  0  0  0  0  0  0  0  0  0  0  0
  146.0080   74.1260  220.5360 C   0  0  0  0  0  0  0  0  0  0  0  0
  145.9660   72.7500  220.3030 C   0  0  0  0  0  0  0  0  0  0  0  0
  144.7530   72.1280  220.0020 C   0  0  0  0  0  0  0  0  0  0  0  0
  143.5710   72.8790  219.9300 C   0  0  0  0  0  0  0  0  0  0  0  0
  142.3350   72.2180  219.6280 N   0  0  0  0  0  0  0  0  0  0  0  0
  141.8920   71.1210  220.4890 C   0  0  0  0  0  0  0  0  0  0  0  0
  140.5990   70.4970  219.9500 C   0  0  0  0  0  0  0  0  0  0  0  0
  139.6420   71.5280  219.4860 N   0  0  0  0  0  0  0  0  0  0  0  0
  139.0830   72.3500  220.5840 C   0  0  0  0  0  0  0  0  0  0  0  0
  139.5440   71.8640  221.9240 C   0  0  0  0  0  0  0  0  0  0  0  0
  140.2820   72.6700  222.7310 N   0  0  0  0  0  0  0  0  0  0  0  0
  140.6690   72.2590  223.9380 N   0  0  0  0  0  0  0  0  0  0  0  0
  140.3330   71.0250  224.3990 C   0  0  0  0  0  0  0  0  0  0  0  0
  140.7180   70.5880  225.6630 C   0  0  0  0  0  0  0  0  0  0  0  0
  141.3970   71.3560  226.4030 O   0  0  0  0  0  0  0  0  0  0  0  0
  140.3540   69.3410  226.0950 N   0  0  0  0  0  0  0  0  0  0  0  0
  140.7270   68.8950  227.4490 C   0  0  0  0  0  0  0  0  0  0  0  0
  139.5690   68.5370  225.3000 C   0  0  0  0  0  0  0  0  0  0  0  0
  139.1730   67.4200  225.7400 O   0  0  0  0  0  0  0  0  0  0  0  0
  139.2080   68.9380  224.0360 N   0  0  0  0  0  0  0  0  0  0  0  0
  138.3630   68.0740  223.1930 C   0  0  0  0  0  0  0  0  0  0  0  0
  139.5700   70.1810  223.5880 C   0  0  0  0  0  0  0  0  0  0  0  0
  139.1870   70.6280  222.3610 N   0  0  0  0  0  0  0  0  0  0  0  0
  140.1910   72.3730  218.3900 C   0  0  0  0  0  0  0  0  0  0  0  0
  141.7320   72.3970  218.3060 C   0  0  0  0  0  0  0  0  0  0  0  0
  142.0170   75.3171  221.1205 H   0  0  0  0  0  0  0  0  0  0  0  0
  142.5556   76.0379  219.5658 H   0  0  0  0  0  0  0  0  0  0  0  0
  141.5702   74.5360  219.5658 H   0  0  0  0  0  0  0  0  0  0  0  0
  144.8730   75.9665  220.6568 H   0  0  0  0  0  0  0  0  0  0  0  0
  146.9643   74.6139  220.7756 H   0  0  0  0  0  0  0  0  0  0  0  0
  146.8898   72.1553  220.3567 H   0  0  0  0  0  0  0  0  0  0  0  0
  144.7243   71.0435  219.8204 H   0  0  0  0  0  0  0  0  0  0  0  0
  142.6767   70.3510  220.5253 H   0  0  0  0  0  0  0  0  0  0  0  0
  141.6998   71.5179  221.4967 H   0  0  0  0  0  0  0  0  0  0  0  0
  140.8473   69.8363  219.1063 H   0  0  0  0  0  0  0  0  0  0  0  0
  140.1249   69.9337  220.7672 H   0  0  0  0  0  0  0  0  0  0  0  0
  139.4078   73.3925  220.4509 H   0  0  0  0  0  0  0  0  0  0  0  0
  137.9862   72.2735  220.5481 H   0  0  0  0  0  0  0  0  0  0  0  0
  140.2085   69.5150  228.1951 H   0  0  0  0  0  0  0  0  0  0  0  0
  140.4365   67.8423  227.5813 H   0  0  0  0  0  0  0  0  0  0  0  0
  141.8145   68.9947  227.5813 H   0  0  0  0  0  0  0  0  0  0  0  0
  137.7379   67.4348  223.8338 H   0  0  0  0  0  0  0  0  0  0  0  0
  137.7181   68.6991  222.5579 H   0  0  0  0  0  0  0  0  0  0  0  0
  139.0023   67.4431  222.5579 H   0  0  0  0  0  0  0  0  0  0  0  0
  139.8014   71.9912  217.4348 H   0  0  0  0  0  0  0  0  0  0  0  0
  139.8749   73.4046  218.6042 H   0  0  0  0  0  0  0  0  0  0  0  0
  142.0684   71.5848  217.6448 H   0  0  0  0  0  0  0  0  0  0  0  0
  142.0449   73.3739  217.9087 H   0  0  0  0  0  0  0  0  0  0  0  0
  1  2  1  0
  2  3  2  0
  3  4  1  0
  4  5  2  0
  5  6  1  0
  6  7  2  0
  7  8  1  0
  8  9  1  0
  9 10  1  0
 10 11  1  0
 11 12  1  0
 12 13  1  0
 13 14  2  0
 14 15  1  0
 15 16  2  0
 16 17  1  0
 17 18  2  0
 17 19  1  0
 19 20  1  0
 19 21  1  0
 21 22  2  0
 21 23  1  0
 23 24  1  0
 23 25  1  0
 25 26  2  0
 11 27  1  0
 27 28  1  0
  7  2  1  0
 28  8  1  0
 26 13  1  0
 25 16  1  0
  1 29  1  0
  1 30  1  0
  1 31  1  0
  3 32  1  0
  4 33  1  0
  5 34  1  0
  6 35  1  0
  9 36  1  0
  9 37  1  0
 10 38  1  0
 10 39  1  0
 12 40  1  0
 12 41  1  0
 20 42  1  0
 20 43  1  0
 20 44  1  0
 24 45  1  0
 24 46  1  0
 24 47  1  0
 27 48  1  0
 27 49  1  0
 28 50  1  0
 28 51  1  0
M  END
>  <UniqueID>  (20) 
20

>  <SMILES>  (20) 
Cc1ccccc1N1CCN(Cc2nnc3c(=O)n(C)c(=O)n(C)c3n2)CC1

>  <Energy>  (20) 
77.21757867199318

>  <Genealogy>  (20) 
Cc1ccccc1N1CCN(Cc2nnc3c(=O)n(C)c(=O)n(C)c3n2)CC1 (3D coordinates assigned)
Cc1ccccc1N1CCN(Cc2nnc3c(=O)n(C)c(=O)n(C)c3n2)CC1 (nonaromatic ring conformer: 77.21757867199318 kcal/mol)

>  <smiles>  (20) 
Cc1ccccc1N1CCN(Cc2nnc3c(=O)n(C)c(=O)n(C)c3n2)CC1

>  <score_type>  (20) 
oracle

>  <origin>  (20) 
autodockgpu

>  <m_score__min__energy>  (20) 
-7.6600000000000001

>  <m_primary>  (20) 
energy

>  <meeko>  (20) 
{"free_energy": -6.97, "intermolecular_energy": -7.86, "internal_energy": -0.76, "cluster_size": 1, "cluster_id": 3, "rank_in_cluster": 1}

>  <energy>  (20) 
-6.66

>  <cluster_rmsd>  (20) 
0.0

>  <rmsd>  (20) 
269.54

>  <cluster>  (20) 
6

$$$$
IILOZLGKIKELDM-UHFFFAOYNA-N
     RDKit          3D

 51 54  0  0  0  0  0  0  0  0999 V2000
  137.2060   78.5680  222.5980 C   0  0  0  0  0  0  0  0  0  0  0  0
  138.6850   78.3240  222.7140 C   0  0  0  0  0  0  0  0  0  0  0  0
  139.5040   79.2800  223.3420 C   0  0  0  0  0  0  0  0  0  0  0  0
  140.8770   79.0570  223.4740 C   0  0  0  0  0  0  0  0  0  0  0  0
  141.4440   77.8760  222.9910 C   0  0  0  0  0  0  0  0  0  0  0  0
  140.6400   76.9130  222.3770 C   0  0  0  0  0  0  0  0  0  0  0  0
  139.2600   77.1260  222.2420 C   0  0  0  0  0  0  0  0  0  0  0  0
  138.4520   76.1210  221.6160 N   0  0  0  0  0  0  0  0  0  0  0  0
  138.4020   76.0650  220.1540 C   0  0  0  0  0  0  0  0  0  0  0  0
  137.4230   74.9820  219.6870 C   0  0  0  0  0  0  0  0  0  0  0  0
  137.5480   73.7430  220.4880 N   0  0  0  0  0  0  0  0  0  0  0  0
  138.8280   73.0290  220.2730 C   0  0  0  0  0  0  0  0  0  0  0  0
  139.3440   72.4280  221.5440 C   0  0  0  0  0  0  0  0  0  0  0  0
  140.1970   73.1270  222.3370 N   0  0  0  0  0  0  0  0  0  0  0  0
  140.6360   72.6140  223.4870 N   0  0  0  0  0  0  0  0  0  0  0  0
  140.2400   71.3810  223.9000 C   0  0  0  0  0  0  0  0  0  0  0  0
  140.6800   70.8390  225.1040 C   0  0  0  0  0  0  0  0  0  0  0  0
  141.4660   71.5070  225.8330 O   0  0  0  0  0  0  0  0  0  0  0  0
  140.2520   69.5970  225.4910 N   0  0  0  0  0  0  0  0  0  0  0  0
  140.6850   69.0410  226.7840 C   0  0  0  0  0  0  0  0  0  0  0  0
  139.3540   68.9040  224.7120 C   0  0  0  0  0  0  0  0  0  0  0  0
  138.9050   67.7930  225.1160 O   0  0  0  0  0  0  0  0  0  0  0  0
  138.9350   69.4080  223.5040 N   0  0  0  0  0  0  0  0  0  0  0  0
  137.9690   68.6620  222.6800 C   0  0  0  0  0  0  0  0  0  0  0  0
  139.3580   70.6470  223.1020 C   0  0  0  0  0  0  0  0  0  0  0  0
  138.9250   71.1970  221.9350 N   0  0  0  0  0  0  0  0  0  0  0  0
  137.2750   73.9610  221.9350 C   0  0  0  0  0  0  0  0  0  0  0  0
  137.4390   75.4210  222.4080 C   0  0  0  0  0  0  0  0  0  0  0  0
  136.7664   78.6405  223.6037 H   0  0  0  0  0  0  0  0  0  0  0  0
  137.0310   79.5072  222.0527 H   0  0  0  0  0  0  0  0  0  0  0  0
  136.7386   77.7348  222.0527 H   0  0  0  0  0  0  0  0  0  0  0  0
  139.0609   80.2085  223.7314 H   0  0  0  0  0  0  0  0  0  0  0  0
  141.5121   79.8129  223.9591 H   0  0  0  0  0  0  0  0  0  0  0  0
  142.5255   77.7038  223.0942 H   0  0  0  0  0  0  0  0  0  0  0  0
  141.0906   75.9839  221.9978 H   0  0  0  0  0  0  0  0  0  0  0  0
  138.0733   77.0405  219.7662 H   0  0  0  0  0  0  0  0  0  0  0  0
  139.4056   75.8222  219.7746 H   0  0  0  0  0  0  0  0  0  0  0  0
  136.3964   75.3653  219.7826 H   0  0  0  0  0  0  0  0  0  0  0  0
  137.6588   74.7372  218.6408 H   0  0  0  0  0  0  0  0  0  0  0  0
  138.6701   72.2268  219.5371 H   0  0  0  0  0  0  0  0  0  0  0  0
  139.5702   73.7549  219.9094 H   0  0  0  0  0  0  0  0  0  0  0  0
  140.2333   69.6210  227.6023 H   0  0  0  0  0  0  0  0  0  0  0  0
  140.3640   67.9915  226.8578 H   0  0  0  0  0  0  0  0  0  0  0  0
  141.7812   69.0952  226.8578 H   0  0  0  0  0  0  0  0  0  0  0  0
  137.2692   68.1216  223.3344 H   0  0  0  0  0  0  0  0  0  0  0  0
  137.4092   69.3645  222.0451 H   0  0  0  0  0  0  0  0  0  0  0  0
  138.5071   67.9427  222.0451 H   0  0  0  0  0  0  0  0  0  0  0  0
  136.2404   73.6484  222.1396 H   0  0  0  0  0  0  0  0  0  0  0  0
  138.0218   73.3698  222.4852 H   0  0  0  0  0  0  0  0  0  0  0  0
  136.4765   75.9431  222.3025 H   0  0  0  0  0  0  0  0  0  0  0  0
  137.7615   75.4134  223.4596 H   0  0  0  0  0  0  0  0  0  0  0  0
  1  2  1  0
  2  3  2  0
  3  4  1  0
  4  5  2  0
  5  6  1  0
  6  7  2  0
  7  8  1  0
  8  9  1  0
  9 10  1  0
 10 11  1  0
 11 12  1  0
 12 13  1  0
 13 14  2  0
 14 15  1  0
 15 16  2  0
 16 17  1  0
 17 18  2  0
 17 19  1  0
 19 20  1  0
 19 21  1  0
 21 22  2  0
 21 23  1  0
 23 24  1  0
 23 25  1  0
 25 26  2  0
 11 27  1  0
 27 28  1  0
  7  2  1  0
 28  8  1  0
 26 13  1  0
 25 16  1  0
  1 29  1  0
  1 30  1  0
  1 31  1  0
  3 32  1  0
  4 33  1  0
  5 34  1  0
  6 35  1  0
  9 36  1  0
  9 37  1  0
 10 38  1  0
 10 39  1  0
 12 40  1  0
 12 41  1  0
 20 42  1  0
 20 43  1  0
 20 44  1  0
 24 45  1  0
 24 46  1  0
 24 47  1  0
 27 48  1  0
 27 49  1  0
 28 50  1  0
 28 51  1  0
M  END
>  <UniqueID>  (21) 
21

>  <SMILES>  (21) 
Cc1ccccc1N1CCN(Cc2nnc3c(=O)n(C)c(=O)n(C)c3n2)CC1

>  <Energy>  (21) 
78.4361053943944

>  <Genealogy>  (21) 
Cc1ccccc1N1CCN(Cc2nnc3c(=O)n(C)c(=O)n(C)c3n2)CC1 (3D coordinates assigned)
Cc1ccccc1N1CCN(Cc2nnc3c(=O)n(C)c(=O)n(C)c3n2)CC1 (nonaromatic ring conformer: 78.4361053943944 kcal/mol)

>  <smiles>  (21) 
Cc1ccccc1N1CCN(Cc2nnc3c(=O)n(C)c(=O)n(C)c3n2)CC1

>  <score_type>  (21) 
oracle

>  <origin>  (21) 
autodockgpu

>  <m_score__min__energy>  (21) 
-7.6600000000000001

>  <m_primary>  (21) 
energy

>  <meeko>  (21) 
{"free_energy": -6.66, "intermolecular_energy": -7.55, "internal_energy": -1.03, "cluster_size": 4, "cluster_id": 4, "rank_in_cluster": 4}

>  <energy>  (21) 
-7.66

>  <cluster_rmsd>  (21) 
0.0

>  <rmsd>  (21) 
269.5

>  <cluster>  (21) 
1

$$$$
IILOZLGKIKELDM-UHFFFAOYNA-N
     RDKit          3D

 51 54  0  0  0  0  0  0  0  0999 V2000
  141.2570   75.5350  221.5920 C   0  0  0  0  0  0  0  0  0  0  0  0
  140.4340   76.6700  222.1340 C   0  0  0  0  0  0  0  0  0  0  0  0
  141.0720   77.8030  222.6710 C   0  0  0  0  0  0  0  0  0  0  0  0
  140.3170   78.8730  223.1610 C   0  0  0  0  0  0  0  0  0  0  0  0
  138.9230   78.8280  223.1110 C   0  0  0  0  0  0  0  0  0  0  0  0
  138.2780   77.7140  222.5690 C   0  0  0  0  0  0  0  0  0  0  0  0
  139.0250   76.6350  222.0720 C   0  0  0  0  0  0  0  0  0  0  0  0
  138.3430   75.5060  221.5120 N   0  0  0  0  0  0  0  0  0  0  0  0
  138.3990   75.2940  220.0650 C   0  0  0  0  0  0  0  0  0  0  0  0
  137.5430   74.0880  219.6600 C   0  0  0  0  0  0  0  0  0  0  0  0
  137.7100   72.9540  220.5980 N   0  0  0  0  0  0  0  0  0  0  0  0
  139.0540   72.3350  220.5390 C   0  0  0  0  0  0  0  0  0  0  0  0
  139.4990   71.8570  221.8870 C   0  0  0  0  0  0  0  0  0  0  0  0
  140.2130   72.6740  222.7040 N   0  0  0  0  0  0  0  0  0  0  0  0
  140.5850   72.2700  223.9190 N   0  0  0  0  0  0  0  0  0  0  0  0
  140.2590   71.0320  224.3750 C   0  0  0  0  0  0  0  0  0  0  0  0
  140.6300   70.6010  225.6450 C   0  0  0  0  0  0  0  0  0  0  0  0
  141.2850   71.3790  226.3960 O   0  0  0  0  0  0  0  0  0  0  0  0
  140.2760   69.3490  226.0740 N   0  0  0  0  0  0  0  0  0  0  0  0
  140.6330   68.9100  227.4340 C   0  0  0  0  0  0  0  0  0  0  0  0
  139.5160   68.5340  225.2660 C   0  0  0  0  0  0  0  0  0  0  0  0
  139.1280   67.4120  225.7010 O   0  0  0  0  0  0  0  0  0  0  0  0
  139.1700   68.9290  223.9960 N   0  0  0  0  0  0  0  0  0  0  0  0
  138.3510   68.0520  223.1410 C   0  0  0  0  0  0  0  0  0  0  0  0
  139.5210   70.1760  223.5530 C   0  0  0  0  0  0  0  0  0  0  0  0
  139.1530   70.6170  222.3190 N   0  0  0  0  0  0  0  0  0  0  0  0
  137.3210   73.2970  221.9930 C   0  0  0  0  0  0  0  0  0  0  0  0
  137.3370   74.8070  222.3130 C   0  0  0  0  0  0  0  0  0  0  0  0
  141.6773   74.9554  222.4271 H   0  0  0  0  0  0  0  0  0  0  0  0
  140.6209   74.8823  220.9761 H   0  0  0  0  0  0  0  0  0  0  0  0
  142.0751   75.9367  220.9761 H   0  0  0  0  0  0  0  0  0  0  0  0
  142.1706   77.8474  222.7056 H   0  0  0  0  0  0  0  0  0  0  0  0
  140.8228   79.7521  223.5868 H   0  0  0  0  0  0  0  0  0  0  0  0
  138.3317   79.6706  223.4988 H   0  0  0  0  0  0  0  0  0  0  0  0
  137.1791   77.6823  222.5315 H   0  0  0  0  0  0  0  0  0  0  0  0
  138.0223   76.1921  219.5537 H   0  0  0  0  0  0  0  0  0  0  0  0
  139.4425   75.0997  219.7763 H   0  0  0  0  0  0  0  0  0  0  0  0
  136.4851   74.3894  219.6508 H   0  0  0  0  0  0  0  0  0  0  0  0
  137.8690   73.7572  218.6628 H   0  0  0  0  0  0  0  0  0  0  0  0
  139.0231   71.4791  219.8487 H   0  0  0  0  0  0  0  0  0  0  0  0
  139.7684   73.0949  220.1896 H   0  0  0  0  0  0  0  0  0  0  0  0
  140.1177   69.5436  228.1709 H   0  0  0  0  0  0  0  0  0  0  0  0
  140.3271   67.8626  227.5734 H   0  0  0  0  0  0  0  0  0  0  0  0
  141.7207   68.9959  227.5734 H   0  0  0  0  0  0  0  0  0  0  0  0
  137.7364   67.3939  223.7729 H   0  0  0  0  0  0  0  0  0  0  0  0
  137.6961   68.6667  222.5059 H   0  0  0  0  0  0  0  0  0  0  0  0
  139.0090   67.4407  222.5059 H   0  0  0  0  0  0  0  0  0  0  0  0
  136.3023   72.9203  222.1673 H   0  0  0  0  0  0  0  0  0  0  0  0
  138.0718   72.8319  222.6488 H   0  0  0  0  0  0  0  0  0  0  0  0
  136.3458   75.2309  222.0941 H   0  0  0  0  0  0  0  0  0  0  0  0
  137.5869   74.9356  223.3765 H   0  0  0  0  0  0  0  0  0  0  0  0
  1  2  1  0
  2  3  2  0
  3  4  1  0
  4  5  2  0
  5  6  1  0
  6  7  2  0
  7  8  1  0
  8  9  1  0
  9 10  1  0
 10 11  1  0
 11 12  1  0
 12 13  1  0
 13 14  2  0
 14 15  1  0
 15 16  2  0
 16 17  1  0
 17 18  2  0
 17 19  1  0
 19 20  1  0
 19 21  1  0
 21 22  2  0
 21 23  1  0
 23 24  1  0
 23 25  1  0
 25 26  2  0
 11 27  1  0
 27 28  1  0
  7  2  1  0
 28  8  1  0
 26 13  1  0
 25 16  1  0
  1 29  1  0
  1 30  1  0
  1 31  1  0
  3 32  1  0
  4 33  1  0
  5 34  1  0
  6 35  1  0
  9 36  1  0
  9 37  1  0
 10 38  1  0
 10 39  1  0
 12 40  1  0
 12 41  1  0
 20 42  1  0
 20 43  1  0
 20 44  1  0
 24 45  1  0
 24 46  1  0
 24 47  1  0
 27 48  1  0
 27 49  1  0
 28 50  1  0
 28 51  1  0
M  END
>  <UniqueID>  (22) 
21

>  <SMILES>  (22) 
Cc1ccccc1N1CCN(Cc2nnc3c(=O)n(C)c(=O)n(C)c3n2)CC1

>  <Energy>  (22) 
78.4361053943944

>  <Genealogy>  (22) 
Cc1ccccc1N1CCN(Cc2nnc3c(=O)n(C)c(=O)n(C)c3n2)CC1 (3D coordinates assigned)
Cc1ccccc1N1CCN(Cc2nnc3c(=O)n(C)c(=O)n(C)c3n2)CC1 (nonaromatic ring conformer: 78.4361053943944 kcal/mol)

>  <smiles>  (22) 
Cc1ccccc1N1CCN(Cc2nnc3c(=O)n(C)c(=O)n(C)c3n2)CC1

>  <score_type>  (22) 
oracle

>  <origin>  (22) 
autodockgpu

>  <m_score__min__energy>  (22) 
-7.6600000000000001

>  <m_primary>  (22) 
energy

>  <meeko>  (22) 
{"free_energy": -6.84, "intermolecular_energy": -7.73, "internal_energy": -1.14, "cluster_size": 6, "cluster_id": 2, "rank_in_cluster": 4}

>  <energy>  (22) 
-7.65

>  <cluster_rmsd>  (22) 
0.03

>  <rmsd>  (22) 
269.49

>  <cluster>  (22) 
1

$$$$
IILOZLGKIKELDM-UHFFFAOYNA-N
     RDKit          3D

 51 54  0  0  0  0  0  0  0  0999 V2000
  141.2860   75.5080  221.6050 C   0  0  0  0  0  0  0  0  0  0  0  0
  140.4710   76.6480  222.1490 C   0  0  0  0  0  0  0  0  0  0  0  0
  141.1170   77.7750  222.6880 C   0  0  0  0  0  0  0  0  0  0  0  0
  140.3710   78.8500  223.1790 C   0  0  0  0  0  0  0  0  0  0  0  0
  138.9760   78.8150  223.1290 C   0  0  0  0  0  0  0  0  0  0  0  0
  138.3230   77.7070  222.5850 C   0  0  0  0  0  0  0  0  0  0  0  0
  139.0620   76.6240  222.0870 C   0  0  0  0  0  0  0  0  0  0  0  0
  138.3720   75.5010  221.5250 N   0  0  0  0  0  0  0  0  0  0  0  0
  138.4240   75.2920  220.0770 C   0  0  0  0  0  0  0  0  0  0  0  0
  137.5590   74.0930  219.6700 C   0  0  0  0  0  0  0  0  0  0  0  0
  137.7200   72.9560  220.6050 N   0  0  0  0  0  0  0  0  0  0  0  0
  139.0600   72.3280  220.5430 C   0  0  0  0  0  0  0  0  0  0  0  0
  139.5060   71.8500  221.8910 C   0  0  0  0  0  0  0  0  0  0  0  0
  140.2170   72.6690  222.7090 N   0  0  0  0  0  0  0  0  0  0  0  0
  140.5920   72.2650  223.9220 N   0  0  0  0  0  0  0  0  0  0  0  0
  140.2690   71.0250  224.3780 C   0  0  0  0  0  0  0  0  0  0  0  0
  140.6410   70.5950  225.6480 C   0  0  0  0  0  0  0  0  0  0  0  0
  141.2940   71.3740  226.3990 O   0  0  0  0  0  0  0  0  0  0  0  0
  140.2910   69.3420  226.0760 N   0  0  0  0  0  0  0  0  0  0  0  0
  140.6490   68.9020  227.4350 C   0  0  0  0  0  0  0  0  0  0  0  0
  139.5330   68.5250  225.2680 C   0  0  0  0  0  0  0  0  0  0  0  0
  139.1480   67.4010  225.7010 O   0  0  0  0  0  0  0  0  0  0  0  0
  139.1860   68.9200  223.9970 N   0  0  0  0  0  0  0  0  0  0  0  0
  138.3690   68.0410  223.1420 C   0  0  0  0  0  0  0  0  0  0  0  0
  139.5340   70.1680  223.5550 C   0  0  0  0  0  0  0  0  0  0  0  0
  139.1640   70.6080  222.3220 N   0  0  0  0  0  0  0  0  0  0  0  0
  137.3350   73.2980  222.0020 C   0  0  0  0  0  0  0  0  0  0  0  0
  137.3620   74.8070  222.3250 C   0  0  0  0  0  0  0  0  0  0  0  0
  141.7031   74.9246  222.4391 H   0  0  0  0  0  0  0  0  0  0  0  0
  140.6450   74.8603  220.9889 H   0  0  0  0  0  0  0  0  0  0  0  0
  142.1063   75.9049  220.9889 H   0  0  0  0  0  0  0  0  0  0  0  0
  142.2159   77.8106  222.7233 H   0  0  0  0  0  0  0  0  0  0  0  0
  140.8835   79.7249  223.6054 H   0  0  0  0  0  0  0  0  0  0  0  0
  138.3908   79.6611  223.5185 H   0  0  0  0  0  0  0  0  0  0  0  0
  137.2239   77.6835  222.5469 H   0  0  0  0  0  0  0  0  0  0  0  0
  138.0527   76.1940  219.5686 H   0  0  0  0  0  0  0  0  0  0  0  0
  139.4657   75.0909  219.7863 H   0  0  0  0  0  0  0  0  0  0  0  0
  136.5032   74.4016  219.6632 H   0  0  0  0  0  0  0  0  0  0  0  0
  137.8808   73.7626  218.6714 H   0  0  0  0  0  0  0  0  0  0  0  0
  139.0214   71.4708  219.8547 H   0  0  0  0  0  0  0  0  0  0  0  0
  139.7783   73.0824  220.1896 H   0  0  0  0  0  0  0  0  0  0  0  0
  140.1341   69.5348  228.1728 H   0  0  0  0  0  0  0  0  0  0  0  0
  140.3435   67.8544  227.5736 H   0  0  0  0  0  0  0  0  0  0  0  0
  141.7368   68.9881  227.5736 H   0  0  0  0  0  0  0  0  0  0  0  0
  137.7560   67.3815  223.7739 H   0  0  0  0  0  0  0  0  0  0  0  0
  137.7127   68.6541  222.5069 H   0  0  0  0  0  0  0  0  0  0  0  0
  139.0284   67.4312  222.5069 H   0  0  0  0  0  0  0  0  0  0  0  0
  136.3140   72.9280  222.1768 H   0  0  0  0  0  0  0  0  0  0  0  0
  138.0830   72.8259  222.6559 H   0  0  0  0  0  0  0  0  0  0  0  0
  136.3736   75.2382  222.1078 H   0  0  0  0  0  0  0  0  0  0  0  0
  137.6140   74.9313  223.3885 H   0  0  0  0  0  0  0  0  0  0  0  0
  1  2  1  0
  2  3  2  0
  3  4  1  0
  4  5  2  0
  5  6  1  0
  6  7  2  0
  7  8  1  0
  8  9  1  0
  9 10  1  0
 10 11  1  0
 11 12  1  0
 12 13  1  0
 13 14  2  0
 14 15  1  0
 15 16  2  0
 16 17  1  0
 17 18  2  0
 17 19  1  0
 19 20  1  0
 19 21  1  0
 21 22  2  0
 21 23  1  0
 23 24  1  0
 23 25  1  0
 25 26  2  0
 11 27  1  0
 27 28  1  0
  7  2  1  0
 28  8  1  0
 26 13  1  0
 25 16  1  0
  1 29  1  0
  1 30  1  0
  1 31  1  0
  3 32  1  0
  4 33  1  0
  5 34  1  0
  6 35  1  0
  9 36  1  0
  9 37  1  0
 10 38  1  0
 10 39  1  0
 12 40  1  0
 12 41  1  0
 20 42  1  0
 20 43  1  0
 20 44  1  0
 24 45  1  0
 24 46  1  0
 24 47  1  0
 27 48  1  0
 27 49  1  0
 28 50  1  0
 28 51  1  0
M  END
>  <UniqueID>  (23) 
21

>  <SMILES>  (23) 
Cc1ccccc1N1CCN(Cc2nnc3c(=O)n(C)c(=O)n(C)c3n2)CC1

>  <Energy>  (23) 
78.4361053943944

>  <Genealogy>  (23) 
Cc1ccccc1N1CCN(Cc2nnc3c(=O)n(C)c(=O)n(C)c3n2)CC1 (3D coordinates assigned)
Cc1ccccc1N1CCN(Cc2nnc3c(=O)n(C)c(=O)n(C)c3n2)CC1 (nonaromatic ring conformer: 78.4361053943944 kcal/mol)

>  <smiles>  (23) 
Cc1ccccc1N1CCN(Cc2nnc3c(=O)n(C)c(=O)n(C)c3n2)CC1

>  <score_type>  (23) 
oracle

>  <origin>  (23) 
autodockgpu

>  <m_score__min__energy>  (23) 
-7.6600000000000001

>  <m_primary>  (23) 
energy

>  <meeko>  (23) 
{"free_energy": -6.83, "intermolecular_energy": -7.73, "internal_energy": -1.14, "cluster_size": 6, "cluster_id": 2, "rank_in_cluster": 5}

>  <energy>  (23) 
-7.65

>  <cluster_rmsd>  (23) 
0.06

>  <rmsd>  (23) 
269.5

>  <cluster>  (23) 
1

$$$$
IILOZLGKIKELDM-UHFFFAOYNA-N
     RDKit          3D

 51 54  0  0  0  0  0  0  0  0999 V2000
  141.2820   75.5620  221.6020 C   0  0  0  0  0  0  0  0  0  0  0  0
  140.4600   76.6960  222.1480 C   0  0  0  0  0  0  0  0  0  0  0  0
  141.0990   77.8300  222.6810 C   0  0  0  0  0  0  0  0  0  0  0  0
  140.3460   78.8990  223.1740 C   0  0  0  0  0  0  0  0  0  0  0  0
  138.9520   78.8530  223.1300 C   0  0  0  0  0  0  0  0  0  0  0  0
  138.3050   77.7380  222.5910 C   0  0  0  0  0  0  0  0  0  0  0  0
  139.0510   76.6600  222.0920 C   0  0  0  0  0  0  0  0  0  0  0  0
  138.3680   75.5290  221.5360 N   0  0  0  0  0  0  0  0  0  0  0  0
  138.4090   75.3230  220.0870 C   0  0  0  0  0  0  0  0  0  0  0  0
  137.5530   74.1150  219.6870 C   0  0  0  0  0  0  0  0  0  0  0  0
  137.7360   72.9790  220.6190 N   0  0  0  0  0  0  0  0  0  0  0  0
  139.0810   72.3650  220.5430 C   0  0  0  0  0  0  0  0  0  0  0  0
  139.5370   71.8710  221.8820 C   0  0  0  0  0  0  0  0  0  0  0  0
  140.2710   72.6730  222.6960 N   0  0  0  0  0  0  0  0  0  0  0  0
  140.6540   72.2540  223.9030 N   0  0  0  0  0  0  0  0  0  0  0  0
  140.3180   71.0170  224.3540 C   0  0  0  0  0  0  0  0  0  0  0  0
  140.6990   70.5720  225.6160 C   0  0  0  0  0  0  0  0  0  0  0  0
  141.3730   71.3350  226.3640 O   0  0  0  0  0  0  0  0  0  0  0  0
  140.3340   69.3210  226.0390 N   0  0  0  0  0  0  0  0  0  0  0  0
  140.7020   68.8670  227.3910 C   0  0  0  0  0  0  0  0  0  0  0  0
  139.5530   68.5230  225.2350 C   0  0  0  0  0  0  0  0  0  0  0  0
  139.1560   67.4020  225.6660 O   0  0  0  0  0  0  0  0  0  0  0  0
  139.1970   68.9320  223.9720 N   0  0  0  0  0  0  0  0  0  0  0  0
  138.3560   68.0710  223.1210 C   0  0  0  0  0  0  0  0  0  0  0  0
  139.5580   70.1770  223.5340 C   0  0  0  0  0  0  0  0  0  0  0  0
  139.1800   70.6320  222.3090 N   0  0  0  0  0  0  0  0  0  0  0  0
  137.3600   73.3150  222.0200 C   0  0  0  0  0  0  0  0  0  0  0  0
  137.3730   74.8230  222.3450 C   0  0  0  0  0  0  0  0  0  0  0  0
  141.7036   74.9804  222.4351 H   0  0  0  0  0  0  0  0  0  0  0  0
  140.6448   74.9108  220.9857 H   0  0  0  0  0  0  0  0  0  0  0  0
  142.0992   75.9650  220.9857 H   0  0  0  0  0  0  0  0  0  0  0  0
  142.1977   77.8756  222.7099 H   0  0  0  0  0  0  0  0  0  0  0  0
  140.8531   79.7785  223.5976 H   0  0  0  0  0  0  0  0  0  0  0  0
  138.3619   79.6954  223.5201 H   0  0  0  0  0  0  0  0  0  0  0  0
  137.2060   77.7054  222.5579 H   0  0  0  0  0  0  0  0  0  0  0  0
  138.0232   76.2216  219.5834 H   0  0  0  0  0  0  0  0  0  0  0  0
  139.4500   75.1342  219.7859 H   0  0  0  0  0  0  0  0  0  0  0  0
  136.4939   74.4120  219.6912 H   0  0  0  0  0  0  0  0  0  0  0  0
  137.8681   73.7893  218.6847 H   0  0  0  0  0  0  0  0  0  0  0  0
  139.0478   71.5179  219.8421 H   0  0  0  0  0  0  0  0  0  0  0  0
  139.7907   73.1316  220.1986 H   0  0  0  0  0  0  0  0  0  0  0  0
  140.1942   69.4935  228.1391 H   0  0  0  0  0  0  0  0  0  0  0  0
  140.3956   67.8187  227.5218 H   0  0  0  0  0  0  0  0  0  0  0  0
  141.7910   68.9498  227.5218 H   0  0  0  0  0  0  0  0  0  0  0  0
  137.7284   67.4285  223.7561 H   0  0  0  0  0  0  0  0  0  0  0  0
  137.7135   68.6986  222.4859 H   0  0  0  0  0  0  0  0  0  0  0  0
  138.9985   67.4434  222.4859 H   0  0  0  0  0  0  0  0  0  0  0  0
  136.3448   72.9333  222.2036 H   0  0  0  0  0  0  0  0  0  0  0  0
  138.1194   72.8505  222.6662 H   0  0  0  0  0  0  0  0  0  0  0  0
  136.3779   75.2435  222.1378 H   0  0  0  0  0  0  0  0  0  0  0  0
  137.6333   74.9489  223.4063 H   0  0  0  0  0  0  0  0  0  0  0  0
  1  2  1  0
  2  3  2  0
  3  4  1  0
  4  5  2  0
  5  6  1  0
  6  7  2  0
  7  8  1  0
  8  9  1  0
  9 10  1  0
 10 11  1  0
 11 12  1  0
 12 13  1  0
 13 14  2  0
 14 15  1  0
 15 16  2  0
 16 17  1  0
 17 18  2  0
 17 19  1  0
 19 20  1  0
 19 21  1  0
 21 22  2  0
 21 23  1  0
 23 24  1  0
 23 25  1  0
 25 26  2  0
 11 27  1  0
 27 28  1  0
  7  2  1  0
 28  8  1  0
 26 13  1  0
 25 16  1  0
  1 29  1  0
  1 30  1  0
  1 31  1  0
  3 32  1  0
  4 33  1  0
  5 34  1  0
  6 35  1  0
  9 36  1  0
  9 37  1  0
 10 38  1  0
 10 39  1  0
 12 40  1  0
 12 41  1  0
 20 42  1  0
 20 43  1  0
 20 44  1  0
 24 45  1  0
 24 46  1  0
 24 47  1  0
 27 48  1  0
 27 49  1  0
 28 50  1  0
 28 51  1  0
M  END
>  <UniqueID>  (24) 
21

>  <SMILES>  (24) 
Cc1ccccc1N1CCN(Cc2nnc3c(=O)n(C)c(=O)n(C)c3n2)CC1

>  <Energy>  (24) 
78.4361053943944

>  <Genealogy>  (24) 
Cc1ccccc1N1CCN(Cc2nnc3c(=O)n(C)c(=O)n(C)c3n2)CC1 (3D coordinates assigned)
Cc1ccccc1N1CCN(Cc2nnc3c(=O)n(C)c(=O)n(C)c3n2)CC1 (nonaromatic ring conformer: 78.4361053943944 kcal/mol)

>  <smiles>  (24) 
Cc1ccccc1N1CCN(Cc2nnc3c(=O)n(C)c(=O)n(C)c3n2)CC1

>  <score_type>  (24) 
oracle

>  <origin>  (24) 
autodockgpu

>  <m_score__min__energy>  (24) 
-7.6600000000000001

>  <m_primary>  (24) 
energy

>  <meeko>  (24) 
{"free_energy": -6.84, "intermolecular_energy": -7.73, "internal_energy": -1.14, "cluster_size": 6, "cluster_id": 2, "rank_in_cluster": 2}

>  <energy>  (24) 
-7.62

>  <cluster_rmsd>  (24) 
0.1

>  <rmsd>  (24) 
269.5

>  <cluster>  (24) 
1

$$$$
IILOZLGKIKELDM-UHFFFAOYNA-N
     RDKit          3D

 51 54  0  0  0  0  0  0  0  0999 V2000
  141.4360   80.0170  219.9630 C   0  0  0  0  0  0  0  0  0  0  0  0
  141.7070   79.8790  221.4350 C   0  0  0  0  0  0  0  0  0  0  0  0
  142.3590   80.9160  222.1260 C   0  0  0  0  0  0  0  0  0  0  0  0
  142.6000   80.8080  223.4990 C   0  0  0  0  0  0  0  0  0  0  0  0
  142.1840   79.6720  224.1950 C   0  0  0  0  0  0  0  0  0  0  0  0
  141.5250   78.6410  223.5230 C   0  0  0  0  0  0  0  0  0  0  0  0
  141.2760   78.7400  222.1460 C   0  0  0  0  0  0  0  0  0  0  0  0
  140.5900   77.6740  221.4770 N   0  0  0  0  0  0  0  0  0  0  0  0
  141.3620   76.7530  220.6410 C   0  0  0  0  0  0  0  0  0  0  0  0
  140.4370   75.7420  219.9520 C   0  0  0  0  0  0  0  0  0  0  0  0
  139.3920   75.2350  220.8710 N   0  0  0  0  0  0  0  0  0  0  0  0
  139.9260   74.3820  221.9570 C   0  0  0  0  0  0  0  0  0  0  0  0
  140.8830   73.3570  221.4310 C   0  0  0  0  0  0  0  0  0  0  0  0
  140.4720   72.0790  221.2190 N   0  0  0  0  0  0  0  0  0  0  0  0
  141.3070   71.1670  220.7210 N   0  0  0  0  0  0  0  0  0  0  0  0
  142.5900   71.4890  220.4060 C   0  0  0  0  0  0  0  0  0  0  0  0
  143.4680   70.5510  219.8720 C   0  0  0  0  0  0  0  0  0  0  0  0
  143.0660   69.3700  219.6730 O   0  0  0  0  0  0  0  0  0  0  0  0
  144.7510   70.9150  219.5600 N   0  0  0  0  0  0  0  0  0  0  0  0
  145.6680   69.9320  218.9570 C   0  0  0  0  0  0  0  0  0  0  0  0
  145.1580   72.2180  219.7320 C   0  0  0  0  0  0  0  0  0  0  0  0
  146.3190   72.5630  219.3680 O   0  0  0  0  0  0  0  0  0  0  0  0
  144.3160   73.1500  220.2900 N   0  0  0  0  0  0  0  0  0  0  0  0
  144.7590   74.5450  220.4640 C   0  0  0  0  0  0  0  0  0  0  0  0
  143.0320   72.7990  220.6110 C   0  0  0  0  0  0  0  0  0  0  0  0
  142.1570   73.7090  221.1190 N   0  0  0  0  0  0  0  0  0  0  0  0
  138.5150   76.3160  221.3990 C   0  0  0  0  0  0  0  0  0  0  0  0
  139.1330   77.7290  221.3470 C   0  0  0  0  0  0  0  0  0  0  0  0
  140.4648   80.5115  219.8137 H   0  0  0  0  0  0  0  0  0  0  0  0
  142.2300   80.6206  219.4990 H   0  0  0  0  0  0  0  0  0  0  0  0
  141.4149   79.0199  219.4990 H   0  0  0  0  0  0  0  0  0  0  0  0
  142.6811   81.8170  221.5833 H   0  0  0  0  0  0  0  0  0  0  0  0
  143.1181   81.6193  224.0313 H   0  0  0  0  0  0  0  0  0  0  0  0
  142.3758   79.5889  225.2750 H   0  0  0  0  0  0  0  0  0  0  0  0
  141.1996   77.7472  224.0755 H   0  0  0  0  0  0  0  0  0  0  0  0
  141.9032   77.3278  219.8750 H   0  0  0  0  0  0  0  0  0  0  0  0
  142.0713   76.2058  221.2793 H   0  0  0  0  0  0  0  0  0  0  0  0
  139.9505   76.2313  219.0953 H   0  0  0  0  0  0  0  0  0  0  0  0
  141.0481   74.8876  219.6256 H   0  0  0  0  0  0  0  0  0  0  0  0
  140.4490   75.0180  222.6864 H   0  0  0  0  0  0  0  0  0  0  0  0
  139.0827   73.8563  222.4287 H   0  0  0  0  0  0  0  0  0  0  0  0
  146.1857   69.3770  219.7532 H   0  0  0  0  0  0  0  0  0  0  0  0
  145.0947   69.2299  218.3338 H   0  0  0  0  0  0  0  0  0  0  0  0
  146.4082   70.4552  218.3338 H   0  0  0  0  0  0  0  0  0  0  0  0
  144.8321   74.7753  221.5371 H   0  0  0  0  0  0  0  0  0  0  0  0
  145.7438   74.6785  219.9924 H   0  0  0  0  0  0  0  0  0  0  0  0
  144.0317   75.2222  219.9924 H   0  0  0  0  0  0  0  0  0  0  0  0
  137.5879   76.3252  220.8070 H   0  0  0  0  0  0  0  0  0  0  0  0
  138.3466   76.0888  222.4620 H   0  0  0  0  0  0  0  0  0  0  0  0
  138.8759   78.1980  220.3858 H   0  0  0  0  0  0  0  0  0  0  0  0
  138.7302   78.3167  222.1851 H   0  0  0  0  0  0  0  0  0  0  0  0
  1  2  1  0
  2  3  2  0
  3  4  1  0
  4  5  2  0
  5  6  1  0
  6  7  2  0
  7  8  1  0
  8  9  1  0
  9 10  1  0
 10 11  1  0
 11 12  1  0
 12 13  1  0
 13 14  2  0
 14 15  1  0
 15 16  2  0
 16 17  1  0
 17 18  2  0
 17 19  1  0
 19 20  1  0
 19 21  1  0
 21 22  2  0
 21 23  1  0
 23 24  1  0
 23 25  1  0
 25 26  2  0
 11 27  1  0
 27 28  1  0
  7  2  1  0
 28  8  1  0
 26 13  1  0
 25 16  1  0
  1 29  1  0
  1 30  1  0
  1 31  1  0
  3 32  1  0
  4 33  1  0
  5 34  1  0
  6 35  1  0
  9 36  1  0
  9 37  1  0
 10 38  1  0
 10 39  1  0
 12 40  1  0
 12 41  1  0
 20 42  1  0
 20 43  1  0
 20 44  1  0
 24 45  1  0
 24 46  1  0
 24 47  1  0
 27 48  1  0
 27 49  1  0
 28 50  1  0
 28 51  1  0
M  END
>  <UniqueID>  (25) 
21

>  <SMILES>  (25) 
Cc1ccccc1N1CCN(Cc2nnc3c(=O)n(C)c(=O)n(C)c3n2)CC1

>  <Energy>  (25) 
78.4361053943944

>  <Genealogy>  (25) 
Cc1ccccc1N1CCN(Cc2nnc3c(=O)n(C)c(=O)n(C)c3n2)CC1 (3D coordinates assigned)
Cc1ccccc1N1CCN(Cc2nnc3c(=O)n(C)c(=O)n(C)c3n2)CC1 (nonaromatic ring conformer: 78.4361053943944 kcal/mol)

>  <smiles>  (25) 
Cc1ccccc1N1CCN(Cc2nnc3c(=O)n(C)c(=O)n(C)c3n2)CC1

>  <score_type>  (25) 
oracle

>  <origin>  (25) 
autodockgpu

>  <m_score__min__energy>  (25) 
-7.6600000000000001

>  <m_primary>  (25) 
energy

>  <meeko>  (25) 
{"free_energy": -6.66, "intermolecular_energy": -7.56, "internal_energy": -0.85, "cluster_size": 1, "cluster_id": 6, "rank_in_cluster": 1}

>  <energy>  (25) 
-7.58

>  <cluster_rmsd>  (25) 
0.17

>  <rmsd>  (25) 
269.5

>  <cluster>  (25) 
1

$$$$
IILOZLGKIKELDM-UHFFFAOYNA-N
     RDKit          3D

 51 54  0  0  0  0  0  0  0  0999 V2000
  141.4340   71.2160  225.7280 C   0  0  0  0  0  0  0  0  0  0  0  0
  140.7620   69.9270  226.1110 C   0  0  0  0  0  0  0  0  0  0  0  0
  141.0370   69.3380  227.3580 C   0  0  0  0  0  0  0  0  0  0  0  0
  140.4040   68.1500  227.7340 C   0  0  0  0  0  0  0  0  0  0  0  0
  139.4850   67.5450  226.8760 C   0  0  0  0  0  0  0  0  0  0  0  0
  139.1920   68.1270  225.6410 C   0  0  0  0  0  0  0  0  0  0  0  0
  139.8200   69.3200  225.2540 C   0  0  0  0  0  0  0  0  0  0  0  0
  139.4990   69.9050  223.9850 N   0  0  0  0  0  0  0  0  0  0  0  0
  139.1180   71.3170  223.9350 C   0  0  0  0  0  0  0  0  0  0  0  0
  138.7360   71.7250  222.5070 C   0  0  0  0  0  0  0  0  0  0  0  0
  139.6650   71.1560  221.5050 N   0  0  0  0  0  0  0  0  0  0  0  0
  141.0270   71.7320  221.5710 C   0  0  0  0  0  0  0  0  0  0  0  0
  140.9990   73.2260  221.4610 C   0  0  0  0  0  0  0  0  0  0  0  0
  140.2740   73.9660  222.3400 N   0  0  0  0  0  0  0  0  0  0  0  0
  140.2680   75.2970  222.2700 N   0  0  0  0  0  0  0  0  0  0  0  0
  140.9890   75.9520  221.3230 C   0  0  0  0  0  0  0  0  0  0  0  0
  141.0030   77.3410  221.2470 C   0  0  0  0  0  0  0  0  0  0  0  0
  140.3300   78.0130  222.0790 O   0  0  0  0  0  0  0  0  0  0  0  0
  141.7490   77.9660  220.2830 N   0  0  0  0  0  0  0  0  0  0  0  0
  141.7960   79.4380  220.2300 C   0  0  0  0  0  0  0  0  0  0  0  0
  142.5200   77.2230  219.4190 C   0  0  0  0  0  0  0  0  0  0  0  0
  143.2650   77.8120  218.5840 O   0  0  0  0  0  0  0  0  0  0  0  0
  142.4910   75.8490  219.4560 N   0  0  0  0  0  0  0  0  0  0  0  0
  143.3240   75.0620  218.5300 C   0  0  0  0  0  0  0  0  0  0  0  0
  141.7470   75.2110  220.4110 C   0  0  0  0  0  0  0  0  0  0  0  0
  141.7350   73.8540  220.5070 N   0  0  0  0  0  0  0  0  0  0  0  0
  139.6940   69.6680  221.5230 C   0  0  0  0  0  0  0  0  0  0  0  0
  139.2140   69.0320  222.8450 C   0  0  0  0  0  0  0  0  0  0  0  0
  141.7201   71.7647  226.6374 H   0  0  0  0  0  0  0  0  0  0  0  0
  142.3333   70.9981  225.1331 H   0  0  0  0  0  0  0  0  0  0  0  0
  140.7404   71.8285  225.1331 H   0  0  0  0  0  0  0  0  0  0  0  0
  141.7546   69.8151  228.0416 H   0  0  0  0  0  0  0  0  0  0  0  0
  140.6307   67.6913  228.7078 H   0  0  0  0  0  0  0  0  0  0  0  0
  138.9906   66.6083  227.1729 H   0  0  0  0  0  0  0  0  0  0  0  0
  138.4653   67.6477  224.9685 H   0  0  0  0  0  0  0  0  0  0  0  0
  138.2578   71.4827  224.6002 H   0  0  0  0  0  0  0  0  0  0  0  0
  139.9744   71.9261  224.2598 H   0  0  0  0  0  0  0  0  0  0  0  0
  137.7186   71.3649  222.2940 H   0  0  0  0  0  0  0  0  0  0  0  0
  138.7899   72.8216  222.4390 H   0  0  0  0  0  0  0  0  0  0  0  0
  141.4866   71.4531  222.5307 H   0  0  0  0  0  0  0  0  0  0  0  0
  141.6100   71.3353  220.7267 H   0  0  0  0  0  0  0  0  0  0  0  0
  141.8089   79.8415  221.2532 H   0  0  0  0  0  0  0  0  0  0  0  0
  142.7048   79.7569  219.6986 H   0  0  0  0  0  0  0  0  0  0  0  0
  140.9094   79.8143  219.6986 H   0  0  0  0  0  0  0  0  0  0  0  0
  144.0051   74.4185  219.1062 H   0  0  0  0  0  0  0  0  0  0  0  0
  142.6776   74.4371  217.8962 H   0  0  0  0  0  0  0  0  0  0  0  0
  143.9112   75.7428  217.8962 H   0  0  0  0  0  0  0  0  0  0  0  0
  139.0474   69.3024  220.7117 H   0  0  0  0  0  0  0  0  0  0  0  0
  140.7472   69.3752  221.4005 H   0  0  0  0  0  0  0  0  0  0  0  0
  138.1292   68.8594  222.7873 H   0  0  0  0  0  0  0  0  0  0  0  0
  139.7499   68.0824  222.9902 H   0  0  0  0  0  0  0  0  0  0  0  0
  1  2  1  0
  2  3  2  0
  3  4  1  0
  4  5  2  0
  5  6  1  0
  6  7  2  0
  7  8  1  0
  8  9  1  0
  9 10  1  0
 10 11  1  0
 11 12  1  0
 12 13  1  0
 13 14  2  0
 14 15  1  0
 15 16  2  0
 16 17  1  0
 17 18  2  0
 17 19  1  0
 19 20  1  0
 19 21  1  0
 21 22  2  0
 21 23  1  0
 23 24  1  0
 23 25  1  0
 25 26  2  0
 11 27  1  0
 27 28  1  0
  7  2  1  0
 28  8  1  0
 26 13  1  0
 25 16  1  0
  1 29  1  0
  1 30  1  0
  1 31  1  0
  3 32  1  0
  4 33  1  0
  5 34  1  0
  6 35  1  0
  9 36  1  0
  9 37  1  0
 10 38  1  0
 10 39  1  0
 12 40  1  0
 12 41  1  0
 20 42  1  0
 20 43  1  0
 20 44  1  0
 24 45  1  0
 24 46  1  0
 24 47  1  0
 27 48  1  0
 27 49  1  0
 28 50  1  0
 28 51  1  0
M  END
>  <UniqueID>  (26) 
21

>  <SMILES>  (26) 
Cc1ccccc1N1CCN(Cc2nnc3c(=O)n(C)c(=O)n(C)c3n2)CC1

>  <Energy>  (26) 
78.4361053943944

>  <Genealogy>  (26) 
Cc1ccccc1N1CCN(Cc2nnc3c(=O)n(C)c(=O)n(C)c3n2)CC1 (3D coordinates assigned)
Cc1ccccc1N1CCN(Cc2nnc3c(=O)n(C)c(=O)n(C)c3n2)CC1 (nonaromatic ring conformer: 78.4361053943944 kcal/mol)

>  <smiles>  (26) 
Cc1ccccc1N1CCN(Cc2nnc3c(=O)n(C)c(=O)n(C)c3n2)CC1

>  <score_type>  (26) 
oracle

>  <origin>  (26) 
autodockgpu

>  <m_score__min__energy>  (26) 
-7.6600000000000001

>  <m_primary>  (26) 
energy

>  <meeko>  (26) 
{"free_energy": -7.62, "intermolecular_energy": -8.52, "internal_energy": -0.44, "cluster_size": 5, "cluster_id": 1, "rank_in_cluster": 4}

>  <energy>  (26) 
-7.55

>  <cluster_rmsd>  (26) 
0.0

>  <rmsd>  (26) 
270.19

>  <cluster>  (26) 
2

$$$$
IILOZLGKIKELDM-UHFFFAOYNA-N
     RDKit          3D

 51 54  0  0  0  0  0  0  0  0999 V2000
  141.2340   75.4510  221.5940 C   0  0  0  0  0  0  0  0  0  0  0  0
  140.4370   76.6000  222.1450 C   0  0  0  0  0  0  0  0  0  0  0  0
  141.1000   77.7180  222.6810 C   0  0  0  0  0  0  0  0  0  0  0  0
  140.3690   78.8010  223.1780 C   0  0  0  0  0  0  0  0  0  0  0  0
  138.9750   78.7830  223.1380 C   0  0  0  0  0  0  0  0  0  0  0  0
  138.3050   77.6840  222.5970 C   0  0  0  0  0  0  0  0  0  0  0  0
  139.0270   76.5920  222.0920 C   0  0  0  0  0  0  0  0  0  0  0  0
  138.3200   75.4780  221.5340 N   0  0  0  0  0  0  0  0  0  0  0  0
  138.3590   75.2710  220.0850 C   0  0  0  0  0  0  0  0  0  0  0  0
  137.4770   74.0830  219.6830 C   0  0  0  0  0  0  0  0  0  0  0  0
  137.6320   72.9420  220.6140 N   0  0  0  0  0  0  0  0  0  0  0  0
  138.9640   72.2990  220.5410 C   0  0  0  0  0  0  0  0  0  0  0  0
  139.4240   71.8320  221.8880 C   0  0  0  0  0  0  0  0  0  0  0  0
  140.1170   72.6670  222.7050 N   0  0  0  0  0  0  0  0  0  0  0  0
  140.5030   72.2720  223.9180 N   0  0  0  0  0  0  0  0  0  0  0  0
  140.2100   71.0250  224.3740 C   0  0  0  0  0  0  0  0  0  0  0  0
  140.5950   70.6040  225.6440 C   0  0  0  0  0  0  0  0  0  0  0  0
  141.2310   71.3980  226.3930 O   0  0  0  0  0  0  0  0  0  0  0  0
  140.2740   69.3430  226.0720 N   0  0  0  0  0  0  0  0  0  0  0  0
  140.6460   68.9120  227.4310 C   0  0  0  0  0  0  0  0  0  0  0  0
  139.5350   68.5090  225.2650 C   0  0  0  0  0  0  0  0  0  0  0  0
  139.1770   67.3760  225.7000 O   0  0  0  0  0  0  0  0  0  0  0  0
  139.1760   68.8950  223.9960 N   0  0  0  0  0  0  0  0  0  0  0  0
  138.3790   67.9970  223.1420 C   0  0  0  0  0  0  0  0  0  0  0  0
  139.4940   70.1510  223.5530 C   0  0  0  0  0  0  0  0  0  0  0  0
  139.1110   70.5830  222.3200 N   0  0  0  0  0  0  0  0  0  0  0  0
  137.2620   73.2860  222.0140 C   0  0  0  0  0  0  0  0  0  0  0  0
  137.3080   74.7940  222.3400 C   0  0  0  0  0  0  0  0  0  0  0  0
  141.6451   74.8583  222.4245 H   0  0  0  0  0  0  0  0  0  0  0  0
  140.5821   74.8150  220.9771 H   0  0  0  0  0  0  0  0  0  0  0  0
  142.0581   75.8388  220.9771 H   0  0  0  0  0  0  0  0  0  0  0  0
  142.1994   77.7406  222.7094 H   0  0  0  0  0  0  0  0  0  0  0  0
  140.8945   79.6695  223.6016 H   0  0  0  0  0  0  0  0  0  0  0  0
  138.4029   79.6354  223.5330 H   0  0  0  0  0  0  0  0  0  0  0  0
  137.2055   77.6742  222.5665 H   0  0  0  0  0  0  0  0  0  0  0  0
  137.9945   76.1782  219.5808 H   0  0  0  0  0  0  0  0  0  0  0  0
  139.3960   75.0585  219.7860 H   0  0  0  0  0  0  0  0  0  0  0  0
  136.4249   74.4040  219.6855 H   0  0  0  0  0  0  0  0  0  0  0  0
  137.7872   73.7509  218.6812 H   0  0  0  0  0  0  0  0  0  0  0  0
  138.9066   71.4343  219.8635 H   0  0  0  0  0  0  0  0  0  0  0  0
  139.6852   73.0415  220.1689 H   0  0  0  0  0  0  0  0  0  0  0  0
  140.1136   69.5289  228.1699 H   0  0  0  0  0  0  0  0  0  0  0  0
  140.3711   67.8558  227.5688 H   0  0  0  0  0  0  0  0  0  0  0  0
  141.7310   69.0295  227.5688 H   0  0  0  0  0  0  0  0  0  0  0  0
  137.7816   67.3240  223.7746 H   0  0  0  0  0  0  0  0  0  0  0  0
  137.7084   68.5945  222.5069 H   0  0  0  0  0  0  0  0  0  0  0  0
  139.0519   67.4021  222.5069 H   0  0  0  0  0  0  0  0  0  0  0  0
  136.2384   72.9269  222.1962 H   0  0  0  0  0  0  0  0  0  0  0  0
  138.0103   72.8048  222.6609 H   0  0  0  0  0  0  0  0  0  0  0  0
  136.3230   75.2367  222.1308 H   0  0  0  0  0  0  0  0  0  0  0  0
  137.5687   74.9135  223.4020 H   0  0  0  0  0  0  0  0  0  0  0  0
  1  2  1  0
  2  3  2  0
  3  4  1  0
  4  5  2  0
  5  6  1  0
  6  7  2  0
  7  8  1  0
  8  9  1  0
  9 10  1  0
 10 11  1  0
 11 12  1  0
 12 13  1  0
 13 14  2  0
 14 15  1  0
 15 16  2  0
 16 17  1  0
 17 18  2  0
 17 19  1  0
 19 20  1  0
 19 21  1  0
 21 22  2  0
 21 23  1  0
 23 24  1  0
 23 25  1  0
 25 26  2  0
 11 27  1  0
 27 28  1  0
  7  2  1  0
 28  8  1  0
 26 13  1  0
 25 16  1  0
  1 29  1  0
  1 30  1  0
  1 31  1  0
  3 32  1  0
  4 33  1  0
  5 34  1  0
  6 35  1  0
  9 36  1  0
  9 37  1  0
 10 38  1  0
 10 39  1  0
 12 40  1  0
 12 41  1  0
 20 42  1  0
 20 43  1  0
 20 44  1  0
 24 45  1  0
 24 46  1  0
 24 47  1  0
 27 48  1  0
 27 49  1  0
 28 50  1  0
 28 51  1  0
M  END
>  <UniqueID>  (27) 
21

>  <SMILES>  (27) 
Cc1ccccc1N1CCN(Cc2nnc3c(=O)n(C)c(=O)n(C)c3n2)CC1

>  <Energy>  (27) 
78.4361053943944

>  <Genealogy>  (27) 
Cc1ccccc1N1CCN(Cc2nnc3c(=O)n(C)c(=O)n(C)c3n2)CC1 (3D coordinates assigned)
Cc1ccccc1N1CCN(Cc2nnc3c(=O)n(C)c(=O)n(C)c3n2)CC1 (nonaromatic ring conformer: 78.4361053943944 kcal/mol)

>  <smiles>  (27) 
Cc1ccccc1N1CCN(Cc2nnc3c(=O)n(C)c(=O)n(C)c3n2)CC1

>  <score_type>  (27) 
oracle

>  <origin>  (27) 
autodockgpu

>  <m_score__min__energy>  (27) 
-7.6600000000000001

>  <m_primary>  (27) 
energy

>  <meeko>  (27) 
{"free_energy": -6.82, "intermolecular_energy": -7.71, "internal_energy": -1.14, "cluster_size": 6, "cluster_id": 2, "rank_in_cluster": 6}

>  <energy>  (27) 
-6.84

>  <cluster_rmsd>  (27) 
1.92

>  <rmsd>  (27) 
269.24

>  <cluster>  (27) 
2

$$$$
IILOZLGKIKELDM-UHFFFAOYNA-N
     RDKit          3D

 51 54  0  0  0  0  0  0  0  0999 V2000
  141.4320   71.2060  225.7350 C   0  0  0  0  0  0  0  0  0  0  0  0
  140.7620   69.9190  226.1300 C   0  0  0  0  0  0  0  0  0  0  0  0
  141.0420   69.3410  227.3800 C   0  0  0  0  0  0  0  0  0  0  0  0
  140.4120   68.1540  227.7670 C   0  0  0  0  0  0  0  0  0  0  0  0
  139.4910   67.5410  226.9170 C   0  0  0  0  0  0  0  0  0  0  0  0
  139.1950   68.1130  225.6770 C   0  0  0  0  0  0  0  0  0  0  0  0
  139.8190   69.3040  225.2800 C   0  0  0  0  0  0  0  0  0  0  0  0
  139.4940   69.8780  224.0070 N   0  0  0  0  0  0  0  0  0  0  0  0
  139.1210   71.2920  223.9460 C   0  0  0  0  0  0  0  0  0  0  0  0
  138.7320   71.6890  222.5170 C   0  0  0  0  0  0  0  0  0  0  0  0
  139.6530   71.1050  221.5140 N   0  0  0  0  0  0  0  0  0  0  0  0
  141.0180   71.6740  221.5660 C   0  0  0  0  0  0  0  0  0  0  0  0
  140.9960   73.1680  221.4590 C   0  0  0  0  0  0  0  0  0  0  0  0
  140.2730   73.9090  222.3380 N   0  0  0  0  0  0  0  0  0  0  0  0
  140.2730   75.2410  222.2710 N   0  0  0  0  0  0  0  0  0  0  0  0
  140.9990   75.8940  221.3260 C   0  0  0  0  0  0  0  0  0  0  0  0
  141.0190   77.2840  221.2530 C   0  0  0  0  0  0  0  0  0  0  0  0
  140.3470   77.9570  222.0850 O   0  0  0  0  0  0  0  0  0  0  0  0
  141.7690   77.9070  220.2910 N   0  0  0  0  0  0  0  0  0  0  0  0
  141.8220   79.3780  220.2410 C   0  0  0  0  0  0  0  0  0  0  0  0
  142.5380   77.1620  219.4270 C   0  0  0  0  0  0  0  0  0  0  0  0
  143.2870   77.7490  218.5940 O   0  0  0  0  0  0  0  0  0  0  0  0
  142.5040   75.7890  219.4620 N   0  0  0  0  0  0  0  0  0  0  0  0
  143.3350   74.9990  218.5350 C   0  0  0  0  0  0  0  0  0  0  0  0
  141.7540   75.1520  220.4140 C   0  0  0  0  0  0  0  0  0  0  0  0
  141.7370   73.7940  220.5080 N   0  0  0  0  0  0  0  0  0  0  0  0
  139.6730   69.6170  221.5470 C   0  0  0  0  0  0  0  0  0  0  0  0
  139.1980   68.9960  222.8770 C   0  0  0  0  0  0  0  0  0  0  0  0
  141.7212   71.7614  226.6394 H   0  0  0  0  0  0  0  0  0  0  0  0
  142.3291   70.9843  225.1383 H   0  0  0  0  0  0  0  0  0  0  0  0
  140.7358   71.8137  225.1383 H   0  0  0  0  0  0  0  0  0  0  0  0
  141.7607   69.8249  228.0577 H   0  0  0  0  0  0  0  0  0  0  0  0
  140.6430   67.7028  228.7433 H   0  0  0  0  0  0  0  0  0  0  0  0
  138.9975   66.6068  227.2232 H   0  0  0  0  0  0  0  0  0  0  0  0
  138.4689   67.6265  225.0091 H   0  0  0  0  0  0  0  0  0  0  0  0
  138.2662   71.4691  224.6153 H   0  0  0  0  0  0  0  0  0  0  0  0
  139.9833   71.8989  224.2592 H   0  0  0  0  0  0  0  0  0  0  0  0
  137.7115   71.3324  222.3136 H   0  0  0  0  0  0  0  0  0  0  0  0
  138.7908   72.7846  222.4384 H   0  0  0  0  0  0  0  0  0  0  0  0
  141.4868   71.3911  222.5200 H   0  0  0  0  0  0  0  0  0  0  0  0
  141.5898   71.2760  220.7147 H   0  0  0  0  0  0  0  0  0  0  0  0
  141.8365   79.7794  221.2650 H   0  0  0  0  0  0  0  0  0  0  0  0
  142.7321   79.6943  219.7103 H   0  0  0  0  0  0  0  0  0  0  0  0
  140.9370   79.7590  219.7103 H   0  0  0  0  0  0  0  0  0  0  0  0
  144.0142   74.3533  219.1110 H   0  0  0  0  0  0  0  0  0  0  0  0
  142.6866   74.3762  217.9012 H   0  0  0  0  0  0  0  0  0  0  0  0
  143.9242   75.6781  217.9012 H   0  0  0  0  0  0  0  0  0  0  0  0
  139.0191   69.2475  220.7433 H   0  0  0  0  0  0  0  0  0  0  0  0
  140.7239   69.3172  221.4216 H   0  0  0  0  0  0  0  0  0  0  0  0
  138.1120   68.8283  222.8273 H   0  0  0  0  0  0  0  0  0  0  0  0
  139.7301   68.0452  223.0278 H   0  0  0  0  0  0  0  0  0  0  0  0
  1  2  1  0
  2  3  2  0
  3  4  1  0
  4  5  2  0
  5  6  1  0
  6  7  2  0
  7  8  1  0
  8  9  1  0
  9 10  1  0
 10 11  1  0
 11 12  1  0
 12 13  1  0
 13 14  2  0
 14 15  1  0
 15 16  2  0
 16 17  1  0
 17 18  2  0
 17 19  1  0
 19 20  1  0
 19 21  1  0
 21 22  2  0
 21 23  1  0
 23 24  1  0
 23 25  1  0
 25 26  2  0
 11 27  1  0
 27 28  1  0
  7  2  1  0
 28  8  1  0
 26 13  1  0
 25 16  1  0
  1 29  1  0
  1 30  1  0
  1 31  1  0
  3 32  1  0
  4 33  1  0
  5 34  1  0
  6 35  1  0
  9 36  1  0
  9 37  1  0
 10 38  1  0
 10 39  1  0
 12 40  1  0
 12 41  1  0
 20 42  1  0
 20 43  1  0
 20 44  1  0
 24 45  1  0
 24 46  1  0
 24 47  1  0
 27 48  1  0
 27 49  1  0
 28 50  1  0
 28 51  1  0
M  END
>  <UniqueID>  (28) 
21

>  <SMILES>  (28) 
Cc1ccccc1N1CCN(Cc2nnc3c(=O)n(C)c(=O)n(C)c3n2)CC1

>  <Energy>  (28) 
78.4361053943944

>  <Genealogy>  (28) 
Cc1ccccc1N1CCN(Cc2nnc3c(=O)n(C)c(=O)n(C)c3n2)CC1 (3D coordinates assigned)
Cc1ccccc1N1CCN(Cc2nnc3c(=O)n(C)c(=O)n(C)c3n2)CC1 (nonaromatic ring conformer: 78.4361053943944 kcal/mol)

>  <smiles>  (28) 
Cc1ccccc1N1CCN(Cc2nnc3c(=O)n(C)c(=O)n(C)c3n2)CC1

>  <score_type>  (28) 
oracle

>  <origin>  (28) 
autodockgpu

>  <m_score__min__energy>  (28) 
-7.6600000000000001

>  <m_primary>  (28) 
energy

>  <meeko>  (28) 
{"free_energy": -7.65, "intermolecular_energy": -8.54, "internal_energy": -0.42, "cluster_size": 5, "cluster_id": 1, "rank_in_cluster": 3}

>  <energy>  (28) 
-6.84

>  <cluster_rmsd>  (28) 
1.92

>  <rmsd>  (28) 
269.24

>  <cluster>  (28) 
2

$$$$
IILOZLGKIKELDM-UHFFFAOYNA-N
     RDKit          3D

 51 54  0  0  0  0  0  0  0  0999 V2000
  142.0120   79.0250  219.1070 C   0  0  0  0  0  0  0  0  0  0  0  0
  141.8120   80.5120  219.1850 C   0  0  0  0  0  0  0  0  0  0  0  0
  142.1450   81.3220  218.0840 C   0  0  0  0  0  0  0  0  0  0  0  0
  141.9450   82.7040  218.1370 C   0  0  0  0  0  0  0  0  0  0  0  0
  141.4030   83.2900  219.2820 C   0  0  0  0  0  0  0  0  0  0  0  0
  141.0560   82.4950  220.3770 C   0  0  0  0  0  0  0  0  0  0  0  0
  141.2500   81.1070  220.3340 C   0  0  0  0  0  0  0  0  0  0  0  0
  140.8790   80.3100  221.4660 N   0  0  0  0  0  0  0  0  0  0  0  0
  139.5210   80.4280  221.9970 C   0  0  0  0  0  0  0  0  0  0  0  0
  139.3510   79.5600  223.2500 C   0  0  0  0  0  0  0  0  0  0  0  0
  139.9890   78.2330  223.0910 N   0  0  0  0  0  0  0  0  0  0  0  0
  139.3110   77.3690  222.0980 C   0  0  0  0  0  0  0  0  0  0  0  0
  140.0650   76.0950  221.8710 C   0  0  0  0  0  0  0  0  0  0  0  0
  139.5840   74.9180  222.3490 N   0  0  0  0  0  0  0  0  0  0  0  0
  140.2310   73.7740  222.1250 N   0  0  0  0  0  0  0  0  0  0  0  0
  141.3860   73.7510  221.4090 C   0  0  0  0  0  0  0  0  0  0  0  0
  142.0650   72.5630  221.1560 C   0  0  0  0  0  0  0  0  0  0  0  0
  141.5970   71.4760  221.6000 O   0  0  0  0  0  0  0  0  0  0  0  0
  143.2220   72.5790  220.4230 N   0  0  0  0  0  0  0  0  0  0  0  0
  143.9170   71.3160  220.1200 C   0  0  0  0  0  0  0  0  0  0  0  0
  143.6890   73.7620  219.8990 C   0  0  0  0  0  0  0  0  0  0  0  0
  144.7150   73.7560  219.1590 O   0  0  0  0  0  0  0  0  0  0  0  0
  143.0520   74.9500  220.1680 N   0  0  0  0  0  0  0  0  0  0  0  0
  143.5570   76.2120  219.5980 C   0  0  0  0  0  0  0  0  0  0  0  0
  141.8970   74.9500  220.9030 C   0  0  0  0  0  0  0  0  0  0  0  0
  141.2140   76.1020  221.1460 N   0  0  0  0  0  0  0  0  0  0  0  0
  141.4530   78.3230  222.8360 C   0  0  0  0  0  0  0  0  0  0  0  0
  141.9250   79.6800  222.2720 C   0  0  0  0  0  0  0  0  0  0  0  0
  142.0680   78.6087  220.1237 H   0  0  0  0  0  0  0  0  0  0  0  0
  141.1671   78.5691  218.5701 H   0  0  0  0  0  0  0  0  0  0  0  0
  142.9473   78.8085  218.5701 H   0  0  0  0  0  0  0  0  0  0  0  0
  142.5653   80.8648  217.1761 H   0  0  0  0  0  0  0  0  0  0  0  0
  142.2152   83.3312  217.2747 H   0  0  0  0  0  0  0  0  0  0  0  0
  141.2490   84.3784  219.3221 H   0  0  0  0  0  0  0  0  0  0  0  0
  140.6284   82.9602  221.2774 H   0  0  0  0  0  0  0  0  0  0  0  0
  139.3249   81.4788  222.2564 H   0  0  0  0  0  0  0  0  0  0  0  0
  138.8107   80.0850  221.2303 H   0  0  0  0  0  0  0  0  0  0  0  0
  139.8111   80.0760  224.1056 H   0  0  0  0  0  0  0  0  0  0  0  0
  138.2746   79.4042  223.4143 H   0  0  0  0  0  0  0  0  0  0  0  0
  138.3026   77.1267  222.4648 H   0  0  0  0  0  0  0  0  0  0  0  0
  139.2610   77.9144  221.1440 H   0  0  0  0  0  0  0  0  0  0  0  0
  144.1928   70.8147  221.0595 H   0  0  0  0  0  0  0  0  0  0  0  0
  143.2517   70.6621  219.5371 H   0  0  0  0  0  0  0  0  0  0  0  0
  144.8255   71.5281  219.5371 H   0  0  0  0  0  0  0  0  0  0  0  0
  143.8316   76.8983  220.4126 H   0  0  0  0  0  0  0  0  0  0  0  0
  144.4420   76.0061  218.9780 H   0  0  0  0  0  0  0  0  0  0  0  0
  142.7743   76.6734  218.9780 H   0  0  0  0  0  0  0  0  0  0  0  0
  141.9783   78.1449  223.7859 H   0  0  0  0  0  0  0  0  0  0  0  0
  141.6825   77.5696  222.0681 H   0  0  0  0  0  0  0  0  0  0  0  0
  142.1836   80.3459  223.1085 H   0  0  0  0  0  0  0  0  0  0  0  0
  142.8014   79.5051  221.6307 H   0  0  0  0  0  0  0  0  0  0  0  0
  1  2  1  0
  2  3  2  0
  3  4  1  0
  4  5  2  0
  5  6  1  0
  6  7  2  0
  7  8  1  0
  8  9  1  0
  9 10  1  0
 10 11  1  0
 11 12  1  0
 12 13  1  0
 13 14  2  0
 14 15  1  0
 15 16  2  0
 16 17  1  0
 17 18  2  0
 17 19  1  0
 19 20  1  0
 19 21  1  0
 21 22  2  0
 21 23  1  0
 23 24  1  0
 23 25  1  0
 25 26  2  0
 11 27  1  0
 27 28  1  0
  7  2  1  0
 28  8  1  0
 26 13  1  0
 25 16  1  0
  1 29  1  0
  1 30  1  0
  1 31  1  0
  3 32  1  0
  4 33  1  0
  5 34  1  0
  6 35  1  0
  9 36  1  0
  9 37  1  0
 10 38  1  0
 10 39  1  0
 12 40  1  0
 12 41  1  0
 20 42  1  0
 20 43  1  0
 20 44  1  0
 24 45  1  0
 24 46  1  0
 24 47  1  0
 27 48  1  0
 27 49  1  0
 28 50  1  0
 28 51  1  0
M  END
>  <UniqueID>  (29) 
21

>  <SMILES>  (29) 
Cc1ccccc1N1CCN(Cc2nnc3c(=O)n(C)c(=O)n(C)c3n2)CC1

>  <Energy>  (29) 
78.4361053943944

>  <Genealogy>  (29) 
Cc1ccccc1N1CCN(Cc2nnc3c(=O)n(C)c(=O)n(C)c3n2)CC1 (3D coordinates assigned)
Cc1ccccc1N1CCN(Cc2nnc3c(=O)n(C)c(=O)n(C)c3n2)CC1 (nonaromatic ring conformer: 78.4361053943944 kcal/mol)

>  <smiles>  (29) 
Cc1ccccc1N1CCN(Cc2nnc3c(=O)n(C)c(=O)n(C)c3n2)CC1

>  <score_type>  (29) 
oracle

>  <origin>  (29) 
autodockgpu

>  <m_score__min__energy>  (29) 
-7.6600000000000001

>  <m_primary>  (29) 
energy

>  <meeko>  (29) 
{"free_energy": -6.65, "intermolecular_energy": -7.54, "internal_energy": -0.92, "cluster_size": 3, "cluster_id": 5, "rank_in_cluster": 3}

>  <energy>  (29) 
-6.84

>  <cluster_rmsd>  (29) 
1.93

>  <rmsd>  (29) 
269.22

>  <cluster>  (29) 
2

$$$$
IILOZLGKIKELDM-UHFFFAOYNA-N
     RDKit          3D

 51 54  0  0  0  0  0  0  0  0999 V2000
  141.8220   79.7940  219.2710 C   0  0  0  0  0  0  0  0  0  0  0  0
  141.4540   81.2250  219.5450 C   0  0  0  0  0  0  0  0  0  0  0  0
  141.6570   82.2020  218.5540 C   0  0  0  0  0  0  0  0  0  0  0  0
  141.3010   83.5330  218.7900 C   0  0  0  0  0  0  0  0  0  0  0  0
  140.7310   83.9000  220.0100 C   0  0  0  0  0  0  0  0  0  0  0  0
  140.5130   82.9370  220.9980 C   0  0  0  0  0  0  0  0  0  0  0  0
  140.8640   81.5980  220.7720 C   0  0  0  0  0  0  0  0  0  0  0  0
  140.6240   80.6240  221.7960 N   0  0  0  0  0  0  0  0  0  0  0  0
  139.2820   80.5250  222.3730 C   0  0  0  0  0  0  0  0  0  0  0  0
  139.2540   79.4880  223.5020 C   0  0  0  0  0  0  0  0  0  0  0  0
  140.0200   78.2700  223.1510 N   0  0  0  0  0  0  0  0  0  0  0  0
  139.3960   77.4740  222.0690 C   0  0  0  0  0  0  0  0  0  0  0  0
  140.1250   76.1850  221.8440 C   0  0  0  0  0  0  0  0  0  0  0  0
  139.6210   75.0180  222.3260 N   0  0  0  0  0  0  0  0  0  0  0  0
  140.2450   73.8620  222.1040 N   0  0  0  0  0  0  0  0  0  0  0  0
  141.3980   73.8140  221.3860 C   0  0  0  0  0  0  0  0  0  0  0  0
  142.0530   72.6130  221.1340 C   0  0  0  0  0  0  0  0  0  0  0  0
  141.5650   71.5370  221.5820 O   0  0  0  0  0  0  0  0  0  0  0  0
  143.2080   72.6040  220.3990 N   0  0  0  0  0  0  0  0  0  0  0  0
  143.8780   71.3270  220.0990 C   0  0  0  0  0  0  0  0  0  0  0  0
  143.6980   73.7770  219.8720 C   0  0  0  0  0  0  0  0  0  0  0  0
  144.7220   73.7480  219.1300 O   0  0  0  0  0  0  0  0  0  0  0  0
  143.0850   74.9770  220.1390 N   0  0  0  0  0  0  0  0  0  0  0  0
  143.6130   76.2280  219.5650 C   0  0  0  0  0  0  0  0  0  0  0  0
  141.9310   75.0020  220.8760 C   0  0  0  0  0  0  0  0  0  0  0  0
  141.2720   76.1670  221.1170 N   0  0  0  0  0  0  0  0  0  0  0  0
  141.4550   78.5500  222.8730 C   0  0  0  0  0  0  0  0  0  0  0  0
  141.7610   80.0120  222.4840 C   0  0  0  0  0  0  0  0  0  0  0  0
  141.9589   79.2617  220.2238 H   0  0  0  0  0  0  0  0  0  0  0  0
  141.0184   79.3127  218.6943 H   0  0  0  0  0  0  0  0  0  0  0  0
  142.7581   79.7601  218.6943 H   0  0  0  0  0  0  0  0  0  0  0  0
  142.0985   81.9171  217.5876 H   0  0  0  0  0  0  0  0  0  0  0  0
  141.4704   84.2926  218.0127 H   0  0  0  0  0  0  0  0  0  0  0  0
  140.4532   84.9484  220.1936 H   0  0  0  0  0  0  0  0  0  0  0  0
  140.0637   83.2303  221.9583 H   0  0  0  0  0  0  0  0  0  0  0  0
  138.9886   81.5057  222.7758 H   0  0  0  0  0  0  0  0  0  0  0  0
  138.5804   80.2109  221.5861 H   0  0  0  0  0  0  0  0  0  0  0  0
  139.6916   79.9351  224.4067 H   0  0  0  0  0  0  0  0  0  0  0  0
  138.2071   79.1959  223.6712 H   0  0  0  0  0  0  0  0  0  0  0  0
  138.3543   77.2520  222.3441 H   0  0  0  0  0  0  0  0  0  0  0  0
  139.4396   78.0613  221.1400 H   0  0  0  0  0  0  0  0  0  0  0  0
  144.1429   70.8221  221.0397 H   0  0  0  0  0  0  0  0  0  0  0  0
  143.2004   70.6854  219.5166 H   0  0  0  0  0  0  0  0  0  0  0  0
  144.7910   71.5199  219.5166 H   0  0  0  0  0  0  0  0  0  0  0  0
  143.9014   76.9112  220.3775 H   0  0  0  0  0  0  0  0  0  0  0  0
  144.4933   76.0039  218.9446 H   0  0  0  0  0  0  0  0  0  0  0  0
  142.8384   76.7024  218.9446 H   0  0  0  0  0  0  0  0  0  0  0  0
  142.0332   78.3073  223.7767 H   0  0  0  0  0  0  0  0  0  0  0  0
  141.7306   77.9325  222.0054 H   0  0  0  0  0  0  0  0  0  0  0  0
  141.9814   80.5874  223.3952 H   0  0  0  0  0  0  0  0  0  0  0  0
  142.6253   80.0185  221.8035 H   0  0  0  0  0  0  0  0  0  0  0  0
  1  2  1  0
  2  3  2  0
  3  4  1  0
  4  5  2  0
  5  6  1  0
  6  7  2  0
  7  8  1  0
  8  9  1  0
  9 10  1  0
 10 11  1  0
 11 12  1  0
 12 13  1  0
 13 14  2  0
 14 15  1  0
 15 16  2  0
 16 17  1  0
 17 18  2  0
 17 19  1  0
 19 20  1  0
 19 21  1  0
 21 22  2  0
 21 23  1  0
 23 24  1  0
 23 25  1  0
 25 26  2  0
 11 27  1  0
 27 28  1  0
  7  2  1  0
 28  8  1  0
 26 13  1  0
 25 16  1  0
  1 29  1  0
  1 30  1  0
  1 31  1  0
  3 32  1  0
  4 33  1  0
  5 34  1  0
  6 35  1  0
  9 36  1  0
  9 37  1  0
 10 38  1  0
 10 39  1  0
 12 40  1  0
 12 41  1  0
 20 42  1  0
 20 43  1  0
 20 44  1  0
 24 45  1  0
 24 46  1  0
 24 47  1  0
 27 48  1  0
 27 49  1  0
 28 50  1  0
 28 51  1  0
M  END
>  <UniqueID>  (30) 
21

>  <SMILES>  (30) 
Cc1ccccc1N1CCN(Cc2nnc3c(=O)n(C)c(=O)n(C)c3n2)CC1

>  <Energy>  (30) 
78.4361053943944

>  <Genealogy>  (30) 
Cc1ccccc1N1CCN(Cc2nnc3c(=O)n(C)c(=O)n(C)c3n2)CC1 (3D coordinates assigned)
Cc1ccccc1N1CCN(Cc2nnc3c(=O)n(C)c(=O)n(C)c3n2)CC1 (nonaromatic ring conformer: 78.4361053943944 kcal/mol)

>  <smiles>  (30) 
Cc1ccccc1N1CCN(Cc2nnc3c(=O)n(C)c(=O)n(C)c3n2)CC1

>  <score_type>  (30) 
oracle

>  <origin>  (30) 
autodockgpu

>  <m_score__min__energy>  (30) 
-7.6600000000000001

>  <m_primary>  (30) 
energy

>  <meeko>  (30) 
{"free_energy": -6.65, "intermolecular_energy": -7.55, "internal_energy": -0.91, "cluster_size": 3, "cluster_id": 5, "rank_in_cluster": 2}

>  <energy>  (30) 
-6.83

>  <cluster_rmsd>  (30) 
1.92

>  <rmsd>  (30) 
269.24

>  <cluster>  (30) 
2

$$$$
IILOZLGKIKELDM-UHFFFAOYNA-N
     RDKit          3D

 51 54  0  0  0  0  0  0  0  0999 V2000
  141.4330   71.1880  225.7240 C   0  0  0  0  0  0  0  0  0  0  0  0
  140.7710   69.8980  226.1230 C   0  0  0  0  0  0  0  0  0  0  0  0
  141.0540   69.3240  227.3750 C   0  0  0  0  0  0  0  0  0  0  0  0
  140.4300   68.1360  227.7650 C   0  0  0  0  0  0  0  0  0  0  0  0
  139.5120   67.5160  226.9160 C   0  0  0  0  0  0  0  0  0  0  0  0
  139.2130   68.0830  225.6750 C   0  0  0  0  0  0  0  0  0  0  0  0
  139.8310   69.2760  225.2740 C   0  0  0  0  0  0  0  0  0  0  0  0
  139.5030   69.8450  224.0000 N   0  0  0  0  0  0  0  0  0  0  0  0
  139.1310   71.2590  223.9340 C   0  0  0  0  0  0  0  0  0  0  0  0
  138.7390   71.6500  222.5040 C   0  0  0  0  0  0  0  0  0  0  0  0
  139.6560   71.0610  221.5010 N   0  0  0  0  0  0  0  0  0  0  0  0
  141.0220   71.6290  221.5470 C   0  0  0  0  0  0  0  0  0  0  0  0
  141.0000   73.1230  221.4470 C   0  0  0  0  0  0  0  0  0  0  0  0
  140.2810   73.8610  222.3330 N   0  0  0  0  0  0  0  0  0  0  0  0
  140.2810   75.1930  222.2710 N   0  0  0  0  0  0  0  0  0  0  0  0
  141.0030   75.8500  221.3260 C   0  0  0  0  0  0  0  0  0  0  0  0
  141.0230   77.2400  221.2590 C   0  0  0  0  0  0  0  0  0  0  0  0
  140.3560   77.9100  222.0970 O   0  0  0  0  0  0  0  0  0  0  0  0
  141.7690   77.8670  220.2960 N   0  0  0  0  0  0  0  0  0  0  0  0
  141.8230   79.3390  220.2520 C   0  0  0  0  0  0  0  0  0  0  0  0
  142.5330   77.1260  219.4250 C   0  0  0  0  0  0  0  0  0  0  0  0
  143.2790   77.7160  218.5910 O   0  0  0  0  0  0  0  0  0  0  0  0
  142.4990   75.7520  219.4540 N   0  0  0  0  0  0  0  0  0  0  0  0
  143.3250   74.9670  218.5200 C   0  0  0  0  0  0  0  0  0  0  0  0
  141.7540   75.1120  220.4070 C   0  0  0  0  0  0  0  0  0  0  0  0
  141.7370   73.7530  220.4950 N   0  0  0  0  0  0  0  0  0  0  0  0
  139.6750   69.5730  221.5400 C   0  0  0  0  0  0  0  0  0  0  0  0
  139.2030   68.9580  222.8750 C   0  0  0  0  0  0  0  0  0  0  0  0
  141.7200   71.7473  226.6266 H   0  0  0  0  0  0  0  0  0  0  0  0
  142.3307   70.9701  225.1268 H   0  0  0  0  0  0  0  0  0  0  0  0
  140.7325   71.7902  225.1268 H   0  0  0  0  0  0  0  0  0  0  0  0
  141.7707   69.8129  228.0513 H   0  0  0  0  0  0  0  0  0  0  0  0
  140.6627   67.6888  228.7427 H   0  0  0  0  0  0  0  0  0  0  0  0
  139.0235   66.5799  227.2245 H   0  0  0  0  0  0  0  0  0  0  0  0
  138.4890   67.5911  225.0088 H   0  0  0  0  0  0  0  0  0  0  0  0
  138.2779   71.4396  224.6045 H   0  0  0  0  0  0  0  0  0  0  0  0
  139.9943   71.8667  224.2428 H   0  0  0  0  0  0  0  0  0  0  0  0
  137.7175   71.2937  222.3049 H   0  0  0  0  0  0  0  0  0  0  0  0
  138.7994   72.7452  222.4206 H   0  0  0  0  0  0  0  0  0  0  0  0
  141.4966   71.3415  222.4968 H   0  0  0  0  0  0  0  0  0  0  0  0
  141.5883   71.2346  220.6904 H   0  0  0  0  0  0  0  0  0  0  0  0
  141.8376   79.7362  221.2777 H   0  0  0  0  0  0  0  0  0  0  0  0
  142.7334   79.6569  219.7227 H   0  0  0  0  0  0  0  0  0  0  0  0
  140.9383   79.7227  219.7227 H   0  0  0  0  0  0  0  0  0  0  0  0
  144.0071   74.3188  219.0897 H   0  0  0  0  0  0  0  0  0  0  0  0
  142.6736   74.3471  217.8865 H   0  0  0  0  0  0  0  0  0  0  0  0
  143.9110   75.6491  217.8865 H   0  0  0  0  0  0  0  0  0  0  0  0
  139.0185   69.2006  220.7398 H   0  0  0  0  0  0  0  0  0  0  0  0
  140.7252   69.2716  221.4125 H   0  0  0  0  0  0  0  0  0  0  0  0
  138.1167   68.7909  222.8292 H   0  0  0  0  0  0  0  0  0  0  0  0
  139.7347   68.0074  223.0286 H   0  0  0  0  0  0  0  0  0  0  0  0
  1  2  1  0
  2  3  2  0
  3  4  1  0
  4  5  2  0
  5  6  1  0
  6  7  2  0
  7  8  1  0
  8  9  1  0
  9 10  1  0
 10 11  1  0
 11 12  1  0
 12 13  1  0
 13 14  2  0
 14 15  1  0
 15 16  2  0
 16 17  1  0
 17 18  2  0
 17 19  1  0
 19 20  1  0
 19 21  1  0
 21 22  2  0
 21 23  1  0
 23 24  1  0
 23 25  1  0
 25 26  2  0
 11 27  1  0
 27 28  1  0
  7  2  1  0
 28  8  1  0
 26 13  1  0
 25 16  1  0
  1 29  1  0
  1 30  1  0
  1 31  1  0
  3 32  1  0
  4 33  1  0
  5 34  1  0
  6 35  1  0
  9 36  1  0
  9 37  1  0
 10 38  1  0
 10 39  1  0
 12 40  1  0
 12 41  1  0
 20 42  1  0
 20 43  1  0
 20 44  1  0
 24 45  1  0
 24 46  1  0
 24 47  1  0
 27 48  1  0
 27 49  1  0
 28 50  1  0
 28 51  1  0
M  END
>  <UniqueID>  (31) 
21

>  <SMILES>  (31) 
Cc1ccccc1N1CCN(Cc2nnc3c(=O)n(C)c(=O)n(C)c3n2)CC1

>  <Energy>  (31) 
78.4361053943944

>  <Genealogy>  (31) 
Cc1ccccc1N1CCN(Cc2nnc3c(=O)n(C)c(=O)n(C)c3n2)CC1 (3D coordinates assigned)
Cc1ccccc1N1CCN(Cc2nnc3c(=O)n(C)c(=O)n(C)c3n2)CC1 (nonaromatic ring conformer: 78.4361053943944 kcal/mol)

>  <smiles>  (31) 
Cc1ccccc1N1CCN(Cc2nnc3c(=O)n(C)c(=O)n(C)c3n2)CC1

>  <score_type>  (31) 
oracle

>  <origin>  (31) 
autodockgpu

>  <m_score__min__energy>  (31) 
-7.6600000000000001

>  <m_primary>  (31) 
energy

>  <meeko>  (31) 
{"free_energy": -7.65, "intermolecular_energy": -8.55, "internal_energy": -0.41, "cluster_size": 5, "cluster_id": 1, "rank_in_cluster": 2}

>  <energy>  (31) 
-6.82

>  <cluster_rmsd>  (31) 
1.94

>  <rmsd>  (31) 
269.21

>  <cluster>  (31) 
2

$$$$
IILOZLGKIKELDM-UHFFFAOYNA-N
     RDKit          3D

 51 54  0  0  0  0  0  0  0  0999 V2000
  141.4370   71.1880  225.7360 C   0  0  0  0  0  0  0  0  0  0  0  0
  140.7770   69.8990  226.1410 C   0  0  0  0  0  0  0  0  0  0  0  0
  141.0630   69.3300  227.3940 C   0  0  0  0  0  0  0  0  0  0  0  0
  140.4420   68.1420  227.7900 C   0  0  0  0  0  0  0  0  0  0  0  0
  139.5230   67.5180  226.9450 C   0  0  0  0  0  0  0  0  0  0  0  0
  139.2200   68.0800  225.7030 C   0  0  0  0  0  0  0  0  0  0  0  0
  139.8370   69.2720  225.2970 C   0  0  0  0  0  0  0  0  0  0  0  0
  139.5050   69.8370  224.0210 N   0  0  0  0  0  0  0  0  0  0  0  0
  139.1330   71.2500  223.9510 C   0  0  0  0  0  0  0  0  0  0  0  0
  138.7370   71.6360  222.5200 C   0  0  0  0  0  0  0  0  0  0  0  0
  139.6510   71.0420  221.5170 N   0  0  0  0  0  0  0  0  0  0  0  0
  141.0180   71.6100  221.5570 C   0  0  0  0  0  0  0  0  0  0  0  0
  140.9960   73.1050  221.4590 C   0  0  0  0  0  0  0  0  0  0  0  0
  140.2750   73.8400  222.3450 N   0  0  0  0  0  0  0  0  0  0  0  0
  140.2750   75.1720  222.2860 N   0  0  0  0  0  0  0  0  0  0  0  0
  140.9990   75.8320  221.3430 C   0  0  0  0  0  0  0  0  0  0  0  0
  141.0190   77.2210  221.2780 C   0  0  0  0  0  0  0  0  0  0  0  0
  140.3500   77.8900  222.1160 O   0  0  0  0  0  0  0  0  0  0  0  0
  141.7680   77.8510  220.3190 N   0  0  0  0  0  0  0  0  0  0  0  0
  141.8210   79.3220  220.2770 C   0  0  0  0  0  0  0  0  0  0  0  0
  142.5340   77.1110  219.4480 C   0  0  0  0  0  0  0  0  0  0  0  0
  143.2820   77.7020  218.6170 O   0  0  0  0  0  0  0  0  0  0  0  0
  142.5000   75.7370  219.4740 N   0  0  0  0  0  0  0  0  0  0  0  0
  143.3280   74.9530  218.5410 C   0  0  0  0  0  0  0  0  0  0  0  0
  141.7530   75.0950  220.4250 C   0  0  0  0  0  0  0  0  0  0  0  0
  141.7350   73.7360  220.5100 N   0  0  0  0  0  0  0  0  0  0  0  0
  139.6700   69.5550  221.5620 C   0  0  0  0  0  0  0  0  0  0  0  0
  139.2010   68.9460  222.9010 C   0  0  0  0  0  0  0  0  0  0  0  0
  141.7252   71.7509  226.6360 H   0  0  0  0  0  0  0  0  0  0  0  0
  142.3337   70.9687  225.1379 H   0  0  0  0  0  0  0  0  0  0  0  0
  140.7348   71.7873  225.1379 H   0  0  0  0  0  0  0  0  0  0  0  0
  141.7800   69.8227  228.0672 H   0  0  0  0  0  0  0  0  0  0  0  0
  140.6778   67.6984  228.7686 H   0  0  0  0  0  0  0  0  0  0  0  0
  139.0367   66.5822  227.2578 H   0  0  0  0  0  0  0  0  0  0  0  0
  138.4943   67.5856  225.0404 H   0  0  0  0  0  0  0  0  0  0  0  0
  138.2817   71.4330  224.6231 H   0  0  0  0  0  0  0  0  0  0  0  0
  139.9971   71.8588  224.2553 H   0  0  0  0  0  0  0  0  0  0  0  0
  137.7147   71.2798  222.3251 H   0  0  0  0  0  0  0  0  0  0  0  0
  138.7978   72.7308  222.4320 H   0  0  0  0  0  0  0  0  0  0  0  0
  141.4972   71.3212  222.5041 H   0  0  0  0  0  0  0  0  0  0  0  0
  141.5799   71.2166  220.6971 H   0  0  0  0  0  0  0  0  0  0  0  0
  141.8353   79.7178  221.3032 H   0  0  0  0  0  0  0  0  0  0  0  0
  142.7312   79.6412  219.7482 H   0  0  0  0  0  0  0  0  0  0  0  0
  140.9361   79.7058  219.7482 H   0  0  0  0  0  0  0  0  0  0  0  0
  144.0110   74.3064  219.1115 H   0  0  0  0  0  0  0  0  0  0  0  0
  142.6781   74.3315  217.9075 H   0  0  0  0  0  0  0  0  0  0  0  0
  143.9131   75.6358  217.9075 H   0  0  0  0  0  0  0  0  0  0  0  0
  139.0115   69.1793  220.7650 H   0  0  0  0  0  0  0  0  0  0  0  0
  140.7198   69.2528  221.4330 H   0  0  0  0  0  0  0  0  0  0  0  0
  138.1144   68.7799  222.8589 H   0  0  0  0  0  0  0  0  0  0  0  0
  139.7321   67.9954  223.0571 H   0  0  0  0  0  0  0  0  0  0  0  0
  1  2  1  0
  2  3  2  0
  3  4  1  0
  4  5  2  0
  5  6  1  0
  6  7  2  0
  7  8  1  0
  8  9  1  0
  9 10  1  0
 10 11  1  0
 11 12  1  0
 12 13  1  0
 13 14  2  0
 14 15  1  0
 15 16  2  0
 16 17  1  0
 17 18  2  0
 17 19  1  0
 19 20  1  0
 19 21  1  0
 21 22  2  0
 21 23  1  0
 23 24  1  0
 23 25  1  0
 25 26  2  0
 11 27  1  0
 27 28  1  0
  7  2  1  0
 28  8  1  0
 26 13  1  0
 25 16  1  0
  1 29  1  0
  1 30  1  0
  1 31  1  0
  3 32  1  0
  4 33  1  0
  5 34  1  0
  6 35  1  0
  9 36  1  0
  9 37  1  0
 10 38  1  0
 10 39  1  0
 12 40  1  0
 12 41  1  0
 20 42  1  0
 20 43  1  0
 20 44  1  0
 24 45  1  0
 24 46  1  0
 24 47  1  0
 27 48  1  0
 27 49  1  0
 28 50  1  0
 28 51  1  0
M  END
>  <UniqueID>  (32) 
21

>  <SMILES>  (32) 
Cc1ccccc1N1CCN(Cc2nnc3c(=O)n(C)c(=O)n(C)c3n2)CC1

>  <Energy>  (32) 
78.4361053943944

>  <Genealogy>  (32) 
Cc1ccccc1N1CCN(Cc2nnc3c(=O)n(C)c(=O)n(C)c3n2)CC1 (3D coordinates assigned)
Cc1ccccc1N1CCN(Cc2nnc3c(=O)n(C)c(=O)n(C)c3n2)CC1 (nonaromatic ring conformer: 78.4361053943944 kcal/mol)

>  <smiles>  (32) 
Cc1ccccc1N1CCN(Cc2nnc3c(=O)n(C)c(=O)n(C)c3n2)CC1

>  <score_type>  (32) 
oracle

>  <origin>  (32) 
autodockgpu

>  <m_score__min__energy>  (32) 
-7.6600000000000001

>  <m_primary>  (32) 
energy

>  <meeko>  (32) 
{"free_energy": -7.66, "intermolecular_energy": -8.56, "internal_energy": -0.4, "cluster_size": 5, "cluster_id": 1, "rank_in_cluster": 1}

>  <energy>  (32) 
-6.97

>  <cluster_rmsd>  (32) 
0.0

>  <rmsd>  (32) 
269.03

>  <cluster>  (32) 
3

$$$$
IILOZLGKIKELDM-UHFFFAOYNA-N
     RDKit          3D

 51 54  0  0  0  0  0  0  0  0999 V2000
  141.4160   71.2180  225.7910 C   0  0  0  0  0  0  0  0  0  0  0  0
  140.7350   69.9280  226.1550 C   0  0  0  0  0  0  0  0  0  0  0  0
  141.0060   69.3190  227.3930 C   0  0  0  0  0  0  0  0  0  0  0  0
  140.3660   68.1300  227.7510 C   0  0  0  0  0  0  0  0  0  0  0  0
  139.4430   67.5430  226.8840 C   0  0  0  0  0  0  0  0  0  0  0  0
  139.1550   68.1450  225.6570 C   0  0  0  0  0  0  0  0  0  0  0  0
  139.7900   69.3400  225.2890 C   0  0  0  0  0  0  0  0  0  0  0  0
  139.4740   69.9450  224.0280 N   0  0  0  0  0  0  0  0  0  0  0  0
  139.0920   71.3580  224.0010 C   0  0  0  0  0  0  0  0  0  0  0  0
  138.7150   71.7900  222.5780 C   0  0  0  0  0  0  0  0  0  0  0  0
  139.6480   71.2380  221.5700 N   0  0  0  0  0  0  0  0  0  0  0  0
  141.0100   71.8150  221.6510 C   0  0  0  0  0  0  0  0  0  0  0  0
  140.9870   73.3040  221.4940 C   0  0  0  0  0  0  0  0  0  0  0  0
  140.2590   74.0730  222.3450 N   0  0  0  0  0  0  0  0  0  0  0  0
  140.2580   75.4020  222.2340 N   0  0  0  0  0  0  0  0  0  0  0  0
  140.9880   76.0240  221.2710 C   0  0  0  0  0  0  0  0  0  0  0  0
  141.0070   77.4110  221.1520 C   0  0  0  0  0  0  0  0  0  0  0  0
  140.3310   78.1100  221.9590 O   0  0  0  0  0  0  0  0  0  0  0  0
  141.7610   78.0030  220.1740 N   0  0  0  0  0  0  0  0  0  0  0  0
  141.8130   79.4720  220.0740 C   0  0  0  0  0  0  0  0  0  0  0  0
  142.5330   77.2310  219.3370 C   0  0  0  0  0  0  0  0  0  0  0  0
  143.2850   77.7900  218.4880 O   0  0  0  0  0  0  0  0  0  0  0  0
  142.5000   75.8590  219.4170 N   0  0  0  0  0  0  0  0  0  0  0  0
  143.3360   75.0400  218.5210 C   0  0  0  0  0  0  0  0  0  0  0  0
  141.7480   75.2530  220.3870 C   0  0  0  0  0  0  0  0  0  0  0  0
  141.7310   73.8990  220.5260 N   0  0  0  0  0  0  0  0  0  0  0  0
  139.6780   69.7500  221.5640 C   0  0  0  0  0  0  0  0  0  0  0  0
  139.1940   69.0920  222.8730 C   0  0  0  0  0  0  0  0  0  0  0  0
  141.6993   71.7547  226.7085 H   0  0  0  0  0  0  0  0  0  0  0  0
  142.3177   71.0023  225.1991 H   0  0  0  0  0  0  0  0  0  0  0  0
  140.7292   71.8409  225.1991 H   0  0  0  0  0  0  0  0  0  0  0  0
  141.7263   69.7816  228.0838 H   0  0  0  0  0  0  0  0  0  0  0  0
  140.5898   67.6555  228.7178 H   0  0  0  0  0  0  0  0  0  0  0  0
  138.9420   66.6056  227.1673 H   0  0  0  0  0  0  0  0  0  0  0  0
  138.4269   67.6797  224.9763 H   0  0  0  0  0  0  0  0  0  0  0  0
  138.2291   71.5117  224.6657 H   0  0  0  0  0  0  0  0  0  0  0  0
  139.9465   71.9622  224.3396 H   0  0  0  0  0  0  0  0  0  0  0  0
  137.6986   71.4333  222.3552 H   0  0  0  0  0  0  0  0  0  0  0  0
  138.7689   72.8876  222.5286 H   0  0  0  0  0  0  0  0  0  0  0  0
  141.4459   71.5657  222.6297 H   0  0  0  0  0  0  0  0  0  0  0  0
  141.6126   71.3917  220.8339 H   0  0  0  0  0  0  0  0  0  0  0  0
  141.8284   79.9079  221.0838 H   0  0  0  0  0  0  0  0  0  0  0  0
  142.7223   79.7706  219.5318 H   0  0  0  0  0  0  0  0  0  0  0  0
  140.9271   79.8342  219.5318 H   0  0  0  0  0  0  0  0  0  0  0  0
  143.9943   74.3951  219.1216 H   0  0  0  0  0  0  0  0  0  0  0  0
  142.6903   74.4153  217.8864 H   0  0  0  0  0  0  0  0  0  0  0  0
  143.9473   75.6984  217.8864 H   0  0  0  0  0  0  0  0  0  0  0  0
  139.0346   69.3973  220.7445 H   0  0  0  0  0  0  0  0  0  0  0  0
  140.7319   69.4602  221.4408 H   0  0  0  0  0  0  0  0  0  0  0  0
  138.1095   68.9197  222.8085 H   0  0  0  0  0  0  0  0  0  0  0  0
  139.7303   68.1406  223.0040 H   0  0  0  0  0  0  0  0  0  0  0  0
  1  2  1  0
  2  3  2  0
  3  4  1  0
  4  5  2  0
  5  6  1  0
  6  7  2  0
  7  8  1  0
  8  9  1  0
  9 10  1  0
 10 11  1  0
 11 12  1  0
 12 13  1  0
 13 14  2  0
 14 15  1  0
 15 16  2  0
 16 17  1  0
 17 18  2  0
 17 19  1  0
 19 20  1  0
 19 21  1  0
 21 22  2  0
 21 23  1  0
 23 24  1  0
 23 25  1  0
 25 26  2  0
 11 27  1  0
 27 28  1  0
  7  2  1  0
 28  8  1  0
 26 13  1  0
 25 16  1  0
  1 29  1  0
  1 30  1  0
  1 31  1  0
  3 32  1  0
  4 33  1  0
  5 34  1  0
  6 35  1  0
  9 36  1  0
  9 37  1  0
 10 38  1  0
 10 39  1  0
 12 40  1  0
 12 41  1  0
 20 42  1  0
 20 43  1  0
 20 44  1  0
 24 45  1  0
 24 46  1  0
 24 47  1  0
 27 48  1  0
 27 49  1  0
 28 50  1  0
 28 51  1  0
M  END
>  <UniqueID>  (33) 
21

>  <SMILES>  (33) 
Cc1ccccc1N1CCN(Cc2nnc3c(=O)n(C)c(=O)n(C)c3n2)CC1

>  <Energy>  (33) 
78.4361053943944

>  <Genealogy>  (33) 
Cc1ccccc1N1CCN(Cc2nnc3c(=O)n(C)c(=O)n(C)c3n2)CC1 (3D coordinates assigned)
Cc1ccccc1N1CCN(Cc2nnc3c(=O)n(C)c(=O)n(C)c3n2)CC1 (nonaromatic ring conformer: 78.4361053943944 kcal/mol)

>  <smiles>  (33) 
Cc1ccccc1N1CCN(Cc2nnc3c(=O)n(C)c(=O)n(C)c3n2)CC1

>  <score_type>  (33) 
oracle

>  <origin>  (33) 
autodockgpu

>  <m_score__min__energy>  (33) 
-7.6600000000000001

>  <m_primary>  (33) 
energy

>  <meeko>  (33) 
{"free_energy": -7.58, "intermolecular_energy": -8.47, "internal_energy": -0.5, "cluster_size": 5, "cluster_id": 1, "rank_in_cluster": 5}

>  <energy>  (33) 
-6.78

>  <cluster_rmsd>  (33) 
0.0

>  <rmsd>  (33) 
269.19

>  <cluster>  (33) 
4

$$$$
IILOZLGKIKELDM-UHFFFAOYNA-N
     RDKit          3D

 51 54  0  0  0  0  0  0  0  0999 V2000
  141.0640   75.8850  221.6040 C   0  0  0  0  0  0  0  0  0  0  0  0
  140.4530   77.0870  222.2700 C   0  0  0  0  0  0  0  0  0  0  0  0
  141.2840   78.0980  222.7850 C   0  0  0  0  0  0  0  0  0  0  0  0
  140.7280   79.2290  223.3900 C   0  0  0  0  0  0  0  0  0  0  0  0
  139.3420   79.3660  223.4780 C   0  0  0  0  0  0  0  0  0  0  0  0
  138.5060   78.3750  222.9590 C   0  0  0  0  0  0  0  0  0  0  0  0
  139.0530   77.2370  222.3480 C   0  0  0  0  0  0  0  0  0  0  0  0
  138.1770   76.2350  221.8140 N   0  0  0  0  0  0  0  0  0  0  0  0
  137.9810   76.1690  220.3650 C   0  0  0  0  0  0  0  0  0  0  0  0
  136.9510   75.0920  220.0060 C   0  0  0  0  0  0  0  0  0  0  0  0
  137.1450   73.8570  220.8010 N   0  0  0  0  0  0  0  0  0  0  0  0
  138.3910   73.1310  220.4650 C   0  0  0  0  0  0  0  0  0  0  0  0
  139.0080   72.5060  221.6790 C   0  0  0  0  0  0  0  0  0  0  0  0
  139.9720   73.1620  222.3740 N   0  0  0  0  0  0  0  0  0  0  0  0
  140.5050   72.6290  223.4740 N   0  0  0  0  0  0  0  0  0  0  0  0
  140.0950   71.4170  223.9330 C   0  0  0  0  0  0  0  0  0  0  0  0
  140.6320   70.8540  225.0870 C   0  0  0  0  0  0  0  0  0  0  0  0
  141.5220   71.4840  225.7260 O   0  0  0  0  0  0  0  0  0  0  0  0
  140.1880   69.6340  225.5230 N   0  0  0  0  0  0  0  0  0  0  0  0
  140.7270   69.0580  226.7670 C   0  0  0  0  0  0  0  0  0  0  0  0
  139.1800   68.9850  224.8470 C   0  0  0  0  0  0  0  0  0  0  0  0
  138.7230   67.8980  225.3010 O   0  0  0  0  0  0  0  0  0  0  0  0
  138.6620   69.5100  223.6860 N   0  0  0  0  0  0  0  0  0  0  0  0
  137.5790   68.8100  222.9720 C   0  0  0  0  0  0  0  0  0  0  0  0
  139.1000   70.7260  223.2360 C   0  0  0  0  0  0  0  0  0  0  0  0
  138.5740   71.2960  222.1180 N   0  0  0  0  0  0  0  0  0  0  0  0
  137.0190   74.0890  222.2660 C   0  0  0  0  0  0  0  0  0  0  0  0
  137.2430   75.5500  222.7080 C   0  0  0  0  0  0  0  0  0  0  0  0
  141.4211   75.1825  222.3715 H   0  0  0  0  0  0  0  0  0  0  0  0
  140.3083   75.3897  220.9767 H   0  0  0  0  0  0  0  0  0  0  0  0
  141.9096   76.2036  220.9767 H   0  0  0  0  0  0  0  0  0  0  0  0
  142.3770   77.9983  222.7114 H   0  0  0  0  0  0  0  0  0  0  0  0
  141.3841   80.0123  223.7974 H   0  0  0  0  0  0  0  0  0  0  0  0
  138.9074   80.2558  223.9568 H   0  0  0  0  0  0  0  0  0  0  0  0
  137.4140   78.4873  223.0296 H   0  0  0  0  0  0  0  0  0  0  0  0
  137.6238   77.1448  220.0041 H   0  0  0  0  0  0  0  0  0  0  0  0
  138.9397   75.9139  219.8898 H   0  0  0  0  0  0  0  0  0  0  0  0
  135.9423   75.4855  220.2002 H   0  0  0  0  0  0  0  0  0  0  0  0
  137.0790   74.8378  218.9435 H   0  0  0  0  0  0  0  0  0  0  0  0
  138.1586   72.3411  219.7355 H   0  0  0  0  0  0  0  0  0  0  0  0
  139.1082   73.8525  220.0466 H   0  0  0  0  0  0  0  0  0  0  0  0
  140.2627   69.5541  227.6320 H   0  0  0  0  0  0  0  0  0  0  0  0
  140.5046   67.9812  226.7990 H   0  0  0  0  0  0  0  0  0  0  0  0
  141.8162   69.2085  226.7990 H   0  0  0  0  0  0  0  0  0  0  0  0
  136.8877   68.3632  223.7017 H   0  0  0  0  0  0  0  0  0  0  0  0
  137.0330   69.5265  222.3407 H   0  0  0  0  0  0  0  0  0  0  0  0
  138.0081   68.0179  222.3407 H   0  0  0  0  0  0  0  0  0  0  0  0
  136.0068   73.7888  222.5748 H   0  0  0  0  0  0  0  0  0  0  0  0
  137.8111   73.4943  222.7444 H   0  0  0  0  0  0  0  0  0  0  0  0
  136.2795   76.0806  222.6954 H   0  0  0  0  0  0  0  0  0  0  0  0
  137.6699   75.5461  223.7218 H   0  0  0  0  0  0  0  0  0  0  0  0
  1  2  1  0
  2  3  2  0
  3  4  1  0
  4  5  2  0
  5  6  1  0
  6  7  2  0
  7  8  1  0
  8  9  1  0
  9 10  1  0
 10 11  1  0
 11 12  1  0
 12 13  1  0
 13 14  2  0
 14 15  1  0
 15 16  2  0
 16 17  1  0
 17 18  2  0
 17 19  1  0
 19 20  1  0
 19 21  1  0
 21 22  2  0
 21 23  1  0
 23 24  1  0
 23 25  1  0
 25 26  2  0
 11 27  1  0
 27 28  1  0
  7  2  1  0
 28  8  1  0
 26 13  1  0
 25 16  1  0
  1 29  1  0
  1 30  1  0
  1 31  1  0
  3 32  1  0
  4 33  1  0
  5 34  1  0
  6 35  1  0
  9 36  1  0
  9 37  1  0
 10 38  1  0
 10 39  1  0
 12 40  1  0
 12 41  1  0
 20 42  1  0
 20 43  1  0
 20 44  1  0
 24 45  1  0
 24 46  1  0
 24 47  1  0
 27 48  1  0
 27 49  1  0
 28 50  1  0
 28 51  1  0
M  END
>  <UniqueID>  (34) 
21

>  <SMILES>  (34) 
Cc1ccccc1N1CCN(Cc2nnc3c(=O)n(C)c(=O)n(C)c3n2)CC1

>  <Energy>  (34) 
78.4361053943944

>  <Genealogy>  (34) 
Cc1ccccc1N1CCN(Cc2nnc3c(=O)n(C)c(=O)n(C)c3n2)CC1 (3D coordinates assigned)
Cc1ccccc1N1CCN(Cc2nnc3c(=O)n(C)c(=O)n(C)c3n2)CC1 (nonaromatic ring conformer: 78.4361053943944 kcal/mol)

>  <smiles>  (34) 
Cc1ccccc1N1CCN(Cc2nnc3c(=O)n(C)c(=O)n(C)c3n2)CC1

>  <score_type>  (34) 
oracle

>  <origin>  (34) 
autodockgpu

>  <m_score__min__energy>  (34) 
-7.6600000000000001

>  <m_primary>  (34) 
energy

>  <meeko>  (34) 
{"free_energy": -6.76, "intermolecular_energy": -7.66, "internal_energy": -1.16, "cluster_size": 4, "cluster_id": 4, "rank_in_cluster": 3}

>  <energy>  (34) 
-6.77

>  <cluster_rmsd>  (34) 
0.14

>  <rmsd>  (34) 
269.17

>  <cluster>  (34) 
4

$$$$
IILOZLGKIKELDM-UHFFFAOYNA-N
     RDKit          3D

 51 54  0  0  0  0  0  0  0  0999 V2000
  141.2660   75.5790  221.5870 C   0  0  0  0  0  0  0  0  0  0  0  0
  140.4410   76.7100  222.1350 C   0  0  0  0  0  0  0  0  0  0  0  0
  141.0780   77.8450  222.6680 C   0  0  0  0  0  0  0  0  0  0  0  0
  140.3220   78.9120  223.1630 C   0  0  0  0  0  0  0  0  0  0  0  0
  138.9280   78.8610  223.1220 C   0  0  0  0  0  0  0  0  0  0  0  0
  138.2840   77.7450  222.5830 C   0  0  0  0  0  0  0  0  0  0  0  0
  139.0320   76.6700  222.0810 C   0  0  0  0  0  0  0  0  0  0  0  0
  138.3520   75.5380  221.5250 N   0  0  0  0  0  0  0  0  0  0  0  0
  138.3970   75.3290  220.0760 C   0  0  0  0  0  0  0  0  0  0  0  0
  137.5430   74.1200  219.6760 C   0  0  0  0  0  0  0  0  0  0  0  0
  137.7240   72.9850  220.6100 N   0  0  0  0  0  0  0  0  0  0  0  0
  139.0700   72.3720  220.5390 C   0  0  0  0  0  0  0  0  0  0  0  0
  139.5240   71.8840  221.8810 C   0  0  0  0  0  0  0  0  0  0  0  0
  140.2530   72.6910  222.6950 N   0  0  0  0  0  0  0  0  0  0  0  0
  140.6340   72.2780  223.9040 N   0  0  0  0  0  0  0  0  0  0  0  0
  140.3010   71.0400  224.3580 C   0  0  0  0  0  0  0  0  0  0  0  0
  140.6800   70.6010  225.6230 C   0  0  0  0  0  0  0  0  0  0  0  0
  141.3500   71.3690  226.3700 O   0  0  0  0  0  0  0  0  0  0  0  0
  140.3180   69.3510  226.0490 N   0  0  0  0  0  0  0  0  0  0  0  0
  140.6840   68.9020  227.4030 C   0  0  0  0  0  0  0  0  0  0  0  0
  139.5430   68.5460  225.2450 C   0  0  0  0  0  0  0  0  0  0  0  0
  139.1480   67.4260  225.6790 O   0  0  0  0  0  0  0  0  0  0  0  0
  139.1880   68.9500  223.9800 N   0  0  0  0  0  0  0  0  0  0  0  0
  138.3520   68.0840  223.1290 C   0  0  0  0  0  0  0  0  0  0  0  0
  139.5470   70.1950  223.5390 C   0  0  0  0  0  0  0  0  0  0  0  0
  139.1700   70.6450  222.3110 N   0  0  0  0  0  0  0  0  0  0  0  0
  137.3450   73.3230  222.0090 C   0  0  0  0  0  0  0  0  0  0  0  0
  137.3550   74.8320  222.3320 C   0  0  0  0  0  0  0  0  0  0  0  0
  141.6900   74.9977  222.4191 H   0  0  0  0  0  0  0  0  0  0  0  0
  140.6302   74.9266  220.9705 H   0  0  0  0  0  0  0  0  0  0  0  0
  142.0814   75.9852  220.9705 H   0  0  0  0  0  0  0  0  0  0  0  0
  142.1766   77.8935  222.6956 H   0  0  0  0  0  0  0  0  0  0  0  0
  140.8270   79.7932  223.5855 H   0  0  0  0  0  0  0  0  0  0  0  0
  138.3357   79.7007  223.5146 H   0  0  0  0  0  0  0  0  0  0  0  0
  137.1850   77.7090  222.5521 H   0  0  0  0  0  0  0  0  0  0  0  0
  138.0120   76.2264  219.5696 H   0  0  0  0  0  0  0  0  0  0  0  0
  139.4389   75.1401  219.7781 H   0  0  0  0  0  0  0  0  0  0  0  0
  136.4837   74.4165  219.6771 H   0  0  0  0  0  0  0  0  0  0  0  0
  137.8613   73.7930  218.6751 H   0  0  0  0  0  0  0  0  0  0  0  0
  139.0390   71.5220  219.8415 H   0  0  0  0  0  0  0  0  0  0  0  0
  139.7796   73.1379  220.1927 H   0  0  0  0  0  0  0  0  0  0  0  0
  140.1727   69.5293  228.1480 H   0  0  0  0  0  0  0  0  0  0  0  0
  140.3802   67.8532  227.5361 H   0  0  0  0  0  0  0  0  0  0  0  0
  141.7725   68.9882  227.5361 H   0  0  0  0  0  0  0  0  0  0  0  0
  137.7282   67.4379  223.7642 H   0  0  0  0  0  0  0  0  0  0  0  0
  137.7058   68.7078  222.4939 H   0  0  0  0  0  0  0  0  0  0  0  0
  138.9981   67.4602  222.4939 H   0  0  0  0  0  0  0  0  0  0  0  0
  136.3300   72.9401  222.1913 H   0  0  0  0  0  0  0  0  0  0  0  0
  138.1041   72.8610  222.6573 H   0  0  0  0  0  0  0  0  0  0  0  0
  136.3601   75.2510  222.1209 H   0  0  0  0  0  0  0  0  0  0  0  0
  137.6115   74.9599  223.3940 H   0  0  0  0  0  0  0  0  0  0  0  0
  1  2  1  0
  2  3  2  0
  3  4  1  0
  4  5  2  0
  5  6  1  0
  6  7  2  0
  7  8  1  0
  8  9  1  0
  9 10  1  0
 10 11  1  0
 11 12  1  0
 12 13  1  0
 13 14  2  0
 14 15  1  0
 15 16  2  0
 16 17  1  0
 17 18  2  0
 17 19  1  0
 19 20  1  0
 19 21  1  0
 21 22  2  0
 21 23  1  0
 23 24  1  0
 23 25  1  0
 25 26  2  0
 11 27  1  0
 27 28  1  0
  7  2  1  0
 28  8  1  0
 26 13  1  0
 25 16  1  0
  1 29  1  0
  1 30  1  0
  1 31  1  0
  3 32  1  0
  4 33  1  0
  5 34  1  0
  6 35  1  0
  9 36  1  0
  9 37  1  0
 10 38  1  0
 10 39  1  0
 12 40  1  0
 12 41  1  0
 20 42  1  0
 20 43  1  0
 20 44  1  0
 24 45  1  0
 24 46  1  0
 24 47  1  0
 27 48  1  0
 27 49  1  0
 28 50  1  0
 28 51  1  0
M  END
>  <UniqueID>  (35) 
21

>  <SMILES>  (35) 
Cc1ccccc1N1CCN(Cc2nnc3c(=O)n(C)c(=O)n(C)c3n2)CC1

>  <Energy>  (35) 
78.4361053943944

>  <Genealogy>  (35) 
Cc1ccccc1N1CCN(Cc2nnc3c(=O)n(C)c(=O)n(C)c3n2)CC1 (3D coordinates assigned)
Cc1ccccc1N1CCN(Cc2nnc3c(=O)n(C)c(=O)n(C)c3n2)CC1 (nonaromatic ring conformer: 78.4361053943944 kcal/mol)

>  <smiles>  (35) 
Cc1ccccc1N1CCN(Cc2nnc3c(=O)n(C)c(=O)n(C)c3n2)CC1

>  <score_type>  (35) 
oracle

>  <origin>  (35) 
autodockgpu

>  <m_score__min__energy>  (35) 
-7.6600000000000001

>  <m_primary>  (35) 
energy

>  <meeko>  (35) 
{"free_energy": -6.84, "intermolecular_energy": -7.73, "internal_energy": -1.14, "cluster_size": 6, "cluster_id": 2, "rank_in_cluster": 3}

>  <energy>  (35) 
-6.76

>  <cluster_rmsd>  (35) 
0.08

>  <rmsd>  (35) 
269.21

>  <cluster>  (35) 
4

$$$$
IILOZLGKIKELDM-UHFFFAOYNA-N
     RDKit          3D

 51 54  0  0  0  0  0  0  0  0999 V2000
  141.0850   75.7940  221.5660 C   0  0  0  0  0  0  0  0  0  0  0  0
  140.4810   76.9930  222.2420 C   0  0  0  0  0  0  0  0  0  0  0  0
  141.3170   77.9940  222.7680 C   0  0  0  0  0  0  0  0  0  0  0  0
  140.7670   79.1230  223.3830 C   0  0  0  0  0  0  0  0  0  0  0  0
  139.3820   79.2680  223.4700 C   0  0  0  0  0  0  0  0  0  0  0  0
  138.5410   78.2870  222.9400 C   0  0  0  0  0  0  0  0  0  0  0  0
  139.0820   77.1510  222.3190 C   0  0  0  0  0  0  0  0  0  0  0  0
  138.2010   76.1600  221.7750 N   0  0  0  0  0  0  0  0  0  0  0  0
  138.0210   76.0960  220.3240 C   0  0  0  0  0  0  0  0  0  0  0  0
  136.9830   75.0310  219.9530 C   0  0  0  0  0  0  0  0  0  0  0  0
  137.1530   73.7940  220.7500 N   0  0  0  0  0  0  0  0  0  0  0  0
  138.3940   73.0530  220.4280 C   0  0  0  0  0  0  0  0  0  0  0  0
  139.0120   72.4560  221.6550 C   0  0  0  0  0  0  0  0  0  0  0  0
  139.9410   73.1500  222.3630 N   0  0  0  0  0  0  0  0  0  0  0  0
  140.4730   72.6410  223.4740 N   0  0  0  0  0  0  0  0  0  0  0  0
  140.0990   71.4180  223.9340 C   0  0  0  0  0  0  0  0  0  0  0  0
  140.6360   70.8810  225.0990 C   0  0  0  0  0  0  0  0  0  0  0  0
  141.4920   71.5450  225.7500 O   0  0  0  0  0  0  0  0  0  0  0  0
  140.2270   69.6480  225.5360 N   0  0  0  0  0  0  0  0  0  0  0  0
  140.7660   69.0980  226.7910 C   0  0  0  0  0  0  0  0  0  0  0  0
  139.2550   68.9610  224.8460 C   0  0  0  0  0  0  0  0  0  0  0  0
  138.8290   67.8600  225.2990 O   0  0  0  0  0  0  0  0  0  0  0  0
  138.7380   69.4600  223.6740 N   0  0  0  0  0  0  0  0  0  0  0  0
  137.6930   68.7190  222.9460 C   0  0  0  0  0  0  0  0  0  0  0  0
  139.1410   70.6890  223.2240 C   0  0  0  0  0  0  0  0  0  0  0  0
  138.6130   71.2340  222.0940 N   0  0  0  0  0  0  0  0  0  0  0  0
  137.0120   74.0270  222.2130 C   0  0  0  0  0  0  0  0  0  0  0  0
  137.2480   75.4860  222.6580 C   0  0  0  0  0  0  0  0  0  0  0  0
  141.4422   75.0850  222.3274 H   0  0  0  0  0  0  0  0  0  0  0  0
  140.3253   75.3057  220.9379 H   0  0  0  0  0  0  0  0  0  0  0  0
  141.9295   76.1139  220.9379 H   0  0  0  0  0  0  0  0  0  0  0  0
  142.4095   77.8883  222.6953 H   0  0  0  0  0  0  0  0  0  0  0  0
  141.4274   79.8982  223.7989 H   0  0  0  0  0  0  0  0  0  0  0  0
  138.9520   80.1559  223.9566 H   0  0  0  0  0  0  0  0  0  0  0  0
  137.4496   78.4055  223.0097 H   0  0  0  0  0  0  0  0  0  0  0  0
  137.6793   77.0758  219.9590 H   0  0  0  0  0  0  0  0  0  0  0  0
  138.9821   75.8297  219.8599 H   0  0  0  0  0  0  0  0  0  0  0  0
  135.9767   75.4362  220.1353 H   0  0  0  0  0  0  0  0  0  0  0  0
  137.1208   74.7751  218.8921 H   0  0  0  0  0  0  0  0  0  0  0  0
  138.1547   72.2461  219.7197 H   0  0  0  0  0  0  0  0  0  0  0  0
  139.1134   73.7597  219.9887 H   0  0  0  0  0  0  0  0  0  0  0  0
  140.2815   69.5924  227.6459 H   0  0  0  0  0  0  0  0  0  0  0  0
  140.5681   68.0167  226.8323 H   0  0  0  0  0  0  0  0  0  0  0  0
  141.8510   69.2740  226.8323 H   0  0  0  0  0  0  0  0  0  0  0  0
  137.0150   68.2382  223.6665 H   0  0  0  0  0  0  0  0  0  0  0  0
  137.1224   69.4154  222.3140 H   0  0  0  0  0  0  0  0  0  0  0  0
  138.1614   67.9501  222.3140 H   0  0  0  0  0  0  0  0  0  0  0  0
  135.9927   73.7387  222.5095 H   0  0  0  0  0  0  0  0  0  0  0  0
  137.7910   73.4228  222.7009 H   0  0  0  0  0  0  0  0  0  0  0  0
  136.2911   76.0279  222.6339 H   0  0  0  0  0  0  0  0  0  0  0  0
  137.6626   75.4772  223.6768 H   0  0  0  0  0  0  0  0  0  0  0  0
  1  2  1  0
  2  3  2  0
  3  4  1  0
  4  5  2  0
  5  6  1  0
  6  7  2  0
  7  8  1  0
  8  9  1  0
  9 10  1  0
 10 11  1  0
 11 12  1  0
 12 13  1  0
 13 14  2  0
 14 15  1  0
 15 16  2  0
 16 17  1  0
 17 18  2  0
 17 19  1  0
 19 20  1  0
 19 21  1  0
 21 22  2  0
 21 23  1  0
 23 24  1  0
 23 25  1  0
 25 26  2  0
 11 27  1  0
 27 28  1  0
  7  2  1  0
 28  8  1  0
 26 13  1  0
 25 16  1  0
  1 29  1  0
  1 30  1  0
  1 31  1  0
  3 32  1  0
  4 33  1  0
  5 34  1  0
  6 35  1  0
  9 36  1  0
  9 37  1  0
 10 38  1  0
 10 39  1  0
 12 40  1  0
 12 41  1  0
 20 42  1  0
 20 43  1  0
 20 44  1  0
 24 45  1  0
 24 46  1  0
 24 47  1  0
 27 48  1  0
 27 49  1  0
 28 50  1  0
 28 51  1  0
M  END
>  <UniqueID>  (36) 
21

>  <SMILES>  (36) 
Cc1ccccc1N1CCN(Cc2nnc3c(=O)n(C)c(=O)n(C)c3n2)CC1

>  <Energy>  (36) 
78.4361053943944

>  <Genealogy>  (36) 
Cc1ccccc1N1CCN(Cc2nnc3c(=O)n(C)c(=O)n(C)c3n2)CC1 (3D coordinates assigned)
Cc1ccccc1N1CCN(Cc2nnc3c(=O)n(C)c(=O)n(C)c3n2)CC1 (nonaromatic ring conformer: 78.4361053943944 kcal/mol)

>  <smiles>  (36) 
Cc1ccccc1N1CCN(Cc2nnc3c(=O)n(C)c(=O)n(C)c3n2)CC1

>  <score_type>  (36) 
oracle

>  <origin>  (36) 
autodockgpu

>  <m_score__min__energy>  (36) 
-7.6600000000000001

>  <m_primary>  (36) 
energy

>  <meeko>  (36) 
{"free_energy": -6.78, "intermolecular_energy": -7.67, "internal_energy": -1.16, "cluster_size": 4, "cluster_id": 4, "rank_in_cluster": 1}

>  <energy>  (36) 
-6.66

>  <cluster_rmsd>  (36) 
0.65

>  <rmsd>  (36) 
269.19

>  <cluster>  (36) 
4

$$$$
IILOZLGKIKELDM-UHFFFAOYNA-N
     RDKit          3D

 51 54  0  0  0  0  0  0  0  0999 V2000
  140.8910   82.9250  220.9080 C   0  0  0  0  0  0  0  0  0  0  0  0
  141.4580   82.0280  219.8430 C   0  0  0  0  0  0  0  0  0  0  0  0
  142.0220   82.5880  218.6830 C   0  0  0  0  0  0  0  0  0  0  0  0
  142.5690   81.7660  217.6940 C   0  0  0  0  0  0  0  0  0  0  0  0
  142.5670   80.3800  217.8570 C   0  0  0  0  0  0  0  0  0  0  0  0
  142.0210   79.8110  219.0100 C   0  0  0  0  0  0  0  0  0  0  0  0
  141.4720   80.6270  220.0090 C   0  0  0  0  0  0  0  0  0  0  0  0
  140.9250   80.0230  221.1880 N   0  0  0  0  0  0  0  0  0  0  0  0
  139.5310   80.3010  221.5410 C   0  0  0  0  0  0  0  0  0  0  0  0
  139.1660   79.6320  222.8720 C   0  0  0  0  0  0  0  0  0  0  0  0
  139.7110   78.2580  222.9660 N   0  0  0  0  0  0  0  0  0  0  0  0
  139.0750   77.3060  222.0280 C   0  0  0  0  0  0  0  0  0  0  0  0
  139.9320   76.0980  221.8040 C   0  0  0  0  0  0  0  0  0  0  0  0
  139.5810   74.8990  222.3380 N   0  0  0  0  0  0  0  0  0  0  0  0
  140.3200   73.8120  222.1170 N   0  0  0  0  0  0  0  0  0  0  0  0
  141.4400   73.8690  221.3490 C   0  0  0  0  0  0  0  0  0  0  0  0
  142.2130   72.7390  221.1000 C   0  0  0  0  0  0  0  0  0  0  0  0
  141.8660   71.6300  221.5970 O   0  0  0  0  0  0  0  0  0  0  0  0
  143.3310   72.8350  220.3140 N   0  0  0  0  0  0  0  0  0  0  0  0
  144.1250   71.6310  220.0160 C   0  0  0  0  0  0  0  0  0  0  0  0
  143.6650   74.0380  219.7350 C   0  0  0  0  0  0  0  0  0  0  0  0
  144.6540   74.0990  218.9490 O   0  0  0  0  0  0  0  0  0  0  0  0
  142.9340   75.1720  219.9990 N   0  0  0  0  0  0  0  0  0  0  0  0
  143.2960   76.4540  219.3700 C   0  0  0  0  0  0  0  0  0  0  0  0
  141.8170   75.0920  220.7860 C   0  0  0  0  0  0  0  0  0  0  0  0
  141.0420   76.1850  221.0270 N   0  0  0  0  0  0  0  0  0  0  0  0
  141.1960   78.2190  222.8700 C   0  0  0  0  0  0  0  0  0  0  0  0
  141.8290   79.4500  222.1860 C   0  0  0  0  0  0  0  0  0  0  0  0
  141.1453   82.5228  221.8998 H   0  0  0  0  0  0  0  0  0  0  0  0
  141.3157   83.9342  220.8017 H   0  0  0  0  0  0  0  0  0  0  0  0
  139.7973   82.9744  220.8017 H   0  0  0  0  0  0  0  0  0  0  0  0
  142.0327   83.6803  218.5532 H   0  0  0  0  0  0  0  0  0  0  0  0
  143.0015   82.2119  216.7862 H   0  0  0  0  0  0  0  0  0  0  0  0
  142.9960   79.7346  217.0763 H   0  0  0  0  0  0  0  0  0  0  0  0
  142.0218   78.7181  219.1346 H   0  0  0  0  0  0  0  0  0  0  0  0
  139.3916   81.3882  221.6330 H   0  0  0  0  0  0  0  0  0  0  0  0
  138.8789   79.8984  220.7519 H   0  0  0  0  0  0  0  0  0  0  0  0
  139.5748   80.2342  223.6968 H   0  0  0  0  0  0  0  0  0  0  0  0
  138.0695   79.5693  222.9332 H   0  0  0  0  0  0  0  0  0  0  0  0
  138.1086   76.9859  222.4446 H   0  0  0  0  0  0  0  0  0  0  0  0
  138.9371   77.8143  221.0623 H   0  0  0  0  0  0  0  0  0  0  0  0
  144.4382   71.1561  220.9575 H   0  0  0  0  0  0  0  0  0  0  0  0
  143.5151   70.9244  219.4340 H   0  0  0  0  0  0  0  0  0  0  0  0
  145.0147   71.9133  219.4340 H   0  0  0  0  0  0  0  0  0  0  0  0
  143.5064   77.1992  220.1512 H   0  0  0  0  0  0  0  0  0  0  0  0
  144.1903   76.3160  218.7445 H   0  0  0  0  0  0  0  0  0  0  0  0
  142.4616   76.8041  218.7445 H   0  0  0  0  0  0  0  0  0  0  0  0
  141.6038   78.1453  223.8890 H   0  0  0  0  0  0  0  0  0  0  0  0
  141.4448   77.3512  222.2415 H   0  0  0  0  0  0  0  0  0  0  0  0
  142.0498   80.2108  222.9492 H   0  0  0  0  0  0  0  0  0  0  0  0
  142.7514   79.1311  221.6787 H   0  0  0  0  0  0  0  0  0  0  0  0
  1  2  1  0
  2  3  2  0
  3  4  1  0
  4  5  2  0
  5  6  1  0
  6  7  2  0
  7  8  1  0
  8  9  1  0
  9 10  1  0
 10 11  1  0
 11 12  1  0
 12 13  1  0
 13 14  2  0
 14 15  1  0
 15 16  2  0
 16 17  1  0
 17 18  2  0
 17 19  1  0
 19 20  1  0
 19 21  1  0
 21 22  2  0
 21 23  1  0
 23 24  1  0
 23 25  1  0
 25 26  2  0
 11 27  1  0
 27 28  1  0
  7  2  1  0
 28  8  1  0
 26 13  1  0
 25 16  1  0
  1 29  1  0
  1 30  1  0
  1 31  1  0
  3 32  1  0
  4 33  1  0
  5 34  1  0
  6 35  1  0
  9 36  1  0
  9 37  1  0
 10 38  1  0
 10 39  1  0
 12 40  1  0
 12 41  1  0
 20 42  1  0
 20 43  1  0
 20 44  1  0
 24 45  1  0
 24 46  1  0
 24 47  1  0
 27 48  1  0
 27 49  1  0
 28 50  1  0
 28 51  1  0
M  END
>  <UniqueID>  (37) 
21

>  <SMILES>  (37) 
Cc1ccccc1N1CCN(Cc2nnc3c(=O)n(C)c(=O)n(C)c3n2)CC1

>  <Energy>  (37) 
78.4361053943944

>  <Genealogy>  (37) 
Cc1ccccc1N1CCN(Cc2nnc3c(=O)n(C)c(=O)n(C)c3n2)CC1 (3D coordinates assigned)
Cc1ccccc1N1CCN(Cc2nnc3c(=O)n(C)c(=O)n(C)c3n2)CC1 (nonaromatic ring conformer: 78.4361053943944 kcal/mol)

>  <smiles>  (37) 
Cc1ccccc1N1CCN(Cc2nnc3c(=O)n(C)c(=O)n(C)c3n2)CC1

>  <score_type>  (37) 
oracle

>  <origin>  (37) 
autodockgpu

>  <m_score__min__energy>  (37) 
-7.6600000000000001

>  <m_primary>  (37) 
energy

>  <meeko>  (37) 
{"free_energy": -6.68, "intermolecular_energy": -7.58, "internal_energy": -0.83, "cluster_size": 3, "cluster_id": 5, "rank_in_cluster": 1}

>  <energy>  (37) 
-6.68

>  <cluster_rmsd>  (37) 
0.0

>  <rmsd>  (37) 
269.66

>  <cluster>  (37) 
5

$$$$
IILOZLGKIKELDM-UHFFFAOYNA-N
     RDKit          3D

 51 54  0  0  0  0  0  0  0  0999 V2000
  141.0920   75.9150  221.5480 C   0  0  0  0  0  0  0  0  0  0  0  0
  140.5060   77.1200  222.2300 C   0  0  0  0  0  0  0  0  0  0  0  0
  141.3550   78.1200  222.7350 C   0  0  0  0  0  0  0  0  0  0  0  0
  140.8220   79.2540  223.3530 C   0  0  0  0  0  0  0  0  0  0  0  0
  139.4390   79.4060  223.4650 C   0  0  0  0  0  0  0  0  0  0  0  0
  138.5840   78.4260  222.9560 C   0  0  0  0  0  0  0  0  0  0  0  0
  139.1090   77.2850  222.3320 C   0  0  0  0  0  0  0  0  0  0  0  0
  138.2130   76.2950  221.8090 N   0  0  0  0  0  0  0  0  0  0  0  0
  137.9920   76.2360  220.3630 C   0  0  0  0  0  0  0  0  0  0  0  0
  136.9450   75.1710  220.0170 C   0  0  0  0  0  0  0  0  0  0  0  0
  137.1390   73.9320  220.8040 N   0  0  0  0  0  0  0  0  0  0  0  0
  138.3710   73.1930  220.4440 C   0  0  0  0  0  0  0  0  0  0  0  0
  138.9920   72.5410  221.6410 C   0  0  0  0  0  0  0  0  0  0  0  0
  139.9370   73.1950  222.3660 N   0  0  0  0  0  0  0  0  0  0  0  0
  140.4710   72.6360  223.4520 N   0  0  0  0  0  0  0  0  0  0  0  0
  140.0850   71.4010  223.8670 C   0  0  0  0  0  0  0  0  0  0  0  0
  140.6240   70.8120  225.0060 C   0  0  0  0  0  0  0  0  0  0  0  0
  141.4950   71.4390  225.6740 O   0  0  0  0  0  0  0  0  0  0  0  0
  140.2030   69.5680  225.3980 N   0  0  0  0  0  0  0  0  0  0  0  0
  140.7450   68.9630  226.6270 C   0  0  0  0  0  0  0  0  0  0  0  0
  139.2160   68.9210  224.6910 C   0  0  0  0  0  0  0  0  0  0  0  0
  138.7790   67.8090  225.1050 O   0  0  0  0  0  0  0  0  0  0  0  0
  138.6960   69.4730  223.5440 N   0  0  0  0  0  0  0  0  0  0  0  0
  137.6340   68.7750  222.7980 C   0  0  0  0  0  0  0  0  0  0  0  0
  139.1110   70.7130  223.1390 C   0  0  0  0  0  0  0  0  0  0  0  0
  138.5810   71.3090  222.0360 N   0  0  0  0  0  0  0  0  0  0  0  0
  137.0410   74.1580  222.2720 C   0  0  0  0  0  0  0  0  0  0  0  0
  137.2870   75.6150  222.7160 C   0  0  0  0  0  0  0  0  0  0  0  0
  141.4406   75.1981  222.3059 H   0  0  0  0  0  0  0  0  0  0  0  0
  140.3243   75.4399  220.9196 H   0  0  0  0  0  0  0  0  0  0  0  0
  141.9397   76.2254  220.9196 H   0  0  0  0  0  0  0  0  0  0  0  0
  142.4455   78.0091  222.6431 H   0  0  0  0  0  0  0  0  0  0  0  0
  141.4935   80.0285  223.7520 H   0  0  0  0  0  0  0  0  0  0  0  0
  139.0221   80.2985  223.9546 H   0  0  0  0  0  0  0  0  0  0  0  0
  137.4946   78.5495  223.0449 H   0  0  0  0  0  0  0  0  0  0  0  0
  137.6390   77.2167  220.0115 H   0  0  0  0  0  0  0  0  0  0  0  0
  138.9400   75.9724  219.8712 H   0  0  0  0  0  0  0  0  0  0  0  0
  135.9437   75.5742  220.2290 H   0  0  0  0  0  0  0  0  0  0  0  0
  137.0530   74.9193  218.9516 H   0  0  0  0  0  0  0  0  0  0  0  0
  138.1193   72.4176  219.7054 H   0  0  0  0  0  0  0  0  0  0  0  0
  139.0940   73.9106  220.0290 H   0  0  0  0  0  0  0  0  0  0  0  0
  140.3026   69.4568  227.5047 H   0  0  0  0  0  0  0  0  0  0  0  0
  140.4996   67.8909  226.6470 H   0  0  0  0  0  0  0  0  0  0  0  0
  141.8375   69.0895  226.6470 H   0  0  0  0  0  0  0  0  0  0  0  0
  136.9310   68.3130  223.5068 H   0  0  0  0  0  0  0  0  0  0  0  0
  137.0958   69.4961  222.1652 H   0  0  0  0  0  0  0  0  0  0  0  0
  138.0824   67.9950  222.1652 H   0  0  0  0  0  0  0  0  0  0  0  0
  136.0316   73.8661  222.5973 H   0  0  0  0  0  0  0  0  0  0  0  0
  137.8353   73.5533  222.7340 H   0  0  0  0  0  0  0  0  0  0  0  0
  136.3287   76.1551  222.7218 H   0  0  0  0  0  0  0  0  0  0  0  0
  137.7309   75.6025  223.7224 H   0  0  0  0  0  0  0  0  0  0  0  0
  1  2  1  0
  2  3  2  0
  3  4  1  0
  4  5  2  0
  5  6  1  0
  6  7  2  0
  7  8  1  0
  8  9  1  0
  9 10  1  0
 10 11  1  0
 11 12  1  0
 12 13  1  0
 13 14  2  0
 14 15  1  0
 15 16  2  0
 16 17  1  0
 17 18  2  0
 17 19  1  0
 19 20  1  0
 19 21  1  0
 21 22  2  0
 21 23  1  0
 23 24  1  0
 23 25  1  0
 25 26  2  0
 11 27  1  0
 27 28  1  0
  7  2  1  0
 28  8  1  0
 26 13  1  0
 25 16  1  0
  1 29  1  0
  1 30  1  0
  1 31  1  0
  3 32  1  0
  4 33  1  0
  5 34  1  0
  6 35  1  0
  9 36  1  0
  9 37  1  0
 10 38  1  0
 10 39  1  0
 12 40  1  0
 12 41  1  0
 20 42  1  0
 20 43  1  0
 20 44  1  0
 24 45  1  0
 24 46  1  0
 24 47  1  0
 27 48  1  0
 27 49  1  0
 28 50  1  0
 28 51  1  0
M  END
>  <UniqueID>  (38) 
21

>  <SMILES>  (38) 
Cc1ccccc1N1CCN(Cc2nnc3c(=O)n(C)c(=O)n(C)c3n2)CC1

>  <Energy>  (38) 
78.4361053943944

>  <Genealogy>  (38) 
Cc1ccccc1N1CCN(Cc2nnc3c(=O)n(C)c(=O)n(C)c3n2)CC1 (3D coordinates assigned)
Cc1ccccc1N1CCN(Cc2nnc3c(=O)n(C)c(=O)n(C)c3n2)CC1 (nonaromatic ring conformer: 78.4361053943944 kcal/mol)

>  <smiles>  (38) 
Cc1ccccc1N1CCN(Cc2nnc3c(=O)n(C)c(=O)n(C)c3n2)CC1

>  <score_type>  (38) 
oracle

>  <origin>  (38) 
autodockgpu

>  <m_score__min__energy>  (38) 
-7.6600000000000001

>  <m_primary>  (38) 
energy

>  <meeko>  (38) 
{"free_energy": -6.77, "intermolecular_energy": -7.67, "internal_energy": -1.15, "cluster_size": 4, "cluster_id": 4, "rank_in_cluster": 2}

>  <energy>  (38) 
-6.65

>  <cluster_rmsd>  (38) 
0.91

>  <rmsd>  (38) 
269.86

>  <cluster>  (38) 
5

$$$$
IILOZLGKIKELDM-UHFFFAOYNA-N
     RDKit          3D

 51 54  0  0  0  0  0  0  0  0999 V2000
  140.7980   78.9860  219.7650 C   0  0  0  0  0  0  0  0  0  0  0  0
  141.2470   79.0790  221.1960 C   0  0  0  0  0  0  0  0  0  0  0  0
  141.8310   80.2660  221.6700 C   0  0  0  0  0  0  0  0  0  0  0  0
  142.2360   80.3720  223.0040 C   0  0  0  0  0  0  0  0  0  0  0  0
  142.0530   79.2990  223.8780 C   0  0  0  0  0  0  0  0  0  0  0  0
  141.4620   78.1180  223.4220 C   0  0  0  0  0  0  0  0  0  0  0  0
  141.0510   78.0020  222.0870 C   0  0  0  0  0  0  0  0  0  0  0  0
  140.4390   76.7850  221.6420 N   0  0  0  0  0  0  0  0  0  0  0  0
  140.9860   76.1100  220.4640 C   0  0  0  0  0  0  0  0  0  0  0  0
  140.1440   74.8790  220.1050 C   0  0  0  0  0  0  0  0  0  0  0  0
  139.7580   74.1070  221.3080 N   0  0  0  0  0  0  0  0  0  0  0  0
  140.9010   73.4410  221.9730 C   0  0  0  0  0  0  0  0  0  0  0  0
  140.4650   72.2200  222.7250 C   0  0  0  0  0  0  0  0  0  0  0  0
  139.8860   71.1810  222.0700 N   0  0  0  0  0  0  0  0  0  0  0  0
  139.5240   70.0770  222.7250 N   0  0  0  0  0  0  0  0  0  0  0  0
  139.7280   69.9590  224.0640 C   0  0  0  0  0  0  0  0  0  0  0  0
  139.3680   68.8080  224.7580 C   0  0  0  0  0  0  0  0  0  0  0  0
  138.8390   67.8470  224.1310 O   0  0  0  0  0  0  0  0  0  0  0  0
  139.5970   68.7220  226.1060 N   0  0  0  0  0  0  0  0  0  0  0  0
  139.2530   67.4880  226.8320 C   0  0  0  0  0  0  0  0  0  0  0  0
  140.2230   69.7550  226.7650 C   0  0  0  0  0  0  0  0  0  0  0  0
  140.5010   69.6340  227.9930 O   0  0  0  0  0  0  0  0  0  0  0  0
  140.5540   70.9130  226.1030 N   0  0  0  0  0  0  0  0  0  0  0  0
  141.2300   72.0110  226.8170 C   0  0  0  0  0  0  0  0  0  0  0  0
  140.3270   71.0150  224.7570 C   0  0  0  0  0  0  0  0  0  0  0  0
  140.6880   72.1280  224.0620 N   0  0  0  0  0  0  0  0  0  0  0  0
  138.9480   74.9040  222.2700 C   0  0  0  0  0  0  0  0  0  0  0  0
  139.1050   76.4330  222.1300 C   0  0  0  0  0  0  0  0  0  0  0  0
  139.7213   78.7630  219.7323 H   0  0  0  0  0  0  0  0  0  0  0  0
  140.9898   79.9429  219.2576 H   0  0  0  0  0  0  0  0  0  0  0  0
  141.3542   78.1840  219.2576 H   0  0  0  0  0  0  0  0  0  0  0  0
  141.9704   81.1171  220.9872 H   0  0  0  0  0  0  0  0  0  0  0  0
  142.6993   81.3020  223.3652 H   0  0  0  0  0  0  0  0  0  0  0  0
  142.3744   79.3834  224.9266 H   0  0  0  0  0  0  0  0  0  0  0  0
  141.3186   77.2751  224.1140 H   0  0  0  0  0  0  0  0  0  0  0  0
  140.9848   76.8087  219.6144 H   0  0  0  0  0  0  0  0  0  0  0  0
  142.0123   75.7835  220.6880 H   0  0  0  0  0  0  0  0  0  0  0  0
  139.2320   75.2102  219.5867 H   0  0  0  0  0  0  0  0  0  0  0  0
  140.7504   74.2263  219.4599 H   0  0  0  0  0  0  0  0  0  0  0  0
  141.6364   73.1468  221.2097 H   0  0  0  0  0  0  0  0  0  0  0  0
  141.3422   74.1484  222.6906 H   0  0  0  0  0  0  0  0  0  0  0  0
  139.3047   67.6733  227.9151 H   0  0  0  0  0  0  0  0  0  0  0  0
  138.2335   67.1756  226.5617 H   0  0  0  0  0  0  0  0  0  0  0  0
  139.9639   66.6933  226.5617 H   0  0  0  0  0  0  0  0  0  0  0  0
  141.1348   71.8563  227.9019 H   0  0  0  0  0  0  0  0  0  0  0  0
  142.2947   72.0272  226.5410 H   0  0  0  0  0  0  0  0  0  0  0  0
  140.7650   72.9689  226.5410 H   0  0  0  0  0  0  0  0  0  0  0  0
  137.8881   74.6525  222.1169 H   0  0  0  0  0  0  0  0  0  0  0  0
  139.3125   74.6439  223.2748 H   0  0  0  0  0  0  0  0  0  0  0  0
  138.3528   76.8075  221.4202 H   0  0  0  0  0  0  0  0  0  0  0  0
  138.9644   76.8900  223.1207 H   0  0  0  0  0  0  0  0  0  0  0  0
  1  2  1  0
  2  3  2  0
  3  4  1  0
  4  5  2  0
  5  6  1  0
  6  7  2  0
  7  8  1  0
  8  9  1  0
  9 10  1  0
 10 11  1  0
 11 12  1  0
 12 13  1  0
 13 14  2  0
 14 15  1  0
 15 16  2  0
 16 17  1  0
 17 18  2  0
 17 19  1  0
 19 20  1  0
 19 21  1  0
 21 22  2  0
 21 23  1  0
 23 24  1  0
 23 25  1  0
 25 26  2  0
 11 27  1  0
 27 28  1  0
  7  2  1  0
 28  8  1  0
 26 13  1  0
 25 16  1  0
  1 29  1  0
  1 30  1  0
  1 31  1  0
  3 32  1  0
  4 33  1  0
  5 34  1  0
  6 35  1  0
  9 36  1  0
  9 37  1  0
 10 38  1  0
 10 39  1  0
 12 40  1  0
 12 41  1  0
 20 42  1  0
 20 43  1  0
 20 44  1  0
 24 45  1  0
 24 46  1  0
 24 47  1  0
 27 48  1  0
 27 49  1  0
 28 50  1  0
 28 51  1  0
M  END
>  <UniqueID>  (39) 
21

>  <SMILES>  (39) 
Cc1ccccc1N1CCN(Cc2nnc3c(=O)n(C)c(=O)n(C)c3n2)CC1

>  <Energy>  (39) 
78.4361053943944

>  <Genealogy>  (39) 
Cc1ccccc1N1CCN(Cc2nnc3c(=O)n(C)c(=O)n(C)c3n2)CC1 (3D coordinates assigned)
Cc1ccccc1N1CCN(Cc2nnc3c(=O)n(C)c(=O)n(C)c3n2)CC1 (nonaromatic ring conformer: 78.4361053943944 kcal/mol)

>  <smiles>  (39) 
Cc1ccccc1N1CCN(Cc2nnc3c(=O)n(C)c(=O)n(C)c3n2)CC1

>  <score_type>  (39) 
oracle

>  <origin>  (39) 
autodockgpu

>  <m_score__min__energy>  (39) 
-7.6600000000000001

>  <m_primary>  (39) 
energy

>  <meeko>  (39) 
{"free_energy": -7.55, "intermolecular_energy": -8.45, "internal_energy": -0.56, "cluster_size": 6, "cluster_id": 2, "rank_in_cluster": 1}

>  <energy>  (39) 
-6.65

>  <cluster_rmsd>  (39) 
0.71

>  <rmsd>  (39) 
269.74

>  <cluster>  (39) 
5

$$$$
IILOZLGKIKELDM-UHFFFAOYNA-N
     RDKit          3D

 51 54  0  0  0  0  0  0  0  0999 V2000
  142.3540   75.0960  220.0970 C   0  0  0  0  0  0  0  0  0  0  0  0
  143.6100   74.2720  220.1500 C   0  0  0  0  0  0  0  0  0  0  0  0
  144.8360   74.8840  220.4650 C   0  0  0  0  0  0  0  0  0  0  0  0
  146.0080   74.1260  220.5360 C   0  0  0  0  0  0  0  0  0  0  0  0
  145.9660   72.7500  220.3030 C   0  0  0  0  0  0  0  0  0  0  0  0
  144.7530   72.1280  220.0020 C   0  0  0  0  0  0  0  0  0  0  0  0
  143.5710   72.8790  219.9300 C   0  0  0  0  0  0  0  0  0  0  0  0
  142.3350   72.2180  219.6280 N   0  0  0  0  0  0  0  0  0  0  0  0
  141.8920   71.1210  220.4890 C   0  0  0  0  0  0  0  0  0  0  0  0
  140.5990   70.4970  219.9500 C   0  0  0  0  0  0  0  0  0  0  0  0
  139.6420   71.5280  219.4860 N   0  0  0  0  0  0  0  0  0  0  0  0
  139.0830   72.3500  220.5840 C   0  0  0  0  0  0  0  0  0  0  0  0
  139.5440   71.8640  221.9240 C   0  0  0  0  0  0  0  0  0  0  0  0
  140.2820   72.6700  222.7310 N   0  0  0  0  0  0  0  0  0  0  0  0
  140.6690   72.2590  223.9380 N   0  0  0  0  0  0  0  0  0  0  0  0
  140.3330   71.0250  224.3990 C   0  0  0  0  0  0  0  0  0  0  0  0
  140.7180   70.5880  225.6630 C   0  0  0  0  0  0  0  0  0  0  0  0
  141.3970   71.3560  226.4030 O   0  0  0  0  0  0  0  0  0  0  0  0
  140.3540   69.3410  226.0950 N   0  0  0  0  0  0  0  0  0  0  0  0
  140.7270   68.8950  227.4490 C   0  0  0  0  0  0  0  0  0  0  0  0
  139.5690   68.5370  225.3000 C   0  0  0  0  0  0  0  0  0  0  0  0
  139.1730   67.4200  225.7400 O   0  0  0  0  0  0  0  0  0  0  0  0
  139.2080   68.9380  224.0360 N   0  0  0  0  0  0  0  0  0  0  0  0
  138.3630   68.0740  223.1930 C   0  0  0  0  0  0  0  0  0  0  0  0
  139.5700   70.1810  223.5880 C   0  0  0  0  0  0  0  0  0  0  0  0
  139.1870   70.6280  222.3610 N   0  0  0  0  0  0  0  0  0  0  0  0
  140.1910   72.3730  218.3900 C   0  0  0  0  0  0  0  0  0  0  0  0
  141.7320   72.3970  218.3060 C   0  0  0  0  0  0  0  0  0  0  0  0
  142.0170   75.3171  221.1205 H   0  0  0  0  0  0  0  0  0  0  0  0
  142.5556   76.0379  219.5658 H   0  0  0  0  0  0  0  0  0  0  0  0
  141.5702   74.5360  219.5658 H   0  0  0  0  0  0  0  0  0  0  0  0
  144.8730   75.9665  220.6568 H   0  0  0  0  0  0  0  0  0  0  0  0
  146.9643   74.6139  220.7756 H   0  0  0  0  0  0  0  0  0  0  0  0
  146.8898   72.1553  220.3567 H   0  0  0  0  0  0  0  0  0  0  0  0
  144.7243   71.0435  219.8204 H   0  0  0  0  0  0  0  0  0  0  0  0
  142.6767   70.3510  220.5253 H   0  0  0  0  0  0  0  0  0  0  0  0
  141.6998   71.5179  221.4967 H   0  0  0  0  0  0  0  0  0  0  0  0
  140.8473   69.8363  219.1063 H   0  0  0  0  0  0  0  0  0  0  0  0
  140.1249   69.9337  220.7672 H   0  0  0  0  0  0  0  0  0  0  0  0
  139.4078   73.3925  220.4509 H   0  0  0  0  0  0  0  0  0  0  0  0
  137.9862   72.2735  220.5481 H   0  0  0  0  0  0  0  0  0  0  0  0
  140.2085   69.5150  228.1951 H   0  0  0  0  0  0  0  0  0  0  0  0
  140.4365   67.8423  227.5813 H   0  0  0  0  0  0  0  0  0  0  0  0
  141.8145   68.9947  227.5813 H   0  0  0  0  0  0  0  0  0  0  0  0
  137.7379   67.4348  223.8338 H   0  0  0  0  0  0  0  0  0  0  0  0
  137.7181   68.6991  222.5579 H   0  0  0  0  0  0  0  0  0  0  0  0
  139.0023   67.4431  222.5579 H   0  0  0  0  0  0  0  0  0  0  0  0
  139.8014   71.9912  217.4348 H   0  0  0  0  0  0  0  0  0  0  0  0
  139.8749   73.4046  218.6042 H   0  0  0  0  0  0  0  0  0  0  0  0
  142.0684   71.5848  217.6448 H   0  0  0  0  0  0  0  0  0  0  0  0
  142.0449   73.3739  217.9087 H   0  0  0  0  0  0  0  0  0  0  0  0
  1  2  1  0
  2  3  2  0
  3  4  1  0
  4  5  2  0
  5  6  1  0
  6  7  2  0
  7  8  1  0
  8  9  1  0
  9 10  1  0
 10 11  1  0
 11 12  1  0
 12 13  1  0
 13 14  2  0
 14 15  1  0
 15 16  2  0
 16 17  1  0
 17 18  2  0
 17 19  1  0
 19 20  1  0
 19 21  1  0
 21 22  2  0
 21 23  1  0
 23 24  1  0
 23 25  1  0
 25 26  2  0
 11 27  1  0
 27 28  1  0
  7  2  1  0
 28  8  1  0
 26 13  1  0
 25 16  1  0
  1 29  1  0
  1 30  1  0
  1 31  1  0
  3 32  1  0
  4 33  1  0
  5 34  1  0
  6 35  1  0
  9 36  1  0
  9 37  1  0
 10 38  1  0
 10 39  1  0
 12 40  1  0
 12 41  1  0
 20 42  1  0
 20 43  1  0
 20 44  1  0
 24 45  1  0
 24 46  1  0
 24 47  1  0
 27 48  1  0
 27 49  1  0
 28 50  1  0
 28 51  1  0
M  END
>  <UniqueID>  (40) 
21

>  <SMILES>  (40) 
Cc1ccccc1N1CCN(Cc2nnc3c(=O)n(C)c(=O)n(C)c3n2)CC1

>  <Energy>  (40) 
78.4361053943944

>  <Genealogy>  (40) 
Cc1ccccc1N1CCN(Cc2nnc3c(=O)n(C)c(=O)n(C)c3n2)CC1 (3D coordinates assigned)
Cc1ccccc1N1CCN(Cc2nnc3c(=O)n(C)c(=O)n(C)c3n2)CC1 (nonaromatic ring conformer: 78.4361053943944 kcal/mol)

>  <smiles>  (40) 
Cc1ccccc1N1CCN(Cc2nnc3c(=O)n(C)c(=O)n(C)c3n2)CC1

>  <score_type>  (40) 
oracle

>  <origin>  (40) 
autodockgpu

>  <m_score__min__energy>  (40) 
-7.6600000000000001

>  <m_primary>  (40) 
energy

>  <meeko>  (40) 
{"free_energy": -6.97, "intermolecular_energy": -7.86, "internal_energy": -0.76, "cluster_size": 1, "cluster_id": 3, "rank_in_cluster": 1}

>  <energy>  (40) 
-6.66

>  <cluster_rmsd>  (40) 
0.0

>  <rmsd>  (40) 
269.54

>  <cluster>  (40) 
6

$$$$
IILOZLGKIKELDM-UHFFFAOYNA-N
     RDKit          3D

 51 54  0  0  0  0  0  0  0  0999 V2000
  137.2060   78.5680  222.5980 C   0  0  0  0  0  0  0  0  0  0  0  0
  138.6850   78.3240  222.7140 C   0  0  0  0  0  0  0  0  0  0  0  0
  139.5040   79.2800  223.3420 C   0  0  0  0  0  0  0  0  0  0  0  0
  140.8770   79.0570  223.4740 C   0  0  0  0  0  0  0  0  0  0  0  0
  141.4440   77.8760  222.9910 C   0  0  0  0  0  0  0  0  0  0  0  0
  140.6400   76.9130  222.3770 C   0  0  0  0  0  0  0  0  0  0  0  0
  139.2600   77.1260  222.2420 C   0  0  0  0  0  0  0  0  0  0  0  0
  138.4520   76.1210  221.6160 N   0  0  0  0  0  0  0  0  0  0  0  0
  138.4020   76.0650  220.1540 C   0  0  0  0  0  0  0  0  0  0  0  0
  137.4230   74.9820  219.6870 C   0  0  0  0  0  0  0  0  0  0  0  0
  137.5480   73.7430  220.4880 N   0  0  0  0  0  0  0  0  0  0  0  0
  138.8280   73.0290  220.2730 C   0  0  0  0  0  0  0  0  0  0  0  0
  139.3440   72.4280  221.5440 C   0  0  0  0  0  0  0  0  0  0  0  0
  140.1970   73.1270  222.3370 N   0  0  0  0  0  0  0  0  0  0  0  0
  140.6360   72.6140  223.4870 N   0  0  0  0  0  0  0  0  0  0  0  0
  140.2400   71.3810  223.9000 C   0  0  0  0  0  0  0  0  0  0  0  0
  140.6800   70.8390  225.1040 C   0  0  0  0  0  0  0  0  0  0  0  0
  141.4660   71.5070  225.8330 O   0  0  0  0  0  0  0  0  0  0  0  0
  140.2520   69.5970  225.4910 N   0  0  0  0  0  0  0  0  0  0  0  0
  140.6850   69.0410  226.7840 C   0  0  0  0  0  0  0  0  0  0  0  0
  139.3540   68.9040  224.7120 C   0  0  0  0  0  0  0  0  0  0  0  0
  138.9050   67.7930  225.1160 O   0  0  0  0  0  0  0  0  0  0  0  0
  138.9350   69.4080  223.5040 N   0  0  0  0  0  0  0  0  0  0  0  0
  137.9690   68.6620  222.6800 C   0  0  0  0  0  0  0  0  0  0  0  0
  139.3580   70.6470  223.1020 C   0  0  0  0  0  0  0  0  0  0  0  0
  138.9250   71.1970  221.9350 N   0  0  0  0  0  0  0  0  0  0  0  0
  137.2750   73.9610  221.9350 C   0  0  0  0  0  0  0  0  0  0  0  0
  137.4390   75.4210  222.4080 C   0  0  0  0  0  0  0  0  0  0  0  0
  136.7664   78.6405  223.6037 H   0  0  0  0  0  0  0  0  0  0  0  0
  137.0310   79.5072  222.0527 H   0  0  0  0  0  0  0  0  0  0  0  0
  136.7386   77.7348  222.0527 H   0  0  0  0  0  0  0  0  0  0  0  0
  139.0609   80.2085  223.7314 H   0  0  0  0  0  0  0  0  0  0  0  0
  141.5121   79.8129  223.9591 H   0  0  0  0  0  0  0  0  0  0  0  0
  142.5255   77.7038  223.0942 H   0  0  0  0  0  0  0  0  0  0  0  0
  141.0906   75.9839  221.9978 H   0  0  0  0  0  0  0  0  0  0  0  0
  138.0733   77.0405  219.7662 H   0  0  0  0  0  0  0  0  0  0  0  0
  139.4056   75.8222  219.7746 H   0  0  0  0  0  0  0  0  0  0  0  0
  136.3964   75.3653  219.7826 H   0  0  0  0  0  0  0  0  0  0  0  0
  137.6588   74.7372  218.6408 H   0  0  0  0  0  0  0  0  0  0  0  0
  138.6701   72.2268  219.5371 H   0  0  0  0  0  0  0  0  0  0  0  0
  139.5702   73.7549  219.9094 H   0  0  0  0  0  0  0  0  0  0  0  0
  140.2333   69.6210  227.6023 H   0  0  0  0  0  0  0  0  0  0  0  0
  140.3640   67.9915  226.8578 H   0  0  0  0  0  0  0  0  0  0  0  0
  141.7812   69.0952  226.8578 H   0  0  0  0  0  0  0  0  0  0  0  0
  137.2692   68.1216  223.3344 H   0  0  0  0  0  0  0  0  0  0  0  0
  137.4092   69.3645  222.0451 H   0  0  0  0  0  0  0  0  0  0  0  0
  138.5071   67.9427  222.0451 H   0  0  0  0  0  0  0  0  0  0  0  0
  136.2404   73.6484  222.1396 H   0  0  0  0  0  0  0  0  0  0  0  0
  138.0218   73.3698  222.4852 H   0  0  0  0  0  0  0  0  0  0  0  0
  136.4765   75.9431  222.3025 H   0  0  0  0  0  0  0  0  0  0  0  0
  137.7615   75.4134  223.4596 H   0  0  0  0  0  0  0  0  0  0  0  0
  1  2  1  0
  2  3  2  0
  3  4  1  0
  4  5  2  0
  5  6  1  0
  6  7  2  0
  7  8  1  0
  8  9  1  0
  9 10  1  0
 10 11  1  0
 11 12  1  0
 12 13  1  0
 13 14  2  0
 14 15  1  0
 15 16  2  0
 16 17  1  0
 17 18  2  0
 17 19  1  0
 19 20  1  0
 19 21  1  0
 21 22  2  0
 21 23  1  0
 23 24  1  0
 23 25  1  0
 25 26  2  0
 11 27  1  0
 27 28  1  0
  7  2  1  0
 28  8  1  0
 26 13  1  0
 25 16  1  0
  1 29  1  0
  1 30  1  0
  1 31  1  0
  3 32  1  0
  4 33  1  0
  5 34  1  0
  6 35  1  0
  9 36  1  0
  9 37  1  0
 10 38  1  0
 10 39  1  0
 12 40  1  0
 12 41  1  0
 20 42  1  0
 20 43  1  0
 20 44  1  0
 24 45  1  0
 24 46  1  0
 24 47  1  0
 27 48  1  0
 27 49  1  0
 28 50  1  0
 28 51  1  0
M  END
>  <UniqueID>  (41) 
22

>  <SMILES>  (41) 
Cc1ccccc1N1CCN(Cc2nnc3c(=O)n(C)c(=O)n(C)c3n2)CC1

>  <Energy>  (41) 
78.74029483597874

>  <Genealogy>  (41) 
Cc1ccccc1N1CCN(Cc2nnc3c(=O)n(C)c(=O)n(C)c3n2)CC1 (3D coordinates assigned)
Cc1ccccc1N1CCN(Cc2nnc3c(=O)n(C)c(=O)n(C)c3n2)CC1 (nonaromatic ring conformer: 78.74029483597874 kcal/mol)

>  <smiles>  (41) 
Cc1ccccc1N1CCN(Cc2nnc3c(=O)n(C)c(=O)n(C)c3n2)CC1

>  <score_type>  (41) 
oracle

>  <origin>  (41) 
autodockgpu

>  <m_score__min__energy>  (41) 
-7.6600000000000001

>  <m_primary>  (41) 
energy

>  <meeko>  (41) 
{"free_energy": -6.66, "intermolecular_energy": -7.55, "internal_energy": -1.03, "cluster_size": 4, "cluster_id": 4, "rank_in_cluster": 4}

>  <energy>  (41) 
-7.66

>  <cluster_rmsd>  (41) 
0.0

>  <rmsd>  (41) 
269.5

>  <cluster>  (41) 
1

$$$$
IILOZLGKIKELDM-UHFFFAOYNA-N
     RDKit          3D

 51 54  0  0  0  0  0  0  0  0999 V2000
  141.2570   75.5350  221.5920 C   0  0  0  0  0  0  0  0  0  0  0  0
  140.4340   76.6700  222.1340 C   0  0  0  0  0  0  0  0  0  0  0  0
  141.0720   77.8030  222.6710 C   0  0  0  0  0  0  0  0  0  0  0  0
  140.3170   78.8730  223.1610 C   0  0  0  0  0  0  0  0  0  0  0  0
  138.9230   78.8280  223.1110 C   0  0  0  0  0  0  0  0  0  0  0  0
  138.2780   77.7140  222.5690 C   0  0  0  0  0  0  0  0  0  0  0  0
  139.0250   76.6350  222.0720 C   0  0  0  0  0  0  0  0  0  0  0  0
  138.3430   75.5060  221.5120 N   0  0  0  0  0  0  0  0  0  0  0  0
  138.3990   75.2940  220.0650 C   0  0  0  0  0  0  0  0  0  0  0  0
  137.5430   74.0880  219.6600 C   0  0  0  0  0  0  0  0  0  0  0  0
  137.7100   72.9540  220.5980 N   0  0  0  0  0  0  0  0  0  0  0  0
  139.0540   72.3350  220.5390 C   0  0  0  0  0  0  0  0  0  0  0  0
  139.4990   71.8570  221.8870 C   0  0  0  0  0  0  0  0  0  0  0  0
  140.2130   72.6740  222.7040 N   0  0  0  0  0  0  0  0  0  0  0  0
  140.5850   72.2700  223.9190 N   0  0  0  0  0  0  0  0  0  0  0  0
  140.2590   71.0320  224.3750 C   0  0  0  0  0  0  0  0  0  0  0  0
  140.6300   70.6010  225.6450 C   0  0  0  0  0  0  0  0  0  0  0  0
  141.2850   71.3790  226.3960 O   0  0  0  0  0  0  0  0  0  0  0  0
  140.2760   69.3490  226.0740 N   0  0  0  0  0  0  0  0  0  0  0  0
  140.6330   68.9100  227.4340 C   0  0  0  0  0  0  0  0  0  0  0  0
  139.5160   68.5340  225.2660 C   0  0  0  0  0  0  0  0  0  0  0  0
  139.1280   67.4120  225.7010 O   0  0  0  0  0  0  0  0  0  0  0  0
  139.1700   68.9290  223.9960 N   0  0  0  0  0  0  0  0  0  0  0  0
  138.3510   68.0520  223.1410 C   0  0  0  0  0  0  0  0  0  0  0  0
  139.5210   70.1760  223.5530 C   0  0  0  0  0  0  0  0  0  0  0  0
  139.1530   70.6170  222.3190 N   0  0  0  0  0  0  0  0  0  0  0  0
  137.3210   73.2970  221.9930 C   0  0  0  0  0  0  0  0  0  0  0  0
  137.3370   74.8070  222.3130 C   0  0  0  0  0  0  0  0  0  0  0  0
  141.6773   74.9554  222.4271 H   0  0  0  0  0  0  0  0  0  0  0  0
  140.6209   74.8823  220.9761 H   0  0  0  0  0  0  0  0  0  0  0  0
  142.0751   75.9367  220.9761 H   0  0  0  0  0  0  0  0  0  0  0  0
  142.1706   77.8474  222.7056 H   0  0  0  0  0  0  0  0  0  0  0  0
  140.8228   79.7521  223.5868 H   0  0  0  0  0  0  0  0  0  0  0  0
  138.3317   79.6706  223.4988 H   0  0  0  0  0  0  0  0  0  0  0  0
  137.1791   77.6823  222.5315 H   0  0  0  0  0  0  0  0  0  0  0  0
  138.0223   76.1921  219.5537 H   0  0  0  0  0  0  0  0  0  0  0  0
  139.4425   75.0997  219.7763 H   0  0  0  0  0  0  0  0  0  0  0  0
  136.4851   74.3894  219.6508 H   0  0  0  0  0  0  0  0  0  0  0  0
  137.8690   73.7572  218.6628 H   0  0  0  0  0  0  0  0  0  0  0  0
  139.0231   71.4791  219.8487 H   0  0  0  0  0  0  0  0  0  0  0  0
  139.7684   73.0949  220.1896 H   0  0  0  0  0  0  0  0  0  0  0  0
  140.1177   69.5436  228.1709 H   0  0  0  0  0  0  0  0  0  0  0  0
  140.3271   67.8626  227.5734 H   0  0  0  0  0  0  0  0  0  0  0  0
  141.7207   68.9959  227.5734 H   0  0  0  0  0  0  0  0  0  0  0  0
  137.7364   67.3939  223.7729 H   0  0  0  0  0  0  0  0  0  0  0  0
  137.6961   68.6667  222.5059 H   0  0  0  0  0  0  0  0  0  0  0  0
  139.0090   67.4407  222.5059 H   0  0  0  0  0  0  0  0  0  0  0  0
  136.3023   72.9203  222.1673 H   0  0  0  0  0  0  0  0  0  0  0  0
  138.0718   72.8319  222.6488 H   0  0  0  0  0  0  0  0  0  0  0  0
  136.3458   75.2309  222.0941 H   0  0  0  0  0  0  0  0  0  0  0  0
  137.5869   74.9356  223.3765 H   0  0  0  0  0  0  0  0  0  0  0  0
  1  2  1  0
  2  3  2  0
  3  4  1  0
  4  5  2  0
  5  6  1  0
  6  7  2  0
  7  8  1  0
  8  9  1  0
  9 10  1  0
 10 11  1  0
 11 12  1  0
 12 13  1  0
 13 14  2  0
 14 15  1  0
 15 16  2  0
 16 17  1  0
 17 18  2  0
 17 19  1  0
 19 20  1  0
 19 21  1  0
 21 22  2  0
 21 23  1  0
 23 24  1  0
 23 25  1  0
 25 26  2  0
 11 27  1  0
 27 28  1  0
  7  2  1  0
 28  8  1  0
 26 13  1  0
 25 16  1  0
  1 29  1  0
  1 30  1  0
  1 31  1  0
  3 32  1  0
  4 33  1  0
  5 34  1  0
  6 35  1  0
  9 36  1  0
  9 37  1  0
 10 38  1  0
 10 39  1  0
 12 40  1  0
 12 41  1  0
 20 42  1  0
 20 43  1  0
 20 44  1  0
 24 45  1  0
 24 46  1  0
 24 47  1  0
 27 48  1  0
 27 49  1  0
 28 50  1  0
 28 51  1  0
M  END
>  <UniqueID>  (42) 
22

>  <SMILES>  (42) 
Cc1ccccc1N1CCN(Cc2nnc3c(=O)n(C)c(=O)n(C)c3n2)CC1

>  <Energy>  (42) 
78.74029483597874

>  <Genealogy>  (42) 
Cc1ccccc1N1CCN(Cc2nnc3c(=O)n(C)c(=O)n(C)c3n2)CC1 (3D coordinates assigned)
Cc1ccccc1N1CCN(Cc2nnc3c(=O)n(C)c(=O)n(C)c3n2)CC1 (nonaromatic ring conformer: 78.74029483597874 kcal/mol)

>  <smiles>  (42) 
Cc1ccccc1N1CCN(Cc2nnc3c(=O)n(C)c(=O)n(C)c3n2)CC1

>  <score_type>  (42) 
oracle

>  <origin>  (42) 
autodockgpu

>  <m_score__min__energy>  (42) 
-7.6600000000000001

>  <m_primary>  (42) 
energy

>  <meeko>  (42) 
{"free_energy": -6.84, "intermolecular_energy": -7.73, "internal_energy": -1.14, "cluster_size": 6, "cluster_id": 2, "rank_in_cluster": 4}

>  <energy>  (42) 
-7.65

>  <cluster_rmsd>  (42) 
0.03

>  <rmsd>  (42) 
269.49

>  <cluster>  (42) 
1

$$$$
IILOZLGKIKELDM-UHFFFAOYNA-N
     RDKit          3D

 51 54  0  0  0  0  0  0  0  0999 V2000
  141.2860   75.5080  221.6050 C   0  0  0  0  0  0  0  0  0  0  0  0
  140.4710   76.6480  222.1490 C   0  0  0  0  0  0  0  0  0  0  0  0
  141.1170   77.7750  222.6880 C   0  0  0  0  0  0  0  0  0  0  0  0
  140.3710   78.8500  223.1790 C   0  0  0  0  0  0  0  0  0  0  0  0
  138.9760   78.8150  223.1290 C   0  0  0  0  0  0  0  0  0  0  0  0
  138.3230   77.7070  222.5850 C   0  0  0  0  0  0  0  0  0  0  0  0
  139.0620   76.6240  222.0870 C   0  0  0  0  0  0  0  0  0  0  0  0
  138.3720   75.5010  221.5250 N   0  0  0  0  0  0  0  0  0  0  0  0
  138.4240   75.2920  220.0770 C   0  0  0  0  0  0  0  0  0  0  0  0
  137.5590   74.0930  219.6700 C   0  0  0  0  0  0  0  0  0  0  0  0
  137.7200   72.9560  220.6050 N   0  0  0  0  0  0  0  0  0  0  0  0
  139.0600   72.3280  220.5430 C   0  0  0  0  0  0  0  0  0  0  0  0
  139.5060   71.8500  221.8910 C   0  0  0  0  0  0  0  0  0  0  0  0
  140.2170   72.6690  222.7090 N   0  0  0  0  0  0  0  0  0  0  0  0
  140.5920   72.2650  223.9220 N   0  0  0  0  0  0  0  0  0  0  0  0
  140.2690   71.0250  224.3780 C   0  0  0  0  0  0  0  0  0  0  0  0
  140.6410   70.5950  225.6480 C   0  0  0  0  0  0  0  0  0  0  0  0
  141.2940   71.3740  226.3990 O   0  0  0  0  0  0  0  0  0  0  0  0
  140.2910   69.3420  226.0760 N   0  0  0  0  0  0  0  0  0  0  0  0
  140.6490   68.9020  227.4350 C   0  0  0  0  0  0  0  0  0  0  0  0
  139.5330   68.5250  225.2680 C   0  0  0  0  0  0  0  0  0  0  0  0
  139.1480   67.4010  225.7010 O   0  0  0  0  0  0  0  0  0  0  0  0
  139.1860   68.9200  223.9970 N   0  0  0  0  0  0  0  0  0  0  0  0
  138.3690   68.0410  223.1420 C   0  0  0  0  0  0  0  0  0  0  0  0
  139.5340   70.1680  223.5550 C   0  0  0  0  0  0  0  0  0  0  0  0
  139.1640   70.6080  222.3220 N   0  0  0  0  0  0  0  0  0  0  0  0
  137.3350   73.2980  222.0020 C   0  0  0  0  0  0  0  0  0  0  0  0
  137.3620   74.8070  222.3250 C   0  0  0  0  0  0  0  0  0  0  0  0
  141.7031   74.9246  222.4391 H   0  0  0  0  0  0  0  0  0  0  0  0
  140.6450   74.8603  220.9889 H   0  0  0  0  0  0  0  0  0  0  0  0
  142.1063   75.9049  220.9889 H   0  0  0  0  0  0  0  0  0  0  0  0
  142.2159   77.8106  222.7233 H   0  0  0  0  0  0  0  0  0  0  0  0
  140.8835   79.7249  223.6054 H   0  0  0  0  0  0  0  0  0  0  0  0
  138.3908   79.6611  223.5185 H   0  0  0  0  0  0  0  0  0  0  0  0
  137.2239   77.6835  222.5469 H   0  0  0  0  0  0  0  0  0  0  0  0
  138.0527   76.1940  219.5686 H   0  0  0  0  0  0  0  0  0  0  0  0
  139.4657   75.0909  219.7863 H   0  0  0  0  0  0  0  0  0  0  0  0
  136.5032   74.4016  219.6632 H   0  0  0  0  0  0  0  0  0  0  0  0
  137.8808   73.7626  218.6714 H   0  0  0  0  0  0  0  0  0  0  0  0
  139.0214   71.4708  219.8547 H   0  0  0  0  0  0  0  0  0  0  0  0
  139.7783   73.0824  220.1896 H   0  0  0  0  0  0  0  0  0  0  0  0
  140.1341   69.5348  228.1728 H   0  0  0  0  0  0  0  0  0  0  0  0
  140.3435   67.8544  227.5736 H   0  0  0  0  0  0  0  0  0  0  0  0
  141.7368   68.9881  227.5736 H   0  0  0  0  0  0  0  0  0  0  0  0
  137.7560   67.3815  223.7739 H   0  0  0  0  0  0  0  0  0  0  0  0
  137.7127   68.6541  222.5069 H   0  0  0  0  0  0  0  0  0  0  0  0
  139.0284   67.4312  222.5069 H   0  0  0  0  0  0  0  0  0  0  0  0
  136.3140   72.9280  222.1768 H   0  0  0  0  0  0  0  0  0  0  0  0
  138.0830   72.8259  222.6559 H   0  0  0  0  0  0  0  0  0  0  0  0
  136.3736   75.2382  222.1078 H   0  0  0  0  0  0  0  0  0  0  0  0
  137.6140   74.9313  223.3885 H   0  0  0  0  0  0  0  0  0  0  0  0
  1  2  1  0
  2  3  2  0
  3  4  1  0
  4  5  2  0
  5  6  1  0
  6  7  2  0
  7  8  1  0
  8  9  1  0
  9 10  1  0
 10 11  1  0
 11 12  1  0
 12 13  1  0
 13 14  2  0
 14 15  1  0
 15 16  2  0
 16 17  1  0
 17 18  2  0
 17 19  1  0
 19 20  1  0
 19 21  1  0
 21 22  2  0
 21 23  1  0
 23 24  1  0
 23 25  1  0
 25 26  2  0
 11 27  1  0
 27 28  1  0
  7  2  1  0
 28  8  1  0
 26 13  1  0
 25 16  1  0
  1 29  1  0
  1 30  1  0
  1 31  1  0
  3 32  1  0
  4 33  1  0
  5 34  1  0
  6 35  1  0
  9 36  1  0
  9 37  1  0
 10 38  1  0
 10 39  1  0
 12 40  1  0
 12 41  1  0
 20 42  1  0
 20 43  1  0
 20 44  1  0
 24 45  1  0
 24 46  1  0
 24 47  1  0
 27 48  1  0
 27 49  1  0
 28 50  1  0
 28 51  1  0
M  END
>  <UniqueID>  (43) 
22

>  <SMILES>  (43) 
Cc1ccccc1N1CCN(Cc2nnc3c(=O)n(C)c(=O)n(C)c3n2)CC1

>  <Energy>  (43) 
78.74029483597874

>  <Genealogy>  (43) 
Cc1ccccc1N1CCN(Cc2nnc3c(=O)n(C)c(=O)n(C)c3n2)CC1 (3D coordinates assigned)
Cc1ccccc1N1CCN(Cc2nnc3c(=O)n(C)c(=O)n(C)c3n2)CC1 (nonaromatic ring conformer: 78.74029483597874 kcal/mol)

>  <smiles>  (43) 
Cc1ccccc1N1CCN(Cc2nnc3c(=O)n(C)c(=O)n(C)c3n2)CC1

>  <score_type>  (43) 
oracle

>  <origin>  (43) 
autodockgpu

>  <m_score__min__energy>  (43) 
-7.6600000000000001

>  <m_primary>  (43) 
energy

>  <meeko>  (43) 
{"free_energy": -6.83, "intermolecular_energy": -7.73, "internal_energy": -1.14, "cluster_size": 6, "cluster_id": 2, "rank_in_cluster": 5}

>  <energy>  (43) 
-7.65

>  <cluster_rmsd>  (43) 
0.06

>  <rmsd>  (43) 
269.5

>  <cluster>  (43) 
1

$$$$
IILOZLGKIKELDM-UHFFFAOYNA-N
     RDKit          3D

 51 54  0  0  0  0  0  0  0  0999 V2000
  141.2820   75.5620  221.6020 C   0  0  0  0  0  0  0  0  0  0  0  0
  140.4600   76.6960  222.1480 C   0  0  0  0  0  0  0  0  0  0  0  0
  141.0990   77.8300  222.6810 C   0  0  0  0  0  0  0  0  0  0  0  0
  140.3460   78.8990  223.1740 C   0  0  0  0  0  0  0  0  0  0  0  0
  138.9520   78.8530  223.1300 C   0  0  0  0  0  0  0  0  0  0  0  0
  138.3050   77.7380  222.5910 C   0  0  0  0  0  0  0  0  0  0  0  0
  139.0510   76.6600  222.0920 C   0  0  0  0  0  0  0  0  0  0  0  0
  138.3680   75.5290  221.5360 N   0  0  0  0  0  0  0  0  0  0  0  0
  138.4090   75.3230  220.0870 C   0  0  0  0  0  0  0  0  0  0  0  0
  137.5530   74.1150  219.6870 C   0  0  0  0  0  0  0  0  0  0  0  0
  137.7360   72.9790  220.6190 N   0  0  0  0  0  0  0  0  0  0  0  0
  139.0810   72.3650  220.5430 C   0  0  0  0  0  0  0  0  0  0  0  0
  139.5370   71.8710  221.8820 C   0  0  0  0  0  0  0  0  0  0  0  0
  140.2710   72.6730  222.6960 N   0  0  0  0  0  0  0  0  0  0  0  0
  140.6540   72.2540  223.9030 N   0  0  0  0  0  0  0  0  0  0  0  0
  140.3180   71.0170  224.3540 C   0  0  0  0  0  0  0  0  0  0  0  0
  140.6990   70.5720  225.6160 C   0  0  0  0  0  0  0  0  0  0  0  0
  141.3730   71.3350  226.3640 O   0  0  0  0  0  0  0  0  0  0  0  0
  140.3340   69.3210  226.0390 N   0  0  0  0  0  0  0  0  0  0  0  0
  140.7020   68.8670  227.3910 C   0  0  0  0  0  0  0  0  0  0  0  0
  139.5530   68.5230  225.2350 C   0  0  0  0  0  0  0  0  0  0  0  0
  139.1560   67.4020  225.6660 O   0  0  0  0  0  0  0  0  0  0  0  0
  139.1970   68.9320  223.9720 N   0  0  0  0  0  0  0  0  0  0  0  0
  138.3560   68.0710  223.1210 C   0  0  0  0  0  0  0  0  0  0  0  0
  139.5580   70.1770  223.5340 C   0  0  0  0  0  0  0  0  0  0  0  0
  139.1800   70.6320  222.3090 N   0  0  0  0  0  0  0  0  0  0  0  0
  137.3600   73.3150  222.0200 C   0  0  0  0  0  0  0  0  0  0  0  0
  137.3730   74.8230  222.3450 C   0  0  0  0  0  0  0  0  0  0  0  0
  141.7036   74.9804  222.4351 H   0  0  0  0  0  0  0  0  0  0  0  0
  140.6448   74.9108  220.9857 H   0  0  0  0  0  0  0  0  0  0  0  0
  142.0992   75.9650  220.9857 H   0  0  0  0  0  0  0  0  0  0  0  0
  142.1977   77.8756  222.7099 H   0  0  0  0  0  0  0  0  0  0  0  0
  140.8531   79.7785  223.5976 H   0  0  0  0  0  0  0  0  0  0  0  0
  138.3619   79.6954  223.5201 H   0  0  0  0  0  0  0  0  0  0  0  0
  137.2060   77.7054  222.5579 H   0  0  0  0  0  0  0  0  0  0  0  0
  138.0232   76.2216  219.5834 H   0  0  0  0  0  0  0  0  0  0  0  0
  139.4500   75.1342  219.7859 H   0  0  0  0  0  0  0  0  0  0  0  0
  136.4939   74.4120  219.6912 H   0  0  0  0  0  0  0  0  0  0  0  0
  137.8681   73.7893  218.6847 H   0  0  0  0  0  0  0  0  0  0  0  0
  139.0478   71.5179  219.8421 H   0  0  0  0  0  0  0  0  0  0  0  0
  139.7907   73.1316  220.1986 H   0  0  0  0  0  0  0  0  0  0  0  0
  140.1942   69.4935  228.1391 H   0  0  0  0  0  0  0  0  0  0  0  0
  140.3956   67.8187  227.5218 H   0  0  0  0  0  0  0  0  0  0  0  0
  141.7910   68.9498  227.5218 H   0  0  0  0  0  0  0  0  0  0  0  0
  137.7284   67.4285  223.7561 H   0  0  0  0  0  0  0  0  0  0  0  0
  137.7135   68.6986  222.4859 H   0  0  0  0  0  0  0  0  0  0  0  0
  138.9985   67.4434  222.4859 H   0  0  0  0  0  0  0  0  0  0  0  0
  136.3448   72.9333  222.2036 H   0  0  0  0  0  0  0  0  0  0  0  0
  138.1194   72.8505  222.6662 H   0  0  0  0  0  0  0  0  0  0  0  0
  136.3779   75.2435  222.1378 H   0  0  0  0  0  0  0  0  0  0  0  0
  137.6333   74.9489  223.4063 H   0  0  0  0  0  0  0  0  0  0  0  0
  1  2  1  0
  2  3  2  0
  3  4  1  0
  4  5  2  0
  5  6  1  0
  6  7  2  0
  7  8  1  0
  8  9  1  0
  9 10  1  0
 10 11  1  0
 11 12  1  0
 12 13  1  0
 13 14  2  0
 14 15  1  0
 15 16  2  0
 16 17  1  0
 17 18  2  0
 17 19  1  0
 19 20  1  0
 19 21  1  0
 21 22  2  0
 21 23  1  0
 23 24  1  0
 23 25  1  0
 25 26  2  0
 11 27  1  0
 27 28  1  0
  7  2  1  0
 28  8  1  0
 26 13  1  0
 25 16  1  0
  1 29  1  0
  1 30  1  0
  1 31  1  0
  3 32  1  0
  4 33  1  0
  5 34  1  0
  6 35  1  0
  9 36  1  0
  9 37  1  0
 10 38  1  0
 10 39  1  0
 12 40  1  0
 12 41  1  0
 20 42  1  0
 20 43  1  0
 20 44  1  0
 24 45  1  0
 24 46  1  0
 24 47  1  0
 27 48  1  0
 27 49  1  0
 28 50  1  0
 28 51  1  0
M  END
>  <UniqueID>  (44) 
22

>  <SMILES>  (44) 
Cc1ccccc1N1CCN(Cc2nnc3c(=O)n(C)c(=O)n(C)c3n2)CC1

>  <Energy>  (44) 
78.74029483597874

>  <Genealogy>  (44) 
Cc1ccccc1N1CCN(Cc2nnc3c(=O)n(C)c(=O)n(C)c3n2)CC1 (3D coordinates assigned)
Cc1ccccc1N1CCN(Cc2nnc3c(=O)n(C)c(=O)n(C)c3n2)CC1 (nonaromatic ring conformer: 78.74029483597874 kcal/mol)

>  <smiles>  (44) 
Cc1ccccc1N1CCN(Cc2nnc3c(=O)n(C)c(=O)n(C)c3n2)CC1

>  <score_type>  (44) 
oracle

>  <origin>  (44) 
autodockgpu

>  <m_score__min__energy>  (44) 
-7.6600000000000001

>  <m_primary>  (44) 
energy

>  <meeko>  (44) 
{"free_energy": -6.84, "intermolecular_energy": -7.73, "internal_energy": -1.14, "cluster_size": 6, "cluster_id": 2, "rank_in_cluster": 2}

>  <energy>  (44) 
-7.62

>  <cluster_rmsd>  (44) 
0.1

>  <rmsd>  (44) 
269.5

>  <cluster>  (44) 
1

$$$$
IILOZLGKIKELDM-UHFFFAOYNA-N
     RDKit          3D

 51 54  0  0  0  0  0  0  0  0999 V2000
  141.4360   80.0170  219.9630 C   0  0  0  0  0  0  0  0  0  0  0  0
  141.7070   79.8790  221.4350 C   0  0  0  0  0  0  0  0  0  0  0  0
  142.3590   80.9160  222.1260 C   0  0  0  0  0  0  0  0  0  0  0  0
  142.6000   80.8080  223.4990 C   0  0  0  0  0  0  0  0  0  0  0  0
  142.1840   79.6720  224.1950 C   0  0  0  0  0  0  0  0  0  0  0  0
  141.5250   78.6410  223.5230 C   0  0  0  0  0  0  0  0  0  0  0  0
  141.2760   78.7400  222.1460 C   0  0  0  0  0  0  0  0  0  0  0  0
  140.5900   77.6740  221.4770 N   0  0  0  0  0  0  0  0  0  0  0  0
  141.3620   76.7530  220.6410 C   0  0  0  0  0  0  0  0  0  0  0  0
  140.4370   75.7420  219.9520 C   0  0  0  0  0  0  0  0  0  0  0  0
  139.3920   75.2350  220.8710 N   0  0  0  0  0  0  0  0  0  0  0  0
  139.9260   74.3820  221.9570 C   0  0  0  0  0  0  0  0  0  0  0  0
  140.8830   73.3570  221.4310 C   0  0  0  0  0  0  0  0  0  0  0  0
  140.4720   72.0790  221.2190 N   0  0  0  0  0  0  0  0  0  0  0  0
  141.3070   71.1670  220.7210 N   0  0  0  0  0  0  0  0  0  0  0  0
  142.5900   71.4890  220.4060 C   0  0  0  0  0  0  0  0  0  0  0  0
  143.4680   70.5510  219.8720 C   0  0  0  0  0  0  0  0  0  0  0  0
  143.0660   69.3700  219.6730 O   0  0  0  0  0  0  0  0  0  0  0  0
  144.7510   70.9150  219.5600 N   0  0  0  0  0  0  0  0  0  0  0  0
  145.6680   69.9320  218.9570 C   0  0  0  0  0  0  0  0  0  0  0  0
  145.1580   72.2180  219.7320 C   0  0  0  0  0  0  0  0  0  0  0  0
  146.3190   72.5630  219.3680 O   0  0  0  0  0  0  0  0  0  0  0  0
  144.3160   73.1500  220.2900 N   0  0  0  0  0  0  0  0  0  0  0  0
  144.7590   74.5450  220.4640 C   0  0  0  0  0  0  0  0  0  0  0  0
  143.0320   72.7990  220.6110 C   0  0  0  0  0  0  0  0  0  0  0  0
  142.1570   73.7090  221.1190 N   0  0  0  0  0  0  0  0  0  0  0  0
  138.5150   76.3160  221.3990 C   0  0  0  0  0  0  0  0  0  0  0  0
  139.1330   77.7290  221.3470 C   0  0  0  0  0  0  0  0  0  0  0  0
  140.4648   80.5115  219.8137 H   0  0  0  0  0  0  0  0  0  0  0  0
  142.2300   80.6206  219.4990 H   0  0  0  0  0  0  0  0  0  0  0  0
  141.4149   79.0199  219.4990 H   0  0  0  0  0  0  0  0  0  0  0  0
  142.6811   81.8170  221.5833 H   0  0  0  0  0  0  0  0  0  0  0  0
  143.1181   81.6193  224.0313 H   0  0  0  0  0  0  0  0  0  0  0  0
  142.3758   79.5889  225.2750 H   0  0  0  0  0  0  0  0  0  0  0  0
  141.1996   77.7472  224.0755 H   0  0  0  0  0  0  0  0  0  0  0  0
  141.9032   77.3278  219.8750 H   0  0  0  0  0  0  0  0  0  0  0  0
  142.0713   76.2058  221.2793 H   0  0  0  0  0  0  0  0  0  0  0  0
  139.9505   76.2313  219.0953 H   0  0  0  0  0  0  0  0  0  0  0  0
  141.0481   74.8876  219.6256 H   0  0  0  0  0  0  0  0  0  0  0  0
  140.4490   75.0180  222.6864 H   0  0  0  0  0  0  0  0  0  0  0  0
  139.0827   73.8563  222.4287 H   0  0  0  0  0  0  0  0  0  0  0  0
  146.1857   69.3770  219.7532 H   0  0  0  0  0  0  0  0  0  0  0  0
  145.0947   69.2299  218.3338 H   0  0  0  0  0  0  0  0  0  0  0  0
  146.4082   70.4552  218.3338 H   0  0  0  0  0  0  0  0  0  0  0  0
  144.8321   74.7753  221.5371 H   0  0  0  0  0  0  0  0  0  0  0  0
  145.7438   74.6785  219.9924 H   0  0  0  0  0  0  0  0  0  0  0  0
  144.0317   75.2222  219.9924 H   0  0  0  0  0  0  0  0  0  0  0  0
  137.5879   76.3252  220.8070 H   0  0  0  0  0  0  0  0  0  0  0  0
  138.3466   76.0888  222.4620 H   0  0  0  0  0  0  0  0  0  0  0  0
  138.8759   78.1980  220.3858 H   0  0  0  0  0  0  0  0  0  0  0  0
  138.7302   78.3167  222.1851 H   0  0  0  0  0  0  0  0  0  0  0  0
  1  2  1  0
  2  3  2  0
  3  4  1  0
  4  5  2  0
  5  6  1  0
  6  7  2  0
  7  8  1  0
  8  9  1  0
  9 10  1  0
 10 11  1  0
 11 12  1  0
 12 13  1  0
 13 14  2  0
 14 15  1  0
 15 16  2  0
 16 17  1  0
 17 18  2  0
 17 19  1  0
 19 20  1  0
 19 21  1  0
 21 22  2  0
 21 23  1  0
 23 24  1  0
 23 25  1  0
 25 26  2  0
 11 27  1  0
 27 28  1  0
  7  2  1  0
 28  8  1  0
 26 13  1  0
 25 16  1  0
  1 29  1  0
  1 30  1  0
  1 31  1  0
  3 32  1  0
  4 33  1  0
  5 34  1  0
  6 35  1  0
  9 36  1  0
  9 37  1  0
 10 38  1  0
 10 39  1  0
 12 40  1  0
 12 41  1  0
 20 42  1  0
 20 43  1  0
 20 44  1  0
 24 45  1  0
 24 46  1  0
 24 47  1  0
 27 48  1  0
 27 49  1  0
 28 50  1  0
 28 51  1  0
M  END
>  <UniqueID>  (45) 
22

>  <SMILES>  (45) 
Cc1ccccc1N1CCN(Cc2nnc3c(=O)n(C)c(=O)n(C)c3n2)CC1

>  <Energy>  (45) 
78.74029483597874

>  <Genealogy>  (45) 
Cc1ccccc1N1CCN(Cc2nnc3c(=O)n(C)c(=O)n(C)c3n2)CC1 (3D coordinates assigned)
Cc1ccccc1N1CCN(Cc2nnc3c(=O)n(C)c(=O)n(C)c3n2)CC1 (nonaromatic ring conformer: 78.74029483597874 kcal/mol)

>  <smiles>  (45) 
Cc1ccccc1N1CCN(Cc2nnc3c(=O)n(C)c(=O)n(C)c3n2)CC1

>  <score_type>  (45) 
oracle

>  <origin>  (45) 
autodockgpu

>  <m_score__min__energy>  (45) 
-7.6600000000000001

>  <m_primary>  (45) 
energy

>  <meeko>  (45) 
{"free_energy": -6.66, "intermolecular_energy": -7.56, "internal_energy": -0.85, "cluster_size": 1, "cluster_id": 6, "rank_in_cluster": 1}

>  <energy>  (45) 
-7.58

>  <cluster_rmsd>  (45) 
0.17

>  <rmsd>  (45) 
269.5

>  <cluster>  (45) 
1

$$$$
IILOZLGKIKELDM-UHFFFAOYNA-N
     RDKit          3D

 51 54  0  0  0  0  0  0  0  0999 V2000
  141.4340   71.2160  225.7280 C   0  0  0  0  0  0  0  0  0  0  0  0
  140.7620   69.9270  226.1110 C   0  0  0  0  0  0  0  0  0  0  0  0
  141.0370   69.3380  227.3580 C   0  0  0  0  0  0  0  0  0  0  0  0
  140.4040   68.1500  227.7340 C   0  0  0  0  0  0  0  0  0  0  0  0
  139.4850   67.5450  226.8760 C   0  0  0  0  0  0  0  0  0  0  0  0
  139.1920   68.1270  225.6410 C   0  0  0  0  0  0  0  0  0  0  0  0
  139.8200   69.3200  225.2540 C   0  0  0  0  0  0  0  0  0  0  0  0
  139.4990   69.9050  223.9850 N   0  0  0  0  0  0  0  0  0  0  0  0
  139.1180   71.3170  223.9350 C   0  0  0  0  0  0  0  0  0  0  0  0
  138.7360   71.7250  222.5070 C   0  0  0  0  0  0  0  0  0  0  0  0
  139.6650   71.1560  221.5050 N   0  0  0  0  0  0  0  0  0  0  0  0
  141.0270   71.7320  221.5710 C   0  0  0  0  0  0  0  0  0  0  0  0
  140.9990   73.2260  221.4610 C   0  0  0  0  0  0  0  0  0  0  0  0
  140.2740   73.9660  222.3400 N   0  0  0  0  0  0  0  0  0  0  0  0
  140.2680   75.2970  222.2700 N   0  0  0  0  0  0  0  0  0  0  0  0
  140.9890   75.9520  221.3230 C   0  0  0  0  0  0  0  0  0  0  0  0
  141.0030   77.3410  221.2470 C   0  0  0  0  0  0  0  0  0  0  0  0
  140.3300   78.0130  222.0790 O   0  0  0  0  0  0  0  0  0  0  0  0
  141.7490   77.9660  220.2830 N   0  0  0  0  0  0  0  0  0  0  0  0
  141.7960   79.4380  220.2300 C   0  0  0  0  0  0  0  0  0  0  0  0
  142.5200   77.2230  219.4190 C   0  0  0  0  0  0  0  0  0  0  0  0
  143.2650   77.8120  218.5840 O   0  0  0  0  0  0  0  0  0  0  0  0
  142.4910   75.8490  219.4560 N   0  0  0  0  0  0  0  0  0  0  0  0
  143.3240   75.0620  218.5300 C   0  0  0  0  0  0  0  0  0  0  0  0
  141.7470   75.2110  220.4110 C   0  0  0  0  0  0  0  0  0  0  0  0
  141.7350   73.8540  220.5070 N   0  0  0  0  0  0  0  0  0  0  0  0
  139.6940   69.6680  221.5230 C   0  0  0  0  0  0  0  0  0  0  0  0
  139.2140   69.0320  222.8450 C   0  0  0  0  0  0  0  0  0  0  0  0
  141.7201   71.7647  226.6374 H   0  0  0  0  0  0  0  0  0  0  0  0
  142.3333   70.9981  225.1331 H   0  0  0  0  0  0  0  0  0  0  0  0
  140.7404   71.8285  225.1331 H   0  0  0  0  0  0  0  0  0  0  0  0
  141.7546   69.8151  228.0416 H   0  0  0  0  0  0  0  0  0  0  0  0
  140.6307   67.6913  228.7078 H   0  0  0  0  0  0  0  0  0  0  0  0
  138.9906   66.6083  227.1729 H   0  0  0  0  0  0  0  0  0  0  0  0
  138.4653   67.6477  224.9685 H   0  0  0  0  0  0  0  0  0  0  0  0
  138.2578   71.4827  224.6002 H   0  0  0  0  0  0  0  0  0  0  0  0
  139.9744   71.9261  224.2598 H   0  0  0  0  0  0  0  0  0  0  0  0
  137.7186   71.3649  222.2940 H   0  0  0  0  0  0  0  0  0  0  0  0
  138.7899   72.8216  222.4390 H   0  0  0  0  0  0  0  0  0  0  0  0
  141.4866   71.4531  222.5307 H   0  0  0  0  0  0  0  0  0  0  0  0
  141.6100   71.3353  220.7267 H   0  0  0  0  0  0  0  0  0  0  0  0
  141.8089   79.8415  221.2532 H   0  0  0  0  0  0  0  0  0  0  0  0
  142.7048   79.7569  219.6986 H   0  0  0  0  0  0  0  0  0  0  0  0
  140.9094   79.8143  219.6986 H   0  0  0  0  0  0  0  0  0  0  0  0
  144.0051   74.4185  219.1062 H   0  0  0  0  0  0  0  0  0  0  0  0
  142.6776   74.4371  217.8962 H   0  0  0  0  0  0  0  0  0  0  0  0
  143.9112   75.7428  217.8962 H   0  0  0  0  0  0  0  0  0  0  0  0
  139.0474   69.3024  220.7117 H   0  0  0  0  0  0  0  0  0  0  0  0
  140.7472   69.3752  221.4005 H   0  0  0  0  0  0  0  0  0  0  0  0
  138.1292   68.8594  222.7873 H   0  0  0  0  0  0  0  0  0  0  0  0
  139.7499   68.0824  222.9902 H   0  0  0  0  0  0  0  0  0  0  0  0
  1  2  1  0
  2  3  2  0
  3  4  1  0
  4  5  2  0
  5  6  1  0
  6  7  2  0
  7  8  1  0
  8  9  1  0
  9 10  1  0
 10 11  1  0
 11 12  1  0
 12 13  1  0
 13 14  2  0
 14 15  1  0
 15 16  2  0
 16 17  1  0
 17 18  2  0
 17 19  1  0
 19 20  1  0
 19 21  1  0
 21 22  2  0
 21 23  1  0
 23 24  1  0
 23 25  1  0
 25 26  2  0
 11 27  1  0
 27 28  1  0
  7  2  1  0
 28  8  1  0
 26 13  1  0
 25 16  1  0
  1 29  1  0
  1 30  1  0
  1 31  1  0
  3 32  1  0
  4 33  1  0
  5 34  1  0
  6 35  1  0
  9 36  1  0
  9 37  1  0
 10 38  1  0
 10 39  1  0
 12 40  1  0
 12 41  1  0
 20 42  1  0
 20 43  1  0
 20 44  1  0
 24 45  1  0
 24 46  1  0
 24 47  1  0
 27 48  1  0
 27 49  1  0
 28 50  1  0
 28 51  1  0
M  END
>  <UniqueID>  (46) 
22

>  <SMILES>  (46) 
Cc1ccccc1N1CCN(Cc2nnc3c(=O)n(C)c(=O)n(C)c3n2)CC1

>  <Energy>  (46) 
78.74029483597874

>  <Genealogy>  (46) 
Cc1ccccc1N1CCN(Cc2nnc3c(=O)n(C)c(=O)n(C)c3n2)CC1 (3D coordinates assigned)
Cc1ccccc1N1CCN(Cc2nnc3c(=O)n(C)c(=O)n(C)c3n2)CC1 (nonaromatic ring conformer: 78.74029483597874 kcal/mol)

>  <smiles>  (46) 
Cc1ccccc1N1CCN(Cc2nnc3c(=O)n(C)c(=O)n(C)c3n2)CC1

>  <score_type>  (46) 
oracle

>  <origin>  (46) 
autodockgpu

>  <m_score__min__energy>  (46) 
-7.6600000000000001

>  <m_primary>  (46) 
energy

>  <meeko>  (46) 
{"free_energy": -7.62, "intermolecular_energy": -8.52, "internal_energy": -0.44, "cluster_size": 5, "cluster_id": 1, "rank_in_cluster": 4}

>  <energy>  (46) 
-7.55

>  <cluster_rmsd>  (46) 
0.0

>  <rmsd>  (46) 
270.19

>  <cluster>  (46) 
2

$$$$
IILOZLGKIKELDM-UHFFFAOYNA-N
     RDKit          3D

 51 54  0  0  0  0  0  0  0  0999 V2000
  141.2340   75.4510  221.5940 C   0  0  0  0  0  0  0  0  0  0  0  0
  140.4370   76.6000  222.1450 C   0  0  0  0  0  0  0  0  0  0  0  0
  141.1000   77.7180  222.6810 C   0  0  0  0  0  0  0  0  0  0  0  0
  140.3690   78.8010  223.1780 C   0  0  0  0  0  0  0  0  0  0  0  0
  138.9750   78.7830  223.1380 C   0  0  0  0  0  0  0  0  0  0  0  0
  138.3050   77.6840  222.5970 C   0  0  0  0  0  0  0  0  0  0  0  0
  139.0270   76.5920  222.0920 C   0  0  0  0  0  0  0  0  0  0  0  0
  138.3200   75.4780  221.5340 N   0  0  0  0  0  0  0  0  0  0  0  0
  138.3590   75.2710  220.0850 C   0  0  0  0  0  0  0  0  0  0  0  0
  137.4770   74.0830  219.6830 C   0  0  0  0  0  0  0  0  0  0  0  0
  137.6320   72.9420  220.6140 N   0  0  0  0  0  0  0  0  0  0  0  0
  138.9640   72.2990  220.5410 C   0  0  0  0  0  0  0  0  0  0  0  0
  139.4240   71.8320  221.8880 C   0  0  0  0  0  0  0  0  0  0  0  0
  140.1170   72.6670  222.7050 N   0  0  0  0  0  0  0  0  0  0  0  0
  140.5030   72.2720  223.9180 N   0  0  0  0  0  0  0  0  0  0  0  0
  140.2100   71.0250  224.3740 C   0  0  0  0  0  0  0  0  0  0  0  0
  140.5950   70.6040  225.6440 C   0  0  0  0  0  0  0  0  0  0  0  0
  141.2310   71.3980  226.3930 O   0  0  0  0  0  0  0  0  0  0  0  0
  140.2740   69.3430  226.0720 N   0  0  0  0  0  0  0  0  0  0  0  0
  140.6460   68.9120  227.4310 C   0  0  0  0  0  0  0  0  0  0  0  0
  139.5350   68.5090  225.2650 C   0  0  0  0  0  0  0  0  0  0  0  0
  139.1770   67.3760  225.7000 O   0  0  0  0  0  0  0  0  0  0  0  0
  139.1760   68.8950  223.9960 N   0  0  0  0  0  0  0  0  0  0  0  0
  138.3790   67.9970  223.1420 C   0  0  0  0  0  0  0  0  0  0  0  0
  139.4940   70.1510  223.5530 C   0  0  0  0  0  0  0  0  0  0  0  0
  139.1110   70.5830  222.3200 N   0  0  0  0  0  0  0  0  0  0  0  0
  137.2620   73.2860  222.0140 C   0  0  0  0  0  0  0  0  0  0  0  0
  137.3080   74.7940  222.3400 C   0  0  0  0  0  0  0  0  0  0  0  0
  141.6451   74.8583  222.4245 H   0  0  0  0  0  0  0  0  0  0  0  0
  140.5821   74.8150  220.9771 H   0  0  0  0  0  0  0  0  0  0  0  0
  142.0581   75.8388  220.9771 H   0  0  0  0  0  0  0  0  0  0  0  0
  142.1994   77.7406  222.7094 H   0  0  0  0  0  0  0  0  0  0  0  0
  140.8945   79.6695  223.6016 H   0  0  0  0  0  0  0  0  0  0  0  0
  138.4029   79.6354  223.5330 H   0  0  0  0  0  0  0  0  0  0  0  0
  137.2055   77.6742  222.5665 H   0  0  0  0  0  0  0  0  0  0  0  0
  137.9945   76.1782  219.5808 H   0  0  0  0  0  0  0  0  0  0  0  0
  139.3960   75.0585  219.7860 H   0  0  0  0  0  0  0  0  0  0  0  0
  136.4249   74.4040  219.6855 H   0  0  0  0  0  0  0  0  0  0  0  0
  137.7872   73.7509  218.6812 H   0  0  0  0  0  0  0  0  0  0  0  0
  138.9066   71.4343  219.8635 H   0  0  0  0  0  0  0  0  0  0  0  0
  139.6852   73.0415  220.1689 H   0  0  0  0  0  0  0  0  0  0  0  0
  140.1136   69.5289  228.1699 H   0  0  0  0  0  0  0  0  0  0  0  0
  140.3711   67.8558  227.5688 H   0  0  0  0  0  0  0  0  0  0  0  0
  141.7310   69.0295  227.5688 H   0  0  0  0  0  0  0  0  0  0  0  0
  137.7816   67.3240  223.7746 H   0  0  0  0  0  0  0  0  0  0  0  0
  137.7084   68.5945  222.5069 H   0  0  0  0  0  0  0  0  0  0  0  0
  139.0519   67.4021  222.5069 H   0  0  0  0  0  0  0  0  0  0  0  0
  136.2384   72.9269  222.1962 H   0  0  0  0  0  0  0  0  0  0  0  0
  138.0103   72.8048  222.6609 H   0  0  0  0  0  0  0  0  0  0  0  0
  136.3230   75.2367  222.1308 H   0  0  0  0  0  0  0  0  0  0  0  0
  137.5687   74.9135  223.4020 H   0  0  0  0  0  0  0  0  0  0  0  0
  1  2  1  0
  2  3  2  0
  3  4  1  0
  4  5  2  0
  5  6  1  0
  6  7  2  0
  7  8  1  0
  8  9  1  0
  9 10  1  0
 10 11  1  0
 11 12  1  0
 12 13  1  0
 13 14  2  0
 14 15  1  0
 15 16  2  0
 16 17  1  0
 17 18  2  0
 17 19  1  0
 19 20  1  0
 19 21  1  0
 21 22  2  0
 21 23  1  0
 23 24  1  0
 23 25  1  0
 25 26  2  0
 11 27  1  0
 27 28  1  0
  7  2  1  0
 28  8  1  0
 26 13  1  0
 25 16  1  0
  1 29  1  0
  1 30  1  0
  1 31  1  0
  3 32  1  0
  4 33  1  0
  5 34  1  0
  6 35  1  0
  9 36  1  0
  9 37  1  0
 10 38  1  0
 10 39  1  0
 12 40  1  0
 12 41  1  0
 20 42  1  0
 20 43  1  0
 20 44  1  0
 24 45  1  0
 24 46  1  0
 24 47  1  0
 27 48  1  0
 27 49  1  0
 28 50  1  0
 28 51  1  0
M  END
>  <UniqueID>  (47) 
22

>  <SMILES>  (47) 
Cc1ccccc1N1CCN(Cc2nnc3c(=O)n(C)c(=O)n(C)c3n2)CC1

>  <Energy>  (47) 
78.74029483597874

>  <Genealogy>  (47) 
Cc1ccccc1N1CCN(Cc2nnc3c(=O)n(C)c(=O)n(C)c3n2)CC1 (3D coordinates assigned)
Cc1ccccc1N1CCN(Cc2nnc3c(=O)n(C)c(=O)n(C)c3n2)CC1 (nonaromatic ring conformer: 78.74029483597874 kcal/mol)

>  <smiles>  (47) 
Cc1ccccc1N1CCN(Cc2nnc3c(=O)n(C)c(=O)n(C)c3n2)CC1

>  <score_type>  (47) 
oracle

>  <origin>  (47) 
autodockgpu

>  <m_score__min__energy>  (47) 
-7.6600000000000001

>  <m_primary>  (47) 
energy

>  <meeko>  (47) 
{"free_energy": -6.82, "intermolecular_energy": -7.71, "internal_energy": -1.14, "cluster_size": 6, "cluster_id": 2, "rank_in_cluster": 6}

>  <energy>  (47) 
-6.84

>  <cluster_rmsd>  (47) 
1.92

>  <rmsd>  (47) 
269.24

>  <cluster>  (47) 
2

$$$$
IILOZLGKIKELDM-UHFFFAOYNA-N
     RDKit          3D

 51 54  0  0  0  0  0  0  0  0999 V2000
  141.4320   71.2060  225.7350 C   0  0  0  0  0  0  0  0  0  0  0  0
  140.7620   69.9190  226.1300 C   0  0  0  0  0  0  0  0  0  0  0  0
  141.0420   69.3410  227.3800 C   0  0  0  0  0  0  0  0  0  0  0  0
  140.4120   68.1540  227.7670 C   0  0  0  0  0  0  0  0  0  0  0  0
  139.4910   67.5410  226.9170 C   0  0  0  0  0  0  0  0  0  0  0  0
  139.1950   68.1130  225.6770 C   0  0  0  0  0  0  0  0  0  0  0  0
  139.8190   69.3040  225.2800 C   0  0  0  0  0  0  0  0  0  0  0  0
  139.4940   69.8780  224.0070 N   0  0  0  0  0  0  0  0  0  0  0  0
  139.1210   71.2920  223.9460 C   0  0  0  0  0  0  0  0  0  0  0  0
  138.7320   71.6890  222.5170 C   0  0  0  0  0  0  0  0  0  0  0  0
  139.6530   71.1050  221.5140 N   0  0  0  0  0  0  0  0  0  0  0  0
  141.0180   71.6740  221.5660 C   0  0  0  0  0  0  0  0  0  0  0  0
  140.9960   73.1680  221.4590 C   0  0  0  0  0  0  0  0  0  0  0  0
  140.2730   73.9090  222.3380 N   0  0  0  0  0  0  0  0  0  0  0  0
  140.2730   75.2410  222.2710 N   0  0  0  0  0  0  0  0  0  0  0  0
  140.9990   75.8940  221.3260 C   0  0  0  0  0  0  0  0  0  0  0  0
  141.0190   77.2840  221.2530 C   0  0  0  0  0  0  0  0  0  0  0  0
  140.3470   77.9570  222.0850 O   0  0  0  0  0  0  0  0  0  0  0  0
  141.7690   77.9070  220.2910 N   0  0  0  0  0  0  0  0  0  0  0  0
  141.8220   79.3780  220.2410 C   0  0  0  0  0  0  0  0  0  0  0  0
  142.5380   77.1620  219.4270 C   0  0  0  0  0  0  0  0  0  0  0  0
  143.2870   77.7490  218.5940 O   0  0  0  0  0  0  0  0  0  0  0  0
  142.5040   75.7890  219.4620 N   0  0  0  0  0  0  0  0  0  0  0  0
  143.3350   74.9990  218.5350 C   0  0  0  0  0  0  0  0  0  0  0  0
  141.7540   75.1520  220.4140 C   0  0  0  0  0  0  0  0  0  0  0  0
  141.7370   73.7940  220.5080 N   0  0  0  0  0  0  0  0  0  0  0  0
  139.6730   69.6170  221.5470 C   0  0  0  0  0  0  0  0  0  0  0  0
  139.1980   68.9960  222.8770 C   0  0  0  0  0  0  0  0  0  0  0  0
  141.7212   71.7614  226.6394 H   0  0  0  0  0  0  0  0  0  0  0  0
  142.3291   70.9843  225.1383 H   0  0  0  0  0  0  0  0  0  0  0  0
  140.7358   71.8137  225.1383 H   0  0  0  0  0  0  0  0  0  0  0  0
  141.7607   69.8249  228.0577 H   0  0  0  0  0  0  0  0  0  0  0  0
  140.6430   67.7028  228.7433 H   0  0  0  0  0  0  0  0  0  0  0  0
  138.9975   66.6068  227.2232 H   0  0  0  0  0  0  0  0  0  0  0  0
  138.4689   67.6265  225.0091 H   0  0  0  0  0  0  0  0  0  0  0  0
  138.2662   71.4691  224.6153 H   0  0  0  0  0  0  0  0  0  0  0  0
  139.9833   71.8989  224.2592 H   0  0  0  0  0  0  0  0  0  0  0  0
  137.7115   71.3324  222.3136 H   0  0  0  0  0  0  0  0  0  0  0  0
  138.7908   72.7846  222.4384 H   0  0  0  0  0  0  0  0  0  0  0  0
  141.4868   71.3911  222.5200 H   0  0  0  0  0  0  0  0  0  0  0  0
  141.5898   71.2760  220.7147 H   0  0  0  0  0  0  0  0  0  0  0  0
  141.8365   79.7794  221.2650 H   0  0  0  0  0  0  0  0  0  0  0  0
  142.7321   79.6943  219.7103 H   0  0  0  0  0  0  0  0  0  0  0  0
  140.9370   79.7590  219.7103 H   0  0  0  0  0  0  0  0  0  0  0  0
  144.0142   74.3533  219.1110 H   0  0  0  0  0  0  0  0  0  0  0  0
  142.6866   74.3762  217.9012 H   0  0  0  0  0  0  0  0  0  0  0  0
  143.9242   75.6781  217.9012 H   0  0  0  0  0  0  0  0  0  0  0  0
  139.0191   69.2475  220.7433 H   0  0  0  0  0  0  0  0  0  0  0  0
  140.7239   69.3172  221.4216 H   0  0  0  0  0  0  0  0  0  0  0  0
  138.1120   68.8283  222.8273 H   0  0  0  0  0  0  0  0  0  0  0  0
  139.7301   68.0452  223.0278 H   0  0  0  0  0  0  0  0  0  0  0  0
  1  2  1  0
  2  3  2  0
  3  4  1  0
  4  5  2  0
  5  6  1  0
  6  7  2  0
  7  8  1  0
  8  9  1  0
  9 10  1  0
 10 11  1  0
 11 12  1  0
 12 13  1  0
 13 14  2  0
 14 15  1  0
 15 16  2  0
 16 17  1  0
 17 18  2  0
 17 19  1  0
 19 20  1  0
 19 21  1  0
 21 22  2  0
 21 23  1  0
 23 24  1  0
 23 25  1  0
 25 26  2  0
 11 27  1  0
 27 28  1  0
  7  2  1  0
 28  8  1  0
 26 13  1  0
 25 16  1  0
  1 29  1  0
  1 30  1  0
  1 31  1  0
  3 32  1  0
  4 33  1  0
  5 34  1  0
  6 35  1  0
  9 36  1  0
  9 37  1  0
 10 38  1  0
 10 39  1  0
 12 40  1  0
 12 41  1  0
 20 42  1  0
 20 43  1  0
 20 44  1  0
 24 45  1  0
 24 46  1  0
 24 47  1  0
 27 48  1  0
 27 49  1  0
 28 50  1  0
 28 51  1  0
M  END
>  <UniqueID>  (48) 
22

>  <SMILES>  (48) 
Cc1ccccc1N1CCN(Cc2nnc3c(=O)n(C)c(=O)n(C)c3n2)CC1

>  <Energy>  (48) 
78.74029483597874

>  <Genealogy>  (48) 
Cc1ccccc1N1CCN(Cc2nnc3c(=O)n(C)c(=O)n(C)c3n2)CC1 (3D coordinates assigned)
Cc1ccccc1N1CCN(Cc2nnc3c(=O)n(C)c(=O)n(C)c3n2)CC1 (nonaromatic ring conformer: 78.74029483597874 kcal/mol)

>  <smiles>  (48) 
Cc1ccccc1N1CCN(Cc2nnc3c(=O)n(C)c(=O)n(C)c3n2)CC1

>  <score_type>  (48) 
oracle

>  <origin>  (48) 
autodockgpu

>  <m_score__min__energy>  (48) 
-7.6600000000000001

>  <m_primary>  (48) 
energy

>  <meeko>  (48) 
{"free_energy": -7.65, "intermolecular_energy": -8.54, "internal_energy": -0.42, "cluster_size": 5, "cluster_id": 1, "rank_in_cluster": 3}

>  <energy>  (48) 
-6.84

>  <cluster_rmsd>  (48) 
1.92

>  <rmsd>  (48) 
269.24

>  <cluster>  (48) 
2

$$$$
IILOZLGKIKELDM-UHFFFAOYNA-N
     RDKit          3D

 51 54  0  0  0  0  0  0  0  0999 V2000
  142.0120   79.0250  219.1070 C   0  0  0  0  0  0  0  0  0  0  0  0
  141.8120   80.5120  219.1850 C   0  0  0  0  0  0  0  0  0  0  0  0
  142.1450   81.3220  218.0840 C   0  0  0  0  0  0  0  0  0  0  0  0
  141.9450   82.7040  218.1370 C   0  0  0  0  0  0  0  0  0  0  0  0
  141.4030   83.2900  219.2820 C   0  0  0  0  0  0  0  0  0  0  0  0
  141.0560   82.4950  220.3770 C   0  0  0  0  0  0  0  0  0  0  0  0
  141.2500   81.1070  220.3340 C   0  0  0  0  0  0  0  0  0  0  0  0
  140.8790   80.3100  221.4660 N   0  0  0  0  0  0  0  0  0  0  0  0
  139.5210   80.4280  221.9970 C   0  0  0  0  0  0  0  0  0  0  0  0
  139.3510   79.5600  223.2500 C   0  0  0  0  0  0  0  0  0  0  0  0
  139.9890   78.2330  223.0910 N   0  0  0  0  0  0  0  0  0  0  0  0
  139.3110   77.3690  222.0980 C   0  0  0  0  0  0  0  0  0  0  0  0
  140.0650   76.0950  221.8710 C   0  0  0  0  0  0  0  0  0  0  0  0
  139.5840   74.9180  222.3490 N   0  0  0  0  0  0  0  0  0  0  0  0
  140.2310   73.7740  222.1250 N   0  0  0  0  0  0  0  0  0  0  0  0
  141.3860   73.7510  221.4090 C   0  0  0  0  0  0  0  0  0  0  0  0
  142.0650   72.5630  221.1560 C   0  0  0  0  0  0  0  0  0  0  0  0
  141.5970   71.4760  221.6000 O   0  0  0  0  0  0  0  0  0  0  0  0
  143.2220   72.5790  220.4230 N   0  0  0  0  0  0  0  0  0  0  0  0
  143.9170   71.3160  220.1200 C   0  0  0  0  0  0  0  0  0  0  0  0
  143.6890   73.7620  219.8990 C   0  0  0  0  0  0  0  0  0  0  0  0
  144.7150   73.7560  219.1590 O   0  0  0  0  0  0  0  0  0  0  0  0
  143.0520   74.9500  220.1680 N   0  0  0  0  0  0  0  0  0  0  0  0
  143.5570   76.2120  219.5980 C   0  0  0  0  0  0  0  0  0  0  0  0
  141.8970   74.9500  220.9030 C   0  0  0  0  0  0  0  0  0  0  0  0
  141.2140   76.1020  221.1460 N   0  0  0  0  0  0  0  0  0  0  0  0
  141.4530   78.3230  222.8360 C   0  0  0  0  0  0  0  0  0  0  0  0
  141.9250   79.6800  222.2720 C   0  0  0  0  0  0  0  0  0  0  0  0
  142.0680   78.6087  220.1237 H   0  0  0  0  0  0  0  0  0  0  0  0
  141.1671   78.5691  218.5701 H   0  0  0  0  0  0  0  0  0  0  0  0
  142.9473   78.8085  218.5701 H   0  0  0  0  0  0  0  0  0  0  0  0
  142.5653   80.8648  217.1761 H   0  0  0  0  0  0  0  0  0  0  0  0
  142.2152   83.3312  217.2747 H   0  0  0  0  0  0  0  0  0  0  0  0
  141.2490   84.3784  219.3221 H   0  0  0  0  0  0  0  0  0  0  0  0
  140.6284   82.9602  221.2774 H   0  0  0  0  0  0  0  0  0  0  0  0
  139.3249   81.4788  222.2564 H   0  0  0  0  0  0  0  0  0  0  0  0
  138.8107   80.0850  221.2303 H   0  0  0  0  0  0  0  0  0  0  0  0
  139.8111   80.0760  224.1056 H   0  0  0  0  0  0  0  0  0  0  0  0
  138.2746   79.4042  223.4143 H   0  0  0  0  0  0  0  0  0  0  0  0
  138.3026   77.1267  222.4648 H   0  0  0  0  0  0  0  0  0  0  0  0
  139.2610   77.9144  221.1440 H   0  0  0  0  0  0  0  0  0  0  0  0
  144.1928   70.8147  221.0595 H   0  0  0  0  0  0  0  0  0  0  0  0
  143.2517   70.6621  219.5371 H   0  0  0  0  0  0  0  0  0  0  0  0
  144.8255   71.5281  219.5371 H   0  0  0  0  0  0  0  0  0  0  0  0
  143.8316   76.8983  220.4126 H   0  0  0  0  0  0  0  0  0  0  0  0
  144.4420   76.0061  218.9780 H   0  0  0  0  0  0  0  0  0  0  0  0
  142.7743   76.6734  218.9780 H   0  0  0  0  0  0  0  0  0  0  0  0
  141.9783   78.1449  223.7859 H   0  0  0  0  0  0  0  0  0  0  0  0
  141.6825   77.5696  222.0681 H   0  0  0  0  0  0  0  0  0  0  0  0
  142.1836   80.3459  223.1085 H   0  0  0  0  0  0  0  0  0  0  0  0
  142.8014   79.5051  221.6307 H   0  0  0  0  0  0  0  0  0  0  0  0
  1  2  1  0
  2  3  2  0
  3  4  1  0
  4  5  2  0
  5  6  1  0
  6  7  2  0
  7  8  1  0
  8  9  1  0
  9 10  1  0
 10 11  1  0
 11 12  1  0
 12 13  1  0
 13 14  2  0
 14 15  1  0
 15 16  2  0
 16 17  1  0
 17 18  2  0
 17 19  1  0
 19 20  1  0
 19 21  1  0
 21 22  2  0
 21 23  1  0
 23 24  1  0
 23 25  1  0
 25 26  2  0
 11 27  1  0
 27 28  1  0
  7  2  1  0
 28  8  1  0
 26 13  1  0
 25 16  1  0
  1 29  1  0
  1 30  1  0
  1 31  1  0
  3 32  1  0
  4 33  1  0
  5 34  1  0
  6 35  1  0
  9 36  1  0
  9 37  1  0
 10 38  1  0
 10 39  1  0
 12 40  1  0
 12 41  1  0
 20 42  1  0
 20 43  1  0
 20 44  1  0
 24 45  1  0
 24 46  1  0
 24 47  1  0
 27 48  1  0
 27 49  1  0
 28 50  1  0
 28 51  1  0
M  END
>  <UniqueID>  (49) 
22

>  <SMILES>  (49) 
Cc1ccccc1N1CCN(Cc2nnc3c(=O)n(C)c(=O)n(C)c3n2)CC1

>  <Energy>  (49) 
78.74029483597874

>  <Genealogy>  (49) 
Cc1ccccc1N1CCN(Cc2nnc3c(=O)n(C)c(=O)n(C)c3n2)CC1 (3D coordinates assigned)
Cc1ccccc1N1CCN(Cc2nnc3c(=O)n(C)c(=O)n(C)c3n2)CC1 (nonaromatic ring conformer: 78.74029483597874 kcal/mol)

>  <smiles>  (49) 
Cc1ccccc1N1CCN(Cc2nnc3c(=O)n(C)c(=O)n(C)c3n2)CC1

>  <score_type>  (49) 
oracle

>  <origin>  (49) 
autodockgpu

>  <m_score__min__energy>  (49) 
-7.6600000000000001

>  <m_primary>  (49) 
energy

>  <meeko>  (49) 
{"free_energy": -6.65, "intermolecular_energy": -7.54, "internal_energy": -0.92, "cluster_size": 3, "cluster_id": 5, "rank_in_cluster": 3}

>  <energy>  (49) 
-6.84

>  <cluster_rmsd>  (49) 
1.93

>  <rmsd>  (49) 
269.22

>  <cluster>  (49) 
2

$$$$
IILOZLGKIKELDM-UHFFFAOYNA-N
     RDKit          3D

 51 54  0  0  0  0  0  0  0  0999 V2000
  141.8220   79.7940  219.2710 C   0  0  0  0  0  0  0  0  0  0  0  0
  141.4540   81.2250  219.5450 C   0  0  0  0  0  0  0  0  0  0  0  0
  141.6570   82.2020  218.5540 C   0  0  0  0  0  0  0  0  0  0  0  0
  141.3010   83.5330  218.7900 C   0  0  0  0  0  0  0  0  0  0  0  0
  140.7310   83.9000  220.0100 C   0  0  0  0  0  0  0  0  0  0  0  0
  140.5130   82.9370  220.9980 C   0  0  0  0  0  0  0  0  0  0  0  0
  140.8640   81.5980  220.7720 C   0  0  0  0  0  0  0  0  0  0  0  0
  140.6240   80.6240  221.7960 N   0  0  0  0  0  0  0  0  0  0  0  0
  139.2820   80.5250  222.3730 C   0  0  0  0  0  0  0  0  0  0  0  0
  139.2540   79.4880  223.5020 C   0  0  0  0  0  0  0  0  0  0  0  0
  140.0200   78.2700  223.1510 N   0  0  0  0  0  0  0  0  0  0  0  0
  139.3960   77.4740  222.0690 C   0  0  0  0  0  0  0  0  0  0  0  0
  140.1250   76.1850  221.8440 C   0  0  0  0  0  0  0  0  0  0  0  0
  139.6210   75.0180  222.3260 N   0  0  0  0  0  0  0  0  0  0  0  0
  140.2450   73.8620  222.1040 N   0  0  0  0  0  0  0  0  0  0  0  0
  141.3980   73.8140  221.3860 C   0  0  0  0  0  0  0  0  0  0  0  0
  142.0530   72.6130  221.1340 C   0  0  0  0  0  0  0  0  0  0  0  0
  141.5650   71.5370  221.5820 O   0  0  0  0  0  0  0  0  0  0  0  0
  143.2080   72.6040  220.3990 N   0  0  0  0  0  0  0  0  0  0  0  0
  143.8780   71.3270  220.0990 C   0  0  0  0  0  0  0  0  0  0  0  0
  143.6980   73.7770  219.8720 C   0  0  0  0  0  0  0  0  0  0  0  0
  144.7220   73.7480  219.1300 O   0  0  0  0  0  0  0  0  0  0  0  0
  143.0850   74.9770  220.1390 N   0  0  0  0  0  0  0  0  0  0  0  0
  143.6130   76.2280  219.5650 C   0  0  0  0  0  0  0  0  0  0  0  0
  141.9310   75.0020  220.8760 C   0  0  0  0  0  0  0  0  0  0  0  0
  141.2720   76.1670  221.1170 N   0  0  0  0  0  0  0  0  0  0  0  0
  141.4550   78.5500  222.8730 C   0  0  0  0  0  0  0  0  0  0  0  0
  141.7610   80.0120  222.4840 C   0  0  0  0  0  0  0  0  0  0  0  0
  141.9589   79.2617  220.2238 H   0  0  0  0  0  0  0  0  0  0  0  0
  141.0184   79.3127  218.6943 H   0  0  0  0  0  0  0  0  0  0  0  0
  142.7581   79.7601  218.6943 H   0  0  0  0  0  0  0  0  0  0  0  0
  142.0985   81.9171  217.5876 H   0  0  0  0  0  0  0  0  0  0  0  0
  141.4704   84.2926  218.0127 H   0  0  0  0  0  0  0  0  0  0  0  0
  140.4532   84.9484  220.1936 H   0  0  0  0  0  0  0  0  0  0  0  0
  140.0637   83.2303  221.9583 H   0  0  0  0  0  0  0  0  0  0  0  0
  138.9886   81.5057  222.7758 H   0  0  0  0  0  0  0  0  0  0  0  0
  138.5804   80.2109  221.5861 H   0  0  0  0  0  0  0  0  0  0  0  0
  139.6916   79.9351  224.4067 H   0  0  0  0  0  0  0  0  0  0  0  0
  138.2071   79.1959  223.6712 H   0  0  0  0  0  0  0  0  0  0  0  0
  138.3543   77.2520  222.3441 H   0  0  0  0  0  0  0  0  0  0  0  0
  139.4396   78.0613  221.1400 H   0  0  0  0  0  0  0  0  0  0  0  0
  144.1429   70.8221  221.0397 H   0  0  0  0  0  0  0  0  0  0  0  0
  143.2004   70.6854  219.5166 H   0  0  0  0  0  0  0  0  0  0  0  0
  144.7910   71.5199  219.5166 H   0  0  0  0  0  0  0  0  0  0  0  0
  143.9014   76.9112  220.3775 H   0  0  0  0  0  0  0  0  0  0  0  0
  144.4933   76.0039  218.9446 H   0  0  0  0  0  0  0  0  0  0  0  0
  142.8384   76.7024  218.9446 H   0  0  0  0  0  0  0  0  0  0  0  0
  142.0332   78.3073  223.7767 H   0  0  0  0  0  0  0  0  0  0  0  0
  141.7306   77.9325  222.0054 H   0  0  0  0  0  0  0  0  0  0  0  0
  141.9814   80.5874  223.3952 H   0  0  0  0  0  0  0  0  0  0  0  0
  142.6253   80.0185  221.8035 H   0  0  0  0  0  0  0  0  0  0  0  0
  1  2  1  0
  2  3  2  0
  3  4  1  0
  4  5  2  0
  5  6  1  0
  6  7  2  0
  7  8  1  0
  8  9  1  0
  9 10  1  0
 10 11  1  0
 11 12  1  0
 12 13  1  0
 13 14  2  0
 14 15  1  0
 15 16  2  0
 16 17  1  0
 17 18  2  0
 17 19  1  0
 19 20  1  0
 19 21  1  0
 21 22  2  0
 21 23  1  0
 23 24  1  0
 23 25  1  0
 25 26  2  0
 11 27  1  0
 27 28  1  0
  7  2  1  0
 28  8  1  0
 26 13  1  0
 25 16  1  0
  1 29  1  0
  1 30  1  0
  1 31  1  0
  3 32  1  0
  4 33  1  0
  5 34  1  0
  6 35  1  0
  9 36  1  0
  9 37  1  0
 10 38  1  0
 10 39  1  0
 12 40  1  0
 12 41  1  0
 20 42  1  0
 20 43  1  0
 20 44  1  0
 24 45  1  0
 24 46  1  0
 24 47  1  0
 27 48  1  0
 27 49  1  0
 28 50  1  0
 28 51  1  0
M  END
>  <UniqueID>  (50) 
22

>  <SMILES>  (50) 
Cc1ccccc1N1CCN(Cc2nnc3c(=O)n(C)c(=O)n(C)c3n2)CC1

>  <Energy>  (50) 
78.74029483597874

>  <Genealogy>  (50) 
Cc1ccccc1N1CCN(Cc2nnc3c(=O)n(C)c(=O)n(C)c3n2)CC1 (3D coordinates assigned)
Cc1ccccc1N1CCN(Cc2nnc3c(=O)n(C)c(=O)n(C)c3n2)CC1 (nonaromatic ring conformer: 78.74029483597874 kcal/mol)

>  <smiles>  (50) 
Cc1ccccc1N1CCN(Cc2nnc3c(=O)n(C)c(=O)n(C)c3n2)CC1

>  <score_type>  (50) 
oracle

>  <origin>  (50) 
autodockgpu

>  <m_score__min__energy>  (50) 
-7.6600000000000001

>  <m_primary>  (50) 
energy

>  <meeko>  (50) 
{"free_energy": -6.65, "intermolecular_energy": -7.55, "internal_energy": -0.91, "cluster_size": 3, "cluster_id": 5, "rank_in_cluster": 2}

>  <energy>  (50) 
-6.83

>  <cluster_rmsd>  (50) 
1.92

>  <rmsd>  (50) 
269.24

>  <cluster>  (50) 
2

$$$$
IILOZLGKIKELDM-UHFFFAOYNA-N
     RDKit          3D

 51 54  0  0  0  0  0  0  0  0999 V2000
  141.4330   71.1880  225.7240 C   0  0  0  0  0  0  0  0  0  0  0  0
  140.7710   69.8980  226.1230 C   0  0  0  0  0  0  0  0  0  0  0  0
  141.0540   69.3240  227.3750 C   0  0  0  0  0  0  0  0  0  0  0  0
  140.4300   68.1360  227.7650 C   0  0  0  0  0  0  0  0  0  0  0  0
  139.5120   67.5160  226.9160 C   0  0  0  0  0  0  0  0  0  0  0  0
  139.2130   68.0830  225.6750 C   0  0  0  0  0  0  0  0  0  0  0  0
  139.8310   69.2760  225.2740 C   0  0  0  0  0  0  0  0  0  0  0  0
  139.5030   69.8450  224.0000 N   0  0  0  0  0  0  0  0  0  0  0  0
  139.1310   71.2590  223.9340 C   0  0  0  0  0  0  0  0  0  0  0  0
  138.7390   71.6500  222.5040 C   0  0  0  0  0  0  0  0  0  0  0  0
  139.6560   71.0610  221.5010 N   0  0  0  0  0  0  0  0  0  0  0  0
  141.0220   71.6290  221.5470 C   0  0  0  0  0  0  0  0  0  0  0  0
  141.0000   73.1230  221.4470 C   0  0  0  0  0  0  0  0  0  0  0  0
  140.2810   73.8610  222.3330 N   0  0  0  0  0  0  0  0  0  0  0  0
  140.2810   75.1930  222.2710 N   0  0  0  0  0  0  0  0  0  0  0  0
  141.0030   75.8500  221.3260 C   0  0  0  0  0  0  0  0  0  0  0  0
  141.0230   77.2400  221.2590 C   0  0  0  0  0  0  0  0  0  0  0  0
  140.3560   77.9100  222.0970 O   0  0  0  0  0  0  0  0  0  0  0  0
  141.7690   77.8670  220.2960 N   0  0  0  0  0  0  0  0  0  0  0  0
  141.8230   79.3390  220.2520 C   0  0  0  0  0  0  0  0  0  0  0  0
  142.5330   77.1260  219.4250 C   0  0  0  0  0  0  0  0  0  0  0  0
  143.2790   77.7160  218.5910 O   0  0  0  0  0  0  0  0  0  0  0  0
  142.4990   75.7520  219.4540 N   0  0  0  0  0  0  0  0  0  0  0  0
  143.3250   74.9670  218.5200 C   0  0  0  0  0  0  0  0  0  0  0  0
  141.7540   75.1120  220.4070 C   0  0  0  0  0  0  0  0  0  0  0  0
  141.7370   73.7530  220.4950 N   0  0  0  0  0  0  0  0  0  0  0  0
  139.6750   69.5730  221.5400 C   0  0  0  0  0  0  0  0  0  0  0  0
  139.2030   68.9580  222.8750 C   0  0  0  0  0  0  0  0  0  0  0  0
  141.7200   71.7473  226.6266 H   0  0  0  0  0  0  0  0  0  0  0  0
  142.3307   70.9701  225.1268 H   0  0  0  0  0  0  0  0  0  0  0  0
  140.7325   71.7902  225.1268 H   0  0  0  0  0  0  0  0  0  0  0  0
  141.7707   69.8129  228.0513 H   0  0  0  0  0  0  0  0  0  0  0  0
  140.6627   67.6888  228.7427 H   0  0  0  0  0  0  0  0  0  0  0  0
  139.0235   66.5799  227.2245 H   0  0  0  0  0  0  0  0  0  0  0  0
  138.4890   67.5911  225.0088 H   0  0  0  0  0  0  0  0  0  0  0  0
  138.2779   71.4396  224.6045 H   0  0  0  0  0  0  0  0  0  0  0  0
  139.9943   71.8667  224.2428 H   0  0  0  0  0  0  0  0  0  0  0  0
  137.7175   71.2937  222.3049 H   0  0  0  0  0  0  0  0  0  0  0  0
  138.7994   72.7452  222.4206 H   0  0  0  0  0  0  0  0  0  0  0  0
  141.4966   71.3415  222.4968 H   0  0  0  0  0  0  0  0  0  0  0  0
  141.5883   71.2346  220.6904 H   0  0  0  0  0  0  0  0  0  0  0  0
  141.8376   79.7362  221.2777 H   0  0  0  0  0  0  0  0  0  0  0  0
  142.7334   79.6569  219.7227 H   0  0  0  0  0  0  0  0  0  0  0  0
  140.9383   79.7227  219.7227 H   0  0  0  0  0  0  0  0  0  0  0  0
  144.0071   74.3188  219.0897 H   0  0  0  0  0  0  0  0  0  0  0  0
  142.6736   74.3471  217.8865 H   0  0  0  0  0  0  0  0  0  0  0  0
  143.9110   75.6491  217.8865 H   0  0  0  0  0  0  0  0  0  0  0  0
  139.0185   69.2006  220.7398 H   0  0  0  0  0  0  0  0  0  0  0  0
  140.7252   69.2716  221.4125 H   0  0  0  0  0  0  0  0  0  0  0  0
  138.1167   68.7909  222.8292 H   0  0  0  0  0  0  0  0  0  0  0  0
  139.7347   68.0074  223.0286 H   0  0  0  0  0  0  0  0  0  0  0  0
  1  2  1  0
  2  3  2  0
  3  4  1  0
  4  5  2  0
  5  6  1  0
  6  7  2  0
  7  8  1  0
  8  9  1  0
  9 10  1  0
 10 11  1  0
 11 12  1  0
 12 13  1  0
 13 14  2  0
 14 15  1  0
 15 16  2  0
 16 17  1  0
 17 18  2  0
 17 19  1  0
 19 20  1  0
 19 21  1  0
 21 22  2  0
 21 23  1  0
 23 24  1  0
 23 25  1  0
 25 26  2  0
 11 27  1  0
 27 28  1  0
  7  2  1  0
 28  8  1  0
 26 13  1  0
 25 16  1  0
  1 29  1  0
  1 30  1  0
  1 31  1  0
  3 32  1  0
  4 33  1  0
  5 34  1  0
  6 35  1  0
  9 36  1  0
  9 37  1  0
 10 38  1  0
 10 39  1  0
 12 40  1  0
 12 41  1  0
 20 42  1  0
 20 43  1  0
 20 44  1  0
 24 45  1  0
 24 46  1  0
 24 47  1  0
 27 48  1  0
 27 49  1  0
 28 50  1  0
 28 51  1  0
M  END
>  <UniqueID>  (51) 
22

>  <SMILES>  (51) 
Cc1ccccc1N1CCN(Cc2nnc3c(=O)n(C)c(=O)n(C)c3n2)CC1

>  <Energy>  (51) 
78.74029483597874

>  <Genealogy>  (51) 
Cc1ccccc1N1CCN(Cc2nnc3c(=O)n(C)c(=O)n(C)c3n2)CC1 (3D coordinates assigned)
Cc1ccccc1N1CCN(Cc2nnc3c(=O)n(C)c(=O)n(C)c3n2)CC1 (nonaromatic ring conformer: 78.74029483597874 kcal/mol)

>  <smiles>  (51) 
Cc1ccccc1N1CCN(Cc2nnc3c(=O)n(C)c(=O)n(C)c3n2)CC1

>  <score_type>  (51) 
oracle

>  <origin>  (51) 
autodockgpu

>  <m_score__min__energy>  (51) 
-7.6600000000000001

>  <m_primary>  (51) 
energy

>  <meeko>  (51) 
{"free_energy": -7.65, "intermolecular_energy": -8.55, "internal_energy": -0.41, "cluster_size": 5, "cluster_id": 1, "rank_in_cluster": 2}

>  <energy>  (51) 
-6.82

>  <cluster_rmsd>  (51) 
1.94

>  <rmsd>  (51) 
269.21

>  <cluster>  (51) 
2

$$$$
IILOZLGKIKELDM-UHFFFAOYNA-N
     RDKit          3D

 51 54  0  0  0  0  0  0  0  0999 V2000
  141.4370   71.1880  225.7360 C   0  0  0  0  0  0  0  0  0  0  0  0
  140.7770   69.8990  226.1410 C   0  0  0  0  0  0  0  0  0  0  0  0
  141.0630   69.3300  227.3940 C   0  0  0  0  0  0  0  0  0  0  0  0
  140.4420   68.1420  227.7900 C   0  0  0  0  0  0  0  0  0  0  0  0
  139.5230   67.5180  226.9450 C   0  0  0  0  0  0  0  0  0  0  0  0
  139.2200   68.0800  225.7030 C   0  0  0  0  0  0  0  0  0  0  0  0
  139.8370   69.2720  225.2970 C   0  0  0  0  0  0  0  0  0  0  0  0
  139.5050   69.8370  224.0210 N   0  0  0  0  0  0  0  0  0  0  0  0
  139.1330   71.2500  223.9510 C   0  0  0  0  0  0  0  0  0  0  0  0
  138.7370   71.6360  222.5200 C   0  0  0  0  0  0  0  0  0  0  0  0
  139.6510   71.0420  221.5170 N   0  0  0  0  0  0  0  0  0  0  0  0
  141.0180   71.6100  221.5570 C   0  0  0  0  0  0  0  0  0  0  0  0
  140.9960   73.1050  221.4590 C   0  0  0  0  0  0  0  0  0  0  0  0
  140.2750   73.8400  222.3450 N   0  0  0  0  0  0  0  0  0  0  0  0
  140.2750   75.1720  222.2860 N   0  0  0  0  0  0  0  0  0  0  0  0
  140.9990   75.8320  221.3430 C   0  0  0  0  0  0  0  0  0  0  0  0
  141.0190   77.2210  221.2780 C   0  0  0  0  0  0  0  0  0  0  0  0
  140.3500   77.8900  222.1160 O   0  0  0  0  0  0  0  0  0  0  0  0
  141.7680   77.8510  220.3190 N   0  0  0  0  0  0  0  0  0  0  0  0
  141.8210   79.3220  220.2770 C   0  0  0  0  0  0  0  0  0  0  0  0
  142.5340   77.1110  219.4480 C   0  0  0  0  0  0  0  0  0  0  0  0
  143.2820   77.7020  218.6170 O   0  0  0  0  0  0  0  0  0  0  0  0
  142.5000   75.7370  219.4740 N   0  0  0  0  0  0  0  0  0  0  0  0
  143.3280   74.9530  218.5410 C   0  0  0  0  0  0  0  0  0  0  0  0
  141.7530   75.0950  220.4250 C   0  0  0  0  0  0  0  0  0  0  0  0
  141.7350   73.7360  220.5100 N   0  0  0  0  0  0  0  0  0  0  0  0
  139.6700   69.5550  221.5620 C   0  0  0  0  0  0  0  0  0  0  0  0
  139.2010   68.9460  222.9010 C   0  0  0  0  0  0  0  0  0  0  0  0
  141.7252   71.7509  226.6360 H   0  0  0  0  0  0  0  0  0  0  0  0
  142.3337   70.9687  225.1379 H   0  0  0  0  0  0  0  0  0  0  0  0
  140.7348   71.7873  225.1379 H   0  0  0  0  0  0  0  0  0  0  0  0
  141.7800   69.8227  228.0672 H   0  0  0  0  0  0  0  0  0  0  0  0
  140.6778   67.6984  228.7686 H   0  0  0  0  0  0  0  0  0  0  0  0
  139.0367   66.5822  227.2578 H   0  0  0  0  0  0  0  0  0  0  0  0
  138.4943   67.5856  225.0404 H   0  0  0  0  0  0  0  0  0  0  0  0
  138.2817   71.4330  224.6231 H   0  0  0  0  0  0  0  0  0  0  0  0
  139.9971   71.8588  224.2553 H   0  0  0  0  0  0  0  0  0  0  0  0
  137.7147   71.2798  222.3251 H   0  0  0  0  0  0  0  0  0  0  0  0
  138.7978   72.7308  222.4320 H   0  0  0  0  0  0  0  0  0  0  0  0
  141.4972   71.3212  222.5041 H   0  0  0  0  0  0  0  0  0  0  0  0
  141.5799   71.2166  220.6971 H   0  0  0  0  0  0  0  0  0  0  0  0
  141.8353   79.7178  221.3032 H   0  0  0  0  0  0  0  0  0  0  0  0
  142.7312   79.6412  219.7482 H   0  0  0  0  0  0  0  0  0  0  0  0
  140.9361   79.7058  219.7482 H   0  0  0  0  0  0  0  0  0  0  0  0
  144.0110   74.3064  219.1115 H   0  0  0  0  0  0  0  0  0  0  0  0
  142.6781   74.3315  217.9075 H   0  0  0  0  0  0  0  0  0  0  0  0
  143.9131   75.6358  217.9075 H   0  0  0  0  0  0  0  0  0  0  0  0
  139.0115   69.1793  220.7650 H   0  0  0  0  0  0  0  0  0  0  0  0
  140.7198   69.2528  221.4330 H   0  0  0  0  0  0  0  0  0  0  0  0
  138.1144   68.7799  222.8589 H   0  0  0  0  0  0  0  0  0  0  0  0
  139.7321   67.9954  223.0571 H   0  0  0  0  0  0  0  0  0  0  0  0
  1  2  1  0
  2  3  2  0
  3  4  1  0
  4  5  2  0
  5  6  1  0
  6  7  2  0
  7  8  1  0
  8  9  1  0
  9 10  1  0
 10 11  1  0
 11 12  1  0
 12 13  1  0
 13 14  2  0
 14 15  1  0
 15 16  2  0
 16 17  1  0
 17 18  2  0
 17 19  1  0
 19 20  1  0
 19 21  1  0
 21 22  2  0
 21 23  1  0
 23 24  1  0
 23 25  1  0
 25 26  2  0
 11 27  1  0
 27 28  1  0
  7  2  1  0
 28  8  1  0
 26 13  1  0
 25 16  1  0
  1 29  1  0
  1 30  1  0
  1 31  1  0
  3 32  1  0
  4 33  1  0
  5 34  1  0
  6 35  1  0
  9 36  1  0
  9 37  1  0
 10 38  1  0
 10 39  1  0
 12 40  1  0
 12 41  1  0
 20 42  1  0
 20 43  1  0
 20 44  1  0
 24 45  1  0
 24 46  1  0
 24 47  1  0
 27 48  1  0
 27 49  1  0
 28 50  1  0
 28 51  1  0
M  END
>  <UniqueID>  (52) 
22

>  <SMILES>  (52) 
Cc1ccccc1N1CCN(Cc2nnc3c(=O)n(C)c(=O)n(C)c3n2)CC1

>  <Energy>  (52) 
78.74029483597874

>  <Genealogy>  (52) 
Cc1ccccc1N1CCN(Cc2nnc3c(=O)n(C)c(=O)n(C)c3n2)CC1 (3D coordinates assigned)
Cc1ccccc1N1CCN(Cc2nnc3c(=O)n(C)c(=O)n(C)c3n2)CC1 (nonaromatic ring conformer: 78.74029483597874 kcal/mol)

>  <smiles>  (52) 
Cc1ccccc1N1CCN(Cc2nnc3c(=O)n(C)c(=O)n(C)c3n2)CC1

>  <score_type>  (52) 
oracle

>  <origin>  (52) 
autodockgpu

>  <m_score__min__energy>  (52) 
-7.6600000000000001

>  <m_primary>  (52) 
energy

>  <meeko>  (52) 
{"free_energy": -7.66, "intermolecular_energy": -8.56, "internal_energy": -0.4, "cluster_size": 5, "cluster_id": 1, "rank_in_cluster": 1}

>  <energy>  (52) 
-6.97

>  <cluster_rmsd>  (52) 
0.0

>  <rmsd>  (52) 
269.03

>  <cluster>  (52) 
3

$$$$
IILOZLGKIKELDM-UHFFFAOYNA-N
     RDKit          3D

 51 54  0  0  0  0  0  0  0  0999 V2000
  141.4160   71.2180  225.7910 C   0  0  0  0  0  0  0  0  0  0  0  0
  140.7350   69.9280  226.1550 C   0  0  0  0  0  0  0  0  0  0  0  0
  141.0060   69.3190  227.3930 C   0  0  0  0  0  0  0  0  0  0  0  0
  140.3660   68.1300  227.7510 C   0  0  0  0  0  0  0  0  0  0  0  0
  139.4430   67.5430  226.8840 C   0  0  0  0  0  0  0  0  0  0  0  0
  139.1550   68.1450  225.6570 C   0  0  0  0  0  0  0  0  0  0  0  0
  139.7900   69.3400  225.2890 C   0  0  0  0  0  0  0  0  0  0  0  0
  139.4740   69.9450  224.0280 N   0  0  0  0  0  0  0  0  0  0  0  0
  139.0920   71.3580  224.0010 C   0  0  0  0  0  0  0  0  0  0  0  0
  138.7150   71.7900  222.5780 C   0  0  0  0  0  0  0  0  0  0  0  0
  139.6480   71.2380  221.5700 N   0  0  0  0  0  0  0  0  0  0  0  0
  141.0100   71.8150  221.6510 C   0  0  0  0  0  0  0  0  0  0  0  0
  140.9870   73.3040  221.4940 C   0  0  0  0  0  0  0  0  0  0  0  0
  140.2590   74.0730  222.3450 N   0  0  0  0  0  0  0  0  0  0  0  0
  140.2580   75.4020  222.2340 N   0  0  0  0  0  0  0  0  0  0  0  0
  140.9880   76.0240  221.2710 C   0  0  0  0  0  0  0  0  0  0  0  0
  141.0070   77.4110  221.1520 C   0  0  0  0  0  0  0  0  0  0  0  0
  140.3310   78.1100  221.9590 O   0  0  0  0  0  0  0  0  0  0  0  0
  141.7610   78.0030  220.1740 N   0  0  0  0  0  0  0  0  0  0  0  0
  141.8130   79.4720  220.0740 C   0  0  0  0  0  0  0  0  0  0  0  0
  142.5330   77.2310  219.3370 C   0  0  0  0  0  0  0  0  0  0  0  0
  143.2850   77.7900  218.4880 O   0  0  0  0  0  0  0  0  0  0  0  0
  142.5000   75.8590  219.4170 N   0  0  0  0  0  0  0  0  0  0  0  0
  143.3360   75.0400  218.5210 C   0  0  0  0  0  0  0  0  0  0  0  0
  141.7480   75.2530  220.3870 C   0  0  0  0  0  0  0  0  0  0  0  0
  141.7310   73.8990  220.5260 N   0  0  0  0  0  0  0  0  0  0  0  0
  139.6780   69.7500  221.5640 C   0  0  0  0  0  0  0  0  0  0  0  0
  139.1940   69.0920  222.8730 C   0  0  0  0  0  0  0  0  0  0  0  0
  141.6993   71.7547  226.7085 H   0  0  0  0  0  0  0  0  0  0  0  0
  142.3177   71.0023  225.1991 H   0  0  0  0  0  0  0  0  0  0  0  0
  140.7292   71.8409  225.1991 H   0  0  0  0  0  0  0  0  0  0  0  0
  141.7263   69.7816  228.0838 H   0  0  0  0  0  0  0  0  0  0  0  0
  140.5898   67.6555  228.7178 H   0  0  0  0  0  0  0  0  0  0  0  0
  138.9420   66.6056  227.1673 H   0  0  0  0  0  0  0  0  0  0  0  0
  138.4269   67.6797  224.9763 H   0  0  0  0  0  0  0  0  0  0  0  0
  138.2291   71.5117  224.6657 H   0  0  0  0  0  0  0  0  0  0  0  0
  139.9465   71.9622  224.3396 H   0  0  0  0  0  0  0  0  0  0  0  0
  137.6986   71.4333  222.3552 H   0  0  0  0  0  0  0  0  0  0  0  0
  138.7689   72.8876  222.5286 H   0  0  0  0  0  0  0  0  0  0  0  0
  141.4459   71.5657  222.6297 H   0  0  0  0  0  0  0  0  0  0  0  0
  141.6126   71.3917  220.8339 H   0  0  0  0  0  0  0  0  0  0  0  0
  141.8284   79.9079  221.0838 H   0  0  0  0  0  0  0  0  0  0  0  0
  142.7223   79.7706  219.5318 H   0  0  0  0  0  0  0  0  0  0  0  0
  140.9271   79.8342  219.5318 H   0  0  0  0  0  0  0  0  0  0  0  0
  143.9943   74.3951  219.1216 H   0  0  0  0  0  0  0  0  0  0  0  0
  142.6903   74.4153  217.8864 H   0  0  0  0  0  0  0  0  0  0  0  0
  143.9473   75.6984  217.8864 H   0  0  0  0  0  0  0  0  0  0  0  0
  139.0346   69.3973  220.7445 H   0  0  0  0  0  0  0  0  0  0  0  0
  140.7319   69.4602  221.4408 H   0  0  0  0  0  0  0  0  0  0  0  0
  138.1095   68.9197  222.8085 H   0  0  0  0  0  0  0  0  0  0  0  0
  139.7303   68.1406  223.0040 H   0  0  0  0  0  0  0  0  0  0  0  0
  1  2  1  0
  2  3  2  0
  3  4  1  0
  4  5  2  0
  5  6  1  0
  6  7  2  0
  7  8  1  0
  8  9  1  0
  9 10  1  0
 10 11  1  0
 11 12  1  0
 12 13  1  0
 13 14  2  0
 14 15  1  0
 15 16  2  0
 16 17  1  0
 17 18  2  0
 17 19  1  0
 19 20  1  0
 19 21  1  0
 21 22  2  0
 21 23  1  0
 23 24  1  0
 23 25  1  0
 25 26  2  0
 11 27  1  0
 27 28  1  0
  7  2  1  0
 28  8  1  0
 26 13  1  0
 25 16  1  0
  1 29  1  0
  1 30  1  0
  1 31  1  0
  3 32  1  0
  4 33  1  0
  5 34  1  0
  6 35  1  0
  9 36  1  0
  9 37  1  0
 10 38  1  0
 10 39  1  0
 12 40  1  0
 12 41  1  0
 20 42  1  0
 20 43  1  0
 20 44  1  0
 24 45  1  0
 24 46  1  0
 24 47  1  0
 27 48  1  0
 27 49  1  0
 28 50  1  0
 28 51  1  0
M  END
>  <UniqueID>  (53) 
22

>  <SMILES>  (53) 
Cc1ccccc1N1CCN(Cc2nnc3c(=O)n(C)c(=O)n(C)c3n2)CC1

>  <Energy>  (53) 
78.74029483597874

>  <Genealogy>  (53) 
Cc1ccccc1N1CCN(Cc2nnc3c(=O)n(C)c(=O)n(C)c3n2)CC1 (3D coordinates assigned)
Cc1ccccc1N1CCN(Cc2nnc3c(=O)n(C)c(=O)n(C)c3n2)CC1 (nonaromatic ring conformer: 78.74029483597874 kcal/mol)

>  <smiles>  (53) 
Cc1ccccc1N1CCN(Cc2nnc3c(=O)n(C)c(=O)n(C)c3n2)CC1

>  <score_type>  (53) 
oracle

>  <origin>  (53) 
autodockgpu

>  <m_score__min__energy>  (53) 
-7.6600000000000001

>  <m_primary>  (53) 
energy

>  <meeko>  (53) 
{"free_energy": -7.58, "intermolecular_energy": -8.47, "internal_energy": -0.5, "cluster_size": 5, "cluster_id": 1, "rank_in_cluster": 5}

>  <energy>  (53) 
-6.78

>  <cluster_rmsd>  (53) 
0.0

>  <rmsd>  (53) 
269.19

>  <cluster>  (53) 
4

$$$$
IILOZLGKIKELDM-UHFFFAOYNA-N
     RDKit          3D

 51 54  0  0  0  0  0  0  0  0999 V2000
  141.0640   75.8850  221.6040 C   0  0  0  0  0  0  0  0  0  0  0  0
  140.4530   77.0870  222.2700 C   0  0  0  0  0  0  0  0  0  0  0  0
  141.2840   78.0980  222.7850 C   0  0  0  0  0  0  0  0  0  0  0  0
  140.7280   79.2290  223.3900 C   0  0  0  0  0  0  0  0  0  0  0  0
  139.3420   79.3660  223.4780 C   0  0  0  0  0  0  0  0  0  0  0  0
  138.5060   78.3750  222.9590 C   0  0  0  0  0  0  0  0  0  0  0  0
  139.0530   77.2370  222.3480 C   0  0  0  0  0  0  0  0  0  0  0  0
  138.1770   76.2350  221.8140 N   0  0  0  0  0  0  0  0  0  0  0  0
  137.9810   76.1690  220.3650 C   0  0  0  0  0  0  0  0  0  0  0  0
  136.9510   75.0920  220.0060 C   0  0  0  0  0  0  0  0  0  0  0  0
  137.1450   73.8570  220.8010 N   0  0  0  0  0  0  0  0  0  0  0  0
  138.3910   73.1310  220.4650 C   0  0  0  0  0  0  0  0  0  0  0  0
  139.0080   72.5060  221.6790 C   0  0  0  0  0  0  0  0  0  0  0  0
  139.9720   73.1620  222.3740 N   0  0  0  0  0  0  0  0  0  0  0  0
  140.5050   72.6290  223.4740 N   0  0  0  0  0  0  0  0  0  0  0  0
  140.0950   71.4170  223.9330 C   0  0  0  0  0  0  0  0  0  0  0  0
  140.6320   70.8540  225.0870 C   0  0  0  0  0  0  0  0  0  0  0  0
  141.5220   71.4840  225.7260 O   0  0  0  0  0  0  0  0  0  0  0  0
  140.1880   69.6340  225.5230 N   0  0  0  0  0  0  0  0  0  0  0  0
  140.7270   69.0580  226.7670 C   0  0  0  0  0  0  0  0  0  0  0  0
  139.1800   68.9850  224.8470 C   0  0  0  0  0  0  0  0  0  0  0  0
  138.7230   67.8980  225.3010 O   0  0  0  0  0  0  0  0  0  0  0  0
  138.6620   69.5100  223.6860 N   0  0  0  0  0  0  0  0  0  0  0  0
  137.5790   68.8100  222.9720 C   0  0  0  0  0  0  0  0  0  0  0  0
  139.1000   70.7260  223.2360 C   0  0  0  0  0  0  0  0  0  0  0  0
  138.5740   71.2960  222.1180 N   0  0  0  0  0  0  0  0  0  0  0  0
  137.0190   74.0890  222.2660 C   0  0  0  0  0  0  0  0  0  0  0  0
  137.2430   75.5500  222.7080 C   0  0  0  0  0  0  0  0  0  0  0  0
  141.4211   75.1825  222.3715 H   0  0  0  0  0  0  0  0  0  0  0  0
  140.3083   75.3897  220.9767 H   0  0  0  0  0  0  0  0  0  0  0  0
  141.9096   76.2036  220.9767 H   0  0  0  0  0  0  0  0  0  0  0  0
  142.3770   77.9983  222.7114 H   0  0  0  0  0  0  0  0  0  0  0  0
  141.3841   80.0123  223.7974 H   0  0  0  0  0  0  0  0  0  0  0  0
  138.9074   80.2558  223.9568 H   0  0  0  0  0  0  0  0  0  0  0  0
  137.4140   78.4873  223.0296 H   0  0  0  0  0  0  0  0  0  0  0  0
  137.6238   77.1448  220.0041 H   0  0  0  0  0  0  0  0  0  0  0  0
  138.9397   75.9139  219.8898 H   0  0  0  0  0  0  0  0  0  0  0  0
  135.9423   75.4855  220.2002 H   0  0  0  0  0  0  0  0  0  0  0  0
  137.0790   74.8378  218.9435 H   0  0  0  0  0  0  0  0  0  0  0  0
  138.1586   72.3411  219.7355 H   0  0  0  0  0  0  0  0  0  0  0  0
  139.1082   73.8525  220.0466 H   0  0  0  0  0  0  0  0  0  0  0  0
  140.2627   69.5541  227.6320 H   0  0  0  0  0  0  0  0  0  0  0  0
  140.5046   67.9812  226.7990 H   0  0  0  0  0  0  0  0  0  0  0  0
  141.8162   69.2085  226.7990 H   0  0  0  0  0  0  0  0  0  0  0  0
  136.8877   68.3632  223.7017 H   0  0  0  0  0  0  0  0  0  0  0  0
  137.0330   69.5265  222.3407 H   0  0  0  0  0  0  0  0  0  0  0  0
  138.0081   68.0179  222.3407 H   0  0  0  0  0  0  0  0  0  0  0  0
  136.0068   73.7888  222.5748 H   0  0  0  0  0  0  0  0  0  0  0  0
  137.8111   73.4943  222.7444 H   0  0  0  0  0  0  0  0  0  0  0  0
  136.2795   76.0806  222.6954 H   0  0  0  0  0  0  0  0  0  0  0  0
  137.6699   75.5461  223.7218 H   0  0  0  0  0  0  0  0  0  0  0  0
  1  2  1  0
  2  3  2  0
  3  4  1  0
  4  5  2  0
  5  6  1  0
  6  7  2  0
  7  8  1  0
  8  9  1  0
  9 10  1  0
 10 11  1  0
 11 12  1  0
 12 13  1  0
 13 14  2  0
 14 15  1  0
 15 16  2  0
 16 17  1  0
 17 18  2  0
 17 19  1  0
 19 20  1  0
 19 21  1  0
 21 22  2  0
 21 23  1  0
 23 24  1  0
 23 25  1  0
 25 26  2  0
 11 27  1  0
 27 28  1  0
  7  2  1  0
 28  8  1  0
 26 13  1  0
 25 16  1  0
  1 29  1  0
  1 30  1  0
  1 31  1  0
  3 32  1  0
  4 33  1  0
  5 34  1  0
  6 35  1  0
  9 36  1  0
  9 37  1  0
 10 38  1  0
 10 39  1  0
 12 40  1  0
 12 41  1  0
 20 42  1  0
 20 43  1  0
 20 44  1  0
 24 45  1  0
 24 46  1  0
 24 47  1  0
 27 48  1  0
 27 49  1  0
 28 50  1  0
 28 51  1  0
M  END
>  <UniqueID>  (54) 
22

>  <SMILES>  (54) 
Cc1ccccc1N1CCN(Cc2nnc3c(=O)n(C)c(=O)n(C)c3n2)CC1

>  <Energy>  (54) 
78.74029483597874

>  <Genealogy>  (54) 
Cc1ccccc1N1CCN(Cc2nnc3c(=O)n(C)c(=O)n(C)c3n2)CC1 (3D coordinates assigned)
Cc1ccccc1N1CCN(Cc2nnc3c(=O)n(C)c(=O)n(C)c3n2)CC1 (nonaromatic ring conformer: 78.74029483597874 kcal/mol)

>  <smiles>  (54) 
Cc1ccccc1N1CCN(Cc2nnc3c(=O)n(C)c(=O)n(C)c3n2)CC1

>  <score_type>  (54) 
oracle

>  <origin>  (54) 
autodockgpu

>  <m_score__min__energy>  (54) 
-7.6600000000000001

>  <m_primary>  (54) 
energy

>  <meeko>  (54) 
{"free_energy": -6.76, "intermolecular_energy": -7.66, "internal_energy": -1.16, "cluster_size": 4, "cluster_id": 4, "rank_in_cluster": 3}

>  <energy>  (54) 
-6.77

>  <cluster_rmsd>  (54) 
0.14

>  <rmsd>  (54) 
269.17

>  <cluster>  (54) 
4

$$$$
IILOZLGKIKELDM-UHFFFAOYNA-N
     RDKit          3D

 51 54  0  0  0  0  0  0  0  0999 V2000
  141.2660   75.5790  221.5870 C   0  0  0  0  0  0  0  0  0  0  0  0
  140.4410   76.7100  222.1350 C   0  0  0  0  0  0  0  0  0  0  0  0
  141.0780   77.8450  222.6680 C   0  0  0  0  0  0  0  0  0  0  0  0
  140.3220   78.9120  223.1630 C   0  0  0  0  0  0  0  0  0  0  0  0
  138.9280   78.8610  223.1220 C   0  0  0  0  0  0  0  0  0  0  0  0
  138.2840   77.7450  222.5830 C   0  0  0  0  0  0  0  0  0  0  0  0
  139.0320   76.6700  222.0810 C   0  0  0  0  0  0  0  0  0  0  0  0
  138.3520   75.5380  221.5250 N   0  0  0  0  0  0  0  0  0  0  0  0
  138.3970   75.3290  220.0760 C   0  0  0  0  0  0  0  0  0  0  0  0
  137.5430   74.1200  219.6760 C   0  0  0  0  0  0  0  0  0  0  0  0
  137.7240   72.9850  220.6100 N   0  0  0  0  0  0  0  0  0  0  0  0
  139.0700   72.3720  220.5390 C   0  0  0  0  0  0  0  0  0  0  0  0
  139.5240   71.8840  221.8810 C   0  0  0  0  0  0  0  0  0  0  0  0
  140.2530   72.6910  222.6950 N   0  0  0  0  0  0  0  0  0  0  0  0
  140.6340   72.2780  223.9040 N   0  0  0  0  0  0  0  0  0  0  0  0
  140.3010   71.0400  224.3580 C   0  0  0  0  0  0  0  0  0  0  0  0
  140.6800   70.6010  225.6230 C   0  0  0  0  0  0  0  0  0  0  0  0
  141.3500   71.3690  226.3700 O   0  0  0  0  0  0  0  0  0  0  0  0
  140.3180   69.3510  226.0490 N   0  0  0  0  0  0  0  0  0  0  0  0
  140.6840   68.9020  227.4030 C   0  0  0  0  0  0  0  0  0  0  0  0
  139.5430   68.5460  225.2450 C   0  0  0  0  0  0  0  0  0  0  0  0
  139.1480   67.4260  225.6790 O   0  0  0  0  0  0  0  0  0  0  0  0
  139.1880   68.9500  223.9800 N   0  0  0  0  0  0  0  0  0  0  0  0
  138.3520   68.0840  223.1290 C   0  0  0  0  0  0  0  0  0  0  0  0
  139.5470   70.1950  223.5390 C   0  0  0  0  0  0  0  0  0  0  0  0
  139.1700   70.6450  222.3110 N   0  0  0  0  0  0  0  0  0  0  0  0
  137.3450   73.3230  222.0090 C   0  0  0  0  0  0  0  0  0  0  0  0
  137.3550   74.8320  222.3320 C   0  0  0  0  0  0  0  0  0  0  0  0
  141.6900   74.9977  222.4191 H   0  0  0  0  0  0  0  0  0  0  0  0
  140.6302   74.9266  220.9705 H   0  0  0  0  0  0  0  0  0  0  0  0
  142.0814   75.9852  220.9705 H   0  0  0  0  0  0  0  0  0  0  0  0
  142.1766   77.8935  222.6956 H   0  0  0  0  0  0  0  0  0  0  0  0
  140.8270   79.7932  223.5855 H   0  0  0  0  0  0  0  0  0  0  0  0
  138.3357   79.7007  223.5146 H   0  0  0  0  0  0  0  0  0  0  0  0
  137.1850   77.7090  222.5521 H   0  0  0  0  0  0  0  0  0  0  0  0
  138.0120   76.2264  219.5696 H   0  0  0  0  0  0  0  0  0  0  0  0
  139.4389   75.1401  219.7781 H   0  0  0  0  0  0  0  0  0  0  0  0
  136.4837   74.4165  219.6771 H   0  0  0  0  0  0  0  0  0  0  0  0
  137.8613   73.7930  218.6751 H   0  0  0  0  0  0  0  0  0  0  0  0
  139.0390   71.5220  219.8415 H   0  0  0  0  0  0  0  0  0  0  0  0
  139.7796   73.1379  220.1927 H   0  0  0  0  0  0  0  0  0  0  0  0
  140.1727   69.5293  228.1480 H   0  0  0  0  0  0  0  0  0  0  0  0
  140.3802   67.8532  227.5361 H   0  0  0  0  0  0  0  0  0  0  0  0
  141.7725   68.9882  227.5361 H   0  0  0  0  0  0  0  0  0  0  0  0
  137.7282   67.4379  223.7642 H   0  0  0  0  0  0  0  0  0  0  0  0
  137.7058   68.7078  222.4939 H   0  0  0  0  0  0  0  0  0  0  0  0
  138.9981   67.4602  222.4939 H   0  0  0  0  0  0  0  0  0  0  0  0
  136.3300   72.9401  222.1913 H   0  0  0  0  0  0  0  0  0  0  0  0
  138.1041   72.8610  222.6573 H   0  0  0  0  0  0  0  0  0  0  0  0
  136.3601   75.2510  222.1209 H   0  0  0  0  0  0  0  0  0  0  0  0
  137.6115   74.9599  223.3940 H   0  0  0  0  0  0  0  0  0  0  0  0
  1  2  1  0
  2  3  2  0
  3  4  1  0
  4  5  2  0
  5  6  1  0
  6  7  2  0
  7  8  1  0
  8  9  1  0
  9 10  1  0
 10 11  1  0
 11 12  1  0
 12 13  1  0
 13 14  2  0
 14 15  1  0
 15 16  2  0
 16 17  1  0
 17 18  2  0
 17 19  1  0
 19 20  1  0
 19 21  1  0
 21 22  2  0
 21 23  1  0
 23 24  1  0
 23 25  1  0
 25 26  2  0
 11 27  1  0
 27 28  1  0
  7  2  1  0
 28  8  1  0
 26 13  1  0
 25 16  1  0
  1 29  1  0
  1 30  1  0
  1 31  1  0
  3 32  1  0
  4 33  1  0
  5 34  1  0
  6 35  1  0
  9 36  1  0
  9 37  1  0
 10 38  1  0
 10 39  1  0
 12 40  1  0
 12 41  1  0
 20 42  1  0
 20 43  1  0
 20 44  1  0
 24 45  1  0
 24 46  1  0
 24 47  1  0
 27 48  1  0
 27 49  1  0
 28 50  1  0
 28 51  1  0
M  END
>  <UniqueID>  (55) 
22

>  <SMILES>  (55) 
Cc1ccccc1N1CCN(Cc2nnc3c(=O)n(C)c(=O)n(C)c3n2)CC1

>  <Energy>  (55) 
78.74029483597874

>  <Genealogy>  (55) 
Cc1ccccc1N1CCN(Cc2nnc3c(=O)n(C)c(=O)n(C)c3n2)CC1 (3D coordinates assigned)
Cc1ccccc1N1CCN(Cc2nnc3c(=O)n(C)c(=O)n(C)c3n2)CC1 (nonaromatic ring conformer: 78.74029483597874 kcal/mol)

>  <smiles>  (55) 
Cc1ccccc1N1CCN(Cc2nnc3c(=O)n(C)c(=O)n(C)c3n2)CC1

>  <score_type>  (55) 
oracle

>  <origin>  (55) 
autodockgpu

>  <m_score__min__energy>  (55) 
-7.6600000000000001

>  <m_primary>  (55) 
energy

>  <meeko>  (55) 
{"free_energy": -6.84, "intermolecular_energy": -7.73, "internal_energy": -1.14, "cluster_size": 6, "cluster_id": 2, "rank_in_cluster": 3}

>  <energy>  (55) 
-6.76

>  <cluster_rmsd>  (55) 
0.08

>  <rmsd>  (55) 
269.21

>  <cluster>  (55) 
4

$$$$
IILOZLGKIKELDM-UHFFFAOYNA-N
     RDKit          3D

 51 54  0  0  0  0  0  0  0  0999 V2000
  141.0850   75.7940  221.5660 C   0  0  0  0  0  0  0  0  0  0  0  0
  140.4810   76.9930  222.2420 C   0  0  0  0  0  0  0  0  0  0  0  0
  141.3170   77.9940  222.7680 C   0  0  0  0  0  0  0  0  0  0  0  0
  140.7670   79.1230  223.3830 C   0  0  0  0  0  0  0  0  0  0  0  0
  139.3820   79.2680  223.4700 C   0  0  0  0  0  0  0  0  0  0  0  0
  138.5410   78.2870  222.9400 C   0  0  0  0  0  0  0  0  0  0  0  0
  139.0820   77.1510  222.3190 C   0  0  0  0  0  0  0  0  0  0  0  0
  138.2010   76.1600  221.7750 N   0  0  0  0  0  0  0  0  0  0  0  0
  138.0210   76.0960  220.3240 C   0  0  0  0  0  0  0  0  0  0  0  0
  136.9830   75.0310  219.9530 C   0  0  0  0  0  0  0  0  0  0  0  0
  137.1530   73.7940  220.7500 N   0  0  0  0  0  0  0  0  0  0  0  0
  138.3940   73.0530  220.4280 C   0  0  0  0  0  0  0  0  0  0  0  0
  139.0120   72.4560  221.6550 C   0  0  0  0  0  0  0  0  0  0  0  0
  139.9410   73.1500  222.3630 N   0  0  0  0  0  0  0  0  0  0  0  0
  140.4730   72.6410  223.4740 N   0  0  0  0  0  0  0  0  0  0  0  0
  140.0990   71.4180  223.9340 C   0  0  0  0  0  0  0  0  0  0  0  0
  140.6360   70.8810  225.0990 C   0  0  0  0  0  0  0  0  0  0  0  0
  141.4920   71.5450  225.7500 O   0  0  0  0  0  0  0  0  0  0  0  0
  140.2270   69.6480  225.5360 N   0  0  0  0  0  0  0  0  0  0  0  0
  140.7660   69.0980  226.7910 C   0  0  0  0  0  0  0  0  0  0  0  0
  139.2550   68.9610  224.8460 C   0  0  0  0  0  0  0  0  0  0  0  0
  138.8290   67.8600  225.2990 O   0  0  0  0  0  0  0  0  0  0  0  0
  138.7380   69.4600  223.6740 N   0  0  0  0  0  0  0  0  0  0  0  0
  137.6930   68.7190  222.9460 C   0  0  0  0  0  0  0  0  0  0  0  0
  139.1410   70.6890  223.2240 C   0  0  0  0  0  0  0  0  0  0  0  0
  138.6130   71.2340  222.0940 N   0  0  0  0  0  0  0  0  0  0  0  0
  137.0120   74.0270  222.2130 C   0  0  0  0  0  0  0  0  0  0  0  0
  137.2480   75.4860  222.6580 C   0  0  0  0  0  0  0  0  0  0  0  0
  141.4422   75.0850  222.3274 H   0  0  0  0  0  0  0  0  0  0  0  0
  140.3253   75.3057  220.9379 H   0  0  0  0  0  0  0  0  0  0  0  0
  141.9295   76.1139  220.9379 H   0  0  0  0  0  0  0  0  0  0  0  0
  142.4095   77.8883  222.6953 H   0  0  0  0  0  0  0  0  0  0  0  0
  141.4274   79.8982  223.7989 H   0  0  0  0  0  0  0  0  0  0  0  0
  138.9520   80.1559  223.9566 H   0  0  0  0  0  0  0  0  0  0  0  0
  137.4496   78.4055  223.0097 H   0  0  0  0  0  0  0  0  0  0  0  0
  137.6793   77.0758  219.9590 H   0  0  0  0  0  0  0  0  0  0  0  0
  138.9821   75.8297  219.8599 H   0  0  0  0  0  0  0  0  0  0  0  0
  135.9767   75.4362  220.1353 H   0  0  0  0  0  0  0  0  0  0  0  0
  137.1208   74.7751  218.8921 H   0  0  0  0  0  0  0  0  0  0  0  0
  138.1547   72.2461  219.7197 H   0  0  0  0  0  0  0  0  0  0  0  0
  139.1134   73.7597  219.9887 H   0  0  0  0  0  0  0  0  0  0  0  0
  140.2815   69.5924  227.6459 H   0  0  0  0  0  0  0  0  0  0  0  0
  140.5681   68.0167  226.8323 H   0  0  0  0  0  0  0  0  0  0  0  0
  141.8510   69.2740  226.8323 H   0  0  0  0  0  0  0  0  0  0  0  0
  137.0150   68.2382  223.6665 H   0  0  0  0  0  0  0  0  0  0  0  0
  137.1224   69.4154  222.3140 H   0  0  0  0  0  0  0  0  0  0  0  0
  138.1614   67.9501  222.3140 H   0  0  0  0  0  0  0  0  0  0  0  0
  135.9927   73.7387  222.5095 H   0  0  0  0  0  0  0  0  0  0  0  0
  137.7910   73.4228  222.7009 H   0  0  0  0  0  0  0  0  0  0  0  0
  136.2911   76.0279  222.6339 H   0  0  0  0  0  0  0  0  0  0  0  0
  137.6626   75.4772  223.6768 H   0  0  0  0  0  0  0  0  0  0  0  0
  1  2  1  0
  2  3  2  0
  3  4  1  0
  4  5  2  0
  5  6  1  0
  6  7  2  0
  7  8  1  0
  8  9  1  0
  9 10  1  0
 10 11  1  0
 11 12  1  0
 12 13  1  0
 13 14  2  0
 14 15  1  0
 15 16  2  0
 16 17  1  0
 17 18  2  0
 17 19  1  0
 19 20  1  0
 19 21  1  0
 21 22  2  0
 21 23  1  0
 23 24  1  0
 23 25  1  0
 25 26  2  0
 11 27  1  0
 27 28  1  0
  7  2  1  0
 28  8  1  0
 26 13  1  0
 25 16  1  0
  1 29  1  0
  1 30  1  0
  1 31  1  0
  3 32  1  0
  4 33  1  0
  5 34  1  0
  6 35  1  0
  9 36  1  0
  9 37  1  0
 10 38  1  0
 10 39  1  0
 12 40  1  0
 12 41  1  0
 20 42  1  0
 20 43  1  0
 20 44  1  0
 24 45  1  0
 24 46  1  0
 24 47  1  0
 27 48  1  0
 27 49  1  0
 28 50  1  0
 28 51  1  0
M  END
>  <UniqueID>  (56) 
22

>  <SMILES>  (56) 
Cc1ccccc1N1CCN(Cc2nnc3c(=O)n(C)c(=O)n(C)c3n2)CC1

>  <Energy>  (56) 
78.74029483597874

>  <Genealogy>  (56) 
Cc1ccccc1N1CCN(Cc2nnc3c(=O)n(C)c(=O)n(C)c3n2)CC1 (3D coordinates assigned)
Cc1ccccc1N1CCN(Cc2nnc3c(=O)n(C)c(=O)n(C)c3n2)CC1 (nonaromatic ring conformer: 78.74029483597874 kcal/mol)

>  <smiles>  (56) 
Cc1ccccc1N1CCN(Cc2nnc3c(=O)n(C)c(=O)n(C)c3n2)CC1

>  <score_type>  (56) 
oracle

>  <origin>  (56) 
autodockgpu

>  <m_score__min__energy>  (56) 
-7.6600000000000001

>  <m_primary>  (56) 
energy

>  <meeko>  (56) 
{"free_energy": -6.78, "intermolecular_energy": -7.67, "internal_energy": -1.16, "cluster_size": 4, "cluster_id": 4, "rank_in_cluster": 1}

>  <energy>  (56) 
-6.66

>  <cluster_rmsd>  (56) 
0.65

>  <rmsd>  (56) 
269.19

>  <cluster>  (56) 
4

$$$$
IILOZLGKIKELDM-UHFFFAOYNA-N
     RDKit          3D

 51 54  0  0  0  0  0  0  0  0999 V2000
  140.8910   82.9250  220.9080 C   0  0  0  0  0  0  0  0  0  0  0  0
  141.4580   82.0280  219.8430 C   0  0  0  0  0  0  0  0  0  0  0  0
  142.0220   82.5880  218.6830 C   0  0  0  0  0  0  0  0  0  0  0  0
  142.5690   81.7660  217.6940 C   0  0  0  0  0  0  0  0  0  0  0  0
  142.5670   80.3800  217.8570 C   0  0  0  0  0  0  0  0  0  0  0  0
  142.0210   79.8110  219.0100 C   0  0  0  0  0  0  0  0  0  0  0  0
  141.4720   80.6270  220.0090 C   0  0  0  0  0  0  0  0  0  0  0  0
  140.9250   80.0230  221.1880 N   0  0  0  0  0  0  0  0  0  0  0  0
  139.5310   80.3010  221.5410 C   0  0  0  0  0  0  0  0  0  0  0  0
  139.1660   79.6320  222.8720 C   0  0  0  0  0  0  0  0  0  0  0  0
  139.7110   78.2580  222.9660 N   0  0  0  0  0  0  0  0  0  0  0  0
  139.0750   77.3060  222.0280 C   0  0  0  0  0  0  0  0  0  0  0  0
  139.9320   76.0980  221.8040 C   0  0  0  0  0  0  0  0  0  0  0  0
  139.5810   74.8990  222.3380 N   0  0  0  0  0  0  0  0  0  0  0  0
  140.3200   73.8120  222.1170 N   0  0  0  0  0  0  0  0  0  0  0  0
  141.4400   73.8690  221.3490 C   0  0  0  0  0  0  0  0  0  0  0  0
  142.2130   72.7390  221.1000 C   0  0  0  0  0  0  0  0  0  0  0  0
  141.8660   71.6300  221.5970 O   0  0  0  0  0  0  0  0  0  0  0  0
  143.3310   72.8350  220.3140 N   0  0  0  0  0  0  0  0  0  0  0  0
  144.1250   71.6310  220.0160 C   0  0  0  0  0  0  0  0  0  0  0  0
  143.6650   74.0380  219.7350 C   0  0  0  0  0  0  0  0  0  0  0  0
  144.6540   74.0990  218.9490 O   0  0  0  0  0  0  0  0  0  0  0  0
  142.9340   75.1720  219.9990 N   0  0  0  0  0  0  0  0  0  0  0  0
  143.2960   76.4540  219.3700 C   0  0  0  0  0  0  0  0  0  0  0  0
  141.8170   75.0920  220.7860 C   0  0  0  0  0  0  0  0  0  0  0  0
  141.0420   76.1850  221.0270 N   0  0  0  0  0  0  0  0  0  0  0  0
  141.1960   78.2190  222.8700 C   0  0  0  0  0  0  0  0  0  0  0  0
  141.8290   79.4500  222.1860 C   0  0  0  0  0  0  0  0  0  0  0  0
  141.1453   82.5228  221.8998 H   0  0  0  0  0  0  0  0  0  0  0  0
  141.3157   83.9342  220.8017 H   0  0  0  0  0  0  0  0  0  0  0  0
  139.7973   82.9744  220.8017 H   0  0  0  0  0  0  0  0  0  0  0  0
  142.0327   83.6803  218.5532 H   0  0  0  0  0  0  0  0  0  0  0  0
  143.0015   82.2119  216.7862 H   0  0  0  0  0  0  0  0  0  0  0  0
  142.9960   79.7346  217.0763 H   0  0  0  0  0  0  0  0  0  0  0  0
  142.0218   78.7181  219.1346 H   0  0  0  0  0  0  0  0  0  0  0  0
  139.3916   81.3882  221.6330 H   0  0  0  0  0  0  0  0  0  0  0  0
  138.8789   79.8984  220.7519 H   0  0  0  0  0  0  0  0  0  0  0  0
  139.5748   80.2342  223.6968 H   0  0  0  0  0  0  0  0  0  0  0  0
  138.0695   79.5693  222.9332 H   0  0  0  0  0  0  0  0  0  0  0  0
  138.1086   76.9859  222.4446 H   0  0  0  0  0  0  0  0  0  0  0  0
  138.9371   77.8143  221.0623 H   0  0  0  0  0  0  0  0  0  0  0  0
  144.4382   71.1561  220.9575 H   0  0  0  0  0  0  0  0  0  0  0  0
  143.5151   70.9244  219.4340 H   0  0  0  0  0  0  0  0  0  0  0  0
  145.0147   71.9133  219.4340 H   0  0  0  0  0  0  0  0  0  0  0  0
  143.5064   77.1992  220.1512 H   0  0  0  0  0  0  0  0  0  0  0  0
  144.1903   76.3160  218.7445 H   0  0  0  0  0  0  0  0  0  0  0  0
  142.4616   76.8041  218.7445 H   0  0  0  0  0  0  0  0  0  0  0  0
  141.6038   78.1453  223.8890 H   0  0  0  0  0  0  0  0  0  0  0  0
  141.4448   77.3512  222.2415 H   0  0  0  0  0  0  0  0  0  0  0  0
  142.0498   80.2108  222.9492 H   0  0  0  0  0  0  0  0  0  0  0  0
  142.7514   79.1311  221.6787 H   0  0  0  0  0  0  0  0  0  0  0  0
  1  2  1  0
  2  3  2  0
  3  4  1  0
  4  5  2  0
  5  6  1  0
  6  7  2  0
  7  8  1  0
  8  9  1  0
  9 10  1  0
 10 11  1  0
 11 12  1  0
 12 13  1  0
 13 14  2  0
 14 15  1  0
 15 16  2  0
 16 17  1  0
 17 18  2  0
 17 19  1  0
 19 20  1  0
 19 21  1  0
 21 22  2  0
 21 23  1  0
 23 24  1  0
 23 25  1  0
 25 26  2  0
 11 27  1  0
 27 28  1  0
  7  2  1  0
 28  8  1  0
 26 13  1  0
 25 16  1  0
  1 29  1  0
  1 30  1  0
  1 31  1  0
  3 32  1  0
  4 33  1  0
  5 34  1  0
  6 35  1  0
  9 36  1  0
  9 37  1  0
 10 38  1  0
 10 39  1  0
 12 40  1  0
 12 41  1  0
 20 42  1  0
 20 43  1  0
 20 44  1  0
 24 45  1  0
 24 46  1  0
 24 47  1  0
 27 48  1  0
 27 49  1  0
 28 50  1  0
 28 51  1  0
M  END
>  <UniqueID>  (57) 
22

>  <SMILES>  (57) 
Cc1ccccc1N1CCN(Cc2nnc3c(=O)n(C)c(=O)n(C)c3n2)CC1

>  <Energy>  (57) 
78.74029483597874

>  <Genealogy>  (57) 
Cc1ccccc1N1CCN(Cc2nnc3c(=O)n(C)c(=O)n(C)c3n2)CC1 (3D coordinates assigned)
Cc1ccccc1N1CCN(Cc2nnc3c(=O)n(C)c(=O)n(C)c3n2)CC1 (nonaromatic ring conformer: 78.74029483597874 kcal/mol)

>  <smiles>  (57) 
Cc1ccccc1N1CCN(Cc2nnc3c(=O)n(C)c(=O)n(C)c3n2)CC1

>  <score_type>  (57) 
oracle

>  <origin>  (57) 
autodockgpu

>  <m_score__min__energy>  (57) 
-7.6600000000000001

>  <m_primary>  (57) 
energy

>  <meeko>  (57) 
{"free_energy": -6.68, "intermolecular_energy": -7.58, "internal_energy": -0.83, "cluster_size": 3, "cluster_id": 5, "rank_in_cluster": 1}

>  <energy>  (57) 
-6.68

>  <cluster_rmsd>  (57) 
0.0

>  <rmsd>  (57) 
269.66

>  <cluster>  (57) 
5

$$$$
IILOZLGKIKELDM-UHFFFAOYNA-N
     RDKit          3D

 51 54  0  0  0  0  0  0  0  0999 V2000
  141.0920   75.9150  221.5480 C   0  0  0  0  0  0  0  0  0  0  0  0
  140.5060   77.1200  222.2300 C   0  0  0  0  0  0  0  0  0  0  0  0
  141.3550   78.1200  222.7350 C   0  0  0  0  0  0  0  0  0  0  0  0
  140.8220   79.2540  223.3530 C   0  0  0  0  0  0  0  0  0  0  0  0
  139.4390   79.4060  223.4650 C   0  0  0  0  0  0  0  0  0  0  0  0
  138.5840   78.4260  222.9560 C   0  0  0  0  0  0  0  0  0  0  0  0
  139.1090   77.2850  222.3320 C   0  0  0  0  0  0  0  0  0  0  0  0
  138.2130   76.2950  221.8090 N   0  0  0  0  0  0  0  0  0  0  0  0
  137.9920   76.2360  220.3630 C   0  0  0  0  0  0  0  0  0  0  0  0
  136.9450   75.1710  220.0170 C   0  0  0  0  0  0  0  0  0  0  0  0
  137.1390   73.9320  220.8040 N   0  0  0  0  0  0  0  0  0  0  0  0
  138.3710   73.1930  220.4440 C   0  0  0  0  0  0  0  0  0  0  0  0
  138.9920   72.5410  221.6410 C   0  0  0  0  0  0  0  0  0  0  0  0
  139.9370   73.1950  222.3660 N   0  0  0  0  0  0  0  0  0  0  0  0
  140.4710   72.6360  223.4520 N   0  0  0  0  0  0  0  0  0  0  0  0
  140.0850   71.4010  223.8670 C   0  0  0  0  0  0  0  0  0  0  0  0
  140.6240   70.8120  225.0060 C   0  0  0  0  0  0  0  0  0  0  0  0
  141.4950   71.4390  225.6740 O   0  0  0  0  0  0  0  0  0  0  0  0
  140.2030   69.5680  225.3980 N   0  0  0  0  0  0  0  0  0  0  0  0
  140.7450   68.9630  226.6270 C   0  0  0  0  0  0  0  0  0  0  0  0
  139.2160   68.9210  224.6910 C   0  0  0  0  0  0  0  0  0  0  0  0
  138.7790   67.8090  225.1050 O   0  0  0  0  0  0  0  0  0  0  0  0
  138.6960   69.4730  223.5440 N   0  0  0  0  0  0  0  0  0  0  0  0
  137.6340   68.7750  222.7980 C   0  0  0  0  0  0  0  0  0  0  0  0
  139.1110   70.7130  223.1390 C   0  0  0  0  0  0  0  0  0  0  0  0
  138.5810   71.3090  222.0360 N   0  0  0  0  0  0  0  0  0  0  0  0
  137.0410   74.1580  222.2720 C   0  0  0  0  0  0  0  0  0  0  0  0
  137.2870   75.6150  222.7160 C   0  0  0  0  0  0  0  0  0  0  0  0
  141.4406   75.1981  222.3059 H   0  0  0  0  0  0  0  0  0  0  0  0
  140.3243   75.4399  220.9196 H   0  0  0  0  0  0  0  0  0  0  0  0
  141.9397   76.2254  220.9196 H   0  0  0  0  0  0  0  0  0  0  0  0
  142.4455   78.0091  222.6431 H   0  0  0  0  0  0  0  0  0  0  0  0
  141.4935   80.0285  223.7520 H   0  0  0  0  0  0  0  0  0  0  0  0
  139.0221   80.2985  223.9546 H   0  0  0  0  0  0  0  0  0  0  0  0
  137.4946   78.5495  223.0449 H   0  0  0  0  0  0  0  0  0  0  0  0
  137.6390   77.2167  220.0115 H   0  0  0  0  0  0  0  0  0  0  0  0
  138.9400   75.9724  219.8712 H   0  0  0  0  0  0  0  0  0  0  0  0
  135.9437   75.5742  220.2290 H   0  0  0  0  0  0  0  0  0  0  0  0
  137.0530   74.9193  218.9516 H   0  0  0  0  0  0  0  0  0  0  0  0
  138.1193   72.4176  219.7054 H   0  0  0  0  0  0  0  0  0  0  0  0
  139.0940   73.9106  220.0290 H   0  0  0  0  0  0  0  0  0  0  0  0
  140.3026   69.4568  227.5047 H   0  0  0  0  0  0  0  0  0  0  0  0
  140.4996   67.8909  226.6470 H   0  0  0  0  0  0  0  0  0  0  0  0
  141.8375   69.0895  226.6470 H   0  0  0  0  0  0  0  0  0  0  0  0
  136.9310   68.3130  223.5068 H   0  0  0  0  0  0  0  0  0  0  0  0
  137.0958   69.4961  222.1652 H   0  0  0  0  0  0  0  0  0  0  0  0
  138.0824   67.9950  222.1652 H   0  0  0  0  0  0  0  0  0  0  0  0
  136.0316   73.8661  222.5973 H   0  0  0  0  0  0  0  0  0  0  0  0
  137.8353   73.5533  222.7340 H   0  0  0  0  0  0  0  0  0  0  0  0
  136.3287   76.1551  222.7218 H   0  0  0  0  0  0  0  0  0  0  0  0
  137.7309   75.6025  223.7224 H   0  0  0  0  0  0  0  0  0  0  0  0
  1  2  1  0
  2  3  2  0
  3  4  1  0
  4  5  2  0
  5  6  1  0
  6  7  2  0
  7  8  1  0
  8  9  1  0
  9 10  1  0
 10 11  1  0
 11 12  1  0
 12 13  1  0
 13 14  2  0
 14 15  1  0
 15 16  2  0
 16 17  1  0
 17 18  2  0
 17 19  1  0
 19 20  1  0
 19 21  1  0
 21 22  2  0
 21 23  1  0
 23 24  1  0
 23 25  1  0
 25 26  2  0
 11 27  1  0
 27 28  1  0
  7  2  1  0
 28  8  1  0
 26 13  1  0
 25 16  1  0
  1 29  1  0
  1 30  1  0
  1 31  1  0
  3 32  1  0
  4 33  1  0
  5 34  1  0
  6 35  1  0
  9 36  1  0
  9 37  1  0
 10 38  1  0
 10 39  1  0
 12 40  1  0
 12 41  1  0
 20 42  1  0
 20 43  1  0
 20 44  1  0
 24 45  1  0
 24 46  1  0
 24 47  1  0
 27 48  1  0
 27 49  1  0
 28 50  1  0
 28 51  1  0
M  END
>  <UniqueID>  (58) 
22

>  <SMILES>  (58) 
Cc1ccccc1N1CCN(Cc2nnc3c(=O)n(C)c(=O)n(C)c3n2)CC1

>  <Energy>  (58) 
78.74029483597874

>  <Genealogy>  (58) 
Cc1ccccc1N1CCN(Cc2nnc3c(=O)n(C)c(=O)n(C)c3n2)CC1 (3D coordinates assigned)
Cc1ccccc1N1CCN(Cc2nnc3c(=O)n(C)c(=O)n(C)c3n2)CC1 (nonaromatic ring conformer: 78.74029483597874 kcal/mol)

>  <smiles>  (58) 
Cc1ccccc1N1CCN(Cc2nnc3c(=O)n(C)c(=O)n(C)c3n2)CC1

>  <score_type>  (58) 
oracle

>  <origin>  (58) 
autodockgpu

>  <m_score__min__energy>  (58) 
-7.6600000000000001

>  <m_primary>  (58) 
energy

>  <meeko>  (58) 
{"free_energy": -6.77, "intermolecular_energy": -7.67, "internal_energy": -1.15, "cluster_size": 4, "cluster_id": 4, "rank_in_cluster": 2}

>  <energy>  (58) 
-6.65

>  <cluster_rmsd>  (58) 
0.91

>  <rmsd>  (58) 
269.86

>  <cluster>  (58) 
5

$$$$
IILOZLGKIKELDM-UHFFFAOYNA-N
     RDKit          3D

 51 54  0  0  0  0  0  0  0  0999 V2000
  140.7980   78.9860  219.7650 C   0  0  0  0  0  0  0  0  0  0  0  0
  141.2470   79.0790  221.1960 C   0  0  0  0  0  0  0  0  0  0  0  0
  141.8310   80.2660  221.6700 C   0  0  0  0  0  0  0  0  0  0  0  0
  142.2360   80.3720  223.0040 C   0  0  0  0  0  0  0  0  0  0  0  0
  142.0530   79.2990  223.8780 C   0  0  0  0  0  0  0  0  0  0  0  0
  141.4620   78.1180  223.4220 C   0  0  0  0  0  0  0  0  0  0  0  0
  141.0510   78.0020  222.0870 C   0  0  0  0  0  0  0  0  0  0  0  0
  140.4390   76.7850  221.6420 N   0  0  0  0  0  0  0  0  0  0  0  0
  140.9860   76.1100  220.4640 C   0  0  0  0  0  0  0  0  0  0  0  0
  140.1440   74.8790  220.1050 C   0  0  0  0  0  0  0  0  0  0  0  0
  139.7580   74.1070  221.3080 N   0  0  0  0  0  0  0  0  0  0  0  0
  140.9010   73.4410  221.9730 C   0  0  0  0  0  0  0  0  0  0  0  0
  140.4650   72.2200  222.7250 C   0  0  0  0  0  0  0  0  0  0  0  0
  139.8860   71.1810  222.0700 N   0  0  0  0  0  0  0  0  0  0  0  0
  139.5240   70.0770  222.7250 N   0  0  0  0  0  0  0  0  0  0  0  0
  139.7280   69.9590  224.0640 C   0  0  0  0  0  0  0  0  0  0  0  0
  139.3680   68.8080  224.7580 C   0  0  0  0  0  0  0  0  0  0  0  0
  138.8390   67.8470  224.1310 O   0  0  0  0  0  0  0  0  0  0  0  0
  139.5970   68.7220  226.1060 N   0  0  0  0  0  0  0  0  0  0  0  0
  139.2530   67.4880  226.8320 C   0  0  0  0  0  0  0  0  0  0  0  0
  140.2230   69.7550  226.7650 C   0  0  0  0  0  0  0  0  0  0  0  0
  140.5010   69.6340  227.9930 O   0  0  0  0  0  0  0  0  0  0  0  0
  140.5540   70.9130  226.1030 N   0  0  0  0  0  0  0  0  0  0  0  0
  141.2300   72.0110  226.8170 C   0  0  0  0  0  0  0  0  0  0  0  0
  140.3270   71.0150  224.7570 C   0  0  0  0  0  0  0  0  0  0  0  0
  140.6880   72.1280  224.0620 N   0  0  0  0  0  0  0  0  0  0  0  0
  138.9480   74.9040  222.2700 C   0  0  0  0  0  0  0  0  0  0  0  0
  139.1050   76.4330  222.1300 C   0  0  0  0  0  0  0  0  0  0  0  0
  139.7213   78.7630  219.7323 H   0  0  0  0  0  0  0  0  0  0  0  0
  140.9898   79.9429  219.2576 H   0  0  0  0  0  0  0  0  0  0  0  0
  141.3542   78.1840  219.2576 H   0  0  0  0  0  0  0  0  0  0  0  0
  141.9704   81.1171  220.9872 H   0  0  0  0  0  0  0  0  0  0  0  0
  142.6993   81.3020  223.3652 H   0  0  0  0  0  0  0  0  0  0  0  0
  142.3744   79.3834  224.9266 H   0  0  0  0  0  0  0  0  0  0  0  0
  141.3186   77.2751  224.1140 H   0  0  0  0  0  0  0  0  0  0  0  0
  140.9848   76.8087  219.6144 H   0  0  0  0  0  0  0  0  0  0  0  0
  142.0123   75.7835  220.6880 H   0  0  0  0  0  0  0  0  0  0  0  0
  139.2320   75.2102  219.5867 H   0  0  0  0  0  0  0  0  0  0  0  0
  140.7504   74.2263  219.4599 H   0  0  0  0  0  0  0  0  0  0  0  0
  141.6364   73.1468  221.2097 H   0  0  0  0  0  0  0  0  0  0  0  0
  141.3422   74.1484  222.6906 H   0  0  0  0  0  0  0  0  0  0  0  0
  139.3047   67.6733  227.9151 H   0  0  0  0  0  0  0  0  0  0  0  0
  138.2335   67.1756  226.5617 H   0  0  0  0  0  0  0  0  0  0  0  0
  139.9639   66.6933  226.5617 H   0  0  0  0  0  0  0  0  0  0  0  0
  141.1348   71.8563  227.9019 H   0  0  0  0  0  0  0  0  0  0  0  0
  142.2947   72.0272  226.5410 H   0  0  0  0  0  0  0  0  0  0  0  0
  140.7650   72.9689  226.5410 H   0  0  0  0  0  0  0  0  0  0  0  0
  137.8881   74.6525  222.1169 H   0  0  0  0  0  0  0  0  0  0  0  0
  139.3125   74.6439  223.2748 H   0  0  0  0  0  0  0  0  0  0  0  0
  138.3528   76.8075  221.4202 H   0  0  0  0  0  0  0  0  0  0  0  0
  138.9644   76.8900  223.1207 H   0  0  0  0  0  0  0  0  0  0  0  0
  1  2  1  0
  2  3  2  0
  3  4  1  0
  4  5  2  0
  5  6  1  0
  6  7  2  0
  7  8  1  0
  8  9  1  0
  9 10  1  0
 10 11  1  0
 11 12  1  0
 12 13  1  0
 13 14  2  0
 14 15  1  0
 15 16  2  0
 16 17  1  0
 17 18  2  0
 17 19  1  0
 19 20  1  0
 19 21  1  0
 21 22  2  0
 21 23  1  0
 23 24  1  0
 23 25  1  0
 25 26  2  0
 11 27  1  0
 27 28  1  0
  7  2  1  0
 28  8  1  0
 26 13  1  0
 25 16  1  0
  1 29  1  0
  1 30  1  0
  1 31  1  0
  3 32  1  0
  4 33  1  0
  5 34  1  0
  6 35  1  0
  9 36  1  0
  9 37  1  0
 10 38  1  0
 10 39  1  0
 12 40  1  0
 12 41  1  0
 20 42  1  0
 20 43  1  0
 20 44  1  0
 24 45  1  0
 24 46  1  0
 24 47  1  0
 27 48  1  0
 27 49  1  0
 28 50  1  0
 28 51  1  0
M  END
>  <UniqueID>  (59) 
22

>  <SMILES>  (59) 
Cc1ccccc1N1CCN(Cc2nnc3c(=O)n(C)c(=O)n(C)c3n2)CC1

>  <Energy>  (59) 
78.74029483597874

>  <Genealogy>  (59) 
Cc1ccccc1N1CCN(Cc2nnc3c(=O)n(C)c(=O)n(C)c3n2)CC1 (3D coordinates assigned)
Cc1ccccc1N1CCN(Cc2nnc3c(=O)n(C)c(=O)n(C)c3n2)CC1 (nonaromatic ring conformer: 78.74029483597874 kcal/mol)

>  <smiles>  (59) 
Cc1ccccc1N1CCN(Cc2nnc3c(=O)n(C)c(=O)n(C)c3n2)CC1

>  <score_type>  (59) 
oracle

>  <origin>  (59) 
autodockgpu

>  <m_score__min__energy>  (59) 
-7.6600000000000001

>  <m_primary>  (59) 
energy

>  <meeko>  (59) 
{"free_energy": -7.55, "intermolecular_energy": -8.45, "internal_energy": -0.56, "cluster_size": 6, "cluster_id": 2, "rank_in_cluster": 1}

>  <energy>  (59) 
-6.65

>  <cluster_rmsd>  (59) 
0.71

>  <rmsd>  (59) 
269.74

>  <cluster>  (59) 
5

$$$$
IILOZLGKIKELDM-UHFFFAOYNA-N
     RDKit          3D

 51 54  0  0  0  0  0  0  0  0999 V2000
  142.3540   75.0960  220.0970 C   0  0  0  0  0  0  0  0  0  0  0  0
  143.6100   74.2720  220.1500 C   0  0  0  0  0  0  0  0  0  0  0  0
  144.8360   74.8840  220.4650 C   0  0  0  0  0  0  0  0  0  0  0  0
  146.0080   74.1260  220.5360 C   0  0  0  0  0  0  0  0  0  0  0  0
  145.9660   72.7500  220.3030 C   0  0  0  0  0  0  0  0  0  0  0  0
  144.7530   72.1280  220.0020 C   0  0  0  0  0  0  0  0  0  0  0  0
  143.5710   72.8790  219.9300 C   0  0  0  0  0  0  0  0  0  0  0  0
  142.3350   72.2180  219.6280 N   0  0  0  0  0  0  0  0  0  0  0  0
  141.8920   71.1210  220.4890 C   0  0  0  0  0  0  0  0  0  0  0  0
  140.5990   70.4970  219.9500 C   0  0  0  0  0  0  0  0  0  0  0  0
  139.6420   71.5280  219.4860 N   0  0  0  0  0  0  0  0  0  0  0  0
  139.0830   72.3500  220.5840 C   0  0  0  0  0  0  0  0  0  0  0  0
  139.5440   71.8640  221.9240 C   0  0  0  0  0  0  0  0  0  0  0  0
  140.2820   72.6700  222.7310 N   0  0  0  0  0  0  0  0  0  0  0  0
  140.6690   72.2590  223.9380 N   0  0  0  0  0  0  0  0  0  0  0  0
  140.3330   71.0250  224.3990 C   0  0  0  0  0  0  0  0  0  0  0  0
  140.7180   70.5880  225.6630 C   0  0  0  0  0  0  0  0  0  0  0  0
  141.3970   71.3560  226.4030 O   0  0  0  0  0  0  0  0  0  0  0  0
  140.3540   69.3410  226.0950 N   0  0  0  0  0  0  0  0  0  0  0  0
  140.7270   68.8950  227.4490 C   0  0  0  0  0  0  0  0  0  0  0  0
  139.5690   68.5370  225.3000 C   0  0  0  0  0  0  0  0  0  0  0  0
  139.1730   67.4200  225.7400 O   0  0  0  0  0  0  0  0  0  0  0  0
  139.2080   68.9380  224.0360 N   0  0  0  0  0  0  0  0  0  0  0  0
  138.3630   68.0740  223.1930 C   0  0  0  0  0  0  0  0  0  0  0  0
  139.5700   70.1810  223.5880 C   0  0  0  0  0  0  0  0  0  0  0  0
  139.1870   70.6280  222.3610 N   0  0  0  0  0  0  0  0  0  0  0  0
  140.1910   72.3730  218.3900 C   0  0  0  0  0  0  0  0  0  0  0  0
  141.7320   72.3970  218.3060 C   0  0  0  0  0  0  0  0  0  0  0  0
  142.0170   75.3171  221.1205 H   0  0  0  0  0  0  0  0  0  0  0  0
  142.5556   76.0379  219.5658 H   0  0  0  0  0  0  0  0  0  0  0  0
  141.5702   74.5360  219.5658 H   0  0  0  0  0  0  0  0  0  0  0  0
  144.8730   75.9665  220.6568 H   0  0  0  0  0  0  0  0  0  0  0  0
  146.9643   74.6139  220.7756 H   0  0  0  0  0  0  0  0  0  0  0  0
  146.8898   72.1553  220.3567 H   0  0  0  0  0  0  0  0  0  0  0  0
  144.7243   71.0435  219.8204 H   0  0  0  0  0  0  0  0  0  0  0  0
  142.6767   70.3510  220.5253 H   0  0  0  0  0  0  0  0  0  0  0  0
  141.6998   71.5179  221.4967 H   0  0  0  0  0  0  0  0  0  0  0  0
  140.8473   69.8363  219.1063 H   0  0  0  0  0  0  0  0  0  0  0  0
  140.1249   69.9337  220.7672 H   0  0  0  0  0  0  0  0  0  0  0  0
  139.4078   73.3925  220.4509 H   0  0  0  0  0  0  0  0  0  0  0  0
  137.9862   72.2735  220.5481 H   0  0  0  0  0  0  0  0  0  0  0  0
  140.2085   69.5150  228.1951 H   0  0  0  0  0  0  0  0  0  0  0  0
  140.4365   67.8423  227.5813 H   0  0  0  0  0  0  0  0  0  0  0  0
  141.8145   68.9947  227.5813 H   0  0  0  0  0  0  0  0  0  0  0  0
  137.7379   67.4348  223.8338 H   0  0  0  0  0  0  0  0  0  0  0  0
  137.7181   68.6991  222.5579 H   0  0  0  0  0  0  0  0  0  0  0  0
  139.0023   67.4431  222.5579 H   0  0  0  0  0  0  0  0  0  0  0  0
  139.8014   71.9912  217.4348 H   0  0  0  0  0  0  0  0  0  0  0  0
  139.8749   73.4046  218.6042 H   0  0  0  0  0  0  0  0  0  0  0  0
  142.0684   71.5848  217.6448 H   0  0  0  0  0  0  0  0  0  0  0  0
  142.0449   73.3739  217.9087 H   0  0  0  0  0  0  0  0  0  0  0  0
  1  2  1  0
  2  3  2  0
  3  4  1  0
  4  5  2  0
  5  6  1  0
  6  7  2  0
  7  8  1  0
  8  9  1  0
  9 10  1  0
 10 11  1  0
 11 12  1  0
 12 13  1  0
 13 14  2  0
 14 15  1  0
 15 16  2  0
 16 17  1  0
 17 18  2  0
 17 19  1  0
 19 20  1  0
 19 21  1  0
 21 22  2  0
 21 23  1  0
 23 24  1  0
 23 25  1  0
 25 26  2  0
 11 27  1  0
 27 28  1  0
  7  2  1  0
 28  8  1  0
 26 13  1  0
 25 16  1  0
  1 29  1  0
  1 30  1  0
  1 31  1  0
  3 32  1  0
  4 33  1  0
  5 34  1  0
  6 35  1  0
  9 36  1  0
  9 37  1  0
 10 38  1  0
 10 39  1  0
 12 40  1  0
 12 41  1  0
 20 42  1  0
 20 43  1  0
 20 44  1  0
 24 45  1  0
 24 46  1  0
 24 47  1  0
 27 48  1  0
 27 49  1  0
 28 50  1  0
 28 51  1  0
M  END
>  <UniqueID>  (60) 
22

>  <SMILES>  (60) 
Cc1ccccc1N1CCN(Cc2nnc3c(=O)n(C)c(=O)n(C)c3n2)CC1

>  <Energy>  (60) 
78.74029483597874

>  <Genealogy>  (60) 
Cc1ccccc1N1CCN(Cc2nnc3c(=O)n(C)c(=O)n(C)c3n2)CC1 (3D coordinates assigned)
Cc1ccccc1N1CCN(Cc2nnc3c(=O)n(C)c(=O)n(C)c3n2)CC1 (nonaromatic ring conformer: 78.74029483597874 kcal/mol)

>  <smiles>  (60) 
Cc1ccccc1N1CCN(Cc2nnc3c(=O)n(C)c(=O)n(C)c3n2)CC1

>  <score_type>  (60) 
oracle

>  <origin>  (60) 
autodockgpu

>  <m_score__min__energy>  (60) 
-7.6600000000000001

>  <m_primary>  (60) 
energy

>  <meeko>  (60) 
{"free_energy": -6.97, "intermolecular_energy": -7.86, "internal_energy": -0.76, "cluster_size": 1, "cluster_id": 3, "rank_in_cluster": 1}

>  <energy>  (60) 
-6.66

>  <cluster_rmsd>  (60) 
0.0

>  <rmsd>  (60) 
269.54

>  <cluster>  (60) 
6

$$$$
IILOZLGKIKELDM-DPVAGCSBNA-O
     RDKit          3D

 52 55  0  0  0  0  0  0  0  0999 V2000
  139.2180   68.4220  227.0850 C   0  0  0  0  0  0  0  0  0  0  0  0
  139.9020   69.7610  227.1060 C   0  0  0  0  0  0  0  0  0  0  0  0
  140.3940   70.2630  228.3230 C   0  0  0  0  0  0  0  0  0  0  0  0
  141.0390   71.5030  228.3680 C   0  0  0  0  0  0  0  0  0  0  0  0
  141.1910   72.2550  227.2030 C   0  0  0  0  0  0  0  0  0  0  0  0
  140.6920   71.7760  225.9900 C   0  0  0  0  0  0  0  0  0  0  0  0
  140.0320   70.5400  225.9340 C   0  0  0  0  0  0  0  0  0  0  0  0
  139.5110   70.0830  224.6770 N   0  0  0  0  0  0  0  0  0  0  0  0
  139.5750   68.6640  224.3330 C   0  0  0  0  0  0  0  0  0  0  0  0
  138.3360   68.3010  223.5130 C   0  0  0  0  0  0  0  0  0  0  0  0
  138.2010   69.1230  222.2770 N   0  0  0  0  0  0  0  0  0  0  0  0
  136.7820   69.2750  221.8600 C   0  0  0  0  0  0  0  0  0  0  0  0
  135.8400   69.5530  223.0040 C   0  0  0  0  0  0  0  0  0  0  0  0
  135.0850   68.5510  223.5270 N   0  0  0  0  0  0  0  0  0  0  0  0
  134.2110   68.7920  224.5050 N   0  0  0  0  0  0  0  0  0  0  0  0
  134.0480   70.0450  225.0040 C   0  0  0  0  0  0  0  0  0  0  0  0
  133.1320   70.3120  226.0170 C   0  0  0  0  0  0  0  0  0  0  0  0
  132.4190   69.3730  226.4720 O   0  0  0  0  0  0  0  0  0  0  0  0
  133.0120   71.5840  226.5120 N   0  0  0  0  0  0  0  0  0  0  0  0
  132.0300   71.8680  227.5730 C   0  0  0  0  0  0  0  0  0  0  0  0
  133.7540   72.6070  225.9700 C   0  0  0  0  0  0  0  0  0  0  0  0
  133.6160   73.7830  226.4130 O   0  0  0  0  0  0  0  0  0  0  0  0
  134.6450   72.3670  224.9510 N   0  0  0  0  0  0  0  0  0  0  0  0
  135.4570   73.4730  224.4110 C   0  0  0  0  0  0  0  0  0  0  0  0
  134.8160   71.0910  224.4840 C   0  0  0  0  0  0  0  0  0  0  0  0
  135.7040   70.8130  223.4930 N   0  0  0  0  0  0  0  0  0  0  0  0
  138.9460   70.4150  222.2880 C   0  0  0  0  0  0  0  0  0  0  0  0
  139.0470   71.0550  223.6840 C   0  0  0  0  0  0  0  0  0  0  0  0
  139.0446   68.0826  228.1169 H   0  0  0  0  0  0  0  0  0  0  0  0
  138.2547   68.5105  226.5614 H   0  0  0  0  0  0  0  0  0  0  0  0
  139.8543   67.6934  226.5614 H   0  0  0  0  0  0  0  0  0  0  0  0
  140.2710   69.6770  229.2457 H   0  0  0  0  0  0  0  0  0  0  0  0
  141.4270   71.8859  229.3234 H   0  0  0  0  0  0  0  0  0  0  0  0
  141.7048   73.2269  227.2399 H   0  0  0  0  0  0  0  0  0  0  0  0
  140.8173   72.3713  225.0736 H   0  0  0  0  0  0  0  0  0  0  0  0
  140.4811   68.4673  223.7411 H   0  0  0  0  0  0  0  0  0  0  0  0
  139.6080   68.0575  225.2501 H   0  0  0  0  0  0  0  0  0  0  0  0
  138.4030   67.2415  223.2250 H   0  0  0  0  0  0  0  0  0  0  0  0
  137.4540   68.4981  224.1401 H   0  0  0  0  0  0  0  0  0  0  0  0
  138.6430   68.5550  221.5130 H   0  0  0  0  0  0  0  0  0  0  0  0
  136.7173   70.1096  221.1464 H   0  0  0  0  0  0  0  0  0  0  0  0
  136.4735   68.3173  221.4153 H   0  0  0  0  0  0  0  0  0  0  0  0
  132.5031   71.7312  228.5566 H   0  0  0  0  0  0  0  0  0  0  0  0
  131.6764   72.9052  227.4773 H   0  0  0  0  0  0  0  0  0  0  0  0
  131.1774   71.1796  227.4773 H   0  0  0  0  0  0  0  0  0  0  0  0
  135.8837   74.0542  225.2418 H   0  0  0  0  0  0  0  0  0  0  0  0
  136.2705   73.0634  223.7942 H   0  0  0  0  0  0  0  0  0  0  0  0
  134.8226   74.1265  223.7942 H   0  0  0  0  0  0  0  0  0  0  0  0
  139.9644   70.2326  221.9144 H   0  0  0  0  0  0  0  0  0  0  0  0
  138.3865   71.1159  221.6511 H   0  0  0  0  0  0  0  0  0  0  0  0
  139.7567   71.8945  223.6440 H   0  0  0  0  0  0  0  0  0  0  0  0
  138.0479   71.4074  223.9801 H   0  0  0  0  0  0  0  0  0  0  0  0
  1  2  1  0
  2  3  2  0
  3  4  1  0
  4  5  2  0
  5  6  1  0
  6  7  2  0
  7  8  1  0
  8  9  1  0
  9 10  1  0
 10 11  1  0
 11 12  1  0
 12 13  1  0
 13 14  2  0
 14 15  1  0
 15 16  2  0
 16 17  1  0
 17 18  2  0
 17 19  1  0
 19 20  1  0
 19 21  1  0
 21 22  2  0
 21 23  1  0
 23 24  1  0
 23 25  1  0
 25 26  2  0
 11 27  1  0
 27 28  1  0
  7  2  1  0
 28  8  1  0
 26 13  1  0
 25 16  1  0
  1 29  1  0
  1 30  1  0
  1 31  1  0
  3 32  1  0
  4 33  1  0
  5 34  1  0
  6 35  1  0
  9 36  1  0
  9 37  1  0
 10 38  1  0
 10 39  1  0
 11 40  1  0
 12 41  1  0
 12 42  1  0
 20 43  1  0
 20 44  1  0
 20 45  1  0
 24 46  1  0
 24 47  1  0
 24 48  1  0
 27 49  1  0
 27 50  1  0
 28 51  1  0
 28 52  1  0
M  CHG  1  11   1
M  END
>  <UniqueID>  (61) 
23

>  <SMILES>  (61) 
Cc1ccccc1N1CC[NH+](Cc2nnc3c(=O)n(C)c(=O)n(C)c3n2)CC1

>  <Energy>  (61) 
79.06138861380086

>  <Genealogy>  (61) 
Cc1ccccc1N1CC[NH+](Cc2nnc3c(=O)n(C)c(=O)n(C)c3n2)CC1 (protonated)
Cc1ccccc1N1CC[NH+](Cc2nnc3c(=O)n(C)c(=O)n(C)c3n2)CC1 (3D coordinates assigned)
Cc1ccccc1N1CC[NH+](Cc2nnc3c(=O)n(C)c(=O)n(C)c3n2)CC1 (nonaromatic ring conformer: 79.06138861380086 kcal/mol)

>  <smiles>  (61) 
Cc1ccccc1N1CCN(Cc2nnc3c(=O)n(C)c(=O)n(C)c3n2)CC1

>  <score_type>  (61) 
oracle

>  <origin>  (61) 
autodockgpu

>  <m_score__min__energy>  (61) 
-7.54

>  <m_primary>  (61) 
energy

>  <meeko>  (61) 
{"free_energy": -7.48, "intermolecular_energy": -8.37, "internal_energy": -0.61, "cluster_size": 10, "cluster_id": 1, "rank_in_cluster": 2}

>  <energy>  (61) 
-7.54

>  <cluster_rmsd>  (61) 
0.0

>  <rmsd>  (61) 
270.86

>  <cluster>  (61) 
1

$$$$
IILOZLGKIKELDM-DPVAGCSBNA-O
     RDKit          3D

 52 55  0  0  0  0  0  0  0  0999 V2000
  139.2340   68.4690  227.0770 C   0  0  0  0  0  0  0  0  0  0  0  0
  139.9150   69.8090  227.0940 C   0  0  0  0  0  0  0  0  0  0  0  0
  140.4070   70.3160  228.3080 C   0  0  0  0  0  0  0  0  0  0  0  0
  141.0490   71.5570  228.3490 C   0  0  0  0  0  0  0  0  0  0  0  0
  141.2000   72.3060  227.1820 C   0  0  0  0  0  0  0  0  0  0  0  0
  140.7000   71.8230  225.9710 C   0  0  0  0  0  0  0  0  0  0  0  0
  140.0430   70.5850  225.9190 C   0  0  0  0  0  0  0  0  0  0  0  0
  139.5220   70.1230  224.6640 N   0  0  0  0  0  0  0  0  0  0  0  0
  139.5900   68.7040  224.3230 C   0  0  0  0  0  0  0  0  0  0  0  0
  138.3510   68.3340  223.5060 C   0  0  0  0  0  0  0  0  0  0  0  0
  138.2120   69.1530  222.2670 N   0  0  0  0  0  0  0  0  0  0  0  0
  136.7920   69.2990  221.8520 C   0  0  0  0  0  0  0  0  0  0  0  0
  135.8510   69.5770  222.9960 C   0  0  0  0  0  0  0  0  0  0  0  0
  135.0970   68.5740  223.5200 N   0  0  0  0  0  0  0  0  0  0  0  0
  134.2240   68.8140  224.4980 N   0  0  0  0  0  0  0  0  0  0  0  0
  134.0590   70.0670  224.9970 C   0  0  0  0  0  0  0  0  0  0  0  0
  133.1440   70.3330  226.0110 C   0  0  0  0  0  0  0  0  0  0  0  0
  132.4320   69.3930  226.4660 O   0  0  0  0  0  0  0  0  0  0  0  0
  133.0220   71.6050  226.5060 N   0  0  0  0  0  0  0  0  0  0  0  0
  132.0400   71.8870  227.5670 C   0  0  0  0  0  0  0  0  0  0  0  0
  133.7630   72.6290  225.9630 C   0  0  0  0  0  0  0  0  0  0  0  0
  133.6230   73.8040  226.4060 O   0  0  0  0  0  0  0  0  0  0  0  0
  134.6540   72.3890  224.9440 N   0  0  0  0  0  0  0  0  0  0  0  0
  135.4640   73.4960  224.4030 C   0  0  0  0  0  0  0  0  0  0  0  0
  134.8260   71.1140  224.4770 C   0  0  0  0  0  0  0  0  0  0  0  0
  135.7140   70.8370  223.4850 N   0  0  0  0  0  0  0  0  0  0  0  0
  138.9530   70.4480  222.2750 C   0  0  0  0  0  0  0  0  0  0  0  0
  139.0540   71.0910  223.6690 C   0  0  0  0  0  0  0  0  0  0  0  0
  139.0626   68.1317  228.1099 H   0  0  0  0  0  0  0  0  0  0  0  0
  138.2699   68.5543  226.5543 H   0  0  0  0  0  0  0  0  0  0  0  0
  139.8712   67.7405  226.5543 H   0  0  0  0  0  0  0  0  0  0  0  0
  140.2863   69.7326  229.2327 H   0  0  0  0  0  0  0  0  0  0  0  0
  141.4359   71.9437  229.3034 H   0  0  0  0  0  0  0  0  0  0  0  0
  141.7135   73.2782  227.2157 H   0  0  0  0  0  0  0  0  0  0  0  0
  140.8221   72.4166  225.0530 H   0  0  0  0  0  0  0  0  0  0  0  0
  140.4957   68.5092  223.7300 H   0  0  0  0  0  0  0  0  0  0  0  0
  139.6263   68.1000  225.2416 H   0  0  0  0  0  0  0  0  0  0  0  0
  138.4213   67.2739  223.2209 H   0  0  0  0  0  0  0  0  0  0  0  0
  137.4690   68.5292  224.1337 H   0  0  0  0  0  0  0  0  0  0  0  0
  138.6550   68.5850  221.5050 H   0  0  0  0  0  0  0  0  0  0  0  0
  136.7234   70.1313  221.1361 H   0  0  0  0  0  0  0  0  0  0  0  0
  136.4862   68.3389  221.4108 H   0  0  0  0  0  0  0  0  0  0  0  0
  132.5136   71.7510  228.5505 H   0  0  0  0  0  0  0  0  0  0  0  0
  131.6844   72.9236  227.4714 H   0  0  0  0  0  0  0  0  0  0  0  0
  131.1886   71.1970  227.4714 H   0  0  0  0  0  0  0  0  0  0  0  0
  135.8901   74.0784  225.2332 H   0  0  0  0  0  0  0  0  0  0  0  0
  136.2779   73.0874  223.7861 H   0  0  0  0  0  0  0  0  0  0  0  0
  134.8282   74.1481  223.7861 H   0  0  0  0  0  0  0  0  0  0  0  0
  139.9715   70.2682  221.9003 H   0  0  0  0  0  0  0  0  0  0  0  0
  138.3900   71.1458  221.6378 H   0  0  0  0  0  0  0  0  0  0  0  0
  139.7612   71.9324  223.6261 H   0  0  0  0  0  0  0  0  0  0  0  0
  138.0542   71.4409  223.9655 H   0  0  0  0  0  0  0  0  0  0  0  0
  1  2  1  0
  2  3  2  0
  3  4  1  0
  4  5  2  0
  5  6  1  0
  6  7  2  0
  7  8  1  0
  8  9  1  0
  9 10  1  0
 10 11  1  0
 11 12  1  0
 12 13  1  0
 13 14  2  0
 14 15  1  0
 15 16  2  0
 16 17  1  0
 17 18  2  0
 17 19  1  0
 19 20  1  0
 19 21  1  0
 21 22  2  0
 21 23  1  0
 23 24  1  0
 23 25  1  0
 25 26  2  0
 11 27  1  0
 27 28  1  0
  7  2  1  0
 28  8  1  0
 26 13  1  0
 25 16  1  0
  1 29  1  0
  1 30  1  0
  1 31  1  0
  3 32  1  0
  4 33  1  0
  5 34  1  0
  6 35  1  0
  9 36  1  0
  9 37  1  0
 10 38  1  0
 10 39  1  0
 11 40  1  0
 12 41  1  0
 12 42  1  0
 20 43  1  0
 20 44  1  0
 20 45  1  0
 24 46  1  0
 24 47  1  0
 24 48  1  0
 27 49  1  0
 27 50  1  0
 28 51  1  0
 28 52  1  0
M  CHG  1  11   1
M  END
>  <UniqueID>  (62) 
23

>  <SMILES>  (62) 
Cc1ccccc1N1CC[NH+](Cc2nnc3c(=O)n(C)c(=O)n(C)c3n2)CC1

>  <Energy>  (62) 
79.06138861380086

>  <Genealogy>  (62) 
Cc1ccccc1N1CC[NH+](Cc2nnc3c(=O)n(C)c(=O)n(C)c3n2)CC1 (protonated)
Cc1ccccc1N1CC[NH+](Cc2nnc3c(=O)n(C)c(=O)n(C)c3n2)CC1 (3D coordinates assigned)
Cc1ccccc1N1CC[NH+](Cc2nnc3c(=O)n(C)c(=O)n(C)c3n2)CC1 (nonaromatic ring conformer: 79.06138861380086 kcal/mol)

>  <smiles>  (62) 
Cc1ccccc1N1CCN(Cc2nnc3c(=O)n(C)c(=O)n(C)c3n2)CC1

>  <score_type>  (62) 
oracle

>  <origin>  (62) 
autodockgpu

>  <m_score__min__energy>  (62) 
-7.54

>  <m_primary>  (62) 
energy

>  <meeko>  (62) 
{"free_energy": -7.47, "intermolecular_energy": -8.37, "internal_energy": -0.62, "cluster_size": 10, "cluster_id": 1, "rank_in_cluster": 4}

>  <energy>  (62) 
-7.48

>  <cluster_rmsd>  (62) 
0.21

>  <rmsd>  (62) 
270.75

>  <cluster>  (62) 
1

$$$$
IILOZLGKIKELDM-DPVAGCSBNA-O
     RDKit          3D

 52 55  0  0  0  0  0  0  0  0999 V2000
  137.3100   77.8530  222.3920 C   0  0  0  0  0  0  0  0  0  0  0  0
  138.7560   78.1070  222.7150 C   0  0  0  0  0  0  0  0  0  0  0  0
  139.1130   79.2890  223.3860 C   0  0  0  0  0  0  0  0  0  0  0  0
  140.4500   79.5460  223.7040 C   0  0  0  0  0  0  0  0  0  0  0  0
  141.4420   78.6320  223.3480 C   0  0  0  0  0  0  0  0  0  0  0  0
  141.1040   77.4620  222.6660 C   0  0  0  0  0  0  0  0  0  0  0  0
  139.7680   77.1980  222.3310 C   0  0  0  0  0  0  0  0  0  0  0  0
  139.4520   75.9970  221.6110 N   0  0  0  0  0  0  0  0  0  0  0  0
  139.5860   75.9600  220.1560 C   0  0  0  0  0  0  0  0  0  0  0  0
  140.0340   74.5590  219.7390 C   0  0  0  0  0  0  0  0  0  0  0  0
  139.0960   73.4930  220.1950 N   0  0  0  0  0  0  0  0  0  0  0  0
  139.7870   72.1930  220.4030 C   0  0  0  0  0  0  0  0  0  0  0  0
  139.9120   71.7980  221.8520 C   0  0  0  0  0  0  0  0  0  0  0  0
  140.5390   72.6210  222.7340 N   0  0  0  0  0  0  0  0  0  0  0  0
  140.7010   72.2630  224.0080 N   0  0  0  0  0  0  0  0  0  0  0  0
  140.2490   71.0650  224.4610 C   0  0  0  0  0  0  0  0  0  0  0  0
  140.4210   70.6740  225.7850 C   0  0  0  0  0  0  0  0  0  0  0  0
  141.0310   71.4400  226.5820 O   0  0  0  0  0  0  0  0  0  0  0  0
  139.9300   69.4680  226.2110 N   0  0  0  0  0  0  0  0  0  0  0  0
  140.1290   69.0490  227.6090 C   0  0  0  0  0  0  0  0  0  0  0  0
  139.3170   68.6190  225.3190 C   0  0  0  0  0  0  0  0  0  0  0  0
  138.8940   67.4960  225.7140 O   0  0  0  0  0  0  0  0  0  0  0  0
  139.1610   68.9770  224.0010 N   0  0  0  0  0  0  0  0  0  0  0  0
  138.4680   68.0670  223.0710 C   0  0  0  0  0  0  0  0  0  0  0  0
  139.5980   70.2030  223.5730 C   0  0  0  0  0  0  0  0  0  0  0  0
  139.4400   70.5990  222.2810 N   0  0  0  0  0  0  0  0  0  0  0  0
  138.2100   73.8720  221.3350 C   0  0  0  0  0  0  0  0  0  0  0  0
  138.8620   74.8590  222.3200 C   0  0  0  0  0  0  0  0  0  0  0  0
  136.7378   77.7525  223.3261 H   0  0  0  0  0  0  0  0  0  0  0  0
  136.9116   78.6949  221.8068 H   0  0  0  0  0  0  0  0  0  0  0  0
  137.2224   76.9257  221.8068 H   0  0  0  0  0  0  0  0  0  0  0  0
  138.3357   80.0165  223.6628 H   0  0  0  0  0  0  0  0  0  0  0  0
  140.7201   80.4703  224.2357 H   0  0  0  0  0  0  0  0  0  0  0  0
  142.4923   78.8337  223.6052 H   0  0  0  0  0  0  0  0  0  0  0  0
  141.8896   76.7433  222.3899 H   0  0  0  0  0  0  0  0  0  0  0  0
  138.6175   76.1929  219.6893 H   0  0  0  0  0  0  0  0  0  0  0  0
  140.3286   76.7029  219.8296 H   0  0  0  0  0  0  0  0  0  0  0  0
  140.1001   74.5232  218.6416 H   0  0  0  0  0  0  0  0  0  0  0  0
  141.0082   74.3680  220.2127 H   0  0  0  0  0  0  0  0  0  0  0  0
  138.4490   73.3250  219.3860 H   0  0  0  0  0  0  0  0  0  0  0  0
  139.2201   71.4104  219.8775 H   0  0  0  0  0  0  0  0  0  0  0  0
  140.8087   72.3060  220.0115 H   0  0  0  0  0  0  0  0  0  0  0  0
  139.7562   69.8338  228.2836 H   0  0  0  0  0  0  0  0  0  0  0  0
  139.5784   68.1148  227.7937 H   0  0  0  0  0  0  0  0  0  0  0  0
  141.2010   68.8855  227.7937 H   0  0  0  0  0  0  0  0  0  0  0  0
  137.8993   67.3202  223.6444 H   0  0  0  0  0  0  0  0  0  0  0  0
  137.7793   68.6451  222.4373 H   0  0  0  0  0  0  0  0  0  0  0  0
  139.2084   67.5568  222.4373 H   0  0  0  0  0  0  0  0  0  0  0  0
  137.2996   74.3367  220.9284 H   0  0  0  0  0  0  0  0  0  0  0  0
  137.9945   72.9509  221.8963 H   0  0  0  0  0  0  0  0  0  0  0  0
  138.0967   75.2282  223.0185 H   0  0  0  0  0  0  0  0  0  0  0  0
  139.6604   74.3339  222.8647 H   0  0  0  0  0  0  0  0  0  0  0  0
  1  2  1  0
  2  3  2  0
  3  4  1  0
  4  5  2  0
  5  6  1  0
  6  7  2  0
  7  8  1  0
  8  9  1  0
  9 10  1  0
 10 11  1  0
 11 12  1  0
 12 13  1  0
 13 14  2  0
 14 15  1  0
 15 16  2  0
 16 17  1  0
 17 18  2  0
 17 19  1  0
 19 20  1  0
 19 21  1  0
 21 22  2  0
 21 23  1  0
 23 24  1  0
 23 25  1  0
 25 26  2  0
 11 27  1  0
 27 28  1  0
  7  2  1  0
 28  8  1  0
 26 13  1  0
 25 16  1  0
  1 29  1  0
  1 30  1  0
  1 31  1  0
  3 32  1  0
  4 33  1  0
  5 34  1  0
  6 35  1  0
  9 36  1  0
  9 37  1  0
 10 38  1  0
 10 39  1  0
 11 40  1  0
 12 41  1  0
 12 42  1  0
 20 43  1  0
 20 44  1  0
 20 45  1  0
 24 46  1  0
 24 47  1  0
 24 48  1  0
 27 49  1  0
 27 50  1  0
 28 51  1  0
 28 52  1  0
M  CHG  1  11   1
M  END
>  <UniqueID>  (63) 
23

>  <SMILES>  (63) 
Cc1ccccc1N1CC[NH+](Cc2nnc3c(=O)n(C)c(=O)n(C)c3n2)CC1

>  <Energy>  (63) 
79.06138861380086

>  <Genealogy>  (63) 
Cc1ccccc1N1CC[NH+](Cc2nnc3c(=O)n(C)c(=O)n(C)c3n2)CC1 (protonated)
Cc1ccccc1N1CC[NH+](Cc2nnc3c(=O)n(C)c(=O)n(C)c3n2)CC1 (3D coordinates assigned)
Cc1ccccc1N1CC[NH+](Cc2nnc3c(=O)n(C)c(=O)n(C)c3n2)CC1 (nonaromatic ring conformer: 79.06138861380086 kcal/mol)

>  <smiles>  (63) 
Cc1ccccc1N1CCN(Cc2nnc3c(=O)n(C)c(=O)n(C)c3n2)CC1

>  <score_type>  (63) 
oracle

>  <origin>  (63) 
autodockgpu

>  <m_score__min__energy>  (63) 
-7.54

>  <m_primary>  (63) 
energy

>  <meeko>  (63) 
{"free_energy": -7.08, "intermolecular_energy": -7.97, "internal_energy": -0.69, "cluster_size": 7, "cluster_id": 2, "rank_in_cluster": 1}

>  <energy>  (63) 
-7.48

>  <cluster_rmsd>  (63) 
0.17

>  <rmsd>  (63) 
270.78

>  <cluster>  (63) 
1

$$$$
IILOZLGKIKELDM-DPVAGCSBNA-O
     RDKit          3D

 52 55  0  0  0  0  0  0  0  0999 V2000
  137.3930   78.5340  222.5450 C   0  0  0  0  0  0  0  0  0  0  0  0
  138.8670   78.5670  222.8420 C   0  0  0  0  0  0  0  0  0  0  0  0
  139.4010   79.6590  223.5460 C   0  0  0  0  0  0  0  0  0  0  0  0
  140.7670   79.7110  223.8400 C   0  0  0  0  0  0  0  0  0  0  0  0
  141.6120   78.6790  223.4280 C   0  0  0  0  0  0  0  0  0  0  0  0
  141.0960   77.5970  222.7130 C   0  0  0  0  0  0  0  0  0  0  0  0
  139.7310   77.5390  222.4010 C   0  0  0  0  0  0  0  0  0  0  0  0
  139.2330   76.4230  221.6470 N   0  0  0  0  0  0  0  0  0  0  0  0
  139.2130   76.4790  220.1870 C   0  0  0  0  0  0  0  0  0  0  0  0
  139.4840   75.0780  219.6370 C   0  0  0  0  0  0  0  0  0  0  0  0
  138.5030   74.0670  220.1250 N   0  0  0  0  0  0  0  0  0  0  0  0
  139.0870   72.7010  220.1770 C   0  0  0  0  0  0  0  0  0  0  0  0
  139.4580   72.2520  221.5660 C   0  0  0  0  0  0  0  0  0  0  0  0
  140.3030   73.0000  222.3240 N   0  0  0  0  0  0  0  0  0  0  0  0
  140.6790   72.5910  223.5360 N   0  0  0  0  0  0  0  0  0  0  0  0
  140.2340   71.4140  224.0470 C   0  0  0  0  0  0  0  0  0  0  0  0
  140.6270   70.9700  225.3050 C   0  0  0  0  0  0  0  0  0  0  0  0
  141.4350   71.6660  225.9830 O   0  0  0  0  0  0  0  0  0  0  0  0
  140.1380   69.7880  225.7970 N   0  0  0  0  0  0  0  0  0  0  0  0
  140.5690   69.3120  227.1230 C   0  0  0  0  0  0  0  0  0  0  0  0
  139.3030   69.0140  225.0260 C   0  0  0  0  0  0  0  0  0  0  0  0
  138.8800   67.9110  225.4760 O   0  0  0  0  0  0  0  0  0  0  0  0
  138.9240   69.4240  223.7700 N   0  0  0  0  0  0  0  0  0  0  0  0
  137.9990   68.5940  222.9760 C   0  0  0  0  0  0  0  0  0  0  0  0
  139.3610   70.6290  223.2870 C   0  0  0  0  0  0  0  0  0  0  0  0
  138.9890   71.0760  222.0580 N   0  0  0  0  0  0  0  0  0  0  0  0
  137.7770   74.4380  221.3750 C   0  0  0  0  0  0  0  0  0  0  0  0
  138.6150   75.2920  222.3430 C   0  0  0  0  0  0  0  0  0  0  0  0
  136.8289   78.5214  223.4893 H   0  0  0  0  0  0  0  0  0  0  0  0
  137.1159   79.4262  221.9643 H   0  0  0  0  0  0  0  0  0  0  0  0
  137.1561   77.6303  221.9643 H   0  0  0  0  0  0  0  0  0  0  0  0
  138.7408   80.4779  223.8678 H   0  0  0  0  0  0  0  0  0  0  0  0
  141.1765   80.5666  224.3969 H   0  0  0  0  0  0  0  0  0  0  0  0
  142.6850   78.7185  223.6669 H   0  0  0  0  0  0  0  0  0  0  0  0
  141.7649   76.7847  222.3924 H   0  0  0  0  0  0  0  0  0  0  0  0
  138.2275   76.8268  219.8437 H   0  0  0  0  0  0  0  0  0  0  0  0
  139.9840   77.1770  219.8289 H   0  0  0  0  0  0  0  0  0  0  0  0
  139.4334   75.1155  218.5388 H   0  0  0  0  0  0  0  0  0  0  0  0
  140.4798   74.7705  219.9889 H   0  0  0  0  0  0  0  0  0  0  0  0
  137.7640   74.0130  219.3830 H   0  0  0  0  0  0  0  0  0  0  0  0
  138.3508   71.9931  219.7685 H   0  0  0  0  0  0  0  0  0  0  0  0
  140.0165   72.7269  219.5893 H   0  0  0  0  0  0  0  0  0  0  0  0
  140.0498   69.8854  227.9050 H   0  0  0  0  0  0  0  0  0  0  0  0
  140.3237   68.2447  227.2270 H   0  0  0  0  0  0  0  0  0  0  0  0
  141.6553   69.4504  227.2270 H   0  0  0  0  0  0  0  0  0  0  0  0
  137.3534   68.0147  223.6525 H   0  0  0  0  0  0  0  0  0  0  0  0
  137.3770   69.2426  222.3416 H   0  0  0  0  0  0  0  0  0  0  0  0
  138.5766   67.9056  222.3416 H   0  0  0  0  0  0  0  0  0  0  0  0
  136.8771   75.0072  221.0988 H   0  0  0  0  0  0  0  0  0  0  0  0
  137.5348   73.5010  221.8979 H   0  0  0  0  0  0  0  0  0  0  0  0
  137.9626   75.6745  223.1418 H   0  0  0  0  0  0  0  0  0  0  0  0
  139.4126   74.6623  222.7642 H   0  0  0  0  0  0  0  0  0  0  0  0
  1  2  1  0
  2  3  2  0
  3  4  1  0
  4  5  2  0
  5  6  1  0
  6  7  2  0
  7  8  1  0
  8  9  1  0
  9 10  1  0
 10 11  1  0
 11 12  1  0
 12 13  1  0
 13 14  2  0
 14 15  1  0
 15 16  2  0
 16 17  1  0
 17 18  2  0
 17 19  1  0
 19 20  1  0
 19 21  1  0
 21 22  2  0
 21 23  1  0
 23 24  1  0
 23 25  1  0
 25 26  2  0
 11 27  1  0
 27 28  1  0
  7  2  1  0
 28  8  1  0
 26 13  1  0
 25 16  1  0
  1 29  1  0
  1 30  1  0
  1 31  1  0
  3 32  1  0
  4 33  1  0
  5 34  1  0
  6 35  1  0
  9 36  1  0
  9 37  1  0
 10 38  1  0
 10 39  1  0
 11 40  1  0
 12 41  1  0
 12 42  1  0
 20 43  1  0
 20 44  1  0
 20 45  1  0
 24 46  1  0
 24 47  1  0
 24 48  1  0
 27 49  1  0
 27 50  1  0
 28 51  1  0
 28 52  1  0
M  CHG  1  11   1
M  END
>  <UniqueID>  (64) 
23

>  <SMILES>  (64) 
Cc1ccccc1N1CC[NH+](Cc2nnc3c(=O)n(C)c(=O)n(C)c3n2)CC1

>  <Energy>  (64) 
79.06138861380086

>  <Genealogy>  (64) 
Cc1ccccc1N1CC[NH+](Cc2nnc3c(=O)n(C)c(=O)n(C)c3n2)CC1 (protonated)
Cc1ccccc1N1CC[NH+](Cc2nnc3c(=O)n(C)c(=O)n(C)c3n2)CC1 (3D coordinates assigned)
Cc1ccccc1N1CC[NH+](Cc2nnc3c(=O)n(C)c(=O)n(C)c3n2)CC1 (nonaromatic ring conformer: 79.06138861380086 kcal/mol)

>  <smiles>  (64) 
Cc1ccccc1N1CCN(Cc2nnc3c(=O)n(C)c(=O)n(C)c3n2)CC1

>  <score_type>  (64) 
oracle

>  <origin>  (64) 
autodockgpu

>  <m_score__min__energy>  (64) 
-7.54

>  <m_primary>  (64) 
energy

>  <meeko>  (64) 
{"free_energy": -7.02, "intermolecular_energy": -7.92, "internal_energy": -0.75, "cluster_size": 7, "cluster_id": 2, "rank_in_cluster": 3}

>  <energy>  (64) 
-7.47

>  <cluster_rmsd>  (64) 
0.19

>  <rmsd>  (64) 
270.76

>  <cluster>  (64) 
1

$$$$
IILOZLGKIKELDM-DPVAGCSBNA-O
     RDKit          3D

 52 55  0  0  0  0  0  0  0  0999 V2000
  139.2270   68.5060  227.0830 C   0  0  0  0  0  0  0  0  0  0  0  0
  139.9160   69.8420  227.1040 C   0  0  0  0  0  0  0  0  0  0  0  0
  140.4120   70.3400  228.3210 C   0  0  0  0  0  0  0  0  0  0  0  0
  141.0630   71.5760  228.3670 C   0  0  0  0  0  0  0  0  0  0  0  0
  141.2180   72.3290  227.2020 C   0  0  0  0  0  0  0  0  0  0  0  0
  140.7150   71.8540  225.9900 C   0  0  0  0  0  0  0  0  0  0  0  0
  140.0490   70.6220  225.9320 C   0  0  0  0  0  0  0  0  0  0  0  0
  139.5250   70.1680  224.6760 N   0  0  0  0  0  0  0  0  0  0  0  0
  139.5800   68.7490  224.3300 C   0  0  0  0  0  0  0  0  0  0  0  0
  138.3390   68.3930  223.5110 C   0  0  0  0  0  0  0  0  0  0  0  0
  138.2070   69.2170  222.2760 N   0  0  0  0  0  0  0  0  0  0  0  0
  136.7890   69.3780  221.8600 C   0  0  0  0  0  0  0  0  0  0  0  0
  135.8470   69.6410  223.0070 C   0  0  0  0  0  0  0  0  0  0  0  0
  135.1020   68.6290  223.5260 N   0  0  0  0  0  0  0  0  0  0  0  0
  134.2280   68.8560  224.5070 N   0  0  0  0  0  0  0  0  0  0  0  0
  134.0530   70.1050  225.0130 C   0  0  0  0  0  0  0  0  0  0  0  0
  133.1380   70.3580  226.0300 C   0  0  0  0  0  0  0  0  0  0  0  0
  132.4340   69.4090  226.4800 O   0  0  0  0  0  0  0  0  0  0  0  0
  133.0060   71.6260  226.5320 N   0  0  0  0  0  0  0  0  0  0  0  0
  132.0230   71.8940  227.5960 C   0  0  0  0  0  0  0  0  0  0  0  0
  133.7380   72.6590  225.9940 C   0  0  0  0  0  0  0  0  0  0  0  0
  133.5890   73.8310  226.4430 O   0  0  0  0  0  0  0  0  0  0  0  0
  134.6290   72.4330  224.9720 N   0  0  0  0  0  0  0  0  0  0  0  0
  135.4290   73.5490  224.4370 C   0  0  0  0  0  0  0  0  0  0  0  0
  134.8110   71.1610  224.4980 C   0  0  0  0  0  0  0  0  0  0  0  0
  135.7000   70.8970  223.5030 N   0  0  0  0  0  0  0  0  0  0  0  0
  138.9600   70.5050  222.2880 C   0  0  0  0  0  0  0  0  0  0  0  0
  139.0660   71.1440  223.6840 C   0  0  0  0  0  0  0  0  0  0  0  0
  139.0523   68.1673  228.1149 H   0  0  0  0  0  0  0  0  0  0  0  0
  138.2640   68.5983  226.5594 H   0  0  0  0  0  0  0  0  0  0  0  0
  139.8605   67.7749  226.5594 H   0  0  0  0  0  0  0  0  0  0  0  0
  140.2871   69.7534  229.2431 H   0  0  0  0  0  0  0  0  0  0  0  0
  141.4537   71.9558  229.3226 H   0  0  0  0  0  0  0  0  0  0  0  0
  141.7373   73.2980  227.2392 H   0  0  0  0  0  0  0  0  0  0  0  0
  140.8420   72.4502  225.0744 H   0  0  0  0  0  0  0  0  0  0  0  0
  140.4844   68.5478  223.7371 H   0  0  0  0  0  0  0  0  0  0  0  0
  139.6097   68.1417  225.2467 H   0  0  0  0  0  0  0  0  0  0  0  0
  138.4006   67.3335  223.2218 H   0  0  0  0  0  0  0  0  0  0  0  0
  137.4585   68.5936  224.1391 H   0  0  0  0  0  0  0  0  0  0  0  0
  138.6460   68.6480  221.5120 H   0  0  0  0  0  0  0  0  0  0  0  0
  136.7267   70.2231  221.1587 H   0  0  0  0  0  0  0  0  0  0  0  0
  136.4789   68.4277  221.4008 H   0  0  0  0  0  0  0  0  0  0  0  0
  132.5010   71.7637  228.5781 H   0  0  0  0  0  0  0  0  0  0  0  0
  131.6532   72.9257  227.5022 H   0  0  0  0  0  0  0  0  0  0  0  0
  131.1808   71.1927  227.5022 H   0  0  0  0  0  0  0  0  0  0  0  0
  135.8474   74.1327  225.2702 H   0  0  0  0  0  0  0  0  0  0  0  0
  136.2483   73.1504  223.8207 H   0  0  0  0  0  0  0  0  0  0  0  0
  134.7884   74.1970  223.8207 H   0  0  0  0  0  0  0  0  0  0  0  0
  139.9771   70.3167  221.9137 H   0  0  0  0  0  0  0  0  0  0  0  0
  138.4039   71.2096  221.6522 H   0  0  0  0  0  0  0  0  0  0  0  0
  139.7808   71.9791  223.6438 H   0  0  0  0  0  0  0  0  0  0  0  0
  138.0696   71.5029  223.9812 H   0  0  0  0  0  0  0  0  0  0  0  0
  1  2  1  0
  2  3  2  0
  3  4  1  0
  4  5  2  0
  5  6  1  0
  6  7  2  0
  7  8  1  0
  8  9  1  0
  9 10  1  0
 10 11  1  0
 11 12  1  0
 12 13  1  0
 13 14  2  0
 14 15  1  0
 15 16  2  0
 16 17  1  0
 17 18  2  0
 17 19  1  0
 19 20  1  0
 19 21  1  0
 21 22  2  0
 21 23  1  0
 23 24  1  0
 23 25  1  0
 25 26  2  0
 11 27  1  0
 27 28  1  0
  7  2  1  0
 28  8  1  0
 26 13  1  0
 25 16  1  0
  1 29  1  0
  1 30  1  0
  1 31  1  0
  3 32  1  0
  4 33  1  0
  5 34  1  0
  6 35  1  0
  9 36  1  0
  9 37  1  0
 10 38  1  0
 10 39  1  0
 11 40  1  0
 12 41  1  0
 12 42  1  0
 20 43  1  0
 20 44  1  0
 20 45  1  0
 24 46  1  0
 24 47  1  0
 24 48  1  0
 27 49  1  0
 27 50  1  0
 28 51  1  0
 28 52  1  0
M  CHG  1  11   1
M  END
>  <UniqueID>  (65) 
23

>  <SMILES>  (65) 
Cc1ccccc1N1CC[NH+](Cc2nnc3c(=O)n(C)c(=O)n(C)c3n2)CC1

>  <Energy>  (65) 
79.06138861380086

>  <Genealogy>  (65) 
Cc1ccccc1N1CC[NH+](Cc2nnc3c(=O)n(C)c(=O)n(C)c3n2)CC1 (protonated)
Cc1ccccc1N1CC[NH+](Cc2nnc3c(=O)n(C)c(=O)n(C)c3n2)CC1 (3D coordinates assigned)
Cc1ccccc1N1CC[NH+](Cc2nnc3c(=O)n(C)c(=O)n(C)c3n2)CC1 (nonaromatic ring conformer: 79.06138861380086 kcal/mol)

>  <smiles>  (65) 
Cc1ccccc1N1CCN(Cc2nnc3c(=O)n(C)c(=O)n(C)c3n2)CC1

>  <score_type>  (65) 
oracle

>  <origin>  (65) 
autodockgpu

>  <m_score__min__energy>  (65) 
-7.54

>  <m_primary>  (65) 
energy

>  <meeko>  (65) 
{"free_energy": -7.48, "intermolecular_energy": -8.37, "internal_energy": -0.61, "cluster_size": 10, "cluster_id": 1, "rank_in_cluster": 3}

>  <energy>  (65) 
-7.47

>  <cluster_rmsd>  (65) 
0.18

>  <rmsd>  (65) 
270.77

>  <cluster>  (65) 
1

$$$$
IILOZLGKIKELDM-DPVAGCSBNA-O
     RDKit          3D

 52 55  0  0  0  0  0  0  0  0999 V2000
  137.4240   78.5250  222.5810 C   0  0  0  0  0  0  0  0  0  0  0  0
  138.8990   78.4640  222.8630 C   0  0  0  0  0  0  0  0  0  0  0  0
  139.5070   79.5100  223.5780 C   0  0  0  0  0  0  0  0  0  0  0  0
  140.8760   79.4740  223.8580 C   0  0  0  0  0  0  0  0  0  0  0  0
  141.6520   78.3990  223.4220 C   0  0  0  0  0  0  0  0  0  0  0  0
  141.0640   77.3610  222.6970 C   0  0  0  0  0  0  0  0  0  0  0  0
  139.6950   77.3910  222.3980 C   0  0  0  0  0  0  0  0  0  0  0  0
  139.1220   76.3200  221.6330 N   0  0  0  0  0  0  0  0  0  0  0  0
  139.1960   76.3430  220.1740 C   0  0  0  0  0  0  0  0  0  0  0  0
  139.3420   74.9080  219.6660 C   0  0  0  0  0  0  0  0  0  0  0  0
  138.2280   74.0230  220.1090 N   0  0  0  0  0  0  0  0  0  0  0  0
  138.6530   72.6030  220.2200 C   0  0  0  0  0  0  0  0  0  0  0  0
  139.1230   72.2160  221.5980 C   0  0  0  0  0  0  0  0  0  0  0  0
  140.0110   73.0000  222.2630 N   0  0  0  0  0  0  0  0  0  0  0  0
  140.4750   72.6460  223.4620 N   0  0  0  0  0  0  0  0  0  0  0  0
  140.0750   71.4890  224.0520 C   0  0  0  0  0  0  0  0  0  0  0  0
  140.5580   71.1020  225.2980 C   0  0  0  0  0  0  0  0  0  0  0  0
  141.4050   71.8300  225.8880 O   0  0  0  0  0  0  0  0  0  0  0  0
  140.1140   69.9400  225.8730 N   0  0  0  0  0  0  0  0  0  0  0  0
  140.6390   69.5230  227.1840 C   0  0  0  0  0  0  0  0  0  0  0  0
  139.2340   69.1290  225.1950 C   0  0  0  0  0  0  0  0  0  0  0  0
  138.8520   68.0440  225.7200 O   0  0  0  0  0  0  0  0  0  0  0  0
  138.7660   69.4820  223.9520 N   0  0  0  0  0  0  0  0  0  0  0  0
  137.7950   68.6150  223.2600 C   0  0  0  0  0  0  0  0  0  0  0  0
  139.1580   70.6670  223.3890 C   0  0  0  0  0  0  0  0  0  0  0  0
  138.6980   71.0600  222.1710 N   0  0  0  0  0  0  0  0  0  0  0  0
  137.4740   74.5010  221.3050 C   0  0  0  0  0  0  0  0  0  0  0  0
  138.3420   75.2800  222.3090 C   0  0  0  0  0  0  0  0  0  0  0  0
  136.8697   78.5479  223.5309 H   0  0  0  0  0  0  0  0  0  0  0  0
  137.1985   79.4332  222.0029 H   0  0  0  0  0  0  0  0  0  0  0  0
  137.1242   77.6385  222.0029 H   0  0  0  0  0  0  0  0  0  0  0  0
  138.9016   80.3626  223.9195 H   0  0  0  0  0  0  0  0  0  0  0  0
  141.3426   80.2944  224.4230 H   0  0  0  0  0  0  0  0  0  0  0  0
  142.7277   78.3696  223.6498 H   0  0  0  0  0  0  0  0  0  0  0  0
  141.6790   76.5142  222.3583 H   0  0  0  0  0  0  0  0  0  0  0  0
  138.2777   76.7888  219.7641 H   0  0  0  0  0  0  0  0  0  0  0  0
  140.0600   76.9433  219.8527 H   0  0  0  0  0  0  0  0  0  0  0  0
  139.3617   74.9247  218.5663 H   0  0  0  0  0  0  0  0  0  0  0  0
  140.2746   74.5016  220.0845 H   0  0  0  0  0  0  0  0  0  0  0  0
  137.5330   74.0330  219.3230 H   0  0  0  0  0  0  0  0  0  0  0  0
  137.7992   71.9633  219.9522 H   0  0  0  0  0  0  0  0  0  0  0  0
  139.5076   72.4698  219.5404 H   0  0  0  0  0  0  0  0  0  0  0  0
  140.0467   69.9934  227.9827 H   0  0  0  0  0  0  0  0  0  0  0  0
  140.5726   68.4287  227.2744 H   0  0  0  0  0  0  0  0  0  0  0  0
  141.6899   69.8353  227.2744 H   0  0  0  0  0  0  0  0  0  0  0  0
  137.1904   68.0751  224.0036 H   0  0  0  0  0  0  0  0  0  0  0  0
  137.1369   69.2314  222.6300 H   0  0  0  0  0  0  0  0  0  0  0  0
  138.3332   67.8915  222.6300 H   0  0  0  0  0  0  0  0  0  0  0  0
  136.6614   75.1591  220.9637 H   0  0  0  0  0  0  0  0  0  0  0  0
  137.0981   73.6089  221.8274 H   0  0  0  0  0  0  0  0  0  0  0  0
  137.6896   75.7503  223.0594 H   0  0  0  0  0  0  0  0  0  0  0  0
  139.0380   74.5769  222.7898 H   0  0  0  0  0  0  0  0  0  0  0  0
  1  2  1  0
  2  3  2  0
  3  4  1  0
  4  5  2  0
  5  6  1  0
  6  7  2  0
  7  8  1  0
  8  9  1  0
  9 10  1  0
 10 11  1  0
 11 12  1  0
 12 13  1  0
 13 14  2  0
 14 15  1  0
 15 16  2  0
 16 17  1  0
 17 18  2  0
 17 19  1  0
 19 20  1  0
 19 21  1  0
 21 22  2  0
 21 23  1  0
 23 24  1  0
 23 25  1  0
 25 26  2  0
 11 27  1  0
 27 28  1  0
  7  2  1  0
 28  8  1  0
 26 13  1  0
 25 16  1  0
  1 29  1  0
  1 30  1  0
  1 31  1  0
  3 32  1  0
  4 33  1  0
  5 34  1  0
  6 35  1  0
  9 36  1  0
  9 37  1  0
 10 38  1  0
 10 39  1  0
 11 40  1  0
 12 41  1  0
 12 42  1  0
 20 43  1  0
 20 44  1  0
 20 45  1  0
 24 46  1  0
 24 47  1  0
 24 48  1  0
 27 49  1  0
 27 50  1  0
 28 51  1  0
 28 52  1  0
M  CHG  1  11   1
M  END
>  <UniqueID>  (66) 
23

>  <SMILES>  (66) 
Cc1ccccc1N1CC[NH+](Cc2nnc3c(=O)n(C)c(=O)n(C)c3n2)CC1

>  <Energy>  (66) 
79.06138861380086

>  <Genealogy>  (66) 
Cc1ccccc1N1CC[NH+](Cc2nnc3c(=O)n(C)c(=O)n(C)c3n2)CC1 (protonated)
Cc1ccccc1N1CC[NH+](Cc2nnc3c(=O)n(C)c(=O)n(C)c3n2)CC1 (3D coordinates assigned)
Cc1ccccc1N1CC[NH+](Cc2nnc3c(=O)n(C)c(=O)n(C)c3n2)CC1 (nonaromatic ring conformer: 79.06138861380086 kcal/mol)

>  <smiles>  (66) 
Cc1ccccc1N1CCN(Cc2nnc3c(=O)n(C)c(=O)n(C)c3n2)CC1

>  <score_type>  (66) 
oracle

>  <origin>  (66) 
autodockgpu

>  <m_score__min__energy>  (66) 
-7.54

>  <m_primary>  (66) 
energy

>  <meeko>  (66) 
{"free_energy": -6.92, "intermolecular_energy": -7.82, "internal_energy": -0.77, "cluster_size": 7, "cluster_id": 2, "rank_in_cluster": 7}

>  <energy>  (66) 
-7.46

>  <cluster_rmsd>  (66) 
0.2

>  <rmsd>  (66) 
270.74

>  <cluster>  (66) 
1

$$$$
IILOZLGKIKELDM-DPVAGCSBNA-O
     RDKit          3D

 52 55  0  0  0  0  0  0  0  0999 V2000
  139.2350   68.0570  225.7090 C   0  0  0  0  0  0  0  0  0  0  0  0
  139.8730   69.2850  226.2950 C   0  0  0  0  0  0  0  0  0  0  0  0
  140.4640   69.2130  227.5680 C   0  0  0  0  0  0  0  0  0  0  0  0
  141.0690   70.3390  228.1320 C   0  0  0  0  0  0  0  0  0  0  0  0
  141.0840   71.5490  227.4360 C   0  0  0  0  0  0  0  0  0  0  0  0
  140.4870   71.6390  226.1780 C   0  0  0  0  0  0  0  0  0  0  0  0
  139.8650   70.5200  225.6060 C   0  0  0  0  0  0  0  0  0  0  0  0
  139.2410   70.6480  224.3190 N   0  0  0  0  0  0  0  0  0  0  0  0
  137.8500   71.0850  224.2220 C   0  0  0  0  0  0  0  0  0  0  0  0
  137.6850   71.9220  222.9540 C   0  0  0  0  0  0  0  0  0  0  0  0
  138.0780   71.1830  221.7200 N   0  0  0  0  0  0  0  0  0  0  0  0
  138.5570   72.0980  220.6500 C   0  0  0  0  0  0  0  0  0  0  0  0
  138.9940   73.4480  221.1580 C   0  0  0  0  0  0  0  0  0  0  0  0
  140.2980   73.6710  221.4720 N   0  0  0  0  0  0  0  0  0  0  0  0
  140.6920   74.8440  221.9690 N   0  0  0  0  0  0  0  0  0  0  0  0
  139.8020   75.8480  222.1790 C   0  0  0  0  0  0  0  0  0  0  0  0
  140.1970   77.0740  222.7060 C   0  0  0  0  0  0  0  0  0  0  0  0
  141.4090   77.2520  223.0190 O   0  0  0  0  0  0  0  0  0  0  0  0
  139.2750   78.0720  222.8820 N   0  0  0  0  0  0  0  0  0  0  0  0
  139.6930   79.3620  223.4570 C   0  0  0  0  0  0  0  0  0  0  0  0
  137.9510   77.8450  222.5900 C   0  0  0  0  0  0  0  0  0  0  0  0
  137.1020   78.7620  222.7830 O   0  0  0  0  0  0  0  0  0  0  0  0
  137.5370   76.6330  222.0920 N   0  0  0  0  0  0  0  0  0  0  0  0
  136.1180   76.4260  221.7520 C   0  0  0  0  0  0  0  0  0  0  0  0
  138.4560   75.6440  221.8600 C   0  0  0  0  0  0  0  0  0  0  0  0
  138.0860   74.4400  221.3470 N   0  0  0  0  0  0  0  0  0  0  0  0
  138.9830   70.0180  221.9380 C   0  0  0  0  0  0  0  0  0  0  0  0
  139.9530   70.2040  223.1190 C   0  0  0  0  0  0  0  0  0  0  0  0
  138.8929   67.3985  226.5210 H   0  0  0  0  0  0  0  0  0  0  0  0
  138.3756   68.3509  225.0885 H   0  0  0  0  0  0  0  0  0  0  0  0
  139.9696   67.5227  225.0885 H   0  0  0  0  0  0  0  0  0  0  0  0
  140.4502   68.2639  228.1240 H   0  0  0  0  0  0  0  0  0  0  0  0
  141.5344   70.2719  229.1264 H   0  0  0  0  0  0  0  0  0  0  0  0
  141.5668   72.4322  227.8796 H   0  0  0  0  0  0  0  0  0  0  0  0
  140.5044   72.5936  225.6317 H   0  0  0  0  0  0  0  0  0  0  0  0
  137.1890   70.2071  224.1743 H   0  0  0  0  0  0  0  0  0  0  0  0
  137.5842   71.6859  225.1042 H   0  0  0  0  0  0  0  0  0  0  0  0
  136.6300   72.2203  222.8643 H   0  0  0  0  0  0  0  0  0  0  0  0
  138.3489   72.7945  223.0437 H   0  0  0  0  0  0  0  0  0  0  0  0
  137.1880   70.7760  221.3420 H   0  0  0  0  0  0  0  0  0  0  0  0
  139.4113   71.6240  220.1444 H   0  0  0  0  0  0  0  0  0  0  0  0
  137.7093   72.2693  219.9702 H   0  0  0  0  0  0  0  0  0  0  0  0
  139.6722   79.2980  224.5549 H   0  0  0  0  0  0  0  0  0  0  0  0
  140.7139   79.5989  223.1227 H   0  0  0  0  0  0  0  0  0  0  0  0
  139.0050   80.1526  223.1227 H   0  0  0  0  0  0  0  0  0  0  0  0
  135.5282   76.3400  222.6765 H   0  0  0  0  0  0  0  0  0  0  0  0
  135.7537   77.2805  221.1629 H   0  0  0  0  0  0  0  0  0  0  0  0
  136.0130   75.5030  221.1629 H   0  0  0  0  0  0  0  0  0  0  0  0
  138.3650   69.1290  222.1322 H   0  0  0  0  0  0  0  0  0  0  0  0
  139.5958   69.9112  221.0308 H   0  0  0  0  0  0  0  0  0  0  0  0
  140.4506   69.2459  223.3300 H   0  0  0  0  0  0  0  0  0  0  0  0
  140.6928   70.9712  222.8469 H   0  0  0  0  0  0  0  0  0  0  0  0
  1  2  1  0
  2  3  2  0
  3  4  1  0
  4  5  2  0
  5  6  1  0
  6  7  2  0
  7  8  1  0
  8  9  1  0
  9 10  1  0
 10 11  1  0
 11 12  1  0
 12 13  1  0
 13 14  2  0
 14 15  1  0
 15 16  2  0
 16 17  1  0
 17 18  2  0
 17 19  1  0
 19 20  1  0
 19 21  1  0
 21 22  2  0
 21 23  1  0
 23 24  1  0
 23 25  1  0
 25 26  2  0
 11 27  1  0
 27 28  1  0
  7  2  1  0
 28  8  1  0
 26 13  1  0
 25 16  1  0
  1 29  1  0
  1 30  1  0
  1 31  1  0
  3 32  1  0
  4 33  1  0
  5 34  1  0
  6 35  1  0
  9 36  1  0
  9 37  1  0
 10 38  1  0
 10 39  1  0
 11 40  1  0
 12 41  1  0
 12 42  1  0
 20 43  1  0
 20 44  1  0
 20 45  1  0
 24 46  1  0
 24 47  1  0
 24 48  1  0
 27 49  1  0
 27 50  1  0
 28 51  1  0
 28 52  1  0
M  CHG  1  11   1
M  END
>  <UniqueID>  (67) 
23

>  <SMILES>  (67) 
Cc1ccccc1N1CC[NH+](Cc2nnc3c(=O)n(C)c(=O)n(C)c3n2)CC1

>  <Energy>  (67) 
79.06138861380086

>  <Genealogy>  (67) 
Cc1ccccc1N1CC[NH+](Cc2nnc3c(=O)n(C)c(=O)n(C)c3n2)CC1 (protonated)
Cc1ccccc1N1CC[NH+](Cc2nnc3c(=O)n(C)c(=O)n(C)c3n2)CC1 (3D coordinates assigned)
Cc1ccccc1N1CC[NH+](Cc2nnc3c(=O)n(C)c(=O)n(C)c3n2)CC1 (nonaromatic ring conformer: 79.06138861380086 kcal/mol)

>  <smiles>  (67) 
Cc1ccccc1N1CCN(Cc2nnc3c(=O)n(C)c(=O)n(C)c3n2)CC1

>  <score_type>  (67) 
oracle

>  <origin>  (67) 
autodockgpu

>  <m_score__min__energy>  (67) 
-7.54

>  <m_primary>  (67) 
energy

>  <meeko>  (67) 
{"free_energy": -6.91, "intermolecular_energy": -7.81, "internal_energy": -0.86, "cluster_size": 3, "cluster_id": 3, "rank_in_cluster": 1}

>  <energy>  (67) 
-7.37

>  <cluster_rmsd>  (67) 
0.24

>  <rmsd>  (67) 
270.72

>  <cluster>  (67) 
1

$$$$
IILOZLGKIKELDM-DPVAGCSBNA-O
     RDKit          3D

 52 55  0  0  0  0  0  0  0  0999 V2000
  137.3990   78.5460  222.5490 C   0  0  0  0  0  0  0  0  0  0  0  0
  138.8730   78.5650  222.8450 C   0  0  0  0  0  0  0  0  0  0  0  0
  139.4190   79.6500  223.5510 C   0  0  0  0  0  0  0  0  0  0  0  0
  140.7850   79.6890  223.8440 C   0  0  0  0  0  0  0  0  0  0  0  0
  141.6200   78.6510  223.4280 C   0  0  0  0  0  0  0  0  0  0  0  0
  141.0940   77.5750  222.7110 C   0  0  0  0  0  0  0  0  0  0  0  0
  139.7270   77.5300  222.4000 C   0  0  0  0  0  0  0  0  0  0  0  0
  139.2180   76.4210  221.6440 N   0  0  0  0  0  0  0  0  0  0  0  0
  139.2200   76.4700  220.1840 C   0  0  0  0  0  0  0  0  0  0  0  0
  139.4710   75.0620  219.6440 C   0  0  0  0  0  0  0  0  0  0  0  0
  138.4630   74.0730  220.1230 N   0  0  0  0  0  0  0  0  0  0  0  0
  139.0200   72.6960  220.1890 C   0  0  0  0  0  0  0  0  0  0  0  0
  139.3980   72.2600  221.5810 C   0  0  0  0  0  0  0  0  0  0  0  0
  140.2540   73.0100  222.3240 N   0  0  0  0  0  0  0  0  0  0  0  0
  140.6370   72.6130  223.5370 N   0  0  0  0  0  0  0  0  0  0  0  0
  140.1860   71.4450  224.0650 C   0  0  0  0  0  0  0  0  0  0  0  0
  140.5850   71.0120  225.3260 C   0  0  0  0  0  0  0  0  0  0  0  0
  141.4040   71.7100  225.9890 O   0  0  0  0  0  0  0  0  0  0  0  0
  140.0910   69.8400  225.8350 N   0  0  0  0  0  0  0  0  0  0  0  0
  140.5290   69.3760  227.1630 C   0  0  0  0  0  0  0  0  0  0  0  0
  139.2450   69.0630  225.0790 C   0  0  0  0  0  0  0  0  0  0  0  0
  138.8170   67.9690  225.5450 O   0  0  0  0  0  0  0  0  0  0  0  0
  138.8600   69.4610  223.8210 N   0  0  0  0  0  0  0  0  0  0  0  0
  137.9220   68.6300  223.0440 C   0  0  0  0  0  0  0  0  0  0  0  0
  139.3020   70.6570  223.3210 C   0  0  0  0  0  0  0  0  0  0  0  0
  138.9230   71.0930  222.0900 N   0  0  0  0  0  0  0  0  0  0  0  0
  137.7270   74.4630  221.3610 C   0  0  0  0  0  0  0  0  0  0  0  0
  138.5680   75.3060  222.3370 C   0  0  0  0  0  0  0  0  0  0  0  0
  136.8354   78.5387  223.4936 H   0  0  0  0  0  0  0  0  0  0  0  0
  137.1300   79.4407  221.9684 H   0  0  0  0  0  0  0  0  0  0  0  0
  137.1532   77.6446  221.9684 H   0  0  0  0  0  0  0  0  0  0  0  0
  138.7670   80.4744  223.8754 H   0  0  0  0  0  0  0  0  0  0  0  0
  141.2026   80.5391  224.4033 H   0  0  0  0  0  0  0  0  0  0  0  0
  142.6937   78.6808  223.6653 H   0  0  0  0  0  0  0  0  0  0  0  0
  141.7554   76.7576  222.3880 H   0  0  0  0  0  0  0  0  0  0  0  0
  138.2466   76.8355  219.8251 H   0  0  0  0  0  0  0  0  0  0  0  0
  140.0100   77.1508  219.8341 H   0  0  0  0  0  0  0  0  0  0  0  0
  139.4364   75.0954  218.5450 H   0  0  0  0  0  0  0  0  0  0  0  0
  140.4557   74.7365  220.0107 H   0  0  0  0  0  0  0  0  0  0  0  0
  137.7340   74.0290  219.3700 H   0  0  0  0  0  0  0  0  0  0  0  0
  138.2650   71.9972  219.7995 H   0  0  0  0  0  0  0  0  0  0  0  0
  139.9430   72.6942  219.5905 H   0  0  0  0  0  0  0  0  0  0  0  0
  139.9963   69.9403  227.9426 H   0  0  0  0  0  0  0  0  0  0  0  0
  140.3057   68.3041  227.2689 H   0  0  0  0  0  0  0  0  0  0  0  0
  141.6120   69.5372  227.2689 H   0  0  0  0  0  0  0  0  0  0  0  0
  137.2797   68.0610  223.7322 H   0  0  0  0  0  0  0  0  0  0  0  0
  137.2977   69.2768  222.4101 H   0  0  0  0  0  0  0  0  0  0  0  0
  138.4889   67.9323  222.4101 H   0  0  0  0  0  0  0  0  0  0  0  0
  136.8418   75.0475  221.0700 H   0  0  0  0  0  0  0  0  0  0  0  0
  137.4600   73.5332  221.8846 H   0  0  0  0  0  0  0  0  0  0  0  0
  137.9119   75.7055  223.1243 H   0  0  0  0  0  0  0  0  0  0  0  0
  139.3469   74.6632  222.7730 H   0  0  0  0  0  0  0  0  0  0  0  0
  1  2  1  0
  2  3  2  0
  3  4  1  0
  4  5  2  0
  5  6  1  0
  6  7  2  0
  7  8  1  0
  8  9  1  0
  9 10  1  0
 10 11  1  0
 11 12  1  0
 12 13  1  0
 13 14  2  0
 14 15  1  0
 15 16  2  0
 16 17  1  0
 17 18  2  0
 17 19  1  0
 19 20  1  0
 19 21  1  0
 21 22  2  0
 21 23  1  0
 23 24  1  0
 23 25  1  0
 25 26  2  0
 11 27  1  0
 27 28  1  0
  7  2  1  0
 28  8  1  0
 26 13  1  0
 25 16  1  0
  1 29  1  0
  1 30  1  0
  1 31  1  0
  3 32  1  0
  4 33  1  0
  5 34  1  0
  6 35  1  0
  9 36  1  0
  9 37  1  0
 10 38  1  0
 10 39  1  0
 11 40  1  0
 12 41  1  0
 12 42  1  0
 20 43  1  0
 20 44  1  0
 20 45  1  0
 24 46  1  0
 24 47  1  0
 24 48  1  0
 27 49  1  0
 27 50  1  0
 28 51  1  0
 28 52  1  0
M  CHG  1  11   1
M  END
>  <UniqueID>  (68) 
23

>  <SMILES>  (68) 
Cc1ccccc1N1CC[NH+](Cc2nnc3c(=O)n(C)c(=O)n(C)c3n2)CC1

>  <Energy>  (68) 
79.06138861380086

>  <Genealogy>  (68) 
Cc1ccccc1N1CC[NH+](Cc2nnc3c(=O)n(C)c(=O)n(C)c3n2)CC1 (protonated)
Cc1ccccc1N1CC[NH+](Cc2nnc3c(=O)n(C)c(=O)n(C)c3n2)CC1 (3D coordinates assigned)
Cc1ccccc1N1CC[NH+](Cc2nnc3c(=O)n(C)c(=O)n(C)c3n2)CC1 (nonaromatic ring conformer: 79.06138861380086 kcal/mol)

>  <smiles>  (68) 
Cc1ccccc1N1CCN(Cc2nnc3c(=O)n(C)c(=O)n(C)c3n2)CC1

>  <score_type>  (68) 
oracle

>  <origin>  (68) 
autodockgpu

>  <m_score__min__energy>  (68) 
-7.54

>  <m_primary>  (68) 
energy

>  <meeko>  (68) 
{"free_energy": -7.01, "intermolecular_energy": -7.91, "internal_energy": -0.76, "cluster_size": 7, "cluster_id": 2, "rank_in_cluster": 5}

>  <energy>  (68) 
-7.35

>  <cluster_rmsd>  (68) 
0.24

>  <rmsd>  (68) 
270.72

>  <cluster>  (68) 
1

$$$$
IILOZLGKIKELDM-DPVAGCSBNA-O
     RDKit          3D

 52 55  0  0  0  0  0  0  0  0999 V2000
  139.2110   68.3550  227.0110 C   0  0  0  0  0  0  0  0  0  0  0  0
  139.8700   69.7060  227.0570 C   0  0  0  0  0  0  0  0  0  0  0  0
  140.3590   70.1920  228.2820 C   0  0  0  0  0  0  0  0  0  0  0  0
  140.9810   71.4420  228.3490 C   0  0  0  0  0  0  0  0  0  0  0  0
  141.1150   72.2210  227.1990 C   0  0  0  0  0  0  0  0  0  0  0  0
  140.6190   71.7570  225.9790 C   0  0  0  0  0  0  0  0  0  0  0  0
  139.9820   70.5110  225.9000 C   0  0  0  0  0  0  0  0  0  0  0  0
  139.4640   70.0690  224.6360 N   0  0  0  0  0  0  0  0  0  0  0  0
  139.5860   68.6670  224.2460 C   0  0  0  0  0  0  0  0  0  0  0  0
  138.3530   68.2730  223.4320 C   0  0  0  0  0  0  0  0  0  0  0  0
  138.1630   69.1260  222.2240 N   0  0  0  0  0  0  0  0  0  0  0  0
  136.7330   69.2260  221.8310 C   0  0  0  0  0  0  0  0  0  0  0  0
  135.8070   69.5210  222.9830 C   0  0  0  0  0  0  0  0  0  0  0  0
  135.0470   68.5300  223.5200 N   0  0  0  0  0  0  0  0  0  0  0  0
  134.1860   68.7850  224.5060 N   0  0  0  0  0  0  0  0  0  0  0  0
  134.0400   70.0420  224.9990 C   0  0  0  0  0  0  0  0  0  0  0  0
  133.1390   70.3250  226.0200 C   0  0  0  0  0  0  0  0  0  0  0  0
  132.4210   69.3960  226.4880 O   0  0  0  0  0  0  0  0  0  0  0  0
  133.0370   71.6010  226.5090 N   0  0  0  0  0  0  0  0  0  0  0  0
  132.0690   71.9010  227.5780 C   0  0  0  0  0  0  0  0  0  0  0  0
  133.7840   72.6130  225.9530 C   0  0  0  0  0  0  0  0  0  0  0  0
  133.6620   73.7930  226.3900 O   0  0  0  0  0  0  0  0  0  0  0  0
  134.6610   72.3580  224.9260 N   0  0  0  0  0  0  0  0  0  0  0  0
  135.4780   73.4530  224.3710 C   0  0  0  0  0  0  0  0  0  0  0  0
  134.8140   71.0780  224.4650 C   0  0  0  0  0  0  0  0  0  0  0  0
  135.6890   70.7850  223.4660 N   0  0  0  0  0  0  0  0  0  0  0  0
  138.8500   70.4500  222.2670 C   0  0  0  0  0  0  0  0  0  0  0  0
  138.9420   71.0500  223.6810 C   0  0  0  0  0  0  0  0  0  0  0  0
  139.0364   67.9971  228.0364 H   0  0  0  0  0  0  0  0  0  0  0  0
  138.2500   68.4336  226.4815 H   0  0  0  0  0  0  0  0  0  0  0  0
  139.8645   67.6461  226.4815 H   0  0  0  0  0  0  0  0  0  0  0  0
  140.2516   69.5851  229.1931 H   0  0  0  0  0  0  0  0  0  0  0  0
  141.3658   71.8125  229.3106 H   0  0  0  0  0  0  0  0  0  0  0  0
  141.6116   73.2010  227.2536 H   0  0  0  0  0  0  0  0  0  0  0  0
  140.7289   72.3731  225.0744 H   0  0  0  0  0  0  0  0  0  0  0  0
  140.4910   68.5304  223.6358 H   0  0  0  0  0  0  0  0  0  0  0  0
  139.6595   68.0345  225.1430 H   0  0  0  0  0  0  0  0  0  0  0  0
  138.4636   67.2270  223.1101 H   0  0  0  0  0  0  0  0  0  0  0  0
  137.4723   68.4099  224.0767 H   0  0  0  0  0  0  0  0  0  0  0  0
  138.6200   68.6040  221.4370 H   0  0  0  0  0  0  0  0  0  0  0  0
  136.6323   70.0321  221.0893 H   0  0  0  0  0  0  0  0  0  0  0  0
  136.4413   68.2452  221.4273 H   0  0  0  0  0  0  0  0  0  0  0  0
  132.5469   71.7529  228.5576 H   0  0  0  0  0  0  0  0  0  0  0  0
  131.7345   72.9450  227.4873 H   0  0  0  0  0  0  0  0  0  0  0  0
  131.2027   71.2292  227.4873 H   0  0  0  0  0  0  0  0  0  0  0  0
  135.9146   74.0381  225.1938 H   0  0  0  0  0  0  0  0  0  0  0  0
  136.2843   73.0318  223.7526 H   0  0  0  0  0  0  0  0  0  0  0  0
  134.8446   74.1060  223.7526 H   0  0  0  0  0  0  0  0  0  0  0  0
  139.8702   70.3254  221.8749 H   0  0  0  0  0  0  0  0  0  0  0  0
  138.2507   71.1445  221.6600 H   0  0  0  0  0  0  0  0  0  0  0  0
  139.6123   71.9219  223.6586 H   0  0  0  0  0  0  0  0  0  0  0  0
  137.9326   71.3473  224.0013 H   0  0  0  0  0  0  0  0  0  0  0  0
  1  2  1  0
  2  3  2  0
  3  4  1  0
  4  5  2  0
  5  6  1  0
  6  7  2  0
  7  8  1  0
  8  9  1  0
  9 10  1  0
 10 11  1  0
 11 12  1  0
 12 13  1  0
 13 14  2  0
 14 15  1  0
 15 16  2  0
 16 17  1  0
 17 18  2  0
 17 19  1  0
 19 20  1  0
 19 21  1  0
 21 22  2  0
 21 23  1  0
 23 24  1  0
 23 25  1  0
 25 26  2  0
 11 27  1  0
 27 28  1  0
  7  2  1  0
 28  8  1  0
 26 13  1  0
 25 16  1  0
  1 29  1  0
  1 30  1  0
  1 31  1  0
  3 32  1  0
  4 33  1  0
  5 34  1  0
  6 35  1  0
  9 36  1  0
  9 37  1  0
 10 38  1  0
 10 39  1  0
 11 40  1  0
 12 41  1  0
 12 42  1  0
 20 43  1  0
 20 44  1  0
 20 45  1  0
 24 46  1  0
 24 47  1  0
 24 48  1  0
 27 49  1  0
 27 50  1  0
 28 51  1  0
 28 52  1  0
M  CHG  1  11   1
M  END
>  <UniqueID>  (69) 
23

>  <SMILES>  (69) 
Cc1ccccc1N1CC[NH+](Cc2nnc3c(=O)n(C)c(=O)n(C)c3n2)CC1

>  <Energy>  (69) 
79.06138861380086

>  <Genealogy>  (69) 
Cc1ccccc1N1CC[NH+](Cc2nnc3c(=O)n(C)c(=O)n(C)c3n2)CC1 (protonated)
Cc1ccccc1N1CC[NH+](Cc2nnc3c(=O)n(C)c(=O)n(C)c3n2)CC1 (3D coordinates assigned)
Cc1ccccc1N1CC[NH+](Cc2nnc3c(=O)n(C)c(=O)n(C)c3n2)CC1 (nonaromatic ring conformer: 79.06138861380086 kcal/mol)

>  <smiles>  (69) 
Cc1ccccc1N1CCN(Cc2nnc3c(=O)n(C)c(=O)n(C)c3n2)CC1

>  <score_type>  (69) 
oracle

>  <origin>  (69) 
autodockgpu

>  <m_score__min__energy>  (69) 
-7.54

>  <m_primary>  (69) 
energy

>  <meeko>  (69) 
{"free_energy": -7.35, "intermolecular_energy": -8.25, "internal_energy": -0.67, "cluster_size": 10, "cluster_id": 1, "rank_in_cluster": 9}

>  <energy>  (69) 
-7.35

>  <cluster_rmsd>  (69) 
0.27

>  <rmsd>  (69) 
270.72

>  <cluster>  (69) 
1

$$$$
IILOZLGKIKELDM-DPVAGCSBNA-O
     RDKit          3D

 52 55  0  0  0  0  0  0  0  0999 V2000
  137.3320   77.8640  222.3980 C   0  0  0  0  0  0  0  0  0  0  0  0
  138.7750   78.1120  222.7370 C   0  0  0  0  0  0  0  0  0  0  0  0
  139.1300   79.2880  223.4190 C   0  0  0  0  0  0  0  0  0  0  0  0
  140.4640   79.5390  223.7520 C   0  0  0  0  0  0  0  0  0  0  0  0
  141.4570   78.6230  223.4020 C   0  0  0  0  0  0  0  0  0  0  0  0
  141.1210   77.4580  222.7100 C   0  0  0  0  0  0  0  0  0  0  0  0
  139.7880   77.2010  222.3590 C   0  0  0  0  0  0  0  0  0  0  0  0
  139.4750   76.0050  221.6290 N   0  0  0  0  0  0  0  0  0  0  0  0
  139.6310   75.9730  220.1770 C   0  0  0  0  0  0  0  0  0  0  0  0
  140.0760   74.5700  219.7600 C   0  0  0  0  0  0  0  0  0  0  0  0
  139.1240   73.5100  220.1970 N   0  0  0  0  0  0  0  0  0  0  0  0
  139.8020   72.2040  220.4110 C   0  0  0  0  0  0  0  0  0  0  0  0
  139.9210   71.8120  221.8610 C   0  0  0  0  0  0  0  0  0  0  0  0
  140.5440   72.6370  222.7440 N   0  0  0  0  0  0  0  0  0  0  0  0
  140.7000   72.2820  224.0190 N   0  0  0  0  0  0  0  0  0  0  0  0
  140.2460   71.0850  224.4730 C   0  0  0  0  0  0  0  0  0  0  0  0
  140.4120   70.6970  225.7980 C   0  0  0  0  0  0  0  0  0  0  0  0
  141.0180   71.4650  226.5970 O   0  0  0  0  0  0  0  0  0  0  0  0
  139.9180   69.4920  226.2250 N   0  0  0  0  0  0  0  0  0  0  0  0
  140.1110   69.0760  227.6250 C   0  0  0  0  0  0  0  0  0  0  0  0
  139.3100   68.6410  225.3320 C   0  0  0  0  0  0  0  0  0  0  0  0
  138.8840   67.5190  225.7280 O   0  0  0  0  0  0  0  0  0  0  0  0
  139.1590   68.9960  224.0130 N   0  0  0  0  0  0  0  0  0  0  0  0
  138.4700   68.0840  223.0820 C   0  0  0  0  0  0  0  0  0  0  0  0
  139.5980   70.2210  223.5840 C   0  0  0  0  0  0  0  0  0  0  0  0
  139.4460   70.6140  222.2910 N   0  0  0  0  0  0  0  0  0  0  0  0
  138.2230   73.8900  221.3250 C   0  0  0  0  0  0  0  0  0  0  0  0
  138.8660   74.8680  222.3240 C   0  0  0  0  0  0  0  0  0  0  0  0
  136.7494   77.7639  223.3256 H   0  0  0  0  0  0  0  0  0  0  0  0
  136.9431   78.7085  221.8101 H   0  0  0  0  0  0  0  0  0  0  0  0
  137.2474   76.9381  221.8101 H   0  0  0  0  0  0  0  0  0  0  0  0
  138.3525   80.0163  223.6928 H   0  0  0  0  0  0  0  0  0  0  0  0
  140.7316   80.4599  224.2908 H   0  0  0  0  0  0  0  0  0  0  0  0
  142.5053   78.8191  223.6716 H   0  0  0  0  0  0  0  0  0  0  0  0
  141.9066   76.7375  222.4385 H   0  0  0  0  0  0  0  0  0  0  0  0
  138.6714   76.2146  219.6966 H   0  0  0  0  0  0  0  0  0  0  0  0
  140.3839   76.7120  219.8655 H   0  0  0  0  0  0  0  0  0  0  0  0
  140.1584   74.5385  218.6635 H   0  0  0  0  0  0  0  0  0  0  0  0
  141.0418   74.3698  220.2469 H   0  0  0  0  0  0  0  0  0  0  0  0
  138.4880   73.3490  219.3780 H   0  0  0  0  0  0  0  0  0  0  0  0
  139.2284   71.4253  219.8870 H   0  0  0  0  0  0  0  0  0  0  0  0
  140.8256   72.3063  220.0213 H   0  0  0  0  0  0  0  0  0  0  0  0
  139.7443   69.8665  228.2963 H   0  0  0  0  0  0  0  0  0  0  0  0
  139.5517   68.1475  227.8120 H   0  0  0  0  0  0  0  0  0  0  0  0
  141.1811   68.9034  227.8120 H   0  0  0  0  0  0  0  0  0  0  0  0
  137.9038   67.3346  223.6545 H   0  0  0  0  0  0  0  0  0  0  0  0
  137.7794   68.6599  222.4484 H   0  0  0  0  0  0  0  0  0  0  0  0
  139.2127   67.5771  222.4484 H   0  0  0  0  0  0  0  0  0  0  0  0
  137.3221   74.3625  220.9065 H   0  0  0  0  0  0  0  0  0  0  0  0
  137.9928   72.9679  221.8788 H   0  0  0  0  0  0  0  0  0  0  0  0
  138.0923   75.2396  223.0120 H   0  0  0  0  0  0  0  0  0  0  0  0
  139.6521   74.3351  222.8790 H   0  0  0  0  0  0  0  0  0  0  0  0
  1  2  1  0
  2  3  2  0
  3  4  1  0
  4  5  2  0
  5  6  1  0
  6  7  2  0
  7  8  1  0
  8  9  1  0
  9 10  1  0
 10 11  1  0
 11 12  1  0
 12 13  1  0
 13 14  2  0
 14 15  1  0
 15 16  2  0
 16 17  1  0
 17 18  2  0
 17 19  1  0
 19 20  1  0
 19 21  1  0
 21 22  2  0
 21 23  1  0
 23 24  1  0
 23 25  1  0
 25 26  2  0
 11 27  1  0
 27 28  1  0
  7  2  1  0
 28  8  1  0
 26 13  1  0
 25 16  1  0
  1 29  1  0
  1 30  1  0
  1 31  1  0
  3 32  1  0
  4 33  1  0
  5 34  1  0
  6 35  1  0
  9 36  1  0
  9 37  1  0
 10 38  1  0
 10 39  1  0
 11 40  1  0
 12 41  1  0
 12 42  1  0
 20 43  1  0
 20 44  1  0
 20 45  1  0
 24 46  1  0
 24 47  1  0
 24 48  1  0
 27 49  1  0
 27 50  1  0
 28 51  1  0
 28 52  1  0
M  CHG  1  11   1
M  END
>  <UniqueID>  (70) 
23

>  <SMILES>  (70) 
Cc1ccccc1N1CC[NH+](Cc2nnc3c(=O)n(C)c(=O)n(C)c3n2)CC1

>  <Energy>  (70) 
79.06138861380086

>  <Genealogy>  (70) 
Cc1ccccc1N1CC[NH+](Cc2nnc3c(=O)n(C)c(=O)n(C)c3n2)CC1 (protonated)
Cc1ccccc1N1CC[NH+](Cc2nnc3c(=O)n(C)c(=O)n(C)c3n2)CC1 (3D coordinates assigned)
Cc1ccccc1N1CC[NH+](Cc2nnc3c(=O)n(C)c(=O)n(C)c3n2)CC1 (nonaromatic ring conformer: 79.06138861380086 kcal/mol)

>  <smiles>  (70) 
Cc1ccccc1N1CCN(Cc2nnc3c(=O)n(C)c(=O)n(C)c3n2)CC1

>  <score_type>  (70) 
oracle

>  <origin>  (70) 
autodockgpu

>  <m_score__min__energy>  (70) 
-7.54

>  <m_primary>  (70) 
energy

>  <meeko>  (70) 
{"free_energy": -7.06, "intermolecular_energy": -7.95, "internal_energy": -0.69, "cluster_size": 7, "cluster_id": 2, "rank_in_cluster": 2}

>  <energy>  (70) 
-6.97

>  <cluster_rmsd>  (70) 
0.34

>  <rmsd>  (70) 
270.81

>  <cluster>  (70) 
1

$$$$
IILOZLGKIKELDM-DPVAGCSBNA-O
     RDKit          3D

 52 55  0  0  0  0  0  0  0  0999 V2000
  137.3950   78.5030  222.5680 C   0  0  0  0  0  0  0  0  0  0  0  0
  138.8710   78.5280  222.8550 C   0  0  0  0  0  0  0  0  0  0  0  0
  139.4150   79.6130  223.5610 C   0  0  0  0  0  0  0  0  0  0  0  0
  140.7830   79.6570  223.8470 C   0  0  0  0  0  0  0  0  0  0  0  0
  141.6200   78.6230  223.4250 C   0  0  0  0  0  0  0  0  0  0  0  0
  141.0950   77.5470  222.7080 C   0  0  0  0  0  0  0  0  0  0  0  0
  139.7270   77.4970  222.4040 C   0  0  0  0  0  0  0  0  0  0  0  0
  139.2180   76.3870  221.6480 N   0  0  0  0  0  0  0  0  0  0  0  0
  139.2090   76.4410  220.1880 C   0  0  0  0  0  0  0  0  0  0  0  0
  139.4640   75.0360  219.6420 C   0  0  0  0  0  0  0  0  0  0  0  0
  138.4650   74.0400  220.1250 N   0  0  0  0  0  0  0  0  0  0  0  0
  139.0300   72.6660  220.1820 C   0  0  0  0  0  0  0  0  0  0  0  0
  139.4090   72.2230  221.5710 C   0  0  0  0  0  0  0  0  0  0  0  0
  140.2610   72.9720  222.3200 N   0  0  0  0  0  0  0  0  0  0  0  0
  140.6450   72.5680  223.5310 N   0  0  0  0  0  0  0  0  0  0  0  0
  140.1990   71.3950  224.0510 C   0  0  0  0  0  0  0  0  0  0  0  0
  140.5990   70.9570  225.3090 C   0  0  0  0  0  0  0  0  0  0  0  0
  141.4130   71.6530  225.9780 O   0  0  0  0  0  0  0  0  0  0  0  0
  140.1090   69.7790  225.8110 N   0  0  0  0  0  0  0  0  0  0  0  0
  140.5480   69.3090  227.1360 C   0  0  0  0  0  0  0  0  0  0  0  0
  139.2670   69.0040  225.0490 C   0  0  0  0  0  0  0  0  0  0  0  0
  138.8430   67.9050  225.5080 O   0  0  0  0  0  0  0  0  0  0  0  0
  138.8810   69.4080  223.7940 N   0  0  0  0  0  0  0  0  0  0  0  0
  137.9470   68.5780  223.0100 C   0  0  0  0  0  0  0  0  0  0  0  0
  139.3180   70.6090  223.3020 C   0  0  0  0  0  0  0  0  0  0  0  0
  138.9390   71.0510  222.0730 N   0  0  0  0  0  0  0  0  0  0  0  0
  137.7370   74.4220  221.3700 C   0  0  0  0  0  0  0  0  0  0  0  0
  138.5800   75.2660  222.3420 C   0  0  0  0  0  0  0  0  0  0  0  0
  136.8372   78.4936  223.5160 H   0  0  0  0  0  0  0  0  0  0  0  0
  137.1189   79.3966  221.9890 H   0  0  0  0  0  0  0  0  0  0  0  0
  137.1493   77.6006  221.9890 H   0  0  0  0  0  0  0  0  0  0  0  0
  138.7609   80.4335  223.8912 H   0  0  0  0  0  0  0  0  0  0  0  0
  141.2002   80.5079  224.4055 H   0  0  0  0  0  0  0  0  0  0  0  0
  142.6946   78.6562  223.6578 H   0  0  0  0  0  0  0  0  0  0  0  0
  141.7582   76.7333  222.3793 H   0  0  0  0  0  0  0  0  0  0  0  0
  138.2309   76.8021  219.8373 H   0  0  0  0  0  0  0  0  0  0  0  0
  139.9923   77.1275  219.8343 H   0  0  0  0  0  0  0  0  0  0  0  0
  139.4215   75.0725  218.5434 H   0  0  0  0  0  0  0  0  0  0  0  0
  140.4530   74.7149  220.0008 H   0  0  0  0  0  0  0  0  0  0  0  0
  137.7300   73.9950  219.3770 H   0  0  0  0  0  0  0  0  0  0  0  0
  138.2795   71.9655  219.7870 H   0  0  0  0  0  0  0  0  0  0  0  0
  139.9535   72.6737  219.5844 H   0  0  0  0  0  0  0  0  0  0  0  0
  140.0204   69.8738  227.9187 H   0  0  0  0  0  0  0  0  0  0  0  0
  140.3194   68.2380  227.2394 H   0  0  0  0  0  0  0  0  0  0  0  0
  141.6321   69.4642  227.2394 H   0  0  0  0  0  0  0  0  0  0  0  0
  137.3028   68.0055  223.6936 H   0  0  0  0  0  0  0  0  0  0  0  0
  137.3242   69.2261  222.3759 H   0  0  0  0  0  0  0  0  0  0  0  0
  138.5175   67.8834  222.3759 H   0  0  0  0  0  0  0  0  0  0  0  0
  136.8463   75.0025  221.0878 H   0  0  0  0  0  0  0  0  0  0  0  0
  137.4798   73.4888  221.8926 H   0  0  0  0  0  0  0  0  0  0  0  0
  137.9276   75.6589  223.1357 H   0  0  0  0  0  0  0  0  0  0  0  0
  139.3660   74.6263  222.7698 H   0  0  0  0  0  0  0  0  0  0  0  0
  1  2  1  0
  2  3  2  0
  3  4  1  0
  4  5  2  0
  5  6  1  0
  6  7  2  0
  7  8  1  0
  8  9  1  0
  9 10  1  0
 10 11  1  0
 11 12  1  0
 12 13  1  0
 13 14  2  0
 14 15  1  0
 15 16  2  0
 16 17  1  0
 17 18  2  0
 17 19  1  0
 19 20  1  0
 19 21  1  0
 21 22  2  0
 21 23  1  0
 23 24  1  0
 23 25  1  0
 25 26  2  0
 11 27  1  0
 27 28  1  0
  7  2  1  0
 28  8  1  0
 26 13  1  0
 25 16  1  0
  1 29  1  0
  1 30  1  0
  1 31  1  0
  3 32  1  0
  4 33  1  0
  5 34  1  0
  6 35  1  0
  9 36  1  0
  9 37  1  0
 10 38  1  0
 10 39  1  0
 11 40  1  0
 12 41  1  0
 12 42  1  0
 20 43  1  0
 20 44  1  0
 20 45  1  0
 24 46  1  0
 24 47  1  0
 24 48  1  0
 27 49  1  0
 27 50  1  0
 28 51  1  0
 28 52  1  0
M  CHG  1  11   1
M  END
>  <UniqueID>  (71) 
23

>  <SMILES>  (71) 
Cc1ccccc1N1CC[NH+](Cc2nnc3c(=O)n(C)c(=O)n(C)c3n2)CC1

>  <Energy>  (71) 
79.06138861380086

>  <Genealogy>  (71) 
Cc1ccccc1N1CC[NH+](Cc2nnc3c(=O)n(C)c(=O)n(C)c3n2)CC1 (protonated)
Cc1ccccc1N1CC[NH+](Cc2nnc3c(=O)n(C)c(=O)n(C)c3n2)CC1 (3D coordinates assigned)
Cc1ccccc1N1CC[NH+](Cc2nnc3c(=O)n(C)c(=O)n(C)c3n2)CC1 (nonaromatic ring conformer: 79.06138861380086 kcal/mol)

>  <smiles>  (71) 
Cc1ccccc1N1CCN(Cc2nnc3c(=O)n(C)c(=O)n(C)c3n2)CC1

>  <score_type>  (71) 
oracle

>  <origin>  (71) 
autodockgpu

>  <m_score__min__energy>  (71) 
-7.54

>  <m_primary>  (71) 
energy

>  <meeko>  (71) 
{"free_energy": -7.01, "intermolecular_energy": -7.91, "internal_energy": -0.75, "cluster_size": 7, "cluster_id": 2, "rank_in_cluster": 4}

>  <energy>  (71) 
-7.08

>  <cluster_rmsd>  (71) 
0.0

>  <rmsd>  (71) 
271.26

>  <cluster>  (71) 
2

$$$$
IILOZLGKIKELDM-DPVAGCSBNA-O
     RDKit          3D

 52 55  0  0  0  0  0  0  0  0999 V2000
  139.2130   68.4190  227.0100 C   0  0  0  0  0  0  0  0  0  0  0  0
  139.8840   69.7650  227.0490 C   0  0  0  0  0  0  0  0  0  0  0  0
  140.3710   70.2550  228.2720 C   0  0  0  0  0  0  0  0  0  0  0  0
  141.0040   71.5000  228.3330 C   0  0  0  0  0  0  0  0  0  0  0  0
  141.1510   72.2690  227.1780 C   0  0  0  0  0  0  0  0  0  0  0  0
  140.6570   71.8010  225.9590 C   0  0  0  0  0  0  0  0  0  0  0  0
  140.0080   70.5600  225.8860 C   0  0  0  0  0  0  0  0  0  0  0  0
  139.4920   70.1130  224.6230 N   0  0  0  0  0  0  0  0  0  0  0  0
  139.5960   68.7050  224.2480 C   0  0  0  0  0  0  0  0  0  0  0  0
  138.3640   68.3220  223.4290 C   0  0  0  0  0  0  0  0  0  0  0  0
  138.1940   69.1660  222.2120 N   0  0  0  0  0  0  0  0  0  0  0  0
  136.7680   69.2830  221.8080 C   0  0  0  0  0  0  0  0  0  0  0  0
  135.8340   69.5640  222.9560 C   0  0  0  0  0  0  0  0  0  0  0  0
  135.0700   68.5660  223.4750 N   0  0  0  0  0  0  0  0  0  0  0  0
  134.2020   68.8090  224.4580 N   0  0  0  0  0  0  0  0  0  0  0  0
  134.0530   70.0600  224.9660 C   0  0  0  0  0  0  0  0  0  0  0  0
  133.1440   70.3300  225.9840 C   0  0  0  0  0  0  0  0  0  0  0  0
  132.4230   69.3950  226.4350 O   0  0  0  0  0  0  0  0  0  0  0  0
  133.0390   71.6000  226.4880 N   0  0  0  0  0  0  0  0  0  0  0  0
  132.0630   71.8870  227.5540 C   0  0  0  0  0  0  0  0  0  0  0  0
  133.7890   72.6190  225.9500 C   0  0  0  0  0  0  0  0  0  0  0  0
  133.6640   73.7930  226.4010 O   0  0  0  0  0  0  0  0  0  0  0  0
  134.6740   72.3770  224.9270 N   0  0  0  0  0  0  0  0  0  0  0  0
  135.4950   73.4780  224.3910 C   0  0  0  0  0  0  0  0  0  0  0  0
  134.8300   71.1020  224.4510 C   0  0  0  0  0  0  0  0  0  0  0  0
  135.7130   70.8220  223.4540 N   0  0  0  0  0  0  0  0  0  0  0  0
  138.9010   70.4800  222.2460 C   0  0  0  0  0  0  0  0  0  0  0  0
  138.9920   71.0930  223.6550 C   0  0  0  0  0  0  0  0  0  0  0  0
  139.0375   68.0669  228.0372 H   0  0  0  0  0  0  0  0  0  0  0  0
  138.2517   68.5037  226.4821 H   0  0  0  0  0  0  0  0  0  0  0  0
  139.8593   67.7023  226.4821 H   0  0  0  0  0  0  0  0  0  0  0  0
  140.2537   69.6557  229.1869 H   0  0  0  0  0  0  0  0  0  0  0  0
  141.3871   71.8743  229.2938 H   0  0  0  0  0  0  0  0  0  0  0  0
  141.6565   73.2447  227.2280 H   0  0  0  0  0  0  0  0  0  0  0  0
  140.7775   72.4093  225.0504 H   0  0  0  0  0  0  0  0  0  0  0  0
  140.5034   68.5486  223.6462 H   0  0  0  0  0  0  0  0  0  0  0  0
  139.6534   68.0805  225.1517 H   0  0  0  0  0  0  0  0  0  0  0  0
  138.4618   67.2716  223.1174 H   0  0  0  0  0  0  0  0  0  0  0  0
  137.4811   68.4781  224.0662 H   0  0  0  0  0  0  0  0  0  0  0  0
  138.6480   68.6290  221.4330 H   0  0  0  0  0  0  0  0  0  0  0  0
  136.6796   70.1027  221.0798 H   0  0  0  0  0  0  0  0  0  0  0  0
  136.4733   68.3115  221.3845 H   0  0  0  0  0  0  0  0  0  0  0  0
  132.5399   71.7468  228.5353 H   0  0  0  0  0  0  0  0  0  0  0  0
  131.7136   72.9259  227.4613 H   0  0  0  0  0  0  0  0  0  0  0  0
  131.2069   71.2026  227.4613 H   0  0  0  0  0  0  0  0  0  0  0  0
  135.9246   74.0541  225.2238 H   0  0  0  0  0  0  0  0  0  0  0  0
  136.3065   73.0638  223.7746 H   0  0  0  0  0  0  0  0  0  0  0  0
  134.8665   74.1376  223.7746 H   0  0  0  0  0  0  0  0  0  0  0  0
  139.9219   70.3359  221.8626 H   0  0  0  0  0  0  0  0  0  0  0  0
  138.3170   71.1773  221.6273 H   0  0  0  0  0  0  0  0  0  0  0  0
  139.6759   71.9542  223.6291 H   0  0  0  0  0  0  0  0  0  0  0  0
  137.9852   71.4095  223.9651 H   0  0  0  0  0  0  0  0  0  0  0  0
  1  2  1  0
  2  3  2  0
  3  4  1  0
  4  5  2  0
  5  6  1  0
  6  7  2  0
  7  8  1  0
  8  9  1  0
  9 10  1  0
 10 11  1  0
 11 12  1  0
 12 13  1  0
 13 14  2  0
 14 15  1  0
 15 16  2  0
 16 17  1  0
 17 18  2  0
 17 19  1  0
 19 20  1  0
 19 21  1  0
 21 22  2  0
 21 23  1  0
 23 24  1  0
 23 25  1  0
 25 26  2  0
 11 27  1  0
 27 28  1  0
  7  2  1  0
 28  8  1  0
 26 13  1  0
 25 16  1  0
  1 29  1  0
  1 30  1  0
  1 31  1  0
  3 32  1  0
  4 33  1  0
  5 34  1  0
  6 35  1  0
  9 36  1  0
  9 37  1  0
 10 38  1  0
 10 39  1  0
 11 40  1  0
 12 41  1  0
 12 42  1  0
 20 43  1  0
 20 44  1  0
 20 45  1  0
 24 46  1  0
 24 47  1  0
 24 48  1  0
 27 49  1  0
 27 50  1  0
 28 51  1  0
 28 52  1  0
M  CHG  1  11   1
M  END
>  <UniqueID>  (72) 
23

>  <SMILES>  (72) 
Cc1ccccc1N1CC[NH+](Cc2nnc3c(=O)n(C)c(=O)n(C)c3n2)CC1

>  <Energy>  (72) 
79.06138861380086

>  <Genealogy>  (72) 
Cc1ccccc1N1CC[NH+](Cc2nnc3c(=O)n(C)c(=O)n(C)c3n2)CC1 (protonated)
Cc1ccccc1N1CC[NH+](Cc2nnc3c(=O)n(C)c(=O)n(C)c3n2)CC1 (3D coordinates assigned)
Cc1ccccc1N1CC[NH+](Cc2nnc3c(=O)n(C)c(=O)n(C)c3n2)CC1 (nonaromatic ring conformer: 79.06138861380086 kcal/mol)

>  <smiles>  (72) 
Cc1ccccc1N1CCN(Cc2nnc3c(=O)n(C)c(=O)n(C)c3n2)CC1

>  <score_type>  (72) 
oracle

>  <origin>  (72) 
autodockgpu

>  <m_score__min__energy>  (72) 
-7.54

>  <m_primary>  (72) 
energy

>  <meeko>  (72) 
{"free_energy": -7.37, "intermolecular_energy": -8.27, "internal_energy": -0.65, "cluster_size": 10, "cluster_id": 1, "rank_in_cluster": 7}

>  <energy>  (72) 
-7.06

>  <cluster_rmsd>  (72) 
0.03

>  <rmsd>  (72) 
271.28

>  <cluster>  (72) 
2

$$$$
IILOZLGKIKELDM-DPVAGCSBNA-O
     RDKit          3D

 52 55  0  0  0  0  0  0  0  0999 V2000
  139.2130   68.4430  227.0350 C   0  0  0  0  0  0  0  0  0  0  0  0
  139.9100   69.7760  227.0610 C   0  0  0  0  0  0  0  0  0  0  0  0
  140.4100   70.2660  228.2790 C   0  0  0  0  0  0  0  0  0  0  0  0
  141.0670   71.4990  228.3290 C   0  0  0  0  0  0  0  0  0  0  0  0
  141.2250   72.2560  227.1670 C   0  0  0  0  0  0  0  0  0  0  0  0
  140.7190   71.7880  225.9540 C   0  0  0  0  0  0  0  0  0  0  0  0
  140.0470   70.5590  225.8920 C   0  0  0  0  0  0  0  0  0  0  0  0
  139.5190   70.1120  224.6340 N   0  0  0  0  0  0  0  0  0  0  0  0
  139.5760   68.6960  224.2800 C   0  0  0  0  0  0  0  0  0  0  0  0
  138.3320   68.3430  223.4620 C   0  0  0  0  0  0  0  0  0  0  0  0
  138.1960   69.1750  222.2320 N   0  0  0  0  0  0  0  0  0  0  0  0
  136.7760   69.3360  221.8220 C   0  0  0  0  0  0  0  0  0  0  0  0
  135.8390   69.5990  222.9720 C   0  0  0  0  0  0  0  0  0  0  0  0
  135.0950   68.5880  223.4930 N   0  0  0  0  0  0  0  0  0  0  0  0
  134.2240   68.8150  224.4770 N   0  0  0  0  0  0  0  0  0  0  0  0
  134.0530   70.0630  224.9850 C   0  0  0  0  0  0  0  0  0  0  0  0
  133.1400   70.3160  226.0040 C   0  0  0  0  0  0  0  0  0  0  0  0
  132.4380   69.3680  226.4560 O   0  0  0  0  0  0  0  0  0  0  0  0
  133.0120   71.5840  226.5080 N   0  0  0  0  0  0  0  0  0  0  0  0
  132.0330   71.8520  227.5750 C   0  0  0  0  0  0  0  0  0  0  0  0
  133.7420   72.6160  225.9680 C   0  0  0  0  0  0  0  0  0  0  0  0
  133.5960   73.7880  226.4190 O   0  0  0  0  0  0  0  0  0  0  0  0
  134.6300   72.3900  224.9430 N   0  0  0  0  0  0  0  0  0  0  0  0
  135.4290   73.5070  224.4060 C   0  0  0  0  0  0  0  0  0  0  0  0
  134.8090   71.1190  224.4670 C   0  0  0  0  0  0  0  0  0  0  0  0
  135.6940   70.8550  223.4690 N   0  0  0  0  0  0  0  0  0  0  0  0
  138.9470   70.4640  222.2500 C   0  0  0  0  0  0  0  0  0  0  0  0
  139.0560   71.0940  223.6500 C   0  0  0  0  0  0  0  0  0  0  0  0
  139.0348   68.1022  228.0656 H   0  0  0  0  0  0  0  0  0  0  0  0
  138.2514   68.5422  226.5102 H   0  0  0  0  0  0  0  0  0  0  0  0
  139.8432   67.7099  226.5102 H   0  0  0  0  0  0  0  0  0  0  0  0
  140.2838   69.6760  229.1988 H   0  0  0  0  0  0  0  0  0  0  0  0
  141.4601   71.8732  229.2858 H   0  0  0  0  0  0  0  0  0  0  0  0
  141.7489   73.2224  227.2077 H   0  0  0  0  0  0  0  0  0  0  0  0
  140.8481   72.3870  225.0405 H   0  0  0  0  0  0  0  0  0  0  0  0
  140.4790   68.5000  223.6832 H   0  0  0  0  0  0  0  0  0  0  0  0
  139.6100   68.0831  225.1928 H   0  0  0  0  0  0  0  0  0  0  0  0
  138.3939   67.2853  223.1662 H   0  0  0  0  0  0  0  0  0  0  0  0
  137.4529   68.5383  224.0937 H   0  0  0  0  0  0  0  0  0  0  0  0
  138.6330   68.6110  221.4630 H   0  0  0  0  0  0  0  0  0  0  0  0
  136.7108   70.1811  221.1208 H   0  0  0  0  0  0  0  0  0  0  0  0
  136.4641   68.3855  221.3645 H   0  0  0  0  0  0  0  0  0  0  0  0
  132.5140   71.7203  228.5555 H   0  0  0  0  0  0  0  0  0  0  0  0
  131.6640   72.8842  227.4833 H   0  0  0  0  0  0  0  0  0  0  0  0
  131.1897   71.1517  227.4833 H   0  0  0  0  0  0  0  0  0  0  0  0
  135.8474   74.0919  225.2384 H   0  0  0  0  0  0  0  0  0  0  0  0
  136.2483   73.1086  223.7895 H   0  0  0  0  0  0  0  0  0  0  0  0
  134.7873   74.1537  223.7895 H   0  0  0  0  0  0  0  0  0  0  0  0
  139.9633   70.2797  221.8715 H   0  0  0  0  0  0  0  0  0  0  0  0
  138.3880   71.1719  221.6203 H   0  0  0  0  0  0  0  0  0  0  0  0
  139.7696   71.9303  223.6134 H   0  0  0  0  0  0  0  0  0  0  0  0
  138.0600   71.4497  223.9523 H   0  0  0  0  0  0  0  0  0  0  0  0
  1  2  1  0
  2  3  2  0
  3  4  1  0
  4  5  2  0
  5  6  1  0
  6  7  2  0
  7  8  1  0
  8  9  1  0
  9 10  1  0
 10 11  1  0
 11 12  1  0
 12 13  1  0
 13 14  2  0
 14 15  1  0
 15 16  2  0
 16 17  1  0
 17 18  2  0
 17 19  1  0
 19 20  1  0
 19 21  1  0
 21 22  2  0
 21 23  1  0
 23 24  1  0
 23 25  1  0
 25 26  2  0
 11 27  1  0
 27 28  1  0
  7  2  1  0
 28  8  1  0
 26 13  1  0
 25 16  1  0
  1 29  1  0
  1 30  1  0
  1 31  1  0
  3 32  1  0
  4 33  1  0
  5 34  1  0
  6 35  1  0
  9 36  1  0
  9 37  1  0
 10 38  1  0
 10 39  1  0
 11 40  1  0
 12 41  1  0
 12 42  1  0
 20 43  1  0
 20 44  1  0
 20 45  1  0
 24 46  1  0
 24 47  1  0
 24 48  1  0
 27 49  1  0
 27 50  1  0
 28 51  1  0
 28 52  1  0
M  CHG  1  11   1
M  END
>  <UniqueID>  (73) 
23

>  <SMILES>  (73) 
Cc1ccccc1N1CC[NH+](Cc2nnc3c(=O)n(C)c(=O)n(C)c3n2)CC1

>  <Energy>  (73) 
79.06138861380086

>  <Genealogy>  (73) 
Cc1ccccc1N1CC[NH+](Cc2nnc3c(=O)n(C)c(=O)n(C)c3n2)CC1 (protonated)
Cc1ccccc1N1CC[NH+](Cc2nnc3c(=O)n(C)c(=O)n(C)c3n2)CC1 (3D coordinates assigned)
Cc1ccccc1N1CC[NH+](Cc2nnc3c(=O)n(C)c(=O)n(C)c3n2)CC1 (nonaromatic ring conformer: 79.06138861380086 kcal/mol)

>  <smiles>  (73) 
Cc1ccccc1N1CCN(Cc2nnc3c(=O)n(C)c(=O)n(C)c3n2)CC1

>  <score_type>  (73) 
oracle

>  <origin>  (73) 
autodockgpu

>  <m_score__min__energy>  (73) 
-7.54

>  <m_primary>  (73) 
energy

>  <meeko>  (73) 
{"free_energy": -7.46, "intermolecular_energy": -8.35, "internal_energy": -0.61, "cluster_size": 10, "cluster_id": 1, "rank_in_cluster": 6}

>  <energy>  (73) 
-7.02

>  <cluster_rmsd>  (73) 
0.62

>  <rmsd>  (73) 
271.18

>  <cluster>  (73) 
2

$$$$
IILOZLGKIKELDM-DPVAGCSBNA-O
     RDKit          3D

 52 55  0  0  0  0  0  0  0  0999 V2000
  139.2110   68.1750  225.7700 C   0  0  0  0  0  0  0  0  0  0  0  0
  139.8650   69.4180  226.3070 C   0  0  0  0  0  0  0  0  0  0  0  0
  140.4680   69.3840  227.5750 C   0  0  0  0  0  0  0  0  0  0  0  0
  141.0890   70.5240  228.0940 C   0  0  0  0  0  0  0  0  0  0  0  0
  141.1070   71.7080  227.3570 C   0  0  0  0  0  0  0  0  0  0  0  0
  140.4960   71.7610  226.1020 C   0  0  0  0  0  0  0  0  0  0  0  0
  139.8600   70.6280  225.5760 C   0  0  0  0  0  0  0  0  0  0  0  0
  139.2230   70.7170  224.2920 N   0  0  0  0  0  0  0  0  0  0  0  0
  137.8060   71.0630  224.2020 C   0  0  0  0  0  0  0  0  0  0  0  0
  137.5810   71.8890  222.9350 C   0  0  0  0  0  0  0  0  0  0  0  0
  138.0160   71.1800  221.6980 N   0  0  0  0  0  0  0  0  0  0  0  0
  138.4300   72.1260  220.6290 C   0  0  0  0  0  0  0  0  0  0  0  0
  138.8770   73.4680  221.1460 C   0  0  0  0  0  0  0  0  0  0  0  0
  140.1800   73.6760  221.4710 N   0  0  0  0  0  0  0  0  0  0  0  0
  140.5820   74.8420  221.9770 N   0  0  0  0  0  0  0  0  0  0  0  0
  139.7010   75.8550  222.1850 C   0  0  0  0  0  0  0  0  0  0  0  0
  140.1050   77.0740  222.7210 C   0  0  0  0  0  0  0  0  0  0  0  0
  141.3160   77.2380  223.0440 O   0  0  0  0  0  0  0  0  0  0  0  0
  139.1920   78.0810  222.8940 N   0  0  0  0  0  0  0  0  0  0  0  0
  139.6190   79.3650  223.4780 C   0  0  0  0  0  0  0  0  0  0  0  0
  137.8680   77.8700  222.5900 C   0  0  0  0  0  0  0  0  0  0  0  0
  137.0270   78.7940  222.7800 O   0  0  0  0  0  0  0  0  0  0  0  0
  137.4460   76.6640  222.0830 N   0  0  0  0  0  0  0  0  0  0  0  0
  136.0270   76.4730  221.7310 C   0  0  0  0  0  0  0  0  0  0  0  0
  138.3560   75.6670  221.8540 C   0  0  0  0  0  0  0  0  0  0  0  0
  137.9780   74.4690  221.3330 N   0  0  0  0  0  0  0  0  0  0  0  0
  138.9960   70.0750  221.9110 C   0  0  0  0  0  0  0  0  0  0  0  0
  139.9570   70.3220  223.0870 C   0  0  0  0  0  0  0  0  0  0  0  0
  138.8791   67.5441  226.6078 H   0  0  0  0  0  0  0  0  0  0  0  0
  138.3429   68.4540  225.1547 H   0  0  0  0  0  0  0  0  0  0  0  0
  139.9326   67.6176  225.1547 H   0  0  0  0  0  0  0  0  0  0  0  0
  140.4516   68.4547  228.1634 H   0  0  0  0  0  0  0  0  0  0  0  0
  141.5643   70.4871  229.0853 H   0  0  0  0  0  0  0  0  0  0  0  0
  141.6030   72.6012  227.7646 H   0  0  0  0  0  0  0  0  0  0  0  0
  140.5140   72.6965  225.5236 H   0  0  0  0  0  0  0  0  0  0  0  0
  137.2031   70.1441  224.1564 H   0  0  0  0  0  0  0  0  0  0  0  0
  137.5060   71.6447  225.0861 H   0  0  0  0  0  0  0  0  0  0  0  0
  136.5083   72.1174  222.8503 H   0  0  0  0  0  0  0  0  0  0  0  0
  138.1872   72.8026  223.0234 H   0  0  0  0  0  0  0  0  0  0  0  0
  137.1530   70.7150  221.3240 H   0  0  0  0  0  0  0  0  0  0  0  0
  139.2627   71.6747  220.0697 H   0  0  0  0  0  0  0  0  0  0  0  0
  137.5467   72.3033  219.9978 H   0  0  0  0  0  0  0  0  0  0  0  0
  139.5956   79.2945  224.5755 H   0  0  0  0  0  0  0  0  0  0  0  0
  140.6423   79.5960  223.1472 H   0  0  0  0  0  0  0  0  0  0  0  0
  138.9378   80.1629  223.1472 H   0  0  0  0  0  0  0  0  0  0  0  0
  135.4287   76.3925  222.6506 H   0  0  0  0  0  0  0  0  0  0  0  0
  135.6770   77.3321  221.1399 H   0  0  0  0  0  0  0  0  0  0  0  0
  135.9166   75.5519  221.1399 H   0  0  0  0  0  0  0  0  0  0  0  0
  138.4375   69.1479  222.1072 H   0  0  0  0  0  0  0  0  0  0  0  0
  139.6103   70.0088  221.0009 H   0  0  0  0  0  0  0  0  0  0  0  0
  140.5171   69.3981  223.2938 H   0  0  0  0  0  0  0  0  0  0  0  0
  140.6438   71.1363  222.8128 H   0  0  0  0  0  0  0  0  0  0  0  0
  1  2  1  0
  2  3  2  0
  3  4  1  0
  4  5  2  0
  5  6  1  0
  6  7  2  0
  7  8  1  0
  8  9  1  0
  9 10  1  0
 10 11  1  0
 11 12  1  0
 12 13  1  0
 13 14  2  0
 14 15  1  0
 15 16  2  0
 16 17  1  0
 17 18  2  0
 17 19  1  0
 19 20  1  0
 19 21  1  0
 21 22  2  0
 21 23  1  0
 23 24  1  0
 23 25  1  0
 25 26  2  0
 11 27  1  0
 27 28  1  0
  7  2  1  0
 28  8  1  0
 26 13  1  0
 25 16  1  0
  1 29  1  0
  1 30  1  0
  1 31  1  0
  3 32  1  0
  4 33  1  0
  5 34  1  0
  6 35  1  0
  9 36  1  0
  9 37  1  0
 10 38  1  0
 10 39  1  0
 11 40  1  0
 12 41  1  0
 12 42  1  0
 20 43  1  0
 20 44  1  0
 20 45  1  0
 24 46  1  0
 24 47  1  0
 24 48  1  0
 27 49  1  0
 27 50  1  0
 28 51  1  0
 28 52  1  0
M  CHG  1  11   1
M  END
>  <UniqueID>  (74) 
23

>  <SMILES>  (74) 
Cc1ccccc1N1CC[NH+](Cc2nnc3c(=O)n(C)c(=O)n(C)c3n2)CC1

>  <Energy>  (74) 
79.06138861380086

>  <Genealogy>  (74) 
Cc1ccccc1N1CC[NH+](Cc2nnc3c(=O)n(C)c(=O)n(C)c3n2)CC1 (protonated)
Cc1ccccc1N1CC[NH+](Cc2nnc3c(=O)n(C)c(=O)n(C)c3n2)CC1 (3D coordinates assigned)
Cc1ccccc1N1CC[NH+](Cc2nnc3c(=O)n(C)c(=O)n(C)c3n2)CC1 (nonaromatic ring conformer: 79.06138861380086 kcal/mol)

>  <smiles>  (74) 
Cc1ccccc1N1CCN(Cc2nnc3c(=O)n(C)c(=O)n(C)c3n2)CC1

>  <score_type>  (74) 
oracle

>  <origin>  (74) 
autodockgpu

>  <m_score__min__energy>  (74) 
-7.54

>  <m_primary>  (74) 
energy

>  <meeko>  (74) 
{"free_energy": -6.9, "intermolecular_energy": -7.79, "internal_energy": -0.9, "cluster_size": 3, "cluster_id": 3, "rank_in_cluster": 2}

>  <energy>  (74) 
-7.01

>  <cluster_rmsd>  (74) 
0.61

>  <rmsd>  (74) 
271.17

>  <cluster>  (74) 
2

$$$$
IILOZLGKIKELDM-DPVAGCSBNA-O
     RDKit          3D

 52 55  0  0  0  0  0  0  0  0999 V2000
  139.5250   68.1630  226.4350 C   0  0  0  0  0  0  0  0  0  0  0  0
  140.0800   69.5270  226.7370 C   0  0  0  0  0  0  0  0  0  0  0  0
  140.7540   69.7420  227.9500 C   0  0  0  0  0  0  0  0  0  0  0  0
  141.2850   71.0000  228.2520 C   0  0  0  0  0  0  0  0  0  0  0  0
  141.1410   72.0550  227.3500 C   0  0  0  0  0  0  0  0  0  0  0  0
  140.4590   71.8600  226.1480 C   0  0  0  0  0  0  0  0  0  0  0  0
  139.9110   70.6070  225.8390 C   0  0  0  0  0  0  0  0  0  0  0  0
  139.1970   70.4410  224.6050 N   0  0  0  0  0  0  0  0  0  0  0  0
  137.7370   70.3890  224.6070 C   0  0  0  0  0  0  0  0  0  0  0  0
  137.2200   71.0440  223.3250 C   0  0  0  0  0  0  0  0  0  0  0  0
  137.7540   70.3990  222.0920 N   0  0  0  0  0  0  0  0  0  0  0  0
  137.8300   71.3510  220.9530 C   0  0  0  0  0  0  0  0  0  0  0  0
  138.3620   72.7090  221.3320 C   0  0  0  0  0  0  0  0  0  0  0  0
  139.6900   72.8820  221.5680 N   0  0  0  0  0  0  0  0  0  0  0  0
  140.1680   74.0660  221.9530 N   0  0  0  0  0  0  0  0  0  0  0  0
  139.3440   75.1320  222.1230 C   0  0  0  0  0  0  0  0  0  0  0  0
  139.8280   76.3700  222.5330 C   0  0  0  0  0  0  0  0  0  0  0  0
  141.0610   76.5030  222.7760 O   0  0  0  0  0  0  0  0  0  0  0  0
  138.9690   77.4290  222.6710 N   0  0  0  0  0  0  0  0  0  0  0  0
  139.4820   78.7340  223.1230 C   0  0  0  0  0  0  0  0  0  0  0  0
  137.6220   77.2550  222.4580 C   0  0  0  0  0  0  0  0  0  0  0  0
  136.8330   78.2300  222.6150 O   0  0  0  0  0  0  0  0  0  0  0  0
  137.1220   76.0330  222.0760 N   0  0  0  0  0  0  0  0  0  0  0  0
  135.6780   75.8800  221.8170 C   0  0  0  0  0  0  0  0  0  0  0  0
  137.9750   74.9800  221.8810 C   0  0  0  0  0  0  0  0  0  0  0  0
  137.5180   73.7620  221.4830 N   0  0  0  0  0  0  0  0  0  0  0  0
  139.0080   69.6120  222.2780 C   0  0  0  0  0  0  0  0  0  0  0  0
  139.9350   70.1810  223.3670 C   0  0  0  0  0  0  0  0  0  0  0  0
  139.3111   67.6373  227.3773 H   0  0  0  0  0  0  0  0  0  0  0  0
  138.5970   68.2653  225.8534 H   0  0  0  0  0  0  0  0  0  0  0  0
  140.2608   67.5883  225.8534 H   0  0  0  0  0  0  0  0  0  0  0  0
  140.8650   68.9155  228.6673 H   0  0  0  0  0  0  0  0  0  0  0  0
  141.8169   71.1581  229.2018 H   0  0  0  0  0  0  0  0  0  0  0  0
  141.5656   73.0417  227.5867 H   0  0  0  0  0  0  0  0  0  0  0  0
  140.3508   72.6941  225.4391 H   0  0  0  0  0  0  0  0  0  0  0  0
  137.4042   69.3413  224.6473 H   0  0  0  0  0  0  0  0  0  0  0  0
  137.3446   70.9233  225.4848 H   0  0  0  0  0  0  0  0  0  0  0  0
  136.1224   70.9730  223.3118 H   0  0  0  0  0  0  0  0  0  0  0  0
  137.5608   72.0899  223.3263 H   0  0  0  0  0  0  0  0  0  0  0  0
  137.0280   69.6990  221.8050 H   0  0  0  0  0  0  0  0  0  0  0  0
  138.4902   70.9215  220.1851 H   0  0  0  0  0  0  0  0  0  0  0  0
  136.8026   71.4988  220.5889 H   0  0  0  0  0  0  0  0  0  0  0  0
  139.4933   78.7627  224.2226 H   0  0  0  0  0  0  0  0  0  0  0  0
  140.5038   78.8783  222.7420 H   0  0  0  0  0  0  0  0  0  0  0  0
  138.8320   79.5354  222.7420 H   0  0  0  0  0  0  0  0  0  0  0  0
  135.1379   75.8228  222.7736 H   0  0  0  0  0  0  0  0  0  0  0  0
  135.3149   76.7447  221.2421 H   0  0  0  0  0  0  0  0  0  0  0  0
  135.5042   74.9584  221.2421 H   0  0  0  0  0  0  0  0  0  0  0  0
  138.7352   68.5832  222.5558 H   0  0  0  0  0  0  0  0  0  0  0  0
  139.5608   69.6554  221.3280 H   0  0  0  0  0  0  0  0  0  0  0  0
  140.7360   69.4555  223.5719 H   0  0  0  0  0  0  0  0  0  0  0  0
  140.3565   71.1306  223.0057 H   0  0  0  0  0  0  0  0  0  0  0  0
  1  2  1  0
  2  3  2  0
  3  4  1  0
  4  5  2  0
  5  6  1  0
  6  7  2  0
  7  8  1  0
  8  9  1  0
  9 10  1  0
 10 11  1  0
 11 12  1  0
 12 13  1  0
 13 14  2  0
 14 15  1  0
 15 16  2  0
 16 17  1  0
 17 18  2  0
 17 19  1  0
 19 20  1  0
 19 21  1  0
 21 22  2  0
 21 23  1  0
 23 24  1  0
 23 25  1  0
 25 26  2  0
 11 27  1  0
 27 28  1  0
  7  2  1  0
 28  8  1  0
 26 13  1  0
 25 16  1  0
  1 29  1  0
  1 30  1  0
  1 31  1  0
  3 32  1  0
  4 33  1  0
  5 34  1  0
  6 35  1  0
  9 36  1  0
  9 37  1  0
 10 38  1  0
 10 39  1  0
 11 40  1  0
 12 41  1  0
 12 42  1  0
 20 43  1  0
 20 44  1  0
 20 45  1  0
 24 46  1  0
 24 47  1  0
 24 48  1  0
 27 49  1  0
 27 50  1  0
 28 51  1  0
 28 52  1  0
M  CHG  1  11   1
M  END
>  <UniqueID>  (75) 
23

>  <SMILES>  (75) 
Cc1ccccc1N1CC[NH+](Cc2nnc3c(=O)n(C)c(=O)n(C)c3n2)CC1

>  <Energy>  (75) 
79.06138861380086

>  <Genealogy>  (75) 
Cc1ccccc1N1CC[NH+](Cc2nnc3c(=O)n(C)c(=O)n(C)c3n2)CC1 (protonated)
Cc1ccccc1N1CC[NH+](Cc2nnc3c(=O)n(C)c(=O)n(C)c3n2)CC1 (3D coordinates assigned)
Cc1ccccc1N1CC[NH+](Cc2nnc3c(=O)n(C)c(=O)n(C)c3n2)CC1 (nonaromatic ring conformer: 79.06138861380086 kcal/mol)

>  <smiles>  (75) 
Cc1ccccc1N1CCN(Cc2nnc3c(=O)n(C)c(=O)n(C)c3n2)CC1

>  <score_type>  (75) 
oracle

>  <origin>  (75) 
autodockgpu

>  <m_score__min__energy>  (75) 
-7.54

>  <m_primary>  (75) 
energy

>  <meeko>  (75) 
{"free_energy": -6.75, "intermolecular_energy": -7.64, "internal_energy": -0.98, "cluster_size": 3, "cluster_id": 3, "rank_in_cluster": 3}

>  <energy>  (75) 
-7.01

>  <cluster_rmsd>  (75) 
0.64

>  <rmsd>  (75) 
271.18

>  <cluster>  (75) 
2

$$$$
IILOZLGKIKELDM-DPVAGCSBNA-O
     RDKit          3D

 52 55  0  0  0  0  0  0  0  0999 V2000
  139.2050   68.5400  226.8470 C   0  0  0  0  0  0  0  0  0  0  0  0
  139.9390   69.8450  226.9870 C   0  0  0  0  0  0  0  0  0  0  0  0
  140.4140   70.2350  228.2500 C   0  0  0  0  0  0  0  0  0  0  0  0
  141.1050   71.4400  228.4060 C   0  0  0  0  0  0  0  0  0  0  0  0
  141.3220   72.2700  227.3050 C   0  0  0  0  0  0  0  0  0  0  0  0
  140.8410   71.9030  226.0470 C   0  0  0  0  0  0  0  0  0  0  0  0
  140.1350   70.7030  225.8800 C   0  0  0  0  0  0  0  0  0  0  0  0
  139.6340   70.3610  224.5790 N   0  0  0  0  0  0  0  0  0  0  0  0
  139.8770   69.0290  224.0290 C   0  0  0  0  0  0  0  0  0  0  0  0
  138.6690   68.6170  223.1870 C   0  0  0  0  0  0  0  0  0  0  0  0
  138.3770   69.5800  222.0870 N   0  0  0  0  0  0  0  0  0  0  0  0
  136.9360   69.5900  221.7220 C   0  0  0  0  0  0  0  0  0  0  0  0
  136.0150   69.8130  222.8930 C   0  0  0  0  0  0  0  0  0  0  0  0
  135.3300   68.7700  223.4320 N   0  0  0  0  0  0  0  0  0  0  0  0
  134.4730   68.9600  224.4360 N   0  0  0  0  0  0  0  0  0  0  0  0
  134.2580   70.2000  224.9470 C   0  0  0  0  0  0  0  0  0  0  0  0
  133.3600   70.4130  225.9880 C   0  0  0  0  0  0  0  0  0  0  0  0
  132.7110   69.4360  226.4570 O   0  0  0  0  0  0  0  0  0  0  0  0
  133.1870   71.6750  226.4940 N   0  0  0  0  0  0  0  0  0  0  0  0
  132.2220   71.9010  227.5840 C   0  0  0  0  0  0  0  0  0  0  0  0
  133.8570   72.7380  225.9370 C   0  0  0  0  0  0  0  0  0  0  0  0
  133.6690   73.9030  226.3910 O   0  0  0  0  0  0  0  0  0  0  0  0
  134.7300   72.5510  224.8920 N   0  0  0  0  0  0  0  0  0  0  0  0
  135.4660   73.7010  224.3350 C   0  0  0  0  0  0  0  0  0  0  0  0
  134.9540   71.2880  224.4120 C   0  0  0  0  0  0  0  0  0  0  0  0
  135.8270   71.0620  223.3930 N   0  0  0  0  0  0  0  0  0  0  0  0
  138.9410   70.9490  222.2750 C   0  0  0  0  0  0  0  0  0  0  0  0
  139.0060   71.3910  223.7480 C   0  0  0  0  0  0  0  0  0  0  0  0
  138.9787   68.1377  227.8455 H   0  0  0  0  0  0  0  0  0  0  0  0
  138.2669   68.7042  226.2966 H   0  0  0  0  0  0  0  0  0  0  0  0
  139.8325   67.8236  226.2966 H   0  0  0  0  0  0  0  0  0  0  0  0
  140.2410   69.5877  229.1224 H   0  0  0  0  0  0  0  0  0  0  0  0
  141.4783   71.7346  229.3979 H   0  0  0  0  0  0  0  0  0  0  0  0
  141.8726   73.2142  227.4287 H   0  0  0  0  0  0  0  0  0  0  0  0
  141.0168   72.5590  225.1817 H   0  0  0  0  0  0  0  0  0  0  0  0
  140.7782   69.0479  223.3986 H   0  0  0  0  0  0  0  0  0  0  0  0
  140.0268   68.3082  224.8464 H   0  0  0  0  0  0  0  0  0  0  0  0
  138.8683   67.6292  222.7459 H   0  0  0  0  0  0  0  0  0  0  0  0
  137.7928   68.5973  223.8517 H   0  0  0  0  0  0  0  0  0  0  0  0
  138.8640   69.1950  221.2410 H   0  0  0  0  0  0  0  0  0  0  0  0
  136.7688   70.3946  220.9908 H   0  0  0  0  0  0  0  0  0  0  0  0
  136.7014   68.5958  221.3140 H   0  0  0  0  0  0  0  0  0  0  0  0
  132.7289   71.7823  228.5530 H   0  0  0  0  0  0  0  0  0  0  0  0
  131.8131   72.9192  227.5064 H   0  0  0  0  0  0  0  0  0  0  0  0
  131.4035   71.1702  227.5064 H   0  0  0  0  0  0  0  0  0  0  0  0
  135.8602   74.3169  225.1568 H   0  0  0  0  0  0  0  0  0  0  0  0
  136.2999   73.3378  223.7164 H   0  0  0  0  0  0  0  0  0  0  0  0
  134.7870   74.3061  223.7164 H   0  0  0  0  0  0  0  0  0  0  0  0
  139.9602   70.9651  221.8616 H   0  0  0  0  0  0  0  0  0  0  0  0
  138.2688   71.6490  221.7572 H   0  0  0  0  0  0  0  0  0  0  0  0
  139.5935   72.3182  223.8195 H   0  0  0  0  0  0  0  0  0  0  0  0
  137.9802   71.5552  224.1097 H   0  0  0  0  0  0  0  0  0  0  0  0
  1  2  1  0
  2  3  2  0
  3  4  1  0
  4  5  2  0
  5  6  1  0
  6  7  2  0
  7  8  1  0
  8  9  1  0
  9 10  1  0
 10 11  1  0
 11 12  1  0
 12 13  1  0
 13 14  2  0
 14 15  1  0
 15 16  2  0
 16 17  1  0
 17 18  2  0
 17 19  1  0
 19 20  1  0
 19 21  1  0
 21 22  2  0
 21 23  1  0
 23 24  1  0
 23 25  1  0
 25 26  2  0
 11 27  1  0
 27 28  1  0
  7  2  1  0
 28  8  1  0
 26 13  1  0
 25 16  1  0
  1 29  1  0
  1 30  1  0
  1 31  1  0
  3 32  1  0
  4 33  1  0
  5 34  1  0
  6 35  1  0
  9 36  1  0
  9 37  1  0
 10 38  1  0
 10 39  1  0
 11 40  1  0
 12 41  1  0
 12 42  1  0
 20 43  1  0
 20 44  1  0
 20 45  1  0
 24 46  1  0
 24 47  1  0
 24 48  1  0
 27 49  1  0
 27 50  1  0
 28 51  1  0
 28 52  1  0
M  CHG  1  11   1
M  END
>  <UniqueID>  (76) 
23

>  <SMILES>  (76) 
Cc1ccccc1N1CC[NH+](Cc2nnc3c(=O)n(C)c(=O)n(C)c3n2)CC1

>  <Energy>  (76) 
79.06138861380086

>  <Genealogy>  (76) 
Cc1ccccc1N1CC[NH+](Cc2nnc3c(=O)n(C)c(=O)n(C)c3n2)CC1 (protonated)
Cc1ccccc1N1CC[NH+](Cc2nnc3c(=O)n(C)c(=O)n(C)c3n2)CC1 (3D coordinates assigned)
Cc1ccccc1N1CC[NH+](Cc2nnc3c(=O)n(C)c(=O)n(C)c3n2)CC1 (nonaromatic ring conformer: 79.06138861380086 kcal/mol)

>  <smiles>  (76) 
Cc1ccccc1N1CCN(Cc2nnc3c(=O)n(C)c(=O)n(C)c3n2)CC1

>  <score_type>  (76) 
oracle

>  <origin>  (76) 
autodockgpu

>  <m_score__min__energy>  (76) 
-7.54

>  <m_primary>  (76) 
energy

>  <meeko>  (76) 
{"free_energy": -6.97, "intermolecular_energy": -7.86, "internal_energy": -0.87, "cluster_size": 10, "cluster_id": 1, "rank_in_cluster": 10}

>  <energy>  (76) 
-6.97

>  <cluster_rmsd>  (76) 
1.23

>  <rmsd>  (76) 
271.21

>  <cluster>  (76) 
2

$$$$
IILOZLGKIKELDM-DPVAGCSBNA-O
     RDKit          3D

 52 55  0  0  0  0  0  0  0  0999 V2000
  142.0230   77.5140  220.3870 C   0  0  0  0  0  0  0  0  0  0  0  0
  141.4510   78.3500  221.4980 C   0  0  0  0  0  0  0  0  0  0  0  0
  142.1990   79.4250  222.0050 C   0  0  0  0  0  0  0  0  0  0  0  0
  141.6870   80.2210  223.0340 C   0  0  0  0  0  0  0  0  0  0  0  0
  140.4280   79.9480  223.5700 C   0  0  0  0  0  0  0  0  0  0  0  0
  139.6800   78.8720  223.0860 C   0  0  0  0  0  0  0  0  0  0  0  0
  140.1880   78.0590  222.0640 C   0  0  0  0  0  0  0  0  0  0  0  0
  139.4060   76.9470  221.6000 N   0  0  0  0  0  0  0  0  0  0  0  0
  138.8020   76.9830  220.2710 C   0  0  0  0  0  0  0  0  0  0  0  0
  138.8010   75.5670  219.6930 C   0  0  0  0  0  0  0  0  0  0  0  0
  138.0780   74.5920  220.5580 N   0  0  0  0  0  0  0  0  0  0  0  0
  138.6060   73.2110  220.4030 C   0  0  0  0  0  0  0  0  0  0  0  0
  139.1140   72.6080  221.6880 C   0  0  0  0  0  0  0  0  0  0  0  0
  140.1610   73.1760  222.3430 N   0  0  0  0  0  0  0  0  0  0  0  0
  140.6530   72.6260  223.4530 N   0  0  0  0  0  0  0  0  0  0  0  0
  140.1270   71.4810  223.9600 C   0  0  0  0  0  0  0  0  0  0  0  0
  140.6370   70.8910  225.1120 C   0  0  0  0  0  0  0  0  0  0  0  0
  141.6280   71.4190  225.6910 O   0  0  0  0  0  0  0  0  0  0  0  0
  140.0640   69.7490  225.6060 N   0  0  0  0  0  0  0  0  0  0  0  0
  140.6180   69.1160  226.8160 C   0  0  0  0  0  0  0  0  0  0  0  0
  139.0220   69.1540  224.9350 C   0  0  0  0  0  0  0  0  0  0  0  0
  138.5190   68.0850  225.3820 O   0  0  0  0  0  0  0  0  0  0  0  0
  138.5210   69.7090  223.7810 N   0  0  0  0  0  0  0  0  0  0  0  0
  137.3780   69.0740  223.0990 C   0  0  0  0  0  0  0  0  0  0  0  0
  139.0470   70.8800  223.3050 C   0  0  0  0  0  0  0  0  0  0  0  0
  138.5610   71.4690  222.1790 N   0  0  0  0  0  0  0  0  0  0  0  0
  137.9240   75.0000  221.9850 C   0  0  0  0  0  0  0  0  0  0  0  0
  139.0980   75.8440  222.5140 C   0  0  0  0  0  0  0  0  0  0  0  0
  142.5952   76.6776  220.8148 H   0  0  0  0  0  0  0  0  0  0  0  0
  141.2049   77.1192  219.7667 H   0  0  0  0  0  0  0  0  0  0  0  0
  142.6874   78.1335  219.7667 H   0  0  0  0  0  0  0  0  0  0  0  0
  143.1942   79.6422  221.5898 H   0  0  0  0  0  0  0  0  0  0  0  0
  142.2777   81.0640  223.4217 H   0  0  0  0  0  0  0  0  0  0  0  0
  140.0242   80.5805  224.3743 H   0  0  0  0  0  0  0  0  0  0  0  0
  138.6868   78.6618  223.5095 H   0  0  0  0  0  0  0  0  0  0  0  0
  137.7688   77.3535  220.3441 H   0  0  0  0  0  0  0  0  0  0  0  0
  139.3775   77.6541  219.6164 H   0  0  0  0  0  0  0  0  0  0  0  0
  138.3147   75.5901  218.7066 H   0  0  0  0  0  0  0  0  0  0  0  0
  139.8478   75.2363  219.6235 H   0  0  0  0  0  0  0  0  0  0  0  0
  137.1020   74.5480  220.1770 H   0  0  0  0  0  0  0  0  0  0  0  0
  137.7989   72.5722  220.0150 H   0  0  0  0  0  0  0  0  0  0  0  0
  139.4624   73.2699  219.7152 H   0  0  0  0  0  0  0  0  0  0  0  0
  140.1950   69.5993  227.7090 H   0  0  0  0  0  0  0  0  0  0  0  0
  140.3604   68.0466  226.8211 H   0  0  0  0  0  0  0  0  0  0  0  0
  141.7121   69.2296  226.8211 H   0  0  0  0  0  0  0  0  0  0  0  0
  136.6746   68.6832  223.8490 H   0  0  0  0  0  0  0  0  0  0  0  0
  136.8673   69.8177  222.4697 H   0  0  0  0  0  0  0  0  0  0  0  0
  137.7396   68.2475  222.4697 H   0  0  0  0  0  0  0  0  0  0  0  0
  137.0005   75.5900  222.0804 H   0  0  0  0  0  0  0  0  0  0  0  0
  137.8942   74.0774  222.5833 H   0  0  0  0  0  0  0  0  0  0  0  0
  138.8298   76.2564  223.4979 H   0  0  0  0  0  0  0  0  0  0  0  0
  139.9849   75.1984  222.5953 H   0  0  0  0  0  0  0  0  0  0  0  0
  1  2  1  0
  2  3  2  0
  3  4  1  0
  4  5  2  0
  5  6  1  0
  6  7  2  0
  7  8  1  0
  8  9  1  0
  9 10  1  0
 10 11  1  0
 11 12  1  0
 12 13  1  0
 13 14  2  0
 14 15  1  0
 15 16  2  0
 16 17  1  0
 17 18  2  0
 17 19  1  0
 19 20  1  0
 19 21  1  0
 21 22  2  0
 21 23  1  0
 23 24  1  0
 23 25  1  0
 25 26  2  0
 11 27  1  0
 27 28  1  0
  7  2  1  0
 28  8  1  0
 26 13  1  0
 25 16  1  0
  1 29  1  0
  1 30  1  0
  1 31  1  0
  3 32  1  0
  4 33  1  0
  5 34  1  0
  6 35  1  0
  9 36  1  0
  9 37  1  0
 10 38  1  0
 10 39  1  0
 11 40  1  0
 12 41  1  0
 12 42  1  0
 20 43  1  0
 20 44  1  0
 20 45  1  0
 24 46  1  0
 24 47  1  0
 24 48  1  0
 27 49  1  0
 27 50  1  0
 28 51  1  0
 28 52  1  0
M  CHG  1  11   1
M  END
>  <UniqueID>  (77) 
23

>  <SMILES>  (77) 
Cc1ccccc1N1CC[NH+](Cc2nnc3c(=O)n(C)c(=O)n(C)c3n2)CC1

>  <Energy>  (77) 
79.06138861380086

>  <Genealogy>  (77) 
Cc1ccccc1N1CC[NH+](Cc2nnc3c(=O)n(C)c(=O)n(C)c3n2)CC1 (protonated)
Cc1ccccc1N1CC[NH+](Cc2nnc3c(=O)n(C)c(=O)n(C)c3n2)CC1 (3D coordinates assigned)
Cc1ccccc1N1CC[NH+](Cc2nnc3c(=O)n(C)c(=O)n(C)c3n2)CC1 (nonaromatic ring conformer: 79.06138861380086 kcal/mol)

>  <smiles>  (77) 
Cc1ccccc1N1CCN(Cc2nnc3c(=O)n(C)c(=O)n(C)c3n2)CC1

>  <score_type>  (77) 
oracle

>  <origin>  (77) 
autodockgpu

>  <m_score__min__energy>  (77) 
-7.54

>  <m_primary>  (77) 
energy

>  <meeko>  (77) 
{"free_energy": -6.97, "intermolecular_energy": -7.87, "internal_energy": -0.66, "cluster_size": 7, "cluster_id": 2, "rank_in_cluster": 6}

>  <energy>  (77) 
-6.92

>  <cluster_rmsd>  (77) 
0.73

>  <rmsd>  (77) 
271.14

>  <cluster>  (77) 
2

$$$$
IILOZLGKIKELDM-DPVAGCSBNA-O
     RDKit          3D

 52 55  0  0  0  0  0  0  0  0999 V2000
  139.2340   68.4870  227.0720 C   0  0  0  0  0  0  0  0  0  0  0  0
  139.9160   69.8260  227.0940 C   0  0  0  0  0  0  0  0  0  0  0  0
  140.4100   70.3270  228.3100 C   0  0  0  0  0  0  0  0  0  0  0  0
  141.0540   71.5670  228.3560 C   0  0  0  0  0  0  0  0  0  0  0  0
  141.2050   72.3210  227.1910 C   0  0  0  0  0  0  0  0  0  0  0  0
  140.7050   71.8430  225.9790 C   0  0  0  0  0  0  0  0  0  0  0  0
  140.0460   70.6060  225.9220 C   0  0  0  0  0  0  0  0  0  0  0  0
  139.5240   70.1500  224.6650 N   0  0  0  0  0  0  0  0  0  0  0  0
  139.5910   68.7320  224.3180 C   0  0  0  0  0  0  0  0  0  0  0  0
  138.3520   68.3670  223.4990 C   0  0  0  0  0  0  0  0  0  0  0  0
  138.2130   69.1910  222.2650 N   0  0  0  0  0  0  0  0  0  0  0  0
  136.7920   69.3400  221.8510 C   0  0  0  0  0  0  0  0  0  0  0  0
  135.8520   69.6130  222.9960 C   0  0  0  0  0  0  0  0  0  0  0  0
  135.1040   68.6060  223.5210 N   0  0  0  0  0  0  0  0  0  0  0  0
  134.2310   68.8420  224.5010 N   0  0  0  0  0  0  0  0  0  0  0  0
  134.0610   70.0940  225.0010 C   0  0  0  0  0  0  0  0  0  0  0  0
  133.1460   70.3560  226.0160 C   0  0  0  0  0  0  0  0  0  0  0  0
  132.4400   69.4120  226.4710 O   0  0  0  0  0  0  0  0  0  0  0  0
  133.0200   71.6270  226.5110 N   0  0  0  0  0  0  0  0  0  0  0  0
  132.0380   71.9050  227.5740 C   0  0  0  0  0  0  0  0  0  0  0  0
  133.7550   72.6540  225.9670 C   0  0  0  0  0  0  0  0  0  0  0  0
  133.6110   73.8290  226.4110 O   0  0  0  0  0  0  0  0  0  0  0  0
  134.6450   72.4190  224.9470 N   0  0  0  0  0  0  0  0  0  0  0  0
  135.4490   73.5300  224.4050 C   0  0  0  0  0  0  0  0  0  0  0  0
  134.8220   71.1440  224.4790 C   0  0  0  0  0  0  0  0  0  0  0  0
  135.7100   70.8720  223.4850 N   0  0  0  0  0  0  0  0  0  0  0  0
  138.9550   70.4850  222.2780 C   0  0  0  0  0  0  0  0  0  0  0  0
  139.0560   71.1230  223.6750 C   0  0  0  0  0  0  0  0  0  0  0  0
  139.0607   68.1468  228.1036 H   0  0  0  0  0  0  0  0  0  0  0  0
  138.2707   68.5747  226.5482 H   0  0  0  0  0  0  0  0  0  0  0  0
  139.8714   67.7594  226.5482 H   0  0  0  0  0  0  0  0  0  0  0  0
  140.2893   69.7396  229.2322 H   0  0  0  0  0  0  0  0  0  0  0  0
  141.4423   71.9491  229.3116 H   0  0  0  0  0  0  0  0  0  0  0  0
  141.7187   73.2930  227.2283 H   0  0  0  0  0  0  0  0  0  0  0  0
  140.8283   72.4396  225.0631 H   0  0  0  0  0  0  0  0  0  0  0  0
  140.4968   68.5388  223.7245 H   0  0  0  0  0  0  0  0  0  0  0  0
  139.6266   68.1239  225.2339 H   0  0  0  0  0  0  0  0  0  0  0  0
  138.4217   67.3083  223.2088 H   0  0  0  0  0  0  0  0  0  0  0  0
  137.4703   68.5602  224.1277 H   0  0  0  0  0  0  0  0  0  0  0  0
  138.6550   68.6260  221.5000 H   0  0  0  0  0  0  0  0  0  0  0  0
  136.7237   70.1758  221.1391 H   0  0  0  0  0  0  0  0  0  0  0  0
  136.4854   68.3822  221.4054 H   0  0  0  0  0  0  0  0  0  0  0  0
  132.5135   71.7704  228.5568 H   0  0  0  0  0  0  0  0  0  0  0  0
  131.6784   72.9402  227.4794 H   0  0  0  0  0  0  0  0  0  0  0  0
  131.1891   71.2119  227.4794 H   0  0  0  0  0  0  0  0  0  0  0  0
  135.8724   74.1151  225.2347 H   0  0  0  0  0  0  0  0  0  0  0  0
  136.2648   73.1253  223.7880 H   0  0  0  0  0  0  0  0  0  0  0  0
  134.8096   74.1784  223.7880 H   0  0  0  0  0  0  0  0  0  0  0  0
  139.9735   70.3057  221.9031 H   0  0  0  0  0  0  0  0  0  0  0  0
  138.3929   71.1857  221.6431 H   0  0  0  0  0  0  0  0  0  0  0  0
  139.7634   71.9645  223.6357 H   0  0  0  0  0  0  0  0  0  0  0  0
  138.0566   71.4726  223.9732 H   0  0  0  0  0  0  0  0  0  0  0  0
  1  2  1  0
  2  3  2  0
  3  4  1  0
  4  5  2  0
  5  6  1  0
  6  7  2  0
  7  8  1  0
  8  9  1  0
  9 10  1  0
 10 11  1  0
 11 12  1  0
 12 13  1  0
 13 14  2  0
 14 15  1  0
 15 16  2  0
 16 17  1  0
 17 18  2  0
 17 19  1  0
 19 20  1  0
 19 21  1  0
 21 22  2  0
 21 23  1  0
 23 24  1  0
 23 25  1  0
 25 26  2  0
 11 27  1  0
 27 28  1  0
  7  2  1  0
 28  8  1  0
 26 13  1  0
 25 16  1  0
  1 29  1  0
  1 30  1  0
  1 31  1  0
  3 32  1  0
  4 33  1  0
  5 34  1  0
  6 35  1  0
  9 36  1  0
  9 37  1  0
 10 38  1  0
 10 39  1  0
 11 40  1  0
 12 41  1  0
 12 42  1  0
 20 43  1  0
 20 44  1  0
 20 45  1  0
 24 46  1  0
 24 47  1  0
 24 48  1  0
 27 49  1  0
 27 50  1  0
 28 51  1  0
 28 52  1  0
M  CHG  1  11   1
M  END
>  <UniqueID>  (78) 
23

>  <SMILES>  (78) 
Cc1ccccc1N1CC[NH+](Cc2nnc3c(=O)n(C)c(=O)n(C)c3n2)CC1

>  <Energy>  (78) 
79.06138861380086

>  <Genealogy>  (78) 
Cc1ccccc1N1CC[NH+](Cc2nnc3c(=O)n(C)c(=O)n(C)c3n2)CC1 (protonated)
Cc1ccccc1N1CC[NH+](Cc2nnc3c(=O)n(C)c(=O)n(C)c3n2)CC1 (3D coordinates assigned)
Cc1ccccc1N1CC[NH+](Cc2nnc3c(=O)n(C)c(=O)n(C)c3n2)CC1 (nonaromatic ring conformer: 79.06138861380086 kcal/mol)

>  <smiles>  (78) 
Cc1ccccc1N1CCN(Cc2nnc3c(=O)n(C)c(=O)n(C)c3n2)CC1

>  <score_type>  (78) 
oracle

>  <origin>  (78) 
autodockgpu

>  <m_score__min__energy>  (78) 
-7.54

>  <m_primary>  (78) 
energy

>  <meeko>  (78) 
{"free_energy": -7.47, "intermolecular_energy": -8.36, "internal_energy": -0.61, "cluster_size": 10, "cluster_id": 1, "rank_in_cluster": 5}

>  <energy>  (78) 
-6.91

>  <cluster_rmsd>  (78) 
0.0

>  <rmsd>  (78) 
271.32

>  <cluster>  (78) 
3

$$$$
IILOZLGKIKELDM-DPVAGCSBNA-O
     RDKit          3D

 52 55  0  0  0  0  0  0  0  0999 V2000
  139.2190   68.7320  227.2150 C   0  0  0  0  0  0  0  0  0  0  0  0
  140.0200   70.0020  227.1540 C   0  0  0  0  0  0  0  0  0  0  0  0
  140.5550   70.5360  228.3390 C   0  0  0  0  0  0  0  0  0  0  0  0
  141.3090   71.7130  228.3080 C   0  0  0  0  0  0  0  0  0  0  0  0
  141.5300   72.3710  227.0970 C   0  0  0  0  0  0  0  0  0  0  0  0
  140.9910   71.8610  225.9150 C   0  0  0  0  0  0  0  0  0  0  0  0
  140.2220   70.6880  225.9340 C   0  0  0  0  0  0  0  0  0  0  0  0
  139.6640   70.1980  224.7060 N   0  0  0  0  0  0  0  0  0  0  0  0
  139.5750   68.7590  224.4660 C   0  0  0  0  0  0  0  0  0  0  0  0
  138.3100   68.4720  223.6560 C   0  0  0  0  0  0  0  0  0  0  0  0
  138.2740   69.2110  222.3620 N   0  0  0  0  0  0  0  0  0  0  0  0
  136.8830   69.4840  221.9140 C   0  0  0  0  0  0  0  0  0  0  0  0
  135.9190   69.7310  223.0460 C   0  0  0  0  0  0  0  0  0  0  0  0
  135.1750   68.7100  223.5460 N   0  0  0  0  0  0  0  0  0  0  0  0
  134.2820   68.9230  224.5130 N   0  0  0  0  0  0  0  0  0  0  0  0
  134.0870   70.1660  225.0230 C   0  0  0  0  0  0  0  0  0  0  0  0
  133.1510   70.4050  226.0250 C   0  0  0  0  0  0  0  0  0  0  0  0
  132.4490   69.4470  226.4580 O   0  0  0  0  0  0  0  0  0  0  0  0
  132.9990   71.6690  226.5320 N   0  0  0  0  0  0  0  0  0  0  0  0
  131.9950   71.9220  227.5800 C   0  0  0  0  0  0  0  0  0  0  0  0
  133.7290   72.7120  226.0130 C   0  0  0  0  0  0  0  0  0  0  0  0
  133.5610   73.8790  226.4660 O   0  0  0  0  0  0  0  0  0  0  0  0
  134.6400   72.5000  225.0050 N   0  0  0  0  0  0  0  0  0  0  0  0
  135.4390   73.6270  224.4900 C   0  0  0  0  0  0  0  0  0  0  0  0
  134.8430   71.2330  224.5270 C   0  0  0  0  0  0  0  0  0  0  0  0
  135.7510   70.9830  223.5460 N   0  0  0  0  0  0  0  0  0  0  0  0
  139.1550   70.4130  222.2910 C   0  0  0  0  0  0  0  0  0  0  0  0
  139.3150   71.1390  223.6390 C   0  0  0  0  0  0  0  0  0  0  0  0
  139.0460   68.4577  228.2661 H   0  0  0  0  0  0  0  0  0  0  0  0
  138.2527   68.8835  226.7118 H   0  0  0  0  0  0  0  0  0  0  0  0
  139.7720   67.9252  226.7118 H   0  0  0  0  0  0  0  0  0  0  0  0
  140.3793   70.0246  229.2969 H   0  0  0  0  0  0  0  0  0  0  0  0
  141.7287   72.1211  229.2393 H   0  0  0  0  0  0  0  0  0  0  0  0
  142.1298   73.2928  227.0743 H   0  0  0  0  0  0  0  0  0  0  0  0
  141.1703   72.3819  224.9629 H   0  0  0  0  0  0  0  0  0  0  0  0
  140.4584   68.4226  223.9035 H   0  0  0  0  0  0  0  0  0  0  0  0
  139.5347   68.2218  225.4251 H   0  0  0  0  0  0  0  0  0  0  0  0
  138.2639   67.3932  223.4463 H   0  0  0  0  0  0  0  0  0  0  0  0
  137.4499   68.8079  224.2539 H   0  0  0  0  0  0  0  0  0  0  0  0
  138.6570   68.5450  221.6480 H   0  0  0  0  0  0  0  0  0  0  0  0
  136.8948   70.3739  221.2675 H   0  0  0  0  0  0  0  0  0  0  0  0
  136.5336   68.5852  221.3848 H   0  0  0  0  0  0  0  0  0  0  0  0
  132.4605   71.8047  228.5697 H   0  0  0  0  0  0  0  0  0  0  0  0
  131.6069   72.9460  227.4764 H   0  0  0  0  0  0  0  0  0  0  0  0
  131.1679   71.2042  227.4764 H   0  0  0  0  0  0  0  0  0  0  0  0
  135.8472   74.2028  225.3337 H   0  0  0  0  0  0  0  0  0  0  0  0
  136.2656   73.2401  223.8760 H   0  0  0  0  0  0  0  0  0  0  0  0
  134.8003   74.2790  223.8760 H   0  0  0  0  0  0  0  0  0  0  0  0
  140.1502   70.0951  221.9467 H   0  0  0  0  0  0  0  0  0  0  0  0
  138.6794   71.1216  221.5969 H   0  0  0  0  0  0  0  0  0  0  0  0
  140.1117   71.8921  223.5492 H   0  0  0  0  0  0  0  0  0  0  0  0
  138.3580   71.6176  223.8941 H   0  0  0  0  0  0  0  0  0  0  0  0
  1  2  1  0
  2  3  2  0
  3  4  1  0
  4  5  2  0
  5  6  1  0
  6  7  2  0
  7  8  1  0
  8  9  1  0
  9 10  1  0
 10 11  1  0
 11 12  1  0
 12 13  1  0
 13 14  2  0
 14 15  1  0
 15 16  2  0
 16 17  1  0
 17 18  2  0
 17 19  1  0
 19 20  1  0
 19 21  1  0
 21 22  2  0
 21 23  1  0
 23 24  1  0
 23 25  1  0
 25 26  2  0
 11 27  1  0
 27 28  1  0
  7  2  1  0
 28  8  1  0
 26 13  1  0
 25 16  1  0
  1 29  1  0
  1 30  1  0
  1 31  1  0
  3 32  1  0
  4 33  1  0
  5 34  1  0
  6 35  1  0
  9 36  1  0
  9 37  1  0
 10 38  1  0
 10 39  1  0
 11 40  1  0
 12 41  1  0
 12 42  1  0
 20 43  1  0
 20 44  1  0
 20 45  1  0
 24 46  1  0
 24 47  1  0
 24 48  1  0
 27 49  1  0
 27 50  1  0
 28 51  1  0
 28 52  1  0
M  CHG  1  11   1
M  END
>  <UniqueID>  (79) 
23

>  <SMILES>  (79) 
Cc1ccccc1N1CC[NH+](Cc2nnc3c(=O)n(C)c(=O)n(C)c3n2)CC1

>  <Energy>  (79) 
79.06138861380086

>  <Genealogy>  (79) 
Cc1ccccc1N1CC[NH+](Cc2nnc3c(=O)n(C)c(=O)n(C)c3n2)CC1 (protonated)
Cc1ccccc1N1CC[NH+](Cc2nnc3c(=O)n(C)c(=O)n(C)c3n2)CC1 (3D coordinates assigned)
Cc1ccccc1N1CC[NH+](Cc2nnc3c(=O)n(C)c(=O)n(C)c3n2)CC1 (nonaromatic ring conformer: 79.06138861380086 kcal/mol)

>  <smiles>  (79) 
Cc1ccccc1N1CCN(Cc2nnc3c(=O)n(C)c(=O)n(C)c3n2)CC1

>  <score_type>  (79) 
oracle

>  <origin>  (79) 
autodockgpu

>  <m_score__min__energy>  (79) 
-7.54

>  <m_primary>  (79) 
energy

>  <meeko>  (79) 
{"free_energy": -7.54, "intermolecular_energy": -8.43, "internal_energy": -0.52, "cluster_size": 10, "cluster_id": 1, "rank_in_cluster": 1}

>  <energy>  (79) 
-6.9

>  <cluster_rmsd>  (79) 
0.11

>  <rmsd>  (79) 
271.29

>  <cluster>  (79) 
3

$$$$
IILOZLGKIKELDM-DPVAGCSBNA-O
     RDKit          3D

 52 55  0  0  0  0  0  0  0  0999 V2000
  139.2250   68.4080  226.9930 C   0  0  0  0  0  0  0  0  0  0  0  0
  139.8870   69.7570  227.0390 C   0  0  0  0  0  0  0  0  0  0  0  0
  140.3730   70.2420  228.2650 C   0  0  0  0  0  0  0  0  0  0  0  0
  140.9990   71.4900  228.3340 C   0  0  0  0  0  0  0  0  0  0  0  0
  141.1380   72.2680  227.1840 C   0  0  0  0  0  0  0  0  0  0  0  0
  140.6440   71.8060  225.9630 C   0  0  0  0  0  0  0  0  0  0  0  0
  140.0040   70.5610  225.8820 C   0  0  0  0  0  0  0  0  0  0  0  0
  139.4880   70.1200  224.6170 N   0  0  0  0  0  0  0  0  0  0  0  0
  139.6030   68.7160  224.2310 C   0  0  0  0  0  0  0  0  0  0  0  0
  138.3710   68.3290  223.4120 C   0  0  0  0  0  0  0  0  0  0  0  0
  138.1910   69.1810  222.2020 N   0  0  0  0  0  0  0  0  0  0  0  0
  136.7630   69.2890  221.8030 C   0  0  0  0  0  0  0  0  0  0  0  0
  135.8320   69.5740  222.9530 C   0  0  0  0  0  0  0  0  0  0  0  0
  135.0740   68.5780  223.4820 N   0  0  0  0  0  0  0  0  0  0  0  0
  134.2090   68.8250  224.4660 N   0  0  0  0  0  0  0  0  0  0  0  0
  134.0570   70.0790  224.9660 C   0  0  0  0  0  0  0  0  0  0  0  0
  133.1510   70.3520  225.9860 C   0  0  0  0  0  0  0  0  0  0  0  0
  132.4350   69.4180  226.4450 O   0  0  0  0  0  0  0  0  0  0  0  0
  133.0430   71.6250  226.4810 N   0  0  0  0  0  0  0  0  0  0  0  0
  132.0700   71.9160  227.5480 C   0  0  0  0  0  0  0  0  0  0  0  0
  133.7880   72.6430  225.9320 C   0  0  0  0  0  0  0  0  0  0  0  0
  133.6600   73.8200  226.3760 O   0  0  0  0  0  0  0  0  0  0  0  0
  134.6690   72.3970  224.9070 N   0  0  0  0  0  0  0  0  0  0  0  0
  135.4840   73.4970  224.3610 C   0  0  0  0  0  0  0  0  0  0  0  0
  134.8290   71.1200  224.4400 C   0  0  0  0  0  0  0  0  0  0  0  0
  135.7080   70.8350  223.4420 N   0  0  0  0  0  0  0  0  0  0  0  0
  138.8870   70.5000  222.2450 C   0  0  0  0  0  0  0  0  0  0  0  0
  138.9770   71.1030  223.6580 C   0  0  0  0  0  0  0  0  0  0  0  0
  139.0496   68.0505  228.0184 H   0  0  0  0  0  0  0  0  0  0  0  0
  138.2642   68.4889  226.4635 H   0  0  0  0  0  0  0  0  0  0  0  0
  139.8768   67.6976  226.4635 H   0  0  0  0  0  0  0  0  0  0  0  0
  140.2602   69.6359  229.1760 H   0  0  0  0  0  0  0  0  0  0  0  0
  141.3827   71.8594  229.2965 H   0  0  0  0  0  0  0  0  0  0  0  0
  141.6374   73.2465  227.2397 H   0  0  0  0  0  0  0  0  0  0  0  0
  140.7574   72.4223  225.0589 H   0  0  0  0  0  0  0  0  0  0  0  0
  140.5100   68.5719  223.6255 H   0  0  0  0  0  0  0  0  0  0  0  0
  139.6685   68.0849  225.1296 H   0  0  0  0  0  0  0  0  0  0  0  0
  138.4764   67.2818  223.0921 H   0  0  0  0  0  0  0  0  0  0  0  0
  137.4886   68.4730  224.0528 H   0  0  0  0  0  0  0  0  0  0  0  0
  138.6480   68.6530  221.4180 H   0  0  0  0  0  0  0  0  0  0  0  0
  136.6681   70.1033  221.0695 H   0  0  0  0  0  0  0  0  0  0  0  0
  136.4709   68.3133  221.3875 H   0  0  0  0  0  0  0  0  0  0  0  0
  132.5475   71.7732  228.5286 H   0  0  0  0  0  0  0  0  0  0  0  0
  131.7253   72.9565  227.4561 H   0  0  0  0  0  0  0  0  0  0  0  0
  131.2106   71.2356  227.4561 H   0  0  0  0  0  0  0  0  0  0  0  0
  135.9155   74.0794  225.1885 H   0  0  0  0  0  0  0  0  0  0  0  0
  136.2940   73.0816  223.7435 H   0  0  0  0  0  0  0  0  0  0  0  0
  134.8507   74.1510  223.7435 H   0  0  0  0  0  0  0  0  0  0  0  0
  139.9080   70.3673  221.8578 H   0  0  0  0  0  0  0  0  0  0  0  0
  138.2952   71.1972  221.6337 H   0  0  0  0  0  0  0  0  0  0  0  0
  139.6536   71.9700  223.6366 H   0  0  0  0  0  0  0  0  0  0  0  0
  137.9685   71.4087  223.9734 H   0  0  0  0  0  0  0  0  0  0  0  0
  1  2  1  0
  2  3  2  0
  3  4  1  0
  4  5  2  0
  5  6  1  0
  6  7  2  0
  7  8  1  0
  8  9  1  0
  9 10  1  0
 10 11  1  0
 11 12  1  0
 12 13  1  0
 13 14  2  0
 14 15  1  0
 15 16  2  0
 16 17  1  0
 17 18  2  0
 17 19  1  0
 19 20  1  0
 19 21  1  0
 21 22  2  0
 21 23  1  0
 23 24  1  0
 23 25  1  0
 25 26  2  0
 11 27  1  0
 27 28  1  0
  7  2  1  0
 28  8  1  0
 26 13  1  0
 25 16  1  0
  1 29  1  0
  1 30  1  0
  1 31  1  0
  3 32  1  0
  4 33  1  0
  5 34  1  0
  6 35  1  0
  9 36  1  0
  9 37  1  0
 10 38  1  0
 10 39  1  0
 11 40  1  0
 12 41  1  0
 12 42  1  0
 20 43  1  0
 20 44  1  0
 20 45  1  0
 24 46  1  0
 24 47  1  0
 24 48  1  0
 27 49  1  0
 27 50  1  0
 28 51  1  0
 28 52  1  0
M  CHG  1  11   1
M  END
>  <UniqueID>  (80) 
23

>  <SMILES>  (80) 
Cc1ccccc1N1CC[NH+](Cc2nnc3c(=O)n(C)c(=O)n(C)c3n2)CC1

>  <Energy>  (80) 
79.06138861380086

>  <Genealogy>  (80) 
Cc1ccccc1N1CC[NH+](Cc2nnc3c(=O)n(C)c(=O)n(C)c3n2)CC1 (protonated)
Cc1ccccc1N1CC[NH+](Cc2nnc3c(=O)n(C)c(=O)n(C)c3n2)CC1 (3D coordinates assigned)
Cc1ccccc1N1CC[NH+](Cc2nnc3c(=O)n(C)c(=O)n(C)c3n2)CC1 (nonaromatic ring conformer: 79.06138861380086 kcal/mol)

>  <smiles>  (80) 
Cc1ccccc1N1CCN(Cc2nnc3c(=O)n(C)c(=O)n(C)c3n2)CC1

>  <score_type>  (80) 
oracle

>  <origin>  (80) 
autodockgpu

>  <m_score__min__energy>  (80) 
-7.54

>  <m_primary>  (80) 
energy

>  <meeko>  (80) 
{"free_energy": -7.35, "intermolecular_energy": -8.25, "internal_energy": -0.65, "cluster_size": 10, "cluster_id": 1, "rank_in_cluster": 8}

>  <energy>  (80) 
-6.75

>  <cluster_rmsd>  (80) 
0.76

>  <rmsd>  (80) 
271.19

>  <cluster>  (80) 
3

$$$$
