JXJFNMZAUJJYED-HIWRTBCQNA-N
     RDKit          3D

 46 48  0  0  0  0  0  0  0  0999 V2000
  139.1320   74.1750  223.0930 H   0  0  0  0  0  0  0  0  0  0  0  0
  139.8840   73.7470  222.5650 O   0  0  0  0  0  0  0  0  0  0  0  0
  139.9010   72.3780  222.3130 C   0  0  0  0  0  0  0  0  0  0  0  0
  139.8730   71.9710  221.0730 N   0  0  0  0  0  0  0  0  0  0  0  0
  140.9510   71.3540  220.3000 C   0  0  0  0  0  0  0  0  0  0  0  0
  140.5392   70.5202  219.7124 H   0  0  0  0  0  0  0  0  0  0  0  0
  141.7190   70.9934  221.0001 H   0  0  0  0  0  0  0  0  0  0  0  0
  141.5880   72.3470  219.3640 C   0  0  0  0  0  0  0  0  0  0  0  0
  140.9420   72.7290  218.3510 O   0  0  0  0  0  0  0  0  0  0  0  0
  142.9190   72.8520  219.5940 N   0  0  0  0  0  0  0  0  0  0  0  0
  144.1190   72.2490  219.0320 C   0  0  0  0  0  0  0  0  0  0  0  0
  144.0938   72.2996  217.9335 H   0  0  0  0  0  0  0  0  0  0  0  0
  144.2036   71.1874  219.3075 H   0  0  0  0  0  0  0  0  0  0  0  0
  145.2920   73.0630  219.5740 C   0  0  2  0  0  0  0  0  0  0  0  0
  145.7071   73.7387  218.8117 H   0  0  0  0  0  0  0  0  0  0  0  0
  146.3420   72.2190  219.9650 O   0  0  0  0  0  0  0  0  0  0  0  0
  146.1080   71.8780  220.8670 H   0  0  0  0  0  0  0  0  0  0  0  0
  144.7360   73.8480  220.7670 C   0  0  0  0  0  0  0  0  0  0  0  0
  145.1524   74.8660  220.7829 H   0  0  0  0  0  0  0  0  0  0  0  0
  145.0025   73.3733  221.7228 H   0  0  0  0  0  0  0  0  0  0  0  0
  143.2170   73.8960  220.5660 C   0  0  1  0  0  0  0  0  0  0  0  0
  142.6952   73.7306  221.5201 H   0  0  0  0  0  0  0  0  0  0  0  0
  142.7160   75.2760  220.0900 C   0  0  0  0  0  0  0  0  0  0  0  0
  142.5555   75.2343  219.0026 H   0  0  0  0  0  0  0  0  0  0  0  0
  143.4821   76.0160  220.3649 H   0  0  0  0  0  0  0  0  0  0  0  0
  141.1470   75.7880  220.8930 S   0  0  0  0  0  0  0  0  0  0  0  0
  141.4640   77.5820  220.8460 C   0  0  0  0  0  0  0  0  0  0  0  0
  141.5324   77.9693  221.8733 H   0  0  0  0  0  0  0  0  0  0  0  0
  142.4099   77.7735  220.3182 H   0  0  0  0  0  0  0  0  0  0  0  0
  140.6410   78.0861  220.3182 H   0  0  0  0  0  0  0  0  0  0  0  0
  139.9310   71.4560  223.4730 C   0  0  0  0  0  0  0  0  0  0  0  0
  140.4270   71.8670  224.6720 N   0  0  0  0  0  0  0  0  0  0  0  0
  140.4480   71.0570  225.7630 C   0  0  0  0  0  0  0  0  0  0  0  0
  140.9830   71.5180  226.9720 C   0  0  0  0  0  0  0  0  0  0  0  0
  141.3836   72.5401  227.0421 H   0  0  0  0  0  0  0  0  0  0  0  0
  141.0080   70.6790  228.0900 C   0  0  0  0  0  0  0  0  0  0  0  0
  141.4298   71.0423  229.0387 H   0  0  0  0  0  0  0  0  0  0  0  0
  140.4980   69.3780  228.0060 C   0  0  0  0  0  0  0  0  0  0  0  0
  140.5250   68.5710  229.0940 F   0  0  0  0  0  0  0  0  0  0  0  0
  139.9610   68.9100  226.8020 C   0  0  0  0  0  0  0  0  0  0  0  0
  139.5602   67.8876  226.7387 H   0  0  0  0  0  0  0  0  0  0  0  0
  139.9340   69.7450  225.6760 C   0  0  0  0  0  0  0  0  0  0  0  0
  139.4030   69.3080  224.4560 C   0  0  0  0  0  0  0  0  0  0  0  0
  138.9938   68.2909  224.3659 H   0  0  0  0  0  0  0  0  0  0  0  0
  139.3940   70.1650  223.3550 C   0  0  0  0  0  0  0  0  0  0  0  0
  138.9675   69.8299  222.3980 H   0  0  0  0  0  0  0  0  0  0  0  0
  1  2  1  0
  2  3  1  0
  3  4  2  0
  4  5  1  0
  5  6  1  0
  5  7  1  0
  5  8  1  0
  8  9  2  0
  8 10  1  0
 10 11  1  0
 11 12  1  0
 11 13  1  0
 11 14  1  0
 14 15  1  6
 14 16  1  0
 16 17  1  0
 14 18  1  0
 18 19  1  0
 18 20  1  0
 18 21  1  0
 21 22  1  1
 21 23  1  0
 23 24  1  0
 23 25  1  0
 23 26  1  0
 26 27  1  0
 27 28  1  0
 27 29  1  0
 27 30  1  0
  3 31  1  0
 31 32  2  0
 32 33  1  0
 33 34  2  0
 34 35  1  0
 34 36  1  0
 36 37  1  0
 36 38  2  0
 38 39  1  0
 38 40  1  0
 40 41  1  0
 40 42  2  0
 42 43  1  0
 43 44  1  0
 43 45  2  0
 45 46  1  0
 21 10  1  0
 45 31  1  0
 42 33  1  0
M  END
>  <UniqueID>  (1) 
5

>  <SMILES>  (1) 
CSC[C@@H]1C[C@@H](O)CN1C(=O)C/N=C(/O)c1ccc2cc(F)ccc2n1

>  <Energy>  (1) 
44.935584706592124

>  <Genealogy>  (1) 
CSC[C@@H]1C[C@@H](O)CN1C(=O)CN=C(O)c1ccc2cc(F)ccc2n1 (tautomer)
CSC[C@@H]1C[C@@H](O)CN1C(=O)C/N=C(/O)c1ccc2cc(F)ccc2n1 (cis-trans isomerization)
CSC[C@@H]1C[C@@H](O)CN1C(=O)C/N=C(/O)c1ccc2cc(F)ccc2n1 (3D coordinates assigned)
CSC[C@@H]1C[C@@H](O)CN1C(=O)C/N=C(/O)c1ccc2cc(F)ccc2n1 (nonaromatic ring conformer: 44.935584706592124 kcal/mol)

>  <smiles>  (1) 
CSC[C@@H]1C[C@@H](O)CN1C(=O)CNC(=O)c1ccc2cc(F)ccc2n1

>  <score_type>  (1) 
oracle

>  <origin>  (1) 
autodockgpu

>  <m_score__min__energy>  (1) 
-7.4699999999999998

>  <m_primary>  (1) 
energy

>  <meeko>  (1) 
{"free_energy": -7.13, "intermolecular_energy": -9.81, "internal_energy": -1.06, "cluster_size": 9, "cluster_id": 3, "rank_in_cluster": 3}

>  <energy>  (1) 
-7.47

>  <cluster_rmsd>  (1) 
0.0

>  <rmsd>  (1) 
271.86

>  <cluster>  (1) 
1

$$$$
JXJFNMZAUJJYED-HIWRTBCQNA-N
     RDKit          3D

 46 48  0  0  0  0  0  0  0  0999 V2000
  141.5260   71.3130  220.9990 H   0  0  0  0  0  0  0  0  0  0  0  0
  140.6970   71.8930  221.0670 O   0  0  0  0  0  0  0  0  0  0  0  0
  140.3040   72.4480  222.2830 C   0  0  0  0  0  0  0  0  0  0  0  0
  140.0960   73.7360  222.3420 N   0  0  0  0  0  0  0  0  0  0  0  0
  138.9350   74.4860  221.8650 C   0  0  0  0  0  0  0  0  0  0  0  0
  138.0219   74.0386  222.2847 H   0  0  0  0  0  0  0  0  0  0  0  0
  138.9196   74.4414  220.7660 H   0  0  0  0  0  0  0  0  0  0  0  0
  139.0100   75.9310  222.2820 C   0  0  0  0  0  0  0  0  0  0  0  0
  138.2150   76.3490  223.1670 O   0  0  0  0  0  0  0  0  0  0  0  0
  139.9530   76.8410  221.6810 N   0  0  0  0  0  0  0  0  0  0  0  0
  140.4170   76.7310  220.3060 C   0  0  0  0  0  0  0  0  0  0  0  0
  139.5762   76.8556  219.6077 H   0  0  0  0  0  0  0  0  0  0  0  0
  140.8614   75.7444  220.1084 H   0  0  0  0  0  0  0  0  0  0  0  0
  141.4360   77.8520  220.1150 C   0  0  2  0  0  0  0  0  0  0  0  0
  141.0208   78.6865  219.5308 H   0  0  0  0  0  0  0  0  0  0  0  0
  142.5530   77.3900  219.4020 O   0  0  0  0  0  0  0  0  0  0  0  0
  143.3410   77.5380  219.9870 H   0  0  0  0  0  0  0  0  0  0  0  0
  141.8250   78.3030  221.5260 C   0  0  0  0  0  0  0  0  0  0  0  0
  141.9284   79.3975  221.5629 H   0  0  0  0  0  0  0  0  0  0  0  0
  142.7898   77.8746  221.8352 H   0  0  0  0  0  0  0  0  0  0  0  0
  140.6860   77.8440  222.4430 C   0  0  1  0  0  0  0  0  0  0  0  0
  141.0866   77.4363  223.3828 H   0  0  0  0  0  0  0  0  0  0  0  0
  139.7670   79.0020  222.8880 C   0  0  0  0  0  0  0  0  0  0  0  0
  139.5562   78.8891  223.9617 H   0  0  0  0  0  0  0  0  0  0  0  0
  138.8514   78.9464  222.2809 H   0  0  0  0  0  0  0  0  0  0  0  0
  140.5100   80.6580  222.6090 S   0  0  0  0  0  0  0  0  0  0  0  0
  141.8480   80.4970  223.8350 C   0  0  0  0  0  0  0  0  0  0  0  0
  141.4244   80.5480  224.8489 H   0  0  0  0  0  0  0  0  0  0  0  0
  142.3564   79.5312  223.6982 H   0  0  0  0  0  0  0  0  0  0  0  0
  142.5710   81.3146  223.6982 H   0  0  0  0  0  0  0  0  0  0  0  0
  140.1610   71.5450  223.4480 C   0  0  0  0  0  0  0  0  0  0  0  0
  140.6640   71.8960  224.6630 N   0  0  0  0  0  0  0  0  0  0  0  0
  140.5310   71.1030  225.7590 C   0  0  0  0  0  0  0  0  0  0  0  0
  141.0790   71.4990  226.9850 C   0  0  0  0  0  0  0  0  0  0  0  0
  141.6157   72.4559  227.0641 H   0  0  0  0  0  0  0  0  0  0  0  0
  140.9440   70.6780  228.1090 C   0  0  0  0  0  0  0  0  0  0  0  0
  141.3764   70.9899  229.0712 H   0  0  0  0  0  0  0  0  0  0  0  0
  140.2600   69.4600  228.0130 C   0  0  0  0  0  0  0  0  0  0  0  0
  140.1330   68.6690  229.1060 F   0  0  0  0  0  0  0  0  0  0  0  0
  139.7090   69.0570  226.7910 C   0  0  0  0  0  0  0  0  0  0  0  0
  139.1729   68.0993  226.7181 H   0  0  0  0  0  0  0  0  0  0  0  0
  139.8410   69.8750  225.6600 C   0  0  0  0  0  0  0  0  0  0  0  0
  139.3010   69.5020  224.4230 C   0  0  0  0  0  0  0  0  0  0  0  0
  138.7575   68.5509  224.3230 H   0  0  0  0  0  0  0  0  0  0  0  0
  139.4540   70.3400  223.3170 C   0  0  0  0  0  0  0  0  0  0  0  0
  139.0217   70.0566  222.3460 H   0  0  0  0  0  0  0  0  0  0  0  0
  1  2  1  0
  2  3  1  0
  3  4  2  0
  4  5  1  0
  5  6  1  0
  5  7  1  0
  5  8  1  0
  8  9  2  0
  8 10  1  0
 10 11  1  0
 11 12  1  0
 11 13  1  0
 11 14  1  0
 14 15  1  6
 14 16  1  0
 16 17  1  0
 14 18  1  0
 18 19  1  0
 18 20  1  0
 18 21  1  0
 21 22  1  1
 21 23  1  0
 23 24  1  0
 23 25  1  0
 23 26  1  0
 26 27  1  0
 27 28  1  0
 27 29  1  0
 27 30  1  0
  3 31  1  0
 31 32  2  0
 32 33  1  0
 33 34  2  0
 34 35  1  0
 34 36  1  0
 36 37  1  0
 36 38  2  0
 38 39  1  0
 38 40  1  0
 40 41  1  0
 40 42  2  0
 42 43  1  0
 43 44  1  0
 43 45  2  0
 45 46  1  0
 21 10  1  0
 45 31  1  0
 42 33  1  0
M  END
>  <UniqueID>  (2) 
5

>  <SMILES>  (2) 
CSC[C@@H]1C[C@@H](O)CN1C(=O)C/N=C(/O)c1ccc2cc(F)ccc2n1

>  <Energy>  (2) 
44.935584706592124

>  <Genealogy>  (2) 
CSC[C@@H]1C[C@@H](O)CN1C(=O)CN=C(O)c1ccc2cc(F)ccc2n1 (tautomer)
CSC[C@@H]1C[C@@H](O)CN1C(=O)C/N=C(/O)c1ccc2cc(F)ccc2n1 (cis-trans isomerization)
CSC[C@@H]1C[C@@H](O)CN1C(=O)C/N=C(/O)c1ccc2cc(F)ccc2n1 (3D coordinates assigned)
CSC[C@@H]1C[C@@H](O)CN1C(=O)C/N=C(/O)c1ccc2cc(F)ccc2n1 (nonaromatic ring conformer: 44.935584706592124 kcal/mol)

>  <smiles>  (2) 
CSC[C@@H]1C[C@@H](O)CN1C(=O)CNC(=O)c1ccc2cc(F)ccc2n1

>  <score_type>  (2) 
oracle

>  <origin>  (2) 
autodockgpu

>  <m_score__min__energy>  (2) 
-7.4699999999999998

>  <m_primary>  (2) 
energy

>  <meeko>  (2) 
{"free_energy": -6.74, "intermolecular_energy": -9.43, "internal_energy": -0.71, "cluster_size": 1, "cluster_id": 4, "rank_in_cluster": 1}

>  <energy>  (2) 
-6.3

>  <cluster_rmsd>  (2) 
1.39

>  <rmsd>  (2) 
271.84

>  <cluster>  (2) 
1

$$$$
JXJFNMZAUJJYED-HIWRTBCQNA-N
     RDKit          3D

 46 48  0  0  0  0  0  0  0  0999 V2000
  137.1400   73.0140  223.7480 H   0  0  0  0  0  0  0  0  0  0  0  0
  137.3610   72.2750  223.0910 O   0  0  0  0  0  0  0  0  0  0  0  0
  138.6490   71.7510  223.0030 C   0  0  0  0  0  0  0  0  0  0  0  0
  139.4010   72.1120  221.9980 N   0  0  0  0  0  0  0  0  0  0  0  0
  140.7600   72.6520  222.0370 C   0  0  0  0  0  0  0  0  0  0  0  0
  141.1673   72.5254  223.0509 H   0  0  0  0  0  0  0  0  0  0  0  0
  140.7193   73.7171  221.7653 H   0  0  0  0  0  0  0  0  0  0  0  0
  141.6560   71.9440  221.0560 C   0  0  0  0  0  0  0  0  0  0  0  0
  141.3340   70.7910  220.6610 O   0  0  0  0  0  0  0  0  0  0  0  0
  142.8750   72.5480  220.5780 N   0  0  0  0  0  0  0  0  0  0  0  0
  143.9600   71.7990  219.9620 C   0  0  0  0  0  0  0  0  0  0  0  0
  143.6162   71.3243  219.0312 H   0  0  0  0  0  0  0  0  0  0  0  0
  144.3218   70.9977  220.6230 H   0  0  0  0  0  0  0  0  0  0  0  0
  145.0590   72.8160  219.6640 C   0  0  2  0  0  0  0  0  0  0  0  0
  145.1041   73.0667  218.5939 H   0  0  0  0  0  0  0  0  0  0  0  0
  146.3190   72.2980  219.9990 O   0  0  0  0  0  0  0  0  0  0  0  0
  146.2250   71.8890  220.8990 H   0  0  0  0  0  0  0  0  0  0  0  0
  144.7220   74.0490  220.5100 C   0  0  0  0  0  0  0  0  0  0  0  0
  144.9219   74.9694  219.9417 H   0  0  0  0  0  0  0  0  0  0  0  0
  145.3336   74.0919  221.4233 H   0  0  0  0  0  0  0  0  0  0  0  0
  143.2290   73.9380  220.8370 C   0  0  1  0  0  0  0  0  0  0  0  0
  143.0396   74.2220  221.8827 H   0  0  0  0  0  0  0  0  0  0  0  0
  142.3590   74.9100  220.0130 C   0  0  0  0  0  0  0  0  0  0  0  0
  141.8314   74.3357  219.2372 H   0  0  0  0  0  0  0  0  0  0  0  0
  143.0313   75.6656  219.5806 H   0  0  0  0  0  0  0  0  0  0  0  0
  141.1150   75.8010  221.0280 S   0  0  0  0  0  0  0  0  0  0  0  0
  141.6430   77.4850  220.5750 C   0  0  0  0  0  0  0  0  0  0  0  0
  141.8264   78.0699  221.4884 H   0  0  0  0  0  0  0  0  0  0  0  0
  142.5677   77.4322  219.9816 H   0  0  0  0  0  0  0  0  0  0  0  0
  140.8537   77.9696  219.9816 H   0  0  0  0  0  0  0  0  0  0  0  0
  139.0860   70.7950  224.0470 C   0  0  0  0  0  0  0  0  0  0  0  0
  139.6770   71.2400  225.1900 N   0  0  0  0  0  0  0  0  0  0  0  0
  140.0700   70.3940  226.1780 C   0  0  0  0  0  0  0  0  0  0  0  0
  140.6890   70.8960  227.3290 C   0  0  0  0  0  0  0  0  0  0  0  0
  140.8553   71.9780  227.4369 H   0  0  0  0  0  0  0  0  0  0  0  0
  141.0960   70.0210  228.3420 C   0  0  0  0  0  0  0  0  0  0  0  0
  141.5841   70.4166  229.2449 H   0  0  0  0  0  0  0  0  0  0  0  0
  140.8840   68.6440  228.2100 C   0  0  0  0  0  0  0  0  0  0  0  0
  141.2800   67.8030  229.1950 F   0  0  0  0  0  0  0  0  0  0  0  0
  140.2650   68.1340  227.0630 C   0  0  0  0  0  0  0  0  0  0  0  0
  140.1000   67.0512  226.9619 H   0  0  0  0  0  0  0  0  0  0  0  0
  139.8550   69.0050  226.0420 C   0  0  0  0  0  0  0  0  0  0  0  0
  139.2330   68.5280  224.8830 C   0  0  0  0  0  0  0  0  0  0  0  0
  139.0540   67.4499  224.7575 H   0  0  0  0  0  0  0  0  0  0  0  0
  138.8400   69.4230  223.8860 C   0  0  0  0  0  0  0  0  0  0  0  0
  138.3398   69.0542  222.9784 H   0  0  0  0  0  0  0  0  0  0  0  0
  1  2  1  0
  2  3  1  0
  3  4  2  0
  4  5  1  0
  5  6  1  0
  5  7  1  0
  5  8  1  0
  8  9  2  0
  8 10  1  0
 10 11  1  0
 11 12  1  0
 11 13  1  0
 11 14  1  0
 14 15  1  6
 14 16  1  0
 16 17  1  0
 14 18  1  0
 18 19  1  0
 18 20  1  0
 18 21  1  0
 21 22  1  1
 21 23  1  0
 23 24  1  0
 23 25  1  0
 23 26  1  0
 26 27  1  0
 27 28  1  0
 27 29  1  0
 27 30  1  0
  3 31  1  0
 31 32  2  0
 32 33  1  0
 33 34  2  0
 34 35  1  0
 34 36  1  0
 36 37  1  0
 36 38  2  0
 38 39  1  0
 38 40  1  0
 40 41  1  0
 40 42  2  0
 42 43  1  0
 43 44  1  0
 43 45  2  0
 45 46  1  0
 21 10  1  0
 45 31  1  0
 42 33  1  0
M  END
>  <UniqueID>  (3) 
5

>  <SMILES>  (3) 
CSC[C@@H]1C[C@@H](O)CN1C(=O)C/N=C(/O)c1ccc2cc(F)ccc2n1

>  <Energy>  (3) 
44.935584706592124

>  <Genealogy>  (3) 
CSC[C@@H]1C[C@@H](O)CN1C(=O)CN=C(O)c1ccc2cc(F)ccc2n1 (tautomer)
CSC[C@@H]1C[C@@H](O)CN1C(=O)C/N=C(/O)c1ccc2cc(F)ccc2n1 (cis-trans isomerization)
CSC[C@@H]1C[C@@H](O)CN1C(=O)C/N=C(/O)c1ccc2cc(F)ccc2n1 (3D coordinates assigned)
CSC[C@@H]1C[C@@H](O)CN1C(=O)C/N=C(/O)c1ccc2cc(F)ccc2n1 (nonaromatic ring conformer: 44.935584706592124 kcal/mol)

>  <smiles>  (3) 
CSC[C@@H]1C[C@@H](O)CN1C(=O)CNC(=O)c1ccc2cc(F)ccc2n1

>  <score_type>  (3) 
oracle

>  <origin>  (3) 
autodockgpu

>  <m_score__min__energy>  (3) 
-7.4699999999999998

>  <m_primary>  (3) 
energy

>  <meeko>  (3) 
{"free_energy": -6.72, "intermolecular_energy": -9.4, "internal_energy": -0.87, "cluster_size": 9, "cluster_id": 3, "rank_in_cluster": 9}

>  <energy>  (3) 
-7.4

>  <cluster_rmsd>  (3) 
0.0

>  <rmsd>  (3) 
272.25

>  <cluster>  (3) 
2

$$$$
JXJFNMZAUJJYED-HIWRTBCQNA-N
     RDKit          3D

 46 48  0  0  0  0  0  0  0  0999 V2000
  139.1960   74.1530  223.0980 H   0  0  0  0  0  0  0  0  0  0  0  0
  139.8830   73.7420  222.4770 O   0  0  0  0  0  0  0  0  0  0  0  0
  139.9190   72.3690  222.2490 C   0  0  0  0  0  0  0  0  0  0  0  0
  139.9310   71.9420  221.0150 N   0  0  0  0  0  0  0  0  0  0  0  0
  141.0880   71.7160  220.1490 C   0  0  0  0  0  0  0  0  0  0  0  0
  140.7805   71.0956  219.2943 H   0  0  0  0  0  0  0  0  0  0  0  0
  141.8682   71.2091  220.7358 H   0  0  0  0  0  0  0  0  0  0  0  0
  141.6470   73.0160  219.6360 C   0  0  0  0  0  0  0  0  0  0  0  0
  140.8580   73.8610  219.1340 O   0  0  0  0  0  0  0  0  0  0  0  0
  143.0590   73.3030  219.6910 N   0  0  0  0  0  0  0  0  0  0  0  0
  144.0850   72.4130  219.1690 C   0  0  0  0  0  0  0  0  0  0  0  0
  143.9680   72.2910  218.0821 H   0  0  0  0  0  0  0  0  0  0  0  0
  144.0163   71.4117  219.6193 H   0  0  0  0  0  0  0  0  0  0  0  0
  145.4220   73.0780  219.4870 C   0  0  2  0  0  0  0  0  0  0  0  0
  145.8729   73.5366  218.5946 H   0  0  0  0  0  0  0  0  0  0  0  0
  146.3480   72.1320  219.9530 O   0  0  0  0  0  0  0  0  0  0  0  0
  146.0450   71.8640  220.8590 H   0  0  0  0  0  0  0  0  0  0  0  0
  145.1160   74.1310  220.5580 C   0  0  0  0  0  0  0  0  0  0  0  0
  145.6961   75.0467  220.3711 H   0  0  0  0  0  0  0  0  0  0  0  0
  145.3857   73.7749  221.5632 H   0  0  0  0  0  0  0  0  0  0  0  0
  143.6150   74.4190  220.4470 C   0  0  1  0  0  0  0  0  0  0  0  0
  143.1627   74.5055  221.4460 H   0  0  0  0  0  0  0  0  0  0  0  0
  143.3100   75.7720  219.7700 C   0  0  0  0  0  0  0  0  0  0  0  0
  144.0734   76.4998  220.0822 H   0  0  0  0  0  0  0  0  0  0  0  0
  142.3000   76.0754  220.0828 H   0  0  0  0  0  0  0  0  0  0  0  0
  143.3100   75.6750  217.9360 S   0  0  0  0  0  0  0  0  0  0  0  0
  142.8800   77.4210  217.6350 C   0  0  0  0  0  0  0  0  0  0  0  0
  142.7526   77.9384  218.5973 H   0  0  0  0  0  0  0  0  0  0  0  0
  143.6861   77.9038  217.0630 H   0  0  0  0  0  0  0  0  0  0  0  0
  141.9419   77.4742  217.0630 H   0  0  0  0  0  0  0  0  0  0  0  0
  139.9220   71.4670  223.4240 C   0  0  0  0  0  0  0  0  0  0  0  0
  140.4650   71.8690  224.6060 N   0  0  0  0  0  0  0  0  0  0  0  0
  140.4630   71.0770  225.7100 C   0  0  0  0  0  0  0  0  0  0  0  0
  141.0490   71.5270  226.8990 C   0  0  0  0  0  0  0  0  0  0  0  0
  141.5086   72.5254  226.9422 H   0  0  0  0  0  0  0  0  0  0  0  0
  141.0500   70.7070  228.0320 C   0  0  0  0  0  0  0  0  0  0  0  0
  141.5110   71.0623  228.9654 H   0  0  0  0  0  0  0  0  0  0  0  0
  140.4660   69.4350  227.9820 C   0  0  0  0  0  0  0  0  0  0  0  0
  140.4700   68.6460  229.0830 F   0  0  0  0  0  0  0  0  0  0  0  0
  139.8780   68.9790  226.7970 C   0  0  0  0  0  0  0  0  0  0  0  0
  139.4188   67.9801  226.7599 H   0  0  0  0  0  0  0  0  0  0  0  0
  139.8740   69.7950  225.6570 C   0  0  0  0  0  0  0  0  0  0  0  0
  139.2940   69.3680  224.4560 C   0  0  0  0  0  0  0  0  0  0  0  0
  138.8270   68.3741  224.3920 H   0  0  0  0  0  0  0  0  0  0  0  0
  139.3100   70.2070  223.3400 C   0  0  0  0  0  0  0  0  0  0  0  0
  138.8444   69.8814  222.3981 H   0  0  0  0  0  0  0  0  0  0  0  0
  1  2  1  0
  2  3  1  0
  3  4  2  0
  4  5  1  0
  5  6  1  0
  5  7  1  0
  5  8  1  0
  8  9  2  0
  8 10  1  0
 10 11  1  0
 11 12  1  0
 11 13  1  0
 11 14  1  0
 14 15  1  6
 14 16  1  0
 16 17  1  0
 14 18  1  0
 18 19  1  0
 18 20  1  0
 18 21  1  0
 21 22  1  1
 21 23  1  0
 23 24  1  0
 23 25  1  0
 23 26  1  0
 26 27  1  0
 27 28  1  0
 27 29  1  0
 27 30  1  0
  3 31  1  0
 31 32  2  0
 32 33  1  0
 33 34  2  0
 34 35  1  0
 34 36  1  0
 36 37  1  0
 36 38  2  0
 38 39  1  0
 38 40  1  0
 40 41  1  0
 40 42  2  0
 42 43  1  0
 43 44  1  0
 43 45  2  0
 45 46  1  0
 21 10  1  0
 45 31  1  0
 42 33  1  0
M  END
>  <UniqueID>  (4) 
5

>  <SMILES>  (4) 
CSC[C@@H]1C[C@@H](O)CN1C(=O)C/N=C(/O)c1ccc2cc(F)ccc2n1

>  <Energy>  (4) 
44.935584706592124

>  <Genealogy>  (4) 
CSC[C@@H]1C[C@@H](O)CN1C(=O)CN=C(O)c1ccc2cc(F)ccc2n1 (tautomer)
CSC[C@@H]1C[C@@H](O)CN1C(=O)C/N=C(/O)c1ccc2cc(F)ccc2n1 (cis-trans isomerization)
CSC[C@@H]1C[C@@H](O)CN1C(=O)C/N=C(/O)c1ccc2cc(F)ccc2n1 (3D coordinates assigned)
CSC[C@@H]1C[C@@H](O)CN1C(=O)C/N=C(/O)c1ccc2cc(F)ccc2n1 (nonaromatic ring conformer: 44.935584706592124 kcal/mol)

>  <smiles>  (4) 
CSC[C@@H]1C[C@@H](O)CN1C(=O)CNC(=O)c1ccc2cc(F)ccc2n1

>  <score_type>  (4) 
oracle

>  <origin>  (4) 
autodockgpu

>  <m_score__min__energy>  (4) 
-7.4699999999999998

>  <m_primary>  (4) 
energy

>  <meeko>  (4) 
{"free_energy": -7.22, "intermolecular_energy": -9.9, "internal_energy": -0.98, "cluster_size": 9, "cluster_id": 3, "rank_in_cluster": 1}

>  <energy>  (4) 
-7.35

>  <cluster_rmsd>  (4) 
0.37

>  <rmsd>  (4) 
272.25

>  <cluster>  (4) 
2

$$$$
JXJFNMZAUJJYED-HIWRTBCQNA-N
     RDKit          3D

 46 48  0  0  0  0  0  0  0  0999 V2000
  139.1620   73.8750  223.0210 H   0  0  0  0  0  0  0  0  0  0  0  0
  139.9000   73.6550  222.3620 O   0  0  0  0  0  0  0  0  0  0  0  0
  140.4490   72.3760  222.2940 C   0  0  0  0  0  0  0  0  0  0  0  0
  141.0800   72.0250  221.2070 N   0  0  0  0  0  0  0  0  0  0  0  0
  140.7450   72.3530  219.8220 C   0  0  0  0  0  0  0  0  0  0  0  0
  139.6683   72.5682  219.7550 H   0  0  0  0  0  0  0  0  0  0  0  0
  141.0102   71.4943  219.1877 H   0  0  0  0  0  0  0  0  0  0  0  0
  141.5160   73.5540  219.3430 C   0  0  0  0  0  0  0  0  0  0  0  0
  140.8870   74.5110  218.8170 O   0  0  0  0  0  0  0  0  0  0  0  0
  142.9520   73.6220  219.4590 N   0  0  0  0  0  0  0  0  0  0  0  0
  143.8540   72.6200  218.9110 C   0  0  0  0  0  0  0  0  0  0  0  0
  143.7626   72.5817  217.8155 H   0  0  0  0  0  0  0  0  0  0  0  0
  143.6202   71.6153  219.2930 H   0  0  0  0  0  0  0  0  0  0  0  0
  145.2610   73.0570  219.3110 C   0  0  2  0  0  0  0  0  0  0  0  0
  145.8087   73.4957  218.4639 H   0  0  0  0  0  0  0  0  0  0  0  0
  146.0190   71.9560  219.7410 O   0  0  0  0  0  0  0  0  0  0  0  0
  145.8490   71.8620  220.7150 H   0  0  0  0  0  0  0  0  0  0  0  0
  145.0740   74.0780  220.4370 C   0  0  0  0  0  0  0  0  0  0  0  0
  145.7901   74.9055  220.3260 H   0  0  0  0  0  0  0  0  0  0  0  0
  145.2494   73.6268  221.4248 H   0  0  0  0  0  0  0  0  0  0  0  0
  143.6380   74.5940  220.3010 C   0  0  1  0  0  0  0  0  0  0  0  0
  143.1658   74.6876  221.2901 H   0  0  0  0  0  0  0  0  0  0  0  0
  143.5630   76.0150  219.7040 C   0  0  0  0  0  0  0  0  0  0  0  0
  144.4970   76.5448  219.9428 H   0  0  0  0  0  0  0  0  0  0  0  0
  142.6847   76.5097  220.1442 H   0  0  0  0  0  0  0  0  0  0  0  0
  143.3380   76.0200  217.8820 S   0  0  0  0  0  0  0  0  0  0  0  0
  142.5710   77.6690  217.7700 C   0  0  0  0  0  0  0  0  0  0  0  0
  142.3898   78.0586  218.7826 H   0  0  0  0  0  0  0  0  0  0  0  0
  143.2445   78.3507  217.2299 H   0  0  0  0  0  0  0  0  0  0  0  0
  141.6157   77.5932  217.2299 H   0  0  0  0  0  0  0  0  0  0  0  0
  140.2670   71.4780  223.4580 C   0  0  0  0  0  0  0  0  0  0  0  0
  140.6880   71.8540  224.6970 N   0  0  0  0  0  0  0  0  0  0  0  0
  140.5170   71.0660  225.7900 C   0  0  0  0  0  0  0  0  0  0  0  0
  140.9820   71.4880  227.0420 C   0  0  0  0  0  0  0  0  0  0  0  0
  141.4839   72.4616  227.1429 H   0  0  0  0  0  0  0  0  0  0  0  0
  140.8080   70.6710  228.1640 C   0  0  0  0  0  0  0  0  0  0  0  0
  141.1741   71.0034  229.1466 H   0  0  0  0  0  0  0  0  0  0  0  0
  140.1690   69.4310  228.0400 C   0  0  0  0  0  0  0  0  0  0  0  0
  140.0040   68.6460  229.1320 F   0  0  0  0  0  0  0  0  0  0  0  0
  139.7020   69.0030  226.7930 C   0  0  0  0  0  0  0  0  0  0  0  0
  139.2005   68.0285  226.6985 H   0  0  0  0  0  0  0  0  0  0  0  0
  139.8730   69.8160  225.6630 C   0  0  0  0  0  0  0  0  0  0  0  0
  139.4160   69.4170  224.4020 C   0  0  0  0  0  0  0  0  0  0  0  0
  138.9077   68.4491  224.2805 H   0  0  0  0  0  0  0  0  0  0  0  0
  139.6070   70.2510  223.2980 C   0  0  0  0  0  0  0  0  0  0  0  0
  139.2410   69.9464  222.3064 H   0  0  0  0  0  0  0  0  0  0  0  0
  1  2  1  0
  2  3  1  0
  3  4  2  0
  4  5  1  0
  5  6  1  0
  5  7  1  0
  5  8  1  0
  8  9  2  0
  8 10  1  0
 10 11  1  0
 11 12  1  0
 11 13  1  0
 11 14  1  0
 14 15  1  6
 14 16  1  0
 16 17  1  0
 14 18  1  0
 18 19  1  0
 18 20  1  0
 18 21  1  0
 21 22  1  1
 21 23  1  0
 23 24  1  0
 23 25  1  0
 23 26  1  0
 26 27  1  0
 27 28  1  0
 27 29  1  0
 27 30  1  0
  3 31  1  0
 31 32  2  0
 32 33  1  0
 33 34  2  0
 34 35  1  0
 34 36  1  0
 36 37  1  0
 36 38  2  0
 38 39  1  0
 38 40  1  0
 40 41  1  0
 40 42  2  0
 42 43  1  0
 43 44  1  0
 43 45  2  0
 45 46  1  0
 21 10  1  0
 45 31  1  0
 42 33  1  0
M  END
>  <UniqueID>  (5) 
5

>  <SMILES>  (5) 
CSC[C@@H]1C[C@@H](O)CN1C(=O)C/N=C(/O)c1ccc2cc(F)ccc2n1

>  <Energy>  (5) 
44.935584706592124

>  <Genealogy>  (5) 
CSC[C@@H]1C[C@@H](O)CN1C(=O)CN=C(O)c1ccc2cc(F)ccc2n1 (tautomer)
CSC[C@@H]1C[C@@H](O)CN1C(=O)C/N=C(/O)c1ccc2cc(F)ccc2n1 (cis-trans isomerization)
CSC[C@@H]1C[C@@H](O)CN1C(=O)C/N=C(/O)c1ccc2cc(F)ccc2n1 (3D coordinates assigned)
CSC[C@@H]1C[C@@H](O)CN1C(=O)C/N=C(/O)c1ccc2cc(F)ccc2n1 (nonaromatic ring conformer: 44.935584706592124 kcal/mol)

>  <smiles>  (5) 
CSC[C@@H]1C[C@@H](O)CN1C(=O)CNC(=O)c1ccc2cc(F)ccc2n1

>  <score_type>  (5) 
oracle

>  <origin>  (5) 
autodockgpu

>  <m_score__min__energy>  (5) 
-7.4699999999999998

>  <m_primary>  (5) 
energy

>  <meeko>  (5) 
{"free_energy": -7.11, "intermolecular_energy": -9.8, "internal_energy": -0.97, "cluster_size": 9, "cluster_id": 3, "rank_in_cluster": 4}

>  <energy>  (5) 
-7.35

>  <cluster_rmsd>  (5) 
0.16

>  <rmsd>  (5) 
272.24

>  <cluster>  (5) 
2

$$$$
JXJFNMZAUJJYED-HIWRTBCQNA-N
     RDKit          3D

 46 48  0  0  0  0  0  0  0  0999 V2000
  138.7540   75.1730  223.0530 H   0  0  0  0  0  0  0  0  0  0  0  0
  137.8850   75.4230  222.5950 O   0  0  0  0  0  0  0  0  0  0  0  0
  137.7860   76.5740  221.8170 C   0  0  0  0  0  0  0  0  0  0  0  0
  137.0730   76.5280  220.7240 N   0  0  0  0  0  0  0  0  0  0  0  0
  137.4870   76.8620  219.3610 C   0  0  0  0  0  0  0  0  0  0  0  0
  137.8472   77.9012  219.3398 H   0  0  0  0  0  0  0  0  0  0  0  0
  136.6214   76.7379  218.6937 H   0  0  0  0  0  0  0  0  0  0  0  0
  138.5880   75.9510  218.8880 C   0  0  0  0  0  0  0  0  0  0  0  0
  138.6950   75.7190  217.6540 O   0  0  0  0  0  0  0  0  0  0  0  0
  139.5040   75.3320  219.8140 N   0  0  0  0  0  0  0  0  0  0  0  0
  139.2280   74.0830  220.5090 C   0  0  0  0  0  0  0  0  0  0  0  0
  139.1171   73.2602  219.7874 H   0  0  0  0  0  0  0  0  0  0  0  0
  138.2922   74.1398  221.0844 H   0  0  0  0  0  0  0  0  0  0  0  0
  140.4290   73.8340  221.4170 C   0  0  2  0  0  0  0  0  0  0  0  0
  141.0884   73.0505  221.0154 H   0  0  0  0  0  0  0  0  0  0  0  0
  140.0110   73.3880  222.6800 O   0  0  0  0  0  0  0  0  0  0  0  0
  139.0800   73.7120  222.7990 H   0  0  0  0  0  0  0  0  0  0  0  0
  141.1610   75.1760  221.5160 C   0  0  0  0  0  0  0  0  0  0  0  0
  142.2497   75.0208  221.4928 H   0  0  0  0  0  0  0  0  0  0  0  0
  140.9272   75.6956  222.4569 H   0  0  0  0  0  0  0  0  0  0  0  0
  140.7120   75.9890  220.2970 C   0  0  1  0  0  0  0  0  0  0  0  0
  140.5272   77.0365  220.5774 H   0  0  0  0  0  0  0  0  0  0  0  0
  141.7920   76.0710  219.1970 C   0  0  0  0  0  0  0  0  0  0  0  0
  141.5502   75.3377  218.4135 H   0  0  0  0  0  0  0  0  0  0  0  0
  142.7614   75.8608  219.6725 H   0  0  0  0  0  0  0  0  0  0  0  0
  141.9090   77.7330  218.4260 S   0  0  0  0  0  0  0  0  0  0  0  0
  141.4800   78.6870  219.9180 C   0  0  0  0  0  0  0  0  0  0  0  0
  141.7419   78.1045  220.8136 H   0  0  0  0  0  0  0  0  0  0  0  0
  142.0387   79.6346  219.9206 H   0  0  0  0  0  0  0  0  0  0  0  0
  140.4004   78.8979  219.9206 H   0  0  0  0  0  0  0  0  0  0  0  0
  138.5120   77.7850  222.2660 C   0  0  0  0  0  0  0  0  0  0  0  0
  139.8200   77.7100  222.6370 N   0  0  0  0  0  0  0  0  0  0  0  0
  140.5240   78.8040  223.0310 C   0  0  0  0  0  0  0  0  0  0  0  0
  141.8630   78.6760  223.4190 C   0  0  0  0  0  0  0  0  0  0  0  0
  142.3489   77.6893  223.4015 H   0  0  0  0  0  0  0  0  0  0  0  0
  142.5830   79.8030  223.8290 C   0  0  0  0  0  0  0  0  0  0  0  0
  143.6349   79.7009  224.1341 H   0  0  0  0  0  0  0  0  0  0  0  0
  141.9680   81.0610  223.8520 C   0  0  0  0  0  0  0  0  0  0  0  0
  142.6720   82.1480  224.2500 F   0  0  0  0  0  0  0  0  0  0  0  0
  140.6300   81.1970  223.4650 C   0  0  0  0  0  0  0  0  0  0  0  0
  140.1497   82.1864  223.4832 H   0  0  0  0  0  0  0  0  0  0  0  0
  139.9020   80.0710  223.0540 C   0  0  0  0  0  0  0  0  0  0  0  0
  138.5630   80.1730  222.6600 C   0  0  0  0  0  0  0  0  0  0  0  0
  138.0595   81.1510  222.6663 H   0  0  0  0  0  0  0  0  0  0  0  0
  137.8680   79.0310  222.2590 C   0  0  0  0  0  0  0  0  0  0  0  0
  136.8185   79.1079  221.9385 H   0  0  0  0  0  0  0  0  0  0  0  0
  1  2  1  0
  2  3  1  0
  3  4  2  0
  4  5  1  0
  5  6  1  0
  5  7  1  0
  5  8  1  0
  8  9  2  0
  8 10  1  0
 10 11  1  0
 11 12  1  0
 11 13  1  0
 11 14  1  0
 14 15  1  6
 14 16  1  0
 16 17  1  0
 14 18  1  0
 18 19  1  0
 18 20  1  0
 18 21  1  0
 21 22  1  1
 21 23  1  0
 23 24  1  0
 23 25  1  0
 23 26  1  0
 26 27  1  0
 27 28  1  0
 27 29  1  0
 27 30  1  0
  3 31  1  0
 31 32  2  0
 32 33  1  0
 33 34  2  0
 34 35  1  0
 34 36  1  0
 36 37  1  0
 36 38  2  0
 38 39  1  0
 38 40  1  0
 40 41  1  0
 40 42  2  0
 42 43  1  0
 43 44  1  0
 43 45  2  0
 45 46  1  0
 21 10  1  0
 45 31  1  0
 42 33  1  0
M  END
>  <UniqueID>  (6) 
5

>  <SMILES>  (6) 
CSC[C@@H]1C[C@@H](O)CN1C(=O)C/N=C(/O)c1ccc2cc(F)ccc2n1

>  <Energy>  (6) 
44.935584706592124

>  <Genealogy>  (6) 
CSC[C@@H]1C[C@@H](O)CN1C(=O)CN=C(O)c1ccc2cc(F)ccc2n1 (tautomer)
CSC[C@@H]1C[C@@H](O)CN1C(=O)C/N=C(/O)c1ccc2cc(F)ccc2n1 (cis-trans isomerization)
CSC[C@@H]1C[C@@H](O)CN1C(=O)C/N=C(/O)c1ccc2cc(F)ccc2n1 (3D coordinates assigned)
CSC[C@@H]1C[C@@H](O)CN1C(=O)C/N=C(/O)c1ccc2cc(F)ccc2n1 (nonaromatic ring conformer: 44.935584706592124 kcal/mol)

>  <smiles>  (6) 
CSC[C@@H]1C[C@@H](O)CN1C(=O)CNC(=O)c1ccc2cc(F)ccc2n1

>  <score_type>  (6) 
oracle

>  <origin>  (6) 
autodockgpu

>  <m_score__min__energy>  (6) 
-7.4699999999999998

>  <m_primary>  (6) 
energy

>  <meeko>  (6) 
{"free_energy": -4.56, "intermolecular_energy": -7.24, "internal_energy": -3.19, "cluster_size": 3, "cluster_id": 5, "rank_in_cluster": 3}

>  <energy>  (6) 
-6.81

>  <cluster_rmsd>  (6) 
1.04

>  <rmsd>  (6) 
272.2

>  <cluster>  (6) 
2

$$$$
JXJFNMZAUJJYED-HIWRTBCQNA-N
     RDKit          3D

 46 48  0  0  0  0  0  0  0  0999 V2000
  138.4640   73.3740  222.9140 H   0  0  0  0  0  0  0  0  0  0  0  0
  138.3090   72.3900  222.7260 O   0  0  0  0  0  0  0  0  0  0  0  0
  139.3670   71.4850  222.6960 C   0  0  0  0  0  0  0  0  0  0  0  0
  140.1370   71.4610  221.6410 N   0  0  0  0  0  0  0  0  0  0  0  0
  140.2380   72.4560  220.5740 C   0  0  0  0  0  0  0  0  0  0  0  0
  139.2375   72.6320  220.1520 H   0  0  0  0  0  0  0  0  0  0  0  0
  140.9226   72.0714  219.8037 H   0  0  0  0  0  0  0  0  0  0  0  0
  140.7880   73.7580  221.0920 C   0  0  0  0  0  0  0  0  0  0  0  0
  140.2120   74.3160  222.0640 O   0  0  0  0  0  0  0  0  0  0  0  0
  141.9400   74.3820  220.4890 N   0  0  0  0  0  0  0  0  0  0  0  0
  142.1370   75.8220  220.4250 C   0  0  0  0  0  0  0  0  0  0  0  0
  142.2123   76.2428  221.4385 H   0  0  0  0  0  0  0  0  0  0  0  0
  141.2939   76.3220  219.9259 H   0  0  0  0  0  0  0  0  0  0  0  0
  143.4430   76.0350  219.6640 C   0  0  2  0  0  0  0  0  0  0  0  0
  144.2672   76.3129  220.3374 H   0  0  0  0  0  0  0  0  0  0  0  0
  143.3150   77.0870  218.7440 O   0  0  0  0  0  0  0  0  0  0  0  0
  143.7170   77.8860  219.1750 H   0  0  0  0  0  0  0  0  0  0  0  0
  143.7300   74.7080  218.9540 C   0  0  0  0  0  0  0  0  0  0  0  0
  144.8049   74.4778  218.9929 H   0  0  0  0  0  0  0  0  0  0  0  0
  143.4444   74.7478  217.8925 H   0  0  0  0  0  0  0  0  0  0  0  0
  142.9290   73.6440  219.7130 C   0  0  1  0  0  0  0  0  0  0  0  0
  142.4593   72.9390  219.0113 H   0  0  0  0  0  0  0  0  0  0  0  0
  143.8110   72.7550  220.6140 C   0  0  0  0  0  0  0  0  0  0  0  0
  143.4000   71.7347  220.6092 H   0  0  0  0  0  0  0  0  0  0  0  0
  143.8024   73.1974  221.6211 H   0  0  0  0  0  0  0  0  0  0  0  0
  145.5610   72.6830  220.0620 S   0  0  0  0  0  0  0  0  0  0  0  0
  146.2870   73.3900  221.5770 C   0  0  0  0  0  0  0  0  0  0  0  0
  145.8155   72.9308  222.4584 H   0  0  0  0  0  0  0  0  0  0  0  0
  147.3684   73.1895  221.5935 H   0  0  0  0  0  0  0  0  0  0  0  0
  146.1152   74.4764  221.5935 H   0  0  0  0  0  0  0  0  0  0  0  0
  139.5480   70.5850  223.8580 C   0  0  0  0  0  0  0  0  0  0  0  0
  140.1500   71.0330  224.9940 N   0  0  0  0  0  0  0  0  0  0  0  0
  140.3120   70.2420  226.0870 C   0  0  0  0  0  0  0  0  0  0  0  0
  140.9530   70.7410  227.2280 C   0  0  0  0  0  0  0  0  0  0  0  0
  141.3240   71.7764  227.2423 H   0  0  0  0  0  0  0  0  0  0  0  0
  141.1210   69.9220  228.3490 C   0  0  0  0  0  0  0  0  0  0  0  0
  141.6251   70.3150  229.2442 H   0  0  0  0  0  0  0  0  0  0  0  0
  140.6500   68.6040  228.3360 C   0  0  0  0  0  0  0  0  0  0  0  0
  140.8170   67.8170  229.4260 F   0  0  0  0  0  0  0  0  0  0  0  0
  140.0080   68.0980  227.2000 C   0  0  0  0  0  0  0  0  0  0  0  0
  139.6385   67.0619  227.1924 H   0  0  0  0  0  0  0  0  0  0  0  0
  139.8360   68.9120  226.0720 C   0  0  0  0  0  0  0  0  0  0  0  0
  139.1970   68.4380  224.9200 C   0  0  0  0  0  0  0  0  0  0  0  0
  138.8147   67.4071  224.8865 H   0  0  0  0  0  0  0  0  0  0  0  0
  139.0460   69.2760  223.8140 C   0  0  0  0  0  0  0  0  0  0  0  0
  138.5350   68.9110  222.9108 H   0  0  0  0  0  0  0  0  0  0  0  0
  1  2  1  0
  2  3  1  0
  3  4  2  0
  4  5  1  0
  5  6  1  0
  5  7  1  0
  5  8  1  0
  8  9  2  0
  8 10  1  0
 10 11  1  0
 11 12  1  0
 11 13  1  0
 11 14  1  0
 14 15  1  1
 14 16  1  0
 16 17  1  0
 14 18  1  0
 18 19  1  0
 18 20  1  0
 18 21  1  0
 21 22  1  6
 21 23  1  0
 23 24  1  0
 23 25  1  0
 23 26  1  0
 26 27  1  0
 27 28  1  0
 27 29  1  0
 27 30  1  0
  3 31  1  0
 31 32  2  0
 32 33  1  0
 33 34  2  0
 34 35  1  0
 34 36  1  0
 36 37  1  0
 36 38  2  0
 38 39  1  0
 38 40  1  0
 40 41  1  0
 40 42  2  0
 42 43  1  0
 43 44  1  0
 43 45  2  0
 45 46  1  0
 21 10  1  0
 45 31  1  0
 42 33  1  0
M  END
>  <UniqueID>  (7) 
5

>  <SMILES>  (7) 
CSC[C@@H]1C[C@@H](O)CN1C(=O)C/N=C(/O)c1ccc2cc(F)ccc2n1

>  <Energy>  (7) 
44.935584706592124

>  <Genealogy>  (7) 
CSC[C@@H]1C[C@@H](O)CN1C(=O)CN=C(O)c1ccc2cc(F)ccc2n1 (tautomer)
CSC[C@@H]1C[C@@H](O)CN1C(=O)C/N=C(/O)c1ccc2cc(F)ccc2n1 (cis-trans isomerization)
CSC[C@@H]1C[C@@H](O)CN1C(=O)C/N=C(/O)c1ccc2cc(F)ccc2n1 (3D coordinates assigned)
CSC[C@@H]1C[C@@H](O)CN1C(=O)C/N=C(/O)c1ccc2cc(F)ccc2n1 (nonaromatic ring conformer: 44.935584706592124 kcal/mol)

>  <smiles>  (7) 
CSC[C@@H]1C[C@@H](O)CN1C(=O)CNC(=O)c1ccc2cc(F)ccc2n1

>  <score_type>  (7) 
oracle

>  <origin>  (7) 
autodockgpu

>  <m_score__min__energy>  (7) 
-7.4699999999999998

>  <m_primary>  (7) 
energy

>  <meeko>  (7) 
{"free_energy": -7.4, "intermolecular_energy": -10.09, "internal_energy": -1.44, "cluster_size": 5, "cluster_id": 2, "rank_in_cluster": 1}

>  <energy>  (7) 
-6.73

>  <cluster_rmsd>  (7) 
1.81

>  <rmsd>  (7) 
272.14

>  <cluster>  (7) 
2

$$$$
JXJFNMZAUJJYED-HIWRTBCQNA-N
     RDKit          3D

 46 48  0  0  0  0  0  0  0  0999 V2000
  139.2810   73.9720  223.1160 H   0  0  0  0  0  0  0  0  0  0  0  0
  139.9490   73.7180  222.3970 O   0  0  0  0  0  0  0  0  0  0  0  0
  140.3870   72.4040  222.2510 C   0  0  0  0  0  0  0  0  0  0  0  0
  140.8760   72.0350  221.0980 N   0  0  0  0  0  0  0  0  0  0  0  0
  140.4900   72.4930  219.7640 C   0  0  0  0  0  0  0  0  0  0  0  0
  140.0500   73.4980  219.8434 H   0  0  0  0  0  0  0  0  0  0  0  0
  139.7610   71.7812  219.3495 H   0  0  0  0  0  0  0  0  0  0  0  0
  141.6780   72.5490  218.8410 C   0  0  0  0  0  0  0  0  0  0  0  0
  141.5300   72.2010  217.6380 O   0  0  0  0  0  0  0  0  0  0  0  0
  142.9750   72.9730  219.3080 N   0  0  0  0  0  0  0  0  0  0  0  0
  144.2300   72.4320  218.8060 C   0  0  0  0  0  0  0  0  0  0  0  0
  144.3414   72.6556  217.7348 H   0  0  0  0  0  0  0  0  0  0  0  0
  144.2705   71.3383  218.9164 H   0  0  0  0  0  0  0  0  0  0  0  0
  145.3340   73.1170  219.6090 C   0  0  2  0  0  0  0  0  0  0  0  0
  145.8468   73.8923  219.0208 H   0  0  0  0  0  0  0  0  0  0  0  0
  146.3200   72.1920  219.9840 O   0  0  0  0  0  0  0  0  0  0  0  0
  146.0740   71.8710  220.8910 H   0  0  0  0  0  0  0  0  0  0  0  0
  144.6410   73.7200  220.8350 C   0  0  0  0  0  0  0  0  0  0  0  0
  145.0610   74.7107  221.0631 H   0  0  0  0  0  0  0  0  0  0  0  0
  144.7827   73.0932  221.7278 H   0  0  0  0  0  0  0  0  0  0  0  0
  143.1600   73.8420  220.4630 C   0  0  1  0  0  0  0  0  0  0  0  0
  142.5230   73.5433  221.3086 H   0  0  0  0  0  0  0  0  0  0  0  0
  142.7340   75.2940  220.1560 C   0  0  0  0  0  0  0  0  0  0  0  0
  143.1539   75.9533  220.9300 H   0  0  0  0  0  0  0  0  0  0  0  0
  141.6343   75.3187  220.1469 H   0  0  0  0  0  0  0  0  0  0  0  0
  143.3090   75.8800  218.5140 S   0  0  0  0  0  0  0  0  0  0  0  0
  142.5820   77.5480  218.6210 C   0  0  0  0  0  0  0  0  0  0  0  0
  142.4601   77.8277  219.6778 H   0  0  0  0  0  0  0  0  0  0  0  0
  143.2469   78.2703  218.1249 H   0  0  0  0  0  0  0  0  0  0  0  0
  141.6002   77.5526  218.1249 H   0  0  0  0  0  0  0  0  0  0  0  0
  140.2540   71.4920  223.4100 C   0  0  0  0  0  0  0  0  0  0  0  0
  140.6780   71.8740  224.6460 N   0  0  0  0  0  0  0  0  0  0  0  0
  140.5500   71.0720  225.7350 C   0  0  0  0  0  0  0  0  0  0  0  0
  141.0170   71.5020  226.9830 C   0  0  0  0  0  0  0  0  0  0  0  0
  141.4851   72.4923  227.0840 H   0  0  0  0  0  0  0  0  0  0  0  0
  140.8880   70.6720  228.1010 C   0  0  0  0  0  0  0  0  0  0  0  0
  141.2564   71.0104  229.0807 H   0  0  0  0  0  0  0  0  0  0  0  0
  140.2910   69.4110  227.9770 C   0  0  0  0  0  0  0  0  0  0  0  0
  140.1690   68.6130  229.0650 F   0  0  0  0  0  0  0  0  0  0  0  0
  139.8220   68.9750  226.7340 C   0  0  0  0  0  0  0  0  0  0  0  0
  139.3535   67.9842  226.6394 H   0  0  0  0  0  0  0  0  0  0  0  0
  139.9490   69.8010  225.6080 C   0  0  0  0  0  0  0  0  0  0  0  0
  139.4890   69.3950  224.3500 C   0  0  0  0  0  0  0  0  0  0  0  0
  139.0143   68.4102  224.2281 H   0  0  0  0  0  0  0  0  0  0  0  0
  139.6340   70.2430  223.2500 C   0  0  0  0  0  0  0  0  0  0  0  0
  139.2636   69.9332  222.2616 H   0  0  0  0  0  0  0  0  0  0  0  0
  1  2  1  0
  2  3  1  0
  3  4  2  0
  4  5  1  0
  5  6  1  0
  5  7  1  0
  5  8  1  0
  8  9  2  0
  8 10  1  0
 10 11  1  0
 11 12  1  0
 11 13  1  0
 11 14  1  0
 14 15  1  6
 14 16  1  0
 16 17  1  0
 14 18  1  0
 18 19  1  0
 18 20  1  0
 18 21  1  0
 21 22  1  1
 21 23  1  0
 23 24  1  0
 23 25  1  0
 23 26  1  0
 26 27  1  0
 27 28  1  0
 27 29  1  0
 27 30  1  0
  3 31  1  0
 31 32  2  0
 32 33  1  0
 33 34  2  0
 34 35  1  0
 34 36  1  0
 36 37  1  0
 36 38  2  0
 38 39  1  0
 38 40  1  0
 40 41  1  0
 40 42  2  0
 42 43  1  0
 43 44  1  0
 43 45  2  0
 45 46  1  0
 21 10  1  0
 45 31  1  0
 42 33  1  0
M  END
>  <UniqueID>  (8) 
5

>  <SMILES>  (8) 
CSC[C@@H]1C[C@@H](O)CN1C(=O)C/N=C(/O)c1ccc2cc(F)ccc2n1

>  <Energy>  (8) 
44.935584706592124

>  <Genealogy>  (8) 
CSC[C@@H]1C[C@@H](O)CN1C(=O)CN=C(O)c1ccc2cc(F)ccc2n1 (tautomer)
CSC[C@@H]1C[C@@H](O)CN1C(=O)C/N=C(/O)c1ccc2cc(F)ccc2n1 (cis-trans isomerization)
CSC[C@@H]1C[C@@H](O)CN1C(=O)C/N=C(/O)c1ccc2cc(F)ccc2n1 (3D coordinates assigned)
CSC[C@@H]1C[C@@H](O)CN1C(=O)C/N=C(/O)c1ccc2cc(F)ccc2n1 (nonaromatic ring conformer: 44.935584706592124 kcal/mol)

>  <smiles>  (8) 
CSC[C@@H]1C[C@@H](O)CN1C(=O)CNC(=O)c1ccc2cc(F)ccc2n1

>  <score_type>  (8) 
oracle

>  <origin>  (8) 
autodockgpu

>  <m_score__min__energy>  (8) 
-7.4699999999999998

>  <m_primary>  (8) 
energy

>  <meeko>  (8) 
{"free_energy": -7.05, "intermolecular_energy": -9.74, "internal_energy": -1.03, "cluster_size": 9, "cluster_id": 3, "rank_in_cluster": 7}

>  <energy>  (8) 
-7.22

>  <cluster_rmsd>  (8) 
0.0

>  <rmsd>  (8) 
272.08

>  <cluster>  (8) 
3

$$$$
JXJFNMZAUJJYED-HIWRTBCQNA-N
     RDKit          3D

 46 48  0  0  0  0  0  0  0  0999 V2000
  138.4610   73.5310  222.8640 H   0  0  0  0  0  0  0  0  0  0  0  0
  138.3360   72.5420  222.6830 O   0  0  0  0  0  0  0  0  0  0  0  0
  139.4190   71.6670  222.6780 C   0  0  0  0  0  0  0  0  0  0  0  0
  140.2330   71.6870  221.6580 N   0  0  0  0  0  0  0  0  0  0  0  0
  141.4330   72.5050  221.4750 C   0  0  0  0  0  0  0  0  0  0  0  0
  141.9816   72.1444  220.5924 H   0  0  0  0  0  0  0  0  0  0  0  0
  142.0532   72.4198  222.3795 H   0  0  0  0  0  0  0  0  0  0  0  0
  141.0800   73.9540  221.2750 C   0  0  0  0  0  0  0  0  0  0  0  0
  140.2050   74.4750  222.0190 O   0  0  0  0  0  0  0  0  0  0  0  0
  141.7050   74.7470  220.2450 N   0  0  0  0  0  0  0  0  0  0  0  0
  142.1060   74.2170  218.9500 C   0  0  0  0  0  0  0  0  0  0  0  0
  141.2264   73.8608  218.3937 H   0  0  0  0  0  0  0  0  0  0  0  0
  142.7908   73.3631  219.0585 H   0  0  0  0  0  0  0  0  0  0  0  0
  142.7690   75.3750  218.2090 C   0  0  2  0  0  0  0  0  0  0  0  0
  142.1109   75.7937  217.4333 H   0  0  0  0  0  0  0  0  0  0  0  0
  143.9280   74.9420  217.5480 O   0  0  0  0  0  0  0  0  0  0  0  0
  144.6700   75.5120  217.8790 H   0  0  0  0  0  0  0  0  0  0  0  0
  143.0960   76.4200  219.2800 C   0  0  0  0  0  0  0  0  0  0  0  0
  142.8988   77.4329  218.8991 H   0  0  0  0  0  0  0  0  0  0  0  0
  144.1563   76.3827  219.5703 H   0  0  0  0  0  0  0  0  0  0  0  0
  142.1770   76.1080  220.4650 C   0  0  1  0  0  0  0  0  0  0  0  0
  142.7241   76.2056  221.4143 H   0  0  0  0  0  0  0  0  0  0  0  0
  141.0030   77.1020  220.5950 C   0  0  0  0  0  0  0  0  0  0  0  0
  140.0961   76.6273  220.1924 H   0  0  0  0  0  0  0  0  0  0  0  0
  141.2768   78.0082  220.0347 H   0  0  0  0  0  0  0  0  0  0  0  0
  140.6770   77.6080  222.3290 S   0  0  0  0  0  0  0  0  0  0  0  0
  141.8430   79.0080  222.3620 C   0  0  0  0  0  0  0  0  0  0  0  0
  142.0656   79.2753  223.4056 H   0  0  0  0  0  0  0  0  0  0  0  0
  142.7738   78.7221  221.8502 H   0  0  0  0  0  0  0  0  0  0  0  0
  141.3935   79.8717  221.8502 H   0  0  0  0  0  0  0  0  0  0  0  0
  139.5760   70.7450  223.8270 C   0  0  0  0  0  0  0  0  0  0  0  0
  140.1530   71.1720  224.9840 N   0  0  0  0  0  0  0  0  0  0  0  0
  140.2920   70.3620  226.0660 C   0  0  0  0  0  0  0  0  0  0  0  0
  140.9070   70.8400  227.2290 C   0  0  0  0  0  0  0  0  0  0  0  0
  141.2756   71.8756  227.2702 H   0  0  0  0  0  0  0  0  0  0  0  0
  141.0530   70.0010  228.3390 C   0  0  0  0  0  0  0  0  0  0  0  0
  141.5375   70.3780  229.2517 H   0  0  0  0  0  0  0  0  0  0  0  0
  140.5840   68.6830  228.2910 C   0  0  0  0  0  0  0  0  0  0  0  0
  140.7280   67.8760  229.3700 F   0  0  0  0  0  0  0  0  0  0  0  0
  139.9670   68.1980  227.1320 C   0  0  0  0  0  0  0  0  0  0  0  0
  139.5984   67.1622  227.0974 H   0  0  0  0  0  0  0  0  0  0  0  0
  139.8190   69.0320  226.0160 C   0  0  0  0  0  0  0  0  0  0  0  0
  139.2060   68.5780  224.8420 C   0  0  0  0  0  0  0  0  0  0  0  0
  138.8267   67.5472  224.7816 H   0  0  0  0  0  0  0  0  0  0  0  0
  139.0770   69.4360  223.7480 C   0  0  0  0  0  0  0  0  0  0  0  0
  138.5860   69.0870  222.8276 H   0  0  0  0  0  0  0  0  0  0  0  0
  1  2  1  0
  2  3  1  0
  3  4  2  0
  4  5  1  0
  5  6  1  0
  5  7  1  0
  5  8  1  0
  8  9  2  0
  8 10  1  0
 10 11  1  0
 11 12  1  0
 11 13  1  0
 11 14  1  0
 14 15  1  6
 14 16  1  0
 16 17  1  0
 14 18  1  0
 18 19  1  0
 18 20  1  0
 18 21  1  0
 21 22  1  1
 21 23  1  0
 23 24  1  0
 23 25  1  0
 23 26  1  0
 26 27  1  0
 27 28  1  0
 27 29  1  0
 27 30  1  0
  3 31  1  0
 31 32  2  0
 32 33  1  0
 33 34  2  0
 34 35  1  0
 34 36  1  0
 36 37  1  0
 36 38  2  0
 38 39  1  0
 38 40  1  0
 40 41  1  0
 40 42  2  0
 42 43  1  0
 43 44  1  0
 43 45  2  0
 45 46  1  0
 21 10  1  0
 45 31  1  0
 42 33  1  0
M  END
>  <UniqueID>  (9) 
5

>  <SMILES>  (9) 
CSC[C@@H]1C[C@@H](O)CN1C(=O)C/N=C(/O)c1ccc2cc(F)ccc2n1

>  <Energy>  (9) 
44.935584706592124

>  <Genealogy>  (9) 
CSC[C@@H]1C[C@@H](O)CN1C(=O)CN=C(O)c1ccc2cc(F)ccc2n1 (tautomer)
CSC[C@@H]1C[C@@H](O)CN1C(=O)C/N=C(/O)c1ccc2cc(F)ccc2n1 (cis-trans isomerization)
CSC[C@@H]1C[C@@H](O)CN1C(=O)C/N=C(/O)c1ccc2cc(F)ccc2n1 (3D coordinates assigned)
CSC[C@@H]1C[C@@H](O)CN1C(=O)C/N=C(/O)c1ccc2cc(F)ccc2n1 (nonaromatic ring conformer: 44.935584706592124 kcal/mol)

>  <smiles>  (9) 
CSC[C@@H]1C[C@@H](O)CN1C(=O)CNC(=O)c1ccc2cc(F)ccc2n1

>  <score_type>  (9) 
oracle

>  <origin>  (9) 
autodockgpu

>  <m_score__min__energy>  (9) 
-7.4699999999999998

>  <m_primary>  (9) 
energy

>  <meeko>  (9) 
{"free_energy": -6.73, "intermolecular_energy": -9.41, "internal_energy": -1.41, "cluster_size": 5, "cluster_id": 2, "rank_in_cluster": 5}

>  <energy>  (9) 
-7.22

>  <cluster_rmsd>  (9) 
0.74

>  <rmsd>  (9) 
272.24

>  <cluster>  (9) 
3

$$$$
JXJFNMZAUJJYED-HIWRTBCQNA-N
     RDKit          3D

 46 48  0  0  0  0  0  0  0  0999 V2000
  138.5960   75.1340  223.1120 H   0  0  0  0  0  0  0  0  0  0  0  0
  137.7460   75.5290  222.7260 O   0  0  0  0  0  0  0  0  0  0  0  0
  137.7760   76.6850  221.9500 C   0  0  0  0  0  0  0  0  0  0  0  0
  137.1310   76.6900  220.8140 N   0  0  0  0  0  0  0  0  0  0  0  0
  137.6010   77.1600  219.5110 C   0  0  0  0  0  0  0  0  0  0  0  0
  137.9889   78.1838  219.6176 H   0  0  0  0  0  0  0  0  0  0  0  0
  136.7561   77.1363  218.8070 H   0  0  0  0  0  0  0  0  0  0  0  0
  138.6930   76.2750  218.9740 C   0  0  0  0  0  0  0  0  0  0  0  0
  138.8350   76.1750  217.7250 O   0  0  0  0  0  0  0  0  0  0  0  0
  139.5620   75.5330  219.8530 N   0  0  0  0  0  0  0  0  0  0  0  0
  139.1660   74.3110  220.5370 C   0  0  0  0  0  0  0  0  0  0  0  0
  138.9321   73.5227  219.8063 H   0  0  0  0  0  0  0  0  0  0  0  0
  138.2654   74.4659  221.1494 H   0  0  0  0  0  0  0  0  0  0  0  0
  140.3610   73.9020  221.3940 C   0  0  2  0  0  0  0  0  0  0  0  0
  140.9067   73.0542  220.9542 H   0  0  0  0  0  0  0  0  0  0  0  0
  139.9400   73.4820  222.6650 O   0  0  0  0  0  0  0  0  0  0  0  0
  138.9900   73.7600  222.7520 H   0  0  0  0  0  0  0  0  0  0  0  0
  141.2500   75.1460  221.4870 C   0  0  0  0  0  0  0  0  0  0  0  0
  142.3111   74.8640  221.4193 H   0  0  0  0  0  0  0  0  0  0  0  0
  141.1135   75.6696  222.4447 H   0  0  0  0  0  0  0  0  0  0  0  0
  140.8570   76.0320  220.3000 C   0  0  1  0  0  0  0  0  0  0  0  0
  140.8086   77.0877  220.6051 H   0  0  0  0  0  0  0  0  0  0  0  0
  141.8980   76.0100  219.1610 C   0  0  0  0  0  0  0  0  0  0  0  0
  141.4189   75.6067  218.2567 H   0  0  0  0  0  0  0  0  0  0  0  0
  142.7379   75.3838  219.4964 H   0  0  0  0  0  0  0  0  0  0  0  0
  142.5750   77.6710  218.7720 S   0  0  0  0  0  0  0  0  0  0  0  0
  141.2730   78.6300  219.6140 C   0  0  0  0  0  0  0  0  0  0  0  0
  141.3968   78.5388  220.7032 H   0  0  0  0  0  0  0  0  0  0  0  0
  141.3510   79.6881  219.3234 H   0  0  0  0  0  0  0  0  0  0  0  0
  140.2857   78.2417  219.3234 H   0  0  0  0  0  0  0  0  0  0  0  0
  138.5560   77.8410  222.4490 C   0  0  0  0  0  0  0  0  0  0  0  0
  139.9140   77.7830  222.5160 N   0  0  0  0  0  0  0  0  0  0  0  0
  140.6630   78.8330  222.9460 C   0  0  0  0  0  0  0  0  0  0  0  0
  142.0570   78.7220  223.0130 C   0  0  0  0  0  0  0  0  0  0  0  0
  142.5494   77.7854  222.7125 H   0  0  0  0  0  0  0  0  0  0  0  0
  142.8230   79.8020  223.4620 C   0  0  0  0  0  0  0  0  0  0  0  0
  143.9181   79.7127  223.5154 H   0  0  0  0  0  0  0  0  0  0  0  0
  142.2010   80.9970  223.8440 C   0  0  0  0  0  0  0  0  0  0  0  0
  142.9500   82.0400  224.2770 F   0  0  0  0  0  0  0  0  0  0  0  0
  140.8080   81.1160  223.7790 C   0  0  0  0  0  0  0  0  0  0  0  0
  140.3214   82.0557  224.0793 H   0  0  0  0  0  0  0  0  0  0  0  0
  140.0330   80.0370  223.3310 C   0  0  0  0  0  0  0  0  0  0  0  0
  138.6380   80.1230  223.2540 C   0  0  0  0  0  0  0  0  0  0  0  0
  138.1260   81.0518  223.5457 H   0  0  0  0  0  0  0  0  0  0  0  0
  137.8980   79.0270  222.8060 C   0  0  0  0  0  0  0  0  0  0  0  0
  136.8024   79.0935  222.7333 H   0  0  0  0  0  0  0  0  0  0  0  0
  1  2  1  0
  2  3  1  0
  3  4  2  0
  4  5  1  0
  5  6  1  0
  5  7  1  0
  5  8  1  0
  8  9  2  0
  8 10  1  0
 10 11  1  0
 11 12  1  0
 11 13  1  0
 11 14  1  0
 14 15  1  6
 14 16  1  0
 16 17  1  0
 14 18  1  0
 18 19  1  0
 18 20  1  0
 18 21  1  0
 21 22  1  1
 21 23  1  0
 23 24  1  0
 23 25  1  0
 23 26  1  0
 26 27  1  0
 27 28  1  0
 27 29  1  0
 27 30  1  0
  3 31  1  0
 31 32  2  0
 32 33  1  0
 33 34  2  0
 34 35  1  0
 34 36  1  0
 36 37  1  0
 36 38  2  0
 38 39  1  0
 38 40  1  0
 40 41  1  0
 40 42  2  0
 42 43  1  0
 43 44  1  0
 43 45  2  0
 45 46  1  0
 21 10  1  0
 45 31  1  0
 42 33  1  0
M  END
>  <UniqueID>  (10) 
5

>  <SMILES>  (10) 
CSC[C@@H]1C[C@@H](O)CN1C(=O)C/N=C(/O)c1ccc2cc(F)ccc2n1

>  <Energy>  (10) 
44.935584706592124

>  <Genealogy>  (10) 
CSC[C@@H]1C[C@@H](O)CN1C(=O)CN=C(O)c1ccc2cc(F)ccc2n1 (tautomer)
CSC[C@@H]1C[C@@H](O)CN1C(=O)C/N=C(/O)c1ccc2cc(F)ccc2n1 (cis-trans isomerization)
CSC[C@@H]1C[C@@H](O)CN1C(=O)C/N=C(/O)c1ccc2cc(F)ccc2n1 (3D coordinates assigned)
CSC[C@@H]1C[C@@H](O)CN1C(=O)C/N=C(/O)c1ccc2cc(F)ccc2n1 (nonaromatic ring conformer: 44.935584706592124 kcal/mol)

>  <smiles>  (10) 
CSC[C@@H]1C[C@@H](O)CN1C(=O)CNC(=O)c1ccc2cc(F)ccc2n1

>  <score_type>  (10) 
oracle

>  <origin>  (10) 
autodockgpu

>  <m_score__min__energy>  (10) 
-7.4699999999999998

>  <m_primary>  (10) 
energy

>  <meeko>  (10) 
{"free_energy": -4.73, "intermolecular_energy": -7.42, "internal_energy": -3.16, "cluster_size": 3, "cluster_id": 5, "rank_in_cluster": 2}

>  <energy>  (10) 
-7.13

>  <cluster_rmsd>  (10) 
0.96

>  <rmsd>  (10) 
272.13

>  <cluster>  (10) 
3

$$$$
JXJFNMZAUJJYED-HIWRTBCQNA-N
     RDKit          3D

 46 48  0  0  0  0  0  0  0  0999 V2000
  138.8420   73.8160  223.0370 H   0  0  0  0  0  0  0  0  0  0  0  0
  139.5980   73.7220  222.3680 O   0  0  0  0  0  0  0  0  0  0  0  0
  140.4500   72.6210  222.3920 C   0  0  0  0  0  0  0  0  0  0  0  0
  141.3410   72.5010  221.4460 N   0  0  0  0  0  0  0  0  0  0  0  0
  141.1360   72.0760  220.0610 C   0  0  0  0  0  0  0  0  0  0  0  0
  141.3874   72.9100  219.3892 H   0  0  0  0  0  0  0  0  0  0  0  0
  140.0827   71.7829  219.9398 H   0  0  0  0  0  0  0  0  0  0  0  0
  142.0010   70.8930  219.7190 C   0  0  0  0  0  0  0  0  0  0  0  0
  141.4610   69.7600  219.5980 O   0  0  0  0  0  0  0  0  0  0  0  0
  143.4270   71.0260  219.5470 N   0  0  0  0  0  0  0  0  0  0  0  0
  144.1590   72.2580  219.8030 C   0  0  0  0  0  0  0  0  0  0  0  0
  144.0786   72.5371  220.8640 H   0  0  0  0  0  0  0  0  0  0  0  0
  143.7568   73.0958  219.2144 H   0  0  0  0  0  0  0  0  0  0  0  0
  145.6120   71.9660  219.4400 C   0  0  2  0  0  0  0  0  0  0  0  0
  146.2365   71.8289  220.3351 H   0  0  0  0  0  0  0  0  0  0  0  0
  146.1710   73.0400  218.7310 O   0  0  0  0  0  0  0  0  0  0  0  0
  145.8360   73.8680  219.1640 H   0  0  0  0  0  0  0  0  0  0  0  0
  145.5800   70.6940  218.5880 C   0  0  0  0  0  0  0  0  0  0  0  0
  146.4246   70.0385  218.8468 H   0  0  0  0  0  0  0  0  0  0  0  0
  145.6641   70.9235  217.5155 H   0  0  0  0  0  0  0  0  0  0  0  0
  144.2510   70.0050  218.9140 C   0  0  1  0  0  0  0  0  0  0  0  0
  143.7862   69.6102  217.9986 H   0  0  0  0  0  0  0  0  0  0  0  0
  144.4200   68.7680  219.8220 C   0  0  0  0  0  0  0  0  0  0  0  0
  143.6732   68.0149  219.5303 H   0  0  0  0  0  0  0  0  0  0  0  0
  144.2833   69.1024  220.8610 H   0  0  0  0  0  0  0  0  0  0  0  0
  146.0890   68.0120  219.7050 S   0  0  0  0  0  0  0  0  0  0  0  0
  145.5520   66.4310  218.9740 C   0  0  0  0  0  0  0  0  0  0  0  0
  145.3102   65.7191  219.7770 H   0  0  0  0  0  0  0  0  0  0  0  0
  144.6604   66.5987  218.3519 H   0  0  0  0  0  0  0  0  0  0  0  0
  146.3613   66.0210  218.3519 H   0  0  0  0  0  0  0  0  0  0  0  0
  140.2840   71.6340  223.4850 C   0  0  0  0  0  0  0  0  0  0  0  0
  140.7110   71.9190  224.7460 N   0  0  0  0  0  0  0  0  0  0  0  0
  140.5530   71.0470  225.7770 C   0  0  0  0  0  0  0  0  0  0  0  0
  141.0230   71.3770  227.0540 C   0  0  0  0  0  0  0  0  0  0  0  0
  141.5170   72.3448  227.2255 H   0  0  0  0  0  0  0  0  0  0  0  0
  140.8640   70.4750  228.1120 C   0  0  0  0  0  0  0  0  0  0  0  0
  141.2352   70.7343  229.1145 H   0  0  0  0  0  0  0  0  0  0  0  0
  140.2340   69.2440  227.8980 C   0  0  0  0  0  0  0  0  0  0  0  0
  140.0830   68.3750  228.9270 F   0  0  0  0  0  0  0  0  0  0  0  0
  139.7610   68.9080  226.6250 C   0  0  0  0  0  0  0  0  0  0  0  0
  139.2660   67.9396  226.4601 H   0  0  0  0  0  0  0  0  0  0  0  0
  139.9180   69.8060  225.5590 C   0  0  0  0  0  0  0  0  0  0  0  0
  139.4550   69.5010  224.2740 C   0  0  0  0  0  0  0  0  0  0  0  0
  138.9535   68.5409  224.0822 H   0  0  0  0  0  0  0  0  0  0  0  0
  139.6310   70.4180  223.2360 C   0  0  0  0  0  0  0  0  0  0  0  0
  139.2589   70.1876  222.2268 H   0  0  0  0  0  0  0  0  0  0  0  0
  1  2  1  0
  2  3  1  0
  3  4  2  0
  4  5  1  0
  5  6  1  0
  5  7  1  0
  5  8  1  0
  8  9  2  0
  8 10  1  0
 10 11  1  0
 11 12  1  0
 11 13  1  0
 11 14  1  0
 14 15  1  1
 14 16  1  0
 16 17  1  0
 14 18  1  0
 18 19  1  0
 18 20  1  0
 18 21  1  0
 21 22  1  6
 21 23  1  0
 23 24  1  0
 23 25  1  0
 23 26  1  0
 26 27  1  0
 27 28  1  0
 27 29  1  0
 27 30  1  0
  3 31  1  0
 31 32  2  0
 32 33  1  0
 33 34  2  0
 34 35  1  0
 34 36  1  0
 36 37  1  0
 36 38  2  0
 38 39  1  0
 38 40  1  0
 40 41  1  0
 40 42  2  0
 42 43  1  0
 43 44  1  0
 43 45  2  0
 45 46  1  0
 21 10  1  0
 45 31  1  0
 42 33  1  0
M  END
>  <UniqueID>  (11) 
5

>  <SMILES>  (11) 
CSC[C@@H]1C[C@@H](O)CN1C(=O)C/N=C(/O)c1ccc2cc(F)ccc2n1

>  <Energy>  (11) 
44.935584706592124

>  <Genealogy>  (11) 
CSC[C@@H]1C[C@@H](O)CN1C(=O)CN=C(O)c1ccc2cc(F)ccc2n1 (tautomer)
CSC[C@@H]1C[C@@H](O)CN1C(=O)C/N=C(/O)c1ccc2cc(F)ccc2n1 (cis-trans isomerization)
CSC[C@@H]1C[C@@H](O)CN1C(=O)C/N=C(/O)c1ccc2cc(F)ccc2n1 (3D coordinates assigned)
CSC[C@@H]1C[C@@H](O)CN1C(=O)C/N=C(/O)c1ccc2cc(F)ccc2n1 (nonaromatic ring conformer: 44.935584706592124 kcal/mol)

>  <smiles>  (11) 
CSC[C@@H]1C[C@@H](O)CN1C(=O)CNC(=O)c1ccc2cc(F)ccc2n1

>  <score_type>  (11) 
oracle

>  <origin>  (11) 
autodockgpu

>  <m_score__min__energy>  (11) 
-7.4699999999999998

>  <m_primary>  (11) 
energy

>  <meeko>  (11) 
{"free_energy": -7.47, "intermolecular_energy": -10.16, "internal_energy": -0.89, "cluster_size": 2, "cluster_id": 1, "rank_in_cluster": 1}

>  <energy>  (11) 
-7.11

>  <cluster_rmsd>  (11) 
0.43

>  <rmsd>  (11) 
272.06

>  <cluster>  (11) 
3

$$$$
JXJFNMZAUJJYED-HIWRTBCQNA-N
     RDKit          3D

 46 48  0  0  0  0  0  0  0  0999 V2000
  139.3150   74.2250  223.1150 H   0  0  0  0  0  0  0  0  0  0  0  0
  139.9000   73.7210  222.4580 O   0  0  0  0  0  0  0  0  0  0  0  0
  139.7340   72.3550  222.2460 C   0  0  0  0  0  0  0  0  0  0  0  0
  139.4710   71.9380  221.0370 N   0  0  0  0  0  0  0  0  0  0  0  0
  140.2760   72.1100  219.8270 C   0  0  0  0  0  0  0  0  0  0  0  0
  140.4517   73.1834  219.6627 H   0  0  0  0  0  0  0  0  0  0  0  0
  139.7282   71.6720  218.9796 H   0  0  0  0  0  0  0  0  0  0  0  0
  141.6020   71.4090  219.9500 C   0  0  0  0  0  0  0  0  0  0  0  0
  141.6170   70.1540  220.0670 O   0  0  0  0  0  0  0  0  0  0  0  0
  142.8440   72.1410  219.9530 N   0  0  0  0  0  0  0  0  0  0  0  0
  144.0310   71.7220  219.2220 C   0  0  0  0  0  0  0  0  0  0  0  0
  143.8304   71.7125  218.1405 H   0  0  0  0  0  0  0  0  0  0  0  0
  144.3406   70.7051  219.5051 H   0  0  0  0  0  0  0  0  0  0  0  0
  145.1120   72.7480  219.5520 C   0  0  2  0  0  0  0  0  0  0  0  0
  145.2812   73.4454  218.7183 H   0  0  0  0  0  0  0  0  0  0  0  0
  146.3410   72.1130  219.7900 O   0  0  0  0  0  0  0  0  0  0  0  0
  146.2440   71.6270  220.6500 H   0  0  0  0  0  0  0  0  0  0  0  0
  144.6170   73.4870  220.7990 C   0  0  0  0  0  0  0  0  0  0  0  0
  144.8469   74.5601  220.7246 H   0  0  0  0  0  0  0  0  0  0  0  0
  145.1051   73.1131  221.7111 H   0  0  0  0  0  0  0  0  0  0  0  0
  143.1010   73.2680  220.8410 C   0  0  1  0  0  0  0  0  0  0  0  0
  142.7686   73.0649  221.8697 H   0  0  0  0  0  0  0  0  0  0  0  0
  142.3000   74.5180  220.4190 C   0  0  0  0  0  0  0  0  0  0  0  0
  141.8085   74.9363  221.3098 H   0  0  0  0  0  0  0  0  0  0  0  0
  141.5716   74.2001  219.6585 H   0  0  0  0  0  0  0  0  0  0  0  0
  143.3480   75.8220  219.6630 S   0  0  0  0  0  0  0  0  0  0  0  0
  142.1820   77.2000  219.9150 C   0  0  0  0  0  0  0  0  0  0  0  0
  142.0401   77.3678  220.9928 H   0  0  0  0  0  0  0  0  0  0  0  0
  142.5868   78.1121  219.4521 H   0  0  0  0  0  0  0  0  0  0  0  0
  141.2155   76.9518  219.4521 H   0  0  0  0  0  0  0  0  0  0  0  0
  139.8460   71.4490  223.4130 C   0  0  0  0  0  0  0  0  0  0  0  0
  140.3320   71.9060  224.6010 N   0  0  0  0  0  0  0  0  0  0  0  0
  140.4270   71.1100  225.6980 C   0  0  0  0  0  0  0  0  0  0  0  0
  140.9490   71.6200  226.8930 C   0  0  0  0  0  0  0  0  0  0  0  0
  141.2794   72.6678  226.9464 H   0  0  0  0  0  0  0  0  0  0  0  0
  141.0500   70.7960  228.0190 C   0  0  0  0  0  0  0  0  0  0  0  0
  141.4615   71.1973  228.9569 H   0  0  0  0  0  0  0  0  0  0  0  0
  140.6290   69.4620  227.9560 C   0  0  0  0  0  0  0  0  0  0  0  0
  140.7300   68.6710  229.0510 F   0  0  0  0  0  0  0  0  0  0  0  0
  140.1060   68.9460  226.7650 C   0  0  0  0  0  0  0  0  0  0  0  0
  139.7757   67.8978  226.7179 H   0  0  0  0  0  0  0  0  0  0  0  0
  140.0030   69.7650  225.6320 C   0  0  0  0  0  0  0  0  0  0  0  0
  139.4840   69.2800  224.4260 C   0  0  0  0  0  0  0  0  0  0  0  0
  139.1445   68.2363  224.3523 H   0  0  0  0  0  0  0  0  0  0  0  0
  139.3980   70.1240  223.3160 C   0  0  0  0  0  0  0  0  0  0  0  0
  138.9803   69.7504  222.3694 H   0  0  0  0  0  0  0  0  0  0  0  0
  1  2  1  0
  2  3  1  0
  3  4  2  0
  4  5  1  0
  5  6  1  0
  5  7  1  0
  5  8  1  0
  8  9  2  0
  8 10  1  0
 10 11  1  0
 11 12  1  0
 11 13  1  0
 11 14  1  0
 14 15  1  6
 14 16  1  0
 16 17  1  0
 14 18  1  0
 18 19  1  0
 18 20  1  0
 18 21  1  0
 21 22  1  1
 21 23  1  0
 23 24  1  0
 23 25  1  0
 23 26  1  0
 26 27  1  0
 27 28  1  0
 27 29  1  0
 27 30  1  0
  3 31  1  0
 31 32  2  0
 32 33  1  0
 33 34  2  0
 34 35  1  0
 34 36  1  0
 36 37  1  0
 36 38  2  0
 38 39  1  0
 38 40  1  0
 40 41  1  0
 40 42  2  0
 42 43  1  0
 43 44  1  0
 43 45  2  0
 45 46  1  0
 21 10  1  0
 45 31  1  0
 42 33  1  0
M  END
>  <UniqueID>  (12) 
5

>  <SMILES>  (12) 
CSC[C@@H]1C[C@@H](O)CN1C(=O)C/N=C(/O)c1ccc2cc(F)ccc2n1

>  <Energy>  (12) 
44.935584706592124

>  <Genealogy>  (12) 
CSC[C@@H]1C[C@@H](O)CN1C(=O)CN=C(O)c1ccc2cc(F)ccc2n1 (tautomer)
CSC[C@@H]1C[C@@H](O)CN1C(=O)C/N=C(/O)c1ccc2cc(F)ccc2n1 (cis-trans isomerization)
CSC[C@@H]1C[C@@H](O)CN1C(=O)C/N=C(/O)c1ccc2cc(F)ccc2n1 (3D coordinates assigned)
CSC[C@@H]1C[C@@H](O)CN1C(=O)C/N=C(/O)c1ccc2cc(F)ccc2n1 (nonaromatic ring conformer: 44.935584706592124 kcal/mol)

>  <smiles>  (12) 
CSC[C@@H]1C[C@@H](O)CN1C(=O)CNC(=O)c1ccc2cc(F)ccc2n1

>  <score_type>  (12) 
oracle

>  <origin>  (12) 
autodockgpu

>  <m_score__min__energy>  (12) 
-7.4699999999999998

>  <m_primary>  (12) 
energy

>  <meeko>  (12) 
{"free_energy": -7.06, "intermolecular_energy": -9.74, "internal_energy": -1.17, "cluster_size": 9, "cluster_id": 3, "rank_in_cluster": 6}

>  <energy>  (12) 
-7.09

>  <cluster_rmsd>  (12) 
0.68

>  <rmsd>  (12) 
272.03

>  <cluster>  (12) 
3

$$$$
JXJFNMZAUJJYED-HIWRTBCQNA-N
     RDKit          3D

 46 48  0  0  0  0  0  0  0  0999 V2000
  139.1950   74.0960  223.0950 H   0  0  0  0  0  0  0  0  0  0  0  0
  139.9190   73.7540  222.4730 O   0  0  0  0  0  0  0  0  0  0  0  0
  140.0930   72.3910  222.2490 C   0  0  0  0  0  0  0  0  0  0  0  0
  140.2570   71.9760  221.0220 N   0  0  0  0  0  0  0  0  0  0  0  0
  140.3970   72.7810  219.8080 C   0  0  0  0  0  0  0  0  0  0  0  0
  140.4620   73.8429  220.0874 H   0  0  0  0  0  0  0  0  0  0  0  0
  139.5207   72.6007  219.1680 H   0  0  0  0  0  0  0  0  0  0  0  0
  141.6340   72.3990  219.0400 C   0  0  0  0  0  0  0  0  0  0  0  0
  141.5220   71.6200  218.0560 O   0  0  0  0  0  0  0  0  0  0  0  0
  142.9370   72.8900  219.4180 N   0  0  0  0  0  0  0  0  0  0  0  0
  144.1840   72.3660  218.8820 C   0  0  0  0  0  0  0  0  0  0  0  0
  144.2348   72.5362  217.7964 H   0  0  0  0  0  0  0  0  0  0  0  0
  144.2691   71.2817  219.0465 H   0  0  0  0  0  0  0  0  0  0  0  0
  145.3000   73.1280  219.5910 C   0  0  2  0  0  0  0  0  0  0  0  0
  145.7546   73.8878  218.9383 H   0  0  0  0  0  0  0  0  0  0  0  0
  146.3370   72.2570  219.9620 O   0  0  0  0  0  0  0  0  0  0  0  0
  146.0910   71.8910  220.8510 H   0  0  0  0  0  0  0  0  0  0  0  0
  144.6480   73.7710  220.8180 C   0  0  0  0  0  0  0  0  0  0  0  0
  145.0436   74.7855  220.9740 H   0  0  0  0  0  0  0  0  0  0  0  0
  144.8555   73.1969  221.7331 H   0  0  0  0  0  0  0  0  0  0  0  0
  143.1470   73.8250  220.5160 C   0  0  1  0  0  0  0  0  0  0  0  0
  142.5631   73.5516  221.4073 H   0  0  0  0  0  0  0  0  0  0  0  0
  142.6550   75.2430  220.1570 C   0  0  0  0  0  0  0  0  0  0  0  0
  142.9934   75.9392  220.9385 H   0  0  0  0  0  0  0  0  0  0  0  0
  141.5579   75.2020  220.0888 H   0  0  0  0  0  0  0  0  0  0  0  0
  143.2820   75.8340  218.5370 S   0  0  0  0  0  0  0  0  0  0  0  0
  142.5650   77.5070  218.6310 C   0  0  0  0  0  0  0  0  0  0  0  0
  142.4418   77.7944  219.6856 H   0  0  0  0  0  0  0  0  0  0  0  0
  143.2358   78.2220  218.1321 H   0  0  0  0  0  0  0  0  0  0  0  0
  141.5847   77.5144  218.1321 H   0  0  0  0  0  0  0  0  0  0  0  0
  140.0620   71.4820  223.4190 C   0  0  0  0  0  0  0  0  0  0  0  0
  140.5360   71.8920  224.6280 N   0  0  0  0  0  0  0  0  0  0  0  0
  140.5020   71.0930  225.7270 C   0  0  0  0  0  0  0  0  0  0  0  0
  141.0180   71.5520  226.9450 C   0  0  0  0  0  0  0  0  0  0  0  0
  141.4491   72.5616  227.0146 H   0  0  0  0  0  0  0  0  0  0  0  0
  140.9850   70.7260  228.0730 C   0  0  0  0  0  0  0  0  0  0  0  0
  141.3908   71.0876  229.0293 H   0  0  0  0  0  0  0  0  0  0  0  0
  140.4370   69.4400  227.9890 C   0  0  0  0  0  0  0  0  0  0  0  0
  140.4090   68.6450  229.0860 F   0  0  0  0  0  0  0  0  0  0  0  0
  139.9200   68.9750  226.7750 C   0  0  0  0  0  0  0  0  0  0  0  0
  139.4899   67.9646  226.7114 H   0  0  0  0  0  0  0  0  0  0  0  0
  139.9500   69.7970  225.6390 C   0  0  0  0  0  0  0  0  0  0  0  0
  139.4400   69.3620  224.4110 C   0  0  0  0  0  0  0  0  0  0  0  0
  139.0023   68.3569  224.3207 H   0  0  0  0  0  0  0  0  0  0  0  0
  139.4880   70.2070  223.3000 C   0  0  0  0  0  0  0  0  0  0  0  0
  139.0774   69.8743  222.3353 H   0  0  0  0  0  0  0  0  0  0  0  0
  1  2  1  0
  2  3  1  0
  3  4  2  0
  4  5  1  0
  5  6  1  0
  5  7  1  0
  5  8  1  0
  8  9  2  0
  8 10  1  0
 10 11  1  0
 11 12  1  0
 11 13  1  0
 11 14  1  0
 14 15  1  6
 14 16  1  0
 16 17  1  0
 14 18  1  0
 18 19  1  0
 18 20  1  0
 18 21  1  0
 21 22  1  1
 21 23  1  0
 23 24  1  0
 23 25  1  0
 23 26  1  0
 26 27  1  0
 27 28  1  0
 27 29  1  0
 27 30  1  0
  3 31  1  0
 31 32  2  0
 32 33  1  0
 33 34  2  0
 34 35  1  0
 34 36  1  0
 36 37  1  0
 36 38  2  0
 38 39  1  0
 38 40  1  0
 40 41  1  0
 40 42  2  0
 42 43  1  0
 43 44  1  0
 43 45  2  0
 45 46  1  0
 21 10  1  0
 45 31  1  0
 42 33  1  0
M  END
>  <UniqueID>  (13) 
5

>  <SMILES>  (13) 
CSC[C@@H]1C[C@@H](O)CN1C(=O)C/N=C(/O)c1ccc2cc(F)ccc2n1

>  <Energy>  (13) 
44.935584706592124

>  <Genealogy>  (13) 
CSC[C@@H]1C[C@@H](O)CN1C(=O)CN=C(O)c1ccc2cc(F)ccc2n1 (tautomer)
CSC[C@@H]1C[C@@H](O)CN1C(=O)C/N=C(/O)c1ccc2cc(F)ccc2n1 (cis-trans isomerization)
CSC[C@@H]1C[C@@H](O)CN1C(=O)C/N=C(/O)c1ccc2cc(F)ccc2n1 (3D coordinates assigned)
CSC[C@@H]1C[C@@H](O)CN1C(=O)C/N=C(/O)c1ccc2cc(F)ccc2n1 (nonaromatic ring conformer: 44.935584706592124 kcal/mol)

>  <smiles>  (13) 
CSC[C@@H]1C[C@@H](O)CN1C(=O)CNC(=O)c1ccc2cc(F)ccc2n1

>  <score_type>  (13) 
oracle

>  <origin>  (13) 
autodockgpu

>  <m_score__min__energy>  (13) 
-7.4699999999999998

>  <m_primary>  (13) 
energy

>  <meeko>  (13) 
{"free_energy": -7.09, "intermolecular_energy": -9.77, "internal_energy": -1.01, "cluster_size": 9, "cluster_id": 3, "rank_in_cluster": 5}

>  <energy>  (13) 
-7.06

>  <cluster_rmsd>  (13) 
1.03

>  <rmsd>  (13) 
272.1

>  <cluster>  (13) 
3

$$$$
JXJFNMZAUJJYED-HIWRTBCQNA-N
     RDKit          3D

 46 48  0  0  0  0  0  0  0  0999 V2000
  138.4740   73.3820  223.0390 H   0  0  0  0  0  0  0  0  0  0  0  0
  138.2590   72.4480  222.7090 O   0  0  0  0  0  0  0  0  0  0  0  0
  139.2510   71.4760  222.6030 C   0  0  0  0  0  0  0  0  0  0  0  0
  139.8980   71.3650  221.4740 N   0  0  0  0  0  0  0  0  0  0  0  0
  140.1830   72.4090  220.4900 C   0  0  0  0  0  0  0  0  0  0  0  0
  139.2408   72.7228  220.0169 H   0  0  0  0  0  0  0  0  0  0  0  0
  140.8767   72.0006  219.7403 H   0  0  0  0  0  0  0  0  0  0  0  0
  140.8300   73.6050  221.1360 C   0  0  0  0  0  0  0  0  0  0  0  0
  140.3590   74.0370  222.2230 O   0  0  0  0  0  0  0  0  0  0  0  0
  141.9570   74.2710  220.5310 N   0  0  0  0  0  0  0  0  0  0  0  0
  142.1140   75.7170  220.4920 C   0  0  0  0  0  0  0  0  0  0  0  0
  142.1919   76.1207  221.5123 H   0  0  0  0  0  0  0  0  0  0  0  0
  141.2509   76.2034  220.0141 H   0  0  0  0  0  0  0  0  0  0  0  0
  143.4030   75.9790  219.7180 C   0  0  2  0  0  0  0  0  0  0  0  0
  144.2283   76.2662  220.3861 H   0  0  0  0  0  0  0  0  0  0  0  0
  143.2350   77.0440  218.8200 O   0  0  0  0  0  0  0  0  0  0  0  0
  143.7480   77.8090  219.1920 H   0  0  0  0  0  0  0  0  0  0  0  0
  143.7160   74.6740  218.9790 C   0  0  0  0  0  0  0  0  0  0  0  0
  144.7972   74.4723  218.9996 H   0  0  0  0  0  0  0  0  0  0  0  0
  143.4155   74.7259  217.9221 H   0  0  0  0  0  0  0  0  0  0  0  0
  142.9540   73.5750  219.7280 C   0  0  1  0  0  0  0  0  0  0  0  0
  142.4937   72.8712  219.0189 H   0  0  0  0  0  0  0  0  0  0  0  0
  143.8720   72.6930  220.6010 C   0  0  0  0  0  0  0  0  0  0  0  0
  143.4982   71.6590  220.5685 H   0  0  0  0  0  0  0  0  0  0  0  0
  143.8516   73.1064  221.6202 H   0  0  0  0  0  0  0  0  0  0  0  0
  145.6210   72.7000  220.0420 S   0  0  0  0  0  0  0  0  0  0  0  0
  146.3160   73.4760  221.5370 C   0  0  0  0  0  0  0  0  0  0  0  0
  145.8882   72.9983  222.4307 H   0  0  0  0  0  0  0  0  0  0  0  0
  147.4087   73.3499  221.5414 H   0  0  0  0  0  0  0  0  0  0  0  0
  146.0706   74.5483  221.5414 H   0  0  0  0  0  0  0  0  0  0  0  0
  139.5020   70.6060  223.7760 C   0  0  0  0  0  0  0  0  0  0  0  0
  140.0620   71.1140  224.9080 N   0  0  0  0  0  0  0  0  0  0  0  0
  140.2850   70.3510  226.0100 C   0  0  0  0  0  0  0  0  0  0  0  0
  140.8780   70.9140  227.1470 C   0  0  0  0  0  0  0  0  0  0  0  0
  141.1603   71.9771  227.1511 H   0  0  0  0  0  0  0  0  0  0  0  0
  141.1110   70.1240  228.2770 C   0  0  0  0  0  0  0  0  0  0  0  0
  141.5786   70.5669  229.1687 H   0  0  0  0  0  0  0  0  0  0  0  0
  140.7510   68.7710  228.2770 C   0  0  0  0  0  0  0  0  0  0  0  0
  140.9790   68.0120  229.3770 F   0  0  0  0  0  0  0  0  0  0  0  0
  140.1570   68.2020  227.1460 C   0  0  0  0  0  0  0  0  0  0  0  0
  139.8749   67.1388  227.1490 H   0  0  0  0  0  0  0  0  0  0  0  0
  139.9210   68.9870  226.0080 C   0  0  0  0  0  0  0  0  0  0  0  0
  139.3280   68.4480  224.8600 C   0  0  0  0  0  0  0  0  0  0  0  0
  139.0337   67.3883  224.8371 H   0  0  0  0  0  0  0  0  0  0  0  0
  139.1110   69.2590  223.7440 C   0  0  0  0  0  0  0  0  0  0  0  0
  138.6354   68.8433  222.8434 H   0  0  0  0  0  0  0  0  0  0  0  0
  1  2  1  0
  2  3  1  0
  3  4  2  0
  4  5  1  0
  5  6  1  0
  5  7  1  0
  5  8  1  0
  8  9  2  0
  8 10  1  0
 10 11  1  0
 11 12  1  0
 11 13  1  0
 11 14  1  0
 14 15  1  1
 14 16  1  0
 16 17  1  0
 14 18  1  0
 18 19  1  0
 18 20  1  0
 18 21  1  0
 21 22  1  6
 21 23  1  0
 23 24  1  0
 23 25  1  0
 23 26  1  0
 26 27  1  0
 27 28  1  0
 27 29  1  0
 27 30  1  0
  3 31  1  0
 31 32  2  0
 32 33  1  0
 33 34  2  0
 34 35  1  0
 34 36  1  0
 36 37  1  0
 36 38  2  0
 38 39  1  0
 38 40  1  0
 40 41  1  0
 40 42  2  0
 42 43  1  0
 43 44  1  0
 43 45  2  0
 45 46  1  0
 21 10  1  0
 45 31  1  0
 42 33  1  0
M  END
>  <UniqueID>  (14) 
5

>  <SMILES>  (14) 
CSC[C@@H]1C[C@@H](O)CN1C(=O)C/N=C(/O)c1ccc2cc(F)ccc2n1

>  <Energy>  (14) 
44.935584706592124

>  <Genealogy>  (14) 
CSC[C@@H]1C[C@@H](O)CN1C(=O)CN=C(O)c1ccc2cc(F)ccc2n1 (tautomer)
CSC[C@@H]1C[C@@H](O)CN1C(=O)C/N=C(/O)c1ccc2cc(F)ccc2n1 (cis-trans isomerization)
CSC[C@@H]1C[C@@H](O)CN1C(=O)C/N=C(/O)c1ccc2cc(F)ccc2n1 (3D coordinates assigned)
CSC[C@@H]1C[C@@H](O)CN1C(=O)C/N=C(/O)c1ccc2cc(F)ccc2n1 (nonaromatic ring conformer: 44.935584706592124 kcal/mol)

>  <smiles>  (14) 
CSC[C@@H]1C[C@@H](O)CN1C(=O)CNC(=O)c1ccc2cc(F)ccc2n1

>  <score_type>  (14) 
oracle

>  <origin>  (14) 
autodockgpu

>  <m_score__min__energy>  (14) 
-7.4699999999999998

>  <m_primary>  (14) 
energy

>  <meeko>  (14) 
{"free_energy": -7.35, "intermolecular_energy": -10.03, "internal_energy": -1.43, "cluster_size": 5, "cluster_id": 2, "rank_in_cluster": 3}

>  <energy>  (14) 
-7.05

>  <cluster_rmsd>  (14) 
0.67

>  <rmsd>  (14) 
272.03

>  <cluster>  (14) 
3

$$$$
JXJFNMZAUJJYED-HIWRTBCQNA-N
     RDKit          3D

 46 48  0  0  0  0  0  0  0  0999 V2000
  138.7200   74.3940  223.0030 H   0  0  0  0  0  0  0  0  0  0  0  0
  138.2440   75.1560  222.5340 O   0  0  0  0  0  0  0  0  0  0  0  0
  138.9360   76.0390  221.7080 C   0  0  0  0  0  0  0  0  0  0  0  0
  139.1550   75.6920  220.4680 N   0  0  0  0  0  0  0  0  0  0  0  0
  139.7970   74.4750  219.9710 C   0  0  0  0  0  0  0  0  0  0  0  0
  140.2727   74.6902  219.0028 H   0  0  0  0  0  0  0  0  0  0  0  0
  139.0282   73.6959  219.8612 H   0  0  0  0  0  0  0  0  0  0  0  0
  140.8440   73.9790  220.9330 C   0  0  0  0  0  0  0  0  0  0  0  0
  140.4810   73.5720  222.0690 O   0  0  0  0  0  0  0  0  0  0  0  0
  142.2440   73.9770  220.5870 N   0  0  0  0  0  0  0  0  0  0  0  0
  143.1360   72.8540  220.8350 C   0  0  0  0  0  0  0  0  0  0  0  0
  142.8082   71.9724  220.2646 H   0  0  0  0  0  0  0  0  0  0  0  0
  143.1416   72.5713  221.8981 H   0  0  0  0  0  0  0  0  0  0  0  0
  144.5180   73.3030  220.3690 C   0  0  2  0  0  0  0  0  0  0  0  0
  144.7926   72.8456  219.4070 H   0  0  0  0  0  0  0  0  0  0  0  0
  145.5040   72.9090  221.2870 O   0  0  0  0  0  0  0  0  0  0  0  0
  145.2380   72.0110  221.6160 H   0  0  0  0  0  0  0  0  0  0  0  0
  144.4420   74.8290  220.2560 C   0  0  0  0  0  0  0  0  0  0  0  0
  144.9881   75.1745  219.3658 H   0  0  0  0  0  0  0  0  0  0  0  0
  144.8969   75.3219  221.1279 H   0  0  0  0  0  0  0  0  0  0  0  0
  142.9520   75.1670  220.1320 C   0  0  1  0  0  0  0  0  0  0  0  0
  142.7035   76.0507  220.7381 H   0  0  0  0  0  0  0  0  0  0  0  0
  142.5410   75.5600  218.6970 C   0  0  0  0  0  0  0  0  0  0  0  0
  141.4591   75.3957  218.5853 H   0  0  0  0  0  0  0  0  0  0  0  0
  143.1260   74.9356  218.0056 H   0  0  0  0  0  0  0  0  0  0  0  0
  142.9100   77.3130  218.2970 S   0  0  0  0  0  0  0  0  0  0  0  0
  141.6430   78.0470  219.3820 C   0  0  0  0  0  0  0  0  0  0  0  0
  141.9224   77.8852  220.4336 H   0  0  0  0  0  0  0  0  0  0  0  0
  141.5712   79.1266  219.1837 H   0  0  0  0  0  0  0  0  0  0  0  0
  140.6707   77.5723  219.1837 H   0  0  0  0  0  0  0  0  0  0  0  0
  139.4020   77.3190  222.2900 C   0  0  0  0  0  0  0  0  0  0  0  0
  140.7290   77.6230  222.3240 N   0  0  0  0  0  0  0  0  0  0  0  0
  141.1900   78.7970  222.8290 C   0  0  0  0  0  0  0  0  0  0  0  0
  142.5640   79.0590  222.8580 C   0  0  0  0  0  0  0  0  0  0  0  0
  143.2740   78.3149  222.4679 H   0  0  0  0  0  0  0  0  0  0  0  0
  143.0350   80.2670  223.3830 C   0  0  0  0  0  0  0  0  0  0  0  0
  144.1157   80.4708  223.4060 H   0  0  0  0  0  0  0  0  0  0  0  0
  142.1350   81.2170  223.8790 C   0  0  0  0  0  0  0  0  0  0  0  0
  142.5990   82.3850  224.3860 F   0  0  0  0  0  0  0  0  0  0  0  0
  140.7590   80.9630  223.8530 C   0  0  0  0  0  0  0  0  0  0  0  0
  140.0537   81.7114  224.2434 H   0  0  0  0  0  0  0  0  0  0  0  0
  140.2800   79.7540  223.3290 C   0  0  0  0  0  0  0  0  0  0  0  0
  138.9100   79.4700  223.2880 C   0  0  0  0  0  0  0  0  0  0  0  0
  138.1833   80.2023  223.6697 H   0  0  0  0  0  0  0  0  0  0  0  0
  138.4680   78.2540  222.7610 C   0  0  0  0  0  0  0  0  0  0  0  0
  137.3919   78.0305  222.7155 H   0  0  0  0  0  0  0  0  0  0  0  0
  1  2  1  0
  2  3  1  0
  3  4  2  0
  4  5  1  0
  5  6  1  0
  5  7  1  0
  5  8  1  0
  8  9  2  0
  8 10  1  0
 10 11  1  0
 11 12  1  0
 11 13  1  0
 11 14  1  0
 14 15  1  6
 14 16  1  0
 16 17  1  0
 14 18  1  0
 18 19  1  0
 18 20  1  0
 18 21  1  0
 21 22  1  1
 21 23  1  0
 23 24  1  0
 23 25  1  0
 23 26  1  0
 26 27  1  0
 27 28  1  0
 27 29  1  0
 27 30  1  0
  3 31  1  0
 31 32  2  0
 32 33  1  0
 33 34  2  0
 34 35  1  0
 34 36  1  0
 36 37  1  0
 36 38  2  0
 38 39  1  0
 38 40  1  0
 40 41  1  0
 40 42  2  0
 42 43  1  0
 43 44  1  0
 43 45  2  0
 45 46  1  0
 21 10  1  0
 45 31  1  0
 42 33  1  0
M  END
>  <UniqueID>  (15) 
5

>  <SMILES>  (15) 
CSC[C@@H]1C[C@@H](O)CN1C(=O)C/N=C(/O)c1ccc2cc(F)ccc2n1

>  <Energy>  (15) 
44.935584706592124

>  <Genealogy>  (15) 
CSC[C@@H]1C[C@@H](O)CN1C(=O)CN=C(O)c1ccc2cc(F)ccc2n1 (tautomer)
CSC[C@@H]1C[C@@H](O)CN1C(=O)C/N=C(/O)c1ccc2cc(F)ccc2n1 (cis-trans isomerization)
CSC[C@@H]1C[C@@H](O)CN1C(=O)C/N=C(/O)c1ccc2cc(F)ccc2n1 (3D coordinates assigned)
CSC[C@@H]1C[C@@H](O)CN1C(=O)C/N=C(/O)c1ccc2cc(F)ccc2n1 (nonaromatic ring conformer: 44.935584706592124 kcal/mol)

>  <smiles>  (15) 
CSC[C@@H]1C[C@@H](O)CN1C(=O)CNC(=O)c1ccc2cc(F)ccc2n1

>  <score_type>  (15) 
oracle

>  <origin>  (15) 
autodockgpu

>  <m_score__min__energy>  (15) 
-7.4699999999999998

>  <m_primary>  (15) 
energy

>  <meeko>  (15) 
{"free_energy": -6.17, "intermolecular_energy": -8.85, "internal_energy": -2.06, "cluster_size": 3, "cluster_id": 5, "rank_in_cluster": 1}

>  <energy>  (15) 
-6.9

>  <cluster_rmsd>  (15) 
1.22

>  <rmsd>  (15) 
272.32

>  <cluster>  (15) 
3

$$$$
JXJFNMZAUJJYED-HIWRTBCQNA-N
     RDKit          3D

 46 48  0  0  0  0  0  0  0  0999 V2000
  139.2170   71.8650  220.1980 H   0  0  0  0  0  0  0  0  0  0  0  0
  138.8710   71.8010  221.1480 O   0  0  0  0  0  0  0  0  0  0  0  0
  139.6200   72.2740  222.2220 C   0  0  0  0  0  0  0  0  0  0  0  0
  140.1610   73.4590  222.1310 N   0  0  0  0  0  0  0  0  0  0  0  0
  141.4670   73.8150  221.5760 C   0  0  0  0  0  0  0  0  0  0  0  0
  142.2435   73.6135  222.3287 H   0  0  0  0  0  0  0  0  0  0  0  0
  141.4523   74.8820  221.3090 H   0  0  0  0  0  0  0  0  0  0  0  0
  141.7680   73.0180  220.3350 C   0  0  0  0  0  0  0  0  0  0  0  0
  140.8200   72.7220  219.5590 O   0  0  0  0  0  0  0  0  0  0  0  0
  143.1070   72.5770  220.0300 N   0  0  0  0  0  0  0  0  0  0  0  0
  144.3060   73.2840  220.4520 C   0  0  0  0  0  0  0  0  0  0  0  0
  144.3699   73.3067  221.5499 H   0  0  0  0  0  0  0  0  0  0  0  0
  144.3020   74.3275  220.1040 H   0  0  0  0  0  0  0  0  0  0  0  0
  145.4820   72.5040  219.8680 C   0  0  2  0  0  0  0  0  0  0  0  0
  145.9969   71.9069  220.6350 H   0  0  0  0  0  0  0  0  0  0  0  0
  146.4440   73.3780  219.3400 O   0  0  0  0  0  0  0  0  0  0  0  0
  145.9600   74.2060  219.0820 H   0  0  0  0  0  0  0  0  0  0  0  0
  144.8850   71.6090  218.7770 C   0  0  0  0  0  0  0  0  0  0  0  0
  145.3617   70.6178  218.7918 H   0  0  0  0  0  0  0  0  0  0  0  0
  145.0460   72.0319  217.7744 H   0  0  0  0  0  0  0  0  0  0  0  0
  143.3930   71.4880  219.1040 C   0  0  1  0  0  0  0  0  0  0  0  0
  142.7892   71.5582  218.1872 H   0  0  0  0  0  0  0  0  0  0  0  0
  143.0180   70.1170  219.7060 C   0  0  0  0  0  0  0  0  0  0  0  0
  142.2014   69.6842  219.1094 H   0  0  0  0  0  0  0  0  0  0  0  0
  142.7189   70.2881  220.7506 H   0  0  0  0  0  0  0  0  0  0  0  0
  144.4200   68.9310  219.7250 S   0  0  0  0  0  0  0  0  0  0  0  0
  143.5250   67.5370  218.9660 C   0  0  0  0  0  0  0  0  0  0  0  0
  143.1115   66.8930  219.7561 H   0  0  0  0  0  0  0  0  0  0  0  0
  142.7058   67.9235  218.3419 H   0  0  0  0  0  0  0  0  0  0  0  0
  144.2174   66.9530  218.3419 H   0  0  0  0  0  0  0  0  0  0  0  0
  139.7760   71.3960  223.4050 C   0  0  0  0  0  0  0  0  0  0  0  0
  140.2680   71.8890  224.5740 N   0  0  0  0  0  0  0  0  0  0  0  0
  140.4020   71.1170  225.6850 C   0  0  0  0  0  0  0  0  0  0  0  0
  140.9290   71.6640  226.8620 C   0  0  0  0  0  0  0  0  0  0  0  0
  141.2318   72.7211  226.8899 H   0  0  0  0  0  0  0  0  0  0  0  0
  141.0700   70.8660  228.0010 C   0  0  0  0  0  0  0  0  0  0  0  0
  141.4840   71.2969  228.9246 H   0  0  0  0  0  0  0  0  0  0  0  0
  140.6860   69.5200  227.9700 C   0  0  0  0  0  0  0  0  0  0  0  0
  140.8260   68.7530  229.0780 F   0  0  0  0  0  0  0  0  0  0  0  0
  140.1580   68.9660  226.7980 C   0  0  0  0  0  0  0  0  0  0  0  0
  139.8563   67.9084  226.7764 H   0  0  0  0  0  0  0  0  0  0  0  0
  140.0140   69.7600  225.6520 C   0  0  0  0  0  0  0  0  0  0  0  0
  139.4890   69.2370  224.4640 C   0  0  0  0  0  0  0  0  0  0  0  0
  139.1766   68.1834  224.4159 H   0  0  0  0  0  0  0  0  0  0  0  0
  139.3630   70.0570  223.3400 C   0  0  0  0  0  0  0  0  0  0  0  0
  138.9414   69.6541  222.4073 H   0  0  0  0  0  0  0  0  0  0  0  0
  1  2  1  0
  2  3  1  0
  3  4  2  0
  4  5  1  0
  5  6  1  0
  5  7  1  0
  5  8  1  0
  8  9  2  0
  8 10  1  0
 10 11  1  0
 11 12  1  0
 11 13  1  0
 11 14  1  0
 14 15  1  1
 14 16  1  0
 16 17  1  0
 14 18  1  0
 18 19  1  0
 18 20  1  0
 18 21  1  0
 21 22  1  6
 21 23  1  0
 23 24  1  0
 23 25  1  0
 23 26  1  0
 26 27  1  0
 27 28  1  0
 27 29  1  0
 27 30  1  0
  3 31  1  0
 31 32  2  0
 32 33  1  0
 33 34  2  0
 34 35  1  0
 34 36  1  0
 36 37  1  0
 36 38  2  0
 38 39  1  0
 38 40  1  0
 40 41  1  0
 40 42  2  0
 42 43  1  0
 43 44  1  0
 43 45  2  0
 45 46  1  0
 21 10  1  0
 45 31  1  0
 42 33  1  0
M  END
>  <UniqueID>  (16) 
5

>  <SMILES>  (16) 
CSC[C@@H]1C[C@@H](O)CN1C(=O)C/N=C(/O)c1ccc2cc(F)ccc2n1

>  <Energy>  (16) 
44.935584706592124

>  <Genealogy>  (16) 
CSC[C@@H]1C[C@@H](O)CN1C(=O)CN=C(O)c1ccc2cc(F)ccc2n1 (tautomer)
CSC[C@@H]1C[C@@H](O)CN1C(=O)C/N=C(/O)c1ccc2cc(F)ccc2n1 (cis-trans isomerization)
CSC[C@@H]1C[C@@H](O)CN1C(=O)C/N=C(/O)c1ccc2cc(F)ccc2n1 (3D coordinates assigned)
CSC[C@@H]1C[C@@H](O)CN1C(=O)C/N=C(/O)c1ccc2cc(F)ccc2n1 (nonaromatic ring conformer: 44.935584706592124 kcal/mol)

>  <smiles>  (16) 
CSC[C@@H]1C[C@@H](O)CN1C(=O)CNC(=O)c1ccc2cc(F)ccc2n1

>  <score_type>  (16) 
oracle

>  <origin>  (16) 
autodockgpu

>  <m_score__min__energy>  (16) 
-7.4699999999999998

>  <m_primary>  (16) 
energy

>  <meeko>  (16) 
{"free_energy": -6.3, "intermolecular_energy": -8.98, "internal_energy": -1.59, "cluster_size": 2, "cluster_id": 1, "rank_in_cluster": 2}

>  <energy>  (16) 
-6.72

>  <cluster_rmsd>  (16) 
1.56

>  <rmsd>  (16) 
272.28

>  <cluster>  (16) 
3

$$$$
JXJFNMZAUJJYED-HIWRTBCQNA-N
     RDKit          3D

 46 48  0  0  0  0  0  0  0  0999 V2000
  139.2300   73.8630  223.0300 H   0  0  0  0  0  0  0  0  0  0  0  0
  139.9440   73.6200  222.3530 O   0  0  0  0  0  0  0  0  0  0  0  0
  140.5510   72.3660  222.3650 C   0  0  0  0  0  0  0  0  0  0  0  0
  141.2800   72.0170  221.3400 N   0  0  0  0  0  0  0  0  0  0  0  0
  140.9940   72.2130  219.9190 C   0  0  0  0  0  0  0  0  0  0  0  0
  139.9128   72.3682  219.7890 H   0  0  0  0  0  0  0  0  0  0  0  0
  141.3270   71.3193  219.3708 H   0  0  0  0  0  0  0  0  0  0  0  0
  141.7300   73.4070  219.3740 C   0  0  0  0  0  0  0  0  0  0  0  0
  141.0780   74.2940  218.7580 O   0  0  0  0  0  0  0  0  0  0  0  0
  143.1570   73.5470  219.5260 N   0  0  0  0  0  0  0  0  0  0  0  0
  144.1200   72.5680  219.0440 C   0  0  0  0  0  0  0  0  0  0  0  0
  144.0629   72.4828  217.9488 H   0  0  0  0  0  0  0  0  0  0  0  0
  143.9214   71.5690  219.4595 H   0  0  0  0  0  0  0  0  0  0  0  0
  145.4930   73.0860  219.4650 C   0  0  2  0  0  0  0  0  0  0  0  0
  146.0446   73.5178  218.6169 H   0  0  0  0  0  0  0  0  0  0  0  0
  146.2870   72.0390  219.9590 O   0  0  0  0  0  0  0  0  0  0  0  0
  145.9860   71.8740  220.8900 H   0  0  0  0  0  0  0  0  0  0  0  0
  145.2260   74.1390  220.5450 C   0  0  0  0  0  0  0  0  0  0  0  0
  145.9063   74.9946  220.4220 H   0  0  0  0  0  0  0  0  0  0  0  0
  145.3926   73.7345  221.5543 H   0  0  0  0  0  0  0  0  0  0  0  0
  143.7720   74.5810  220.3480 C   0  0  1  0  0  0  0  0  0  0  0  0
  143.2662   74.6891  221.3188 H   0  0  0  0  0  0  0  0  0  0  0  0
  143.6500   75.9740  219.6940 C   0  0  0  0  0  0  0  0  0  0  0  0
  143.7065   75.8544  218.6020 H   0  0  0  0  0  0  0  0  0  0  0  0
  144.4721   76.5926  220.0833 H   0  0  0  0  0  0  0  0  0  0  0  0
  142.0780   76.8280  220.1080 S   0  0  0  0  0  0  0  0  0  0  0  0
  142.2110   78.1350  218.8440 C   0  0  0  0  0  0  0  0  0  0  0  0
  142.3105   79.1132  219.3371 H   0  0  0  0  0  0  0  0  0  0  0  0
  143.0949   77.9493  218.2161 H   0  0  0  0  0  0  0  0  0  0  0  0
  141.3078   78.1311  218.2161 H   0  0  0  0  0  0  0  0  0  0  0  0
  140.3180   71.4890  223.5360 C   0  0  0  0  0  0  0  0  0  0  0  0
  140.7210   71.8710  224.7790 N   0  0  0  0  0  0  0  0  0  0  0  0
  140.5030   71.1030  225.8790 C   0  0  0  0  0  0  0  0  0  0  0  0
  140.9510   71.5290  227.1350 C   0  0  0  0  0  0  0  0  0  0  0  0
  141.4778   72.4895  227.2342 H   0  0  0  0  0  0  0  0  0  0  0  0
  140.7290   70.7340  228.2630 C   0  0  0  0  0  0  0  0  0  0  0  0
  141.0825   71.0702  229.2489 H   0  0  0  0  0  0  0  0  0  0  0  0
  140.0580   69.5110  228.1420 C   0  0  0  0  0  0  0  0  0  0  0  0
  139.8460   68.7460  229.2400 F   0  0  0  0  0  0  0  0  0  0  0  0
  139.6060   69.0780  226.8900 C   0  0  0  0  0  0  0  0  0  0  0  0
  139.0786   68.1171  226.7973 H   0  0  0  0  0  0  0  0  0  0  0  0
  139.8260   69.8700  225.7540 C   0  0  0  0  0  0  0  0  0  0  0  0
  139.3870   69.4670  224.4880 C   0  0  0  0  0  0  0  0  0  0  0  0
  138.8545   68.5120  224.3677 H   0  0  0  0  0  0  0  0  0  0  0  0
  139.6260   70.2790  223.3780 C   0  0  0  0  0  0  0  0  0  0  0  0
  139.2729   69.9711  222.3828 H   0  0  0  0  0  0  0  0  0  0  0  0
  1  2  1  0
  2  3  1  0
  3  4  2  0
  4  5  1  0
  5  6  1  0
  5  7  1  0
  5  8  1  0
  8  9  2  0
  8 10  1  0
 10 11  1  0
 11 12  1  0
 11 13  1  0
 11 14  1  0
 14 15  1  6
 14 16  1  0
 16 17  1  0
 14 18  1  0
 18 19  1  0
 18 20  1  0
 18 21  1  0
 21 22  1  1
 21 23  1  0
 23 24  1  0
 23 25  1  0
 23 26  1  0
 26 27  1  0
 27 28  1  0
 27 29  1  0
 27 30  1  0
  3 31  1  0
 31 32  2  0
 32 33  1  0
 33 34  2  0
 34 35  1  0
 34 36  1  0
 36 37  1  0
 36 38  2  0
 38 39  1  0
 38 40  1  0
 40 41  1  0
 40 42  2  0
 42 43  1  0
 43 44  1  0
 43 45  2  0
 45 46  1  0
 21 10  1  0
 45 31  1  0
 42 33  1  0
M  END
>  <UniqueID>  (17) 
5

>  <SMILES>  (17) 
CSC[C@@H]1C[C@@H](O)CN1C(=O)C/N=C(/O)c1ccc2cc(F)ccc2n1

>  <Energy>  (17) 
44.935584706592124

>  <Genealogy>  (17) 
CSC[C@@H]1C[C@@H](O)CN1C(=O)CN=C(O)c1ccc2cc(F)ccc2n1 (tautomer)
CSC[C@@H]1C[C@@H](O)CN1C(=O)C/N=C(/O)c1ccc2cc(F)ccc2n1 (cis-trans isomerization)
CSC[C@@H]1C[C@@H](O)CN1C(=O)C/N=C(/O)c1ccc2cc(F)ccc2n1 (3D coordinates assigned)
CSC[C@@H]1C[C@@H](O)CN1C(=O)C/N=C(/O)c1ccc2cc(F)ccc2n1 (nonaromatic ring conformer: 44.935584706592124 kcal/mol)

>  <smiles>  (17) 
CSC[C@@H]1C[C@@H](O)CN1C(=O)CNC(=O)c1ccc2cc(F)ccc2n1

>  <score_type>  (17) 
oracle

>  <origin>  (17) 
autodockgpu

>  <m_score__min__energy>  (17) 
-7.4699999999999998

>  <m_primary>  (17) 
energy

>  <meeko>  (17) 
{"free_energy": -7.22, "intermolecular_energy": -9.9, "internal_energy": -0.93, "cluster_size": 9, "cluster_id": 3, "rank_in_cluster": 2}

>  <energy>  (17) 
-6.74

>  <cluster_rmsd>  (17) 
0.0

>  <rmsd>  (17) 
272.64

>  <cluster>  (17) 
4

$$$$
JXJFNMZAUJJYED-HIWRTBCQNA-N
     RDKit          3D

 46 48  0  0  0  0  0  0  0  0999 V2000
  138.7290   73.8750  222.8590 H   0  0  0  0  0  0  0  0  0  0  0  0
  138.6650   72.9970  222.3580 O   0  0  0  0  0  0  0  0  0  0  0  0
  139.7090   72.0750  222.3830 C   0  0  0  0  0  0  0  0  0  0  0  0
  140.5540   72.0630  221.3880 N   0  0  0  0  0  0  0  0  0  0  0  0
  141.7450   72.8930  221.2050 C   0  0  0  0  0  0  0  0  0  0  0  0
  142.2013   72.6559  220.2326 H   0  0  0  0  0  0  0  0  0  0  0  0
  142.4463   72.6806  222.0254 H   0  0  0  0  0  0  0  0  0  0  0  0
  141.4000   74.3580  221.2410 C   0  0  0  0  0  0  0  0  0  0  0  0
  140.5240   74.7560  222.0550 O   0  0  0  0  0  0  0  0  0  0  0  0
  142.0350   75.3040  220.3570 N   0  0  0  0  0  0  0  0  0  0  0  0
  141.4600   76.5940  220.0060 C   0  0  0  0  0  0  0  0  0  0  0  0
  141.3597   77.2241  220.9020 H   0  0  0  0  0  0  0  0  0  0  0  0
  140.4557   76.4824  219.5714 H   0  0  0  0  0  0  0  0  0  0  0  0
  142.4300   77.2320  219.0150 C   0  0  2  0  0  0  0  0  0  0  0  0
  143.0274   78.0281  219.4833 H   0  0  0  0  0  0  0  0  0  0  0  0
  141.7330   77.8350  217.9570 O   0  0  0  0  0  0  0  0  0  0  0  0
  141.1650   78.5420  218.3620 H   0  0  0  0  0  0  0  0  0  0  0  0
  143.3220   76.0910  218.5150 C   0  0  0  0  0  0  0  0  0  0  0  0
  144.3628   76.4334  218.4175 H   0  0  0  0  0  0  0  0  0  0  0  0
  143.0037   75.7334  217.5247 H   0  0  0  0  0  0  0  0  0  0  0  0
  143.2210   74.9860  219.5720 C   0  0  1  0  0  0  0  0  0  0  0  0
  143.1443   73.9985  219.0936 H   0  0  0  0  0  0  0  0  0  0  0  0
  144.4800   74.8860  220.4590 C   0  0  0  0  0  0  0  0  0  0  0  0
  144.1652   74.8667  221.5128 H   0  0  0  0  0  0  0  0  0  0  0  0
  145.1103   75.7588  220.2333 H   0  0  0  0  0  0  0  0  0  0  0  0
  145.4820   73.3850  220.1210 S   0  0  0  0  0  0  0  0  0  0  0  0
  146.3980   73.3850  221.6960 C   0  0  0  0  0  0  0  0  0  0  0  0
  146.5823   72.3479  222.0130 H   0  0  0  0  0  0  0  0  0  0  0  0
  147.3587   73.9035  221.5614 H   0  0  0  0  0  0  0  0  0  0  0  0
  145.8059   73.9035  222.4645 H   0  0  0  0  0  0  0  0  0  0  0  0
  139.7900   71.1440  223.5320 C   0  0  0  0  0  0  0  0  0  0  0  0
  140.3380   71.5460  224.7120 N   0  0  0  0  0  0  0  0  0  0  0  0
  140.4080   70.7260  225.7940 C   0  0  0  0  0  0  0  0  0  0  0  0
  140.9960   71.1770  226.9810 C   0  0  0  0  0  0  0  0  0  0  0  0
  141.4000   72.1983  227.0412 H   0  0  0  0  0  0  0  0  0  0  0  0
  141.0700   70.3290  228.0910 C   0  0  0  0  0  0  0  0  0  0  0  0
  141.5340   70.6844  229.0229 H   0  0  0  0  0  0  0  0  0  0  0  0
  140.5550   69.0290  228.0190 C   0  0  0  0  0  0  0  0  0  0  0  0
  140.6300   68.2130  229.0980 F   0  0  0  0  0  0  0  0  0  0  0  0
  139.9650   68.5710  226.8360 C   0  0  0  0  0  0  0  0  0  0  0  0
  139.5610   67.5493  226.7822 H   0  0  0  0  0  0  0  0  0  0  0  0
  139.8890   69.4150  225.7190 C   0  0  0  0  0  0  0  0  0  0  0  0
  139.3040   68.9880  224.5210 C   0  0  0  0  0  0  0  0  0  0  0  0
  138.8902   67.9719  224.4409 H   0  0  0  0  0  0  0  0  0  0  0  0
  139.2470   69.8550  223.4280 C   0  0  0  0  0  0  0  0  0  0  0  0
  138.7777   69.5281  222.4883 H   0  0  0  0  0  0  0  0  0  0  0  0
  1  2  1  0
  2  3  1  0
  3  4  2  0
  4  5  1  0
  5  6  1  0
  5  7  1  0
  5  8  1  0
  8  9  2  0
  8 10  1  0
 10 11  1  0
 11 12  1  0
 11 13  1  0
 11 14  1  0
 14 15  1  1
 14 16  1  0
 16 17  1  0
 14 18  1  0
 18 19  1  0
 18 20  1  0
 18 21  1  0
 21 22  1  6
 21 23  1  0
 23 24  1  0
 23 25  1  0
 23 26  1  0
 26 27  1  0
 27 28  1  0
 27 29  1  0
 27 30  1  0
  3 31  1  0
 31 32  2  0
 32 33  1  0
 33 34  2  0
 34 35  1  0
 34 36  1  0
 36 37  1  0
 36 38  2  0
 38 39  1  0
 38 40  1  0
 40 41  1  0
 40 42  2  0
 42 43  1  0
 43 44  1  0
 43 45  2  0
 45 46  1  0
 21 10  1  0
 45 31  1  0
 42 33  1  0
M  END
>  <UniqueID>  (18) 
5

>  <SMILES>  (18) 
CSC[C@@H]1C[C@@H](O)CN1C(=O)C/N=C(/O)c1ccc2cc(F)ccc2n1

>  <Energy>  (18) 
44.935584706592124

>  <Genealogy>  (18) 
CSC[C@@H]1C[C@@H](O)CN1C(=O)CN=C(O)c1ccc2cc(F)ccc2n1 (tautomer)
CSC[C@@H]1C[C@@H](O)CN1C(=O)C/N=C(/O)c1ccc2cc(F)ccc2n1 (cis-trans isomerization)
CSC[C@@H]1C[C@@H](O)CN1C(=O)C/N=C(/O)c1ccc2cc(F)ccc2n1 (3D coordinates assigned)
CSC[C@@H]1C[C@@H](O)CN1C(=O)C/N=C(/O)c1ccc2cc(F)ccc2n1 (nonaromatic ring conformer: 44.935584706592124 kcal/mol)

>  <smiles>  (18) 
CSC[C@@H]1C[C@@H](O)CN1C(=O)CNC(=O)c1ccc2cc(F)ccc2n1

>  <score_type>  (18) 
oracle

>  <origin>  (18) 
autodockgpu

>  <m_score__min__energy>  (18) 
-7.4699999999999998

>  <m_primary>  (18) 
energy

>  <meeko>  (18) 
{"free_energy": -6.81, "intermolecular_energy": -9.49, "internal_energy": -1.36, "cluster_size": 5, "cluster_id": 2, "rank_in_cluster": 4}

>  <energy>  (18) 
-6.17

>  <cluster_rmsd>  (18) 
0.0

>  <rmsd>  (18) 
272.5

>  <cluster>  (18) 
5

$$$$
JXJFNMZAUJJYED-HIWRTBCQNA-N
     RDKit          3D

 46 48  0  0  0  0  0  0  0  0999 V2000
  138.3530   73.4080  222.8230 H   0  0  0  0  0  0  0  0  0  0  0  0
  138.1130   72.4290  222.7190 O   0  0  0  0  0  0  0  0  0  0  0  0
  139.1000   71.4540  222.6010 C   0  0  0  0  0  0  0  0  0  0  0  0
  139.7370   71.3450  221.4670 N   0  0  0  0  0  0  0  0  0  0  0  0
  141.0670   71.8480  221.1260 C   0  0  0  0  0  0  0  0  0  0  0  0
  141.2930   71.5854  220.0820 H   0  0  0  0  0  0  0  0  0  0  0  0
  141.7979   71.3898  221.8085 H   0  0  0  0  0  0  0  0  0  0  0  0
  141.1410   73.3430  221.2830 C   0  0  0  0  0  0  0  0  0  0  0  0
  140.2900   73.9210  222.0110 O   0  0  0  0  0  0  0  0  0  0  0  0
  142.1490   74.1230  220.6070 N   0  0  0  0  0  0  0  0  0  0  0  0
  142.1750   75.5780  220.6010 C   0  0  0  0  0  0  0  0  0  0  0  0
  142.3051   75.9622  221.6235 H   0  0  0  0  0  0  0  0  0  0  0  0
  141.2346   75.9962  220.2127 H   0  0  0  0  0  0  0  0  0  0  0  0
  143.3650   75.9740  219.7300 C   0  0  2  0  0  0  0  0  0  0  0  0
  144.2168   76.3186  220.3347 H   0  0  0  0  0  0  0  0  0  0  0  0
  143.0270   77.0410  218.8840 O   0  0  0  0  0  0  0  0  0  0  0  0
  143.5330   77.8300  219.2120 H   0  0  0  0  0  0  0  0  0  0  0  0
  143.7270   74.7200  218.9270 C   0  0  0  0  0  0  0  0  0  0  0  0
  144.8195   74.6158  218.8516 H   0  0  0  0  0  0  0  0  0  0  0  0
  143.3341   74.7696  217.9008 H   0  0  0  0  0  0  0  0  0  0  0  0
  143.1310   73.5400  219.7020 C   0  0  1  0  0  0  0  0  0  0  0  0
  142.6743   72.8153  219.0119 H   0  0  0  0  0  0  0  0  0  0  0  0
  144.1950   72.7240  220.4670 C   0  0  0  0  0  0  0  0  0  0  0  0
  144.1305   71.6745  220.1438 H   0  0  0  0  0  0  0  0  0  0  0  0
  143.9860   72.8377  221.5410 H   0  0  0  0  0  0  0  0  0  0  0  0
  145.9070   73.3210  220.1760 S   0  0  0  0  0  0  0  0  0  0  0  0
  146.4120   73.3680  221.9270 C   0  0  0  0  0  0  0  0  0  0  0  0
  145.5217   73.2851  222.5677 H   0  0  0  0  0  0  0  0  0  0  0  0
  147.0927   72.5293  222.1349 H   0  0  0  0  0  0  0  0  0  0  0  0
  146.9263   74.3179  222.1349 H   0  0  0  0  0  0  0  0  0  0  0  0
  139.3580   70.5790  223.7680 C   0  0  0  0  0  0  0  0  0  0  0  0
  139.9320   71.0800  224.8970 N   0  0  0  0  0  0  0  0  0  0  0  0
  140.1630   70.3110  225.9940 C   0  0  0  0  0  0  0  0  0  0  0  0
  140.7710   70.8670  227.1260 C   0  0  0  0  0  0  0  0  0  0  0  0
  141.0597   71.9284  227.1304 H   0  0  0  0  0  0  0  0  0  0  0  0
  141.0110   70.0720  228.2510 C   0  0  0  0  0  0  0  0  0  0  0  0
  141.4906   70.5094  229.1391 H   0  0  0  0  0  0  0  0  0  0  0  0
  140.6430   68.7210  228.2510 C   0  0  0  0  0  0  0  0  0  0  0  0
  140.8780   67.9570  229.3450 F   0  0  0  0  0  0  0  0  0  0  0  0
  140.0340   68.1590  227.1230 C   0  0  0  0  0  0  0  0  0  0  0  0
  139.7461   67.0973  227.1249 H   0  0  0  0  0  0  0  0  0  0  0  0
  139.7910   68.9490  225.9910 C   0  0  0  0  0  0  0  0  0  0  0  0
  139.1830   68.4180  224.8470 C   0  0  0  0  0  0  0  0  0  0  0  0
  138.8825   67.3601  224.8231 H   0  0  0  0  0  0  0  0  0  0  0  0
  138.9590   69.2340  223.7370 C   0  0  0  0  0  0  0  0  0  0  0  0
  138.4711   68.8239  222.8405 H   0  0  0  0  0  0  0  0  0  0  0  0
  1  2  1  0
  2  3  1  0
  3  4  2  0
  4  5  1  0
  5  6  1  0
  5  7  1  0
  5  8  1  0
  8  9  2  0
  8 10  1  0
 10 11  1  0
 11 12  1  0
 11 13  1  0
 11 14  1  0
 14 15  1  1
 14 16  1  0
 16 17  1  0
 14 18  1  0
 18 19  1  0
 18 20  1  0
 18 21  1  0
 21 22  1  6
 21 23  1  0
 23 24  1  0
 23 25  1  0
 23 26  1  0
 26 27  1  0
 27 28  1  0
 27 29  1  0
 27 30  1  0
  3 31  1  0
 31 32  2  0
 32 33  1  0
 33 34  2  0
 34 35  1  0
 34 36  1  0
 36 37  1  0
 36 38  2  0
 38 39  1  0
 38 40  1  0
 40 41  1  0
 40 42  2  0
 42 43  1  0
 43 44  1  0
 43 45  2  0
 45 46  1  0
 21 10  1  0
 45 31  1  0
 42 33  1  0
M  END
>  <UniqueID>  (19) 
5

>  <SMILES>  (19) 
CSC[C@@H]1C[C@@H](O)CN1C(=O)C/N=C(/O)c1ccc2cc(F)ccc2n1

>  <Energy>  (19) 
44.935584706592124

>  <Genealogy>  (19) 
CSC[C@@H]1C[C@@H](O)CN1C(=O)CN=C(O)c1ccc2cc(F)ccc2n1 (tautomer)
CSC[C@@H]1C[C@@H](O)CN1C(=O)C/N=C(/O)c1ccc2cc(F)ccc2n1 (cis-trans isomerization)
CSC[C@@H]1C[C@@H](O)CN1C(=O)C/N=C(/O)c1ccc2cc(F)ccc2n1 (3D coordinates assigned)
CSC[C@@H]1C[C@@H](O)CN1C(=O)C/N=C(/O)c1ccc2cc(F)ccc2n1 (nonaromatic ring conformer: 44.935584706592124 kcal/mol)

>  <smiles>  (19) 
CSC[C@@H]1C[C@@H](O)CN1C(=O)CNC(=O)c1ccc2cc(F)ccc2n1

>  <score_type>  (19) 
oracle

>  <origin>  (19) 
autodockgpu

>  <m_score__min__energy>  (19) 
-7.4699999999999998

>  <m_primary>  (19) 
energy

>  <meeko>  (19) 
{"free_energy": -7.35, "intermolecular_energy": -10.03, "internal_energy": -1.41, "cluster_size": 5, "cluster_id": 2, "rank_in_cluster": 2}

>  <energy>  (19) 
-4.73

>  <cluster_rmsd>  (19) 
1.58

>  <rmsd>  (19) 
271.9

>  <cluster>  (19) 
5

$$$$
JXJFNMZAUJJYED-HIWRTBCQNA-N
     RDKit          3D

 46 48  0  0  0  0  0  0  0  0999 V2000
  138.9240   73.4720  222.7430 H   0  0  0  0  0  0  0  0  0  0  0  0
  138.4930   72.5550  222.7210 O   0  0  0  0  0  0  0  0  0  0  0  0
  139.2590   71.4020  222.5700 C   0  0  0  0  0  0  0  0  0  0  0  0
  139.7360   71.1210  221.3870 N   0  0  0  0  0  0  0  0  0  0  0  0
  141.1120   71.2650  220.9100 C   0  0  0  0  0  0  0  0  0  0  0  0
  141.1337   71.1014  219.8224 H   0  0  0  0  0  0  0  0  0  0  0  0
  141.7390   70.5233  221.4265 H   0  0  0  0  0  0  0  0  0  0  0  0
  141.6520   72.6380  221.2110 C   0  0  0  0  0  0  0  0  0  0  0  0
  140.9750   73.4100  221.9420 O   0  0  0  0  0  0  0  0  0  0  0  0
  142.9100   73.0880  220.6690 N   0  0  0  0  0  0  0  0  0  0  0  0
  143.9240   72.1930  220.1320 C   0  0  0  0  0  0  0  0  0  0  0  0
  143.5329   71.6539  219.2566 H   0  0  0  0  0  0  0  0  0  0  0  0
  144.2270   71.4376  220.8720 H   0  0  0  0  0  0  0  0  0  0  0  0
  145.0980   73.0810  219.7270 C   0  0  2  0  0  0  0  0  0  0  0  0
  145.1512   73.2146  218.6364 H   0  0  0  0  0  0  0  0  0  0  0  0
  146.3160   72.5000  220.1100 O   0  0  0  0  0  0  0  0  0  0  0  0
  146.1130   71.9030  220.8780 H   0  0  0  0  0  0  0  0  0  0  0  0
  144.8710   74.4180  220.4390 C   0  0  0  0  0  0  0  0  0  0  0  0
  145.1382   75.2545  219.7765 H   0  0  0  0  0  0  0  0  0  0  0  0
  145.4941   74.5061  221.3412 H   0  0  0  0  0  0  0  0  0  0  0  0
  143.3770   74.4640  220.7800 C   0  0  1  0  0  0  0  0  0  0  0  0
  143.2231   74.8711  221.7902 H   0  0  0  0  0  0  0  0  0  0  0  0
  142.5780   75.4110  219.8600 C   0  0  0  0  0  0  0  0  0  0  0  0
  142.1839   74.8280  219.0146 H   0  0  0  0  0  0  0  0  0  0  0  0
  143.2649   76.2036  219.5284 H   0  0  0  0  0  0  0  0  0  0  0  0
  141.1720   76.2260  220.7140 S   0  0  0  0  0  0  0  0  0  0  0  0
  141.8060   77.9300  220.5830 C   0  0  0  0  0  0  0  0  0  0  0  0
  141.9595   78.3426  221.5910 H   0  0  0  0  0  0  0  0  0  0  0  0
  142.7623   77.9246  220.0394 H   0  0  0  0  0  0  0  0  0  0  0  0
  141.0788   78.5510  220.0394 H   0  0  0  0  0  0  0  0  0  0  0  0
  139.4750   70.5470  223.7600 C   0  0  0  0  0  0  0  0  0  0  0  0
  140.0540   71.0550  224.8820 N   0  0  0  0  0  0  0  0  0  0  0  0
  140.2460   70.3060  226.0000 C   0  0  0  0  0  0  0  0  0  0  0  0
  140.8610   70.8660  227.1260 C   0  0  0  0  0  0  0  0  0  0  0  0
  141.1870   71.9164  227.1090 H   0  0  0  0  0  0  0  0  0  0  0  0
  141.0610   70.0910  228.2720 C   0  0  0  0  0  0  0  0  0  0  0  0
  141.5458   70.5327  229.1551 H   0  0  0  0  0  0  0  0  0  0  0  0
  140.6460   68.7540  228.2990 C   0  0  0  0  0  0  0  0  0  0  0  0
  140.8430   68.0090  229.4140 F   0  0  0  0  0  0  0  0  0  0  0  0
  140.0290   68.1870  227.1790 C   0  0  0  0  0  0  0  0  0  0  0  0
  139.7023   67.1369  227.2037 H   0  0  0  0  0  0  0  0  0  0  0  0
  139.8270   68.9570  226.0250 C   0  0  0  0  0  0  0  0  0  0  0  0
  139.2120   68.4210  224.8880 C   0  0  0  0  0  0  0  0  0  0  0  0
  138.8734   67.3744  224.8863 H   0  0  0  0  0  0  0  0  0  0  0  0
  139.0290   69.2170  223.7560 C   0  0  0  0  0  0  0  0  0  0  0  0
  138.5367   68.8027  222.8638 H   0  0  0  0  0  0  0  0  0  0  0  0
  1  2  1  0
  2  3  1  0
  3  4  2  0
  4  5  1  0
  5  6  1  0
  5  7  1  0
  5  8  1  0
  8  9  2  0
  8 10  1  0
 10 11  1  0
 11 12  1  0
 11 13  1  0
 11 14  1  0
 14 15  1  6
 14 16  1  0
 16 17  1  0
 14 18  1  0
 18 19  1  0
 18 20  1  0
 18 21  1  0
 21 22  1  1
 21 23  1  0
 23 24  1  0
 23 25  1  0
 23 26  1  0
 26 27  1  0
 27 28  1  0
 27 29  1  0
 27 30  1  0
  3 31  1  0
 31 32  2  0
 32 33  1  0
 33 34  2  0
 34 35  1  0
 34 36  1  0
 36 37  1  0
 36 38  2  0
 38 39  1  0
 38 40  1  0
 40 41  1  0
 40 42  2  0
 42 43  1  0
 43 44  1  0
 43 45  2  0
 45 46  1  0
 21 10  1  0
 45 31  1  0
 42 33  1  0
M  END
>  <UniqueID>  (20) 
5

>  <SMILES>  (20) 
CSC[C@@H]1C[C@@H](O)CN1C(=O)C/N=C(/O)c1ccc2cc(F)ccc2n1

>  <Energy>  (20) 
44.935584706592124

>  <Genealogy>  (20) 
CSC[C@@H]1C[C@@H](O)CN1C(=O)CN=C(O)c1ccc2cc(F)ccc2n1 (tautomer)
CSC[C@@H]1C[C@@H](O)CN1C(=O)C/N=C(/O)c1ccc2cc(F)ccc2n1 (cis-trans isomerization)
CSC[C@@H]1C[C@@H](O)CN1C(=O)C/N=C(/O)c1ccc2cc(F)ccc2n1 (3D coordinates assigned)
CSC[C@@H]1C[C@@H](O)CN1C(=O)C/N=C(/O)c1ccc2cc(F)ccc2n1 (nonaromatic ring conformer: 44.935584706592124 kcal/mol)

>  <smiles>  (20) 
CSC[C@@H]1C[C@@H](O)CN1C(=O)CNC(=O)c1ccc2cc(F)ccc2n1

>  <score_type>  (20) 
oracle

>  <origin>  (20) 
autodockgpu

>  <m_score__min__energy>  (20) 
-7.4699999999999998

>  <m_primary>  (20) 
energy

>  <meeko>  (20) 
{"free_energy": -6.9, "intermolecular_energy": -9.59, "internal_energy": -1.38, "cluster_size": 9, "cluster_id": 3, "rank_in_cluster": 8}

>  <energy>  (20) 
-4.56

>  <cluster_rmsd>  (20) 
1.6

>  <rmsd>  (20) 
271.79

>  <cluster>  (20) 
5

$$$$
CJVBSAWGHWUQCR-DXLIDDBMNA-N
     RDKit          3D

 46 48  0  0  0  0  0  0  0  0999 V2000
  139.4560   72.1440  219.4740 H   0  0  0  0  0  0  0  0  0  0  0  0
  140.0450   72.9370  219.2490 O   0  0  0  0  0  0  0  0  0  0  0  0
  140.4120   73.8820  220.2080 C   0  0  0  0  0  0  0  0  0  0  0  0
  139.5920   74.1490  221.2350 C   0  0  0  0  0  0  0  0  0  0  0  0
  138.9692   75.0550  221.1975 H   0  0  0  0  0  0  0  0  0  0  0  0
  139.5010   73.2900  222.3820 N   0  0  0  0  0  0  0  0  0  0  0  0
  139.5850   73.6970  223.3370 H   0  0  0  0  0  0  0  0  0  0  0  0
  139.3550   71.8670  222.2540 C   0  0  0  0  0  0  0  0  0  0  0  0
  139.1030   71.3600  221.1270 O   0  0  0  0  0  0  0  0  0  0  0  0
  139.5140   70.9930  223.4370 C   0  0  0  0  0  0  0  0  0  0  0  0
  140.0720   71.4950  224.5740 N   0  0  0  0  0  0  0  0  0  0  0  0
  140.2600   70.7370  225.6860 C   0  0  0  0  0  0  0  0  0  0  0  0
  140.8390   71.2980  226.8300 C   0  0  0  0  0  0  0  0  0  0  0  0
  141.1392   72.3562  226.8319 H   0  0  0  0  0  0  0  0  0  0  0  0
  141.0360   70.5130  227.9710 C   0  0  0  0  0  0  0  0  0  0  0  0
  141.4933   70.9550  228.8685 H   0  0  0  0  0  0  0  0  0  0  0  0
  140.6530   69.1670  227.9740 C   0  0  0  0  0  0  0  0  0  0  0  0
  140.8470   68.4130  229.0830 F   0  0  0  0  0  0  0  0  0  0  0  0
  140.0730   68.5990  226.8340 C   0  0  0  0  0  0  0  0  0  0  0  0
  139.7733   67.5406  226.8386 H   0  0  0  0  0  0  0  0  0  0  0  0
  139.8740   69.3790  225.6860 C   0  0  0  0  0  0  0  0  0  0  0  0
  139.2970   68.8410  224.5300 C   0  0  0  0  0  0  0  0  0  0  0  0
  138.9864   67.7860  224.5093 H   0  0  0  0  0  0  0  0  0  0  0  0
  139.1160   69.6460  223.4020 C   0  0  0  0  0  0  0  0  0  0  0  0
  138.6640   69.2269  222.4909 H   0  0  0  0  0  0  0  0  0  0  0  0
  141.6790   74.5390  220.0780 N   0  0  0  0  0  0  0  0  0  0  0  0
  141.7980   75.9840  220.1380 C   0  0  0  0  0  0  0  0  0  0  0  0
  141.6254   76.3408  221.1641 H   0  0  0  0  0  0  0  0  0  0  0  0
  141.0559   76.4796  219.4949 H   0  0  0  0  0  0  0  0  0  0  0  0
  143.2280   76.3000  219.6970 C   0  0  2  0  0  0  0  0  0  0  0  0
  143.8670   76.5371  220.5604 H   0  0  0  0  0  0  0  0  0  0  0  0
  143.2670   77.4240  218.8590 O   0  0  0  0  0  0  0  0  0  0  0  0
  143.1040   78.2130  219.4390 H   0  0  0  0  0  0  0  0  0  0  0  0
  143.7150   75.0540  218.9510 C   0  0  0  0  0  0  0  0  0  0  0  0
  144.7636   74.8409  219.2060 H   0  0  0  0  0  0  0  0  0  0  0  0
  143.6669   75.1917  217.8607 H   0  0  0  0  0  0  0  0  0  0  0  0
  142.8090   73.9050  219.4140 C   0  0  1  0  0  0  0  0  0  0  0  0
  142.5037   73.2975  218.5493 H   0  0  0  0  0  0  0  0  0  0  0  0
  143.5120   72.9110  220.3570 C   0  0  0  0  0  0  0  0  0  0  0  0
  142.9625   71.9583  220.3371 H   0  0  0  0  0  0  0  0  0  0  0  0
  143.5190   73.3556  221.3631 H   0  0  0  0  0  0  0  0  0  0  0  0
  145.2520   72.5940  219.8800 S   0  0  0  0  0  0  0  0  0  0  0  0
  145.9680   73.4530  221.3140 C   0  0  0  0  0  0  0  0  0  0  0  0
  145.5887   72.9980  222.2409 H   0  0  0  0  0  0  0  0  0  0  0  0
  147.0641   73.3652  221.2843 H   0  0  0  0  0  0  0  0  0  0  0  0
  145.6843   74.5154  221.2843 H   0  0  0  0  0  0  0  0  0  0  0  0
  1  2  1  0
  2  3  1  0
  3  4  2  0
  4  5  1  0
  4  6  1  0
  6  7  1  0
  6  8  1  0
  8  9  2  0
  8 10  1  0
 10 11  2  0
 11 12  1  0
 12 13  2  0
 13 14  1  0
 13 15  1  0
 15 16  1  0
 15 17  2  0
 17 18  1  0
 17 19  1  0
 19 20  1  0
 19 21  2  0
 21 22  1  0
 22 23  1  0
 22 24  2  0
 24 25  1  0
  3 26  1  0
 26 27  1  0
 27 28  1  0
 27 29  1  0
 27 30  1  0
 30 31  1  1
 30 32  1  0
 32 33  1  0
 30 34  1  0
 34 35  1  0
 34 36  1  0
 34 37  1  0
 37 38  1  6
 37 39  1  0
 39 40  1  0
 39 41  1  0
 39 42  1  0
 42 43  1  0
 43 44  1  0
 43 45  1  0
 43 46  1  0
 24 10  1  0
 37 26  1  0
 21 12  1  0
M  END
>  <UniqueID>  (21) 
6

>  <SMILES>  (21) 
CSC[C@@H]1C[C@@H](O)CN1/C(O)=C\NC(=O)c1ccc2cc(F)ccc2n1

>  <Energy>  (21) 
48.25694979248111

>  <Genealogy>  (21) 
CSC[C@@H]1C[C@@H](O)CN1C(O)=CNC(=O)c1ccc2cc(F)ccc2n1 (tautomer)
CSC[C@@H]1C[C@@H](O)CN1/C(O)=C\NC(=O)c1ccc2cc(F)ccc2n1 (cis-trans isomerization)
CSC[C@@H]1C[C@@H](O)CN1/C(O)=C\NC(=O)c1ccc2cc(F)ccc2n1 (3D coordinates assigned)
CSC[C@@H]1C[C@@H](O)CN1/C(O)=C\NC(=O)c1ccc2cc(F)ccc2n1 (nonaromatic ring conformer: 48.25694979248111 kcal/mol)

>  <smiles>  (21) 
CSC[C@@H]1C[C@@H](O)CN1C(=O)CNC(=O)c1ccc2cc(F)ccc2n1

>  <score_type>  (21) 
oracle

>  <origin>  (21) 
autodockgpu

>  <m_score__min__energy>  (21) 
-7.3899999999999997

>  <m_primary>  (21) 
energy

>  <meeko>  (21) 
{"free_energy": -6.4, "intermolecular_energy": -8.78, "internal_energy": -1.87, "cluster_size": 10, "cluster_id": 2, "rank_in_cluster": 8}

>  <energy>  (21) 
-7.39

>  <cluster_rmsd>  (21) 
0.0

>  <rmsd>  (21) 
272.79

>  <cluster>  (21) 
1

$$$$
CJVBSAWGHWUQCR-DXLIDDBMNA-N
     RDKit          3D

 46 48  0  0  0  0  0  0  0  0999 V2000
  139.2020   75.3130  223.1120 H   0  0  0  0  0  0  0  0  0  0  0  0
  139.9220   75.6370  222.4770 O   0  0  0  0  0  0  0  0  0  0  0  0
  140.5310   74.7880  221.5520 C   0  0  0  0  0  0  0  0  0  0  0  0
  140.0450   73.5540  221.3540 C   0  0  0  0  0  0  0  0  0  0  0  0
  139.8753   73.2081  220.3237 H   0  0  0  0  0  0  0  0  0  0  0  0
  139.7390   72.6700  222.4420 N   0  0  0  0  0  0  0  0  0  0  0  0
  139.3180   73.0550  223.3140 H   0  0  0  0  0  0  0  0  0  0  0  0
  140.0490   71.2690  222.3930 C   0  0  0  0  0  0  0  0  0  0  0  0
  140.4190   70.7450  221.3060 O   0  0  0  0  0  0  0  0  0  0  0  0
  139.9500   70.4400  223.6140 C   0  0  0  0  0  0  0  0  0  0  0  0
  140.5110   70.8830  224.7740 N   0  0  0  0  0  0  0  0  0  0  0  0
  140.4680   70.1590  225.9240 C   0  0  0  0  0  0  0  0  0  0  0  0
  141.0610   70.6560  227.0900 C   0  0  0  0  0  0  0  0  0  0  0  0
  141.5599   71.6363  227.0789 H   0  0  0  0  0  0  0  0  0  0  0  0
  141.0190   69.9060  228.2690 C   0  0  0  0  0  0  0  0  0  0  0  0
  141.4862   70.2978  229.1845 H   0  0  0  0  0  0  0  0  0  0  0  0
  140.3850   68.6590  228.2890 C   0  0  0  0  0  0  0  0  0  0  0  0
  140.3480   67.9370  229.4350 F   0  0  0  0  0  0  0  0  0  0  0  0
  139.7890   68.1550  227.1270 C   0  0  0  0  0  0  0  0  0  0  0  0
  139.2905   67.1746  227.1448 H   0  0  0  0  0  0  0  0  0  0  0  0
  139.8280   68.9010  225.9400 C   0  0  0  0  0  0  0  0  0  0  0  0
  139.2430   68.4260  224.7600 C   0  0  0  0  0  0  0  0  0  0  0  0
  138.7366   67.4495  224.7508 H   0  0  0  0  0  0  0  0  0  0  0  0
  139.3030   69.1930  223.5950 C   0  0  0  0  0  0  0  0  0  0  0  0
  138.8455   68.8225  222.6658 H   0  0  0  0  0  0  0  0  0  0  0  0
  141.6620   75.2700  220.8160 N   0  0  0  0  0  0  0  0  0  0  0  0
  141.8410   76.6830  220.5330 C   0  0  0  0  0  0  0  0  0  0  0  0
  142.1033   77.2282  221.4517 H   0  0  0  0  0  0  0  0  0  0  0  0
  140.9203   77.1388  220.1398 H   0  0  0  0  0  0  0  0  0  0  0  0
  142.9860   76.7590  219.5220 C   0  0  2  0  0  0  0  0  0  0  0  0
  143.9238   77.0688  220.0064 H   0  0  0  0  0  0  0  0  0  0  0  0
  142.7230   77.7120  218.5250 O   0  0  0  0  0  0  0  0  0  0  0  0
  143.3400   78.4710  218.6950 H   0  0  0  0  0  0  0  0  0  0  0  0
  143.0950   75.3580  218.9130 C   0  0  0  0  0  0  0  0  0  0  0  0
  144.1509   75.0790  218.7817 H   0  0  0  0  0  0  0  0  0  0  0  0
  142.6205   75.3104  217.9217 H   0  0  0  0  0  0  0  0  0  0  0  0
  142.4130   74.4120  219.9100 C   0  0  1  0  0  0  0  0  0  0  0  0
  141.7698   73.7020  219.3695 H   0  0  0  0  0  0  0  0  0  0  0  0
  143.4000   73.5240  220.6900 C   0  0  0  0  0  0  0  0  0  0  0  0
  142.9234   72.5512  220.8813 H   0  0  0  0  0  0  0  0  0  0  0  0
  143.6486   74.0449  221.6264 H   0  0  0  0  0  0  0  0  0  0  0  0
  144.9650   73.2420  219.7790 S   0  0  0  0  0  0  0  0  0  0  0  0
  146.0300   73.3950  221.2460 C   0  0  0  0  0  0  0  0  0  0  0  0
  145.4169   73.3069  222.1550 H   0  0  0  0  0  0  0  0  0  0  0  0
  146.7863   72.5963  221.2350 H   0  0  0  0  0  0  0  0  0  0  0  0
  146.5308   74.3743  221.2350 H   0  0  0  0  0  0  0  0  0  0  0  0
  1  2  1  0
  2  3  1  0
  3  4  2  0
  4  5  1  0
  4  6  1  0
  6  7  1  0
  6  8  1  0
  8  9  2  0
  8 10  1  0
 10 11  2  0
 11 12  1  0
 12 13  2  0
 13 14  1  0
 13 15  1  0
 15 16  1  0
 15 17  2  0
 17 18  1  0
 17 19  1  0
 19 20  1  0
 19 21  2  0
 21 22  1  0
 22 23  1  0
 22 24  2  0
 24 25  1  0
  3 26  1  0
 26 27  1  0
 27 28  1  0
 27 29  1  0
 27 30  1  0
 30 31  1  1
 30 32  1  0
 32 33  1  0
 30 34  1  0
 34 35  1  0
 34 36  1  0
 34 37  1  0
 37 38  1  6
 37 39  1  0
 39 40  1  0
 39 41  1  0
 39 42  1  0
 42 43  1  0
 43 44  1  0
 43 45  1  0
 43 46  1  0
 24 10  1  0
 37 26  1  0
 21 12  1  0
M  END
>  <UniqueID>  (22) 
6

>  <SMILES>  (22) 
CSC[C@@H]1C[C@@H](O)CN1/C(O)=C\NC(=O)c1ccc2cc(F)ccc2n1

>  <Energy>  (22) 
48.25694979248111

>  <Genealogy>  (22) 
CSC[C@@H]1C[C@@H](O)CN1C(O)=CNC(=O)c1ccc2cc(F)ccc2n1 (tautomer)
CSC[C@@H]1C[C@@H](O)CN1/C(O)=C\NC(=O)c1ccc2cc(F)ccc2n1 (cis-trans isomerization)
CSC[C@@H]1C[C@@H](O)CN1/C(O)=C\NC(=O)c1ccc2cc(F)ccc2n1 (3D coordinates assigned)
CSC[C@@H]1C[C@@H](O)CN1/C(O)=C\NC(=O)c1ccc2cc(F)ccc2n1 (nonaromatic ring conformer: 48.25694979248111 kcal/mol)

>  <smiles>  (22) 
CSC[C@@H]1C[C@@H](O)CN1C(=O)CNC(=O)c1ccc2cc(F)ccc2n1

>  <score_type>  (22) 
oracle

>  <origin>  (22) 
autodockgpu

>  <m_score__min__energy>  (22) 
-7.3899999999999997

>  <m_primary>  (22) 
energy

>  <meeko>  (22) 
{"free_energy": -7.15, "intermolecular_energy": -9.54, "internal_energy": -1.11, "cluster_size": 10, "cluster_id": 2, "rank_in_cluster": 4}

>  <energy>  (22) 
-6.78

>  <cluster_rmsd>  (22) 
1.53

>  <rmsd>  (22) 
272.89

>  <cluster>  (22) 
1

$$$$
CJVBSAWGHWUQCR-DXLIDDBMNA-N
     RDKit          3D

 46 48  0  0  0  0  0  0  0  0999 V2000
  142.1870   73.8750  220.9750 H   0  0  0  0  0  0  0  0  0  0  0  0
  142.0570   74.8510  221.2170 O   0  0  0  0  0  0  0  0  0  0  0  0
  140.7900   75.4270  221.3140 C   0  0  0  0  0  0  0  0  0  0  0  0
  139.6940   74.6570  221.2450 C   0  0  0  0  0  0  0  0  0  0  0  0
  138.9705   74.8320  220.4351 H   0  0  0  0  0  0  0  0  0  0  0  0
  139.4350   73.6120  222.1940 N   0  0  0  0  0  0  0  0  0  0  0  0
  138.6240   73.6970  222.8430 H   0  0  0  0  0  0  0  0  0  0  0  0
  140.2960   72.4700  222.3210 C   0  0  0  0  0  0  0  0  0  0  0  0
  141.1950   72.2620  221.4590 O   0  0  0  0  0  0  0  0  0  0  0  0
  140.1440   71.5460  223.4650 C   0  0  0  0  0  0  0  0  0  0  0  0
  140.6570   71.8880  224.6790 N   0  0  0  0  0  0  0  0  0  0  0  0
  140.5640   71.0730  225.7630 C   0  0  0  0  0  0  0  0  0  0  0  0
  141.1080   71.4700  226.9900 C   0  0  0  0  0  0  0  0  0  0  0  0
  141.6084   72.4454  227.0803 H   0  0  0  0  0  0  0  0  0  0  0  0
  141.0150   70.6260  228.1010 C   0  0  0  0  0  0  0  0  0  0  0  0
  141.4448   70.9385  229.0641 H   0  0  0  0  0  0  0  0  0  0  0  0
  140.3770   69.3850  227.9920 C   0  0  0  0  0  0  0  0  0  0  0  0
  140.2910   68.5720  229.0730 F   0  0  0  0  0  0  0  0  0  0  0  0
  139.8300   68.9810  226.7680 C   0  0  0  0  0  0  0  0  0  0  0  0
  139.3298   68.0049  226.6844 H   0  0  0  0  0  0  0  0  0  0  0  0
  139.9200   69.8210  225.6490 C   0  0  0  0  0  0  0  0  0  0  0  0
  139.3840   69.4480  224.4110 C   0  0  0  0  0  0  0  0  0  0  0  0
  138.8757   68.4787  224.3009 H   0  0  0  0  0  0  0  0  0  0  0  0
  139.4950   70.3070  223.3160 C   0  0  0  0  0  0  0  0  0  0  0  0
  139.0768   70.0161  222.3411 H   0  0  0  0  0  0  0  0  0  0  0  0
  140.6920   76.8440  221.5070 N   0  0  0  0  0  0  0  0  0  0  0  0
  141.7150   77.7520  221.0210 C   0  0  0  0  0  0  0  0  0  0  0  0
  141.6809   77.8163  219.9234 H   0  0  0  0  0  0  0  0  0  0  0  0
  142.7245   77.4097  221.2927 H   0  0  0  0  0  0  0  0  0  0  0  0
  141.3920   79.1100  221.6450 C   0  0  2  0  0  0  0  0  0  0  0  0
  140.9122   79.7782  220.9147 H   0  0  0  0  0  0  0  0  0  0  0  0
  142.5570   79.7660  222.0720 O   0  0  0  0  0  0  0  0  0  0  0  0
  143.3200   79.2100  221.7650 H   0  0  0  0  0  0  0  0  0  0  0  0
  140.4740   78.8120  222.8340 C   0  0  0  0  0  0  0  0  0  0  0  0
  139.6735   79.5638  222.8973 H   0  0  0  0  0  0  0  0  0  0  0  0
  141.0238   78.8418  223.7863 H   0  0  0  0  0  0  0  0  0  0  0  0
  139.8810   77.4220  222.5690 C   0  0  1  0  0  0  0  0  0  0  0  0
  139.9056   76.8237  223.4917 H   0  0  0  0  0  0  0  0  0  0  0  0
  138.3940   77.4540  222.1680 C   0  0  0  0  0  0  0  0  0  0  0  0
  138.3156   77.2512  221.0897 H   0  0  0  0  0  0  0  0  0  0  0  0
  138.0017   78.4494  222.4236 H   0  0  0  0  0  0  0  0  0  0  0  0
  137.3930   76.2150  223.0720 S   0  0  0  0  0  0  0  0  0  0  0  0
  136.4040   75.7270  221.6250 C   0  0  0  0  0  0  0  0  0  0  0  0
  135.4650   75.2637  221.9620 H   0  0  0  0  0  0  0  0  0  0  0  0
  136.1771   76.6166  221.0190 H   0  0  0  0  0  0  0  0  0  0  0  0
  136.9720   75.0057  221.0190 H   0  0  0  0  0  0  0  0  0  0  0  0
  1  2  1  0
  2  3  1  0
  3  4  2  0
  4  5  1  0
  4  6  1  0
  6  7  1  0
  6  8  1  0
  8  9  2  0
  8 10  1  0
 10 11  2  0
 11 12  1  0
 12 13  2  0
 13 14  1  0
 13 15  1  0
 15 16  1  0
 15 17  2  0
 17 18  1  0
 17 19  1  0
 19 20  1  0
 19 21  2  0
 21 22  1  0
 22 23  1  0
 22 24  2  0
 24 25  1  0
  3 26  1  0
 26 27  1  0
 27 28  1  0
 27 29  1  0
 27 30  1  0
 30 31  1  6
 30 32  1  0
 32 33  1  0
 30 34  1  0
 34 35  1  0
 34 36  1  0
 34 37  1  0
 37 38  1  1
 37 39  1  0
 39 40  1  0
 39 41  1  0
 39 42  1  0
 42 43  1  0
 43 44  1  0
 43 45  1  0
 43 46  1  0
 24 10  1  0
 37 26  1  0
 21 12  1  0
M  END
>  <UniqueID>  (23) 
6

>  <SMILES>  (23) 
CSC[C@@H]1C[C@@H](O)CN1/C(O)=C\NC(=O)c1ccc2cc(F)ccc2n1

>  <Energy>  (23) 
48.25694979248111

>  <Genealogy>  (23) 
CSC[C@@H]1C[C@@H](O)CN1C(O)=CNC(=O)c1ccc2cc(F)ccc2n1 (tautomer)
CSC[C@@H]1C[C@@H](O)CN1/C(O)=C\NC(=O)c1ccc2cc(F)ccc2n1 (cis-trans isomerization)
CSC[C@@H]1C[C@@H](O)CN1/C(O)=C\NC(=O)c1ccc2cc(F)ccc2n1 (3D coordinates assigned)
CSC[C@@H]1C[C@@H](O)CN1/C(O)=C\NC(=O)c1ccc2cc(F)ccc2n1 (nonaromatic ring conformer: 48.25694979248111 kcal/mol)

>  <smiles>  (23) 
CSC[C@@H]1C[C@@H](O)CN1C(=O)CNC(=O)c1ccc2cc(F)ccc2n1

>  <score_type>  (23) 
oracle

>  <origin>  (23) 
autodockgpu

>  <m_score__min__energy>  (23) 
-7.3899999999999997

>  <m_primary>  (23) 
energy

>  <meeko>  (23) 
{"free_energy": -6.57, "intermolecular_energy": -8.96, "internal_energy": -1.77, "cluster_size": 6, "cluster_id": 1, "rank_in_cluster": 6}

>  <energy>  (23) 
-6.74

>  <cluster_rmsd>  (23) 
1.53

>  <rmsd>  (23) 
272.87

>  <cluster>  (23) 
1

$$$$
CJVBSAWGHWUQCR-DXLIDDBMNA-N
     RDKit          3D

 46 48  0  0  0  0  0  0  0  0999 V2000
  140.5090   71.3180  220.1210 H   0  0  0  0  0  0  0  0  0  0  0  0
  141.2210   72.0180  219.9470 O   0  0  0  0  0  0  0  0  0  0  0  0
  141.1350   73.3070  220.4740 C   0  0  0  0  0  0  0  0  0  0  0  0
  140.1710   73.6100  221.3560 C   0  0  0  0  0  0  0  0  0  0  0  0
  139.5456   74.4971  221.1771 H   0  0  0  0  0  0  0  0  0  0  0  0
  139.9290   72.8140  222.5260 N   0  0  0  0  0  0  0  0  0  0  0  0
  139.9770   73.2560  223.4680 H   0  0  0  0  0  0  0  0  0  0  0  0
  139.6780   71.4020  222.4450 C   0  0  0  0  0  0  0  0  0  0  0  0
  139.4670   70.8650  221.3230 O   0  0  0  0  0  0  0  0  0  0  0  0
  139.6810   70.5740  223.6700 C   0  0  0  0  0  0  0  0  0  0  0  0
  140.2760   71.0470  224.8000 N   0  0  0  0  0  0  0  0  0  0  0  0
  140.3270   70.3250  225.9510 C   0  0  0  0  0  0  0  0  0  0  0  0
  140.9510   70.8540  227.0860 C   0  0  0  0  0  0  0  0  0  0  0  0
  141.3990   71.8580  227.0500 H   0  0  0  0  0  0  0  0  0  0  0  0
  141.0050   70.1060  228.2660 C   0  0  0  0  0  0  0  0  0  0  0  0
  141.4974   70.5229  229.1569 H   0  0  0  0  0  0  0  0  0  0  0  0
  140.4350   68.8290  228.3180 C   0  0  0  0  0  0  0  0  0  0  0  0
  140.4910   68.1100  229.4650 F   0  0  0  0  0  0  0  0  0  0  0  0
  139.8080   68.2930  227.1870 C   0  0  0  0  0  0  0  0  0  0  0  0
  139.3609   67.2888  227.2297 H   0  0  0  0  0  0  0  0  0  0  0  0
  139.7500   69.0370  225.9990 C   0  0  0  0  0  0  0  0  0  0  0  0
  139.1320   68.5300  224.8510 C   0  0  0  0  0  0  0  0  0  0  0  0
  138.6750   67.5296  224.8678 H   0  0  0  0  0  0  0  0  0  0  0  0
  139.0960   69.2960  223.6830 C   0  0  0  0  0  0  0  0  0  0  0  0
  138.6120   68.9007  222.7777 H   0  0  0  0  0  0  0  0  0  0  0  0
  142.1040   74.2830  220.0690 N   0  0  0  0  0  0  0  0  0  0  0  0
  142.0430   75.6570  220.5340 C   0  0  0  0  0  0  0  0  0  0  0  0
  142.3111   75.7138  221.5993 H   0  0  0  0  0  0  0  0  0  0  0  0
  141.0306   76.0754  220.4336 H   0  0  0  0  0  0  0  0  0  0  0  0
  143.0580   76.4250  219.6870 C   0  0  2  0  0  0  0  0  0  0  0  0
  143.9823   76.6171  220.2516 H   0  0  0  0  0  0  0  0  0  0  0  0
  142.5610   77.6810  219.3090 O   0  0  0  0  0  0  0  0  0  0  0  0
  143.2730   78.3400  219.5200 H   0  0  0  0  0  0  0  0  0  0  0  0
  143.3140   75.5520  218.4550 C   0  0  0  0  0  0  0  0  0  0  0  0
  144.3817   75.5669  218.1908 H   0  0  0  0  0  0  0  0  0  0  0  0
  142.7571   75.9165  217.5792 H   0  0  0  0  0  0  0  0  0  0  0  0
  142.8810   74.1330  218.8470 C   0  0  1  0  0  0  0  0  0  0  0  0
  142.2998   73.6803  218.0301 H   0  0  0  0  0  0  0  0  0  0  0  0
  144.0620   73.1680  219.0630 C   0  0  0  0  0  0  0  0  0  0  0  0
  144.9605   73.6020  218.6001 H   0  0  0  0  0  0  0  0  0  0  0  0
  143.7933   72.2052  218.6039 H   0  0  0  0  0  0  0  0  0  0  0  0
  144.4060   72.8600  220.8350 S   0  0  0  0  0  0  0  0  0  0  0  0
  145.9810   73.7700  220.8500 C   0  0  0  0  0  0  0  0  0  0  0  0
  146.2911   73.9491  221.8901 H   0  0  0  0  0  0  0  0  0  0  0  0
  146.7515   73.1779  220.3345 H   0  0  0  0  0  0  0  0  0  0  0  0
  145.8529   74.7332  220.3345 H   0  0  0  0  0  0  0  0  0  0  0  0
  1  2  1  0
  2  3  1  0
  3  4  2  0
  4  5  1  0
  4  6  1  0
  6  7  1  0
  6  8  1  0
  8  9  2  0
  8 10  1  0
 10 11  2  0
 11 12  1  0
 12 13  2  0
 13 14  1  0
 13 15  1  0
 15 16  1  0
 15 17  2  0
 17 18  1  0
 17 19  1  0
 19 20  1  0
 19 21  2  0
 21 22  1  0
 22 23  1  0
 22 24  2  0
 24 25  1  0
  3 26  1  0
 26 27  1  0
 27 28  1  0
 27 29  1  0
 27 30  1  0
 30 31  1  1
 30 32  1  0
 32 33  1  0
 30 34  1  0
 34 35  1  0
 34 36  1  0
 34 37  1  0
 37 38  1  6
 37 39  1  0
 39 40  1  0
 39 41  1  0
 39 42  1  0
 42 43  1  0
 43 44  1  0
 43 45  1  0
 43 46  1  0
 24 10  1  0
 37 26  1  0
 21 12  1  0
M  END
>  <UniqueID>  (24) 
6

>  <SMILES>  (24) 
CSC[C@@H]1C[C@@H](O)CN1/C(O)=C\NC(=O)c1ccc2cc(F)ccc2n1

>  <Energy>  (24) 
48.25694979248111

>  <Genealogy>  (24) 
CSC[C@@H]1C[C@@H](O)CN1C(O)=CNC(=O)c1ccc2cc(F)ccc2n1 (tautomer)
CSC[C@@H]1C[C@@H](O)CN1/C(O)=C\NC(=O)c1ccc2cc(F)ccc2n1 (cis-trans isomerization)
CSC[C@@H]1C[C@@H](O)CN1/C(O)=C\NC(=O)c1ccc2cc(F)ccc2n1 (3D coordinates assigned)
CSC[C@@H]1C[C@@H](O)CN1/C(O)=C\NC(=O)c1ccc2cc(F)ccc2n1 (nonaromatic ring conformer: 48.25694979248111 kcal/mol)

>  <smiles>  (24) 
CSC[C@@H]1C[C@@H](O)CN1C(=O)CNC(=O)c1ccc2cc(F)ccc2n1

>  <score_type>  (24) 
oracle

>  <origin>  (24) 
autodockgpu

>  <m_score__min__energy>  (24) 
-7.3899999999999997

>  <m_primary>  (24) 
energy

>  <meeko>  (24) 
{"free_energy": -6.08, "intermolecular_energy": -8.47, "internal_energy": -1.86, "cluster_size": 10, "cluster_id": 2, "rank_in_cluster": 10}

>  <energy>  (24) 
-6.7

>  <cluster_rmsd>  (24) 
1.39

>  <rmsd>  (24) 
272.46

>  <cluster>  (24) 
1

$$$$
CJVBSAWGHWUQCR-DXLIDDBMNA-N
     RDKit          3D

 46 48  0  0  0  0  0  0  0  0999 V2000
  141.9240   76.6750  222.6070 H   0  0  0  0  0  0  0  0  0  0  0  0
  141.0870   76.1690  222.3380 O   0  0  0  0  0  0  0  0  0  0  0  0
  141.1020   75.1880  221.3470 C   0  0  0  0  0  0  0  0  0  0  0  0
  140.0730   74.3350  221.2310 C   0  0  0  0  0  0  0  0  0  0  0  0
  139.4635   74.3571  220.3156 H   0  0  0  0  0  0  0  0  0  0  0  0
  139.7420   73.3940  222.2640 N   0  0  0  0  0  0  0  0  0  0  0  0
  139.1750   73.7060  223.0810 H   0  0  0  0  0  0  0  0  0  0  0  0
  140.2190   72.0400  222.2390 C   0  0  0  0  0  0  0  0  0  0  0  0
  140.7780   71.5900  221.2010 O   0  0  0  0  0  0  0  0  0  0  0  0
  140.0690   71.1750  223.4290 C   0  0  0  0  0  0  0  0  0  0  0  0
  140.5790   71.5830  224.6250 N   0  0  0  0  0  0  0  0  0  0  0  0
  140.4890   70.8250  225.7490 C   0  0  0  0  0  0  0  0  0  0  0  0
  141.0290   71.2880  226.9540 C   0  0  0  0  0  0  0  0  0  0  0  0
  141.5241   72.2695  226.9940 H   0  0  0  0  0  0  0  0  0  0  0  0
  140.9390   70.5020  228.1080 C   0  0  0  0  0  0  0  0  0  0  0  0
  141.3667   70.8660  229.0538 H   0  0  0  0  0  0  0  0  0  0  0  0
  140.3070   69.2550  228.0630 C   0  0  0  0  0  0  0  0  0  0  0  0
  140.2230   68.4990  229.1850 F   0  0  0  0  0  0  0  0  0  0  0  0
  139.7630   68.7850  226.8620 C   0  0  0  0  0  0  0  0  0  0  0  0
  139.2668   67.8038  226.8293 H   0  0  0  0  0  0  0  0  0  0  0  0
  139.8510   69.5660  225.7000 C   0  0  0  0  0  0  0  0  0  0  0  0
  139.3180   69.1260  224.4830 C   0  0  0  0  0  0  0  0  0  0  0  0
  138.8139   68.1501  224.4232 H   0  0  0  0  0  0  0  0  0  0  0  0
  139.4270   69.9280  223.3440 C   0  0  0  0  0  0  0  0  0  0  0  0
  139.0120   69.5846  222.3849 H   0  0  0  0  0  0  0  0  0  0  0  0
  142.2220   75.1270  220.4550 N   0  0  0  0  0  0  0  0  0  0  0  0
  142.6930   76.3010  219.7430 C   0  0  0  0  0  0  0  0  0  0  0  0
  143.1801   77.0012  220.4376 H   0  0  0  0  0  0  0  0  0  0  0  0
  141.8654   76.8451  219.2643 H   0  0  0  0  0  0  0  0  0  0  0  0
  143.6990   75.7840  218.7140 C   0  0  2  0  0  0  0  0  0  0  0  0
  144.7324   75.9693  219.0422 H   0  0  0  0  0  0  0  0  0  0  0  0
  143.5550   76.4410  217.4830 O   0  0  0  0  0  0  0  0  0  0  0  0
  144.4720   76.5850  217.1330 H   0  0  0  0  0  0  0  0  0  0  0  0
  143.4080   74.2880  218.5650 C   0  0  0  0  0  0  0  0  0  0  0  0
  144.3476   73.7214  218.4871 H   0  0  0  0  0  0  0  0  0  0  0  0
  142.8256   74.0786  217.6556 H   0  0  0  0  0  0  0  0  0  0  0  0
  142.6420   73.8800  219.8310 C   0  0  1  0  0  0  0  0  0  0  0  0
  141.7923   73.2351  219.5624 H   0  0  0  0  0  0  0  0  0  0  0  0
  143.4780   73.0330  220.8080 C   0  0  0  0  0  0  0  0  0  0  0  0
  142.9317   72.1030  221.0239 H   0  0  0  0  0  0  0  0  0  0  0  0
  143.6355   73.6324  221.7168 H   0  0  0  0  0  0  0  0  0  0  0  0
  145.1260   72.6020  220.1370 S   0  0  0  0  0  0  0  0  0  0  0  0
  146.0570   73.3680  221.4990 C   0  0  0  0  0  0  0  0  0  0  0  0
  145.6450   73.0290  222.4609 H   0  0  0  0  0  0  0  0  0  0  0  0
  147.1152   73.0755  221.4299 H   0  0  0  0  0  0  0  0  0  0  0  0
  145.9739   74.4627  221.4299 H   0  0  0  0  0  0  0  0  0  0  0  0
  1  2  1  0
  2  3  1  0
  3  4  2  0
  4  5  1  0
  4  6  1  0
  6  7  1  0
  6  8  1  0
  8  9  2  0
  8 10  1  0
 10 11  2  0
 11 12  1  0
 12 13  2  0
 13 14  1  0
 13 15  1  0
 15 16  1  0
 15 17  2  0
 17 18  1  0
 17 19  1  0
 19 20  1  0
 19 21  2  0
 21 22  1  0
 22 23  1  0
 22 24  2  0
 24 25  1  0
  3 26  1  0
 26 27  1  0
 27 28  1  0
 27 29  1  0
 27 30  1  0
 30 31  1  1
 30 32  1  0
 32 33  1  0
 30 34  1  0
 34 35  1  0
 34 36  1  0
 34 37  1  0
 37 38  1  6
 37 39  1  0
 39 40  1  0
 39 41  1  0
 39 42  1  0
 42 43  1  0
 43 44  1  0
 43 45  1  0
 43 46  1  0
 24 10  1  0
 37 26  1  0
 21 12  1  0
M  END
>  <UniqueID>  (25) 
6

>  <SMILES>  (25) 
CSC[C@@H]1C[C@@H](O)CN1/C(O)=C\NC(=O)c1ccc2cc(F)ccc2n1

>  <Energy>  (25) 
48.25694979248111

>  <Genealogy>  (25) 
CSC[C@@H]1C[C@@H](O)CN1C(O)=CNC(=O)c1ccc2cc(F)ccc2n1 (tautomer)
CSC[C@@H]1C[C@@H](O)CN1/C(O)=C\NC(=O)c1ccc2cc(F)ccc2n1 (cis-trans isomerization)
CSC[C@@H]1C[C@@H](O)CN1/C(O)=C\NC(=O)c1ccc2cc(F)ccc2n1 (3D coordinates assigned)
CSC[C@@H]1C[C@@H](O)CN1/C(O)=C\NC(=O)c1ccc2cc(F)ccc2n1 (nonaromatic ring conformer: 48.25694979248111 kcal/mol)

>  <smiles>  (25) 
CSC[C@@H]1C[C@@H](O)CN1C(=O)CNC(=O)c1ccc2cc(F)ccc2n1

>  <score_type>  (25) 
oracle

>  <origin>  (25) 
autodockgpu

>  <m_score__min__energy>  (25) 
-7.3899999999999997

>  <m_primary>  (25) 
energy

>  <meeko>  (25) 
{"free_energy": -7.18, "intermolecular_energy": -9.57, "internal_energy": -1.17, "cluster_size": 10, "cluster_id": 2, "rank_in_cluster": 3}

>  <energy>  (25) 
-6.66

>  <cluster_rmsd>  (25) 
1.6

>  <rmsd>  (25) 
272.43

>  <cluster>  (25) 
1

$$$$
CJVBSAWGHWUQCR-DXLIDDBMNA-N
     RDKit          3D

 46 48  0  0  0  0  0  0  0  0999 V2000
  140.3730   71.8500  219.0590 H   0  0  0  0  0  0  0  0  0  0  0  0
  141.1760   72.4190  218.8180 O   0  0  0  0  0  0  0  0  0  0  0  0
  141.7770   73.2780  219.7390 C   0  0  0  0  0  0  0  0  0  0  0  0
  141.0400   73.8540  220.7010 C   0  0  0  0  0  0  0  0  0  0  0  0
  140.6630   74.8753  220.5434 H   0  0  0  0  0  0  0  0  0  0  0  0
  140.7280   73.1800  221.9290 N   0  0  0  0  0  0  0  0  0  0  0  0
  141.0840   73.5630  222.8310 H   0  0  0  0  0  0  0  0  0  0  0  0
  139.9830   71.9530  221.9540 C   0  0  0  0  0  0  0  0  0  0  0  0
  139.4130   71.5420  220.9050 O   0  0  0  0  0  0  0  0  0  0  0  0
  139.8930   71.1610  223.1990 C   0  0  0  0  0  0  0  0  0  0  0  0
  140.4510   71.6430  224.3450 N   0  0  0  0  0  0  0  0  0  0  0  0
  140.4160   70.9540  225.5160 C   0  0  0  0  0  0  0  0  0  0  0  0
  141.0040   71.4920  226.6660 C   0  0  0  0  0  0  0  0  0  0  0  0
  141.4915   72.4772  226.6250 H   0  0  0  0  0  0  0  0  0  0  0  0
  140.9720   70.7770  227.8680 C   0  0  0  0  0  0  0  0  0  0  0  0
  141.4376   71.1998  228.7705 H   0  0  0  0  0  0  0  0  0  0  0  0
  140.3490   69.5250  227.9250 C   0  0  0  0  0  0  0  0  0  0  0  0
  140.3210   68.8380  229.0930 F   0  0  0  0  0  0  0  0  0  0  0  0
  139.7580   68.9800  226.7800 C   0  0  0  0  0  0  0  0  0  0  0  0
  139.2701   67.9953  226.8280 H   0  0  0  0  0  0  0  0  0  0  0  0
  139.7880   69.6900  225.5710 C   0  0  0  0  0  0  0  0  0  0  0  0
  139.2070   69.1740  224.4070 C   0  0  0  0  0  0  0  0  0  0  0  0
  138.7101   68.1929  224.4278 H   0  0  0  0  0  0  0  0  0  0  0  0
  139.2590   69.9070  223.2180 C   0  0  0  0  0  0  0  0  0  0  0  0
  138.8054   69.5038  222.3006 H   0  0  0  0  0  0  0  0  0  0  0  0
  143.1880   73.5110  219.6440 N   0  0  0  0  0  0  0  0  0  0  0  0
  144.1020   72.4790  219.1870 C   0  0  0  0  0  0  0  0  0  0  0  0
  143.9748   72.3038  218.1085 H   0  0  0  0  0  0  0  0  0  0  0  0
  143.9180   71.5198  219.6931 H   0  0  0  0  0  0  0  0  0  0  0  0
  145.5050   73.0120  219.4790 C   0  0  2  0  0  0  0  0  0  0  0  0
  145.9860   73.3871  218.5636 H   0  0  0  0  0  0  0  0  0  0  0  0
  146.3410   72.0010  219.9770 O   0  0  0  0  0  0  0  0  0  0  0  0
  146.0890   71.8720  220.9280 H   0  0  0  0  0  0  0  0  0  0  0  0
  145.3190   74.1200  220.5200 C   0  0  0  0  0  0  0  0  0  0  0  0
  145.9829   74.9686  220.2983 H   0  0  0  0  0  0  0  0  0  0  0  0
  145.5673   73.7686  221.5324 H   0  0  0  0  0  0  0  0  0  0  0  0
  143.8500   74.5510  220.4180 C   0  0  1  0  0  0  0  0  0  0  0  0
  143.4227   74.6637  221.4253 H   0  0  0  0  0  0  0  0  0  0  0  0
  143.6590   75.9300  219.7600 C   0  0  0  0  0  0  0  0  0  0  0  0
  144.5783   76.5175  219.9004 H   0  0  0  0  0  0  0  0  0  0  0  0
  142.7929   76.4102  220.2389 H   0  0  0  0  0  0  0  0  0  0  0  0
  143.3060   75.8130  217.9660 S   0  0  0  0  0  0  0  0  0  0  0  0
  142.6540   77.5050  217.8230 C   0  0  0  0  0  0  0  0  0  0  0  0
  142.4933   77.9222  218.8281 H   0  0  0  0  0  0  0  0  0  0  0  0
  143.3753   78.1310  217.2772 H   0  0  0  0  0  0  0  0  0  0  0  0
  141.6992   77.4851  217.2772 H   0  0  0  0  0  0  0  0  0  0  0  0
  1  2  1  0
  2  3  1  0
  3  4  2  0
  4  5  1  0
  4  6  1  0
  6  7  1  0
  6  8  1  0
  8  9  2  0
  8 10  1  0
 10 11  2  0
 11 12  1  0
 12 13  2  0
 13 14  1  0
 13 15  1  0
 15 16  1  0
 15 17  2  0
 17 18  1  0
 17 19  1  0
 19 20  1  0
 19 21  2  0
 21 22  1  0
 22 23  1  0
 22 24  2  0
 24 25  1  0
  3 26  1  0
 26 27  1  0
 27 28  1  0
 27 29  1  0
 27 30  1  0
 30 31  1  6
 30 32  1  0
 32 33  1  0
 30 34  1  0
 34 35  1  0
 34 36  1  0
 34 37  1  0
 37 38  1  1
 37 39  1  0
 39 40  1  0
 39 41  1  0
 39 42  1  0
 42 43  1  0
 43 44  1  0
 43 45  1  0
 43 46  1  0
 24 10  1  0
 37 26  1  0
 21 12  1  0
M  END
>  <UniqueID>  (26) 
6

>  <SMILES>  (26) 
CSC[C@@H]1C[C@@H](O)CN1/C(O)=C\NC(=O)c1ccc2cc(F)ccc2n1

>  <Energy>  (26) 
48.25694979248111

>  <Genealogy>  (26) 
CSC[C@@H]1C[C@@H](O)CN1C(O)=CNC(=O)c1ccc2cc(F)ccc2n1 (tautomer)
CSC[C@@H]1C[C@@H](O)CN1/C(O)=C\NC(=O)c1ccc2cc(F)ccc2n1 (cis-trans isomerization)
CSC[C@@H]1C[C@@H](O)CN1/C(O)=C\NC(=O)c1ccc2cc(F)ccc2n1 (3D coordinates assigned)
CSC[C@@H]1C[C@@H](O)CN1/C(O)=C\NC(=O)c1ccc2cc(F)ccc2n1 (nonaromatic ring conformer: 48.25694979248111 kcal/mol)

>  <smiles>  (26) 
CSC[C@@H]1C[C@@H](O)CN1C(=O)CNC(=O)c1ccc2cc(F)ccc2n1

>  <score_type>  (26) 
oracle

>  <origin>  (26) 
autodockgpu

>  <m_score__min__energy>  (26) 
-7.3899999999999997

>  <m_primary>  (26) 
energy

>  <meeko>  (26) 
{"free_energy": -6.17, "intermolecular_energy": -8.56, "internal_energy": -1.9, "cluster_size": 3, "cluster_id": 3, "rank_in_cluster": 3}

>  <energy>  (26) 
-6.57

>  <cluster_rmsd>  (26) 
1.79

>  <rmsd>  (26) 
272.66

>  <cluster>  (26) 
1

$$$$
CJVBSAWGHWUQCR-DXLIDDBMNA-N
     RDKit          3D

 46 48  0  0  0  0  0  0  0  0999 V2000
  141.8470   76.7630  222.9750 H   0  0  0  0  0  0  0  0  0  0  0  0
  141.0120   76.4130  222.5200 O   0  0  0  0  0  0  0  0  0  0  0  0
  141.0720   75.6040  221.3850 C   0  0  0  0  0  0  0  0  0  0  0  0
  140.1440   74.6550  221.1870 C   0  0  0  0  0  0  0  0  0  0  0  0
  139.6243   74.6122  220.2184 H   0  0  0  0  0  0  0  0  0  0  0  0
  139.8080   73.6940  222.1990 N   0  0  0  0  0  0  0  0  0  0  0  0
  139.2230   73.9860  223.0110 H   0  0  0  0  0  0  0  0  0  0  0  0
  140.3030   72.3470  222.1610 C   0  0  0  0  0  0  0  0  0  0  0  0
  140.8850   71.9200  221.1260 O   0  0  0  0  0  0  0  0  0  0  0  0
  140.1440   71.4620  223.3350 C   0  0  0  0  0  0  0  0  0  0  0  0
  140.6360   71.8530  224.5430 N   0  0  0  0  0  0  0  0  0  0  0  0
  140.5370   71.0760  225.6540 C   0  0  0  0  0  0  0  0  0  0  0  0
  141.0600   71.5220  226.8730 C   0  0  0  0  0  0  0  0  0  0  0  0
  141.5489   72.5054  226.9349 H   0  0  0  0  0  0  0  0  0  0  0  0
  140.9610   70.7170  228.0130 C   0  0  0  0  0  0  0  0  0  0  0  0
  141.3740   71.0683  228.9701 H   0  0  0  0  0  0  0  0  0  0  0  0
  140.3380   69.4660  227.9390 C   0  0  0  0  0  0  0  0  0  0  0  0
  140.2450   68.6910  229.0470 F   0  0  0  0  0  0  0  0  0  0  0  0
  139.8120   69.0130  226.7240 C   0  0  0  0  0  0  0  0  0  0  0  0
  139.3228   68.0293  226.6686 H   0  0  0  0  0  0  0  0  0  0  0  0
  139.9090   69.8140  225.5770 C   0  0  0  0  0  0  0  0  0  0  0  0
  139.3940   69.3900  224.3460 C   0  0  0  0  0  0  0  0  0  0  0  0
  138.8975   68.4119  224.2638 H   0  0  0  0  0  0  0  0  0  0  0  0
  139.5120   70.2120  223.2220 C   0  0  0  0  0  0  0  0  0  0  0  0
  139.1115   69.8817  222.2522 H   0  0  0  0  0  0  0  0  0  0  0  0
  142.1250   75.8220  220.4380 N   0  0  0  0  0  0  0  0  0  0  0  0
  142.2770   77.0900  219.7470 C   0  0  0  0  0  0  0  0  0  0  0  0
  142.6299   77.8661  220.4421 H   0  0  0  0  0  0  0  0  0  0  0  0
  141.3225   77.4423  219.3288 H   0  0  0  0  0  0  0  0  0  0  0  0
  143.3160   76.8410  218.6530 C   0  0  2  0  0  0  0  0  0  0  0  0
  144.2971   77.2494  218.9371 H   0  0  0  0  0  0  0  0  0  0  0  0
  142.9580   77.4770  217.4550 O   0  0  0  0  0  0  0  0  0  0  0  0
  143.6790   78.1300  217.2570 H   0  0  0  0  0  0  0  0  0  0  0  0
  143.3650   75.3220  218.4650 C   0  0  0  0  0  0  0  0  0  0  0  0
  144.4031   74.9875  218.3216 H   0  0  0  0  0  0  0  0  0  0  0  0
  142.7963   75.0063  217.5779 H   0  0  0  0  0  0  0  0  0  0  0  0
  142.7830   74.7200  219.7510 C   0  0  1  0  0  0  0  0  0  0  0  0
  142.0891   73.9040  219.5009 H   0  0  0  0  0  0  0  0  0  0  0  0
  143.8420   74.0640  220.6560 C   0  0  0  0  0  0  0  0  0  0  0  0
  143.3683   73.2432  221.2145 H   0  0  0  0  0  0  0  0  0  0  0  0
  144.2320   74.8415  221.3294 H   0  0  0  0  0  0  0  0  0  0  0  0
  145.2580   73.3890  219.7100 S   0  0  0  0  0  0  0  0  0  0  0  0
  146.3830   73.3200  221.1370 C   0  0  0  0  0  0  0  0  0  0  0  0
  145.7975   73.3559  222.0675 H   0  0  0  0  0  0  0  0  0  0  0  0
  146.9610   72.3847  221.1033 H   0  0  0  0  0  0  0  0  0  0  0  0
  147.0710   74.1776  221.1033 H   0  0  0  0  0  0  0  0  0  0  0  0
  1  2  1  0
  2  3  1  0
  3  4  2  0
  4  5  1  0
  4  6  1  0
  6  7  1  0
  6  8  1  0
  8  9  2  0
  8 10  1  0
 10 11  2  0
 11 12  1  0
 12 13  2  0
 13 14  1  0
 13 15  1  0
 15 16  1  0
 15 17  2  0
 17 18  1  0
 17 19  1  0
 19 20  1  0
 19 21  2  0
 21 22  1  0
 22 23  1  0
 22 24  2  0
 24 25  1  0
  3 26  1  0
 26 27  1  0
 27 28  1  0
 27 29  1  0
 27 30  1  0
 30 31  1  1
 30 32  1  0
 32 33  1  0
 30 34  1  0
 34 35  1  0
 34 36  1  0
 34 37  1  0
 37 38  1  6
 37 39  1  0
 39 40  1  0
 39 41  1  0
 39 42  1  0
 42 43  1  0
 43 44  1  0
 43 45  1  0
 43 46  1  0
 24 10  1  0
 37 26  1  0
 21 12  1  0
M  END
>  <UniqueID>  (27) 
6

>  <SMILES>  (27) 
CSC[C@@H]1C[C@@H](O)CN1/C(O)=C\NC(=O)c1ccc2cc(F)ccc2n1

>  <Energy>  (27) 
48.25694979248111

>  <Genealogy>  (27) 
CSC[C@@H]1C[C@@H](O)CN1C(O)=CNC(=O)c1ccc2cc(F)ccc2n1 (tautomer)
CSC[C@@H]1C[C@@H](O)CN1/C(O)=C\NC(=O)c1ccc2cc(F)ccc2n1 (cis-trans isomerization)
CSC[C@@H]1C[C@@H](O)CN1/C(O)=C\NC(=O)c1ccc2cc(F)ccc2n1 (3D coordinates assigned)
CSC[C@@H]1C[C@@H](O)CN1/C(O)=C\NC(=O)c1ccc2cc(F)ccc2n1 (nonaromatic ring conformer: 48.25694979248111 kcal/mol)

>  <smiles>  (27) 
CSC[C@@H]1C[C@@H](O)CN1C(=O)CNC(=O)c1ccc2cc(F)ccc2n1

>  <score_type>  (27) 
oracle

>  <origin>  (27) 
autodockgpu

>  <m_score__min__energy>  (27) 
-7.3899999999999997

>  <m_primary>  (27) 
energy

>  <meeko>  (27) 
{"free_energy": -7.38, "intermolecular_energy": -9.76, "internal_energy": -1.08, "cluster_size": 10, "cluster_id": 2, "rank_in_cluster": 1}

>  <energy>  (27) 
-7.38

>  <cluster_rmsd>  (27) 
0.0

>  <rmsd>  (27) 
272.39

>  <cluster>  (27) 
2

$$$$
CJVBSAWGHWUQCR-DXLIDDBMNA-N
     RDKit          3D

 46 48  0  0  0  0  0  0  0  0999 V2000
  141.8270   76.8960  222.8540 H   0  0  0  0  0  0  0  0  0  0  0  0
  140.9970   76.4780  222.4490 O   0  0  0  0  0  0  0  0  0  0  0  0
  141.0610   75.6230  221.3480 C   0  0  0  0  0  0  0  0  0  0  0  0
  140.1390   74.6620  221.1890 C   0  0  0  0  0  0  0  0  0  0  0  0
  139.6059   74.5886  220.2296 H   0  0  0  0  0  0  0  0  0  0  0  0
  139.8260   73.7260  222.2320 N   0  0  0  0  0  0  0  0  0  0  0  0
  139.3650   74.0620  223.1040 H   0  0  0  0  0  0  0  0  0  0  0  0
  140.1820   72.3380  222.1380 C   0  0  0  0  0  0  0  0  0  0  0  0
  140.6040   71.8700  221.0450 O   0  0  0  0  0  0  0  0  0  0  0  0
  140.0700   71.4590  223.3220 C   0  0  0  0  0  0  0  0  0  0  0  0
  140.5740   71.8740  224.5180 N   0  0  0  0  0  0  0  0  0  0  0  0
  140.5170   71.1030  225.6360 C   0  0  0  0  0  0  0  0  0  0  0  0
  141.0500   71.5740  226.8420 C   0  0  0  0  0  0  0  0  0  0  0  0
  141.5125   72.5710  226.8872 H   0  0  0  0  0  0  0  0  0  0  0  0
  140.9940   70.7760  227.9890 C   0  0  0  0  0  0  0  0  0  0  0  0
  141.4151   71.1462  228.9354 H   0  0  0  0  0  0  0  0  0  0  0  0
  140.4040   69.5080  227.9370 C   0  0  0  0  0  0  0  0  0  0  0  0
  140.3530   68.7400  229.0530 F   0  0  0  0  0  0  0  0  0  0  0  0
  139.8680   69.0310  226.7360 C   0  0  0  0  0  0  0  0  0  0  0  0
  139.4050   68.0339  226.6979 H   0  0  0  0  0  0  0  0  0  0  0  0
  139.9210   69.8240  225.5810 C   0  0  0  0  0  0  0  0  0  0  0  0
  139.3950   69.3770  224.3630 C   0  0  0  0  0  0  0  0  0  0  0  0
  138.9238   68.3852  224.2979 H   0  0  0  0  0  0  0  0  0  0  0  0
  139.4690   70.1910  223.2310 C   0  0  0  0  0  0  0  0  0  0  0  0
  139.0588   69.8418  222.2719 H   0  0  0  0  0  0  0  0  0  0  0  0
  142.1130   75.8090  220.3920 N   0  0  0  0  0  0  0  0  0  0  0  0
  142.3230   77.0830  219.7290 C   0  0  0  0  0  0  0  0  0  0  0  0
  142.7242   77.8226  220.4375 H   0  0  0  0  0  0  0  0  0  0  0  0
  141.3832   77.4938  219.3316 H   0  0  0  0  0  0  0  0  0  0  0  0
  143.3340   76.8080  218.6160 C   0  0  2  0  0  0  0  0  0  0  0  0
  144.3383   77.1584  218.8966 H   0  0  0  0  0  0  0  0  0  0  0  0
  142.9950   77.4900  217.4380 O   0  0  0  0  0  0  0  0  0  0  0  0
  143.7000   78.1750  217.2980 H   0  0  0  0  0  0  0  0  0  0  0  0
  143.3000   75.2930  218.3910 C   0  0  0  0  0  0  0  0  0  0  0  0
  144.3170   74.9079  218.2254 H   0  0  0  0  0  0  0  0  0  0  0  0
  142.7043   75.0297  217.5046 H   0  0  0  0  0  0  0  0  0  0  0  0
  142.7030   74.6910  219.6700 C   0  0  1  0  0  0  0  0  0  0  0  0
  141.9636   73.9191  219.4103 H   0  0  0  0  0  0  0  0  0  0  0  0
  143.7370   73.9580  220.5440 C   0  0  0  0  0  0  0  0  0  0  0  0
  143.2663   73.0578  220.9660 H   0  0  0  0  0  0  0  0  0  0  0  0
  144.0604   74.6546  221.3315 H   0  0  0  0  0  0  0  0  0  0  0  0
  145.2260   73.4550  219.6040 S   0  0  0  0  0  0  0  0  0  0  0  0
  146.3180   73.3950  221.0570 C   0  0  0  0  0  0  0  0  0  0  0  0
  145.7108   73.4284  221.9736 H   0  0  0  0  0  0  0  0  0  0  0  0
  146.9026   72.4634  221.0381 H   0  0  0  0  0  0  0  0  0  0  0  0
  147.0011   74.2570  221.0381 H   0  0  0  0  0  0  0  0  0  0  0  0
  1  2  1  0
  2  3  1  0
  3  4  2  0
  4  5  1  0
  4  6  1  0
  6  7  1  0
  6  8  1  0
  8  9  2  0
  8 10  1  0
 10 11  2  0
 11 12  1  0
 12 13  2  0
 13 14  1  0
 13 15  1  0
 15 16  1  0
 15 17  2  0
 17 18  1  0
 17 19  1  0
 19 20  1  0
 19 21  2  0
 21 22  1  0
 22 23  1  0
 22 24  2  0
 24 25  1  0
  3 26  1  0
 26 27  1  0
 27 28  1  0
 27 29  1  0
 27 30  1  0
 30 31  1  1
 30 32  1  0
 32 33  1  0
 30 34  1  0
 34 35  1  0
 34 36  1  0
 34 37  1  0
 37 38  1  6
 37 39  1  0
 39 40  1  0
 39 41  1  0
 39 42  1  0
 42 43  1  0
 43 44  1  0
 43 45  1  0
 43 46  1  0
 24 10  1  0
 37 26  1  0
 21 12  1  0
M  END
>  <UniqueID>  (28) 
6

>  <SMILES>  (28) 
CSC[C@@H]1C[C@@H](O)CN1/C(O)=C\NC(=O)c1ccc2cc(F)ccc2n1

>  <Energy>  (28) 
48.25694979248111

>  <Genealogy>  (28) 
CSC[C@@H]1C[C@@H](O)CN1C(O)=CNC(=O)c1ccc2cc(F)ccc2n1 (tautomer)
CSC[C@@H]1C[C@@H](O)CN1/C(O)=C\NC(=O)c1ccc2cc(F)ccc2n1 (cis-trans isomerization)
CSC[C@@H]1C[C@@H](O)CN1/C(O)=C\NC(=O)c1ccc2cc(F)ccc2n1 (3D coordinates assigned)
CSC[C@@H]1C[C@@H](O)CN1/C(O)=C\NC(=O)c1ccc2cc(F)ccc2n1 (nonaromatic ring conformer: 48.25694979248111 kcal/mol)

>  <smiles>  (28) 
CSC[C@@H]1C[C@@H](O)CN1C(=O)CNC(=O)c1ccc2cc(F)ccc2n1

>  <score_type>  (28) 
oracle

>  <origin>  (28) 
autodockgpu

>  <m_score__min__energy>  (28) 
-7.3899999999999997

>  <m_primary>  (28) 
energy

>  <meeko>  (28) 
{"free_energy": -7.35, "intermolecular_energy": -9.74, "internal_energy": -1.11, "cluster_size": 10, "cluster_id": 2, "rank_in_cluster": 2}

>  <energy>  (28) 
-7.35

>  <cluster_rmsd>  (28) 
0.11

>  <rmsd>  (28) 
272.36

>  <cluster>  (28) 
2

$$$$
CJVBSAWGHWUQCR-DXLIDDBMNA-N
     RDKit          3D

 46 48  0  0  0  0  0  0  0  0999 V2000
  139.9250   71.6900  220.0290 H   0  0  0  0  0  0  0  0  0  0  0  0
  140.5980   72.4120  219.7980 O   0  0  0  0  0  0  0  0  0  0  0  0
  140.7490   73.5600  220.5770 C   0  0  0  0  0  0  0  0  0  0  0  0
  139.8710   73.8290  221.5540 C   0  0  0  0  0  0  0  0  0  0  0  0
  139.2417   74.7274  221.4717 H   0  0  0  0  0  0  0  0  0  0  0  0
  139.7260   72.9820  222.7040 N   0  0  0  0  0  0  0  0  0  0  0  0
  139.8690   73.3790  223.6570 H   0  0  0  0  0  0  0  0  0  0  0  0
  139.4450   71.5790  222.5840 C   0  0  0  0  0  0  0  0  0  0  0  0
  139.1220   71.0970  221.4630 O   0  0  0  0  0  0  0  0  0  0  0  0
  139.5490   70.6940  223.7640 C   0  0  0  0  0  0  0  0  0  0  0  0
  140.1270   71.1610  224.9060 N   0  0  0  0  0  0  0  0  0  0  0  0
  140.2670   70.3900  226.0170 C   0  0  0  0  0  0  0  0  0  0  0  0
  140.8700   70.9150  227.1650 C   0  0  0  0  0  0  0  0  0  0  0  0
  141.2292   71.9547  227.1714 H   0  0  0  0  0  0  0  0  0  0  0  0
  141.0160   70.1170  228.3050 C   0  0  0  0  0  0  0  0  0  0  0  0
  141.4917   70.5306  229.2065 H   0  0  0  0  0  0  0  0  0  0  0  0
  140.5590   68.7950  228.3020 C   0  0  0  0  0  0  0  0  0  0  0  0
  140.7040   68.0270  229.4090 F   0  0  0  0  0  0  0  0  0  0  0  0
  139.9540   68.2630  227.1570 C   0  0  0  0  0  0  0  0  0  0  0  0
  139.5955   67.2230  227.1571 H   0  0  0  0  0  0  0  0  0  0  0  0
  139.8050   69.0560  226.0100 C   0  0  0  0  0  0  0  0  0  0  0  0
  139.2050   68.5540  224.8490 C   0  0  0  0  0  0  0  0  0  0  0  0
  138.8351   67.5184  224.8234 H   0  0  0  0  0  0  0  0  0  0  0  0
  139.0770   69.3710  223.7230 C   0  0  0  0  0  0  0  0  0  0  0  0
  138.6085   68.9801  222.8077 H   0  0  0  0  0  0  0  0  0  0  0  0
  141.8640   74.4230  220.3220 N   0  0  0  0  0  0  0  0  0  0  0  0
  141.7200   75.8670  220.2950 C   0  0  0  0  0  0  0  0  0  0  0  0
  141.5478   76.2543  221.3101 H   0  0  0  0  0  0  0  0  0  0  0  0
  140.8619   76.1780  219.6810 H   0  0  0  0  0  0  0  0  0  0  0  0
  143.0380   76.4040  219.7360 C   0  0  2  0  0  0  0  0  0  0  0  0
  143.6741   76.8089  220.5369 H   0  0  0  0  0  0  0  0  0  0  0  0
  142.8190   77.4590  218.8380 O   0  0  0  0  0  0  0  0  0  0  0  0
  143.5150   78.1410  219.0310 H   0  0  0  0  0  0  0  0  0  0  0  0
  143.7000   75.2190  219.0270 C   0  0  0  0  0  0  0  0  0  0  0  0
  144.7832   75.2154  219.2184 H   0  0  0  0  0  0  0  0  0  0  0  0
  143.5622   75.2728  217.9370 H   0  0  0  0  0  0  0  0  0  0  0  0
  143.0500   73.9590  219.6150 C   0  0  1  0  0  0  0  0  0  0  0  0
  142.8104   73.2502  218.8087 H   0  0  0  0  0  0  0  0  0  0  0  0
  143.9780   73.1720  220.5570 C   0  0  0  0  0  0  0  0  0  0  0  0
  143.7134   72.1057  220.5019 H   0  0  0  0  0  0  0  0  0  0  0  0
  143.8395   73.5732  221.5718 H   0  0  0  0  0  0  0  0  0  0  0  0
  145.7480   73.3600  220.1240 S   0  0  0  0  0  0  0  0  0  0  0  0
  146.3310   73.3840  221.8460 C   0  0  0  0  0  0  0  0  0  0  0  0
  145.4672   73.3484  222.5261 H   0  0  0  0  0  0  0  0  0  0  0  0
  146.9762   72.5117  222.0269 H   0  0  0  0  0  0  0  0  0  0  0  0
  146.9023   74.3064  222.0269 H   0  0  0  0  0  0  0  0  0  0  0  0
  1  2  1  0
  2  3  1  0
  3  4  2  0
  4  5  1  0
  4  6  1  0
  6  7  1  0
  6  8  1  0
  8  9  2  0
  8 10  1  0
 10 11  2  0
 11 12  1  0
 12 13  2  0
 13 14  1  0
 13 15  1  0
 15 16  1  0
 15 17  2  0
 17 18  1  0
 17 19  1  0
 19 20  1  0
 19 21  2  0
 21 22  1  0
 22 23  1  0
 22 24  2  0
 24 25  1  0
  3 26  1  0
 26 27  1  0
 27 28  1  0
 27 29  1  0
 27 30  1  0
 30 31  1  1
 30 32  1  0
 32 33  1  0
 30 34  1  0
 34 35  1  0
 34 36  1  0
 34 37  1  0
 37 38  1  6
 37 39  1  0
 39 40  1  0
 39 41  1  0
 39 42  1  0
 42 43  1  0
 43 44  1  0
 43 45  1  0
 43 46  1  0
 24 10  1  0
 37 26  1  0
 21 12  1  0
M  END
>  <UniqueID>  (29) 
6

>  <SMILES>  (29) 
CSC[C@@H]1C[C@@H](O)CN1/C(O)=C\NC(=O)c1ccc2cc(F)ccc2n1

>  <Energy>  (29) 
48.25694979248111

>  <Genealogy>  (29) 
CSC[C@@H]1C[C@@H](O)CN1C(O)=CNC(=O)c1ccc2cc(F)ccc2n1 (tautomer)
CSC[C@@H]1C[C@@H](O)CN1/C(O)=C\NC(=O)c1ccc2cc(F)ccc2n1 (cis-trans isomerization)
CSC[C@@H]1C[C@@H](O)CN1/C(O)=C\NC(=O)c1ccc2cc(F)ccc2n1 (3D coordinates assigned)
CSC[C@@H]1C[C@@H](O)CN1/C(O)=C\NC(=O)c1ccc2cc(F)ccc2n1 (nonaromatic ring conformer: 48.25694979248111 kcal/mol)

>  <smiles>  (29) 
CSC[C@@H]1C[C@@H](O)CN1C(=O)CNC(=O)c1ccc2cc(F)ccc2n1

>  <score_type>  (29) 
oracle

>  <origin>  (29) 
autodockgpu

>  <m_score__min__energy>  (29) 
-7.3899999999999997

>  <m_primary>  (29) 
energy

>  <meeko>  (29) 
{"free_energy": -6.69, "intermolecular_energy": -9.08, "internal_energy": -1.8, "cluster_size": 10, "cluster_id": 2, "rank_in_cluster": 6}

>  <energy>  (29) 
-7.18

>  <cluster_rmsd>  (29) 
0.64

>  <rmsd>  (29) 
272.33

>  <cluster>  (29) 
2

$$$$
CJVBSAWGHWUQCR-DXLIDDBMNA-N
     RDKit          3D

 46 48  0  0  0  0  0  0  0  0999 V2000
  141.6250   72.3830  221.2200 H   0  0  0  0  0  0  0  0  0  0  0  0
  141.3020   71.7330  221.9270 O   0  0  0  0  0  0  0  0  0  0  0  0
  140.0230   71.8140  222.4780 C   0  0  0  0  0  0  0  0  0  0  0  0
  139.2460   72.8760  222.2190 C   0  0  0  0  0  0  0  0  0  0  0  0
  138.2052   72.7095  221.9043 H   0  0  0  0  0  0  0  0  0  0  0  0
  139.7280   74.2230  222.3390 N   0  0  0  0  0  0  0  0  0  0  0  0
  139.2950   74.8640  223.0370 H   0  0  0  0  0  0  0  0  0  0  0  0
  140.7570   74.7400  221.4820 C   0  0  0  0  0  0  0  0  0  0  0  0
  141.4020   73.9570  220.7310 O   0  0  0  0  0  0  0  0  0  0  0  0
  141.0540   76.1890  221.4640 C   0  0  0  0  0  0  0  0  0  0  0  0
  140.8540   76.9290  222.5890 N   0  0  0  0  0  0  0  0  0  0  0  0
  141.0920   78.2670  222.6300 C   0  0  0  0  0  0  0  0  0  0  0  0
  140.8700   78.9850  223.8110 C   0  0  0  0  0  0  0  0  0  0  0  0
  140.5070   78.4661  224.7104 H   0  0  0  0  0  0  0  0  0  0  0  0
  141.1100   80.3630  223.8470 C   0  0  0  0  0  0  0  0  0  0  0  0
  140.9319   80.9267  224.7746 H   0  0  0  0  0  0  0  0  0  0  0  0
  141.5760   81.0260  222.7060 C   0  0  0  0  0  0  0  0  0  0  0  0
  141.8070   82.3610  222.7480 F   0  0  0  0  0  0  0  0  0  0  0  0
  141.8010   80.3150  221.5220 C   0  0  0  0  0  0  0  0  0  0  0  0
  142.1668   80.8390  220.6267 H   0  0  0  0  0  0  0  0  0  0  0  0
  141.5600   78.9340  221.4770 C   0  0  0  0  0  0  0  0  0  0  0  0
  141.7750   78.1940  220.3090 C   0  0  0  0  0  0  0  0  0  0  0  0
  142.1435   78.6932  219.4007 H   0  0  0  0  0  0  0  0  0  0  0  0
  141.5210   76.8200  220.2980 C   0  0  0  0  0  0  0  0  0  0  0  0
  141.6857   76.2349  219.3812 H   0  0  0  0  0  0  0  0  0  0  0  0
  139.5600   70.7380  223.3030 N   0  0  0  0  0  0  0  0  0  0  0  0
  138.6920   69.6970  222.7810 C   0  0  0  0  0  0  0  0  0  0  0  0
  139.2488   69.0409  222.0958 H   0  0  0  0  0  0  0  0  0  0  0  0
  137.8501   70.1174  222.2114 H   0  0  0  0  0  0  0  0  0  0  0  0
  138.2120   68.9100  224.0010 C   0  0  2  0  0  0  0  0  0  0  0  0
  138.7549   67.9582  224.0980 H   0  0  0  0  0  0  0  0  0  0  0  0
  136.8530   68.5780  223.8920 O   0  0  0  0  0  0  0  0  0  0  0  0
  136.7340   68.1760  222.9920 H   0  0  0  0  0  0  0  0  0  0  0  0
  138.4490   69.8260  225.2050 C   0  0  0  0  0  0  0  0  0  0  0  0
  138.8250   69.2447  226.0598 H   0  0  0  0  0  0  0  0  0  0  0  0
  137.5189   70.3160  225.5288 H   0  0  0  0  0  0  0  0  0  0  0  0
  139.4980   70.8510  224.7540 C   0  0  1  0  0  0  0  0  0  0  0  0
  139.2037   71.8570  225.0876 H   0  0  0  0  0  0  0  0  0  0  0  0
  140.8870   70.6260  225.3800 C   0  0  0  0  0  0  0  0  0  0  0  0
  141.6409   70.6401  224.5791 H   0  0  0  0  0  0  0  0  0  0  0  0
  140.8652   69.6567  225.8996 H   0  0  0  0  0  0  0  0  0  0  0  0
  141.3190   71.9080  226.6150 S   0  0  0  0  0  0  0  0  0  0  0  0
  140.4090   71.1250  227.9810 C   0  0  0  0  0  0  0  0  0  0  0  0
  140.8160   71.4752  228.9410 H   0  0  0  0  0  0  0  0  0  0  0  0
  139.3445   71.3939  227.9141 H   0  0  0  0  0  0  0  0  0  0  0  0
  140.5161   70.0323  227.9141 H   0  0  0  0  0  0  0  0  0  0  0  0
  1  2  1  0
  2  3  1  0
  3  4  2  0
  4  5  1  0
  4  6  1  0
  6  7  1  0
  6  8  1  0
  8  9  2  0
  8 10  1  0
 10 11  2  0
 11 12  1  0
 12 13  2  0
 13 14  1  0
 13 15  1  0
 15 16  1  0
 15 17  2  0
 17 18  1  0
 17 19  1  0
 19 20  1  0
 19 21  2  0
 21 22  1  0
 22 23  1  0
 22 24  2  0
 24 25  1  0
  3 26  1  0
 26 27  1  0
 27 28  1  0
 27 29  1  0
 27 30  1  0
 30 31  1  1
 30 32  1  0
 32 33  1  0
 30 34  1  0
 34 35  1  0
 34 36  1  0
 34 37  1  0
 37 38  1  6
 37 39  1  0
 39 40  1  0
 39 41  1  0
 39 42  1  0
 42 43  1  0
 43 44  1  0
 43 45  1  0
 43 46  1  0
 24 10  1  0
 37 26  1  0
 21 12  1  0
M  END
>  <UniqueID>  (30) 
6

>  <SMILES>  (30) 
CSC[C@@H]1C[C@@H](O)CN1/C(O)=C\NC(=O)c1ccc2cc(F)ccc2n1

>  <Energy>  (30) 
48.25694979248111

>  <Genealogy>  (30) 
CSC[C@@H]1C[C@@H](O)CN1C(O)=CNC(=O)c1ccc2cc(F)ccc2n1 (tautomer)
CSC[C@@H]1C[C@@H](O)CN1/C(O)=C\NC(=O)c1ccc2cc(F)ccc2n1 (cis-trans isomerization)
CSC[C@@H]1C[C@@H](O)CN1/C(O)=C\NC(=O)c1ccc2cc(F)ccc2n1 (3D coordinates assigned)
CSC[C@@H]1C[C@@H](O)CN1/C(O)=C\NC(=O)c1ccc2cc(F)ccc2n1 (nonaromatic ring conformer: 48.25694979248111 kcal/mol)

>  <smiles>  (30) 
CSC[C@@H]1C[C@@H](O)CN1C(=O)CNC(=O)c1ccc2cc(F)ccc2n1

>  <score_type>  (30) 
oracle

>  <origin>  (30) 
autodockgpu

>  <m_score__min__energy>  (30) 
-7.3899999999999997

>  <m_primary>  (30) 
energy

>  <meeko>  (30) 
{"free_energy": -5.89, "intermolecular_energy": -8.28, "internal_energy": -1.74, "cluster_size": 1, "cluster_id": 4, "rank_in_cluster": 1}

>  <energy>  (30) 
-7.15

>  <cluster_rmsd>  (30) 
0.94

>  <rmsd>  (30) 
272.34

>  <cluster>  (30) 
2

$$$$
CJVBSAWGHWUQCR-DXLIDDBMNA-N
     RDKit          3D

 46 48  0  0  0  0  0  0  0  0999 V2000
  142.0540   74.7660  221.7520 H   0  0  0  0  0  0  0  0  0  0  0  0
  141.5610   75.6490  221.6990 O   0  0  0  0  0  0  0  0  0  0  0  0
  140.1730   75.7300  221.8190 C   0  0  0  0  0  0  0  0  0  0  0  0
  139.4070   74.6850  221.4730 C   0  0  0  0  0  0  0  0  0  0  0  0
  138.8886   74.7029  220.5030 H   0  0  0  0  0  0  0  0  0  0  0  0
  139.2420   73.5440  222.3280 N   0  0  0  0  0  0  0  0  0  0  0  0
  138.3270   73.3830  222.8020 H   0  0  0  0  0  0  0  0  0  0  0  0
  140.3220   72.6390  222.6030 C   0  0  0  0  0  0  0  0  0  0  0  0
  141.3910   72.7160  221.9370 O   0  0  0  0  0  0  0  0  0  0  0  0
  140.1920   71.6260  223.6730 C   0  0  0  0  0  0  0  0  0  0  0  0
  140.6760   71.8970  224.9170 N   0  0  0  0  0  0  0  0  0  0  0  0
  140.6010   71.0000  225.9360 C   0  0  0  0  0  0  0  0  0  0  0  0
  141.1140   71.3250  227.1970 C   0  0  0  0  0  0  0  0  0  0  0  0
  141.5744   72.3095  227.3666 H   0  0  0  0  0  0  0  0  0  0  0  0
  141.0410   70.3970  228.2420 C   0  0  0  0  0  0  0  0  0  0  0  0
  141.4470   70.6525  229.2319 H   0  0  0  0  0  0  0  0  0  0  0  0
  140.4530   69.1450  228.0310 C   0  0  0  0  0  0  0  0  0  0  0  0
  140.3850   68.2510  229.0480 F   0  0  0  0  0  0  0  0  0  0  0  0
  139.9370   68.8130  226.7730 C   0  0  0  0  0  0  0  0  0  0  0  0
  139.4754   67.8280  226.6098 H   0  0  0  0  0  0  0  0  0  0  0  0
  140.0090   69.7370  225.7210 C   0  0  0  0  0  0  0  0  0  0  0  0
  139.5030   69.4370  224.4500 C   0  0  0  0  0  0  0  0  0  0  0  0
  139.0342   68.4600  224.2608 H   0  0  0  0  0  0  0  0  0  0  0  0
  139.5940   70.3790  223.4230 C   0  0  0  0  0  0  0  0  0  0  0  0
  139.1994   70.1460  222.4230 H   0  0  0  0  0  0  0  0  0  0  0  0
  139.5960   76.9370  222.3320 N   0  0  0  0  0  0  0  0  0  0  0  0
  138.1710   77.0520  222.5880 C   0  0  0  0  0  0  0  0  0  0  0  0
  137.8884   76.4474  223.4624 H   0  0  0  0  0  0  0  0  0  0  0  0
  137.5752   76.6883  221.7379 H   0  0  0  0  0  0  0  0  0  0  0  0
  137.9180   78.5350  222.8610 C   0  0  2  0  0  0  0  0  0  0  0  0
  137.7961   78.7259  223.9374 H   0  0  0  0  0  0  0  0  0  0  0  0
  136.7340   78.9720  222.2480 O   0  0  0  0  0  0  0  0  0  0  0  0
  136.3750   78.1950  221.7460 H   0  0  0  0  0  0  0  0  0  0  0  0
  139.1290   79.2740  222.2840 C   0  0  0  0  0  0  0  0  0  0  0  0
  139.4325   80.0923  222.9535 H   0  0  0  0  0  0  0  0  0  0  0  0
  138.9001   79.7221  221.3058 H   0  0  0  0  0  0  0  0  0  0  0  0
  140.2480   78.2290  222.1770 C   0  0  1  0  0  0  0  0  0  0  0  0
  140.7608   78.3292  221.2090 H   0  0  0  0  0  0  0  0  0  0  0  0
  141.3620   78.4110  223.2250 C   0  0  0  0  0  0  0  0  0  0  0  0
  141.8737   77.4475  223.3661 H   0  0  0  0  0  0  0  0  0  0  0  0
  140.8901   78.7601  224.1553 H   0  0  0  0  0  0  0  0  0  0  0  0
  142.6000   79.6650  222.7270 S   0  0  0  0  0  0  0  0  0  0  0  0
  141.9650   80.9620  223.8320 C   0  0  0  0  0  0  0  0  0  0  0  0
  142.1141   80.6575  224.8785 H   0  0  0  0  0  0  0  0  0  0  0  0
  142.5050   81.9015  223.6430 H   0  0  0  0  0  0  0  0  0  0  0  0
  140.8917   81.1116  223.6430 H   0  0  0  0  0  0  0  0  0  0  0  0
  1  2  1  0
  2  3  1  0
  3  4  2  0
  4  5  1  0
  4  6  1  0
  6  7  1  0
  6  8  1  0
  8  9  2  0
  8 10  1  0
 10 11  2  0
 11 12  1  0
 12 13  2  0
 13 14  1  0
 13 15  1  0
 15 16  1  0
 15 17  2  0
 17 18  1  0
 17 19  1  0
 19 20  1  0
 19 21  2  0
 21 22  1  0
 22 23  1  0
 22 24  2  0
 24 25  1  0
  3 26  1  0
 26 27  1  0
 27 28  1  0
 27 29  1  0
 27 30  1  0
 30 31  1  1
 30 32  1  0
 32 33  1  0
 30 34  1  0
 34 35  1  0
 34 36  1  0
 34 37  1  0
 37 38  1  6
 37 39  1  0
 39 40  1  0
 39 41  1  0
 39 42  1  0
 42 43  1  0
 43 44  1  0
 43 45  1  0
 43 46  1  0
 24 10  1  0
 37 26  1  0
 21 12  1  0
M  END
>  <UniqueID>  (31) 
6

>  <SMILES>  (31) 
CSC[C@@H]1C[C@@H](O)CN1/C(O)=C\NC(=O)c1ccc2cc(F)ccc2n1

>  <Energy>  (31) 
48.25694979248111

>  <Genealogy>  (31) 
CSC[C@@H]1C[C@@H](O)CN1C(O)=CNC(=O)c1ccc2cc(F)ccc2n1 (tautomer)
CSC[C@@H]1C[C@@H](O)CN1/C(O)=C\NC(=O)c1ccc2cc(F)ccc2n1 (cis-trans isomerization)
CSC[C@@H]1C[C@@H](O)CN1/C(O)=C\NC(=O)c1ccc2cc(F)ccc2n1 (3D coordinates assigned)
CSC[C@@H]1C[C@@H](O)CN1/C(O)=C\NC(=O)c1ccc2cc(F)ccc2n1 (nonaromatic ring conformer: 48.25694979248111 kcal/mol)

>  <smiles>  (31) 
CSC[C@@H]1C[C@@H](O)CN1C(=O)CNC(=O)c1ccc2cc(F)ccc2n1

>  <score_type>  (31) 
oracle

>  <origin>  (31) 
autodockgpu

>  <m_score__min__energy>  (31) 
-7.3899999999999997

>  <m_primary>  (31) 
energy

>  <meeko>  (31) 
{"free_energy": -6.74, "intermolecular_energy": -9.13, "internal_energy": -1.52, "cluster_size": 6, "cluster_id": 1, "rank_in_cluster": 3}

>  <energy>  (31) 
-6.7

>  <cluster_rmsd>  (31) 
1.37

>  <rmsd>  (31) 
272.18

>  <cluster>  (31) 
2

$$$$
CJVBSAWGHWUQCR-DXLIDDBMNA-N
     RDKit          3D

 46 48  0  0  0  0  0  0  0  0999 V2000
  142.4430   76.2870  221.2920 H   0  0  0  0  0  0  0  0  0  0  0  0
  142.3590   75.6870  220.4800 O   0  0  0  0  0  0  0  0  0  0  0  0
  142.1590   74.3110  220.5940 C   0  0  0  0  0  0  0  0  0  0  0  0
  140.9450   73.8330  220.9070 C   0  0  0  0  0  0  0  0  0  0  0  0
  140.1122   73.9961  220.2072 H   0  0  0  0  0  0  0  0  0  0  0  0
  140.6980   73.1160  222.1250 N   0  0  0  0  0  0  0  0  0  0  0  0
  141.1850   73.4050  223.0000 H   0  0  0  0  0  0  0  0  0  0  0  0
  139.8410   71.9650  222.1690 C   0  0  0  0  0  0  0  0  0  0  0  0
  139.1250   71.6760  221.1710 O   0  0  0  0  0  0  0  0  0  0  0  0
  139.8050   71.1080  223.3740 C   0  0  0  0  0  0  0  0  0  0  0  0
  140.3920   71.5400  224.5240 N   0  0  0  0  0  0  0  0  0  0  0  0
  140.4070   70.7910  225.6580 C   0  0  0  0  0  0  0  0  0  0  0  0
  141.0250   71.2780  226.8150 C   0  0  0  0  0  0  0  0  0  0  0  0
  141.4968   72.2717  226.8097 H   0  0  0  0  0  0  0  0  0  0  0  0
  141.0430   70.5020  227.9780 C   0  0  0  0  0  0  0  0  0  0  0  0
  141.5320   70.8857  228.8856 H   0  0  0  0  0  0  0  0  0  0  0  0
  140.4410   69.2390  227.9910 C   0  0  0  0  0  0  0  0  0  0  0  0
  140.4620   68.4920  229.1210 F   0  0  0  0  0  0  0  0  0  0  0  0
  139.8210   68.7440  226.8380 C   0  0  0  0  0  0  0  0  0  0  0  0
  139.3505   67.7498  226.8498 H   0  0  0  0  0  0  0  0  0  0  0  0
  139.8000   69.5160  225.6680 C   0  0  0  0  0  0  0  0  0  0  0  0
  139.1890   69.0510  224.4970 C   0  0  0  0  0  0  0  0  0  0  0  0
  138.7086   68.0616  224.4824 H   0  0  0  0  0  0  0  0  0  0  0  0
  139.1900   69.8440  223.3480 C   0  0  0  0  0  0  0  0  0  0  0  0
  138.7116   69.4814  222.4262 H   0  0  0  0  0  0  0  0  0  0  0  0
  143.2640   73.4320  220.3520 N   0  0  0  0  0  0  0  0  0  0  0  0
  144.6330   73.8370  220.6220 C   0  0  0  0  0  0  0  0  0  0  0  0
  144.8094   73.8947  221.7062 H   0  0  0  0  0  0  0  0  0  0  0  0
  144.8522   74.8317  220.2066 H   0  0  0  0  0  0  0  0  0  0  0  0
  145.5140   72.7560  219.9950 C   0  0  2  0  0  0  0  0  0  0  0  0
  145.9085   72.0715  220.7604 H   0  0  0  0  0  0  0  0  0  0  0  0
  146.6300   73.3160  219.3550 O   0  0  0  0  0  0  0  0  0  0  0  0
  146.3120   74.1450  218.9100 H   0  0  0  0  0  0  0  0  0  0  0  0
  144.6220   72.0280  218.9860 C   0  0  0  0  0  0  0  0  0  0  0  0
  144.8136   70.9453  219.0174 H   0  0  0  0  0  0  0  0  0  0  0  0
  144.8191   72.3634  217.9571 H   0  0  0  0  0  0  0  0  0  0  0  0
  143.1770   72.3270  219.4090 C   0  0  1  0  0  0  0  0  0  0  0  0
  142.5720   72.5744  218.5242 H   0  0  0  0  0  0  0  0  0  0  0  0
  142.4610   71.1200  220.0430 C   0  0  0  0  0  0  0  0  0  0  0  0
  142.0223   71.4344  221.0015 H   0  0  0  0  0  0  0  0  0  0  0  0
  143.2079   70.3242  220.1799 H   0  0  0  0  0  0  0  0  0  0  0  0
  141.1280   70.4520  218.9790 S   0  0  0  0  0  0  0  0  0  0  0  0
  140.7080   69.0790  220.0950 C   0  0  0  0  0  0  0  0  0  0  0  0
  140.8095   69.4108  221.1389 H   0  0  0  0  0  0  0  0  0  0  0  0
  139.6714   68.7606  219.9106 H   0  0  0  0  0  0  0  0  0  0  0  0
  141.3891   68.2351  219.9106 H   0  0  0  0  0  0  0  0  0  0  0  0
  1  2  1  0
  2  3  1  0
  3  4  2  0
  4  5  1  0
  4  6  1  0
  6  7  1  0
  6  8  1  0
  8  9  2  0
  8 10  1  0
 10 11  2  0
 11 12  1  0
 12 13  2  0
 13 14  1  0
 13 15  1  0
 15 16  1  0
 15 17  2  0
 17 18  1  0
 17 19  1  0
 19 20  1  0
 19 21  2  0
 21 22  1  0
 22 23  1  0
 22 24  2  0
 24 25  1  0
  3 26  1  0
 26 27  1  0
 27 28  1  0
 27 29  1  0
 27 30  1  0
 30 31  1  1
 30 32  1  0
 32 33  1  0
 30 34  1  0
 34 35  1  0
 34 36  1  0
 34 37  1  0
 37 38  1  6
 37 39  1  0
 39 40  1  0
 39 41  1  0
 39 42  1  0
 42 43  1  0
 43 44  1  0
 43 45  1  0
 43 46  1  0
 24 10  1  0
 37 26  1  0
 21 12  1  0
M  END
>  <UniqueID>  (32) 
6

>  <SMILES>  (32) 
CSC[C@@H]1C[C@@H](O)CN1/C(O)=C\NC(=O)c1ccc2cc(F)ccc2n1

>  <Energy>  (32) 
48.25694979248111

>  <Genealogy>  (32) 
CSC[C@@H]1C[C@@H](O)CN1C(O)=CNC(=O)c1ccc2cc(F)ccc2n1 (tautomer)
CSC[C@@H]1C[C@@H](O)CN1/C(O)=C\NC(=O)c1ccc2cc(F)ccc2n1 (cis-trans isomerization)
CSC[C@@H]1C[C@@H](O)CN1/C(O)=C\NC(=O)c1ccc2cc(F)ccc2n1 (3D coordinates assigned)
CSC[C@@H]1C[C@@H](O)CN1/C(O)=C\NC(=O)c1ccc2cc(F)ccc2n1 (nonaromatic ring conformer: 48.25694979248111 kcal/mol)

>  <smiles>  (32) 
CSC[C@@H]1C[C@@H](O)CN1C(=O)CNC(=O)c1ccc2cc(F)ccc2n1

>  <score_type>  (32) 
oracle

>  <origin>  (32) 
autodockgpu

>  <m_score__min__energy>  (32) 
-7.3899999999999997

>  <m_primary>  (32) 
energy

>  <meeko>  (32) 
{"free_energy": -6.5, "intermolecular_energy": -8.89, "internal_energy": -1.51, "cluster_size": 3, "cluster_id": 3, "rank_in_cluster": 1}

>  <energy>  (32) 
-6.69

>  <cluster_rmsd>  (32) 
1.27

>  <rmsd>  (32) 
272.2

>  <cluster>  (32) 
2

$$$$
CJVBSAWGHWUQCR-DXLIDDBMNA-N
     RDKit          3D

 46 48  0  0  0  0  0  0  0  0999 V2000
  142.0340   76.1720  222.2820 H   0  0  0  0  0  0  0  0  0  0  0  0
  141.4570   75.4030  221.9610 O   0  0  0  0  0  0  0  0  0  0  0  0
  140.1830   75.6060  221.4310 C   0  0  0  0  0  0  0  0  0  0  0  0
  139.3480   74.5680  221.2730 C   0  0  0  0  0  0  0  0  0  0  0  0
  138.7704   74.4866  220.3404 H   0  0  0  0  0  0  0  0  0  0  0  0
  139.1840   73.5600  222.2820 N   0  0  0  0  0  0  0  0  0  0  0  0
  138.5520   73.7410  223.0910 H   0  0  0  0  0  0  0  0  0  0  0  0
  139.9110   72.3230  222.2450 C   0  0  0  0  0  0  0  0  0  0  0  0
  140.5660   72.0100  221.2130 O   0  0  0  0  0  0  0  0  0  0  0  0
  139.9080   71.4220  223.4170 C   0  0  0  0  0  0  0  0  0  0  0  0
  140.4190   71.8580  224.6020 N   0  0  0  0  0  0  0  0  0  0  0  0
  140.4600   71.0700  225.7090 C   0  0  0  0  0  0  0  0  0  0  0  0
  140.9960   71.5640  226.9040 C   0  0  0  0  0  0  0  0  0  0  0  0
  141.3817   72.5931  226.9501 H   0  0  0  0  0  0  0  0  0  0  0  0
  141.0410   70.7480  228.0400 C   0  0  0  0  0  0  0  0  0  0  0  0
  141.4643   71.1366  228.9780 H   0  0  0  0  0  0  0  0  0  0  0  0
  140.5490   69.4390  227.9860 C   0  0  0  0  0  0  0  0  0  0  0  0
  140.5950   68.6550  229.0900 F   0  0  0  0  0  0  0  0  0  0  0  0
  140.0100   68.9380  226.7960 C   0  0  0  0  0  0  0  0  0  0  0  0
  139.6235   67.9089  226.7571 H   0  0  0  0  0  0  0  0  0  0  0  0
  139.9630   69.7490  225.6530 C   0  0  0  0  0  0  0  0  0  0  0  0
  139.4320   69.2800  224.4460 C   0  0  0  0  0  0  0  0  0  0  0  0
  139.0368   68.2556  224.3801 H   0  0  0  0  0  0  0  0  0  0  0  0
  139.4040   70.1130  223.3250 C   0  0  0  0  0  0  0  0  0  0  0  0
  138.9894   69.7462  222.3744 H   0  0  0  0  0  0  0  0  0  0  0  0
  139.7860   76.9380  221.0830 N   0  0  0  0  0  0  0  0  0  0  0  0
  138.9010   77.2020  219.9620 C   0  0  0  0  0  0  0  0  0  0  0  0
  137.8783   76.8702  220.1944 H   0  0  0  0  0  0  0  0  0  0  0  0
  139.2182   76.6612  219.0582 H   0  0  0  0  0  0  0  0  0  0  0  0
  138.9360   78.7160  219.7550 C   0  0  2  0  0  0  0  0  0  0  0  0
  138.0318   79.1932  220.1607 H   0  0  0  0  0  0  0  0  0  0  0  0
  138.9750   79.0440  218.3920 O   0  0  0  0  0  0  0  0  0  0  0  0
  139.7340   78.5370  218.0030 H   0  0  0  0  0  0  0  0  0  0  0  0
  140.2040   79.2020  220.4640 C   0  0  0  0  0  0  0  0  0  0  0  0
  140.0098   80.1490  220.9889 H   0  0  0  0  0  0  0  0  0  0  0  0
  141.0200   79.3874  219.7500 H   0  0  0  0  0  0  0  0  0  0  0  0
  140.5730   78.1010  221.4680 C   0  0  1  0  0  0  0  0  0  0  0  0
  141.6554   77.9087  221.4311 H   0  0  0  0  0  0  0  0  0  0  0  0
  140.2980   78.4890  222.9330 C   0  0  0  0  0  0  0  0  0  0  0  0
  139.6848   77.7022  223.3966 H   0  0  0  0  0  0  0  0  0  0  0  0
  139.7787   79.4587  222.9289 H   0  0  0  0  0  0  0  0  0  0  0  0
  141.8350   78.6870  223.9100 S   0  0  0  0  0  0  0  0  0  0  0  0
  142.3620   80.2110  223.0680 C   0  0  0  0  0  0  0  0  0  0  0  0
  142.6251   80.9718  223.8176 H   0  0  0  0  0  0  0  0  0  0  0  0
  143.2386   79.9978  222.4386 H   0  0  0  0  0  0  0  0  0  0  0  0
  141.5410   80.5849  222.4386 H   0  0  0  0  0  0  0  0  0  0  0  0
  1  2  1  0
  2  3  1  0
  3  4  2  0
  4  5  1  0
  4  6  1  0
  6  7  1  0
  6  8  1  0
  8  9  2  0
  8 10  1  0
 10 11  2  0
 11 12  1  0
 12 13  2  0
 13 14  1  0
 13 15  1  0
 15 16  1  0
 15 17  2  0
 17 18  1  0
 17 19  1  0
 19 20  1  0
 19 21  2  0
 21 22  1  0
 22 23  1  0
 22 24  2  0
 24 25  1  0
  3 26  1  0
 26 27  1  0
 27 28  1  0
 27 29  1  0
 27 30  1  0
 30 31  1  1
 30 32  1  0
 32 33  1  0
 30 34  1  0
 34 35  1  0
 34 36  1  0
 34 37  1  0
 37 38  1  1
 37 39  1  0
 39 40  1  0
 39 41  1  0
 39 42  1  0
 42 43  1  0
 43 44  1  0
 43 45  1  0
 43 46  1  0
 24 10  1  0
 37 26  1  0
 21 12  1  0
M  END
>  <UniqueID>  (33) 
6

>  <SMILES>  (33) 
CSC[C@@H]1C[C@@H](O)CN1/C(O)=C\NC(=O)c1ccc2cc(F)ccc2n1

>  <Energy>  (33) 
48.25694979248111

>  <Genealogy>  (33) 
CSC[C@@H]1C[C@@H](O)CN1C(O)=CNC(=O)c1ccc2cc(F)ccc2n1 (tautomer)
CSC[C@@H]1C[C@@H](O)CN1/C(O)=C\NC(=O)c1ccc2cc(F)ccc2n1 (cis-trans isomerization)
CSC[C@@H]1C[C@@H](O)CN1/C(O)=C\NC(=O)c1ccc2cc(F)ccc2n1 (3D coordinates assigned)
CSC[C@@H]1C[C@@H](O)CN1/C(O)=C\NC(=O)c1ccc2cc(F)ccc2n1 (nonaromatic ring conformer: 48.25694979248111 kcal/mol)

>  <smiles>  (33) 
CSC[C@@H]1C[C@@H](O)CN1C(=O)CNC(=O)c1ccc2cc(F)ccc2n1

>  <score_type>  (33) 
oracle

>  <origin>  (33) 
autodockgpu

>  <m_score__min__energy>  (33) 
-7.3899999999999997

>  <m_primary>  (33) 
energy

>  <meeko>  (33) 
{"free_energy": -6.66, "intermolecular_energy": -9.04, "internal_energy": -0.94, "cluster_size": 6, "cluster_id": 1, "rank_in_cluster": 5}

>  <energy>  (33) 
-6.69

>  <cluster_rmsd>  (33) 
1.32

>  <rmsd>  (33) 
272.14

>  <cluster>  (33) 
2

$$$$
CJVBSAWGHWUQCR-DXLIDDBMNA-N
     RDKit          3D

 46 48  0  0  0  0  0  0  0  0999 V2000
  139.8780   71.5430  220.0330 H   0  0  0  0  0  0  0  0  0  0  0  0
  140.4880   72.2960  219.7370 O   0  0  0  0  0  0  0  0  0  0  0  0
  140.7580   73.3950  220.5520 C   0  0  0  0  0  0  0  0  0  0  0  0
  139.9270   73.7050  221.5590 C   0  0  0  0  0  0  0  0  0  0  0  0
  139.3383   74.6322  221.4975 H   0  0  0  0  0  0  0  0  0  0  0  0
  139.7820   72.8650  222.7140 N   0  0  0  0  0  0  0  0  0  0  0  0
  139.9270   73.2680  223.6640 H   0  0  0  0  0  0  0  0  0  0  0  0
  139.4990   71.4620  222.6030 C   0  0  0  0  0  0  0  0  0  0  0  0
  139.1730   70.9740  221.4860 O   0  0  0  0  0  0  0  0  0  0  0  0
  139.6020   70.5850  223.7890 C   0  0  0  0  0  0  0  0  0  0  0  0
  140.1790   71.0590  224.9280 N   0  0  0  0  0  0  0  0  0  0  0  0
  140.3180   70.2950  226.0440 C   0  0  0  0  0  0  0  0  0  0  0  0
  140.9190   70.8280  227.1900 C   0  0  0  0  0  0  0  0  0  0  0  0
  141.2756   71.8686  227.1910 H   0  0  0  0  0  0  0  0  0  0  0  0
  141.0660   70.0370  228.3340 C   0  0  0  0  0  0  0  0  0  0  0  0
  141.5408   70.4563  229.2333 H   0  0  0  0  0  0  0  0  0  0  0  0
  140.6110   68.7140  228.3380 C   0  0  0  0  0  0  0  0  0  0  0  0
  140.7560   67.9530  229.4500 F   0  0  0  0  0  0  0  0  0  0  0  0
  140.0080   68.1740  227.1960 C   0  0  0  0  0  0  0  0  0  0  0  0
  139.6513   67.1335  227.2018 H   0  0  0  0  0  0  0  0  0  0  0  0
  139.8590   68.9600  226.0450 C   0  0  0  0  0  0  0  0  0  0  0  0
  139.2610   68.4510  224.8860 C   0  0  0  0  0  0  0  0  0  0  0  0
  138.8930   67.4146  224.8662 H   0  0  0  0  0  0  0  0  0  0  0  0
  139.1320   69.2600  223.7550 C   0  0  0  0  0  0  0  0  0  0  0  0
  138.6649   68.8627  222.8418 H   0  0  0  0  0  0  0  0  0  0  0  0
  141.9410   74.1640  220.3020 N   0  0  0  0  0  0  0  0  0  0  0  0
  141.9210   75.6160  220.3080 C   0  0  0  0  0  0  0  0  0  0  0  0
  141.7923   75.9938  221.3330 H   0  0  0  0  0  0  0  0  0  0  0  0
  141.0870   76.0137  219.7111 H   0  0  0  0  0  0  0  0  0  0  0  0
  143.2750   76.0490  219.7460 C   0  0  2  0  0  0  0  0  0  0  0  0
  143.9510   76.3780  220.5490 H   0  0  0  0  0  0  0  0  0  0  0  0
  143.1400   77.1400  218.8730 O   0  0  0  0  0  0  0  0  0  0  0  0
  143.6830   77.8760  219.2580 H   0  0  0  0  0  0  0  0  0  0  0  0
  143.8250   74.8280  219.0020 C   0  0  0  0  0  0  0  0  0  0  0  0
  144.9058   74.7263  219.1796 H   0  0  0  0  0  0  0  0  0  0  0  0
  143.6819   74.9184  217.9151 H   0  0  0  0  0  0  0  0  0  0  0  0
  143.0740   73.6170  219.5710 C   0  0  1  0  0  0  0  0  0  0  0  0
  142.7649   72.9507  218.7522 H   0  0  0  0  0  0  0  0  0  0  0  0
  143.9410   72.7310  220.4850 C   0  0  0  0  0  0  0  0  0  0  0  0
  143.5719   71.6965  220.4255 H   0  0  0  0  0  0  0  0  0  0  0  0
  143.8643   73.1317  221.5066 H   0  0  0  0  0  0  0  0  0  0  0  0
  145.7110   72.7500  220.0140 S   0  0  0  0  0  0  0  0  0  0  0  0
  146.2920   73.3970  221.6120 C   0  0  0  0  0  0  0  0  0  0  0  0
  145.8005   72.8496  222.4298 H   0  0  0  0  0  0  0  0  0  0  0  0
  147.3817   73.2662  221.6862 H   0  0  0  0  0  0  0  0  0  0  0  0
  146.0452   74.4664  221.6862 H   0  0  0  0  0  0  0  0  0  0  0  0
  1  2  1  0
  2  3  1  0
  3  4  2  0
  4  5  1  0
  4  6  1  0
  6  7  1  0
  6  8  1  0
  8  9  2  0
  8 10  1  0
 10 11  2  0
 11 12  1  0
 12 13  2  0
 13 14  1  0
 13 15  1  0
 15 16  1  0
 15 17  2  0
 17 18  1  0
 17 19  1  0
 19 20  1  0
 19 21  2  0
 21 22  1  0
 22 23  1  0
 22 24  2  0
 24 25  1  0
  3 26  1  0
 26 27  1  0
 27 28  1  0
 27 29  1  0
 27 30  1  0
 30 31  1  1
 30 32  1  0
 32 33  1  0
 30 34  1  0
 34 35  1  0
 34 36  1  0
 34 37  1  0
 37 38  1  6
 37 39  1  0
 39 40  1  0
 39 41  1  0
 39 42  1  0
 42 43  1  0
 43 44  1  0
 43 45  1  0
 43 46  1  0
 24 10  1  0
 37 26  1  0
 21 12  1  0
M  END
>  <UniqueID>  (34) 
6

>  <SMILES>  (34) 
CSC[C@@H]1C[C@@H](O)CN1/C(O)=C\NC(=O)c1ccc2cc(F)ccc2n1

>  <Energy>  (34) 
48.25694979248111

>  <Genealogy>  (34) 
CSC[C@@H]1C[C@@H](O)CN1C(O)=CNC(=O)c1ccc2cc(F)ccc2n1 (tautomer)
CSC[C@@H]1C[C@@H](O)CN1/C(O)=C\NC(=O)c1ccc2cc(F)ccc2n1 (cis-trans isomerization)
CSC[C@@H]1C[C@@H](O)CN1/C(O)=C\NC(=O)c1ccc2cc(F)ccc2n1 (3D coordinates assigned)
CSC[C@@H]1C[C@@H](O)CN1/C(O)=C\NC(=O)c1ccc2cc(F)ccc2n1 (nonaromatic ring conformer: 48.25694979248111 kcal/mol)

>  <smiles>  (34) 
CSC[C@@H]1C[C@@H](O)CN1C(=O)CNC(=O)c1ccc2cc(F)ccc2n1

>  <score_type>  (34) 
oracle

>  <origin>  (34) 
autodockgpu

>  <m_score__min__energy>  (34) 
-7.3899999999999997

>  <m_primary>  (34) 
energy

>  <meeko>  (34) 
{"free_energy": -6.7, "intermolecular_energy": -9.08, "internal_energy": -1.83, "cluster_size": 10, "cluster_id": 2, "rank_in_cluster": 5}

>  <energy>  (34) 
-6.4

>  <cluster_rmsd>  (34) 
1.28

>  <rmsd>  (34) 
271.97

>  <cluster>  (34) 
2

$$$$
CJVBSAWGHWUQCR-DXLIDDBMNA-N
     RDKit          3D

 46 48  0  0  0  0  0  0  0  0999 V2000
  139.8320   71.6020  219.9320 H   0  0  0  0  0  0  0  0  0  0  0  0
  140.5230   72.3100  219.7090 O   0  0  0  0  0  0  0  0  0  0  0  0
  140.7090   73.4400  220.5070 C   0  0  0  0  0  0  0  0  0  0  0  0
  139.8380   73.7190  221.4880 C   0  0  0  0  0  0  0  0  0  0  0  0
  139.1980   74.6088  221.3944 H   0  0  0  0  0  0  0  0  0  0  0  0
  139.7140   72.8940  222.6560 N   0  0  0  0  0  0  0  0  0  0  0  0
  139.8890   73.3050  223.5980 H   0  0  0  0  0  0  0  0  0  0  0  0
  139.4100   71.4940  222.5670 C   0  0  0  0  0  0  0  0  0  0  0  0
  139.0480   70.9980  221.4640 O   0  0  0  0  0  0  0  0  0  0  0  0
  139.5330   70.6270  223.7590 C   0  0  0  0  0  0  0  0  0  0  0  0
  140.1200   71.1150  224.8870 N   0  0  0  0  0  0  0  0  0  0  0  0
  140.2780   70.3620  226.0080 C   0  0  0  0  0  0  0  0  0  0  0  0
  140.8880   70.9090  227.1420 C   0  0  0  0  0  0  0  0  0  0  0  0
  141.2369   71.9521  227.1300 H   0  0  0  0  0  0  0  0  0  0  0  0
  141.0540   70.1290  228.2910 C   0  0  0  0  0  0  0  0  0  0  0  0
  141.5361   70.5597  229.1810 H   0  0  0  0  0  0  0  0  0  0  0  0
  140.6090   68.8030  228.3120 C   0  0  0  0  0  0  0  0  0  0  0  0
  140.7730   68.0530  229.4290 F   0  0  0  0  0  0  0  0  0  0  0  0
  139.9970   68.2490  227.1820 C   0  0  0  0  0  0  0  0  0  0  0  0
  139.6480   67.2060  227.2009 H   0  0  0  0  0  0  0  0  0  0  0  0
  139.8290   69.0240  226.0260 C   0  0  0  0  0  0  0  0  0  0  0  0
  139.2220   68.5000  224.8780 C   0  0  0  0  0  0  0  0  0  0  0  0
  138.8629   67.4603  224.8708 H   0  0  0  0  0  0  0  0  0  0  0  0
  139.0730   69.2990  223.7420 C   0  0  0  0  0  0  0  0  0  0  0  0
  138.5977   68.8906  222.8380 H   0  0  0  0  0  0  0  0  0  0  0  0
  141.8500   74.2730  220.2660 N   0  0  0  0  0  0  0  0  0  0  0  0
  141.7510   75.7210  220.2720 C   0  0  0  0  0  0  0  0  0  0  0  0
  141.5951   76.0907  221.2962 H   0  0  0  0  0  0  0  0  0  0  0  0
  140.9006   76.0727  219.6695 H   0  0  0  0  0  0  0  0  0  0  0  0
  143.0830   76.2280  219.7190 C   0  0  2  0  0  0  0  0  0  0  0  0
  143.7349   76.5935  220.5261 H   0  0  0  0  0  0  0  0  0  0  0  0
  142.8940   77.3100  218.8460 O   0  0  0  0  0  0  0  0  0  0  0  0
  143.6720   77.9140  218.9740 H   0  0  0  0  0  0  0  0  0  0  0  0
  143.7040   75.0400  218.9800 C   0  0  0  0  0  0  0  0  0  0  0  0
  144.7874   74.9980  219.1656 H   0  0  0  0  0  0  0  0  0  0  0  0
  143.5633   75.1230  217.8922 H   0  0  0  0  0  0  0  0  0  0  0  0
  143.0170   73.7880  219.5430 C   0  0  1  0  0  0  0  0  0  0  0  0
  142.7520   73.1055  218.7221 H   0  0  0  0  0  0  0  0  0  0  0  0
  143.9240   72.9510  220.4640 C   0  0  0  0  0  0  0  0  0  0  0  0
  143.5777   71.9071  220.4451 H   0  0  0  0  0  0  0  0  0  0  0  0
  143.8607   73.3817  221.4742 H   0  0  0  0  0  0  0  0  0  0  0  0
  145.6820   72.9950  219.9520 S   0  0  0  0  0  0  0  0  0  0  0  0
  146.3230   73.3440  221.6180 C   0  0  0  0  0  0  0  0  0  0  0  0
  145.6179   72.9601  222.3700 H   0  0  0  0  0  0  0  0  0  0  0  0
  147.2988   72.8527  221.7458 H   0  0  0  0  0  0  0  0  0  0  0  0
  146.4399   74.4303  221.7458 H   0  0  0  0  0  0  0  0  0  0  0  0
  1  2  1  0
  2  3  1  0
  3  4  2  0
  4  5  1  0
  4  6  1  0
  6  7  1  0
  6  8  1  0
  8  9  2  0
  8 10  1  0
 10 11  2  0
 11 12  1  0
 12 13  2  0
 13 14  1  0
 13 15  1  0
 15 16  1  0
 15 17  2  0
 17 18  1  0
 17 19  1  0
 19 20  1  0
 19 21  2  0
 21 22  1  0
 22 23  1  0
 22 24  2  0
 24 25  1  0
  3 26  1  0
 26 27  1  0
 27 28  1  0
 27 29  1  0
 27 30  1  0
 30 31  1  1
 30 32  1  0
 32 33  1  0
 30 34  1  0
 34 35  1  0
 34 36  1  0
 34 37  1  0
 37 38  1  6
 37 39  1  0
 39 40  1  0
 39 41  1  0
 39 42  1  0
 42 43  1  0
 43 44  1  0
 43 45  1  0
 43 46  1  0
 24 10  1  0
 37 26  1  0
 21 12  1  0
M  END
>  <UniqueID>  (35) 
6

>  <SMILES>  (35) 
CSC[C@@H]1C[C@@H](O)CN1/C(O)=C\NC(=O)c1ccc2cc(F)ccc2n1

>  <Energy>  (35) 
48.25694979248111

>  <Genealogy>  (35) 
CSC[C@@H]1C[C@@H](O)CN1C(O)=CNC(=O)c1ccc2cc(F)ccc2n1 (tautomer)
CSC[C@@H]1C[C@@H](O)CN1/C(O)=C\NC(=O)c1ccc2cc(F)ccc2n1 (cis-trans isomerization)
CSC[C@@H]1C[C@@H](O)CN1/C(O)=C\NC(=O)c1ccc2cc(F)ccc2n1 (3D coordinates assigned)
CSC[C@@H]1C[C@@H](O)CN1/C(O)=C\NC(=O)c1ccc2cc(F)ccc2n1 (nonaromatic ring conformer: 48.25694979248111 kcal/mol)

>  <smiles>  (35) 
CSC[C@@H]1C[C@@H](O)CN1C(=O)CNC(=O)c1ccc2cc(F)ccc2n1

>  <score_type>  (35) 
oracle

>  <origin>  (35) 
autodockgpu

>  <m_score__min__energy>  (35) 
-7.3899999999999997

>  <m_primary>  (35) 
energy

>  <meeko>  (35) 
{"free_energy": -6.69, "intermolecular_energy": -9.07, "internal_energy": -1.82, "cluster_size": 10, "cluster_id": 2, "rank_in_cluster": 7}

>  <energy>  (35) 
-6.12

>  <cluster_rmsd>  (35) 
1.18

>  <rmsd>  (35) 
271.98

>  <cluster>  (35) 
2

$$$$
CJVBSAWGHWUQCR-DXLIDDBMNA-N
     RDKit          3D

 46 48  0  0  0  0  0  0  0  0999 V2000
  142.0920   74.8290  221.9410 H   0  0  0  0  0  0  0  0  0  0  0  0
  141.5570   75.6330  221.6340 O   0  0  0  0  0  0  0  0  0  0  0  0
  140.1790   75.7240  221.8320 C   0  0  0  0  0  0  0  0  0  0  0  0
  139.3820   74.7010  221.4910 C   0  0  0  0  0  0  0  0  0  0  0  0
  138.8340   74.7477  220.5384 H   0  0  0  0  0  0  0  0  0  0  0  0
  139.2210   73.5470  222.3290 N   0  0  0  0  0  0  0  0  0  0  0  0
  138.3010   73.3640  222.7820 H   0  0  0  0  0  0  0  0  0  0  0  0
  140.3130   72.6580  222.6140 C   0  0  0  0  0  0  0  0  0  0  0  0
  141.3930   72.7630  221.9710 O   0  0  0  0  0  0  0  0  0  0  0  0
  140.1800   71.6310  223.6700 C   0  0  0  0  0  0  0  0  0  0  0  0
  140.6540   71.8870  224.9210 N   0  0  0  0  0  0  0  0  0  0  0  0
  140.5770   70.9760  225.9270 C   0  0  0  0  0  0  0  0  0  0  0  0
  141.0800   71.2860  227.1960 C   0  0  0  0  0  0  0  0  0  0  0  0
  141.5349   72.2701  227.3822 H   0  0  0  0  0  0  0  0  0  0  0  0
  141.0040   70.3440  228.2270 C   0  0  0  0  0  0  0  0  0  0  0  0
  141.4014   70.5881  229.2232 H   0  0  0  0  0  0  0  0  0  0  0  0
  140.4240   69.0920  227.9950 C   0  0  0  0  0  0  0  0  0  0  0  0
  140.3540   68.1840  228.9990 F   0  0  0  0  0  0  0  0  0  0  0  0
  139.9190   68.7740  226.7290 C   0  0  0  0  0  0  0  0  0  0  0  0
  139.4652   67.7883  226.5491 H   0  0  0  0  0  0  0  0  0  0  0  0
  139.9920   69.7130  225.6900 C   0  0  0  0  0  0  0  0  0  0  0  0
  139.4970   69.4270  224.4120 C   0  0  0  0  0  0  0  0  0  0  0  0
  139.0355   68.4500  224.2060 H   0  0  0  0  0  0  0  0  0  0  0  0
  139.5900   70.3840  223.3990 C   0  0  0  0  0  0  0  0  0  0  0  0
  139.2032   70.1630  222.3933 H   0  0  0  0  0  0  0  0  0  0  0  0
  139.6450   76.9180  222.4190 N   0  0  0  0  0  0  0  0  0  0  0  0
  138.2250   77.0690  222.6820 C   0  0  0  0  0  0  0  0  0  0  0  0
  137.9186   76.4225  223.5176 H   0  0  0  0  0  0  0  0  0  0  0  0
  137.6175   76.7803  221.8116 H   0  0  0  0  0  0  0  0  0  0  0  0
  138.0270   78.5410  223.0460 C   0  0  2  0  0  0  0  0  0  0  0  0
  137.9111   78.6697  224.1323 H   0  0  0  0  0  0  0  0  0  0  0  0
  136.8610   79.0580  222.4620 O   0  0  0  0  0  0  0  0  0  0  0  0
  136.4550   78.3160  221.9410 H   0  0  0  0  0  0  0  0  0  0  0  0
  139.2650   79.2690  222.5150 C   0  0  0  0  0  0  0  0  0  0  0  0
  139.5973   80.0327  223.2335 H   0  0  0  0  0  0  0  0  0  0  0  0
  139.0543   79.7847  221.5665 H   0  0  0  0  0  0  0  0  0  0  0  0
  140.3450   78.1920  222.3430 C   0  0  1  0  0  0  0  0  0  0  0  0
  140.8629   78.3323  221.3827 H   0  0  0  0  0  0  0  0  0  0  0  0
  141.4630   78.2680  223.3990 C   0  0  0  0  0  0  0  0  0  0  0  0
  142.3551   77.7594  223.0047 H   0  0  0  0  0  0  0  0  0  0  0  0
  141.0905   77.7835  224.3136 H   0  0  0  0  0  0  0  0  0  0  0  0
  141.9120   79.9920  223.8280 S   0  0  0  0  0  0  0  0  0  0  0  0
  142.5830   80.3930  222.1860 C   0  0  0  0  0  0  0  0  0  0  0  0
  143.5221   80.9542  222.3007 H   0  0  0  0  0  0  0  0  0  0  0  0
  142.7771   79.4627  221.6320 H   0  0  0  0  0  0  0  0  0  0  0  0
  141.8556   81.0046  221.6320 H   0  0  0  0  0  0  0  0  0  0  0  0
  1  2  1  0
  2  3  1  0
  3  4  2  0
  4  5  1  0
  4  6  1  0
  6  7  1  0
  6  8  1  0
  8  9  2  0
  8 10  1  0
 10 11  2  0
 11 12  1  0
 12 13  2  0
 13 14  1  0
 13 15  1  0
 15 16  1  0
 15 17  2  0
 17 18  1  0
 17 19  1  0
 19 20  1  0
 19 21  2  0
 21 22  1  0
 22 23  1  0
 22 24  2  0
 24 25  1  0
  3 26  1  0
 26 27  1  0
 27 28  1  0
 27 29  1  0
 27 30  1  0
 30 31  1  1
 30 32  1  0
 32 33  1  0
 30 34  1  0
 34 35  1  0
 34 36  1  0
 34 37  1  0
 37 38  1  6
 37 39  1  0
 39 40  1  0
 39 41  1  0
 39 42  1  0
 42 43  1  0
 43 44  1  0
 43 45  1  0
 43 46  1  0
 24 10  1  0
 37 26  1  0
 21 12  1  0
M  END
>  <UniqueID>  (36) 
6

>  <SMILES>  (36) 
CSC[C@@H]1C[C@@H](O)CN1/C(O)=C\NC(=O)c1ccc2cc(F)ccc2n1

>  <Energy>  (36) 
48.25694979248111

>  <Genealogy>  (36) 
CSC[C@@H]1C[C@@H](O)CN1C(O)=CNC(=O)c1ccc2cc(F)ccc2n1 (tautomer)
CSC[C@@H]1C[C@@H](O)CN1/C(O)=C\NC(=O)c1ccc2cc(F)ccc2n1 (cis-trans isomerization)
CSC[C@@H]1C[C@@H](O)CN1/C(O)=C\NC(=O)c1ccc2cc(F)ccc2n1 (3D coordinates assigned)
CSC[C@@H]1C[C@@H](O)CN1/C(O)=C\NC(=O)c1ccc2cc(F)ccc2n1 (nonaromatic ring conformer: 48.25694979248111 kcal/mol)

>  <smiles>  (36) 
CSC[C@@H]1C[C@@H](O)CN1C(=O)CNC(=O)c1ccc2cc(F)ccc2n1

>  <score_type>  (36) 
oracle

>  <origin>  (36) 
autodockgpu

>  <m_score__min__energy>  (36) 
-7.3899999999999997

>  <m_primary>  (36) 
energy

>  <meeko>  (36) 
{"free_energy": -6.78, "intermolecular_energy": -9.17, "internal_energy": -1.53, "cluster_size": 6, "cluster_id": 1, "rank_in_cluster": 2}

>  <energy>  (36) 
-6.08

>  <cluster_rmsd>  (36) 
1.41

>  <rmsd>  (36) 
272.1

>  <cluster>  (36) 
2

$$$$
CJVBSAWGHWUQCR-DXLIDDBMNA-N
     RDKit          3D

 46 48  0  0  0  0  0  0  0  0999 V2000
  141.9950   76.5490  223.1030 H   0  0  0  0  0  0  0  0  0  0  0  0
  141.0740   76.3580  222.7260 O   0  0  0  0  0  0  0  0  0  0  0  0
  140.8840   75.9500  221.4050 C   0  0  0  0  0  0  0  0  0  0  0  0
  140.4730   74.7010  221.1400 C   0  0  0  0  0  0  0  0  0  0  0  0
  140.4542   74.3570  220.0953 H   0  0  0  0  0  0  0  0  0  0  0  0
  140.0570   73.7990  222.1760 N   0  0  0  0  0  0  0  0  0  0  0  0
  139.5800   74.1730  223.0230 H   0  0  0  0  0  0  0  0  0  0  0  0
  140.3290   72.3900  222.1100 C   0  0  0  0  0  0  0  0  0  0  0  0
  140.7670   71.8840  221.0410 O   0  0  0  0  0  0  0  0  0  0  0  0
  140.1100   71.5340  223.2960 C   0  0  0  0  0  0  0  0  0  0  0  0
  140.6040   71.9200  224.5050 N   0  0  0  0  0  0  0  0  0  0  0  0
  140.4510   71.1670  225.6260 C   0  0  0  0  0  0  0  0  0  0  0  0
  140.9780   71.6070  226.8460 C   0  0  0  0  0  0  0  0  0  0  0  0
  141.5139   72.5661  226.8999 H   0  0  0  0  0  0  0  0  0  0  0  0
  140.8230   70.8270  227.9960 C   0  0  0  0  0  0  0  0  0  0  0  0
  141.2393   71.1734  228.9535 H   0  0  0  0  0  0  0  0  0  0  0  0
  140.1400   69.6070  227.9330 C   0  0  0  0  0  0  0  0  0  0  0  0
  139.9930   68.8560  229.0520 F   0  0  0  0  0  0  0  0  0  0  0  0
  139.6090   69.1610  226.7170 C   0  0  0  0  0  0  0  0  0  0  0  0
  139.0719   68.2022  226.6698 H   0  0  0  0  0  0  0  0  0  0  0  0
  139.7620   69.9370  225.5590 C   0  0  0  0  0  0  0  0  0  0  0  0
  139.2440   69.5190  224.3280 C   0  0  0  0  0  0  0  0  0  0  0  0
  138.7014   68.5650  224.2542 H   0  0  0  0  0  0  0  0  0  0  0  0
  139.4170   70.3150  223.1930 C   0  0  0  0  0  0  0  0  0  0  0  0
  139.0129   69.9895  222.2231 H   0  0  0  0  0  0  0  0  0  0  0  0
  141.1180   76.8950  220.3530 N   0  0  0  0  0  0  0  0  0  0  0  0
  141.5160   76.4710  219.0230 C   0  0  0  0  0  0  0  0  0  0  0  0
  140.6757   75.9815  218.5089 H   0  0  0  0  0  0  0  0  0  0  0  0
  142.3404   75.7436  219.0583 H   0  0  0  0  0  0  0  0  0  0  0  0
  141.9210   77.7480  218.2860 C   0  0  2  0  0  0  0  0  0  0  0  0
  141.1320   78.0744  217.5925 H   0  0  0  0  0  0  0  0  0  0  0  0
  143.0700   77.5440  217.5070 O   0  0  0  0  0  0  0  0  0  0  0  0
  143.3500   78.4390  217.1800 H   0  0  0  0  0  0  0  0  0  0  0  0
  142.1870   78.7890  219.3780 C   0  0  0  0  0  0  0  0  0  0  0  0
  141.7957   79.7711  219.0740 H   0  0  0  0  0  0  0  0  0  0  0  0
  143.2640   78.9120  219.5651 H   0  0  0  0  0  0  0  0  0  0  0  0
  141.4520   78.2850  220.6270 C   0  0  1  0  0  0  0  0  0  0  0  0
  142.0973   78.3971  221.5107 H   0  0  0  0  0  0  0  0  0  0  0  0
  140.1880   79.0970  220.9660 C   0  0  0  0  0  0  0  0  0  0  0  0
  139.3041   78.4767  220.7563 H   0  0  0  0  0  0  0  0  0  0  0  0
  140.2013   80.0070  220.3481 H   0  0  0  0  0  0  0  0  0  0  0  0
  140.1350   79.6190  222.7200 S   0  0  0  0  0  0  0  0  0  0  0  0
  141.9220   79.4290  222.9970 C   0  0  0  0  0  0  0  0  0  0  0  0
  142.1252   79.4074  224.0778 H   0  0  0  0  0  0  0  0  0  0  0  0
  142.2659   78.4892  222.5404 H   0  0  0  0  0  0  0  0  0  0  0  0
  142.4559   80.2754  222.5404 H   0  0  0  0  0  0  0  0  0  0  0  0
  1  2  1  0
  2  3  1  0
  3  4  2  0
  4  5  1  0
  4  6  1  0
  6  7  1  0
  6  8  1  0
  8  9  2  0
  8 10  1  0
 10 11  2  0
 11 12  1  0
 12 13  2  0
 13 14  1  0
 13 15  1  0
 15 16  1  0
 15 17  2  0
 17 18  1  0
 17 19  1  0
 19 20  1  0
 19 21  2  0
 21 22  1  0
 22 23  1  0
 22 24  2  0
 24 25  1  0
  3 26  1  0
 26 27  1  0
 27 28  1  0
 27 29  1  0
 27 30  1  0
 30 31  1  6
 30 32  1  0
 32 33  1  0
 30 34  1  0
 34 35  1  0
 34 36  1  0
 34 37  1  0
 37 38  1  1
 37 39  1  0
 39 40  1  0
 39 41  1  0
 39 42  1  0
 42 43  1  0
 43 44  1  0
 43 45  1  0
 43 46  1  0
 24 10  1  0
 37 26  1  0
 21 12  1  0
M  END
>  <UniqueID>  (37) 
6

>  <SMILES>  (37) 
CSC[C@@H]1C[C@@H](O)CN1/C(O)=C\NC(=O)c1ccc2cc(F)ccc2n1

>  <Energy>  (37) 
48.25694979248111

>  <Genealogy>  (37) 
CSC[C@@H]1C[C@@H](O)CN1C(O)=CNC(=O)c1ccc2cc(F)ccc2n1 (tautomer)
CSC[C@@H]1C[C@@H](O)CN1/C(O)=C\NC(=O)c1ccc2cc(F)ccc2n1 (cis-trans isomerization)
CSC[C@@H]1C[C@@H](O)CN1/C(O)=C\NC(=O)c1ccc2cc(F)ccc2n1 (3D coordinates assigned)
CSC[C@@H]1C[C@@H](O)CN1/C(O)=C\NC(=O)c1ccc2cc(F)ccc2n1 (nonaromatic ring conformer: 48.25694979248111 kcal/mol)

>  <smiles>  (37) 
CSC[C@@H]1C[C@@H](O)CN1C(=O)CNC(=O)c1ccc2cc(F)ccc2n1

>  <score_type>  (37) 
oracle

>  <origin>  (37) 
autodockgpu

>  <m_score__min__energy>  (37) 
-7.3899999999999997

>  <m_primary>  (37) 
energy

>  <meeko>  (37) 
{"free_energy": -6.7, "intermolecular_energy": -9.08, "internal_energy": -1.12, "cluster_size": 6, "cluster_id": 1, "rank_in_cluster": 4}

>  <energy>  (37) 
-6.5

>  <cluster_rmsd>  (37) 
0.0

>  <rmsd>  (37) 
272.08

>  <cluster>  (37) 
3

$$$$
CJVBSAWGHWUQCR-DXLIDDBMNA-N
     RDKit          3D

 46 48  0  0  0  0  0  0  0  0999 V2000
  139.9000   72.0120  219.6020 H   0  0  0  0  0  0  0  0  0  0  0  0
  140.4490   72.8310  219.3650 O   0  0  0  0  0  0  0  0  0  0  0  0
  140.5900   73.9070  220.2420 C   0  0  0  0  0  0  0  0  0  0  0  0
  139.6760   74.1160  221.2010 C   0  0  0  0  0  0  0  0  0  0  0  0
  138.9915   74.9719  221.1063 H   0  0  0  0  0  0  0  0  0  0  0  0
  139.5620   73.2590  222.3470 N   0  0  0  0  0  0  0  0  0  0  0  0
  139.5960   73.6710  223.3030 H   0  0  0  0  0  0  0  0  0  0  0  0
  139.4610   71.8320  222.2200 C   0  0  0  0  0  0  0  0  0  0  0  0
  139.2690   71.3140  221.0860 O   0  0  0  0  0  0  0  0  0  0  0  0
  139.5950   70.9670  223.4120 C   0  0  0  0  0  0  0  0  0  0  0  0
  140.1410   71.4740  224.5530 N   0  0  0  0  0  0  0  0  0  0  0  0
  140.3060   70.7230  225.6740 C   0  0  0  0  0  0  0  0  0  0  0  0
  140.8730   71.2900  226.8210 C   0  0  0  0  0  0  0  0  0  0  0  0
  141.1816   72.3458  226.8182 H   0  0  0  0  0  0  0  0  0  0  0  0
  141.0470   70.5130  227.9710 C   0  0  0  0  0  0  0  0  0  0  0  0
  141.4950   70.9589  228.8713 H   0  0  0  0  0  0  0  0  0  0  0  0
  140.6530   69.1700  227.9800 C   0  0  0  0  0  0  0  0  0  0  0  0
  140.8240   68.4230  229.0980 F   0  0  0  0  0  0  0  0  0  0  0  0
  140.0850   68.5970  226.8370 C   0  0  0  0  0  0  0  0  0  0  0  0
  139.7773   67.5409  226.8460 H   0  0  0  0  0  0  0  0  0  0  0  0
  139.9080   69.3690  225.6800 C   0  0  0  0  0  0  0  0  0  0  0  0
  139.3440   68.8260  224.5200 C   0  0  0  0  0  0  0  0  0  0  0  0
  139.0247   67.7735  224.5037 H   0  0  0  0  0  0  0  0  0  0  0  0
  139.1870   69.6220  223.3830 C   0  0  0  0  0  0  0  0  0  0  0  0
  138.7460   69.1982  222.4687 H   0  0  0  0  0  0  0  0  0  0  0  0
  141.7330   74.7610  220.1060 N   0  0  0  0  0  0  0  0  0  0  0  0
  141.6040   76.2060  220.0650 C   0  0  0  0  0  0  0  0  0  0  0  0
  141.3291   76.5949  221.0566 H   0  0  0  0  0  0  0  0  0  0  0  0
  140.8177   76.5239  219.3645 H   0  0  0  0  0  0  0  0  0  0  0  0
  142.9780   76.7320  219.6480 C   0  0  2  0  0  0  0  0  0  0  0  0
  143.5301   77.1308  220.5118 H   0  0  0  0  0  0  0  0  0  0  0  0
  142.8630   77.7890  218.7330 O   0  0  0  0  0  0  0  0  0  0  0  0
  142.0690   77.5890  218.1710 H   0  0  0  0  0  0  0  0  0  0  0  0
  143.7000   75.5420  219.0100 C   0  0  0  0  0  0  0  0  0  0  0  0
  144.7575   75.5291  219.3126 H   0  0  0  0  0  0  0  0  0  0  0  0
  143.6767   75.5973  217.9116 H   0  0  0  0  0  0  0  0  0  0  0  0
  142.9820   74.2880  219.5260 C   0  0  1  0  0  0  0  0  0  0  0  0
  142.8216   73.5817  218.6981 H   0  0  0  0  0  0  0  0  0  0  0  0
  143.8010   73.4920  220.5590 C   0  0  0  0  0  0  0  0  0  0  0  0
  143.2574   72.5671  220.8020 H   0  0  0  0  0  0  0  0  0  0  0  0
  143.9311   74.1316  221.4444 H   0  0  0  0  0  0  0  0  0  0  0  0
  145.4690   73.0480  219.9470 S   0  0  0  0  0  0  0  0  0  0  0  0
  146.3100   73.3840  221.5240 C   0  0  0  0  0  0  0  0  0  0  0  0
  145.6444   73.1181  222.3584 H   0  0  0  0  0  0  0  0  0  0  0  0
  147.2304   72.7845  221.5837 H   0  0  0  0  0  0  0  0  0  0  0  0
  146.5639   74.4526  221.5837 H   0  0  0  0  0  0  0  0  0  0  0  0
  1  2  1  0
  2  3  1  0
  3  4  2  0
  4  5  1  0
  4  6  1  0
  6  7  1  0
  6  8  1  0
  8  9  2  0
  8 10  1  0
 10 11  2  0
 11 12  1  0
 12 13  2  0
 13 14  1  0
 13 15  1  0
 15 16  1  0
 15 17  2  0
 17 18  1  0
 17 19  1  0
 19 20  1  0
 19 21  2  0
 21 22  1  0
 22 23  1  0
 22 24  2  0
 24 25  1  0
  3 26  1  0
 26 27  1  0
 27 28  1  0
 27 29  1  0
 27 30  1  0
 30 31  1  1
 30 32  1  0
 32 33  1  0
 30 34  1  0
 34 35  1  0
 34 36  1  0
 34 37  1  0
 37 38  1  6
 37 39  1  0
 39 40  1  0
 39 41  1  0
 39 42  1  0
 42 43  1  0
 43 44  1  0
 43 45  1  0
 43 46  1  0
 24 10  1  0
 37 26  1  0
 21 12  1  0
M  END
>  <UniqueID>  (38) 
6

>  <SMILES>  (38) 
CSC[C@@H]1C[C@@H](O)CN1/C(O)=C\NC(=O)c1ccc2cc(F)ccc2n1

>  <Energy>  (38) 
48.25694979248111

>  <Genealogy>  (38) 
CSC[C@@H]1C[C@@H](O)CN1C(O)=CNC(=O)c1ccc2cc(F)ccc2n1 (tautomer)
CSC[C@@H]1C[C@@H](O)CN1/C(O)=C\NC(=O)c1ccc2cc(F)ccc2n1 (cis-trans isomerization)
CSC[C@@H]1C[C@@H](O)CN1/C(O)=C\NC(=O)c1ccc2cc(F)ccc2n1 (3D coordinates assigned)
CSC[C@@H]1C[C@@H](O)CN1/C(O)=C\NC(=O)c1ccc2cc(F)ccc2n1 (nonaromatic ring conformer: 48.25694979248111 kcal/mol)

>  <smiles>  (38) 
CSC[C@@H]1C[C@@H](O)CN1C(=O)CNC(=O)c1ccc2cc(F)ccc2n1

>  <score_type>  (38) 
oracle

>  <origin>  (38) 
autodockgpu

>  <m_score__min__energy>  (38) 
-7.3899999999999997

>  <m_primary>  (38) 
energy

>  <meeko>  (38) 
{"free_energy": -6.12, "intermolecular_energy": -8.51, "internal_energy": -1.81, "cluster_size": 10, "cluster_id": 2, "rank_in_cluster": 9}

>  <energy>  (38) 
-6.3

>  <cluster_rmsd>  (38) 
2.0

>  <rmsd>  (38) 
272.15

>  <cluster>  (38) 
3

$$$$
CJVBSAWGHWUQCR-DXLIDDBMNA-N
     RDKit          3D

 46 48  0  0  0  0  0  0  0  0999 V2000
  139.6920   71.7900  219.5750 H   0  0  0  0  0  0  0  0  0  0  0  0
  140.2780   72.5830  219.3390 O   0  0  0  0  0  0  0  0  0  0  0  0
  140.9590   73.3160  220.3110 C   0  0  0  0  0  0  0  0  0  0  0  0
  140.3020   73.7830  221.3840 C   0  0  0  0  0  0  0  0  0  0  0  0
  139.9760   74.8335  221.3926 H   0  0  0  0  0  0  0  0  0  0  0  0
  140.0110   72.9570  222.5200 N   0  0  0  0  0  0  0  0  0  0  0  0
  139.9510   73.3870  223.4680 H   0  0  0  0  0  0  0  0  0  0  0  0
  139.8570   71.5340  222.4050 C   0  0  0  0  0  0  0  0  0  0  0  0
  139.7760   71.0010  221.2640 O   0  0  0  0  0  0  0  0  0  0  0  0
  139.8070   70.6890  223.6180 C   0  0  0  0  0  0  0  0  0  0  0  0
  140.3740   71.1360  224.7730 N   0  0  0  0  0  0  0  0  0  0  0  0
  140.3760   70.3990  225.9150 C   0  0  0  0  0  0  0  0  0  0  0  0
  140.9730   70.9020  227.0760 C   0  0  0  0  0  0  0  0  0  0  0  0
  141.4389   71.8984  227.0680 H   0  0  0  0  0  0  0  0  0  0  0  0
  140.9770   70.1370  228.2470 C   0  0  0  0  0  0  0  0  0  0  0  0
  141.4487   70.5327  229.1585 H   0  0  0  0  0  0  0  0  0  0  0  0
  140.3830   68.8700  228.2630 C   0  0  0  0  0  0  0  0  0  0  0  0
  140.3910   68.1350  229.4010 F   0  0  0  0  0  0  0  0  0  0  0  0
  139.7840   68.3600  227.1060 C   0  0  0  0  0  0  0  0  0  0  0  0
  139.3187   67.3634  227.1209 H   0  0  0  0  0  0  0  0  0  0  0  0
  139.7770   69.1200  225.9270 C   0  0  0  0  0  0  0  0  0  0  0  0
  139.1860   68.6400  224.7530 C   0  0  0  0  0  0  0  0  0  0  0  0
  138.7100   67.6484  224.7420 H   0  0  0  0  0  0  0  0  0  0  0  0
  139.2010   69.4210  223.5950 C   0  0  0  0  0  0  0  0  0  0  0  0
  138.7406   69.0454  222.6693 H   0  0  0  0  0  0  0  0  0  0  0  0
  142.3650   73.5370  220.1470 N   0  0  0  0  0  0  0  0  0  0  0  0
  143.3470   72.5660  220.5960 C   0  0  0  0  0  0  0  0  0  0  0  0
  143.3284   71.6751  219.9510 H   0  0  0  0  0  0  0  0  0  0  0  0
  143.1423   72.2256  221.6218 H   0  0  0  0  0  0  0  0  0  0  0  0
  144.7000   73.2700  220.4940 C   0  0  2  0  0  0  0  0  0  0  0  0
  145.2552   72.9365  219.6049 H   0  0  0  0  0  0  0  0  0  0  0  0
  145.5130   72.9750  221.5990 O   0  0  0  0  0  0  0  0  0  0  0  0
  145.5830   71.9860  221.6400 H   0  0  0  0  0  0  0  0  0  0  0  0
  144.3850   74.7680  220.4400 C   0  0  0  0  0  0  0  0  0  0  0  0
  145.0433   75.2716  219.7168 H   0  0  0  0  0  0  0  0  0  0  0  0
  144.5452   75.2498  221.4158 H   0  0  0  0  0  0  0  0  0  0  0  0
  142.9210   74.8740  219.9930 C   0  0  1  0  0  0  0  0  0  0  0  0
  142.3969   75.6224  220.6055 H   0  0  0  0  0  0  0  0  0  0  0  0
  142.7550   75.3730  218.5450 C   0  0  0  0  0  0  0  0  0  0  0  0
  141.8830   74.8732  218.0980 H   0  0  0  0  0  0  0  0  0  0  0  0
  143.6818   75.1348  218.0024 H   0  0  0  0  0  0  0  0  0  0  0  0
  142.5060   77.1850  218.4480 S   0  0  0  0  0  0  0  0  0  0  0  0
  141.8470   77.3440  220.1360 C   0  0  0  0  0  0  0  0  0  0  0  0
  142.6497   77.1503  220.8627 H   0  0  0  0  0  0  0  0  0  0  0  0
  141.4571   78.3620  220.2830 H   0  0  0  0  0  0  0  0  0  0  0  0
  141.0357   76.6158  220.2830 H   0  0  0  0  0  0  0  0  0  0  0  0
  1  2  1  0
  2  3  1  0
  3  4  2  0
  4  5  1  0
  4  6  1  0
  6  7  1  0
  6  8  1  0
  8  9  2  0
  8 10  1  0
 10 11  2  0
 11 12  1  0
 12 13  2  0
 13 14  1  0
 13 15  1  0
 15 16  1  0
 15 17  2  0
 17 18  1  0
 17 19  1  0
 19 20  1  0
 19 21  2  0
 21 22  1  0
 22 23  1  0
 22 24  2  0
 24 25  1  0
  3 26  1  0
 26 27  1  0
 27 28  1  0
 27 29  1  0
 27 30  1  0
 30 31  1  6
 30 32  1  0
 32 33  1  0
 30 34  1  0
 34 35  1  0
 34 36  1  0
 34 37  1  0
 37 38  1  1
 37 39  1  0
 39 40  1  0
 39 41  1  0
 39 42  1  0
 42 43  1  0
 43 44  1  0
 43 45  1  0
 43 46  1  0
 24 10  1  0
 37 26  1  0
 21 12  1  0
M  END
>  <UniqueID>  (39) 
6

>  <SMILES>  (39) 
CSC[C@@H]1C[C@@H](O)CN1/C(O)=C\NC(=O)c1ccc2cc(F)ccc2n1

>  <Energy>  (39) 
48.25694979248111

>  <Genealogy>  (39) 
CSC[C@@H]1C[C@@H](O)CN1C(O)=CNC(=O)c1ccc2cc(F)ccc2n1 (tautomer)
CSC[C@@H]1C[C@@H](O)CN1/C(O)=C\NC(=O)c1ccc2cc(F)ccc2n1 (cis-trans isomerization)
CSC[C@@H]1C[C@@H](O)CN1/C(O)=C\NC(=O)c1ccc2cc(F)ccc2n1 (3D coordinates assigned)
CSC[C@@H]1C[C@@H](O)CN1/C(O)=C\NC(=O)c1ccc2cc(F)ccc2n1 (nonaromatic ring conformer: 48.25694979248111 kcal/mol)

>  <smiles>  (39) 
CSC[C@@H]1C[C@@H](O)CN1C(=O)CNC(=O)c1ccc2cc(F)ccc2n1

>  <score_type>  (39) 
oracle

>  <origin>  (39) 
autodockgpu

>  <m_score__min__energy>  (39) 
-7.3899999999999997

>  <m_primary>  (39) 
energy

>  <meeko>  (39) 
{"free_energy": -6.3, "intermolecular_energy": -8.68, "internal_energy": -1.76, "cluster_size": 3, "cluster_id": 3, "rank_in_cluster": 2}

>  <energy>  (39) 
-6.17

>  <cluster_rmsd>  (39) 
1.9

>  <rmsd>  (39) 
272.01

>  <cluster>  (39) 
3

$$$$
CJVBSAWGHWUQCR-DXLIDDBMNA-N
     RDKit          3D

 46 48  0  0  0  0  0  0  0  0999 V2000
  138.1330   75.5960  223.4540 H   0  0  0  0  0  0  0  0  0  0  0  0
  138.4090   76.2680  222.7470 O   0  0  0  0  0  0  0  0  0  0  0  0
  139.4830   76.0370  221.8870 C   0  0  0  0  0  0  0  0  0  0  0  0
  139.8070   74.7830  221.5370 C   0  0  0  0  0  0  0  0  0  0  0  0
  140.2905   74.6097  220.5643 H   0  0  0  0  0  0  0  0  0  0  0  0
  139.5430   73.6610  222.3910 N   0  0  0  0  0  0  0  0  0  0  0  0
  138.6860   73.6560  222.9850 H   0  0  0  0  0  0  0  0  0  0  0  0
  140.4570   72.5590  222.5010 C   0  0  0  0  0  0  0  0  0  0  0  0
  141.4220   72.4600  221.6950 O   0  0  0  0  0  0  0  0  0  0  0  0
  140.2800   71.5470  223.5650 C   0  0  0  0  0  0  0  0  0  0  0  0
  140.7210   71.8130  224.8260 N   0  0  0  0  0  0  0  0  0  0  0  0
  140.6030   70.9160  225.8410 C   0  0  0  0  0  0  0  0  0  0  0  0
  141.0740   71.2350  227.1190 C   0  0  0  0  0  0  0  0  0  0  0  0
  141.5380   72.2148  227.3054 H   0  0  0  0  0  0  0  0  0  0  0  0
  140.9550   70.3080  228.1600 C   0  0  0  0  0  0  0  0  0  0  0  0
  141.3274   70.5599  229.1639 H   0  0  0  0  0  0  0  0  0  0  0  0
  140.3640   69.0620  227.9280 C   0  0  0  0  0  0  0  0  0  0  0  0
  140.2510   68.1680  228.9400 F   0  0  0  0  0  0  0  0  0  0  0  0
  139.8900   68.7350  226.6520 C   0  0  0  0  0  0  0  0  0  0  0  0
  139.4267   67.7537  226.4720 H   0  0  0  0  0  0  0  0  0  0  0  0
  140.0060   69.6590  225.6030 C   0  0  0  0  0  0  0  0  0  0  0  0
  139.5430   69.3640  224.3160 C   0  0  0  0  0  0  0  0  0  0  0  0
  139.0721   68.3914  224.1100 H   0  0  0  0  0  0  0  0  0  0  0  0
  139.6790   70.3050  223.2930 C   0  0  0  0  0  0  0  0  0  0  0  0
  139.3178   70.0758  222.2796 H   0  0  0  0  0  0  0  0  0  0  0  0
  140.2100   77.1620  221.3770 N   0  0  0  0  0  0  0  0  0  0  0  0
  140.5380   77.2830  219.9680 C   0  0  0  0  0  0  0  0  0  0  0  0
  139.6331   77.4978  219.3806 H   0  0  0  0  0  0  0  0  0  0  0  0
  140.9677   76.3521  219.5695 H   0  0  0  0  0  0  0  0  0  0  0  0
  141.5250   78.4470  219.8720 C   0  0  2  0  0  0  0  0  0  0  0  0
  141.0313   79.3575  219.5017 H   0  0  0  0  0  0  0  0  0  0  0  0
  142.5590   78.1650  218.9670 O   0  0  0  0  0  0  0  0  0  0  0  0
  143.3490   77.9120  219.5130 H   0  0  0  0  0  0  0  0  0  0  0  0
  142.0810   78.6360  221.2860 C   0  0  0  0  0  0  0  0  0  0  0  0
  142.1775   79.7067  221.5191 H   0  0  0  0  0  0  0  0  0  0  0  0
  143.0807   78.1890  221.3896 H   0  0  0  0  0  0  0  0  0  0  0  0
  141.0680   77.9740  222.2290 C   0  0  1  0  0  0  0  0  0  0  0  0
  141.5974   77.3775  222.9866 H   0  0  0  0  0  0  0  0  0  0  0  0
  140.2350   78.9830  223.0420 C   0  0  0  0  0  0  0  0  0  0  0  0
  140.3352   78.7424  224.1107 H   0  0  0  0  0  0  0  0  0  0  0  0
  139.1914   78.9023  222.7038 H   0  0  0  0  0  0  0  0  0  0  0  0
  140.7710   80.7140  222.7780 S   0  0  0  0  0  0  0  0  0  0  0  0
  142.2580   80.5800  223.8180 C   0  0  0  0  0  0  0  0  0  0  0  0
  141.9673   80.6062  224.8786 H   0  0  0  0  0  0  0  0  0  0  0  0
  142.7722   79.6319  223.6021 H   0  0  0  0  0  0  0  0  0  0  0  0
  142.9334   81.4209  223.6021 H   0  0  0  0  0  0  0  0  0  0  0  0
  1  2  1  0
  2  3  1  0
  3  4  2  0
  4  5  1  0
  4  6  1  0
  6  7  1  0
  6  8  1  0
  8  9  2  0
  8 10  1  0
 10 11  2  0
 11 12  1  0
 12 13  2  0
 13 14  1  0
 13 15  1  0
 15 16  1  0
 15 17  2  0
 17 18  1  0
 17 19  1  0
 19 20  1  0
 19 21  2  0
 21 22  1  0
 22 23  1  0
 22 24  2  0
 24 25  1  0
  3 26  1  0
 26 27  1  0
 27 28  1  0
 27 29  1  0
 27 30  1  0
 30 31  1  6
 30 32  1  0
 32 33  1  0
 30 34  1  0
 34 35  1  0
 34 36  1  0
 34 37  1  0
 37 38  1  1
 37 39  1  0
 39 40  1  0
 39 41  1  0
 39 42  1  0
 42 43  1  0
 43 44  1  0
 43 45  1  0
 43 46  1  0
 24 10  1  0
 37 26  1  0
 21 12  1  0
M  END
>  <UniqueID>  (40) 
6

>  <SMILES>  (40) 
CSC[C@@H]1C[C@@H](O)CN1/C(O)=C\NC(=O)c1ccc2cc(F)ccc2n1

>  <Energy>  (40) 
48.25694979248111

>  <Genealogy>  (40) 
CSC[C@@H]1C[C@@H](O)CN1C(O)=CNC(=O)c1ccc2cc(F)ccc2n1 (tautomer)
CSC[C@@H]1C[C@@H](O)CN1/C(O)=C\NC(=O)c1ccc2cc(F)ccc2n1 (cis-trans isomerization)
CSC[C@@H]1C[C@@H](O)CN1/C(O)=C\NC(=O)c1ccc2cc(F)ccc2n1 (3D coordinates assigned)
CSC[C@@H]1C[C@@H](O)CN1/C(O)=C\NC(=O)c1ccc2cc(F)ccc2n1 (nonaromatic ring conformer: 48.25694979248111 kcal/mol)

>  <smiles>  (40) 
CSC[C@@H]1C[C@@H](O)CN1C(=O)CNC(=O)c1ccc2cc(F)ccc2n1

>  <score_type>  (40) 
oracle

>  <origin>  (40) 
autodockgpu

>  <m_score__min__energy>  (40) 
-7.3899999999999997

>  <m_primary>  (40) 
energy

>  <meeko>  (40) 
{"free_energy": -7.39, "intermolecular_energy": -9.78, "internal_energy": -0.96, "cluster_size": 6, "cluster_id": 1, "rank_in_cluster": 1}

>  <energy>  (40) 
-5.89

>  <cluster_rmsd>  (40) 
0.0

>  <rmsd>  (40) 
272.45

>  <cluster>  (40) 
4

$$$$
JXJFNMZAUJJYED-HIWRTBCQNA-N
     RDKit          3D

 46 48  0  0  0  0  0  0  0  0999 V2000
  139.1320   74.1750  223.0930 H   0  0  0  0  0  0  0  0  0  0  0  0
  139.8840   73.7470  222.5650 O   0  0  0  0  0  0  0  0  0  0  0  0
  139.9010   72.3780  222.3130 C   0  0  0  0  0  0  0  0  0  0  0  0
  139.8730   71.9710  221.0730 N   0  0  0  0  0  0  0  0  0  0  0  0
  140.9510   71.3540  220.3000 C   0  0  0  0  0  0  0  0  0  0  0  0
  140.5392   70.5202  219.7124 H   0  0  0  0  0  0  0  0  0  0  0  0
  141.7190   70.9934  221.0001 H   0  0  0  0  0  0  0  0  0  0  0  0
  141.5880   72.3470  219.3640 C   0  0  0  0  0  0  0  0  0  0  0  0
  140.9420   72.7290  218.3510 O   0  0  0  0  0  0  0  0  0  0  0  0
  142.9190   72.8520  219.5940 N   0  0  0  0  0  0  0  0  0  0  0  0
  144.1190   72.2490  219.0320 C   0  0  0  0  0  0  0  0  0  0  0  0
  144.0938   72.2996  217.9335 H   0  0  0  0  0  0  0  0  0  0  0  0
  144.2036   71.1874  219.3075 H   0  0  0  0  0  0  0  0  0  0  0  0
  145.2920   73.0630  219.5740 C   0  0  2  0  0  0  0  0  0  0  0  0
  145.7071   73.7387  218.8117 H   0  0  0  0  0  0  0  0  0  0  0  0
  146.3420   72.2190  219.9650 O   0  0  0  0  0  0  0  0  0  0  0  0
  146.1080   71.8780  220.8670 H   0  0  0  0  0  0  0  0  0  0  0  0
  144.7360   73.8480  220.7670 C   0  0  0  0  0  0  0  0  0  0  0  0
  145.1524   74.8660  220.7829 H   0  0  0  0  0  0  0  0  0  0  0  0
  145.0025   73.3733  221.7228 H   0  0  0  0  0  0  0  0  0  0  0  0
  143.2170   73.8960  220.5660 C   0  0  1  0  0  0  0  0  0  0  0  0
  142.6952   73.7306  221.5201 H   0  0  0  0  0  0  0  0  0  0  0  0
  142.7160   75.2760  220.0900 C   0  0  0  0  0  0  0  0  0  0  0  0
  142.5555   75.2343  219.0026 H   0  0  0  0  0  0  0  0  0  0  0  0
  143.4821   76.0160  220.3649 H   0  0  0  0  0  0  0  0  0  0  0  0
  141.1470   75.7880  220.8930 S   0  0  0  0  0  0  0  0  0  0  0  0
  141.4640   77.5820  220.8460 C   0  0  0  0  0  0  0  0  0  0  0  0
  141.5324   77.9693  221.8733 H   0  0  0  0  0  0  0  0  0  0  0  0
  142.4099   77.7735  220.3182 H   0  0  0  0  0  0  0  0  0  0  0  0
  140.6410   78.0861  220.3182 H   0  0  0  0  0  0  0  0  0  0  0  0
  139.9310   71.4560  223.4730 C   0  0  0  0  0  0  0  0  0  0  0  0
  140.4270   71.8670  224.6720 N   0  0  0  0  0  0  0  0  0  0  0  0
  140.4480   71.0570  225.7630 C   0  0  0  0  0  0  0  0  0  0  0  0
  140.9830   71.5180  226.9720 C   0  0  0  0  0  0  0  0  0  0  0  0
  141.3836   72.5401  227.0421 H   0  0  0  0  0  0  0  0  0  0  0  0
  141.0080   70.6790  228.0900 C   0  0  0  0  0  0  0  0  0  0  0  0
  141.4298   71.0423  229.0387 H   0  0  0  0  0  0  0  0  0  0  0  0
  140.4980   69.3780  228.0060 C   0  0  0  0  0  0  0  0  0  0  0  0
  140.5250   68.5710  229.0940 F   0  0  0  0  0  0  0  0  0  0  0  0
  139.9610   68.9100  226.8020 C   0  0  0  0  0  0  0  0  0  0  0  0
  139.5602   67.8876  226.7387 H   0  0  0  0  0  0  0  0  0  0  0  0
  139.9340   69.7450  225.6760 C   0  0  0  0  0  0  0  0  0  0  0  0
  139.4030   69.3080  224.4560 C   0  0  0  0  0  0  0  0  0  0  0  0
  138.9938   68.2909  224.3659 H   0  0  0  0  0  0  0  0  0  0  0  0
  139.3940   70.1650  223.3550 C   0  0  0  0  0  0  0  0  0  0  0  0
  138.9675   69.8299  222.3980 H   0  0  0  0  0  0  0  0  0  0  0  0
  1  2  1  0
  2  3  1  0
  3  4  2  0
  4  5  1  0
  5  6  1  0
  5  7  1  0
  5  8  1  0
  8  9  2  0
  8 10  1  0
 10 11  1  0
 11 12  1  0
 11 13  1  0
 11 14  1  0
 14 15  1  6
 14 16  1  0
 16 17  1  0
 14 18  1  0
 18 19  1  0
 18 20  1  0
 18 21  1  0
 21 22  1  1
 21 23  1  0
 23 24  1  0
 23 25  1  0
 23 26  1  0
 26 27  1  0
 27 28  1  0
 27 29  1  0
 27 30  1  0
  3 31  1  0
 31 32  2  0
 32 33  1  0
 33 34  2  0
 34 35  1  0
 34 36  1  0
 36 37  1  0
 36 38  2  0
 38 39  1  0
 38 40  1  0
 40 41  1  0
 40 42  2  0
 42 43  1  0
 43 44  1  0
 43 45  2  0
 45 46  1  0
 21 10  1  0
 45 31  1  0
 42 33  1  0
M  END
>  <UniqueID>  (41) 
7

>  <SMILES>  (41) 
CSC[C@@H]1C[C@@H](O)CN1C(=O)C/N=C(/O)c1ccc2cc(F)ccc2n1

>  <Energy>  (41) 
49.24922423896554

>  <Genealogy>  (41) 
CSC[C@@H]1C[C@@H](O)CN1C(=O)CN=C(O)c1ccc2cc(F)ccc2n1 (tautomer)
CSC[C@@H]1C[C@@H](O)CN1C(=O)C/N=C(/O)c1ccc2cc(F)ccc2n1 (cis-trans isomerization)
CSC[C@@H]1C[C@@H](O)CN1C(=O)C/N=C(/O)c1ccc2cc(F)ccc2n1 (3D coordinates assigned)
CSC[C@@H]1C[C@@H](O)CN1C(=O)C/N=C(/O)c1ccc2cc(F)ccc2n1 (nonaromatic ring conformer: 49.24922423896554 kcal/mol)

>  <smiles>  (41) 
CSC[C@@H]1C[C@@H](O)CN1C(=O)CNC(=O)c1ccc2cc(F)ccc2n1

>  <score_type>  (41) 
oracle

>  <origin>  (41) 
autodockgpu

>  <m_score__min__energy>  (41) 
-7.4699999999999998

>  <m_primary>  (41) 
energy

>  <meeko>  (41) 
{"free_energy": -7.13, "intermolecular_energy": -9.81, "internal_energy": -1.06, "cluster_size": 9, "cluster_id": 3, "rank_in_cluster": 3}

>  <energy>  (41) 
-7.47

>  <cluster_rmsd>  (41) 
0.0

>  <rmsd>  (41) 
271.86

>  <cluster>  (41) 
1

$$$$
JXJFNMZAUJJYED-HIWRTBCQNA-N
     RDKit          3D

 46 48  0  0  0  0  0  0  0  0999 V2000
  141.5260   71.3130  220.9990 H   0  0  0  0  0  0  0  0  0  0  0  0
  140.6970   71.8930  221.0670 O   0  0  0  0  0  0  0  0  0  0  0  0
  140.3040   72.4480  222.2830 C   0  0  0  0  0  0  0  0  0  0  0  0
  140.0960   73.7360  222.3420 N   0  0  0  0  0  0  0  0  0  0  0  0
  138.9350   74.4860  221.8650 C   0  0  0  0  0  0  0  0  0  0  0  0
  138.0219   74.0386  222.2847 H   0  0  0  0  0  0  0  0  0  0  0  0
  138.9196   74.4414  220.7660 H   0  0  0  0  0  0  0  0  0  0  0  0
  139.0100   75.9310  222.2820 C   0  0  0  0  0  0  0  0  0  0  0  0
  138.2150   76.3490  223.1670 O   0  0  0  0  0  0  0  0  0  0  0  0
  139.9530   76.8410  221.6810 N   0  0  0  0  0  0  0  0  0  0  0  0
  140.4170   76.7310  220.3060 C   0  0  0  0  0  0  0  0  0  0  0  0
  139.5762   76.8556  219.6077 H   0  0  0  0  0  0  0  0  0  0  0  0
  140.8614   75.7444  220.1084 H   0  0  0  0  0  0  0  0  0  0  0  0
  141.4360   77.8520  220.1150 C   0  0  2  0  0  0  0  0  0  0  0  0
  141.0208   78.6865  219.5308 H   0  0  0  0  0  0  0  0  0  0  0  0
  142.5530   77.3900  219.4020 O   0  0  0  0  0  0  0  0  0  0  0  0
  143.3410   77.5380  219.9870 H   0  0  0  0  0  0  0  0  0  0  0  0
  141.8250   78.3030  221.5260 C   0  0  0  0  0  0  0  0  0  0  0  0
  141.9284   79.3975  221.5629 H   0  0  0  0  0  0  0  0  0  0  0  0
  142.7898   77.8746  221.8352 H   0  0  0  0  0  0  0  0  0  0  0  0
  140.6860   77.8440  222.4430 C   0  0  1  0  0  0  0  0  0  0  0  0
  141.0866   77.4363  223.3828 H   0  0  0  0  0  0  0  0  0  0  0  0
  139.7670   79.0020  222.8880 C   0  0  0  0  0  0  0  0  0  0  0  0
  139.5562   78.8891  223.9617 H   0  0  0  0  0  0  0  0  0  0  0  0
  138.8514   78.9464  222.2809 H   0  0  0  0  0  0  0  0  0  0  0  0
  140.5100   80.6580  222.6090 S   0  0  0  0  0  0  0  0  0  0  0  0
  141.8480   80.4970  223.8350 C   0  0  0  0  0  0  0  0  0  0  0  0
  141.4244   80.5480  224.8489 H   0  0  0  0  0  0  0  0  0  0  0  0
  142.3564   79.5312  223.6982 H   0  0  0  0  0  0  0  0  0  0  0  0
  142.5710   81.3146  223.6982 H   0  0  0  0  0  0  0  0  0  0  0  0
  140.1610   71.5450  223.4480 C   0  0  0  0  0  0  0  0  0  0  0  0
  140.6640   71.8960  224.6630 N   0  0  0  0  0  0  0  0  0  0  0  0
  140.5310   71.1030  225.7590 C   0  0  0  0  0  0  0  0  0  0  0  0
  141.0790   71.4990  226.9850 C   0  0  0  0  0  0  0  0  0  0  0  0
  141.6157   72.4559  227.0641 H   0  0  0  0  0  0  0  0  0  0  0  0
  140.9440   70.6780  228.1090 C   0  0  0  0  0  0  0  0  0  0  0  0
  141.3764   70.9899  229.0712 H   0  0  0  0  0  0  0  0  0  0  0  0
  140.2600   69.4600  228.0130 C   0  0  0  0  0  0  0  0  0  0  0  0
  140.1330   68.6690  229.1060 F   0  0  0  0  0  0  0  0  0  0  0  0
  139.7090   69.0570  226.7910 C   0  0  0  0  0  0  0  0  0  0  0  0
  139.1729   68.0993  226.7181 H   0  0  0  0  0  0  0  0  0  0  0  0
  139.8410   69.8750  225.6600 C   0  0  0  0  0  0  0  0  0  0  0  0
  139.3010   69.5020  224.4230 C   0  0  0  0  0  0  0  0  0  0  0  0
  138.7575   68.5509  224.3230 H   0  0  0  0  0  0  0  0  0  0  0  0
  139.4540   70.3400  223.3170 C   0  0  0  0  0  0  0  0  0  0  0  0
  139.0217   70.0566  222.3460 H   0  0  0  0  0  0  0  0  0  0  0  0
  1  2  1  0
  2  3  1  0
  3  4  2  0
  4  5  1  0
  5  6  1  0
  5  7  1  0
  5  8  1  0
  8  9  2  0
  8 10  1  0
 10 11  1  0
 11 12  1  0
 11 13  1  0
 11 14  1  0
 14 15  1  6
 14 16  1  0
 16 17  1  0
 14 18  1  0
 18 19  1  0
 18 20  1  0
 18 21  1  0
 21 22  1  1
 21 23  1  0
 23 24  1  0
 23 25  1  0
 23 26  1  0
 26 27  1  0
 27 28  1  0
 27 29  1  0
 27 30  1  0
  3 31  1  0
 31 32  2  0
 32 33  1  0
 33 34  2  0
 34 35  1  0
 34 36  1  0
 36 37  1  0
 36 38  2  0
 38 39  1  0
 38 40  1  0
 40 41  1  0
 40 42  2  0
 42 43  1  0
 43 44  1  0
 43 45  2  0
 45 46  1  0
 21 10  1  0
 45 31  1  0
 42 33  1  0
M  END
>  <UniqueID>  (42) 
7

>  <SMILES>  (42) 
CSC[C@@H]1C[C@@H](O)CN1C(=O)C/N=C(/O)c1ccc2cc(F)ccc2n1

>  <Energy>  (42) 
49.24922423896554

>  <Genealogy>  (42) 
CSC[C@@H]1C[C@@H](O)CN1C(=O)CN=C(O)c1ccc2cc(F)ccc2n1 (tautomer)
CSC[C@@H]1C[C@@H](O)CN1C(=O)C/N=C(/O)c1ccc2cc(F)ccc2n1 (cis-trans isomerization)
CSC[C@@H]1C[C@@H](O)CN1C(=O)C/N=C(/O)c1ccc2cc(F)ccc2n1 (3D coordinates assigned)
CSC[C@@H]1C[C@@H](O)CN1C(=O)C/N=C(/O)c1ccc2cc(F)ccc2n1 (nonaromatic ring conformer: 49.24922423896554 kcal/mol)

>  <smiles>  (42) 
CSC[C@@H]1C[C@@H](O)CN1C(=O)CNC(=O)c1ccc2cc(F)ccc2n1

>  <score_type>  (42) 
oracle

>  <origin>  (42) 
autodockgpu

>  <m_score__min__energy>  (42) 
-7.4699999999999998

>  <m_primary>  (42) 
energy

>  <meeko>  (42) 
{"free_energy": -6.74, "intermolecular_energy": -9.43, "internal_energy": -0.71, "cluster_size": 1, "cluster_id": 4, "rank_in_cluster": 1}

>  <energy>  (42) 
-6.3

>  <cluster_rmsd>  (42) 
1.39

>  <rmsd>  (42) 
271.84

>  <cluster>  (42) 
1

$$$$
JXJFNMZAUJJYED-HIWRTBCQNA-N
     RDKit          3D

 46 48  0  0  0  0  0  0  0  0999 V2000
  137.1400   73.0140  223.7480 H   0  0  0  0  0  0  0  0  0  0  0  0
  137.3610   72.2750  223.0910 O   0  0  0  0  0  0  0  0  0  0  0  0
  138.6490   71.7510  223.0030 C   0  0  0  0  0  0  0  0  0  0  0  0
  139.4010   72.1120  221.9980 N   0  0  0  0  0  0  0  0  0  0  0  0
  140.7600   72.6520  222.0370 C   0  0  0  0  0  0  0  0  0  0  0  0
  141.1673   72.5254  223.0509 H   0  0  0  0  0  0  0  0  0  0  0  0
  140.7193   73.7171  221.7653 H   0  0  0  0  0  0  0  0  0  0  0  0
  141.6560   71.9440  221.0560 C   0  0  0  0  0  0  0  0  0  0  0  0
  141.3340   70.7910  220.6610 O   0  0  0  0  0  0  0  0  0  0  0  0
  142.8750   72.5480  220.5780 N   0  0  0  0  0  0  0  0  0  0  0  0
  143.9600   71.7990  219.9620 C   0  0  0  0  0  0  0  0  0  0  0  0
  143.6162   71.3243  219.0312 H   0  0  0  0  0  0  0  0  0  0  0  0
  144.3218   70.9977  220.6230 H   0  0  0  0  0  0  0  0  0  0  0  0
  145.0590   72.8160  219.6640 C   0  0  2  0  0  0  0  0  0  0  0  0
  145.1041   73.0667  218.5939 H   0  0  0  0  0  0  0  0  0  0  0  0
  146.3190   72.2980  219.9990 O   0  0  0  0  0  0  0  0  0  0  0  0
  146.2250   71.8890  220.8990 H   0  0  0  0  0  0  0  0  0  0  0  0
  144.7220   74.0490  220.5100 C   0  0  0  0  0  0  0  0  0  0  0  0
  144.9219   74.9694  219.9417 H   0  0  0  0  0  0  0  0  0  0  0  0
  145.3336   74.0919  221.4233 H   0  0  0  0  0  0  0  0  0  0  0  0
  143.2290   73.9380  220.8370 C   0  0  1  0  0  0  0  0  0  0  0  0
  143.0396   74.2220  221.8827 H   0  0  0  0  0  0  0  0  0  0  0  0
  142.3590   74.9100  220.0130 C   0  0  0  0  0  0  0  0  0  0  0  0
  141.8314   74.3357  219.2372 H   0  0  0  0  0  0  0  0  0  0  0  0
  143.0313   75.6656  219.5806 H   0  0  0  0  0  0  0  0  0  0  0  0
  141.1150   75.8010  221.0280 S   0  0  0  0  0  0  0  0  0  0  0  0
  141.6430   77.4850  220.5750 C   0  0  0  0  0  0  0  0  0  0  0  0
  141.8264   78.0699  221.4884 H   0  0  0  0  0  0  0  0  0  0  0  0
  142.5677   77.4322  219.9816 H   0  0  0  0  0  0  0  0  0  0  0  0
  140.8537   77.9696  219.9816 H   0  0  0  0  0  0  0  0  0  0  0  0
  139.0860   70.7950  224.0470 C   0  0  0  0  0  0  0  0  0  0  0  0
  139.6770   71.2400  225.1900 N   0  0  0  0  0  0  0  0  0  0  0  0
  140.0700   70.3940  226.1780 C   0  0  0  0  0  0  0  0  0  0  0  0
  140.6890   70.8960  227.3290 C   0  0  0  0  0  0  0  0  0  0  0  0
  140.8553   71.9780  227.4369 H   0  0  0  0  0  0  0  0  0  0  0  0
  141.0960   70.0210  228.3420 C   0  0  0  0  0  0  0  0  0  0  0  0
  141.5841   70.4166  229.2449 H   0  0  0  0  0  0  0  0  0  0  0  0
  140.8840   68.6440  228.2100 C   0  0  0  0  0  0  0  0  0  0  0  0
  141.2800   67.8030  229.1950 F   0  0  0  0  0  0  0  0  0  0  0  0
  140.2650   68.1340  227.0630 C   0  0  0  0  0  0  0  0  0  0  0  0
  140.1000   67.0512  226.9619 H   0  0  0  0  0  0  0  0  0  0  0  0
  139.8550   69.0050  226.0420 C   0  0  0  0  0  0  0  0  0  0  0  0
  139.2330   68.5280  224.8830 C   0  0  0  0  0  0  0  0  0  0  0  0
  139.0540   67.4499  224.7575 H   0  0  0  0  0  0  0  0  0  0  0  0
  138.8400   69.4230  223.8860 C   0  0  0  0  0  0  0  0  0  0  0  0
  138.3398   69.0542  222.9784 H   0  0  0  0  0  0  0  0  0  0  0  0
  1  2  1  0
  2  3  1  0
  3  4  2  0
  4  5  1  0
  5  6  1  0
  5  7  1  0
  5  8  1  0
  8  9  2  0
  8 10  1  0
 10 11  1  0
 11 12  1  0
 11 13  1  0
 11 14  1  0
 14 15  1  6
 14 16  1  0
 16 17  1  0
 14 18  1  0
 18 19  1  0
 18 20  1  0
 18 21  1  0
 21 22  1  1
 21 23  1  0
 23 24  1  0
 23 25  1  0
 23 26  1  0
 26 27  1  0
 27 28  1  0
 27 29  1  0
 27 30  1  0
  3 31  1  0
 31 32  2  0
 32 33  1  0
 33 34  2  0
 34 35  1  0
 34 36  1  0
 36 37  1  0
 36 38  2  0
 38 39  1  0
 38 40  1  0
 40 41  1  0
 40 42  2  0
 42 43  1  0
 43 44  1  0
 43 45  2  0
 45 46  1  0
 21 10  1  0
 45 31  1  0
 42 33  1  0
M  END
>  <UniqueID>  (43) 
7

>  <SMILES>  (43) 
CSC[C@@H]1C[C@@H](O)CN1C(=O)C/N=C(/O)c1ccc2cc(F)ccc2n1

>  <Energy>  (43) 
49.24922423896554

>  <Genealogy>  (43) 
CSC[C@@H]1C[C@@H](O)CN1C(=O)CN=C(O)c1ccc2cc(F)ccc2n1 (tautomer)
CSC[C@@H]1C[C@@H](O)CN1C(=O)C/N=C(/O)c1ccc2cc(F)ccc2n1 (cis-trans isomerization)
CSC[C@@H]1C[C@@H](O)CN1C(=O)C/N=C(/O)c1ccc2cc(F)ccc2n1 (3D coordinates assigned)
CSC[C@@H]1C[C@@H](O)CN1C(=O)C/N=C(/O)c1ccc2cc(F)ccc2n1 (nonaromatic ring conformer: 49.24922423896554 kcal/mol)

>  <smiles>  (43) 
CSC[C@@H]1C[C@@H](O)CN1C(=O)CNC(=O)c1ccc2cc(F)ccc2n1

>  <score_type>  (43) 
oracle

>  <origin>  (43) 
autodockgpu

>  <m_score__min__energy>  (43) 
-7.4699999999999998

>  <m_primary>  (43) 
energy

>  <meeko>  (43) 
{"free_energy": -6.72, "intermolecular_energy": -9.4, "internal_energy": -0.87, "cluster_size": 9, "cluster_id": 3, "rank_in_cluster": 9}

>  <energy>  (43) 
-7.4

>  <cluster_rmsd>  (43) 
0.0

>  <rmsd>  (43) 
272.25

>  <cluster>  (43) 
2

$$$$
JXJFNMZAUJJYED-HIWRTBCQNA-N
     RDKit          3D

 46 48  0  0  0  0  0  0  0  0999 V2000
  139.1960   74.1530  223.0980 H   0  0  0  0  0  0  0  0  0  0  0  0
  139.8830   73.7420  222.4770 O   0  0  0  0  0  0  0  0  0  0  0  0
  139.9190   72.3690  222.2490 C   0  0  0  0  0  0  0  0  0  0  0  0
  139.9310   71.9420  221.0150 N   0  0  0  0  0  0  0  0  0  0  0  0
  141.0880   71.7160  220.1490 C   0  0  0  0  0  0  0  0  0  0  0  0
  140.7805   71.0956  219.2943 H   0  0  0  0  0  0  0  0  0  0  0  0
  141.8682   71.2091  220.7358 H   0  0  0  0  0  0  0  0  0  0  0  0
  141.6470   73.0160  219.6360 C   0  0  0  0  0  0  0  0  0  0  0  0
  140.8580   73.8610  219.1340 O   0  0  0  0  0  0  0  0  0  0  0  0
  143.0590   73.3030  219.6910 N   0  0  0  0  0  0  0  0  0  0  0  0
  144.0850   72.4130  219.1690 C   0  0  0  0  0  0  0  0  0  0  0  0
  143.9680   72.2910  218.0821 H   0  0  0  0  0  0  0  0  0  0  0  0
  144.0163   71.4117  219.6193 H   0  0  0  0  0  0  0  0  0  0  0  0
  145.4220   73.0780  219.4870 C   0  0  2  0  0  0  0  0  0  0  0  0
  145.8729   73.5366  218.5946 H   0  0  0  0  0  0  0  0  0  0  0  0
  146.3480   72.1320  219.9530 O   0  0  0  0  0  0  0  0  0  0  0  0
  146.0450   71.8640  220.8590 H   0  0  0  0  0  0  0  0  0  0  0  0
  145.1160   74.1310  220.5580 C   0  0  0  0  0  0  0  0  0  0  0  0
  145.6961   75.0467  220.3711 H   0  0  0  0  0  0  0  0  0  0  0  0
  145.3857   73.7749  221.5632 H   0  0  0  0  0  0  0  0  0  0  0  0
  143.6150   74.4190  220.4470 C   0  0  1  0  0  0  0  0  0  0  0  0
  143.1627   74.5055  221.4460 H   0  0  0  0  0  0  0  0  0  0  0  0
  143.3100   75.7720  219.7700 C   0  0  0  0  0  0  0  0  0  0  0  0
  144.0734   76.4998  220.0822 H   0  0  0  0  0  0  0  0  0  0  0  0
  142.3000   76.0754  220.0828 H   0  0  0  0  0  0  0  0  0  0  0  0
  143.3100   75.6750  217.9360 S   0  0  0  0  0  0  0  0  0  0  0  0
  142.8800   77.4210  217.6350 C   0  0  0  0  0  0  0  0  0  0  0  0
  142.7526   77.9384  218.5973 H   0  0  0  0  0  0  0  0  0  0  0  0
  143.6861   77.9038  217.0630 H   0  0  0  0  0  0  0  0  0  0  0  0
  141.9419   77.4742  217.0630 H   0  0  0  0  0  0  0  0  0  0  0  0
  139.9220   71.4670  223.4240 C   0  0  0  0  0  0  0  0  0  0  0  0
  140.4650   71.8690  224.6060 N   0  0  0  0  0  0  0  0  0  0  0  0
  140.4630   71.0770  225.7100 C   0  0  0  0  0  0  0  0  0  0  0  0
  141.0490   71.5270  226.8990 C   0  0  0  0  0  0  0  0  0  0  0  0
  141.5086   72.5254  226.9422 H   0  0  0  0  0  0  0  0  0  0  0  0
  141.0500   70.7070  228.0320 C   0  0  0  0  0  0  0  0  0  0  0  0
  141.5110   71.0623  228.9654 H   0  0  0  0  0  0  0  0  0  0  0  0
  140.4660   69.4350  227.9820 C   0  0  0  0  0  0  0  0  0  0  0  0
  140.4700   68.6460  229.0830 F   0  0  0  0  0  0  0  0  0  0  0  0
  139.8780   68.9790  226.7970 C   0  0  0  0  0  0  0  0  0  0  0  0
  139.4188   67.9801  226.7599 H   0  0  0  0  0  0  0  0  0  0  0  0
  139.8740   69.7950  225.6570 C   0  0  0  0  0  0  0  0  0  0  0  0
  139.2940   69.3680  224.4560 C   0  0  0  0  0  0  0  0  0  0  0  0
  138.8270   68.3741  224.3920 H   0  0  0  0  0  0  0  0  0  0  0  0
  139.3100   70.2070  223.3400 C   0  0  0  0  0  0  0  0  0  0  0  0
  138.8444   69.8814  222.3981 H   0  0  0  0  0  0  0  0  0  0  0  0
  1  2  1  0
  2  3  1  0
  3  4  2  0
  4  5  1  0
  5  6  1  0
  5  7  1  0
  5  8  1  0
  8  9  2  0
  8 10  1  0
 10 11  1  0
 11 12  1  0
 11 13  1  0
 11 14  1  0
 14 15  1  6
 14 16  1  0
 16 17  1  0
 14 18  1  0
 18 19  1  0
 18 20  1  0
 18 21  1  0
 21 22  1  1
 21 23  1  0
 23 24  1  0
 23 25  1  0
 23 26  1  0
 26 27  1  0
 27 28  1  0
 27 29  1  0
 27 30  1  0
  3 31  1  0
 31 32  2  0
 32 33  1  0
 33 34  2  0
 34 35  1  0
 34 36  1  0
 36 37  1  0
 36 38  2  0
 38 39  1  0
 38 40  1  0
 40 41  1  0
 40 42  2  0
 42 43  1  0
 43 44  1  0
 43 45  2  0
 45 46  1  0
 21 10  1  0
 45 31  1  0
 42 33  1  0
M  END
>  <UniqueID>  (44) 
7

>  <SMILES>  (44) 
CSC[C@@H]1C[C@@H](O)CN1C(=O)C/N=C(/O)c1ccc2cc(F)ccc2n1

>  <Energy>  (44) 
49.24922423896554

>  <Genealogy>  (44) 
CSC[C@@H]1C[C@@H](O)CN1C(=O)CN=C(O)c1ccc2cc(F)ccc2n1 (tautomer)
CSC[C@@H]1C[C@@H](O)CN1C(=O)C/N=C(/O)c1ccc2cc(F)ccc2n1 (cis-trans isomerization)
CSC[C@@H]1C[C@@H](O)CN1C(=O)C/N=C(/O)c1ccc2cc(F)ccc2n1 (3D coordinates assigned)
CSC[C@@H]1C[C@@H](O)CN1C(=O)C/N=C(/O)c1ccc2cc(F)ccc2n1 (nonaromatic ring conformer: 49.24922423896554 kcal/mol)

>  <smiles>  (44) 
CSC[C@@H]1C[C@@H](O)CN1C(=O)CNC(=O)c1ccc2cc(F)ccc2n1

>  <score_type>  (44) 
oracle

>  <origin>  (44) 
autodockgpu

>  <m_score__min__energy>  (44) 
-7.4699999999999998

>  <m_primary>  (44) 
energy

>  <meeko>  (44) 
{"free_energy": -7.22, "intermolecular_energy": -9.9, "internal_energy": -0.98, "cluster_size": 9, "cluster_id": 3, "rank_in_cluster": 1}

>  <energy>  (44) 
-7.35

>  <cluster_rmsd>  (44) 
0.37

>  <rmsd>  (44) 
272.25

>  <cluster>  (44) 
2

$$$$
JXJFNMZAUJJYED-HIWRTBCQNA-N
     RDKit          3D

 46 48  0  0  0  0  0  0  0  0999 V2000
  139.1620   73.8750  223.0210 H   0  0  0  0  0  0  0  0  0  0  0  0
  139.9000   73.6550  222.3620 O   0  0  0  0  0  0  0  0  0  0  0  0
  140.4490   72.3760  222.2940 C   0  0  0  0  0  0  0  0  0  0  0  0
  141.0800   72.0250  221.2070 N   0  0  0  0  0  0  0  0  0  0  0  0
  140.7450   72.3530  219.8220 C   0  0  0  0  0  0  0  0  0  0  0  0
  139.6683   72.5682  219.7550 H   0  0  0  0  0  0  0  0  0  0  0  0
  141.0102   71.4943  219.1877 H   0  0  0  0  0  0  0  0  0  0  0  0
  141.5160   73.5540  219.3430 C   0  0  0  0  0  0  0  0  0  0  0  0
  140.8870   74.5110  218.8170 O   0  0  0  0  0  0  0  0  0  0  0  0
  142.9520   73.6220  219.4590 N   0  0  0  0  0  0  0  0  0  0  0  0
  143.8540   72.6200  218.9110 C   0  0  0  0  0  0  0  0  0  0  0  0
  143.7626   72.5817  217.8155 H   0  0  0  0  0  0  0  0  0  0  0  0
  143.6202   71.6153  219.2930 H   0  0  0  0  0  0  0  0  0  0  0  0
  145.2610   73.0570  219.3110 C   0  0  2  0  0  0  0  0  0  0  0  0
  145.8087   73.4957  218.4639 H   0  0  0  0  0  0  0  0  0  0  0  0
  146.0190   71.9560  219.7410 O   0  0  0  0  0  0  0  0  0  0  0  0
  145.8490   71.8620  220.7150 H   0  0  0  0  0  0  0  0  0  0  0  0
  145.0740   74.0780  220.4370 C   0  0  0  0  0  0  0  0  0  0  0  0
  145.7901   74.9055  220.3260 H   0  0  0  0  0  0  0  0  0  0  0  0
  145.2494   73.6268  221.4248 H   0  0  0  0  0  0  0  0  0  0  0  0
  143.6380   74.5940  220.3010 C   0  0  1  0  0  0  0  0  0  0  0  0
  143.1658   74.6876  221.2901 H   0  0  0  0  0  0  0  0  0  0  0  0
  143.5630   76.0150  219.7040 C   0  0  0  0  0  0  0  0  0  0  0  0
  144.4970   76.5448  219.9428 H   0  0  0  0  0  0  0  0  0  0  0  0
  142.6847   76.5097  220.1442 H   0  0  0  0  0  0  0  0  0  0  0  0
  143.3380   76.0200  217.8820 S   0  0  0  0  0  0  0  0  0  0  0  0
  142.5710   77.6690  217.7700 C   0  0  0  0  0  0  0  0  0  0  0  0
  142.3898   78.0586  218.7826 H   0  0  0  0  0  0  0  0  0  0  0  0
  143.2445   78.3507  217.2299 H   0  0  0  0  0  0  0  0  0  0  0  0
  141.6157   77.5932  217.2299 H   0  0  0  0  0  0  0  0  0  0  0  0
  140.2670   71.4780  223.4580 C   0  0  0  0  0  0  0  0  0  0  0  0
  140.6880   71.8540  224.6970 N   0  0  0  0  0  0  0  0  0  0  0  0
  140.5170   71.0660  225.7900 C   0  0  0  0  0  0  0  0  0  0  0  0
  140.9820   71.4880  227.0420 C   0  0  0  0  0  0  0  0  0  0  0  0
  141.4839   72.4616  227.1429 H   0  0  0  0  0  0  0  0  0  0  0  0
  140.8080   70.6710  228.1640 C   0  0  0  0  0  0  0  0  0  0  0  0
  141.1741   71.0034  229.1466 H   0  0  0  0  0  0  0  0  0  0  0  0
  140.1690   69.4310  228.0400 C   0  0  0  0  0  0  0  0  0  0  0  0
  140.0040   68.6460  229.1320 F   0  0  0  0  0  0  0  0  0  0  0  0
  139.7020   69.0030  226.7930 C   0  0  0  0  0  0  0  0  0  0  0  0
  139.2005   68.0285  226.6985 H   0  0  0  0  0  0  0  0  0  0  0  0
  139.8730   69.8160  225.6630 C   0  0  0  0  0  0  0  0  0  0  0  0
  139.4160   69.4170  224.4020 C   0  0  0  0  0  0  0  0  0  0  0  0
  138.9077   68.4491  224.2805 H   0  0  0  0  0  0  0  0  0  0  0  0
  139.6070   70.2510  223.2980 C   0  0  0  0  0  0  0  0  0  0  0  0
  139.2410   69.9464  222.3064 H   0  0  0  0  0  0  0  0  0  0  0  0
  1  2  1  0
  2  3  1  0
  3  4  2  0
  4  5  1  0
  5  6  1  0
  5  7  1  0
  5  8  1  0
  8  9  2  0
  8 10  1  0
 10 11  1  0
 11 12  1  0
 11 13  1  0
 11 14  1  0
 14 15  1  6
 14 16  1  0
 16 17  1  0
 14 18  1  0
 18 19  1  0
 18 20  1  0
 18 21  1  0
 21 22  1  1
 21 23  1  0
 23 24  1  0
 23 25  1  0
 23 26  1  0
 26 27  1  0
 27 28  1  0
 27 29  1  0
 27 30  1  0
  3 31  1  0
 31 32  2  0
 32 33  1  0
 33 34  2  0
 34 35  1  0
 34 36  1  0
 36 37  1  0
 36 38  2  0
 38 39  1  0
 38 40  1  0
 40 41  1  0
 40 42  2  0
 42 43  1  0
 43 44  1  0
 43 45  2  0
 45 46  1  0
 21 10  1  0
 45 31  1  0
 42 33  1  0
M  END
>  <UniqueID>  (45) 
7

>  <SMILES>  (45) 
CSC[C@@H]1C[C@@H](O)CN1C(=O)C/N=C(/O)c1ccc2cc(F)ccc2n1

>  <Energy>  (45) 
49.24922423896554

>  <Genealogy>  (45) 
CSC[C@@H]1C[C@@H](O)CN1C(=O)CN=C(O)c1ccc2cc(F)ccc2n1 (tautomer)
CSC[C@@H]1C[C@@H](O)CN1C(=O)C/N=C(/O)c1ccc2cc(F)ccc2n1 (cis-trans isomerization)
CSC[C@@H]1C[C@@H](O)CN1C(=O)C/N=C(/O)c1ccc2cc(F)ccc2n1 (3D coordinates assigned)
CSC[C@@H]1C[C@@H](O)CN1C(=O)C/N=C(/O)c1ccc2cc(F)ccc2n1 (nonaromatic ring conformer: 49.24922423896554 kcal/mol)

>  <smiles>  (45) 
CSC[C@@H]1C[C@@H](O)CN1C(=O)CNC(=O)c1ccc2cc(F)ccc2n1

>  <score_type>  (45) 
oracle

>  <origin>  (45) 
autodockgpu

>  <m_score__min__energy>  (45) 
-7.4699999999999998

>  <m_primary>  (45) 
energy

>  <meeko>  (45) 
{"free_energy": -7.11, "intermolecular_energy": -9.8, "internal_energy": -0.97, "cluster_size": 9, "cluster_id": 3, "rank_in_cluster": 4}

>  <energy>  (45) 
-7.35

>  <cluster_rmsd>  (45) 
0.16

>  <rmsd>  (45) 
272.24

>  <cluster>  (45) 
2

$$$$
JXJFNMZAUJJYED-HIWRTBCQNA-N
     RDKit          3D

 46 48  0  0  0  0  0  0  0  0999 V2000
  138.7540   75.1730  223.0530 H   0  0  0  0  0  0  0  0  0  0  0  0
  137.8850   75.4230  222.5950 O   0  0  0  0  0  0  0  0  0  0  0  0
  137.7860   76.5740  221.8170 C   0  0  0  0  0  0  0  0  0  0  0  0
  137.0730   76.5280  220.7240 N   0  0  0  0  0  0  0  0  0  0  0  0
  137.4870   76.8620  219.3610 C   0  0  0  0  0  0  0  0  0  0  0  0
  137.8472   77.9012  219.3398 H   0  0  0  0  0  0  0  0  0  0  0  0
  136.6214   76.7379  218.6937 H   0  0  0  0  0  0  0  0  0  0  0  0
  138.5880   75.9510  218.8880 C   0  0  0  0  0  0  0  0  0  0  0  0
  138.6950   75.7190  217.6540 O   0  0  0  0  0  0  0  0  0  0  0  0
  139.5040   75.3320  219.8140 N   0  0  0  0  0  0  0  0  0  0  0  0
  139.2280   74.0830  220.5090 C   0  0  0  0  0  0  0  0  0  0  0  0
  139.1171   73.2602  219.7874 H   0  0  0  0  0  0  0  0  0  0  0  0
  138.2922   74.1398  221.0844 H   0  0  0  0  0  0  0  0  0  0  0  0
  140.4290   73.8340  221.4170 C   0  0  2  0  0  0  0  0  0  0  0  0
  141.0884   73.0505  221.0154 H   0  0  0  0  0  0  0  0  0  0  0  0
  140.0110   73.3880  222.6800 O   0  0  0  0  0  0  0  0  0  0  0  0
  139.0800   73.7120  222.7990 H   0  0  0  0  0  0  0  0  0  0  0  0
  141.1610   75.1760  221.5160 C   0  0  0  0  0  0  0  0  0  0  0  0
  142.2497   75.0208  221.4928 H   0  0  0  0  0  0  0  0  0  0  0  0
  140.9272   75.6956  222.4569 H   0  0  0  0  0  0  0  0  0  0  0  0
  140.7120   75.9890  220.2970 C   0  0  1  0  0  0  0  0  0  0  0  0
  140.5272   77.0365  220.5774 H   0  0  0  0  0  0  0  0  0  0  0  0
  141.7920   76.0710  219.1970 C   0  0  0  0  0  0  0  0  0  0  0  0
  141.5502   75.3377  218.4135 H   0  0  0  0  0  0  0  0  0  0  0  0
  142.7614   75.8608  219.6725 H   0  0  0  0  0  0  0  0  0  0  0  0
  141.9090   77.7330  218.4260 S   0  0  0  0  0  0  0  0  0  0  0  0
  141.4800   78.6870  219.9180 C   0  0  0  0  0  0  0  0  0  0  0  0
  141.7419   78.1045  220.8136 H   0  0  0  0  0  0  0  0  0  0  0  0
  142.0387   79.6346  219.9206 H   0  0  0  0  0  0  0  0  0  0  0  0
  140.4004   78.8979  219.9206 H   0  0  0  0  0  0  0  0  0  0  0  0
  138.5120   77.7850  222.2660 C   0  0  0  0  0  0  0  0  0  0  0  0
  139.8200   77.7100  222.6370 N   0  0  0  0  0  0  0  0  0  0  0  0
  140.5240   78.8040  223.0310 C   0  0  0  0  0  0  0  0  0  0  0  0
  141.8630   78.6760  223.4190 C   0  0  0  0  0  0  0  0  0  0  0  0
  142.3489   77.6893  223.4015 H   0  0  0  0  0  0  0  0  0  0  0  0
  142.5830   79.8030  223.8290 C   0  0  0  0  0  0  0  0  0  0  0  0
  143.6349   79.7009  224.1341 H   0  0  0  0  0  0  0  0  0  0  0  0
  141.9680   81.0610  223.8520 C   0  0  0  0  0  0  0  0  0  0  0  0
  142.6720   82.1480  224.2500 F   0  0  0  0  0  0  0  0  0  0  0  0
  140.6300   81.1970  223.4650 C   0  0  0  0  0  0  0  0  0  0  0  0
  140.1497   82.1864  223.4832 H   0  0  0  0  0  0  0  0  0  0  0  0
  139.9020   80.0710  223.0540 C   0  0  0  0  0  0  0  0  0  0  0  0
  138.5630   80.1730  222.6600 C   0  0  0  0  0  0  0  0  0  0  0  0
  138.0595   81.1510  222.6663 H   0  0  0  0  0  0  0  0  0  0  0  0
  137.8680   79.0310  222.2590 C   0  0  0  0  0  0  0  0  0  0  0  0
  136.8185   79.1079  221.9385 H   0  0  0  0  0  0  0  0  0  0  0  0
  1  2  1  0
  2  3  1  0
  3  4  2  0
  4  5  1  0
  5  6  1  0
  5  7  1  0
  5  8  1  0
  8  9  2  0
  8 10  1  0
 10 11  1  0
 11 12  1  0
 11 13  1  0
 11 14  1  0
 14 15  1  6
 14 16  1  0
 16 17  1  0
 14 18  1  0
 18 19  1  0
 18 20  1  0
 18 21  1  0
 21 22  1  1
 21 23  1  0
 23 24  1  0
 23 25  1  0
 23 26  1  0
 26 27  1  0
 27 28  1  0
 27 29  1  0
 27 30  1  0
  3 31  1  0
 31 32  2  0
 32 33  1  0
 33 34  2  0
 34 35  1  0
 34 36  1  0
 36 37  1  0
 36 38  2  0
 38 39  1  0
 38 40  1  0
 40 41  1  0
 40 42  2  0
 42 43  1  0
 43 44  1  0
 43 45  2  0
 45 46  1  0
 21 10  1  0
 45 31  1  0
 42 33  1  0
M  END
>  <UniqueID>  (46) 
7

>  <SMILES>  (46) 
CSC[C@@H]1C[C@@H](O)CN1C(=O)C/N=C(/O)c1ccc2cc(F)ccc2n1

>  <Energy>  (46) 
49.24922423896554

>  <Genealogy>  (46) 
CSC[C@@H]1C[C@@H](O)CN1C(=O)CN=C(O)c1ccc2cc(F)ccc2n1 (tautomer)
CSC[C@@H]1C[C@@H](O)CN1C(=O)C/N=C(/O)c1ccc2cc(F)ccc2n1 (cis-trans isomerization)
CSC[C@@H]1C[C@@H](O)CN1C(=O)C/N=C(/O)c1ccc2cc(F)ccc2n1 (3D coordinates assigned)
CSC[C@@H]1C[C@@H](O)CN1C(=O)C/N=C(/O)c1ccc2cc(F)ccc2n1 (nonaromatic ring conformer: 49.24922423896554 kcal/mol)

>  <smiles>  (46) 
CSC[C@@H]1C[C@@H](O)CN1C(=O)CNC(=O)c1ccc2cc(F)ccc2n1

>  <score_type>  (46) 
oracle

>  <origin>  (46) 
autodockgpu

>  <m_score__min__energy>  (46) 
-7.4699999999999998

>  <m_primary>  (46) 
energy

>  <meeko>  (46) 
{"free_energy": -4.56, "intermolecular_energy": -7.24, "internal_energy": -3.19, "cluster_size": 3, "cluster_id": 5, "rank_in_cluster": 3}

>  <energy>  (46) 
-6.81

>  <cluster_rmsd>  (46) 
1.04

>  <rmsd>  (46) 
272.2

>  <cluster>  (46) 
2

$$$$
JXJFNMZAUJJYED-HIWRTBCQNA-N
     RDKit          3D

 46 48  0  0  0  0  0  0  0  0999 V2000
  138.4640   73.3740  222.9140 H   0  0  0  0  0  0  0  0  0  0  0  0
  138.3090   72.3900  222.7260 O   0  0  0  0  0  0  0  0  0  0  0  0
  139.3670   71.4850  222.6960 C   0  0  0  0  0  0  0  0  0  0  0  0
  140.1370   71.4610  221.6410 N   0  0  0  0  0  0  0  0  0  0  0  0
  140.2380   72.4560  220.5740 C   0  0  0  0  0  0  0  0  0  0  0  0
  139.2375   72.6320  220.1520 H   0  0  0  0  0  0  0  0  0  0  0  0
  140.9226   72.0714  219.8037 H   0  0  0  0  0  0  0  0  0  0  0  0
  140.7880   73.7580  221.0920 C   0  0  0  0  0  0  0  0  0  0  0  0
  140.2120   74.3160  222.0640 O   0  0  0  0  0  0  0  0  0  0  0  0
  141.9400   74.3820  220.4890 N   0  0  0  0  0  0  0  0  0  0  0  0
  142.1370   75.8220  220.4250 C   0  0  0  0  0  0  0  0  0  0  0  0
  142.2123   76.2428  221.4385 H   0  0  0  0  0  0  0  0  0  0  0  0
  141.2939   76.3220  219.9259 H   0  0  0  0  0  0  0  0  0  0  0  0
  143.4430   76.0350  219.6640 C   0  0  2  0  0  0  0  0  0  0  0  0
  144.2672   76.3129  220.3374 H   0  0  0  0  0  0  0  0  0  0  0  0
  143.3150   77.0870  218.7440 O   0  0  0  0  0  0  0  0  0  0  0  0
  143.7170   77.8860  219.1750 H   0  0  0  0  0  0  0  0  0  0  0  0
  143.7300   74.7080  218.9540 C   0  0  0  0  0  0  0  0  0  0  0  0
  144.8049   74.4778  218.9929 H   0  0  0  0  0  0  0  0  0  0  0  0
  143.4444   74.7478  217.8925 H   0  0  0  0  0  0  0  0  0  0  0  0
  142.9290   73.6440  219.7130 C   0  0  1  0  0  0  0  0  0  0  0  0
  142.4593   72.9390  219.0113 H   0  0  0  0  0  0  0  0  0  0  0  0
  143.8110   72.7550  220.6140 C   0  0  0  0  0  0  0  0  0  0  0  0
  143.4000   71.7347  220.6092 H   0  0  0  0  0  0  0  0  0  0  0  0
  143.8024   73.1974  221.6211 H   0  0  0  0  0  0  0  0  0  0  0  0
  145.5610   72.6830  220.0620 S   0  0  0  0  0  0  0  0  0  0  0  0
  146.2870   73.3900  221.5770 C   0  0  0  0  0  0  0  0  0  0  0  0
  145.8155   72.9308  222.4584 H   0  0  0  0  0  0  0  0  0  0  0  0
  147.3684   73.1895  221.5935 H   0  0  0  0  0  0  0  0  0  0  0  0
  146.1152   74.4764  221.5935 H   0  0  0  0  0  0  0  0  0  0  0  0
  139.5480   70.5850  223.8580 C   0  0  0  0  0  0  0  0  0  0  0  0
  140.1500   71.0330  224.9940 N   0  0  0  0  0  0  0  0  0  0  0  0
  140.3120   70.2420  226.0870 C   0  0  0  0  0  0  0  0  0  0  0  0
  140.9530   70.7410  227.2280 C   0  0  0  0  0  0  0  0  0  0  0  0
  141.3240   71.7764  227.2423 H   0  0  0  0  0  0  0  0  0  0  0  0
  141.1210   69.9220  228.3490 C   0  0  0  0  0  0  0  0  0  0  0  0
  141.6251   70.3150  229.2442 H   0  0  0  0  0  0  0  0  0  0  0  0
  140.6500   68.6040  228.3360 C   0  0  0  0  0  0  0  0  0  0  0  0
  140.8170   67.8170  229.4260 F   0  0  0  0  0  0  0  0  0  0  0  0
  140.0080   68.0980  227.2000 C   0  0  0  0  0  0  0  0  0  0  0  0
  139.6385   67.0619  227.1924 H   0  0  0  0  0  0  0  0  0  0  0  0
  139.8360   68.9120  226.0720 C   0  0  0  0  0  0  0  0  0  0  0  0
  139.1970   68.4380  224.9200 C   0  0  0  0  0  0  0  0  0  0  0  0
  138.8147   67.4071  224.8865 H   0  0  0  0  0  0  0  0  0  0  0  0
  139.0460   69.2760  223.8140 C   0  0  0  0  0  0  0  0  0  0  0  0
  138.5350   68.9110  222.9108 H   0  0  0  0  0  0  0  0  0  0  0  0
  1  2  1  0
  2  3  1  0
  3  4  2  0
  4  5  1  0
  5  6  1  0
  5  7  1  0
  5  8  1  0
  8  9  2  0
  8 10  1  0
 10 11  1  0
 11 12  1  0
 11 13  1  0
 11 14  1  0
 14 15  1  1
 14 16  1  0
 16 17  1  0
 14 18  1  0
 18 19  1  0
 18 20  1  0
 18 21  1  0
 21 22  1  6
 21 23  1  0
 23 24  1  0
 23 25  1  0
 23 26  1  0
 26 27  1  0
 27 28  1  0
 27 29  1  0
 27 30  1  0
  3 31  1  0
 31 32  2  0
 32 33  1  0
 33 34  2  0
 34 35  1  0
 34 36  1  0
 36 37  1  0
 36 38  2  0
 38 39  1  0
 38 40  1  0
 40 41  1  0
 40 42  2  0
 42 43  1  0
 43 44  1  0
 43 45  2  0
 45 46  1  0
 21 10  1  0
 45 31  1  0
 42 33  1  0
M  END
>  <UniqueID>  (47) 
7

>  <SMILES>  (47) 
CSC[C@@H]1C[C@@H](O)CN1C(=O)C/N=C(/O)c1ccc2cc(F)ccc2n1

>  <Energy>  (47) 
49.24922423896554

>  <Genealogy>  (47) 
CSC[C@@H]1C[C@@H](O)CN1C(=O)CN=C(O)c1ccc2cc(F)ccc2n1 (tautomer)
CSC[C@@H]1C[C@@H](O)CN1C(=O)C/N=C(/O)c1ccc2cc(F)ccc2n1 (cis-trans isomerization)
CSC[C@@H]1C[C@@H](O)CN1C(=O)C/N=C(/O)c1ccc2cc(F)ccc2n1 (3D coordinates assigned)
CSC[C@@H]1C[C@@H](O)CN1C(=O)C/N=C(/O)c1ccc2cc(F)ccc2n1 (nonaromatic ring conformer: 49.24922423896554 kcal/mol)

>  <smiles>  (47) 
CSC[C@@H]1C[C@@H](O)CN1C(=O)CNC(=O)c1ccc2cc(F)ccc2n1

>  <score_type>  (47) 
oracle

>  <origin>  (47) 
autodockgpu

>  <m_score__min__energy>  (47) 
-7.4699999999999998

>  <m_primary>  (47) 
energy

>  <meeko>  (47) 
{"free_energy": -7.4, "intermolecular_energy": -10.09, "internal_energy": -1.44, "cluster_size": 5, "cluster_id": 2, "rank_in_cluster": 1}

>  <energy>  (47) 
-6.73

>  <cluster_rmsd>  (47) 
1.81

>  <rmsd>  (47) 
272.14

>  <cluster>  (47) 
2

$$$$
JXJFNMZAUJJYED-HIWRTBCQNA-N
     RDKit          3D

 46 48  0  0  0  0  0  0  0  0999 V2000
  139.2810   73.9720  223.1160 H   0  0  0  0  0  0  0  0  0  0  0  0
  139.9490   73.7180  222.3970 O   0  0  0  0  0  0  0  0  0  0  0  0
  140.3870   72.4040  222.2510 C   0  0  0  0  0  0  0  0  0  0  0  0
  140.8760   72.0350  221.0980 N   0  0  0  0  0  0  0  0  0  0  0  0
  140.4900   72.4930  219.7640 C   0  0  0  0  0  0  0  0  0  0  0  0
  140.0500   73.4980  219.8434 H   0  0  0  0  0  0  0  0  0  0  0  0
  139.7610   71.7812  219.3495 H   0  0  0  0  0  0  0  0  0  0  0  0
  141.6780   72.5490  218.8410 C   0  0  0  0  0  0  0  0  0  0  0  0
  141.5300   72.2010  217.6380 O   0  0  0  0  0  0  0  0  0  0  0  0
  142.9750   72.9730  219.3080 N   0  0  0  0  0  0  0  0  0  0  0  0
  144.2300   72.4320  218.8060 C   0  0  0  0  0  0  0  0  0  0  0  0
  144.3414   72.6556  217.7348 H   0  0  0  0  0  0  0  0  0  0  0  0
  144.2705   71.3383  218.9164 H   0  0  0  0  0  0  0  0  0  0  0  0
  145.3340   73.1170  219.6090 C   0  0  2  0  0  0  0  0  0  0  0  0
  145.8468   73.8923  219.0208 H   0  0  0  0  0  0  0  0  0  0  0  0
  146.3200   72.1920  219.9840 O   0  0  0  0  0  0  0  0  0  0  0  0
  146.0740   71.8710  220.8910 H   0  0  0  0  0  0  0  0  0  0  0  0
  144.6410   73.7200  220.8350 C   0  0  0  0  0  0  0  0  0  0  0  0
  145.0610   74.7107  221.0631 H   0  0  0  0  0  0  0  0  0  0  0  0
  144.7827   73.0932  221.7278 H   0  0  0  0  0  0  0  0  0  0  0  0
  143.1600   73.8420  220.4630 C   0  0  1  0  0  0  0  0  0  0  0  0
  142.5230   73.5433  221.3086 H   0  0  0  0  0  0  0  0  0  0  0  0
  142.7340   75.2940  220.1560 C   0  0  0  0  0  0  0  0  0  0  0  0
  143.1539   75.9533  220.9300 H   0  0  0  0  0  0  0  0  0  0  0  0
  141.6343   75.3187  220.1469 H   0  0  0  0  0  0  0  0  0  0  0  0
  143.3090   75.8800  218.5140 S   0  0  0  0  0  0  0  0  0  0  0  0
  142.5820   77.5480  218.6210 C   0  0  0  0  0  0  0  0  0  0  0  0
  142.4601   77.8277  219.6778 H   0  0  0  0  0  0  0  0  0  0  0  0
  143.2469   78.2703  218.1249 H   0  0  0  0  0  0  0  0  0  0  0  0
  141.6002   77.5526  218.1249 H   0  0  0  0  0  0  0  0  0  0  0  0
  140.2540   71.4920  223.4100 C   0  0  0  0  0  0  0  0  0  0  0  0
  140.6780   71.8740  224.6460 N   0  0  0  0  0  0  0  0  0  0  0  0
  140.5500   71.0720  225.7350 C   0  0  0  0  0  0  0  0  0  0  0  0
  141.0170   71.5020  226.9830 C   0  0  0  0  0  0  0  0  0  0  0  0
  141.4851   72.4923  227.0840 H   0  0  0  0  0  0  0  0  0  0  0  0
  140.8880   70.6720  228.1010 C   0  0  0  0  0  0  0  0  0  0  0  0
  141.2564   71.0104  229.0807 H   0  0  0  0  0  0  0  0  0  0  0  0
  140.2910   69.4110  227.9770 C   0  0  0  0  0  0  0  0  0  0  0  0
  140.1690   68.6130  229.0650 F   0  0  0  0  0  0  0  0  0  0  0  0
  139.8220   68.9750  226.7340 C   0  0  0  0  0  0  0  0  0  0  0  0
  139.3535   67.9842  226.6394 H   0  0  0  0  0  0  0  0  0  0  0  0
  139.9490   69.8010  225.6080 C   0  0  0  0  0  0  0  0  0  0  0  0
  139.4890   69.3950  224.3500 C   0  0  0  0  0  0  0  0  0  0  0  0
  139.0143   68.4102  224.2281 H   0  0  0  0  0  0  0  0  0  0  0  0
  139.6340   70.2430  223.2500 C   0  0  0  0  0  0  0  0  0  0  0  0
  139.2636   69.9332  222.2616 H   0  0  0  0  0  0  0  0  0  0  0  0
  1  2  1  0
  2  3  1  0
  3  4  2  0
  4  5  1  0
  5  6  1  0
  5  7  1  0
  5  8  1  0
  8  9  2  0
  8 10  1  0
 10 11  1  0
 11 12  1  0
 11 13  1  0
 11 14  1  0
 14 15  1  6
 14 16  1  0
 16 17  1  0
 14 18  1  0
 18 19  1  0
 18 20  1  0
 18 21  1  0
 21 22  1  1
 21 23  1  0
 23 24  1  0
 23 25  1  0
 23 26  1  0
 26 27  1  0
 27 28  1  0
 27 29  1  0
 27 30  1  0
  3 31  1  0
 31 32  2  0
 32 33  1  0
 33 34  2  0
 34 35  1  0
 34 36  1  0
 36 37  1  0
 36 38  2  0
 38 39  1  0
 38 40  1  0
 40 41  1  0
 40 42  2  0
 42 43  1  0
 43 44  1  0
 43 45  2  0
 45 46  1  0
 21 10  1  0
 45 31  1  0
 42 33  1  0
M  END
>  <UniqueID>  (48) 
7

>  <SMILES>  (48) 
CSC[C@@H]1C[C@@H](O)CN1C(=O)C/N=C(/O)c1ccc2cc(F)ccc2n1

>  <Energy>  (48) 
49.24922423896554

>  <Genealogy>  (48) 
CSC[C@@H]1C[C@@H](O)CN1C(=O)CN=C(O)c1ccc2cc(F)ccc2n1 (tautomer)
CSC[C@@H]1C[C@@H](O)CN1C(=O)C/N=C(/O)c1ccc2cc(F)ccc2n1 (cis-trans isomerization)
CSC[C@@H]1C[C@@H](O)CN1C(=O)C/N=C(/O)c1ccc2cc(F)ccc2n1 (3D coordinates assigned)
CSC[C@@H]1C[C@@H](O)CN1C(=O)C/N=C(/O)c1ccc2cc(F)ccc2n1 (nonaromatic ring conformer: 49.24922423896554 kcal/mol)

>  <smiles>  (48) 
CSC[C@@H]1C[C@@H](O)CN1C(=O)CNC(=O)c1ccc2cc(F)ccc2n1

>  <score_type>  (48) 
oracle

>  <origin>  (48) 
autodockgpu

>  <m_score__min__energy>  (48) 
-7.4699999999999998

>  <m_primary>  (48) 
energy

>  <meeko>  (48) 
{"free_energy": -7.05, "intermolecular_energy": -9.74, "internal_energy": -1.03, "cluster_size": 9, "cluster_id": 3, "rank_in_cluster": 7}

>  <energy>  (48) 
-7.22

>  <cluster_rmsd>  (48) 
0.0

>  <rmsd>  (48) 
272.08

>  <cluster>  (48) 
3

$$$$
JXJFNMZAUJJYED-HIWRTBCQNA-N
     RDKit          3D

 46 48  0  0  0  0  0  0  0  0999 V2000
  138.4610   73.5310  222.8640 H   0  0  0  0  0  0  0  0  0  0  0  0
  138.3360   72.5420  222.6830 O   0  0  0  0  0  0  0  0  0  0  0  0
  139.4190   71.6670  222.6780 C   0  0  0  0  0  0  0  0  0  0  0  0
  140.2330   71.6870  221.6580 N   0  0  0  0  0  0  0  0  0  0  0  0
  141.4330   72.5050  221.4750 C   0  0  0  0  0  0  0  0  0  0  0  0
  141.9816   72.1444  220.5924 H   0  0  0  0  0  0  0  0  0  0  0  0
  142.0532   72.4198  222.3795 H   0  0  0  0  0  0  0  0  0  0  0  0
  141.0800   73.9540  221.2750 C   0  0  0  0  0  0  0  0  0  0  0  0
  140.2050   74.4750  222.0190 O   0  0  0  0  0  0  0  0  0  0  0  0
  141.7050   74.7470  220.2450 N   0  0  0  0  0  0  0  0  0  0  0  0
  142.1060   74.2170  218.9500 C   0  0  0  0  0  0  0  0  0  0  0  0
  141.2264   73.8608  218.3937 H   0  0  0  0  0  0  0  0  0  0  0  0
  142.7908   73.3631  219.0585 H   0  0  0  0  0  0  0  0  0  0  0  0
  142.7690   75.3750  218.2090 C   0  0  2  0  0  0  0  0  0  0  0  0
  142.1109   75.7937  217.4333 H   0  0  0  0  0  0  0  0  0  0  0  0
  143.9280   74.9420  217.5480 O   0  0  0  0  0  0  0  0  0  0  0  0
  144.6700   75.5120  217.8790 H   0  0  0  0  0  0  0  0  0  0  0  0
  143.0960   76.4200  219.2800 C   0  0  0  0  0  0  0  0  0  0  0  0
  142.8988   77.4329  218.8991 H   0  0  0  0  0  0  0  0  0  0  0  0
  144.1563   76.3827  219.5703 H   0  0  0  0  0  0  0  0  0  0  0  0
  142.1770   76.1080  220.4650 C   0  0  1  0  0  0  0  0  0  0  0  0
  142.7241   76.2056  221.4143 H   0  0  0  0  0  0  0  0  0  0  0  0
  141.0030   77.1020  220.5950 C   0  0  0  0  0  0  0  0  0  0  0  0
  140.0961   76.6273  220.1924 H   0  0  0  0  0  0  0  0  0  0  0  0
  141.2768   78.0082  220.0347 H   0  0  0  0  0  0  0  0  0  0  0  0
  140.6770   77.6080  222.3290 S   0  0  0  0  0  0  0  0  0  0  0  0
  141.8430   79.0080  222.3620 C   0  0  0  0  0  0  0  0  0  0  0  0
  142.0656   79.2753  223.4056 H   0  0  0  0  0  0  0  0  0  0  0  0
  142.7738   78.7221  221.8502 H   0  0  0  0  0  0  0  0  0  0  0  0
  141.3935   79.8717  221.8502 H   0  0  0  0  0  0  0  0  0  0  0  0
  139.5760   70.7450  223.8270 C   0  0  0  0  0  0  0  0  0  0  0  0
  140.1530   71.1720  224.9840 N   0  0  0  0  0  0  0  0  0  0  0  0
  140.2920   70.3620  226.0660 C   0  0  0  0  0  0  0  0  0  0  0  0
  140.9070   70.8400  227.2290 C   0  0  0  0  0  0  0  0  0  0  0  0
  141.2756   71.8756  227.2702 H   0  0  0  0  0  0  0  0  0  0  0  0
  141.0530   70.0010  228.3390 C   0  0  0  0  0  0  0  0  0  0  0  0
  141.5375   70.3780  229.2517 H   0  0  0  0  0  0  0  0  0  0  0  0
  140.5840   68.6830  228.2910 C   0  0  0  0  0  0  0  0  0  0  0  0
  140.7280   67.8760  229.3700 F   0  0  0  0  0  0  0  0  0  0  0  0
  139.9670   68.1980  227.1320 C   0  0  0  0  0  0  0  0  0  0  0  0
  139.5984   67.1622  227.0974 H   0  0  0  0  0  0  0  0  0  0  0  0
  139.8190   69.0320  226.0160 C   0  0  0  0  0  0  0  0  0  0  0  0
  139.2060   68.5780  224.8420 C   0  0  0  0  0  0  0  0  0  0  0  0
  138.8267   67.5472  224.7816 H   0  0  0  0  0  0  0  0  0  0  0  0
  139.0770   69.4360  223.7480 C   0  0  0  0  0  0  0  0  0  0  0  0
  138.5860   69.0870  222.8276 H   0  0  0  0  0  0  0  0  0  0  0  0
  1  2  1  0
  2  3  1  0
  3  4  2  0
  4  5  1  0
  5  6  1  0
  5  7  1  0
  5  8  1  0
  8  9  2  0
  8 10  1  0
 10 11  1  0
 11 12  1  0
 11 13  1  0
 11 14  1  0
 14 15  1  6
 14 16  1  0
 16 17  1  0
 14 18  1  0
 18 19  1  0
 18 20  1  0
 18 21  1  0
 21 22  1  1
 21 23  1  0
 23 24  1  0
 23 25  1  0
 23 26  1  0
 26 27  1  0
 27 28  1  0
 27 29  1  0
 27 30  1  0
  3 31  1  0
 31 32  2  0
 32 33  1  0
 33 34  2  0
 34 35  1  0
 34 36  1  0
 36 37  1  0
 36 38  2  0
 38 39  1  0
 38 40  1  0
 40 41  1  0
 40 42  2  0
 42 43  1  0
 43 44  1  0
 43 45  2  0
 45 46  1  0
 21 10  1  0
 45 31  1  0
 42 33  1  0
M  END
>  <UniqueID>  (49) 
7

>  <SMILES>  (49) 
CSC[C@@H]1C[C@@H](O)CN1C(=O)C/N=C(/O)c1ccc2cc(F)ccc2n1

>  <Energy>  (49) 
49.24922423896554

>  <Genealogy>  (49) 
CSC[C@@H]1C[C@@H](O)CN1C(=O)CN=C(O)c1ccc2cc(F)ccc2n1 (tautomer)
CSC[C@@H]1C[C@@H](O)CN1C(=O)C/N=C(/O)c1ccc2cc(F)ccc2n1 (cis-trans isomerization)
CSC[C@@H]1C[C@@H](O)CN1C(=O)C/N=C(/O)c1ccc2cc(F)ccc2n1 (3D coordinates assigned)
CSC[C@@H]1C[C@@H](O)CN1C(=O)C/N=C(/O)c1ccc2cc(F)ccc2n1 (nonaromatic ring conformer: 49.24922423896554 kcal/mol)

>  <smiles>  (49) 
CSC[C@@H]1C[C@@H](O)CN1C(=O)CNC(=O)c1ccc2cc(F)ccc2n1

>  <score_type>  (49) 
oracle

>  <origin>  (49) 
autodockgpu

>  <m_score__min__energy>  (49) 
-7.4699999999999998

>  <m_primary>  (49) 
energy

>  <meeko>  (49) 
{"free_energy": -6.73, "intermolecular_energy": -9.41, "internal_energy": -1.41, "cluster_size": 5, "cluster_id": 2, "rank_in_cluster": 5}

>  <energy>  (49) 
-7.22

>  <cluster_rmsd>  (49) 
0.74

>  <rmsd>  (49) 
272.24

>  <cluster>  (49) 
3

$$$$
JXJFNMZAUJJYED-HIWRTBCQNA-N
     RDKit          3D

 46 48  0  0  0  0  0  0  0  0999 V2000
  138.5960   75.1340  223.1120 H   0  0  0  0  0  0  0  0  0  0  0  0
  137.7460   75.5290  222.7260 O   0  0  0  0  0  0  0  0  0  0  0  0
  137.7760   76.6850  221.9500 C   0  0  0  0  0  0  0  0  0  0  0  0
  137.1310   76.6900  220.8140 N   0  0  0  0  0  0  0  0  0  0  0  0
  137.6010   77.1600  219.5110 C   0  0  0  0  0  0  0  0  0  0  0  0
  137.9889   78.1838  219.6176 H   0  0  0  0  0  0  0  0  0  0  0  0
  136.7561   77.1363  218.8070 H   0  0  0  0  0  0  0  0  0  0  0  0
  138.6930   76.2750  218.9740 C   0  0  0  0  0  0  0  0  0  0  0  0
  138.8350   76.1750  217.7250 O   0  0  0  0  0  0  0  0  0  0  0  0
  139.5620   75.5330  219.8530 N   0  0  0  0  0  0  0  0  0  0  0  0
  139.1660   74.3110  220.5370 C   0  0  0  0  0  0  0  0  0  0  0  0
  138.9321   73.5227  219.8063 H   0  0  0  0  0  0  0  0  0  0  0  0
  138.2654   74.4659  221.1494 H   0  0  0  0  0  0  0  0  0  0  0  0
  140.3610   73.9020  221.3940 C   0  0  2  0  0  0  0  0  0  0  0  0
  140.9067   73.0542  220.9542 H   0  0  0  0  0  0  0  0  0  0  0  0
  139.9400   73.4820  222.6650 O   0  0  0  0  0  0  0  0  0  0  0  0
  138.9900   73.7600  222.7520 H   0  0  0  0  0  0  0  0  0  0  0  0
  141.2500   75.1460  221.4870 C   0  0  0  0  0  0  0  0  0  0  0  0
  142.3111   74.8640  221.4193 H   0  0  0  0  0  0  0  0  0  0  0  0
  141.1135   75.6696  222.4447 H   0  0  0  0  0  0  0  0  0  0  0  0
  140.8570   76.0320  220.3000 C   0  0  1  0  0  0  0  0  0  0  0  0
  140.8086   77.0877  220.6051 H   0  0  0  0  0  0  0  0  0  0  0  0
  141.8980   76.0100  219.1610 C   0  0  0  0  0  0  0  0  0  0  0  0
  141.4189   75.6067  218.2567 H   0  0  0  0  0  0  0  0  0  0  0  0
  142.7379   75.3838  219.4964 H   0  0  0  0  0  0  0  0  0  0  0  0
  142.5750   77.6710  218.7720 S   0  0  0  0  0  0  0  0  0  0  0  0
  141.2730   78.6300  219.6140 C   0  0  0  0  0  0  0  0  0  0  0  0
  141.3968   78.5388  220.7032 H   0  0  0  0  0  0  0  0  0  0  0  0
  141.3510   79.6881  219.3234 H   0  0  0  0  0  0  0  0  0  0  0  0
  140.2857   78.2417  219.3234 H   0  0  0  0  0  0  0  0  0  0  0  0
  138.5560   77.8410  222.4490 C   0  0  0  0  0  0  0  0  0  0  0  0
  139.9140   77.7830  222.5160 N   0  0  0  0  0  0  0  0  0  0  0  0
  140.6630   78.8330  222.9460 C   0  0  0  0  0  0  0  0  0  0  0  0
  142.0570   78.7220  223.0130 C   0  0  0  0  0  0  0  0  0  0  0  0
  142.5494   77.7854  222.7125 H   0  0  0  0  0  0  0  0  0  0  0  0
  142.8230   79.8020  223.4620 C   0  0  0  0  0  0  0  0  0  0  0  0
  143.9181   79.7127  223.5154 H   0  0  0  0  0  0  0  0  0  0  0  0
  142.2010   80.9970  223.8440 C   0  0  0  0  0  0  0  0  0  0  0  0
  142.9500   82.0400  224.2770 F   0  0  0  0  0  0  0  0  0  0  0  0
  140.8080   81.1160  223.7790 C   0  0  0  0  0  0  0  0  0  0  0  0
  140.3214   82.0557  224.0793 H   0  0  0  0  0  0  0  0  0  0  0  0
  140.0330   80.0370  223.3310 C   0  0  0  0  0  0  0  0  0  0  0  0
  138.6380   80.1230  223.2540 C   0  0  0  0  0  0  0  0  0  0  0  0
  138.1260   81.0518  223.5457 H   0  0  0  0  0  0  0  0  0  0  0  0
  137.8980   79.0270  222.8060 C   0  0  0  0  0  0  0  0  0  0  0  0
  136.8024   79.0935  222.7333 H   0  0  0  0  0  0  0  0  0  0  0  0
  1  2  1  0
  2  3  1  0
  3  4  2  0
  4  5  1  0
  5  6  1  0
  5  7  1  0
  5  8  1  0
  8  9  2  0
  8 10  1  0
 10 11  1  0
 11 12  1  0
 11 13  1  0
 11 14  1  0
 14 15  1  6
 14 16  1  0
 16 17  1  0
 14 18  1  0
 18 19  1  0
 18 20  1  0
 18 21  1  0
 21 22  1  1
 21 23  1  0
 23 24  1  0
 23 25  1  0
 23 26  1  0
 26 27  1  0
 27 28  1  0
 27 29  1  0
 27 30  1  0
  3 31  1  0
 31 32  2  0
 32 33  1  0
 33 34  2  0
 34 35  1  0
 34 36  1  0
 36 37  1  0
 36 38  2  0
 38 39  1  0
 38 40  1  0
 40 41  1  0
 40 42  2  0
 42 43  1  0
 43 44  1  0
 43 45  2  0
 45 46  1  0
 21 10  1  0
 45 31  1  0
 42 33  1  0
M  END
>  <UniqueID>  (50) 
7

>  <SMILES>  (50) 
CSC[C@@H]1C[C@@H](O)CN1C(=O)C/N=C(/O)c1ccc2cc(F)ccc2n1

>  <Energy>  (50) 
49.24922423896554

>  <Genealogy>  (50) 
CSC[C@@H]1C[C@@H](O)CN1C(=O)CN=C(O)c1ccc2cc(F)ccc2n1 (tautomer)
CSC[C@@H]1C[C@@H](O)CN1C(=O)C/N=C(/O)c1ccc2cc(F)ccc2n1 (cis-trans isomerization)
CSC[C@@H]1C[C@@H](O)CN1C(=O)C/N=C(/O)c1ccc2cc(F)ccc2n1 (3D coordinates assigned)
CSC[C@@H]1C[C@@H](O)CN1C(=O)C/N=C(/O)c1ccc2cc(F)ccc2n1 (nonaromatic ring conformer: 49.24922423896554 kcal/mol)

>  <smiles>  (50) 
CSC[C@@H]1C[C@@H](O)CN1C(=O)CNC(=O)c1ccc2cc(F)ccc2n1

>  <score_type>  (50) 
oracle

>  <origin>  (50) 
autodockgpu

>  <m_score__min__energy>  (50) 
-7.4699999999999998

>  <m_primary>  (50) 
energy

>  <meeko>  (50) 
{"free_energy": -4.73, "intermolecular_energy": -7.42, "internal_energy": -3.16, "cluster_size": 3, "cluster_id": 5, "rank_in_cluster": 2}

>  <energy>  (50) 
-7.13

>  <cluster_rmsd>  (50) 
0.96

>  <rmsd>  (50) 
272.13

>  <cluster>  (50) 
3

$$$$
JXJFNMZAUJJYED-HIWRTBCQNA-N
     RDKit          3D

 46 48  0  0  0  0  0  0  0  0999 V2000
  138.8420   73.8160  223.0370 H   0  0  0  0  0  0  0  0  0  0  0  0
  139.5980   73.7220  222.3680 O   0  0  0  0  0  0  0  0  0  0  0  0
  140.4500   72.6210  222.3920 C   0  0  0  0  0  0  0  0  0  0  0  0
  141.3410   72.5010  221.4460 N   0  0  0  0  0  0  0  0  0  0  0  0
  141.1360   72.0760  220.0610 C   0  0  0  0  0  0  0  0  0  0  0  0
  141.3874   72.9100  219.3892 H   0  0  0  0  0  0  0  0  0  0  0  0
  140.0827   71.7829  219.9398 H   0  0  0  0  0  0  0  0  0  0  0  0
  142.0010   70.8930  219.7190 C   0  0  0  0  0  0  0  0  0  0  0  0
  141.4610   69.7600  219.5980 O   0  0  0  0  0  0  0  0  0  0  0  0
  143.4270   71.0260  219.5470 N   0  0  0  0  0  0  0  0  0  0  0  0
  144.1590   72.2580  219.8030 C   0  0  0  0  0  0  0  0  0  0  0  0
  144.0786   72.5371  220.8640 H   0  0  0  0  0  0  0  0  0  0  0  0
  143.7568   73.0958  219.2144 H   0  0  0  0  0  0  0  0  0  0  0  0
  145.6120   71.9660  219.4400 C   0  0  2  0  0  0  0  0  0  0  0  0
  146.2365   71.8289  220.3351 H   0  0  0  0  0  0  0  0  0  0  0  0
  146.1710   73.0400  218.7310 O   0  0  0  0  0  0  0  0  0  0  0  0
  145.8360   73.8680  219.1640 H   0  0  0  0  0  0  0  0  0  0  0  0
  145.5800   70.6940  218.5880 C   0  0  0  0  0  0  0  0  0  0  0  0
  146.4246   70.0385  218.8468 H   0  0  0  0  0  0  0  0  0  0  0  0
  145.6641   70.9235  217.5155 H   0  0  0  0  0  0  0  0  0  0  0  0
  144.2510   70.0050  218.9140 C   0  0  1  0  0  0  0  0  0  0  0  0
  143.7862   69.6102  217.9986 H   0  0  0  0  0  0  0  0  0  0  0  0
  144.4200   68.7680  219.8220 C   0  0  0  0  0  0  0  0  0  0  0  0
  143.6732   68.0149  219.5303 H   0  0  0  0  0  0  0  0  0  0  0  0
  144.2833   69.1024  220.8610 H   0  0  0  0  0  0  0  0  0  0  0  0
  146.0890   68.0120  219.7050 S   0  0  0  0  0  0  0  0  0  0  0  0
  145.5520   66.4310  218.9740 C   0  0  0  0  0  0  0  0  0  0  0  0
  145.3102   65.7191  219.7770 H   0  0  0  0  0  0  0  0  0  0  0  0
  144.6604   66.5987  218.3519 H   0  0  0  0  0  0  0  0  0  0  0  0
  146.3613   66.0210  218.3519 H   0  0  0  0  0  0  0  0  0  0  0  0
  140.2840   71.6340  223.4850 C   0  0  0  0  0  0  0  0  0  0  0  0
  140.7110   71.9190  224.7460 N   0  0  0  0  0  0  0  0  0  0  0  0
  140.5530   71.0470  225.7770 C   0  0  0  0  0  0  0  0  0  0  0  0
  141.0230   71.3770  227.0540 C   0  0  0  0  0  0  0  0  0  0  0  0
  141.5170   72.3448  227.2255 H   0  0  0  0  0  0  0  0  0  0  0  0
  140.8640   70.4750  228.1120 C   0  0  0  0  0  0  0  0  0  0  0  0
  141.2352   70.7343  229.1145 H   0  0  0  0  0  0  0  0  0  0  0  0
  140.2340   69.2440  227.8980 C   0  0  0  0  0  0  0  0  0  0  0  0
  140.0830   68.3750  228.9270 F   0  0  0  0  0  0  0  0  0  0  0  0
  139.7610   68.9080  226.6250 C   0  0  0  0  0  0  0  0  0  0  0  0
  139.2660   67.9396  226.4601 H   0  0  0  0  0  0  0  0  0  0  0  0
  139.9180   69.8060  225.5590 C   0  0  0  0  0  0  0  0  0  0  0  0
  139.4550   69.5010  224.2740 C   0  0  0  0  0  0  0  0  0  0  0  0
  138.9535   68.5409  224.0822 H   0  0  0  0  0  0  0  0  0  0  0  0
  139.6310   70.4180  223.2360 C   0  0  0  0  0  0  0  0  0  0  0  0
  139.2589   70.1876  222.2268 H   0  0  0  0  0  0  0  0  0  0  0  0
  1  2  1  0
  2  3  1  0
  3  4  2  0
  4  5  1  0
  5  6  1  0
  5  7  1  0
  5  8  1  0
  8  9  2  0
  8 10  1  0
 10 11  1  0
 11 12  1  0
 11 13  1  0
 11 14  1  0
 14 15  1  1
 14 16  1  0
 16 17  1  0
 14 18  1  0
 18 19  1  0
 18 20  1  0
 18 21  1  0
 21 22  1  6
 21 23  1  0
 23 24  1  0
 23 25  1  0
 23 26  1  0
 26 27  1  0
 27 28  1  0
 27 29  1  0
 27 30  1  0
  3 31  1  0
 31 32  2  0
 32 33  1  0
 33 34  2  0
 34 35  1  0
 34 36  1  0
 36 37  1  0
 36 38  2  0
 38 39  1  0
 38 40  1  0
 40 41  1  0
 40 42  2  0
 42 43  1  0
 43 44  1  0
 43 45  2  0
 45 46  1  0
 21 10  1  0
 45 31  1  0
 42 33  1  0
M  END
>  <UniqueID>  (51) 
7

>  <SMILES>  (51) 
CSC[C@@H]1C[C@@H](O)CN1C(=O)C/N=C(/O)c1ccc2cc(F)ccc2n1

>  <Energy>  (51) 
49.24922423896554

>  <Genealogy>  (51) 
CSC[C@@H]1C[C@@H](O)CN1C(=O)CN=C(O)c1ccc2cc(F)ccc2n1 (tautomer)
CSC[C@@H]1C[C@@H](O)CN1C(=O)C/N=C(/O)c1ccc2cc(F)ccc2n1 (cis-trans isomerization)
CSC[C@@H]1C[C@@H](O)CN1C(=O)C/N=C(/O)c1ccc2cc(F)ccc2n1 (3D coordinates assigned)
CSC[C@@H]1C[C@@H](O)CN1C(=O)C/N=C(/O)c1ccc2cc(F)ccc2n1 (nonaromatic ring conformer: 49.24922423896554 kcal/mol)

>  <smiles>  (51) 
CSC[C@@H]1C[C@@H](O)CN1C(=O)CNC(=O)c1ccc2cc(F)ccc2n1

>  <score_type>  (51) 
oracle

>  <origin>  (51) 
autodockgpu

>  <m_score__min__energy>  (51) 
-7.4699999999999998

>  <m_primary>  (51) 
energy

>  <meeko>  (51) 
{"free_energy": -7.47, "intermolecular_energy": -10.16, "internal_energy": -0.89, "cluster_size": 2, "cluster_id": 1, "rank_in_cluster": 1}

>  <energy>  (51) 
-7.11

>  <cluster_rmsd>  (51) 
0.43

>  <rmsd>  (51) 
272.06

>  <cluster>  (51) 
3

$$$$
JXJFNMZAUJJYED-HIWRTBCQNA-N
     RDKit          3D

 46 48  0  0  0  0  0  0  0  0999 V2000
  139.3150   74.2250  223.1150 H   0  0  0  0  0  0  0  0  0  0  0  0
  139.9000   73.7210  222.4580 O   0  0  0  0  0  0  0  0  0  0  0  0
  139.7340   72.3550  222.2460 C   0  0  0  0  0  0  0  0  0  0  0  0
  139.4710   71.9380  221.0370 N   0  0  0  0  0  0  0  0  0  0  0  0
  140.2760   72.1100  219.8270 C   0  0  0  0  0  0  0  0  0  0  0  0
  140.4517   73.1834  219.6627 H   0  0  0  0  0  0  0  0  0  0  0  0
  139.7282   71.6720  218.9796 H   0  0  0  0  0  0  0  0  0  0  0  0
  141.6020   71.4090  219.9500 C   0  0  0  0  0  0  0  0  0  0  0  0
  141.6170   70.1540  220.0670 O   0  0  0  0  0  0  0  0  0  0  0  0
  142.8440   72.1410  219.9530 N   0  0  0  0  0  0  0  0  0  0  0  0
  144.0310   71.7220  219.2220 C   0  0  0  0  0  0  0  0  0  0  0  0
  143.8304   71.7125  218.1405 H   0  0  0  0  0  0  0  0  0  0  0  0
  144.3406   70.7051  219.5051 H   0  0  0  0  0  0  0  0  0  0  0  0
  145.1120   72.7480  219.5520 C   0  0  2  0  0  0  0  0  0  0  0  0
  145.2812   73.4454  218.7183 H   0  0  0  0  0  0  0  0  0  0  0  0
  146.3410   72.1130  219.7900 O   0  0  0  0  0  0  0  0  0  0  0  0
  146.2440   71.6270  220.6500 H   0  0  0  0  0  0  0  0  0  0  0  0
  144.6170   73.4870  220.7990 C   0  0  0  0  0  0  0  0  0  0  0  0
  144.8469   74.5601  220.7246 H   0  0  0  0  0  0  0  0  0  0  0  0
  145.1051   73.1131  221.7111 H   0  0  0  0  0  0  0  0  0  0  0  0
  143.1010   73.2680  220.8410 C   0  0  1  0  0  0  0  0  0  0  0  0
  142.7686   73.0649  221.8697 H   0  0  0  0  0  0  0  0  0  0  0  0
  142.3000   74.5180  220.4190 C   0  0  0  0  0  0  0  0  0  0  0  0
  141.8085   74.9363  221.3098 H   0  0  0  0  0  0  0  0  0  0  0  0
  141.5716   74.2001  219.6585 H   0  0  0  0  0  0  0  0  0  0  0  0
  143.3480   75.8220  219.6630 S   0  0  0  0  0  0  0  0  0  0  0  0
  142.1820   77.2000  219.9150 C   0  0  0  0  0  0  0  0  0  0  0  0
  142.0401   77.3678  220.9928 H   0  0  0  0  0  0  0  0  0  0  0  0
  142.5868   78.1121  219.4521 H   0  0  0  0  0  0  0  0  0  0  0  0
  141.2155   76.9518  219.4521 H   0  0  0  0  0  0  0  0  0  0  0  0
  139.8460   71.4490  223.4130 C   0  0  0  0  0  0  0  0  0  0  0  0
  140.3320   71.9060  224.6010 N   0  0  0  0  0  0  0  0  0  0  0  0
  140.4270   71.1100  225.6980 C   0  0  0  0  0  0  0  0  0  0  0  0
  140.9490   71.6200  226.8930 C   0  0  0  0  0  0  0  0  0  0  0  0
  141.2794   72.6678  226.9464 H   0  0  0  0  0  0  0  0  0  0  0  0
  141.0500   70.7960  228.0190 C   0  0  0  0  0  0  0  0  0  0  0  0
  141.4615   71.1973  228.9569 H   0  0  0  0  0  0  0  0  0  0  0  0
  140.6290   69.4620  227.9560 C   0  0  0  0  0  0  0  0  0  0  0  0
  140.7300   68.6710  229.0510 F   0  0  0  0  0  0  0  0  0  0  0  0
  140.1060   68.9460  226.7650 C   0  0  0  0  0  0  0  0  0  0  0  0
  139.7757   67.8978  226.7179 H   0  0  0  0  0  0  0  0  0  0  0  0
  140.0030   69.7650  225.6320 C   0  0  0  0  0  0  0  0  0  0  0  0
  139.4840   69.2800  224.4260 C   0  0  0  0  0  0  0  0  0  0  0  0
  139.1445   68.2363  224.3523 H   0  0  0  0  0  0  0  0  0  0  0  0
  139.3980   70.1240  223.3160 C   0  0  0  0  0  0  0  0  0  0  0  0
  138.9803   69.7504  222.3694 H   0  0  0  0  0  0  0  0  0  0  0  0
  1  2  1  0
  2  3  1  0
  3  4  2  0
  4  5  1  0
  5  6  1  0
  5  7  1  0
  5  8  1  0
  8  9  2  0
  8 10  1  0
 10 11  1  0
 11 12  1  0
 11 13  1  0
 11 14  1  0
 14 15  1  6
 14 16  1  0
 16 17  1  0
 14 18  1  0
 18 19  1  0
 18 20  1  0
 18 21  1  0
 21 22  1  1
 21 23  1  0
 23 24  1  0
 23 25  1  0
 23 26  1  0
 26 27  1  0
 27 28  1  0
 27 29  1  0
 27 30  1  0
  3 31  1  0
 31 32  2  0
 32 33  1  0
 33 34  2  0
 34 35  1  0
 34 36  1  0
 36 37  1  0
 36 38  2  0
 38 39  1  0
 38 40  1  0
 40 41  1  0
 40 42  2  0
 42 43  1  0
 43 44  1  0
 43 45  2  0
 45 46  1  0
 21 10  1  0
 45 31  1  0
 42 33  1  0
M  END
>  <UniqueID>  (52) 
7

>  <SMILES>  (52) 
CSC[C@@H]1C[C@@H](O)CN1C(=O)C/N=C(/O)c1ccc2cc(F)ccc2n1

>  <Energy>  (52) 
49.24922423896554

>  <Genealogy>  (52) 
CSC[C@@H]1C[C@@H](O)CN1C(=O)CN=C(O)c1ccc2cc(F)ccc2n1 (tautomer)
CSC[C@@H]1C[C@@H](O)CN1C(=O)C/N=C(/O)c1ccc2cc(F)ccc2n1 (cis-trans isomerization)
CSC[C@@H]1C[C@@H](O)CN1C(=O)C/N=C(/O)c1ccc2cc(F)ccc2n1 (3D coordinates assigned)
CSC[C@@H]1C[C@@H](O)CN1C(=O)C/N=C(/O)c1ccc2cc(F)ccc2n1 (nonaromatic ring conformer: 49.24922423896554 kcal/mol)

>  <smiles>  (52) 
CSC[C@@H]1C[C@@H](O)CN1C(=O)CNC(=O)c1ccc2cc(F)ccc2n1

>  <score_type>  (52) 
oracle

>  <origin>  (52) 
autodockgpu

>  <m_score__min__energy>  (52) 
-7.4699999999999998

>  <m_primary>  (52) 
energy

>  <meeko>  (52) 
{"free_energy": -7.06, "intermolecular_energy": -9.74, "internal_energy": -1.17, "cluster_size": 9, "cluster_id": 3, "rank_in_cluster": 6}

>  <energy>  (52) 
-7.09

>  <cluster_rmsd>  (52) 
0.68

>  <rmsd>  (52) 
272.03

>  <cluster>  (52) 
3

$$$$
JXJFNMZAUJJYED-HIWRTBCQNA-N
     RDKit          3D

 46 48  0  0  0  0  0  0  0  0999 V2000
  139.1950   74.0960  223.0950 H   0  0  0  0  0  0  0  0  0  0  0  0
  139.9190   73.7540  222.4730 O   0  0  0  0  0  0  0  0  0  0  0  0
  140.0930   72.3910  222.2490 C   0  0  0  0  0  0  0  0  0  0  0  0
  140.2570   71.9760  221.0220 N   0  0  0  0  0  0  0  0  0  0  0  0
  140.3970   72.7810  219.8080 C   0  0  0  0  0  0  0  0  0  0  0  0
  140.4620   73.8429  220.0874 H   0  0  0  0  0  0  0  0  0  0  0  0
  139.5207   72.6007  219.1680 H   0  0  0  0  0  0  0  0  0  0  0  0
  141.6340   72.3990  219.0400 C   0  0  0  0  0  0  0  0  0  0  0  0
  141.5220   71.6200  218.0560 O   0  0  0  0  0  0  0  0  0  0  0  0
  142.9370   72.8900  219.4180 N   0  0  0  0  0  0  0  0  0  0  0  0
  144.1840   72.3660  218.8820 C   0  0  0  0  0  0  0  0  0  0  0  0
  144.2348   72.5362  217.7964 H   0  0  0  0  0  0  0  0  0  0  0  0
  144.2691   71.2817  219.0465 H   0  0  0  0  0  0  0  0  0  0  0  0
  145.3000   73.1280  219.5910 C   0  0  2  0  0  0  0  0  0  0  0  0
  145.7546   73.8878  218.9383 H   0  0  0  0  0  0  0  0  0  0  0  0
  146.3370   72.2570  219.9620 O   0  0  0  0  0  0  0  0  0  0  0  0
  146.0910   71.8910  220.8510 H   0  0  0  0  0  0  0  0  0  0  0  0
  144.6480   73.7710  220.8180 C   0  0  0  0  0  0  0  0  0  0  0  0
  145.0436   74.7855  220.9740 H   0  0  0  0  0  0  0  0  0  0  0  0
  144.8555   73.1969  221.7331 H   0  0  0  0  0  0  0  0  0  0  0  0
  143.1470   73.8250  220.5160 C   0  0  1  0  0  0  0  0  0  0  0  0
  142.5631   73.5516  221.4073 H   0  0  0  0  0  0  0  0  0  0  0  0
  142.6550   75.2430  220.1570 C   0  0  0  0  0  0  0  0  0  0  0  0
  142.9934   75.9392  220.9385 H   0  0  0  0  0  0  0  0  0  0  0  0
  141.5579   75.2020  220.0888 H   0  0  0  0  0  0  0  0  0  0  0  0
  143.2820   75.8340  218.5370 S   0  0  0  0  0  0  0  0  0  0  0  0
  142.5650   77.5070  218.6310 C   0  0  0  0  0  0  0  0  0  0  0  0
  142.4418   77.7944  219.6856 H   0  0  0  0  0  0  0  0  0  0  0  0
  143.2358   78.2220  218.1321 H   0  0  0  0  0  0  0  0  0  0  0  0
  141.5847   77.5144  218.1321 H   0  0  0  0  0  0  0  0  0  0  0  0
  140.0620   71.4820  223.4190 C   0  0  0  0  0  0  0  0  0  0  0  0
  140.5360   71.8920  224.6280 N   0  0  0  0  0  0  0  0  0  0  0  0
  140.5020   71.0930  225.7270 C   0  0  0  0  0  0  0  0  0  0  0  0
  141.0180   71.5520  226.9450 C   0  0  0  0  0  0  0  0  0  0  0  0
  141.4491   72.5616  227.0146 H   0  0  0  0  0  0  0  0  0  0  0  0
  140.9850   70.7260  228.0730 C   0  0  0  0  0  0  0  0  0  0  0  0
  141.3908   71.0876  229.0293 H   0  0  0  0  0  0  0  0  0  0  0  0
  140.4370   69.4400  227.9890 C   0  0  0  0  0  0  0  0  0  0  0  0
  140.4090   68.6450  229.0860 F   0  0  0  0  0  0  0  0  0  0  0  0
  139.9200   68.9750  226.7750 C   0  0  0  0  0  0  0  0  0  0  0  0
  139.4899   67.9646  226.7114 H   0  0  0  0  0  0  0  0  0  0  0  0
  139.9500   69.7970  225.6390 C   0  0  0  0  0  0  0  0  0  0  0  0
  139.4400   69.3620  224.4110 C   0  0  0  0  0  0  0  0  0  0  0  0
  139.0023   68.3569  224.3207 H   0  0  0  0  0  0  0  0  0  0  0  0
  139.4880   70.2070  223.3000 C   0  0  0  0  0  0  0  0  0  0  0  0
  139.0774   69.8743  222.3353 H   0  0  0  0  0  0  0  0  0  0  0  0
  1  2  1  0
  2  3  1  0
  3  4  2  0
  4  5  1  0
  5  6  1  0
  5  7  1  0
  5  8  1  0
  8  9  2  0
  8 10  1  0
 10 11  1  0
 11 12  1  0
 11 13  1  0
 11 14  1  0
 14 15  1  6
 14 16  1  0
 16 17  1  0
 14 18  1  0
 18 19  1  0
 18 20  1  0
 18 21  1  0
 21 22  1  1
 21 23  1  0
 23 24  1  0
 23 25  1  0
 23 26  1  0
 26 27  1  0
 27 28  1  0
 27 29  1  0
 27 30  1  0
  3 31  1  0
 31 32  2  0
 32 33  1  0
 33 34  2  0
 34 35  1  0
 34 36  1  0
 36 37  1  0
 36 38  2  0
 38 39  1  0
 38 40  1  0
 40 41  1  0
 40 42  2  0
 42 43  1  0
 43 44  1  0
 43 45  2  0
 45 46  1  0
 21 10  1  0
 45 31  1  0
 42 33  1  0
M  END
>  <UniqueID>  (53) 
7

>  <SMILES>  (53) 
CSC[C@@H]1C[C@@H](O)CN1C(=O)C/N=C(/O)c1ccc2cc(F)ccc2n1

>  <Energy>  (53) 
49.24922423896554

>  <Genealogy>  (53) 
CSC[C@@H]1C[C@@H](O)CN1C(=O)CN=C(O)c1ccc2cc(F)ccc2n1 (tautomer)
CSC[C@@H]1C[C@@H](O)CN1C(=O)C/N=C(/O)c1ccc2cc(F)ccc2n1 (cis-trans isomerization)
CSC[C@@H]1C[C@@H](O)CN1C(=O)C/N=C(/O)c1ccc2cc(F)ccc2n1 (3D coordinates assigned)
CSC[C@@H]1C[C@@H](O)CN1C(=O)C/N=C(/O)c1ccc2cc(F)ccc2n1 (nonaromatic ring conformer: 49.24922423896554 kcal/mol)

>  <smiles>  (53) 
CSC[C@@H]1C[C@@H](O)CN1C(=O)CNC(=O)c1ccc2cc(F)ccc2n1

>  <score_type>  (53) 
oracle

>  <origin>  (53) 
autodockgpu

>  <m_score__min__energy>  (53) 
-7.4699999999999998

>  <m_primary>  (53) 
energy

>  <meeko>  (53) 
{"free_energy": -7.09, "intermolecular_energy": -9.77, "internal_energy": -1.01, "cluster_size": 9, "cluster_id": 3, "rank_in_cluster": 5}

>  <energy>  (53) 
-7.06

>  <cluster_rmsd>  (53) 
1.03

>  <rmsd>  (53) 
272.1

>  <cluster>  (53) 
3

$$$$
JXJFNMZAUJJYED-HIWRTBCQNA-N
     RDKit          3D

 46 48  0  0  0  0  0  0  0  0999 V2000
  138.4740   73.3820  223.0390 H   0  0  0  0  0  0  0  0  0  0  0  0
  138.2590   72.4480  222.7090 O   0  0  0  0  0  0  0  0  0  0  0  0
  139.2510   71.4760  222.6030 C   0  0  0  0  0  0  0  0  0  0  0  0
  139.8980   71.3650  221.4740 N   0  0  0  0  0  0  0  0  0  0  0  0
  140.1830   72.4090  220.4900 C   0  0  0  0  0  0  0  0  0  0  0  0
  139.2408   72.7228  220.0169 H   0  0  0  0  0  0  0  0  0  0  0  0
  140.8767   72.0006  219.7403 H   0  0  0  0  0  0  0  0  0  0  0  0
  140.8300   73.6050  221.1360 C   0  0  0  0  0  0  0  0  0  0  0  0
  140.3590   74.0370  222.2230 O   0  0  0  0  0  0  0  0  0  0  0  0
  141.9570   74.2710  220.5310 N   0  0  0  0  0  0  0  0  0  0  0  0
  142.1140   75.7170  220.4920 C   0  0  0  0  0  0  0  0  0  0  0  0
  142.1919   76.1207  221.5123 H   0  0  0  0  0  0  0  0  0  0  0  0
  141.2509   76.2034  220.0141 H   0  0  0  0  0  0  0  0  0  0  0  0
  143.4030   75.9790  219.7180 C   0  0  2  0  0  0  0  0  0  0  0  0
  144.2283   76.2662  220.3861 H   0  0  0  0  0  0  0  0  0  0  0  0
  143.2350   77.0440  218.8200 O   0  0  0  0  0  0  0  0  0  0  0  0
  143.7480   77.8090  219.1920 H   0  0  0  0  0  0  0  0  0  0  0  0
  143.7160   74.6740  218.9790 C   0  0  0  0  0  0  0  0  0  0  0  0
  144.7972   74.4723  218.9996 H   0  0  0  0  0  0  0  0  0  0  0  0
  143.4155   74.7259  217.9221 H   0  0  0  0  0  0  0  0  0  0  0  0
  142.9540   73.5750  219.7280 C   0  0  1  0  0  0  0  0  0  0  0  0
  142.4937   72.8712  219.0189 H   0  0  0  0  0  0  0  0  0  0  0  0
  143.8720   72.6930  220.6010 C   0  0  0  0  0  0  0  0  0  0  0  0
  143.4982   71.6590  220.5685 H   0  0  0  0  0  0  0  0  0  0  0  0
  143.8516   73.1064  221.6202 H   0  0  0  0  0  0  0  0  0  0  0  0
  145.6210   72.7000  220.0420 S   0  0  0  0  0  0  0  0  0  0  0  0
  146.3160   73.4760  221.5370 C   0  0  0  0  0  0  0  0  0  0  0  0
  145.8882   72.9983  222.4307 H   0  0  0  0  0  0  0  0  0  0  0  0
  147.4087   73.3499  221.5414 H   0  0  0  0  0  0  0  0  0  0  0  0
  146.0706   74.5483  221.5414 H   0  0  0  0  0  0  0  0  0  0  0  0
  139.5020   70.6060  223.7760 C   0  0  0  0  0  0  0  0  0  0  0  0
  140.0620   71.1140  224.9080 N   0  0  0  0  0  0  0  0  0  0  0  0
  140.2850   70.3510  226.0100 C   0  0  0  0  0  0  0  0  0  0  0  0
  140.8780   70.9140  227.1470 C   0  0  0  0  0  0  0  0  0  0  0  0
  141.1603   71.9771  227.1511 H   0  0  0  0  0  0  0  0  0  0  0  0
  141.1110   70.1240  228.2770 C   0  0  0  0  0  0  0  0  0  0  0  0
  141.5786   70.5669  229.1687 H   0  0  0  0  0  0  0  0  0  0  0  0
  140.7510   68.7710  228.2770 C   0  0  0  0  0  0  0  0  0  0  0  0
  140.9790   68.0120  229.3770 F   0  0  0  0  0  0  0  0  0  0  0  0
  140.1570   68.2020  227.1460 C   0  0  0  0  0  0  0  0  0  0  0  0
  139.8749   67.1388  227.1490 H   0  0  0  0  0  0  0  0  0  0  0  0
  139.9210   68.9870  226.0080 C   0  0  0  0  0  0  0  0  0  0  0  0
  139.3280   68.4480  224.8600 C   0  0  0  0  0  0  0  0  0  0  0  0
  139.0337   67.3883  224.8371 H   0  0  0  0  0  0  0  0  0  0  0  0
  139.1110   69.2590  223.7440 C   0  0  0  0  0  0  0  0  0  0  0  0
  138.6354   68.8433  222.8434 H   0  0  0  0  0  0  0  0  0  0  0  0
  1  2  1  0
  2  3  1  0
  3  4  2  0
  4  5  1  0
  5  6  1  0
  5  7  1  0
  5  8  1  0
  8  9  2  0
  8 10  1  0
 10 11  1  0
 11 12  1  0
 11 13  1  0
 11 14  1  0
 14 15  1  1
 14 16  1  0
 16 17  1  0
 14 18  1  0
 18 19  1  0
 18 20  1  0
 18 21  1  0
 21 22  1  6
 21 23  1  0
 23 24  1  0
 23 25  1  0
 23 26  1  0
 26 27  1  0
 27 28  1  0
 27 29  1  0
 27 30  1  0
  3 31  1  0
 31 32  2  0
 32 33  1  0
 33 34  2  0
 34 35  1  0
 34 36  1  0
 36 37  1  0
 36 38  2  0
 38 39  1  0
 38 40  1  0
 40 41  1  0
 40 42  2  0
 42 43  1  0
 43 44  1  0
 43 45  2  0
 45 46  1  0
 21 10  1  0
 45 31  1  0
 42 33  1  0
M  END
>  <UniqueID>  (54) 
7

>  <SMILES>  (54) 
CSC[C@@H]1C[C@@H](O)CN1C(=O)C/N=C(/O)c1ccc2cc(F)ccc2n1

>  <Energy>  (54) 
49.24922423896554

>  <Genealogy>  (54) 
CSC[C@@H]1C[C@@H](O)CN1C(=O)CN=C(O)c1ccc2cc(F)ccc2n1 (tautomer)
CSC[C@@H]1C[C@@H](O)CN1C(=O)C/N=C(/O)c1ccc2cc(F)ccc2n1 (cis-trans isomerization)
CSC[C@@H]1C[C@@H](O)CN1C(=O)C/N=C(/O)c1ccc2cc(F)ccc2n1 (3D coordinates assigned)
CSC[C@@H]1C[C@@H](O)CN1C(=O)C/N=C(/O)c1ccc2cc(F)ccc2n1 (nonaromatic ring conformer: 49.24922423896554 kcal/mol)

>  <smiles>  (54) 
CSC[C@@H]1C[C@@H](O)CN1C(=O)CNC(=O)c1ccc2cc(F)ccc2n1

>  <score_type>  (54) 
oracle

>  <origin>  (54) 
autodockgpu

>  <m_score__min__energy>  (54) 
-7.4699999999999998

>  <m_primary>  (54) 
energy

>  <meeko>  (54) 
{"free_energy": -7.35, "intermolecular_energy": -10.03, "internal_energy": -1.43, "cluster_size": 5, "cluster_id": 2, "rank_in_cluster": 3}

>  <energy>  (54) 
-7.05

>  <cluster_rmsd>  (54) 
0.67

>  <rmsd>  (54) 
272.03

>  <cluster>  (54) 
3

$$$$
JXJFNMZAUJJYED-HIWRTBCQNA-N
     RDKit          3D

 46 48  0  0  0  0  0  0  0  0999 V2000
  138.7200   74.3940  223.0030 H   0  0  0  0  0  0  0  0  0  0  0  0
  138.2440   75.1560  222.5340 O   0  0  0  0  0  0  0  0  0  0  0  0
  138.9360   76.0390  221.7080 C   0  0  0  0  0  0  0  0  0  0  0  0
  139.1550   75.6920  220.4680 N   0  0  0  0  0  0  0  0  0  0  0  0
  139.7970   74.4750  219.9710 C   0  0  0  0  0  0  0  0  0  0  0  0
  140.2727   74.6902  219.0028 H   0  0  0  0  0  0  0  0  0  0  0  0
  139.0282   73.6959  219.8612 H   0  0  0  0  0  0  0  0  0  0  0  0
  140.8440   73.9790  220.9330 C   0  0  0  0  0  0  0  0  0  0  0  0
  140.4810   73.5720  222.0690 O   0  0  0  0  0  0  0  0  0  0  0  0
  142.2440   73.9770  220.5870 N   0  0  0  0  0  0  0  0  0  0  0  0
  143.1360   72.8540  220.8350 C   0  0  0  0  0  0  0  0  0  0  0  0
  142.8082   71.9724  220.2646 H   0  0  0  0  0  0  0  0  0  0  0  0
  143.1416   72.5713  221.8981 H   0  0  0  0  0  0  0  0  0  0  0  0
  144.5180   73.3030  220.3690 C   0  0  2  0  0  0  0  0  0  0  0  0
  144.7926   72.8456  219.4070 H   0  0  0  0  0  0  0  0  0  0  0  0
  145.5040   72.9090  221.2870 O   0  0  0  0  0  0  0  0  0  0  0  0
  145.2380   72.0110  221.6160 H   0  0  0  0  0  0  0  0  0  0  0  0
  144.4420   74.8290  220.2560 C   0  0  0  0  0  0  0  0  0  0  0  0
  144.9881   75.1745  219.3658 H   0  0  0  0  0  0  0  0  0  0  0  0
  144.8969   75.3219  221.1279 H   0  0  0  0  0  0  0  0  0  0  0  0
  142.9520   75.1670  220.1320 C   0  0  1  0  0  0  0  0  0  0  0  0
  142.7035   76.0507  220.7381 H   0  0  0  0  0  0  0  0  0  0  0  0
  142.5410   75.5600  218.6970 C   0  0  0  0  0  0  0  0  0  0  0  0
  141.4591   75.3957  218.5853 H   0  0  0  0  0  0  0  0  0  0  0  0
  143.1260   74.9356  218.0056 H   0  0  0  0  0  0  0  0  0  0  0  0
  142.9100   77.3130  218.2970 S   0  0  0  0  0  0  0  0  0  0  0  0
  141.6430   78.0470  219.3820 C   0  0  0  0  0  0  0  0  0  0  0  0
  141.9224   77.8852  220.4336 H   0  0  0  0  0  0  0  0  0  0  0  0
  141.5712   79.1266  219.1837 H   0  0  0  0  0  0  0  0  0  0  0  0
  140.6707   77.5723  219.1837 H   0  0  0  0  0  0  0  0  0  0  0  0
  139.4020   77.3190  222.2900 C   0  0  0  0  0  0  0  0  0  0  0  0
  140.7290   77.6230  222.3240 N   0  0  0  0  0  0  0  0  0  0  0  0
  141.1900   78.7970  222.8290 C   0  0  0  0  0  0  0  0  0  0  0  0
  142.5640   79.0590  222.8580 C   0  0  0  0  0  0  0  0  0  0  0  0
  143.2740   78.3149  222.4679 H   0  0  0  0  0  0  0  0  0  0  0  0
  143.0350   80.2670  223.3830 C   0  0  0  0  0  0  0  0  0  0  0  0
  144.1157   80.4708  223.4060 H   0  0  0  0  0  0  0  0  0  0  0  0
  142.1350   81.2170  223.8790 C   0  0  0  0  0  0  0  0  0  0  0  0
  142.5990   82.3850  224.3860 F   0  0  0  0  0  0  0  0  0  0  0  0
  140.7590   80.9630  223.8530 C   0  0  0  0  0  0  0  0  0  0  0  0
  140.0537   81.7114  224.2434 H   0  0  0  0  0  0  0  0  0  0  0  0
  140.2800   79.7540  223.3290 C   0  0  0  0  0  0  0  0  0  0  0  0
  138.9100   79.4700  223.2880 C   0  0  0  0  0  0  0  0  0  0  0  0
  138.1833   80.2023  223.6697 H   0  0  0  0  0  0  0  0  0  0  0  0
  138.4680   78.2540  222.7610 C   0  0  0  0  0  0  0  0  0  0  0  0
  137.3919   78.0305  222.7155 H   0  0  0  0  0  0  0  0  0  0  0  0
  1  2  1  0
  2  3  1  0
  3  4  2  0
  4  5  1  0
  5  6  1  0
  5  7  1  0
  5  8  1  0
  8  9  2  0
  8 10  1  0
 10 11  1  0
 11 12  1  0
 11 13  1  0
 11 14  1  0
 14 15  1  6
 14 16  1  0
 16 17  1  0
 14 18  1  0
 18 19  1  0
 18 20  1  0
 18 21  1  0
 21 22  1  1
 21 23  1  0
 23 24  1  0
 23 25  1  0
 23 26  1  0
 26 27  1  0
 27 28  1  0
 27 29  1  0
 27 30  1  0
  3 31  1  0
 31 32  2  0
 32 33  1  0
 33 34  2  0
 34 35  1  0
 34 36  1  0
 36 37  1  0
 36 38  2  0
 38 39  1  0
 38 40  1  0
 40 41  1  0
 40 42  2  0
 42 43  1  0
 43 44  1  0
 43 45  2  0
 45 46  1  0
 21 10  1  0
 45 31  1  0
 42 33  1  0
M  END
>  <UniqueID>  (55) 
7

>  <SMILES>  (55) 
CSC[C@@H]1C[C@@H](O)CN1C(=O)C/N=C(/O)c1ccc2cc(F)ccc2n1

>  <Energy>  (55) 
49.24922423896554

>  <Genealogy>  (55) 
CSC[C@@H]1C[C@@H](O)CN1C(=O)CN=C(O)c1ccc2cc(F)ccc2n1 (tautomer)
CSC[C@@H]1C[C@@H](O)CN1C(=O)C/N=C(/O)c1ccc2cc(F)ccc2n1 (cis-trans isomerization)
CSC[C@@H]1C[C@@H](O)CN1C(=O)C/N=C(/O)c1ccc2cc(F)ccc2n1 (3D coordinates assigned)
CSC[C@@H]1C[C@@H](O)CN1C(=O)C/N=C(/O)c1ccc2cc(F)ccc2n1 (nonaromatic ring conformer: 49.24922423896554 kcal/mol)

>  <smiles>  (55) 
CSC[C@@H]1C[C@@H](O)CN1C(=O)CNC(=O)c1ccc2cc(F)ccc2n1

>  <score_type>  (55) 
oracle

>  <origin>  (55) 
autodockgpu

>  <m_score__min__energy>  (55) 
-7.4699999999999998

>  <m_primary>  (55) 
energy

>  <meeko>  (55) 
{"free_energy": -6.17, "intermolecular_energy": -8.85, "internal_energy": -2.06, "cluster_size": 3, "cluster_id": 5, "rank_in_cluster": 1}

>  <energy>  (55) 
-6.9

>  <cluster_rmsd>  (55) 
1.22

>  <rmsd>  (55) 
272.32

>  <cluster>  (55) 
3

$$$$
JXJFNMZAUJJYED-HIWRTBCQNA-N
     RDKit          3D

 46 48  0  0  0  0  0  0  0  0999 V2000
  139.2170   71.8650  220.1980 H   0  0  0  0  0  0  0  0  0  0  0  0
  138.8710   71.8010  221.1480 O   0  0  0  0  0  0  0  0  0  0  0  0
  139.6200   72.2740  222.2220 C   0  0  0  0  0  0  0  0  0  0  0  0
  140.1610   73.4590  222.1310 N   0  0  0  0  0  0  0  0  0  0  0  0
  141.4670   73.8150  221.5760 C   0  0  0  0  0  0  0  0  0  0  0  0
  142.2435   73.6135  222.3287 H   0  0  0  0  0  0  0  0  0  0  0  0
  141.4523   74.8820  221.3090 H   0  0  0  0  0  0  0  0  0  0  0  0
  141.7680   73.0180  220.3350 C   0  0  0  0  0  0  0  0  0  0  0  0
  140.8200   72.7220  219.5590 O   0  0  0  0  0  0  0  0  0  0  0  0
  143.1070   72.5770  220.0300 N   0  0  0  0  0  0  0  0  0  0  0  0
  144.3060   73.2840  220.4520 C   0  0  0  0  0  0  0  0  0  0  0  0
  144.3699   73.3067  221.5499 H   0  0  0  0  0  0  0  0  0  0  0  0
  144.3020   74.3275  220.1040 H   0  0  0  0  0  0  0  0  0  0  0  0
  145.4820   72.5040  219.8680 C   0  0  2  0  0  0  0  0  0  0  0  0
  145.9969   71.9069  220.6350 H   0  0  0  0  0  0  0  0  0  0  0  0
  146.4440   73.3780  219.3400 O   0  0  0  0  0  0  0  0  0  0  0  0
  145.9600   74.2060  219.0820 H   0  0  0  0  0  0  0  0  0  0  0  0
  144.8850   71.6090  218.7770 C   0  0  0  0  0  0  0  0  0  0  0  0
  145.3617   70.6178  218.7918 H   0  0  0  0  0  0  0  0  0  0  0  0
  145.0460   72.0319  217.7744 H   0  0  0  0  0  0  0  0  0  0  0  0
  143.3930   71.4880  219.1040 C   0  0  1  0  0  0  0  0  0  0  0  0
  142.7892   71.5582  218.1872 H   0  0  0  0  0  0  0  0  0  0  0  0
  143.0180   70.1170  219.7060 C   0  0  0  0  0  0  0  0  0  0  0  0
  142.2014   69.6842  219.1094 H   0  0  0  0  0  0  0  0  0  0  0  0
  142.7189   70.2881  220.7506 H   0  0  0  0  0  0  0  0  0  0  0  0
  144.4200   68.9310  219.7250 S   0  0  0  0  0  0  0  0  0  0  0  0
  143.5250   67.5370  218.9660 C   0  0  0  0  0  0  0  0  0  0  0  0
  143.1115   66.8930  219.7561 H   0  0  0  0  0  0  0  0  0  0  0  0
  142.7058   67.9235  218.3419 H   0  0  0  0  0  0  0  0  0  0  0  0
  144.2174   66.9530  218.3419 H   0  0  0  0  0  0  0  0  0  0  0  0
  139.7760   71.3960  223.4050 C   0  0  0  0  0  0  0  0  0  0  0  0
  140.2680   71.8890  224.5740 N   0  0  0  0  0  0  0  0  0  0  0  0
  140.4020   71.1170  225.6850 C   0  0  0  0  0  0  0  0  0  0  0  0
  140.9290   71.6640  226.8620 C   0  0  0  0  0  0  0  0  0  0  0  0
  141.2318   72.7211  226.8899 H   0  0  0  0  0  0  0  0  0  0  0  0
  141.0700   70.8660  228.0010 C   0  0  0  0  0  0  0  0  0  0  0  0
  141.4840   71.2969  228.9246 H   0  0  0  0  0  0  0  0  0  0  0  0
  140.6860   69.5200  227.9700 C   0  0  0  0  0  0  0  0  0  0  0  0
  140.8260   68.7530  229.0780 F   0  0  0  0  0  0  0  0  0  0  0  0
  140.1580   68.9660  226.7980 C   0  0  0  0  0  0  0  0  0  0  0  0
  139.8563   67.9084  226.7764 H   0  0  0  0  0  0  0  0  0  0  0  0
  140.0140   69.7600  225.6520 C   0  0  0  0  0  0  0  0  0  0  0  0
  139.4890   69.2370  224.4640 C   0  0  0  0  0  0  0  0  0  0  0  0
  139.1766   68.1834  224.4159 H   0  0  0  0  0  0  0  0  0  0  0  0
  139.3630   70.0570  223.3400 C   0  0  0  0  0  0  0  0  0  0  0  0
  138.9414   69.6541  222.4073 H   0  0  0  0  0  0  0  0  0  0  0  0
  1  2  1  0
  2  3  1  0
  3  4  2  0
  4  5  1  0
  5  6  1  0
  5  7  1  0
  5  8  1  0
  8  9  2  0
  8 10  1  0
 10 11  1  0
 11 12  1  0
 11 13  1  0
 11 14  1  0
 14 15  1  1
 14 16  1  0
 16 17  1  0
 14 18  1  0
 18 19  1  0
 18 20  1  0
 18 21  1  0
 21 22  1  6
 21 23  1  0
 23 24  1  0
 23 25  1  0
 23 26  1  0
 26 27  1  0
 27 28  1  0
 27 29  1  0
 27 30  1  0
  3 31  1  0
 31 32  2  0
 32 33  1  0
 33 34  2  0
 34 35  1  0
 34 36  1  0
 36 37  1  0
 36 38  2  0
 38 39  1  0
 38 40  1  0
 40 41  1  0
 40 42  2  0
 42 43  1  0
 43 44  1  0
 43 45  2  0
 45 46  1  0
 21 10  1  0
 45 31  1  0
 42 33  1  0
M  END
>  <UniqueID>  (56) 
7

>  <SMILES>  (56) 
CSC[C@@H]1C[C@@H](O)CN1C(=O)C/N=C(/O)c1ccc2cc(F)ccc2n1

>  <Energy>  (56) 
49.24922423896554

>  <Genealogy>  (56) 
CSC[C@@H]1C[C@@H](O)CN1C(=O)CN=C(O)c1ccc2cc(F)ccc2n1 (tautomer)
CSC[C@@H]1C[C@@H](O)CN1C(=O)C/N=C(/O)c1ccc2cc(F)ccc2n1 (cis-trans isomerization)
CSC[C@@H]1C[C@@H](O)CN1C(=O)C/N=C(/O)c1ccc2cc(F)ccc2n1 (3D coordinates assigned)
CSC[C@@H]1C[C@@H](O)CN1C(=O)C/N=C(/O)c1ccc2cc(F)ccc2n1 (nonaromatic ring conformer: 49.24922423896554 kcal/mol)

>  <smiles>  (56) 
CSC[C@@H]1C[C@@H](O)CN1C(=O)CNC(=O)c1ccc2cc(F)ccc2n1

>  <score_type>  (56) 
oracle

>  <origin>  (56) 
autodockgpu

>  <m_score__min__energy>  (56) 
-7.4699999999999998

>  <m_primary>  (56) 
energy

>  <meeko>  (56) 
{"free_energy": -6.3, "intermolecular_energy": -8.98, "internal_energy": -1.59, "cluster_size": 2, "cluster_id": 1, "rank_in_cluster": 2}

>  <energy>  (56) 
-6.72

>  <cluster_rmsd>  (56) 
1.56

>  <rmsd>  (56) 
272.28

>  <cluster>  (56) 
3

$$$$
JXJFNMZAUJJYED-HIWRTBCQNA-N
     RDKit          3D

 46 48  0  0  0  0  0  0  0  0999 V2000
  139.2300   73.8630  223.0300 H   0  0  0  0  0  0  0  0  0  0  0  0
  139.9440   73.6200  222.3530 O   0  0  0  0  0  0  0  0  0  0  0  0
  140.5510   72.3660  222.3650 C   0  0  0  0  0  0  0  0  0  0  0  0
  141.2800   72.0170  221.3400 N   0  0  0  0  0  0  0  0  0  0  0  0
  140.9940   72.2130  219.9190 C   0  0  0  0  0  0  0  0  0  0  0  0
  139.9128   72.3682  219.7890 H   0  0  0  0  0  0  0  0  0  0  0  0
  141.3270   71.3193  219.3708 H   0  0  0  0  0  0  0  0  0  0  0  0
  141.7300   73.4070  219.3740 C   0  0  0  0  0  0  0  0  0  0  0  0
  141.0780   74.2940  218.7580 O   0  0  0  0  0  0  0  0  0  0  0  0
  143.1570   73.5470  219.5260 N   0  0  0  0  0  0  0  0  0  0  0  0
  144.1200   72.5680  219.0440 C   0  0  0  0  0  0  0  0  0  0  0  0
  144.0629   72.4828  217.9488 H   0  0  0  0  0  0  0  0  0  0  0  0
  143.9214   71.5690  219.4595 H   0  0  0  0  0  0  0  0  0  0  0  0
  145.4930   73.0860  219.4650 C   0  0  2  0  0  0  0  0  0  0  0  0
  146.0446   73.5178  218.6169 H   0  0  0  0  0  0  0  0  0  0  0  0
  146.2870   72.0390  219.9590 O   0  0  0  0  0  0  0  0  0  0  0  0
  145.9860   71.8740  220.8900 H   0  0  0  0  0  0  0  0  0  0  0  0
  145.2260   74.1390  220.5450 C   0  0  0  0  0  0  0  0  0  0  0  0
  145.9063   74.9946  220.4220 H   0  0  0  0  0  0  0  0  0  0  0  0
  145.3926   73.7345  221.5543 H   0  0  0  0  0  0  0  0  0  0  0  0
  143.7720   74.5810  220.3480 C   0  0  1  0  0  0  0  0  0  0  0  0
  143.2662   74.6891  221.3188 H   0  0  0  0  0  0  0  0  0  0  0  0
  143.6500   75.9740  219.6940 C   0  0  0  0  0  0  0  0  0  0  0  0
  143.7065   75.8544  218.6020 H   0  0  0  0  0  0  0  0  0  0  0  0
  144.4721   76.5926  220.0833 H   0  0  0  0  0  0  0  0  0  0  0  0
  142.0780   76.8280  220.1080 S   0  0  0  0  0  0  0  0  0  0  0  0
  142.2110   78.1350  218.8440 C   0  0  0  0  0  0  0  0  0  0  0  0
  142.3105   79.1132  219.3371 H   0  0  0  0  0  0  0  0  0  0  0  0
  143.0949   77.9493  218.2161 H   0  0  0  0  0  0  0  0  0  0  0  0
  141.3078   78.1311  218.2161 H   0  0  0  0  0  0  0  0  0  0  0  0
  140.3180   71.4890  223.5360 C   0  0  0  0  0  0  0  0  0  0  0  0
  140.7210   71.8710  224.7790 N   0  0  0  0  0  0  0  0  0  0  0  0
  140.5030   71.1030  225.8790 C   0  0  0  0  0  0  0  0  0  0  0  0
  140.9510   71.5290  227.1350 C   0  0  0  0  0  0  0  0  0  0  0  0
  141.4778   72.4895  227.2342 H   0  0  0  0  0  0  0  0  0  0  0  0
  140.7290   70.7340  228.2630 C   0  0  0  0  0  0  0  0  0  0  0  0
  141.0825   71.0702  229.2489 H   0  0  0  0  0  0  0  0  0  0  0  0
  140.0580   69.5110  228.1420 C   0  0  0  0  0  0  0  0  0  0  0  0
  139.8460   68.7460  229.2400 F   0  0  0  0  0  0  0  0  0  0  0  0
  139.6060   69.0780  226.8900 C   0  0  0  0  0  0  0  0  0  0  0  0
  139.0786   68.1171  226.7973 H   0  0  0  0  0  0  0  0  0  0  0  0
  139.8260   69.8700  225.7540 C   0  0  0  0  0  0  0  0  0  0  0  0
  139.3870   69.4670  224.4880 C   0  0  0  0  0  0  0  0  0  0  0  0
  138.8545   68.5120  224.3677 H   0  0  0  0  0  0  0  0  0  0  0  0
  139.6260   70.2790  223.3780 C   0  0  0  0  0  0  0  0  0  0  0  0
  139.2729   69.9711  222.3828 H   0  0  0  0  0  0  0  0  0  0  0  0
  1  2  1  0
  2  3  1  0
  3  4  2  0
  4  5  1  0
  5  6  1  0
  5  7  1  0
  5  8  1  0
  8  9  2  0
  8 10  1  0
 10 11  1  0
 11 12  1  0
 11 13  1  0
 11 14  1  0
 14 15  1  6
 14 16  1  0
 16 17  1  0
 14 18  1  0
 18 19  1  0
 18 20  1  0
 18 21  1  0
 21 22  1  1
 21 23  1  0
 23 24  1  0
 23 25  1  0
 23 26  1  0
 26 27  1  0
 27 28  1  0
 27 29  1  0
 27 30  1  0
  3 31  1  0
 31 32  2  0
 32 33  1  0
 33 34  2  0
 34 35  1  0
 34 36  1  0
 36 37  1  0
 36 38  2  0
 38 39  1  0
 38 40  1  0
 40 41  1  0
 40 42  2  0
 42 43  1  0
 43 44  1  0
 43 45  2  0
 45 46  1  0
 21 10  1  0
 45 31  1  0
 42 33  1  0
M  END
>  <UniqueID>  (57) 
7

>  <SMILES>  (57) 
CSC[C@@H]1C[C@@H](O)CN1C(=O)C/N=C(/O)c1ccc2cc(F)ccc2n1

>  <Energy>  (57) 
49.24922423896554

>  <Genealogy>  (57) 
CSC[C@@H]1C[C@@H](O)CN1C(=O)CN=C(O)c1ccc2cc(F)ccc2n1 (tautomer)
CSC[C@@H]1C[C@@H](O)CN1C(=O)C/N=C(/O)c1ccc2cc(F)ccc2n1 (cis-trans isomerization)
CSC[C@@H]1C[C@@H](O)CN1C(=O)C/N=C(/O)c1ccc2cc(F)ccc2n1 (3D coordinates assigned)
CSC[C@@H]1C[C@@H](O)CN1C(=O)C/N=C(/O)c1ccc2cc(F)ccc2n1 (nonaromatic ring conformer: 49.24922423896554 kcal/mol)

>  <smiles>  (57) 
CSC[C@@H]1C[C@@H](O)CN1C(=O)CNC(=O)c1ccc2cc(F)ccc2n1

>  <score_type>  (57) 
oracle

>  <origin>  (57) 
autodockgpu

>  <m_score__min__energy>  (57) 
-7.4699999999999998

>  <m_primary>  (57) 
energy

>  <meeko>  (57) 
{"free_energy": -7.22, "intermolecular_energy": -9.9, "internal_energy": -0.93, "cluster_size": 9, "cluster_id": 3, "rank_in_cluster": 2}

>  <energy>  (57) 
-6.74

>  <cluster_rmsd>  (57) 
0.0

>  <rmsd>  (57) 
272.64

>  <cluster>  (57) 
4

$$$$
JXJFNMZAUJJYED-HIWRTBCQNA-N
     RDKit          3D

 46 48  0  0  0  0  0  0  0  0999 V2000
  138.7290   73.8750  222.8590 H   0  0  0  0  0  0  0  0  0  0  0  0
  138.6650   72.9970  222.3580 O   0  0  0  0  0  0  0  0  0  0  0  0
  139.7090   72.0750  222.3830 C   0  0  0  0  0  0  0  0  0  0  0  0
  140.5540   72.0630  221.3880 N   0  0  0  0  0  0  0  0  0  0  0  0
  141.7450   72.8930  221.2050 C   0  0  0  0  0  0  0  0  0  0  0  0
  142.2013   72.6559  220.2326 H   0  0  0  0  0  0  0  0  0  0  0  0
  142.4463   72.6806  222.0254 H   0  0  0  0  0  0  0  0  0  0  0  0
  141.4000   74.3580  221.2410 C   0  0  0  0  0  0  0  0  0  0  0  0
  140.5240   74.7560  222.0550 O   0  0  0  0  0  0  0  0  0  0  0  0
  142.0350   75.3040  220.3570 N   0  0  0  0  0  0  0  0  0  0  0  0
  141.4600   76.5940  220.0060 C   0  0  0  0  0  0  0  0  0  0  0  0
  141.3597   77.2241  220.9020 H   0  0  0  0  0  0  0  0  0  0  0  0
  140.4557   76.4824  219.5714 H   0  0  0  0  0  0  0  0  0  0  0  0
  142.4300   77.2320  219.0150 C   0  0  2  0  0  0  0  0  0  0  0  0
  143.0274   78.0281  219.4833 H   0  0  0  0  0  0  0  0  0  0  0  0
  141.7330   77.8350  217.9570 O   0  0  0  0  0  0  0  0  0  0  0  0
  141.1650   78.5420  218.3620 H   0  0  0  0  0  0  0  0  0  0  0  0
  143.3220   76.0910  218.5150 C   0  0  0  0  0  0  0  0  0  0  0  0
  144.3628   76.4334  218.4175 H   0  0  0  0  0  0  0  0  0  0  0  0
  143.0037   75.7334  217.5247 H   0  0  0  0  0  0  0  0  0  0  0  0
  143.2210   74.9860  219.5720 C   0  0  1  0  0  0  0  0  0  0  0  0
  143.1443   73.9985  219.0936 H   0  0  0  0  0  0  0  0  0  0  0  0
  144.4800   74.8860  220.4590 C   0  0  0  0  0  0  0  0  0  0  0  0
  144.1652   74.8667  221.5128 H   0  0  0  0  0  0  0  0  0  0  0  0
  145.1103   75.7588  220.2333 H   0  0  0  0  0  0  0  0  0  0  0  0
  145.4820   73.3850  220.1210 S   0  0  0  0  0  0  0  0  0  0  0  0
  146.3980   73.3850  221.6960 C   0  0  0  0  0  0  0  0  0  0  0  0
  146.5823   72.3479  222.0130 H   0  0  0  0  0  0  0  0  0  0  0  0
  147.3587   73.9035  221.5614 H   0  0  0  0  0  0  0  0  0  0  0  0
  145.8059   73.9035  222.4645 H   0  0  0  0  0  0  0  0  0  0  0  0
  139.7900   71.1440  223.5320 C   0  0  0  0  0  0  0  0  0  0  0  0
  140.3380   71.5460  224.7120 N   0  0  0  0  0  0  0  0  0  0  0  0
  140.4080   70.7260  225.7940 C   0  0  0  0  0  0  0  0  0  0  0  0
  140.9960   71.1770  226.9810 C   0  0  0  0  0  0  0  0  0  0  0  0
  141.4000   72.1983  227.0412 H   0  0  0  0  0  0  0  0  0  0  0  0
  141.0700   70.3290  228.0910 C   0  0  0  0  0  0  0  0  0  0  0  0
  141.5340   70.6844  229.0229 H   0  0  0  0  0  0  0  0  0  0  0  0
  140.5550   69.0290  228.0190 C   0  0  0  0  0  0  0  0  0  0  0  0
  140.6300   68.2130  229.0980 F   0  0  0  0  0  0  0  0  0  0  0  0
  139.9650   68.5710  226.8360 C   0  0  0  0  0  0  0  0  0  0  0  0
  139.5610   67.5493  226.7822 H   0  0  0  0  0  0  0  0  0  0  0  0
  139.8890   69.4150  225.7190 C   0  0  0  0  0  0  0  0  0  0  0  0
  139.3040   68.9880  224.5210 C   0  0  0  0  0  0  0  0  0  0  0  0
  138.8902   67.9719  224.4409 H   0  0  0  0  0  0  0  0  0  0  0  0
  139.2470   69.8550  223.4280 C   0  0  0  0  0  0  0  0  0  0  0  0
  138.7777   69.5281  222.4883 H   0  0  0  0  0  0  0  0  0  0  0  0
  1  2  1  0
  2  3  1  0
  3  4  2  0
  4  5  1  0
  5  6  1  0
  5  7  1  0
  5  8  1  0
  8  9  2  0
  8 10  1  0
 10 11  1  0
 11 12  1  0
 11 13  1  0
 11 14  1  0
 14 15  1  1
 14 16  1  0
 16 17  1  0
 14 18  1  0
 18 19  1  0
 18 20  1  0
 18 21  1  0
 21 22  1  6
 21 23  1  0
 23 24  1  0
 23 25  1  0
 23 26  1  0
 26 27  1  0
 27 28  1  0
 27 29  1  0
 27 30  1  0
  3 31  1  0
 31 32  2  0
 32 33  1  0
 33 34  2  0
 34 35  1  0
 34 36  1  0
 36 37  1  0
 36 38  2  0
 38 39  1  0
 38 40  1  0
 40 41  1  0
 40 42  2  0
 42 43  1  0
 43 44  1  0
 43 45  2  0
 45 46  1  0
 21 10  1  0
 45 31  1  0
 42 33  1  0
M  END
>  <UniqueID>  (58) 
7

>  <SMILES>  (58) 
CSC[C@@H]1C[C@@H](O)CN1C(=O)C/N=C(/O)c1ccc2cc(F)ccc2n1

>  <Energy>  (58) 
49.24922423896554

>  <Genealogy>  (58) 
CSC[C@@H]1C[C@@H](O)CN1C(=O)CN=C(O)c1ccc2cc(F)ccc2n1 (tautomer)
CSC[C@@H]1C[C@@H](O)CN1C(=O)C/N=C(/O)c1ccc2cc(F)ccc2n1 (cis-trans isomerization)
CSC[C@@H]1C[C@@H](O)CN1C(=O)C/N=C(/O)c1ccc2cc(F)ccc2n1 (3D coordinates assigned)
CSC[C@@H]1C[C@@H](O)CN1C(=O)C/N=C(/O)c1ccc2cc(F)ccc2n1 (nonaromatic ring conformer: 49.24922423896554 kcal/mol)

>  <smiles>  (58) 
CSC[C@@H]1C[C@@H](O)CN1C(=O)CNC(=O)c1ccc2cc(F)ccc2n1

>  <score_type>  (58) 
oracle

>  <origin>  (58) 
autodockgpu

>  <m_score__min__energy>  (58) 
-7.4699999999999998

>  <m_primary>  (58) 
energy

>  <meeko>  (58) 
{"free_energy": -6.81, "intermolecular_energy": -9.49, "internal_energy": -1.36, "cluster_size": 5, "cluster_id": 2, "rank_in_cluster": 4}

>  <energy>  (58) 
-6.17

>  <cluster_rmsd>  (58) 
0.0

>  <rmsd>  (58) 
272.5

>  <cluster>  (58) 
5

$$$$
JXJFNMZAUJJYED-HIWRTBCQNA-N
     RDKit          3D

 46 48  0  0  0  0  0  0  0  0999 V2000
  138.3530   73.4080  222.8230 H   0  0  0  0  0  0  0  0  0  0  0  0
  138.1130   72.4290  222.7190 O   0  0  0  0  0  0  0  0  0  0  0  0
  139.1000   71.4540  222.6010 C   0  0  0  0  0  0  0  0  0  0  0  0
  139.7370   71.3450  221.4670 N   0  0  0  0  0  0  0  0  0  0  0  0
  141.0670   71.8480  221.1260 C   0  0  0  0  0  0  0  0  0  0  0  0
  141.2930   71.5854  220.0820 H   0  0  0  0  0  0  0  0  0  0  0  0
  141.7979   71.3898  221.8085 H   0  0  0  0  0  0  0  0  0  0  0  0
  141.1410   73.3430  221.2830 C   0  0  0  0  0  0  0  0  0  0  0  0
  140.2900   73.9210  222.0110 O   0  0  0  0  0  0  0  0  0  0  0  0
  142.1490   74.1230  220.6070 N   0  0  0  0  0  0  0  0  0  0  0  0
  142.1750   75.5780  220.6010 C   0  0  0  0  0  0  0  0  0  0  0  0
  142.3051   75.9622  221.6235 H   0  0  0  0  0  0  0  0  0  0  0  0
  141.2346   75.9962  220.2127 H   0  0  0  0  0  0  0  0  0  0  0  0
  143.3650   75.9740  219.7300 C   0  0  2  0  0  0  0  0  0  0  0  0
  144.2168   76.3186  220.3347 H   0  0  0  0  0  0  0  0  0  0  0  0
  143.0270   77.0410  218.8840 O   0  0  0  0  0  0  0  0  0  0  0  0
  143.5330   77.8300  219.2120 H   0  0  0  0  0  0  0  0  0  0  0  0
  143.7270   74.7200  218.9270 C   0  0  0  0  0  0  0  0  0  0  0  0
  144.8195   74.6158  218.8516 H   0  0  0  0  0  0  0  0  0  0  0  0
  143.3341   74.7696  217.9008 H   0  0  0  0  0  0  0  0  0  0  0  0
  143.1310   73.5400  219.7020 C   0  0  1  0  0  0  0  0  0  0  0  0
  142.6743   72.8153  219.0119 H   0  0  0  0  0  0  0  0  0  0  0  0
  144.1950   72.7240  220.4670 C   0  0  0  0  0  0  0  0  0  0  0  0
  144.1305   71.6745  220.1438 H   0  0  0  0  0  0  0  0  0  0  0  0
  143.9860   72.8377  221.5410 H   0  0  0  0  0  0  0  0  0  0  0  0
  145.9070   73.3210  220.1760 S   0  0  0  0  0  0  0  0  0  0  0  0
  146.4120   73.3680  221.9270 C   0  0  0  0  0  0  0  0  0  0  0  0
  145.5217   73.2851  222.5677 H   0  0  0  0  0  0  0  0  0  0  0  0
  147.0927   72.5293  222.1349 H   0  0  0  0  0  0  0  0  0  0  0  0
  146.9263   74.3179  222.1349 H   0  0  0  0  0  0  0  0  0  0  0  0
  139.3580   70.5790  223.7680 C   0  0  0  0  0  0  0  0  0  0  0  0
  139.9320   71.0800  224.8970 N   0  0  0  0  0  0  0  0  0  0  0  0
  140.1630   70.3110  225.9940 C   0  0  0  0  0  0  0  0  0  0  0  0
  140.7710   70.8670  227.1260 C   0  0  0  0  0  0  0  0  0  0  0  0
  141.0597   71.9284  227.1304 H   0  0  0  0  0  0  0  0  0  0  0  0
  141.0110   70.0720  228.2510 C   0  0  0  0  0  0  0  0  0  0  0  0
  141.4906   70.5094  229.1391 H   0  0  0  0  0  0  0  0  0  0  0  0
  140.6430   68.7210  228.2510 C   0  0  0  0  0  0  0  0  0  0  0  0
  140.8780   67.9570  229.3450 F   0  0  0  0  0  0  0  0  0  0  0  0
  140.0340   68.1590  227.1230 C   0  0  0  0  0  0  0  0  0  0  0  0
  139.7461   67.0973  227.1249 H   0  0  0  0  0  0  0  0  0  0  0  0
  139.7910   68.9490  225.9910 C   0  0  0  0  0  0  0  0  0  0  0  0
  139.1830   68.4180  224.8470 C   0  0  0  0  0  0  0  0  0  0  0  0
  138.8825   67.3601  224.8231 H   0  0  0  0  0  0  0  0  0  0  0  0
  138.9590   69.2340  223.7370 C   0  0  0  0  0  0  0  0  0  0  0  0
  138.4711   68.8239  222.8405 H   0  0  0  0  0  0  0  0  0  0  0  0
  1  2  1  0
  2  3  1  0
  3  4  2  0
  4  5  1  0
  5  6  1  0
  5  7  1  0
  5  8  1  0
  8  9  2  0
  8 10  1  0
 10 11  1  0
 11 12  1  0
 11 13  1  0
 11 14  1  0
 14 15  1  1
 14 16  1  0
 16 17  1  0
 14 18  1  0
 18 19  1  0
 18 20  1  0
 18 21  1  0
 21 22  1  6
 21 23  1  0
 23 24  1  0
 23 25  1  0
 23 26  1  0
 26 27  1  0
 27 28  1  0
 27 29  1  0
 27 30  1  0
  3 31  1  0
 31 32  2  0
 32 33  1  0
 33 34  2  0
 34 35  1  0
 34 36  1  0
 36 37  1  0
 36 38  2  0
 38 39  1  0
 38 40  1  0
 40 41  1  0
 40 42  2  0
 42 43  1  0
 43 44  1  0
 43 45  2  0
 45 46  1  0
 21 10  1  0
 45 31  1  0
 42 33  1  0
M  END
>  <UniqueID>  (59) 
7

>  <SMILES>  (59) 
CSC[C@@H]1C[C@@H](O)CN1C(=O)C/N=C(/O)c1ccc2cc(F)ccc2n1

>  <Energy>  (59) 
49.24922423896554

>  <Genealogy>  (59) 
CSC[C@@H]1C[C@@H](O)CN1C(=O)CN=C(O)c1ccc2cc(F)ccc2n1 (tautomer)
CSC[C@@H]1C[C@@H](O)CN1C(=O)C/N=C(/O)c1ccc2cc(F)ccc2n1 (cis-trans isomerization)
CSC[C@@H]1C[C@@H](O)CN1C(=O)C/N=C(/O)c1ccc2cc(F)ccc2n1 (3D coordinates assigned)
CSC[C@@H]1C[C@@H](O)CN1C(=O)C/N=C(/O)c1ccc2cc(F)ccc2n1 (nonaromatic ring conformer: 49.24922423896554 kcal/mol)

>  <smiles>  (59) 
CSC[C@@H]1C[C@@H](O)CN1C(=O)CNC(=O)c1ccc2cc(F)ccc2n1

>  <score_type>  (59) 
oracle

>  <origin>  (59) 
autodockgpu

>  <m_score__min__energy>  (59) 
-7.4699999999999998

>  <m_primary>  (59) 
energy

>  <meeko>  (59) 
{"free_energy": -7.35, "intermolecular_energy": -10.03, "internal_energy": -1.41, "cluster_size": 5, "cluster_id": 2, "rank_in_cluster": 2}

>  <energy>  (59) 
-4.73

>  <cluster_rmsd>  (59) 
1.58

>  <rmsd>  (59) 
271.9

>  <cluster>  (59) 
5

$$$$
JXJFNMZAUJJYED-HIWRTBCQNA-N
     RDKit          3D

 46 48  0  0  0  0  0  0  0  0999 V2000
  138.9240   73.4720  222.7430 H   0  0  0  0  0  0  0  0  0  0  0  0
  138.4930   72.5550  222.7210 O   0  0  0  0  0  0  0  0  0  0  0  0
  139.2590   71.4020  222.5700 C   0  0  0  0  0  0  0  0  0  0  0  0
  139.7360   71.1210  221.3870 N   0  0  0  0  0  0  0  0  0  0  0  0
  141.1120   71.2650  220.9100 C   0  0  0  0  0  0  0  0  0  0  0  0
  141.1337   71.1014  219.8224 H   0  0  0  0  0  0  0  0  0  0  0  0
  141.7390   70.5233  221.4265 H   0  0  0  0  0  0  0  0  0  0  0  0
  141.6520   72.6380  221.2110 C   0  0  0  0  0  0  0  0  0  0  0  0
  140.9750   73.4100  221.9420 O   0  0  0  0  0  0  0  0  0  0  0  0
  142.9100   73.0880  220.6690 N   0  0  0  0  0  0  0  0  0  0  0  0
  143.9240   72.1930  220.1320 C   0  0  0  0  0  0  0  0  0  0  0  0
  143.5329   71.6539  219.2566 H   0  0  0  0  0  0  0  0  0  0  0  0
  144.2270   71.4376  220.8720 H   0  0  0  0  0  0  0  0  0  0  0  0
  145.0980   73.0810  219.7270 C   0  0  2  0  0  0  0  0  0  0  0  0
  145.1512   73.2146  218.6364 H   0  0  0  0  0  0  0  0  0  0  0  0
  146.3160   72.5000  220.1100 O   0  0  0  0  0  0  0  0  0  0  0  0
  146.1130   71.9030  220.8780 H   0  0  0  0  0  0  0  0  0  0  0  0
  144.8710   74.4180  220.4390 C   0  0  0  0  0  0  0  0  0  0  0  0
  145.1382   75.2545  219.7765 H   0  0  0  0  0  0  0  0  0  0  0  0
  145.4941   74.5061  221.3412 H   0  0  0  0  0  0  0  0  0  0  0  0
  143.3770   74.4640  220.7800 C   0  0  1  0  0  0  0  0  0  0  0  0
  143.2231   74.8711  221.7902 H   0  0  0  0  0  0  0  0  0  0  0  0
  142.5780   75.4110  219.8600 C   0  0  0  0  0  0  0  0  0  0  0  0
  142.1839   74.8280  219.0146 H   0  0  0  0  0  0  0  0  0  0  0  0
  143.2649   76.2036  219.5284 H   0  0  0  0  0  0  0  0  0  0  0  0
  141.1720   76.2260  220.7140 S   0  0  0  0  0  0  0  0  0  0  0  0
  141.8060   77.9300  220.5830 C   0  0  0  0  0  0  0  0  0  0  0  0
  141.9595   78.3426  221.5910 H   0  0  0  0  0  0  0  0  0  0  0  0
  142.7623   77.9246  220.0394 H   0  0  0  0  0  0  0  0  0  0  0  0
  141.0788   78.5510  220.0394 H   0  0  0  0  0  0  0  0  0  0  0  0
  139.4750   70.5470  223.7600 C   0  0  0  0  0  0  0  0  0  0  0  0
  140.0540   71.0550  224.8820 N   0  0  0  0  0  0  0  0  0  0  0  0
  140.2460   70.3060  226.0000 C   0  0  0  0  0  0  0  0  0  0  0  0
  140.8610   70.8660  227.1260 C   0  0  0  0  0  0  0  0  0  0  0  0
  141.1870   71.9164  227.1090 H   0  0  0  0  0  0  0  0  0  0  0  0
  141.0610   70.0910  228.2720 C   0  0  0  0  0  0  0  0  0  0  0  0
  141.5458   70.5327  229.1551 H   0  0  0  0  0  0  0  0  0  0  0  0
  140.6460   68.7540  228.2990 C   0  0  0  0  0  0  0  0  0  0  0  0
  140.8430   68.0090  229.4140 F   0  0  0  0  0  0  0  0  0  0  0  0
  140.0290   68.1870  227.1790 C   0  0  0  0  0  0  0  0  0  0  0  0
  139.7023   67.1369  227.2037 H   0  0  0  0  0  0  0  0  0  0  0  0
  139.8270   68.9570  226.0250 C   0  0  0  0  0  0  0  0  0  0  0  0
  139.2120   68.4210  224.8880 C   0  0  0  0  0  0  0  0  0  0  0  0
  138.8734   67.3744  224.8863 H   0  0  0  0  0  0  0  0  0  0  0  0
  139.0290   69.2170  223.7560 C   0  0  0  0  0  0  0  0  0  0  0  0
  138.5367   68.8027  222.8638 H   0  0  0  0  0  0  0  0  0  0  0  0
  1  2  1  0
  2  3  1  0
  3  4  2  0
  4  5  1  0
  5  6  1  0
  5  7  1  0
  5  8  1  0
  8  9  2  0
  8 10  1  0
 10 11  1  0
 11 12  1  0
 11 13  1  0
 11 14  1  0
 14 15  1  6
 14 16  1  0
 16 17  1  0
 14 18  1  0
 18 19  1  0
 18 20  1  0
 18 21  1  0
 21 22  1  1
 21 23  1  0
 23 24  1  0
 23 25  1  0
 23 26  1  0
 26 27  1  0
 27 28  1  0
 27 29  1  0
 27 30  1  0
  3 31  1  0
 31 32  2  0
 32 33  1  0
 33 34  2  0
 34 35  1  0
 34 36  1  0
 36 37  1  0
 36 38  2  0
 38 39  1  0
 38 40  1  0
 40 41  1  0
 40 42  2  0
 42 43  1  0
 43 44  1  0
 43 45  2  0
 45 46  1  0
 21 10  1  0
 45 31  1  0
 42 33  1  0
M  END
>  <UniqueID>  (60) 
7

>  <SMILES>  (60) 
CSC[C@@H]1C[C@@H](O)CN1C(=O)C/N=C(/O)c1ccc2cc(F)ccc2n1

>  <Energy>  (60) 
49.24922423896554

>  <Genealogy>  (60) 
CSC[C@@H]1C[C@@H](O)CN1C(=O)CN=C(O)c1ccc2cc(F)ccc2n1 (tautomer)
CSC[C@@H]1C[C@@H](O)CN1C(=O)C/N=C(/O)c1ccc2cc(F)ccc2n1 (cis-trans isomerization)
CSC[C@@H]1C[C@@H](O)CN1C(=O)C/N=C(/O)c1ccc2cc(F)ccc2n1 (3D coordinates assigned)
CSC[C@@H]1C[C@@H](O)CN1C(=O)C/N=C(/O)c1ccc2cc(F)ccc2n1 (nonaromatic ring conformer: 49.24922423896554 kcal/mol)

>  <smiles>  (60) 
CSC[C@@H]1C[C@@H](O)CN1C(=O)CNC(=O)c1ccc2cc(F)ccc2n1

>  <score_type>  (60) 
oracle

>  <origin>  (60) 
autodockgpu

>  <m_score__min__energy>  (60) 
-7.4699999999999998

>  <m_primary>  (60) 
energy

>  <meeko>  (60) 
{"free_energy": -6.9, "intermolecular_energy": -9.59, "internal_energy": -1.38, "cluster_size": 9, "cluster_id": 3, "rank_in_cluster": 8}

>  <energy>  (60) 
-4.56

>  <cluster_rmsd>  (60) 
1.6

>  <rmsd>  (60) 
271.79

>  <cluster>  (60) 
5

$$$$
JXJFNMZAUJJYED-DRLXDTPMNA-O
     RDKit          3D

 47 49  0  0  0  0  0  0  0  0999 V2000
  138.4960   75.2180  223.1680 H   0  0  0  0  0  0  0  0  0  0  0  0
  139.0590   75.9430  222.7510 O   0  0  0  0  0  0  0  0  0  0  0  0
  139.8570   75.7470  221.6180 C   0  0  0  0  0  0  0  0  0  0  0  0
  140.2730   76.7700  220.8990 N   0  0  0  0  0  0  0  0  0  0  0  0
  139.6800   77.1300  219.6140 C   0  0  0  0  0  0  0  0  0  0  0  0
  138.6557   77.5036  219.7596 H   0  0  0  0  0  0  0  0  0  0  0  0
  139.6237   76.2592  218.9443 H   0  0  0  0  0  0  0  0  0  0  0  0
  140.5600   78.2240  219.0220 C   0  0  2  0  0  0  0  0  0  0  0  0
  140.0737   79.2100  219.0588 H   0  0  0  0  0  0  0  0  0  0  0  0
  140.8200   77.9690  217.6680 O   0  0  0  0  0  0  0  0  0  0  0  0
  139.9480   77.9890  217.2020 H   0  0  0  0  0  0  0  0  0  0  0  0
  141.8440   78.2130  219.8530 C   0  0  0  0  0  0  0  0  0  0  0  0
  142.2110   79.2384  220.0070 H   0  0  0  0  0  0  0  0  0  0  0  0
  142.6496   77.6562  219.3520 H   0  0  0  0  0  0  0  0  0  0  0  0
  141.4600   77.5760  221.1900 C   0  0  1  0  0  0  0  0  0  0  0  0
  142.2850   76.9775  221.6037 H   0  0  0  0  0  0  0  0  0  0  0  0
  141.1260   78.6530  222.2460 C   0  0  0  0  0  0  0  0  0  0  0  0
  141.3322   78.2467  223.2472 H   0  0  0  0  0  0  0  0  0  0  0  0
  140.0641   78.9197  222.1401 H   0  0  0  0  0  0  0  0  0  0  0  0
  142.1230   80.1700  222.0040 S   0  0  0  0  0  0  0  0  0  0  0  0
  142.5380   80.4230  223.7620 C   0  0  0  0  0  0  0  0  0  0  0  0
  141.7679   79.9535  224.3918 H   0  0  0  0  0  0  0  0  0  0  0  0
  143.5157   79.9671  223.9772 H   0  0  0  0  0  0  0  0  0  0  0  0
  142.5806   81.5009  223.9772 H   0  0  0  0  0  0  0  0  0  0  0  0
  140.1450   74.3190  221.2150 C   0  0  0  0  0  0  0  0  0  0  0  0
  139.4543   74.0265  220.4104 H   0  0  0  0  0  0  0  0  0  0  0  0
  141.1879   74.2566  220.8709 H   0  0  0  0  0  0  0  0  0  0  0  0
  139.9740   73.4090  222.3450 N   0  0  0  0  0  0  0  0  0  0  0  0
  139.4890   73.7720  223.1950 H   0  0  0  0  0  0  0  0  0  0  0  0
  140.3700   72.0300  222.2870 C   0  0  0  0  0  0  0  0  0  0  0  0
  140.8560   71.5650  221.2200 O   0  0  0  0  0  0  0  0  0  0  0  0
  140.2040   71.1540  223.4680 C   0  0  0  0  0  0  0  0  0  0  0  0
  140.6760   71.5560  224.6780 N   0  0  0  0  0  0  0  0  0  0  0  0
  140.5570   70.7940  225.7950 C   0  0  0  0  0  0  0  0  0  0  0  0
  141.0680   71.2460  227.0150 C   0  0  0  0  0  0  0  0  0  0  0  0
  141.5542   72.2308  227.0768 H   0  0  0  0  0  0  0  0  0  0  0  0
  140.9610   70.4460  228.1570 C   0  0  0  0  0  0  0  0  0  0  0  0
  141.3734   70.7988  229.1138 H   0  0  0  0  0  0  0  0  0  0  0  0
  140.3310   69.1980  228.0870 C   0  0  0  0  0  0  0  0  0  0  0  0
  140.2240   68.4320  229.1990 F   0  0  0  0  0  0  0  0  0  0  0  0
  139.8110   68.7440  226.8750 C   0  0  0  0  0  0  0  0  0  0  0  0
  139.3122   67.7650  226.8229 H   0  0  0  0  0  0  0  0  0  0  0  0
  139.9240   69.5360  225.7220 C   0  0  0  0  0  0  0  0  0  0  0  0
  139.4220   69.1030  224.4910 C   0  0  0  0  0  0  0  0  0  0  0  0
  138.9169   68.1289  224.4136 H   0  0  0  0  0  0  0  0  0  0  0  0
  139.5630   69.9090  223.3610 C   0  0  0  0  0  0  0  0  0  0  0  0
  139.1735   69.5705  222.3896 H   0  0  0  0  0  0  0  0  0  0  0  0
  1  2  1  0
  2  3  1  0
  3  4  2  0
  4  5  1  0
  5  6  1  0
  5  7  1  0
  5  8  1  0
  8  9  1  6
  8 10  1  0
 10 11  1  0
  8 12  1  0
 12 13  1  0
 12 14  1  0
 12 15  1  0
 15 16  1  1
 15 17  1  0
 17 18  1  0
 17 19  1  0
 17 20  1  0
 20 21  1  0
 21 22  1  0
 21 23  1  0
 21 24  1  0
  3 25  1  0
 25 26  1  0
 25 27  1  0
 25 28  1  0
 28 29  1  0
 28 30  1  0
 30 31  2  0
 30 32  1  0
 32 33  2  0
 33 34  1  0
 34 35  2  0
 35 36  1  0
 35 37  1  0
 37 38  1  0
 37 39  2  0
 39 40  1  0
 39 41  1  0
 41 42  1  0
 41 43  2  0
 43 44  1  0
 44 45  1  0
 44 46  2  0
 46 47  1  0
 15  4  1  0
 46 32  1  0
 43 34  1  0
M  CHG  1   4   1
M  END
>  <UniqueID>  (61) 
8

>  <SMILES>  (61) 
CSC[C@@H]1C[C@@H](O)C/[N+]1=C(\O)CNC(=O)c1ccc2cc(F)ccc2n1

>  <Energy>  (61) 
50.42533612763204

>  <Genealogy>  (61) 
CSC[C@@H]1C[C@@H](O)C[NH+]1C(=O)CNC(=O)c1ccc2cc(F)ccc2n1 (protonated)
CSC[C@@H]1C[C@@H](O)C[N+]1=C(O)CNC(=O)c1ccc2cc(F)ccc2n1 (tautomer)
CSC[C@@H]1C[C@@H](O)C/[N+]1=C(\O)CNC(=O)c1ccc2cc(F)ccc2n1 (cis-trans isomerization)
CSC[C@@H]1C[C@@H](O)C/[N+]1=C(\O)CNC(=O)c1ccc2cc(F)ccc2n1 (3D coordinates assigned)
CSC[C@@H]1C[C@@H](O)C/[N+]1=C(\O)CNC(=O)c1ccc2cc(F)ccc2n1 (nonaromatic ring conformer: 50.42533612763204 kcal/mol)

>  <smiles>  (61) 
CSC[C@@H]1C[C@@H](O)CN1C(=O)CNC(=O)c1ccc2cc(F)ccc2n1

>  <score_type>  (61) 
oracle

>  <origin>  (61) 
autodockgpu

>  <m_score__min__energy>  (61) 
-7.6200000000000001

>  <m_primary>  (61) 
energy

>  <meeko>  (61) 
{"free_energy": -6.74, "intermolecular_energy": -9.12, "internal_energy": -1.23, "cluster_size": 12, "cluster_id": 2, "rank_in_cluster": 10}

>  <energy>  (61) 
-7.62

>  <cluster_rmsd>  (61) 
0.0

>  <rmsd>  (61) 
273.36

>  <cluster>  (61) 
1

$$$$
JXJFNMZAUJJYED-DRLXDTPMNA-O
     RDKit          3D

 47 49  0  0  0  0  0  0  0  0999 V2000
  138.7990   74.3650  222.8810 H   0  0  0  0  0  0  0  0  0  0  0  0
  139.4270   75.1240  222.6660 O   0  0  0  0  0  0  0  0  0  0  0  0
  140.3600   75.0840  221.6230 C   0  0  0  0  0  0  0  0  0  0  0  0
  140.7760   76.1920  221.0440 N   0  0  0  0  0  0  0  0  0  0  0  0
  141.1900   76.2480  219.6450 C   0  0  0  0  0  0  0  0  0  0  0  0
  140.3232   76.0935  218.9856 H   0  0  0  0  0  0  0  0  0  0  0  0
  141.9251   75.4625  219.4157 H   0  0  0  0  0  0  0  0  0  0  0  0
  141.7790   77.6360  219.4240 C   0  0  2  0  0  0  0  0  0  0  0  0
  141.1128   78.2768  218.8276 H   0  0  0  0  0  0  0  0  0  0  0  0
  142.9820   77.5520  218.7090 O   0  0  0  0  0  0  0  0  0  0  0  0
  143.7100   77.7400  219.3510 H   0  0  0  0  0  0  0  0  0  0  0  0
  141.9950   78.2190  220.8210 C   0  0  0  0  0  0  0  0  0  0  0  0
  141.7635   79.2943  220.8288 H   0  0  0  0  0  0  0  0  0  0  0  0
  143.0393   78.1136  221.1502 H   0  0  0  0  0  0  0  0  0  0  0  0
  141.0320   77.4580  221.7350 C   0  0  1  0  0  0  0  0  0  0  0  0
  141.4572   77.3130  222.7391 H   0  0  0  0  0  0  0  0  0  0  0  0
  139.7110   78.2360  221.9250 C   0  0  0  0  0  0  0  0  0  0  0  0
  138.9385   77.5435  222.2906 H   0  0  0  0  0  0  0  0  0  0  0  0
  139.4243   78.6685  220.9551 H   0  0  0  0  0  0  0  0  0  0  0  0
  139.9000   79.6040  223.1280 S   0  0  0  0  0  0  0  0  0  0  0  0
  141.4730   79.0280  223.8470 C   0  0  0  0  0  0  0  0  0  0  0  0
  141.4053   79.0528  224.9446 H   0  0  0  0  0  0  0  0  0  0  0  0
  141.6726   77.9984  223.5151 H   0  0  0  0  0  0  0  0  0  0  0  0
  142.2903   79.6852  223.5151 H   0  0  0  0  0  0  0  0  0  0  0  0
  140.8000   73.7200  221.1420 C   0  0  0  0  0  0  0  0  0  0  0  0
  140.0991   73.3675  220.3710 H   0  0  0  0  0  0  0  0  0  0  0  0
  141.8164   73.8056  220.7301 H   0  0  0  0  0  0  0  0  0  0  0  0
  140.8240   72.7570  222.2420 N   0  0  0  0  0  0  0  0  0  0  0  0
  141.7400   72.5710  222.7080 H   0  0  0  0  0  0  0  0  0  0  0  0
  139.6310   72.1380  222.7460 C   0  0  0  0  0  0  0  0  0  0  0  0
  138.5120   72.4470  222.2530 O   0  0  0  0  0  0  0  0  0  0  0  0
  139.7090   71.1460  223.8420 C   0  0  0  0  0  0  0  0  0  0  0  0
  140.2690   71.4960  225.0300 N   0  0  0  0  0  0  0  0  0  0  0  0
  140.3720   70.6290  226.0690 C   0  0  0  0  0  0  0  0  0  0  0  0
  140.9650   71.0320  227.2690 C   0  0  0  0  0  0  0  0  0  0  0  0
  141.3357   72.0616  227.3806 H   0  0  0  0  0  0  0  0  0  0  0  0
  141.0870   70.1270  228.3270 C   0  0  0  0  0  0  0  0  0  0  0  0
  141.5637   70.4436  229.2664 H   0  0  0  0  0  0  0  0  0  0  0  0
  140.6050   68.8190  228.1960 C   0  0  0  0  0  0  0  0  0  0  0  0
  140.7190   67.9500  229.2290 F   0  0  0  0  0  0  0  0  0  0  0  0
  140.0030   68.4120  227.0050 C   0  0  0  0  0  0  0  0  0  0  0  0
  139.6200   67.3857  226.9052 H   0  0  0  0  0  0  0  0  0  0  0  0
  139.8860   69.3110  225.9350 C   0  0  0  0  0  0  0  0  0  0  0  0
  139.2980   68.9290  224.7260 C   0  0  0  0  0  0  0  0  0  0  0  0
  138.9053   67.9090  224.6023 H   0  0  0  0  0  0  0  0  0  0  0  0
  139.2100   69.8440  223.6760 C   0  0  0  0  0  0  0  0  0  0  0  0
  138.7513   69.5463  222.7215 H   0  0  0  0  0  0  0  0  0  0  0  0
  1  2  1  0
  2  3  1  0
  3  4  2  0
  4  5  1  0
  5  6  1  0
  5  7  1  0
  5  8  1  0
  8  9  1  6
  8 10  1  0
 10 11  1  0
  8 12  1  0
 12 13  1  0
 12 14  1  0
 12 15  1  0
 15 16  1  1
 15 17  1  0
 17 18  1  0
 17 19  1  0
 17 20  1  0
 20 21  1  0
 21 22  1  0
 21 23  1  0
 21 24  1  0
  3 25  1  0
 25 26  1  0
 25 27  1  0
 25 28  1  0
 28 29  1  0
 28 30  1  0
 30 31  2  0
 30 32  1  0
 32 33  2  0
 33 34  1  0
 34 35  2  0
 35 36  1  0
 35 37  1  0
 37 38  1  0
 37 39  2  0
 39 40  1  0
 39 41  1  0
 41 42  1  0
 41 43  2  0
 43 44  1  0
 44 45  1  0
 44 46  2  0
 46 47  1  0
 15  4  1  0
 46 32  1  0
 43 34  1  0
M  CHG  1   4   1
M  END
>  <UniqueID>  (62) 
8

>  <SMILES>  (62) 
CSC[C@@H]1C[C@@H](O)C/[N+]1=C(\O)CNC(=O)c1ccc2cc(F)ccc2n1

>  <Energy>  (62) 
50.42533612763204

>  <Genealogy>  (62) 
CSC[C@@H]1C[C@@H](O)C[NH+]1C(=O)CNC(=O)c1ccc2cc(F)ccc2n1 (protonated)
CSC[C@@H]1C[C@@H](O)C[N+]1=C(O)CNC(=O)c1ccc2cc(F)ccc2n1 (tautomer)
CSC[C@@H]1C[C@@H](O)C/[N+]1=C(\O)CNC(=O)c1ccc2cc(F)ccc2n1 (cis-trans isomerization)
CSC[C@@H]1C[C@@H](O)C/[N+]1=C(\O)CNC(=O)c1ccc2cc(F)ccc2n1 (3D coordinates assigned)
CSC[C@@H]1C[C@@H](O)C/[N+]1=C(\O)CNC(=O)c1ccc2cc(F)ccc2n1 (nonaromatic ring conformer: 50.42533612763204 kcal/mol)

>  <smiles>  (62) 
CSC[C@@H]1C[C@@H](O)CN1C(=O)CNC(=O)c1ccc2cc(F)ccc2n1

>  <score_type>  (62) 
oracle

>  <origin>  (62) 
autodockgpu

>  <m_score__min__energy>  (62) 
-7.6200000000000001

>  <m_primary>  (62) 
energy

>  <meeko>  (62) 
{"free_energy": -7.21, "intermolecular_energy": -9.6, "internal_energy": -1.44, "cluster_size": 12, "cluster_id": 2, "rank_in_cluster": 4}

>  <energy>  (62) 
-7.21

>  <cluster_rmsd>  (62) 
1.54

>  <rmsd>  (62) 
273.48

>  <cluster>  (62) 
1

$$$$
JXJFNMZAUJJYED-DRLXDTPMNA-O
     RDKit          3D

 47 49  0  0  0  0  0  0  0  0999 V2000
  141.8710   76.4630  222.8670 H   0  0  0  0  0  0  0  0  0  0  0  0
  141.1200   76.0460  222.3400 O   0  0  0  0  0  0  0  0  0  0  0  0
  141.2980   75.4340  221.0930 C   0  0  0  0  0  0  0  0  0  0  0  0
  142.1210   75.9450  220.2000 N   0  0  0  0  0  0  0  0  0  0  0  0
  142.1620   77.3700  219.8850 C   0  0  0  0  0  0  0  0  0  0  0  0
  142.5569   77.9373  220.7407 H   0  0  0  0  0  0  0  0  0  0  0  0
  141.1565   77.7584  219.6656 H   0  0  0  0  0  0  0  0  0  0  0  0
  143.0860   77.5200  218.6820 C   0  0  2  0  0  0  0  0  0  0  0  0
  144.0515   77.9700  218.9564 H   0  0  0  0  0  0  0  0  0  0  0  0
  142.5160   78.3740  217.7270 O   0  0  0  0  0  0  0  0  0  0  0  0
  143.2640   78.8400  217.2780 H   0  0  0  0  0  0  0  0  0  0  0  0
  143.2770   76.1070  218.1310 C   0  0  0  0  0  0  0  0  0  0  0  0
  144.3106   75.9670  217.7818 H   0  0  0  0  0  0  0  0  0  0  0  0
  142.6191   75.9118  217.2713 H   0  0  0  0  0  0  0  0  0  0  0  0
  142.9760   75.1680  219.3010 C   0  0  1  0  0  0  0  0  0  0  0  0
  142.4958   74.2390  218.9598 H   0  0  0  0  0  0  0  0  0  0  0  0
  144.2730   74.7510  220.0300 C   0  0  0  0  0  0  0  0  0  0  0  0
  144.1230   74.8588  221.1144 H   0  0  0  0  0  0  0  0  0  0  0  0
  145.0882   75.4006  219.6787 H   0  0  0  0  0  0  0  0  0  0  0  0
  144.7270   73.0150  219.6630 S   0  0  0  0  0  0  0  0  0  0  0  0
  143.5640   72.2470  220.8400 C   0  0  0  0  0  0  0  0  0  0  0  0
  143.8886   72.4614  221.8689 H   0  0  0  0  0  0  0  0  0  0  0  0
  142.5561   72.6577  220.6804 H   0  0  0  0  0  0  0  0  0  0  0  0
  143.5460   71.1588  220.6804 H   0  0  0  0  0  0  0  0  0  0  0  0
  140.4480   74.2200  220.7920 C   0  0  0  0  0  0  0  0  0  0  0  0
  139.4725   74.5511  220.4064 H   0  0  0  0  0  0  0  0  0  0  0  0
  140.9702   73.6043  220.0449 H   0  0  0  0  0  0  0  0  0  0  0  0
  140.2380   73.4140  221.9930 N   0  0  0  0  0  0  0  0  0  0  0  0
  140.0240   73.9140  222.8840 H   0  0  0  0  0  0  0  0  0  0  0  0
  140.2320   71.9790  221.9630 C   0  0  0  0  0  0  0  0  0  0  0  0
  140.3820   71.3770  220.8640 O   0  0  0  0  0  0  0  0  0  0  0  0
  140.0450   71.2050  223.2100 C   0  0  0  0  0  0  0  0  0  0  0  0
  140.4870   71.7120  224.3910 N   0  0  0  0  0  0  0  0  0  0  0  0
  140.3480   71.0480  225.5670 C   0  0  0  0  0  0  0  0  0  0  0  0
  140.8280   71.6060  226.7540 C   0  0  0  0  0  0  0  0  0  0  0  0
  141.3068   72.5963  226.7419 H   0  0  0  0  0  0  0  0  0  0  0  0
  140.7000   70.9060  227.9580 C   0  0  0  0  0  0  0  0  0  0  0  0
  141.0884   71.3426  228.8899 H   0  0  0  0  0  0  0  0  0  0  0  0
  140.0790   69.6510  227.9810 C   0  0  0  0  0  0  0  0  0  0  0  0
  139.9510   68.9820  229.1520 F   0  0  0  0  0  0  0  0  0  0  0  0
  139.5900   69.0910  226.8010 C   0  0  0  0  0  0  0  0  0  0  0  0
  139.0999   68.1064  226.8215 H   0  0  0  0  0  0  0  0  0  0  0  0
  139.7230   69.7830  225.5880 C   0  0  0  0  0  0  0  0  0  0  0  0
  139.2520   69.2430  224.3870 C   0  0  0  0  0  0  0  0  0  0  0  0
  138.7547   68.2618  224.3815 H   0  0  0  0  0  0  0  0  0  0  0  0
  139.4140   69.9510  223.1960 C   0  0  0  0  0  0  0  0  0  0  0  0
  139.0484   69.5280  222.2487 H   0  0  0  0  0  0  0  0  0  0  0  0
  1  2  1  0
  2  3  1  0
  3  4  2  0
  4  5  1  0
  5  6  1  0
  5  7  1  0
  5  8  1  0
  8  9  1  1
  8 10  1  0
 10 11  1  0
  8 12  1  0
 12 13  1  0
 12 14  1  0
 12 15  1  0
 15 16  1  6
 15 17  1  0
 17 18  1  0
 17 19  1  0
 17 20  1  0
 20 21  1  0
 21 22  1  0
 21 23  1  0
 21 24  1  0
  3 25  1  0
 25 26  1  0
 25 27  1  0
 25 28  1  0
 28 29  1  0
 28 30  1  0
 30 31  2  0
 30 32  1  0
 32 33  2  0
 33 34  1  0
 34 35  2  0
 35 36  1  0
 35 37  1  0
 37 38  1  0
 37 39  2  0
 39 40  1  0
 39 41  1  0
 41 42  1  0
 41 43  2  0
 43 44  1  0
 44 45  1  0
 44 46  2  0
 46 47  1  0
 15  4  1  0
 46 32  1  0
 43 34  1  0
M  CHG  1   4   1
M  END
>  <UniqueID>  (63) 
8

>  <SMILES>  (63) 
CSC[C@@H]1C[C@@H](O)C/[N+]1=C(\O)CNC(=O)c1ccc2cc(F)ccc2n1

>  <Energy>  (63) 
50.42533612763204

>  <Genealogy>  (63) 
CSC[C@@H]1C[C@@H](O)C[NH+]1C(=O)CNC(=O)c1ccc2cc(F)ccc2n1 (protonated)
CSC[C@@H]1C[C@@H](O)C[N+]1=C(O)CNC(=O)c1ccc2cc(F)ccc2n1 (tautomer)
CSC[C@@H]1C[C@@H](O)C/[N+]1=C(\O)CNC(=O)c1ccc2cc(F)ccc2n1 (cis-trans isomerization)
CSC[C@@H]1C[C@@H](O)C/[N+]1=C(\O)CNC(=O)c1ccc2cc(F)ccc2n1 (3D coordinates assigned)
CSC[C@@H]1C[C@@H](O)C/[N+]1=C(\O)CNC(=O)c1ccc2cc(F)ccc2n1 (nonaromatic ring conformer: 50.42533612763204 kcal/mol)

>  <smiles>  (63) 
CSC[C@@H]1C[C@@H](O)CN1C(=O)CNC(=O)c1ccc2cc(F)ccc2n1

>  <score_type>  (63) 
oracle

>  <origin>  (63) 
autodockgpu

>  <m_score__min__energy>  (63) 
-7.6200000000000001

>  <m_primary>  (63) 
energy

>  <meeko>  (63) 
{"free_energy": -6.72, "intermolecular_energy": -9.11, "internal_energy": -1.31, "cluster_size": 8, "cluster_id": 1, "rank_in_cluster": 5}

>  <energy>  (63) 
-7.03

>  <cluster_rmsd>  (63) 
0.37

>  <rmsd>  (63) 
273.3

>  <cluster>  (63) 
1

$$$$
JXJFNMZAUJJYED-DRLXDTPMNA-O
     RDKit          3D

 47 49  0  0  0  0  0  0  0  0999 V2000
  138.8080   74.3940  222.8270 H   0  0  0  0  0  0  0  0  0  0  0  0
  139.4870   75.1140  222.6320 O   0  0  0  0  0  0  0  0  0  0  0  0
  140.4050   75.0450  221.5770 C   0  0  0  0  0  0  0  0  0  0  0  0
  140.7730   76.1320  220.9280 N   0  0  0  0  0  0  0  0  0  0  0  0
  141.3090   76.1000  219.5710 C   0  0  0  0  0  0  0  0  0  0  0  0
  140.5248   75.8023  218.8594 H   0  0  0  0  0  0  0  0  0  0  0  0
  142.1291   75.3721  219.4840 H   0  0  0  0  0  0  0  0  0  0  0  0
  141.7910   77.5140  219.2630 C   0  0  2  0  0  0  0  0  0  0  0  0
  141.1306   78.0310  218.5512 H   0  0  0  0  0  0  0  0  0  0  0  0
  143.0580   77.4820  218.6650 O   0  0  0  0  0  0  0  0  0  0  0  0
  143.7040   77.7830  219.3500 H   0  0  0  0  0  0  0  0  0  0  0  0
  141.8220   78.2380  220.6090 C   0  0  0  0  0  0  0  0  0  0  0  0
  141.4959   79.2819  220.4913 H   0  0  0  0  0  0  0  0  0  0  0  0
  142.8362   78.2643  221.0342 H   0  0  0  0  0  0  0  0  0  0  0  0
  140.8500   77.4730  221.5090 C   0  0  1  0  0  0  0  0  0  0  0  0
  141.1913   77.4614  222.5547 H   0  0  0  0  0  0  0  0  0  0  0  0
  139.4530   78.1330  221.5100 C   0  0  0  0  0  0  0  0  0  0  0  0
  138.6976   77.3691  221.2740 H   0  0  0  0  0  0  0  0  0  0  0  0
  139.4517   78.9344  220.7565 H   0  0  0  0  0  0  0  0  0  0  0  0
  139.0570   78.8770  223.1360 S   0  0  0  0  0  0  0  0  0  0  0  0
  140.7520   79.4210  223.5290 C   0  0  0  0  0  0  0  0  0  0  0  0
  140.8800   79.4621  224.6208 H   0  0  0  0  0  0  0  0  0  0  0  0
  141.4738   78.7094  223.1017 H   0  0  0  0  0  0  0  0  0  0  0  0
  140.9249   80.4198  223.1017 H   0  0  0  0  0  0  0  0  0  0  0  0
  140.8860   73.6710  221.1690 C   0  0  0  0  0  0  0  0  0  0  0  0
  140.2376   73.2867  220.3678 H   0  0  0  0  0  0  0  0  0  0  0  0
  141.9254   73.7546  220.8187 H   0  0  0  0  0  0  0  0  0  0  0  0
  140.8500   72.7440  222.2980 N   0  0  0  0  0  0  0  0  0  0  0  0
  141.7330   72.5950  222.8350 H   0  0  0  0  0  0  0  0  0  0  0  0
  139.6370   72.1120  222.7340 C   0  0  0  0  0  0  0  0  0  0  0  0
  138.5500   72.3780  222.1510 O   0  0  0  0  0  0  0  0  0  0  0  0
  139.6550   71.1570  223.8640 C   0  0  0  0  0  0  0  0  0  0  0  0
  140.3020   71.4840  225.0140 N   0  0  0  0  0  0  0  0  0  0  0  0
  140.3560   70.6480  226.0820 C   0  0  0  0  0  0  0  0  0  0  0  0
  141.0420   71.0270  227.2400 C   0  0  0  0  0  0  0  0  0  0  0  0
  141.5255   72.0135  227.2952 H   0  0  0  0  0  0  0  0  0  0  0  0
  141.1130   70.1510  228.3280 C   0  0  0  0  0  0  0  0  0  0  0  0
  141.6626   70.4459  229.2341 H   0  0  0  0  0  0  0  0  0  0  0  0
  140.4870   68.9000  228.2680 C   0  0  0  0  0  0  0  0  0  0  0  0
  140.5520   68.0610  229.3290 F   0  0  0  0  0  0  0  0  0  0  0  0
  139.7930   68.5200  227.1190 C   0  0  0  0  0  0  0  0  0  0  0  0
  139.2972   67.5390  227.0756 H   0  0  0  0  0  0  0  0  0  0  0  0
  139.7270   69.3880  226.0190 C   0  0  0  0  0  0  0  0  0  0  0  0
  139.0470   69.0300  224.8510 C   0  0  0  0  0  0  0  0  0  0  0  0
  138.5403   68.0560  224.7843 H   0  0  0  0  0  0  0  0  0  0  0  0
  139.0130   69.9120  223.7700 C   0  0  0  0  0  0  0  0  0  0  0  0
  138.4845   69.6324  222.8467 H   0  0  0  0  0  0  0  0  0  0  0  0
  1  2  1  0
  2  3  1  0
  3  4  2  0
  4  5  1  0
  5  6  1  0
  5  7  1  0
  5  8  1  0
  8  9  1  6
  8 10  1  0
 10 11  1  0
  8 12  1  0
 12 13  1  0
 12 14  1  0
 12 15  1  0
 15 16  1  1
 15 17  1  0
 17 18  1  0
 17 19  1  0
 17 20  1  0
 20 21  1  0
 21 22  1  0
 21 23  1  0
 21 24  1  0
  3 25  1  0
 25 26  1  0
 25 27  1  0
 25 28  1  0
 28 29  1  0
 28 30  1  0
 30 31  2  0
 30 32  1  0
 32 33  2  0
 33 34  1  0
 34 35  2  0
 35 36  1  0
 35 37  1  0
 37 38  1  0
 37 39  2  0
 39 40  1  0
 39 41  1  0
 41 42  1  0
 41 43  2  0
 43 44  1  0
 44 45  1  0
 44 46  2  0
 46 47  1  0
 15  4  1  0
 46 32  1  0
 43 34  1  0
M  CHG  1   4   1
M  END
>  <UniqueID>  (64) 
8

>  <SMILES>  (64) 
CSC[C@@H]1C[C@@H](O)C/[N+]1=C(\O)CNC(=O)c1ccc2cc(F)ccc2n1

>  <Energy>  (64) 
50.42533612763204

>  <Genealogy>  (64) 
CSC[C@@H]1C[C@@H](O)C[NH+]1C(=O)CNC(=O)c1ccc2cc(F)ccc2n1 (protonated)
CSC[C@@H]1C[C@@H](O)C[N+]1=C(O)CNC(=O)c1ccc2cc(F)ccc2n1 (tautomer)
CSC[C@@H]1C[C@@H](O)C/[N+]1=C(\O)CNC(=O)c1ccc2cc(F)ccc2n1 (cis-trans isomerization)
CSC[C@@H]1C[C@@H](O)C/[N+]1=C(\O)CNC(=O)c1ccc2cc(F)ccc2n1 (3D coordinates assigned)
CSC[C@@H]1C[C@@H](O)C/[N+]1=C(\O)CNC(=O)c1ccc2cc(F)ccc2n1 (nonaromatic ring conformer: 50.42533612763204 kcal/mol)

>  <smiles>  (64) 
CSC[C@@H]1C[C@@H](O)CN1C(=O)CNC(=O)c1ccc2cc(F)ccc2n1

>  <score_type>  (64) 
oracle

>  <origin>  (64) 
autodockgpu

>  <m_score__min__energy>  (64) 
-7.6200000000000001

>  <m_primary>  (64) 
energy

>  <meeko>  (64) 
{"free_energy": -6.98, "intermolecular_energy": -9.36, "internal_energy": -1.52, "cluster_size": 12, "cluster_id": 2, "rank_in_cluster": 7}

>  <energy>  (64) 
-6.82

>  <cluster_rmsd>  (64) 
1.42

>  <rmsd>  (64) 
273.38

>  <cluster>  (64) 
1

$$$$
JXJFNMZAUJJYED-DRLXDTPMNA-O
     RDKit          3D

 47 49  0  0  0  0  0  0  0  0999 V2000
  139.2090   74.1980  222.7000 H   0  0  0  0  0  0  0  0  0  0  0  0
  139.8530   74.6760  222.0880 O   0  0  0  0  0  0  0  0  0  0  0  0
  140.7110   74.0160  221.2010 C   0  0  0  0  0  0  0  0  0  0  0  0
  141.7320   74.6460  220.6540 N   0  0  0  0  0  0  0  0  0  0  0  0
  141.8420   76.1010  220.6250 C   0  0  0  0  0  0  0  0  0  0  0  0
  142.0005   76.4904  221.6415 H   0  0  0  0  0  0  0  0  0  0  0  0
  140.9233   76.5616  220.2328 H   0  0  0  0  0  0  0  0  0  0  0  0
  143.0420   76.4270  219.7430 C   0  0  2  0  0  0  0  0  0  0  0  0
  143.9020   76.7828  220.3293 H   0  0  0  0  0  0  0  0  0  0  0  0
  142.7280   77.4590  218.8470 O   0  0  0  0  0  0  0  0  0  0  0  0
  143.3710   78.1910  219.0190 H   0  0  0  0  0  0  0  0  0  0  0  0
  143.3770   75.1280  219.0100 C   0  0  0  0  0  0  0  0  0  0  0  0
  144.4665   75.0113  218.9134 H   0  0  0  0  0  0  0  0  0  0  0  0
  142.9614   75.1157  217.9916 H   0  0  0  0  0  0  0  0  0  0  0  0
  142.7940   74.0080  219.8740 C   0  0  1  0  0  0  0  0  0  0  0  0
  142.4237   73.1743  219.2593 H   0  0  0  0  0  0  0  0  0  0  0  0
  143.8650   73.4170  220.8180 C   0  0  0  0  0  0  0  0  0  0  0  0
  143.8842   72.3240  220.6955 H   0  0  0  0  0  0  0  0  0  0  0  0
  143.6028   73.6934  221.8499 H   0  0  0  0  0  0  0  0  0  0  0  0
  145.5300   74.0840  220.4540 S   0  0  0  0  0  0  0  0  0  0  0  0
  146.3560   73.3840  221.9210 C   0  0  0  0  0  0  0  0  0  0  0  0
  145.8855   73.7827  222.8319 H   0  0  0  0  0  0  0  0  0  0  0  0
  146.2597   72.2883  221.9081 H   0  0  0  0  0  0  0  0  0  0  0  0
  147.4211   73.6587  221.9081 H   0  0  0  0  0  0  0  0  0  0  0  0
  140.3680   72.5890  220.8400 C   0  0  0  0  0  0  0  0  0  0  0  0
  139.3494   72.5580  220.4258 H   0  0  0  0  0  0  0  0  0  0  0  0
  141.0976   72.2309  220.0987 H   0  0  0  0  0  0  0  0  0  0  0  0
  140.4330   71.7200  222.0130 N   0  0  0  0  0  0  0  0  0  0  0  0
  141.3380   71.2390  222.2150 H   0  0  0  0  0  0  0  0  0  0  0  0
  139.3350   71.5790  222.9270 C   0  0  0  0  0  0  0  0  0  0  0  0
  138.2800   72.2450  222.7410 O   0  0  0  0  0  0  0  0  0  0  0  0
  139.4370   70.6640  224.0840 C   0  0  0  0  0  0  0  0  0  0  0  0
  140.1760   71.0250  225.1670 N   0  0  0  0  0  0  0  0  0  0  0  0
  140.3100   70.2260  226.2560 C   0  0  0  0  0  0  0  0  0  0  0  0
  141.0890   70.6370  227.3410 C   0  0  0  0  0  0  0  0  0  0  0  0
  141.5835   71.6194  227.3223 H   0  0  0  0  0  0  0  0  0  0  0  0
  141.2400   69.7990  228.4510 C   0  0  0  0  0  0  0  0  0  0  0  0
  141.8619   70.1199  229.2997 H   0  0  0  0  0  0  0  0  0  0  0  0
  140.6020   68.5530  228.4850 C   0  0  0  0  0  0  0  0  0  0  0  0
  140.7470   67.7500  229.5660 F   0  0  0  0  0  0  0  0  0  0  0  0
  139.8170   68.1400  227.4090 C   0  0  0  0  0  0  0  0  0  0  0  0
  139.3140   67.1622  227.4393 H   0  0  0  0  0  0  0  0  0  0  0  0
  139.6680   68.9700  226.2880 C   0  0  0  0  0  0  0  0  0  0  0  0
  138.8960   68.5790  225.1910 C   0  0  0  0  0  0  0  0  0  0  0  0
  138.3803   67.6074  225.1989 H   0  0  0  0  0  0  0  0  0  0  0  0
  138.7800   69.4220  224.0860 C   0  0  0  0  0  0  0  0  0  0  0  0
  138.1763   69.1156  223.2190 H   0  0  0  0  0  0  0  0  0  0  0  0
  1  2  1  0
  2  3  1  0
  3  4  2  0
  4  5  1  0
  5  6  1  0
  5  7  1  0
  5  8  1  0
  8  9  1  1
  8 10  1  0
 10 11  1  0
  8 12  1  0
 12 13  1  0
 12 14  1  0
 12 15  1  0
 15 16  1  6
 15 17  1  0
 17 18  1  0
 17 19  1  0
 17 20  1  0
 20 21  1  0
 21 22  1  0
 21 23  1  0
 21 24  1  0
  3 25  1  0
 25 26  1  0
 25 27  1  0
 25 28  1  0
 28 29  1  0
 28 30  1  0
 30 31  2  0
 30 32  1  0
 32 33  2  0
 33 34  1  0
 34 35  2  0
 35 36  1  0
 35 37  1  0
 37 38  1  0
 37 39  2  0
 39 40  1  0
 39 41  1  0
 41 42  1  0
 41 43  2  0
 43 44  1  0
 44 45  1  0
 44 46  2  0
 46 47  1  0
 15  4  1  0
 46 32  1  0
 43 34  1  0
M  CHG  1   4   1
M  END
>  <UniqueID>  (65) 
8

>  <SMILES>  (65) 
CSC[C@@H]1C[C@@H](O)C/[N+]1=C(\O)CNC(=O)c1ccc2cc(F)ccc2n1

>  <Energy>  (65) 
50.42533612763204

>  <Genealogy>  (65) 
CSC[C@@H]1C[C@@H](O)C[NH+]1C(=O)CNC(=O)c1ccc2cc(F)ccc2n1 (protonated)
CSC[C@@H]1C[C@@H](O)C[N+]1=C(O)CNC(=O)c1ccc2cc(F)ccc2n1 (tautomer)
CSC[C@@H]1C[C@@H](O)C/[N+]1=C(\O)CNC(=O)c1ccc2cc(F)ccc2n1 (cis-trans isomerization)
CSC[C@@H]1C[C@@H](O)C/[N+]1=C(\O)CNC(=O)c1ccc2cc(F)ccc2n1 (3D coordinates assigned)
CSC[C@@H]1C[C@@H](O)C/[N+]1=C(\O)CNC(=O)c1ccc2cc(F)ccc2n1 (nonaromatic ring conformer: 50.42533612763204 kcal/mol)

>  <smiles>  (65) 
CSC[C@@H]1C[C@@H](O)CN1C(=O)CNC(=O)c1ccc2cc(F)ccc2n1

>  <score_type>  (65) 
oracle

>  <origin>  (65) 
autodockgpu

>  <m_score__min__energy>  (65) 
-7.6200000000000001

>  <m_primary>  (65) 
energy

>  <meeko>  (65) 
{"free_energy": -7.21, "intermolecular_energy": -9.6, "internal_energy": -1.44, "cluster_size": 8, "cluster_id": 1, "rank_in_cluster": 2}

>  <energy>  (65) 
-6.72

>  <cluster_rmsd>  (65) 
0.61

>  <rmsd>  (65) 
273.26

>  <cluster>  (65) 
1

$$$$
JXJFNMZAUJJYED-DRLXDTPMNA-O
     RDKit          3D

 47 49  0  0  0  0  0  0  0  0999 V2000
  139.0950   74.1480  222.7380 H   0  0  0  0  0  0  0  0  0  0  0  0
  139.7000   74.7980  222.2600 O   0  0  0  0  0  0  0  0  0  0  0  0
  140.6090   74.4210  221.2640 C   0  0  0  0  0  0  0  0  0  0  0  0
  141.4120   75.3070  220.7110 N   0  0  0  0  0  0  0  0  0  0  0  0
  141.2450   76.7470  220.8880 C   0  0  0  0  0  0  0  0  0  0  0  0
  141.4633   77.0301  221.9283 H   0  0  0  0  0  0  0  0  0  0  0  0
  140.2127   77.0580  220.6698 H   0  0  0  0  0  0  0  0  0  0  0  0
  142.2350   77.4160  219.9410 C   0  0  2  0  0  0  0  0  0  0  0  0
  143.0854   77.8613  220.4781 H   0  0  0  0  0  0  0  0  0  0  0  0
  141.6180   78.4670  219.2480 O   0  0  0  0  0  0  0  0  0  0  0  0
  142.3130   79.1540  219.0950 H   0  0  0  0  0  0  0  0  0  0  0  0
  142.7030   76.3140  218.9910 C   0  0  0  0  0  0  0  0  0  0  0  0
  143.7723   76.4329  218.7618 H   0  0  0  0  0  0  0  0  0  0  0  0
  142.1637   76.3459  218.0328 H   0  0  0  0  0  0  0  0  0  0  0  0
  142.4590   75.0000  219.7350 C   0  0  1  0  0  0  0  0  0  0  0  0
  142.1707   74.1929  219.0455 H   0  0  0  0  0  0  0  0  0  0  0  0
  143.7380   74.5240  220.4610 C   0  0  0  0  0  0  0  0  0  0  0  0
  143.5888   74.6201  221.5466 H   0  0  0  0  0  0  0  0  0  0  0  0
  144.5779   75.1486  220.1227 H   0  0  0  0  0  0  0  0  0  0  0  0
  144.1280   72.7780  220.0670 S   0  0  0  0  0  0  0  0  0  0  0  0
  145.9060   72.8730  220.4600 C   0  0  0  0  0  0  0  0  0  0  0  0
  146.0403   72.8802  221.5518 H   0  0  0  0  0  0  0  0  0  0  0  0
  146.4231   72.0012  220.0327 H   0  0  0  0  0  0  0  0  0  0  0  0
  146.3272   73.7949  220.0327 H   0  0  0  0  0  0  0  0  0  0  0  0
  140.5680   72.9830  220.8000 C   0  0  0  0  0  0  0  0  0  0  0  0
  139.6217   72.8038  220.2686 H   0  0  0  0  0  0  0  0  0  0  0  0
  141.4250   72.8062  220.1335 H   0  0  0  0  0  0  0  0  0  0  0  0
  140.6620   72.0620  221.9320 N   0  0  0  0  0  0  0  0  0  0  0  0
  141.6010   71.6680  222.1630 H   0  0  0  0  0  0  0  0  0  0  0  0
  139.5380   71.7590  222.7710 C   0  0  0  0  0  0  0  0  0  0  0  0
  138.4290   72.3210  222.5550 O   0  0  0  0  0  0  0  0  0  0  0  0
  139.6750   70.7970  223.8870 C   0  0  0  0  0  0  0  0  0  0  0  0
  140.2710   71.1880  225.0450 N   0  0  0  0  0  0  0  0  0  0  0  0
  140.4290   70.3500  226.1010 C   0  0  0  0  0  0  0  0  0  0  0  0
  141.0580   70.7950  227.2670 C   0  0  0  0  0  0  0  0  0  0  0  0
  141.4130   71.8337  227.3386 H   0  0  0  0  0  0  0  0  0  0  0  0
  141.2360   69.9190  228.3430 C   0  0  0  0  0  0  0  0  0  0  0  0
  141.7402   70.2681  229.2562 H   0  0  0  0  0  0  0  0  0  0  0  0
  140.7750   68.6000  228.2620 C   0  0  0  0  0  0  0  0  0  0  0  0
  140.9440   67.7600  229.3110 F   0  0  0  0  0  0  0  0  0  0  0  0
  140.1390   68.1510  227.1050 C   0  0  0  0  0  0  0  0  0  0  0  0
  139.7729   67.1154  227.0453 H   0  0  0  0  0  0  0  0  0  0  0  0
  139.9660   69.0200  226.0170 C   0  0  0  0  0  0  0  0  0  0  0  0
  139.3410   68.5960  224.8400 C   0  0  0  0  0  0  0  0  0  0  0  0
  138.9637   67.5661  224.7565 H   0  0  0  0  0  0  0  0  0  0  0  0
  139.1970   69.4820  223.7720 C   0  0  0  0  0  0  0  0  0  0  0  0
  138.7104   69.1512  222.8426 H   0  0  0  0  0  0  0  0  0  0  0  0
  1  2  1  0
  2  3  1  0
  3  4  2  0
  4  5  1  0
  5  6  1  0
  5  7  1  0
  5  8  1  0
  8  9  1  1
  8 10  1  0
 10 11  1  0
  8 12  1  0
 12 13  1  0
 12 14  1  0
 12 15  1  0
 15 16  1  6
 15 17  1  0
 17 18  1  0
 17 19  1  0
 17 20  1  0
 20 21  1  0
 21 22  1  0
 21 23  1  0
 21 24  1  0
  3 25  1  0
 25 26  1  0
 25 27  1  0
 25 28  1  0
 28 29  1  0
 28 30  1  0
 30 31  2  0
 30 32  1  0
 32 33  2  0
 33 34  1  0
 34 35  2  0
 35 36  1  0
 35 37  1  0
 37 38  1  0
 37 39  2  0
 39 40  1  0
 39 41  1  0
 41 42  1  0
 41 43  2  0
 43 44  1  0
 44 45  1  0
 44 46  2  0
 46 47  1  0
 15  4  1  0
 46 32  1  0
 43 34  1  0
M  CHG  1   4   1
M  END
>  <UniqueID>  (66) 
8

>  <SMILES>  (66) 
CSC[C@@H]1C[C@@H](O)C/[N+]1=C(\O)CNC(=O)c1ccc2cc(F)ccc2n1

>  <Energy>  (66) 
50.42533612763204

>  <Genealogy>  (66) 
CSC[C@@H]1C[C@@H](O)C[NH+]1C(=O)CNC(=O)c1ccc2cc(F)ccc2n1 (protonated)
CSC[C@@H]1C[C@@H](O)C[N+]1=C(O)CNC(=O)c1ccc2cc(F)ccc2n1 (tautomer)
CSC[C@@H]1C[C@@H](O)C/[N+]1=C(\O)CNC(=O)c1ccc2cc(F)ccc2n1 (cis-trans isomerization)
CSC[C@@H]1C[C@@H](O)C/[N+]1=C(\O)CNC(=O)c1ccc2cc(F)ccc2n1 (3D coordinates assigned)
CSC[C@@H]1C[C@@H](O)C/[N+]1=C(\O)CNC(=O)c1ccc2cc(F)ccc2n1 (nonaromatic ring conformer: 50.42533612763204 kcal/mol)

>  <smiles>  (66) 
CSC[C@@H]1C[C@@H](O)CN1C(=O)CNC(=O)c1ccc2cc(F)ccc2n1

>  <score_type>  (66) 
oracle

>  <origin>  (66) 
autodockgpu

>  <m_score__min__energy>  (66) 
-7.6200000000000001

>  <m_primary>  (66) 
energy

>  <meeko>  (66) 
{"free_energy": -6.82, "intermolecular_energy": -9.21, "internal_energy": -1.5, "cluster_size": 8, "cluster_id": 1, "rank_in_cluster": 4}

>  <energy>  (66) 
-6.6

>  <cluster_rmsd>  (66) 
1.48

>  <rmsd>  (66) 
273.25

>  <cluster>  (66) 
1

$$$$
JXJFNMZAUJJYED-DRLXDTPMNA-O
     RDKit          3D

 47 49  0  0  0  0  0  0  0  0999 V2000
  141.9200   74.2450  221.5920 H   0  0  0  0  0  0  0  0  0  0  0  0
  141.4410   75.0460  221.9720 O   0  0  0  0  0  0  0  0  0  0  0  0
  140.2590   75.5680  221.4330 C   0  0  0  0  0  0  0  0  0  0  0  0
  140.1430   76.8550  221.1760 N   0  0  0  0  0  0  0  0  0  0  0  0
  138.9710   77.4310  220.5230 C   0  0  0  0  0  0  0  0  0  0  0  0
  138.0970   77.3697  221.1881 H   0  0  0  0  0  0  0  0  0  0  0  0
  138.7235   76.8880  219.5989 H   0  0  0  0  0  0  0  0  0  0  0  0
  139.3100   78.8880  220.2320 C   0  0  2  0  0  0  0  0  0  0  0  0
  138.7704   79.5781  220.8972 H   0  0  0  0  0  0  0  0  0  0  0  0
  138.9310   79.2310  218.9260 O   0  0  0  0  0  0  0  0  0  0  0  0
  139.6090   78.8400  218.3220 H   0  0  0  0  0  0  0  0  0  0  0  0
  140.8210   79.0060  220.4290 C   0  0  0  0  0  0  0  0  0  0  0  0
  141.0737   79.9693  220.8961 H   0  0  0  0  0  0  0  0  0  0  0  0
  141.3619   78.9620  219.4722 H   0  0  0  0  0  0  0  0  0  0  0  0
  141.2050   77.8470  221.3520 C   0  0  1  0  0  0  0  0  0  0  0  0
  142.2002   77.4477  221.1066 H   0  0  0  0  0  0  0  0  0  0  0  0
  141.2660   78.3050  222.8270 C   0  0  0  0  0  0  0  0  0  0  0  0
  141.5206   77.4411  223.4585 H   0  0  0  0  0  0  0  0  0  0  0  0
  140.2828   78.7159  223.0999 H   0  0  0  0  0  0  0  0  0  0  0  0
  142.5220   79.6140  223.0770 S   0  0  0  0  0  0  0  0  0  0  0  0
  141.3460   80.9540  223.4600 C   0  0  0  0  0  0  0  0  0  0  0  0
  141.2532   81.0597  224.5510 H   0  0  0  0  0  0  0  0  0  0  0  0
  141.7127   81.8977  223.0300 H   0  0  0  0  0  0  0  0  0  0  0  0
  140.3626   80.7129  223.0300 H   0  0  0  0  0  0  0  0  0  0  0  0
  139.1060   74.6090  221.2400 C   0  0  0  0  0  0  0  0  0  0  0  0
  138.1630   75.1754  221.2444 H   0  0  0  0  0  0  0  0  0  0  0  0
  139.2406   74.0896  220.2798 H   0  0  0  0  0  0  0  0  0  0  0  0
  139.0680   73.6110  222.3060 N   0  0  0  0  0  0  0  0  0  0  0  0
  138.2840   73.6620  222.9940 H   0  0  0  0  0  0  0  0  0  0  0  0
  140.0110   72.5310  222.3810 C   0  0  0  0  0  0  0  0  0  0  0  0
  140.8910   72.4090  221.4870 O   0  0  0  0  0  0  0  0  0  0  0  0
  139.9500   71.5610  223.4970 C   0  0  0  0  0  0  0  0  0  0  0  0
  140.4730   71.8920  224.7080 N   0  0  0  0  0  0  0  0  0  0  0  0
  140.4500   71.0430  225.7670 C   0  0  0  0  0  0  0  0  0  0  0  0
  141.0100   71.4250  226.9890 C   0  0  0  0  0  0  0  0  0  0  0  0
  141.4562   72.4241  227.1012 H   0  0  0  0  0  0  0  0  0  0  0  0
  141.0030   70.5370  228.0690 C   0  0  0  0  0  0  0  0  0  0  0  0
  141.4541   70.8356  229.0268 H   0  0  0  0  0  0  0  0  0  0  0  0
  140.4240   69.2690  227.9360 C   0  0  0  0  0  0  0  0  0  0  0  0
  140.4130   68.4170  228.9890 F   0  0  0  0  0  0  0  0  0  0  0  0
  139.8560   68.8850  226.7210 C   0  0  0  0  0  0  0  0  0  0  0  0
  139.3974   67.8904  226.6190 H   0  0  0  0  0  0  0  0  0  0  0  0
  139.8690   69.7650  225.6300 C   0  0  0  0  0  0  0  0  0  0  0  0
  139.3160   69.4040  224.3980 C   0  0  0  0  0  0  0  0  0  0  0  0
  138.8485   68.4163  224.2721 H   0  0  0  0  0  0  0  0  0  0  0  0
  139.3580   70.2990  223.3280 C   0  0  0  0  0  0  0  0  0  0  0  0
  138.9287   70.0167  222.3554 H   0  0  0  0  0  0  0  0  0  0  0  0
  1  2  1  0
  2  3  1  0
  3  4  2  0
  4  5  1  0
  5  6  1  0
  5  7  1  0
  5  8  1  0
  8  9  1  1
  8 10  1  0
 10 11  1  0
  8 12  1  0
 12 13  1  0
 12 14  1  0
 12 15  1  0
 15 16  1  6
 15 17  1  0
 17 18  1  0
 17 19  1  0
 17 20  1  0
 20 21  1  0
 21 22  1  0
 21 23  1  0
 21 24  1  0
  3 25  1  0
 25 26  1  0
 25 27  1  0
 25 28  1  0
 28 29  1  0
 28 30  1  0
 30 31  2  0
 30 32  1  0
 32 33  2  0
 33 34  1  0
 34 35  2  0
 35 36  1  0
 35 37  1  0
 37 38  1  0
 37 39  2  0
 39 40  1  0
 39 41  1  0
 41 42  1  0
 41 43  2  0
 43 44  1  0
 44 45  1  0
 44 46  2  0
 46 47  1  0
 15  4  1  0
 46 32  1  0
 43 34  1  0
M  CHG  1   4   1
M  END
>  <UniqueID>  (67) 
8

>  <SMILES>  (67) 
CSC[C@@H]1C[C@@H](O)C/[N+]1=C(\O)CNC(=O)c1ccc2cc(F)ccc2n1

>  <Energy>  (67) 
50.42533612763204

>  <Genealogy>  (67) 
CSC[C@@H]1C[C@@H](O)C[NH+]1C(=O)CNC(=O)c1ccc2cc(F)ccc2n1 (protonated)
CSC[C@@H]1C[C@@H](O)C[N+]1=C(O)CNC(=O)c1ccc2cc(F)ccc2n1 (tautomer)
CSC[C@@H]1C[C@@H](O)C/[N+]1=C(\O)CNC(=O)c1ccc2cc(F)ccc2n1 (cis-trans isomerization)
CSC[C@@H]1C[C@@H](O)C/[N+]1=C(\O)CNC(=O)c1ccc2cc(F)ccc2n1 (3D coordinates assigned)
CSC[C@@H]1C[C@@H](O)C/[N+]1=C(\O)CNC(=O)c1ccc2cc(F)ccc2n1 (nonaromatic ring conformer: 50.42533612763204 kcal/mol)

>  <smiles>  (67) 
CSC[C@@H]1C[C@@H](O)CN1C(=O)CNC(=O)c1ccc2cc(F)ccc2n1

>  <score_type>  (67) 
oracle

>  <origin>  (67) 
autodockgpu

>  <m_score__min__energy>  (67) 
-7.6200000000000001

>  <m_primary>  (67) 
energy

>  <meeko>  (67) 
{"free_energy": -6.36, "intermolecular_energy": -8.75, "internal_energy": -1.39, "cluster_size": 12, "cluster_id": 2, "rank_in_cluster": 12}

>  <energy>  (67) 
-6.59

>  <cluster_rmsd>  (67) 
1.52

>  <rmsd>  (67) 
273.19

>  <cluster>  (67) 
1

$$$$
JXJFNMZAUJJYED-DRLXDTPMNA-O
     RDKit          3D

 47 49  0  0  0  0  0  0  0  0999 V2000
  138.7770   74.3910  222.9420 H   0  0  0  0  0  0  0  0  0  0  0  0
  139.3360   75.1800  222.6570 O   0  0  0  0  0  0  0  0  0  0  0  0
  140.2700   75.1320  221.6150 C   0  0  0  0  0  0  0  0  0  0  0  0
  140.7020   76.2370  221.0430 N   0  0  0  0  0  0  0  0  0  0  0  0
  141.1290   76.2920  219.6470 C   0  0  0  0  0  0  0  0  0  0  0  0
  140.2663   76.1491  218.9797 H   0  0  0  0  0  0  0  0  0  0  0  0
  141.8571   75.4988  219.4218 H   0  0  0  0  0  0  0  0  0  0  0  0
  141.7360   77.6750  219.4350 C   0  0  2  0  0  0  0  0  0  0  0  0
  141.0829   78.3256  218.8348 H   0  0  0  0  0  0  0  0  0  0  0  0
  142.9440   77.5790  218.7300 O   0  0  0  0  0  0  0  0  0  0  0  0
  143.6670   77.7740  219.3760 H   0  0  0  0  0  0  0  0  0  0  0  0
  141.9460   78.2510  220.8360 C   0  0  0  0  0  0  0  0  0  0  0  0
  141.7263   79.3288  220.8454 H   0  0  0  0  0  0  0  0  0  0  0  0
  142.9861   78.1328  221.1739 H   0  0  0  0  0  0  0  0  0  0  0  0
  140.9670   77.4980  221.7390 C   0  0  1  0  0  0  0  0  0  0  0  0
  141.3830   77.3457  222.7459 H   0  0  0  0  0  0  0  0  0  0  0  0
  139.6520   78.2900  221.9200 C   0  0  0  0  0  0  0  0  0  0  0  0
  138.8219   77.5794  222.0466 H   0  0  0  0  0  0  0  0  0  0  0  0
  139.5016   78.9153  221.0276 H   0  0  0  0  0  0  0  0  0  0  0  0
  139.7220   79.3890  223.3840 S   0  0  0  0  0  0  0  0  0  0  0  0
  141.4470   79.0140  223.8380 C   0  0  0  0  0  0  0  0  0  0  0  0
  141.5416   78.9934  224.9337 H   0  0  0  0  0  0  0  0  0  0  0  0
  141.7294   78.0335  223.4271 H   0  0  0  0  0  0  0  0  0  0  0  0
  142.1110   79.7888  223.4271 H   0  0  0  0  0  0  0  0  0  0  0  0
  140.6900   73.7640  221.1270 C   0  0  0  0  0  0  0  0  0  0  0  0
  139.9728   73.4174  220.3684 H   0  0  0  0  0  0  0  0  0  0  0  0
  141.6999   73.8411  220.6978 H   0  0  0  0  0  0  0  0  0  0  0  0
  140.7250   72.8010  222.2260 N   0  0  0  0  0  0  0  0  0  0  0  0
  141.6380   72.6450  222.7090 H   0  0  0  0  0  0  0  0  0  0  0  0
  139.5450   72.1420  222.7080 C   0  0  0  0  0  0  0  0  0  0  0  0
  138.4250   72.4150  222.1950 O   0  0  0  0  0  0  0  0  0  0  0  0
  139.6350   71.1530  223.8040 C   0  0  0  0  0  0  0  0  0  0  0  0
  140.2090   71.5040  224.9850 N   0  0  0  0  0  0  0  0  0  0  0  0
  140.3240   70.6390  226.0250 C   0  0  0  0  0  0  0  0  0  0  0  0
  140.9320   71.0450  227.2170 C   0  0  0  0  0  0  0  0  0  0  0  0
  141.3045   72.0747  227.3221 H   0  0  0  0  0  0  0  0  0  0  0  0
  141.0660   70.1410  228.2750 C   0  0  0  0  0  0  0  0  0  0  0  0
  141.5541   70.4587  229.2082 H   0  0  0  0  0  0  0  0  0  0  0  0
  140.5820   68.8340  228.1520 C   0  0  0  0  0  0  0  0  0  0  0  0
  140.7080   67.9670  229.1850 F   0  0  0  0  0  0  0  0  0  0  0  0
  139.9670   68.4250  226.9690 C   0  0  0  0  0  0  0  0  0  0  0  0
  139.5836   67.3982  226.8756 H   0  0  0  0  0  0  0  0  0  0  0  0
  139.8370   69.3210  225.8990 C   0  0  0  0  0  0  0  0  0  0  0  0
  139.2350   68.9370  224.6970 C   0  0  0  0  0  0  0  0  0  0  0  0
  138.8409   67.9168  224.5794 H   0  0  0  0  0  0  0  0  0  0  0  0
  139.1350   69.8500  223.6470 C   0  0  0  0  0  0  0  0  0  0  0  0
  138.6657   69.5501  222.6984 H   0  0  0  0  0  0  0  0  0  0  0  0
  1  2  1  0
  2  3  1  0
  3  4  2  0
  4  5  1  0
  5  6  1  0
  5  7  1  0
  5  8  1  0
  8  9  1  6
  8 10  1  0
 10 11  1  0
  8 12  1  0
 12 13  1  0
 12 14  1  0
 12 15  1  0
 15 16  1  1
 15 17  1  0
 17 18  1  0
 17 19  1  0
 17 20  1  0
 20 21  1  0
 21 22  1  0
 21 23  1  0
 21 24  1  0
  3 25  1  0
 25 26  1  0
 25 27  1  0
 25 28  1  0
 28 29  1  0
 28 30  1  0
 30 31  2  0
 30 32  1  0
 32 33  2  0
 33 34  1  0
 34 35  2  0
 35 36  1  0
 35 37  1  0
 37 38  1  0
 37 39  2  0
 39 40  1  0
 39 41  1  0
 41 42  1  0
 41 43  2  0
 43 44  1  0
 44 45  1  0
 44 46  2  0
 46 47  1  0
 15  4  1  0
 46 32  1  0
 43 34  1  0
M  CHG  1   4   1
M  END
>  <UniqueID>  (68) 
8

>  <SMILES>  (68) 
CSC[C@@H]1C[C@@H](O)C/[N+]1=C(\O)CNC(=O)c1ccc2cc(F)ccc2n1

>  <Energy>  (68) 
50.42533612763204

>  <Genealogy>  (68) 
CSC[C@@H]1C[C@@H](O)C[NH+]1C(=O)CNC(=O)c1ccc2cc(F)ccc2n1 (protonated)
CSC[C@@H]1C[C@@H](O)C[N+]1=C(O)CNC(=O)c1ccc2cc(F)ccc2n1 (tautomer)
CSC[C@@H]1C[C@@H](O)C/[N+]1=C(\O)CNC(=O)c1ccc2cc(F)ccc2n1 (cis-trans isomerization)
CSC[C@@H]1C[C@@H](O)C/[N+]1=C(\O)CNC(=O)c1ccc2cc(F)ccc2n1 (3D coordinates assigned)
CSC[C@@H]1C[C@@H](O)C/[N+]1=C(\O)CNC(=O)c1ccc2cc(F)ccc2n1 (nonaromatic ring conformer: 50.42533612763204 kcal/mol)

>  <smiles>  (68) 
CSC[C@@H]1C[C@@H](O)CN1C(=O)CNC(=O)c1ccc2cc(F)ccc2n1

>  <score_type>  (68) 
oracle

>  <origin>  (68) 
autodockgpu

>  <m_score__min__energy>  (68) 
-7.6200000000000001

>  <m_primary>  (68) 
energy

>  <meeko>  (68) 
{"free_energy": -7.22, "intermolecular_energy": -9.61, "internal_energy": -1.44, "cluster_size": 12, "cluster_id": 2, "rank_in_cluster": 3}

>  <energy>  (68) 
-6.58

>  <cluster_rmsd>  (68) 
1.34

>  <rmsd>  (68) 
273.05

>  <cluster>  (68) 
1

$$$$
JXJFNMZAUJJYED-DRLXDTPMNA-O
     RDKit          3D

 47 49  0  0  0  0  0  0  0  0999 V2000
  138.7950   74.4410  222.8960 H   0  0  0  0  0  0  0  0  0  0  0  0
  139.4820   75.1550  222.7100 O   0  0  0  0  0  0  0  0  0  0  0  0
  140.3700   75.1110  221.6280 C   0  0  0  0  0  0  0  0  0  0  0  0
  140.7760   76.2190  221.0410 N   0  0  0  0  0  0  0  0  0  0  0  0
  141.1920   76.2670  219.6420 C   0  0  0  0  0  0  0  0  0  0  0  0
  140.3280   76.0982  218.9825 H   0  0  0  0  0  0  0  0  0  0  0  0
  141.9352   75.4869  219.4206 H   0  0  0  0  0  0  0  0  0  0  0  0
  141.7680   77.6600  219.4100 C   0  0  2  0  0  0  0  0  0  0  0  0
  141.0976   78.2892  218.8060 H   0  0  0  0  0  0  0  0  0  0  0  0
  142.9740   77.5820  218.6990 O   0  0  0  0  0  0  0  0  0  0  0  0
  143.7020   77.6890  219.3590 H   0  0  0  0  0  0  0  0  0  0  0  0
  141.9740   78.2560  220.8030 C   0  0  0  0  0  0  0  0  0  0  0  0
  141.7315   79.3289  220.8016 H   0  0  0  0  0  0  0  0  0  0  0  0
  143.0184   78.1634  221.1356 H   0  0  0  0  0  0  0  0  0  0  0  0
  141.0170   77.4930  221.7210 C   0  0  1  0  0  0  0  0  0  0  0  0
  141.4415   77.3611  222.7272 H   0  0  0  0  0  0  0  0  0  0  0  0
  139.6870   78.2590  221.9020 C   0  0  0  0  0  0  0  0  0  0  0  0
  138.8604   77.5343  221.9411 H   0  0  0  0  0  0  0  0  0  0  0  0
  139.5679   78.9462  221.0514 H   0  0  0  0  0  0  0  0  0  0  0  0
  139.6820   79.2490  223.4420 S   0  0  0  0  0  0  0  0  0  0  0  0
  141.4480   79.0260  223.8350 C   0  0  0  0  0  0  0  0  0  0  0  0
  141.5814   79.0092  224.9268 H   0  0  0  0  0  0  0  0  0  0  0  0
  141.8016   78.0761  223.4077 H   0  0  0  0  0  0  0  0  0  0  0  0
  142.0267   79.8582  223.4077 H   0  0  0  0  0  0  0  0  0  0  0  0
  140.7720   73.7460  221.1190 C   0  0  0  0  0  0  0  0  0  0  0  0
  140.0436   73.4153  220.3640 H   0  0  0  0  0  0  0  0  0  0  0  0
  141.7779   73.8192  220.6798 H   0  0  0  0  0  0  0  0  0  0  0  0
  140.8100   72.7690  222.2060 N   0  0  0  0  0  0  0  0  0  0  0  0
  141.7400   72.5390  222.6220 H   0  0  0  0  0  0  0  0  0  0  0  0
  139.6190   72.1950  222.7650 C   0  0  0  0  0  0  0  0  0  0  0  0
  138.4910   72.5580  222.3340 O   0  0  0  0  0  0  0  0  0  0  0  0
  139.7100   71.1880  223.8450 C   0  0  0  0  0  0  0  0  0  0  0  0
  140.2510   71.5310  225.0440 N   0  0  0  0  0  0  0  0  0  0  0  0
  140.3650   70.6500  226.0710 C   0  0  0  0  0  0  0  0  0  0  0  0
  140.9380   71.0470  227.2810 C   0  0  0  0  0  0  0  0  0  0  0  0
  141.2839   72.0829  227.4123 H   0  0  0  0  0  0  0  0  0  0  0  0
  141.0720   70.1270  228.3260 C   0  0  0  0  0  0  0  0  0  0  0  0
  141.5339   70.4388  229.2744 H   0  0  0  0  0  0  0  0  0  0  0  0
  140.6210   68.8120  228.1700 C   0  0  0  0  0  0  0  0  0  0  0  0
  140.7460   67.9290  229.1890 F   0  0  0  0  0  0  0  0  0  0  0  0
  140.0390   68.4100  226.9670 C   0  0  0  0  0  0  0  0  0  0  0  0
  139.6807   67.3769  226.8474 H   0  0  0  0  0  0  0  0  0  0  0  0
  139.9110   69.3240  225.9100 C   0  0  0  0  0  0  0  0  0  0  0  0
  139.3420   68.9480  224.6890 C   0  0  0  0  0  0  0  0  0  0  0  0
  138.9735   67.9216  224.5452 H   0  0  0  0  0  0  0  0  0  0  0  0
  139.2430   69.8780  223.6540 C   0  0  0  0  0  0  0  0  0  0  0  0
  138.8001   69.5856  222.6905 H   0  0  0  0  0  0  0  0  0  0  0  0
  1  2  1  0
  2  3  1  0
  3  4  2  0
  4  5  1  0
  5  6  1  0
  5  7  1  0
  5  8  1  0
  8  9  1  6
  8 10  1  0
 10 11  1  0
  8 12  1  0
 12 13  1  0
 12 14  1  0
 12 15  1  0
 15 16  1  1
 15 17  1  0
 17 18  1  0
 17 19  1  0
 17 20  1  0
 20 21  1  0
 21 22  1  0
 21 23  1  0
 21 24  1  0
  3 25  1  0
 25 26  1  0
 25 27  1  0
 25 28  1  0
 28 29  1  0
 28 30  1  0
 30 31  2  0
 30 32  1  0
 32 33  2  0
 33 34  1  0
 34 35  2  0
 35 36  1  0
 35 37  1  0
 37 38  1  0
 37 39  2  0
 39 40  1  0
 39 41  1  0
 41 42  1  0
 41 43  2  0
 43 44  1  0
 44 45  1  0
 44 46  2  0
 46 47  1  0
 15  4  1  0
 46 32  1  0
 43 34  1  0
M  CHG  1   4   1
M  END
>  <UniqueID>  (69) 
8

>  <SMILES>  (69) 
CSC[C@@H]1C[C@@H](O)C/[N+]1=C(\O)CNC(=O)c1ccc2cc(F)ccc2n1

>  <Energy>  (69) 
50.42533612763204

>  <Genealogy>  (69) 
CSC[C@@H]1C[C@@H](O)C[NH+]1C(=O)CNC(=O)c1ccc2cc(F)ccc2n1 (protonated)
CSC[C@@H]1C[C@@H](O)C[N+]1=C(O)CNC(=O)c1ccc2cc(F)ccc2n1 (tautomer)
CSC[C@@H]1C[C@@H](O)C/[N+]1=C(\O)CNC(=O)c1ccc2cc(F)ccc2n1 (cis-trans isomerization)
CSC[C@@H]1C[C@@H](O)C/[N+]1=C(\O)CNC(=O)c1ccc2cc(F)ccc2n1 (3D coordinates assigned)
CSC[C@@H]1C[C@@H](O)C/[N+]1=C(\O)CNC(=O)c1ccc2cc(F)ccc2n1 (nonaromatic ring conformer: 50.42533612763204 kcal/mol)

>  <smiles>  (69) 
CSC[C@@H]1C[C@@H](O)CN1C(=O)CNC(=O)c1ccc2cc(F)ccc2n1

>  <score_type>  (69) 
oracle

>  <origin>  (69) 
autodockgpu

>  <m_score__min__energy>  (69) 
-7.6200000000000001

>  <m_primary>  (69) 
energy

>  <meeko>  (69) 
{"free_energy": -7.22, "intermolecular_energy": -9.61, "internal_energy": -1.44, "cluster_size": 12, "cluster_id": 2, "rank_in_cluster": 2}

>  <energy>  (69) 
-7.29

>  <cluster_rmsd>  (69) 
0.0

>  <rmsd>  (69) 
273.63

>  <cluster>  (69) 
2

$$$$
JXJFNMZAUJJYED-DRLXDTPMNA-O
     RDKit          3D

 47 49  0  0  0  0  0  0  0  0999 V2000
  138.7840   74.4470  222.9480 H   0  0  0  0  0  0  0  0  0  0  0  0
  139.4260   75.1900  222.7180 O   0  0  0  0  0  0  0  0  0  0  0  0
  140.3270   75.1300  221.6480 C   0  0  0  0  0  0  0  0  0  0  0  0
  140.7500   76.2290  221.0580 N   0  0  0  0  0  0  0  0  0  0  0  0
  141.1730   76.2660  219.6610 C   0  0  0  0  0  0  0  0  0  0  0  0
  140.3097   76.1065  218.9982 H   0  0  0  0  0  0  0  0  0  0  0  0
  141.9066   75.4749  219.4463 H   0  0  0  0  0  0  0  0  0  0  0  0
  141.7690   77.6490  219.4260 C   0  0  2  0  0  0  0  0  0  0  0  0
  141.1093   78.2852  218.8177 H   0  0  0  0  0  0  0  0  0  0  0  0
  142.9760   77.5510  218.7190 O   0  0  0  0  0  0  0  0  0  0  0  0
  143.6900   77.8620  219.3290 H   0  0  0  0  0  0  0  0  0  0  0  0
  141.9790   78.2480  220.8170 C   0  0  0  0  0  0  0  0  0  0  0  0
  141.7521   79.3243  220.8104 H   0  0  0  0  0  0  0  0  0  0  0  0
  143.0208   78.1423  221.1540 H   0  0  0  0  0  0  0  0  0  0  0  0
  141.0070   77.5020  221.7340 C   0  0  1  0  0  0  0  0  0  0  0  0
  141.4257   77.3674  222.7423 H   0  0  0  0  0  0  0  0  0  0  0  0
  139.6880   78.2880  221.9070 C   0  0  0  0  0  0  0  0  0  0  0  0
  138.8476   77.5782  221.9102 H   0  0  0  0  0  0  0  0  0  0  0  0
  139.5998   78.9988  221.0721 H   0  0  0  0  0  0  0  0  0  0  0  0
  139.6680   79.2390  223.4720 S   0  0  0  0  0  0  0  0  0  0  0  0
  141.4360   79.0250  223.8630 C   0  0  0  0  0  0  0  0  0  0  0  0
  141.5708   79.0087  224.9546 H   0  0  0  0  0  0  0  0  0  0  0  0
  141.7940   78.0770  223.4352 H   0  0  0  0  0  0  0  0  0  0  0  0
  142.0099   79.8602  223.4352 H   0  0  0  0  0  0  0  0  0  0  0  0
  140.7220   73.7570  221.1530 C   0  0  0  0  0  0  0  0  0  0  0  0
  139.9930   73.4230  220.4000 H   0  0  0  0  0  0  0  0  0  0  0  0
  141.7290   73.8197  220.7148 H   0  0  0  0  0  0  0  0  0  0  0  0
  140.7520   72.7910  222.2500 N   0  0  0  0  0  0  0  0  0  0  0  0
  141.6670   72.6140  222.7200 H   0  0  0  0  0  0  0  0  0  0  0  0
  139.5640   72.1570  222.7480 C   0  0  0  0  0  0  0  0  0  0  0  0
  138.4430   72.4540  222.2510 O   0  0  0  0  0  0  0  0  0  0  0  0
  139.6480   71.1630  223.8400 C   0  0  0  0  0  0  0  0  0  0  0  0
  140.2190   71.5090  225.0240 N   0  0  0  0  0  0  0  0  0  0  0  0
  140.3290   70.6400  226.0620 C   0  0  0  0  0  0  0  0  0  0  0  0
  140.9340   71.0390  227.2560 C   0  0  0  0  0  0  0  0  0  0  0  0
  141.3098   72.0670  227.3654 H   0  0  0  0  0  0  0  0  0  0  0  0
  141.0620   70.1320  228.3120 C   0  0  0  0  0  0  0  0  0  0  0  0
  141.5473   70.4458  229.2480 H   0  0  0  0  0  0  0  0  0  0  0  0
  140.5750   68.8260  228.1830 C   0  0  0  0  0  0  0  0  0  0  0  0
  140.6950   67.9550  229.2130 F   0  0  0  0  0  0  0  0  0  0  0  0
  139.9620   68.4230  226.9960 C   0  0  0  0  0  0  0  0  0  0  0  0
  139.5758   67.3977  226.8974 H   0  0  0  0  0  0  0  0  0  0  0  0
  139.8380   69.3240  225.9290 C   0  0  0  0  0  0  0  0  0  0  0  0
  139.2380   68.9460  224.7240 C   0  0  0  0  0  0  0  0  0  0  0  0
  138.8407   67.9275  224.6022 H   0  0  0  0  0  0  0  0  0  0  0  0
  139.1440   69.8620  223.6770 C   0  0  0  0  0  0  0  0  0  0  0  0
  138.6765   69.5667  222.7261 H   0  0  0  0  0  0  0  0  0  0  0  0
  1  2  1  0
  2  3  1  0
  3  4  2  0
  4  5  1  0
  5  6  1  0
  5  7  1  0
  5  8  1  0
  8  9  1  6
  8 10  1  0
 10 11  1  0
  8 12  1  0
 12 13  1  0
 12 14  1  0
 12 15  1  0
 15 16  1  1
 15 17  1  0
 17 18  1  0
 17 19  1  0
 17 20  1  0
 20 21  1  0
 21 22  1  0
 21 23  1  0
 21 24  1  0
  3 25  1  0
 25 26  1  0
 25 27  1  0
 25 28  1  0
 28 29  1  0
 28 30  1  0
 30 31  2  0
 30 32  1  0
 32 33  2  0
 33 34  1  0
 34 35  2  0
 35 36  1  0
 35 37  1  0
 37 38  1  0
 37 39  2  0
 39 40  1  0
 39 41  1  0
 41 42  1  0
 41 43  2  0
 43 44  1  0
 44 45  1  0
 44 46  2  0
 46 47  1  0
 15  4  1  0
 46 32  1  0
 43 34  1  0
M  CHG  1   4   1
M  END
>  <UniqueID>  (70) 
8

>  <SMILES>  (70) 
CSC[C@@H]1C[C@@H](O)C/[N+]1=C(\O)CNC(=O)c1ccc2cc(F)ccc2n1

>  <Energy>  (70) 
50.42533612763204

>  <Genealogy>  (70) 
CSC[C@@H]1C[C@@H](O)C[NH+]1C(=O)CNC(=O)c1ccc2cc(F)ccc2n1 (protonated)
CSC[C@@H]1C[C@@H](O)C[N+]1=C(O)CNC(=O)c1ccc2cc(F)ccc2n1 (tautomer)
CSC[C@@H]1C[C@@H](O)C/[N+]1=C(\O)CNC(=O)c1ccc2cc(F)ccc2n1 (cis-trans isomerization)
CSC[C@@H]1C[C@@H](O)C/[N+]1=C(\O)CNC(=O)c1ccc2cc(F)ccc2n1 (3D coordinates assigned)
CSC[C@@H]1C[C@@H](O)C/[N+]1=C(\O)CNC(=O)c1ccc2cc(F)ccc2n1 (nonaromatic ring conformer: 50.42533612763204 kcal/mol)

>  <smiles>  (70) 
CSC[C@@H]1C[C@@H](O)CN1C(=O)CNC(=O)c1ccc2cc(F)ccc2n1

>  <score_type>  (70) 
oracle

>  <origin>  (70) 
autodockgpu

>  <m_score__min__energy>  (70) 
-7.6200000000000001

>  <m_primary>  (70) 
energy

>  <meeko>  (70) 
{"free_energy": -7.19, "intermolecular_energy": -9.57, "internal_energy": -1.46, "cluster_size": 12, "cluster_id": 2, "rank_in_cluster": 6}

>  <energy>  (70) 
-7.22

>  <cluster_rmsd>  (70) 
0.82

>  <rmsd>  (70) 
273.68

>  <cluster>  (70) 
2

$$$$
JXJFNMZAUJJYED-DRLXDTPMNA-O
     RDKit          3D

 47 49  0  0  0  0  0  0  0  0999 V2000
  138.8080   74.4490  222.9120 H   0  0  0  0  0  0  0  0  0  0  0  0
  139.4920   75.1640  222.7160 O   0  0  0  0  0  0  0  0  0  0  0  0
  140.3780   75.1090  221.6330 C   0  0  0  0  0  0  0  0  0  0  0  0
  140.7930   76.2110  221.0420 N   0  0  0  0  0  0  0  0  0  0  0  0
  141.2170   76.2500  219.6460 C   0  0  0  0  0  0  0  0  0  0  0  0
  140.3559   76.0821  218.9824 H   0  0  0  0  0  0  0  0  0  0  0  0
  141.9577   75.4652  219.4330 H   0  0  0  0  0  0  0  0  0  0  0  0
  141.8010   77.6380  219.4100 C   0  0  2  0  0  0  0  0  0  0  0  0
  141.1364   78.2674  218.8000 H   0  0  0  0  0  0  0  0  0  0  0  0
  143.0100   77.5500  218.7050 O   0  0  0  0  0  0  0  0  0  0  0  0
  143.7160   77.8930  219.3060 H   0  0  0  0  0  0  0  0  0  0  0  0
  142.0040   78.2400  220.8000 C   0  0  0  0  0  0  0  0  0  0  0  0
  141.7677   79.3143  220.7919 H   0  0  0  0  0  0  0  0  0  0  0  0
  143.0463   78.1436  221.1381 H   0  0  0  0  0  0  0  0  0  0  0  0
  141.0380   77.4870  221.7170 C   0  0  1  0  0  0  0  0  0  0  0  0
  141.4570   77.3580  222.7258 H   0  0  0  0  0  0  0  0  0  0  0  0
  139.7110   78.2610  221.8880 C   0  0  0  0  0  0  0  0  0  0  0  0
  138.8772   77.5435  221.8893 H   0  0  0  0  0  0  0  0  0  0  0  0
  139.6180   78.9714  221.0533 H   0  0  0  0  0  0  0  0  0  0  0  0
  139.6790   79.2110  223.4530 S   0  0  0  0  0  0  0  0  0  0  0  0
  141.4550   79.0440  223.8300 C   0  0  0  0  0  0  0  0  0  0  0  0
  141.5987   79.0305  224.9205 H   0  0  0  0  0  0  0  0  0  0  0  0
  141.8348   78.1062  223.3985 H   0  0  0  0  0  0  0  0  0  0  0  0
  142.0030   79.8946  223.3985 H   0  0  0  0  0  0  0  0  0  0  0  0
  140.7670   73.7380  221.1280 C   0  0  0  0  0  0  0  0  0  0  0  0
  140.0331   73.4104  220.3770 H   0  0  0  0  0  0  0  0  0  0  0  0
  141.7720   73.8013  220.6852 H   0  0  0  0  0  0  0  0  0  0  0  0
  140.8010   72.7650  222.2180 N   0  0  0  0  0  0  0  0  0  0  0  0
  141.7280   72.5420  222.6440 H   0  0  0  0  0  0  0  0  0  0  0  0
  139.6080   72.1860  222.7670 C   0  0  0  0  0  0  0  0  0  0  0  0
  138.4820   72.5400  222.3240 O   0  0  0  0  0  0  0  0  0  0  0  0
  139.6950   71.1820  223.8510 C   0  0  0  0  0  0  0  0  0  0  0  0
  140.2520   71.5220  225.0430 N   0  0  0  0  0  0  0  0  0  0  0  0
  140.3630   70.6440  226.0720 C   0  0  0  0  0  0  0  0  0  0  0  0
  140.9530   71.0390  227.2760 C   0  0  0  0  0  0  0  0  0  0  0  0
  141.3149   72.0704  227.3992 H   0  0  0  0  0  0  0  0  0  0  0  0
  141.0830   70.1220  228.3240 C   0  0  0  0  0  0  0  0  0  0  0  0
  141.5574   70.4316  229.2670 H   0  0  0  0  0  0  0  0  0  0  0  0
  140.6120   68.8120  228.1780 C   0  0  0  0  0  0  0  0  0  0  0  0
  140.7340   67.9320  229.2000 F   0  0  0  0  0  0  0  0  0  0  0  0
  140.0140   68.4140  226.9820 C   0  0  0  0  0  0  0  0  0  0  0  0
  139.6402   67.3855  226.8702 H   0  0  0  0  0  0  0  0  0  0  0  0
  139.8890   69.3240  225.9220 C   0  0  0  0  0  0  0  0  0  0  0  0
  139.3030   68.9510  224.7090 C   0  0  0  0  0  0  0  0  0  0  0  0
  138.9183   67.9293  224.5740 H   0  0  0  0  0  0  0  0  0  0  0  0
  139.2070   69.8770  223.6700 C   0  0  0  0  0  0  0  0  0  0  0  0
  138.7507   69.5864  222.7122 H   0  0  0  0  0  0  0  0  0  0  0  0
  1  2  1  0
  2  3  1  0
  3  4  2  0
  4  5  1  0
  5  6  1  0
  5  7  1  0
  5  8  1  0
  8  9  1  6
  8 10  1  0
 10 11  1  0
  8 12  1  0
 12 13  1  0
 12 14  1  0
 12 15  1  0
 15 16  1  1
 15 17  1  0
 17 18  1  0
 17 19  1  0
 17 20  1  0
 20 21  1  0
 21 22  1  0
 21 23  1  0
 21 24  1  0
  3 25  1  0
 25 26  1  0
 25 27  1  0
 25 28  1  0
 28 29  1  0
 28 30  1  0
 30 31  2  0
 30 32  1  0
 32 33  2  0
 33 34  1  0
 34 35  2  0
 35 36  1  0
 35 37  1  0
 37 38  1  0
 37 39  2  0
 39 40  1  0
 39 41  1  0
 41 42  1  0
 41 43  2  0
 43 44  1  0
 44 45  1  0
 44 46  2  0
 46 47  1  0
 15  4  1  0
 46 32  1  0
 43 34  1  0
M  CHG  1   4   1
M  END
>  <UniqueID>  (71) 
8

>  <SMILES>  (71) 
CSC[C@@H]1C[C@@H](O)C/[N+]1=C(\O)CNC(=O)c1ccc2cc(F)ccc2n1

>  <Energy>  (71) 
50.42533612763204

>  <Genealogy>  (71) 
CSC[C@@H]1C[C@@H](O)C[NH+]1C(=O)CNC(=O)c1ccc2cc(F)ccc2n1 (protonated)
CSC[C@@H]1C[C@@H](O)C[N+]1=C(O)CNC(=O)c1ccc2cc(F)ccc2n1 (tautomer)
CSC[C@@H]1C[C@@H](O)C/[N+]1=C(\O)CNC(=O)c1ccc2cc(F)ccc2n1 (cis-trans isomerization)
CSC[C@@H]1C[C@@H](O)C/[N+]1=C(\O)CNC(=O)c1ccc2cc(F)ccc2n1 (3D coordinates assigned)
CSC[C@@H]1C[C@@H](O)C/[N+]1=C(\O)CNC(=O)c1ccc2cc(F)ccc2n1 (nonaromatic ring conformer: 50.42533612763204 kcal/mol)

>  <smiles>  (71) 
CSC[C@@H]1C[C@@H](O)CN1C(=O)CNC(=O)c1ccc2cc(F)ccc2n1

>  <score_type>  (71) 
oracle

>  <origin>  (71) 
autodockgpu

>  <m_score__min__energy>  (71) 
-7.6200000000000001

>  <m_primary>  (71) 
energy

>  <meeko>  (71) 
{"free_energy": -7.2, "intermolecular_energy": -9.58, "internal_energy": -1.45, "cluster_size": 12, "cluster_id": 2, "rank_in_cluster": 5}

>  <energy>  (71) 
-7.22

>  <cluster_rmsd>  (71) 
0.79

>  <rmsd>  (71) 
273.65

>  <cluster>  (71) 
2

$$$$
JXJFNMZAUJJYED-DRLXDTPMNA-O
     RDKit          3D

 47 49  0  0  0  0  0  0  0  0999 V2000
  138.3780   74.9460  223.1150 H   0  0  0  0  0  0  0  0  0  0  0  0
  138.9900   75.6540  222.7390 O   0  0  0  0  0  0  0  0  0  0  0  0
  139.9200   75.4110  221.7210 C   0  0  0  0  0  0  0  0  0  0  0  0
  140.5130   76.4080  221.0950 N   0  0  0  0  0  0  0  0  0  0  0  0
  140.9680   76.3160  219.7110 C   0  0  0  0  0  0  0  0  0  0  0  0
  140.1057   76.2522  219.0310 H   0  0  0  0  0  0  0  0  0  0  0  0
  141.5823   75.4172  219.5533 H   0  0  0  0  0  0  0  0  0  0  0  0
  141.7660   77.5850  219.4320 C   0  0  2  0  0  0  0  0  0  0  0  0
  141.2223   78.2807  218.7760 H   0  0  0  0  0  0  0  0  0  0  0  0
  142.9610   77.2780  218.7670 O   0  0  0  0  0  0  0  0  0  0  0  0
  143.6990   77.5380  219.3720 H   0  0  0  0  0  0  0  0  0  0  0  0
  142.0280   78.2130  220.8010 C   0  0  0  0  0  0  0  0  0  0  0  0
  141.9608   79.3092  220.7400 H   0  0  0  0  0  0  0  0  0  0  0  0
  143.0349   77.9733  221.1734 H   0  0  0  0  0  0  0  0  0  0  0  0
  140.9370   77.6610  221.7210 C   0  0  1  0  0  0  0  0  0  0  0  0
  141.3077   77.5156  222.7464 H   0  0  0  0  0  0  0  0  0  0  0  0
  139.7440   78.6380  221.8200 C   0  0  0  0  0  0  0  0  0  0  0  0
  138.8080   78.0692  221.7187 H   0  0  0  0  0  0  0  0  0  0  0  0
  139.8421   79.3818  221.0156 H   0  0  0  0  0  0  0  0  0  0  0  0
  139.7280   79.5270  223.4210 S   0  0  0  0  0  0  0  0  0  0  0  0
  141.4710   79.2060  223.8500 C   0  0  0  0  0  0  0  0  0  0  0  0
  141.5815   79.1856  224.9443 H   0  0  0  0  0  0  0  0  0  0  0  0
  141.7788   78.2361  223.4323 H   0  0  0  0  0  0  0  0  0  0  0  0
  142.1041   80.0026  223.4323 H   0  0  0  0  0  0  0  0  0  0  0  0
  140.1460   73.9710  221.3210 C   0  0  0  0  0  0  0  0  0  0  0  0
  139.4189   73.6959  220.5428 H   0  0  0  0  0  0  0  0  0  0  0  0
  141.1739   73.8707  220.9425 H   0  0  0  0  0  0  0  0  0  0  0  0
  139.9830   73.0760  222.4640 N   0  0  0  0  0  0  0  0  0  0  0  0
  139.5560   73.4670  223.3330 H   0  0  0  0  0  0  0  0  0  0  0  0
  140.3080   71.6790  222.3990 C   0  0  0  0  0  0  0  0  0  0  0  0
  140.7230   71.1860  221.3140 O   0  0  0  0  0  0  0  0  0  0  0  0
  140.1550   70.8180  223.5920 C   0  0  0  0  0  0  0  0  0  0  0  0
  140.6480   71.2310  224.7900 N   0  0  0  0  0  0  0  0  0  0  0  0
  140.5410   70.4840  225.9180 C   0  0  0  0  0  0  0  0  0  0  0  0
  141.0720   70.9470  227.1240 C   0  0  0  0  0  0  0  0  0  0  0  0
  141.5650   71.9294  227.1666 H   0  0  0  0  0  0  0  0  0  0  0  0
  140.9770   70.1620  228.2770 C   0  0  0  0  0  0  0  0  0  0  0  0
  141.4050   70.5244  229.2233 H   0  0  0  0  0  0  0  0  0  0  0  0
  140.3390   68.9160  228.2320 C   0  0  0  0  0  0  0  0  0  0  0  0
  140.2430   68.1650  229.3540 F   0  0  0  0  0  0  0  0  0  0  0  0
  139.7990   68.4510  227.0330 C   0  0  0  0  0  0  0  0  0  0  0  0
  139.2945   67.4741  226.9996 H   0  0  0  0  0  0  0  0  0  0  0  0
  139.8990   69.2290  225.8690 C   0  0  0  0  0  0  0  0  0  0  0  0
  139.3760   68.7850  224.6510 C   0  0  0  0  0  0  0  0  0  0  0  0
  138.8636   67.8134  224.5928 H   0  0  0  0  0  0  0  0  0  0  0  0
  139.5050   69.5760  223.5100 C   0  0  0  0  0  0  0  0  0  0  0  0
  139.0989   69.2282  222.5487 H   0  0  0  0  0  0  0  0  0  0  0  0
  1  2  1  0
  2  3  1  0
  3  4  2  0
  4  5  1  0
  5  6  1  0
  5  7  1  0
  5  8  1  0
  8  9  1  6
  8 10  1  0
 10 11  1  0
  8 12  1  0
 12 13  1  0
 12 14  1  0
 12 15  1  0
 15 16  1  1
 15 17  1  0
 17 18  1  0
 17 19  1  0
 17 20  1  0
 20 21  1  0
 21 22  1  0
 21 23  1  0
 21 24  1  0
  3 25  1  0
 25 26  1  0
 25 27  1  0
 25 28  1  0
 28 29  1  0
 28 30  1  0
 30 31  2  0
 30 32  1  0
 32 33  2  0
 33 34  1  0
 34 35  2  0
 35 36  1  0
 35 37  1  0
 37 38  1  0
 37 39  2  0
 39 40  1  0
 39 41  1  0
 41 42  1  0
 41 43  2  0
 43 44  1  0
 44 45  1  0
 44 46  2  0
 46 47  1  0
 15  4  1  0
 46 32  1  0
 43 34  1  0
M  CHG  1   4   1
M  END
>  <UniqueID>  (72) 
8

>  <SMILES>  (72) 
CSC[C@@H]1C[C@@H](O)C/[N+]1=C(\O)CNC(=O)c1ccc2cc(F)ccc2n1

>  <Energy>  (72) 
50.42533612763204

>  <Genealogy>  (72) 
CSC[C@@H]1C[C@@H](O)C[NH+]1C(=O)CNC(=O)c1ccc2cc(F)ccc2n1 (protonated)
CSC[C@@H]1C[C@@H](O)C[N+]1=C(O)CNC(=O)c1ccc2cc(F)ccc2n1 (tautomer)
CSC[C@@H]1C[C@@H](O)C/[N+]1=C(\O)CNC(=O)c1ccc2cc(F)ccc2n1 (cis-trans isomerization)
CSC[C@@H]1C[C@@H](O)C/[N+]1=C(\O)CNC(=O)c1ccc2cc(F)ccc2n1 (3D coordinates assigned)
CSC[C@@H]1C[C@@H](O)C/[N+]1=C(\O)CNC(=O)c1ccc2cc(F)ccc2n1 (nonaromatic ring conformer: 50.42533612763204 kcal/mol)

>  <smiles>  (72) 
CSC[C@@H]1C[C@@H](O)CN1C(=O)CNC(=O)c1ccc2cc(F)ccc2n1

>  <score_type>  (72) 
oracle

>  <origin>  (72) 
autodockgpu

>  <m_score__min__energy>  (72) 
-7.6200000000000001

>  <m_primary>  (72) 
energy

>  <meeko>  (72) 
{"free_energy": -7.29, "intermolecular_energy": -9.67, "internal_energy": -1.17, "cluster_size": 12, "cluster_id": 2, "rank_in_cluster": 1}

>  <energy>  (72) 
-7.21

>  <cluster_rmsd>  (72) 
0.81

>  <rmsd>  (72) 
273.68

>  <cluster>  (72) 
2

$$$$
JXJFNMZAUJJYED-DRLXDTPMNA-O
     RDKit          3D

 47 49  0  0  0  0  0  0  0  0999 V2000
  141.8640   76.5000  222.8900 H   0  0  0  0  0  0  0  0  0  0  0  0
  141.0370   76.1780  222.4100 O   0  0  0  0  0  0  0  0  0  0  0  0
  141.0580   75.6090  221.1310 C   0  0  0  0  0  0  0  0  0  0  0  0
  141.8500   76.0860  220.1910 N   0  0  0  0  0  0  0  0  0  0  0  0
  141.8100   77.4770  219.7520 C   0  0  0  0  0  0  0  0  0  0  0  0
  142.1727   78.1387  220.5524 H   0  0  0  0  0  0  0  0  0  0  0  0
  140.7839   77.7869  219.5050 H   0  0  0  0  0  0  0  0  0  0  0  0
  142.7230   77.5730  218.5350 C   0  0  2  0  0  0  0  0  0  0  0  0
  143.6614   78.0999  218.7625 H   0  0  0  0  0  0  0  0  0  0  0  0
  142.1040   78.3050  217.5120 O   0  0  0  0  0  0  0  0  0  0  0  0
  142.0380   79.2390  217.8290 H   0  0  0  0  0  0  0  0  0  0  0  0
  142.9930   76.1300  218.1100 C   0  0  0  0  0  0  0  0  0  0  0  0
  144.0324   76.0184  217.7677 H   0  0  0  0  0  0  0  0  0  0  0  0
  142.3454   75.8230  217.2755 H   0  0  0  0  0  0  0  0  0  0  0  0
  142.7480   75.2820  219.3590 C   0  0  1  0  0  0  0  0  0  0  0  0
  142.3225   74.3004  219.1034 H   0  0  0  0  0  0  0  0  0  0  0  0
  144.0670   75.0050  220.1150 C   0  0  0  0  0  0  0  0  0  0  0  0
  143.9795   75.3954  221.1397 H   0  0  0  0  0  0  0  0  0  0  0  0
  144.8845   75.5024  219.5725 H   0  0  0  0  0  0  0  0  0  0  0  0
  144.4390   73.2140  220.1920 S   0  0  0  0  0  0  0  0  0  0  0  0
  145.9180   73.3580  221.2490 C   0  0  0  0  0  0  0  0  0  0  0  0
  145.6171   73.3287  222.3066 H   0  0  0  0  0  0  0  0  0  0  0  0
  146.6016   72.5222  221.0390 H   0  0  0  0  0  0  0  0  0  0  0  0
  146.4275   74.3100  221.0390 H   0  0  0  0  0  0  0  0  0  0  0  0
  140.0810   74.4890  220.8570 C   0  0  0  0  0  0  0  0  0  0  0  0
  139.1093   74.9207  220.5750 H   0  0  0  0  0  0  0  0  0  0  0  0
  140.4800   73.8691  220.0406 H   0  0  0  0  0  0  0  0  0  0  0  0
  139.9040   73.6450  222.0370 N   0  0  0  0  0  0  0  0  0  0  0  0
  139.5230   74.0900  222.9020 H   0  0  0  0  0  0  0  0  0  0  0  0
  140.1520   72.2310  222.0150 C   0  0  0  0  0  0  0  0  0  0  0  0
  140.5070   71.6780  220.9380 O   0  0  0  0  0  0  0  0  0  0  0  0
  139.9870   71.4230  223.2430 C   0  0  0  0  0  0  0  0  0  0  0  0
  140.4600   71.8930  224.4280 N   0  0  0  0  0  0  0  0  0  0  0  0
  140.3420   71.1950  225.5870 C   0  0  0  0  0  0  0  0  0  0  0  0
  140.8530   71.7160  226.7790 C   0  0  0  0  0  0  0  0  0  0  0  0
  141.3381   72.7032  226.7850 H   0  0  0  0  0  0  0  0  0  0  0  0
  140.7470   70.9810  227.9640 C   0  0  0  0  0  0  0  0  0  0  0  0
  141.1598   71.3872  228.8992 H   0  0  0  0  0  0  0  0  0  0  0  0
  140.1180   69.7310  227.9650 C   0  0  0  0  0  0  0  0  0  0  0  0
  140.0120   69.0290  229.1190 F   0  0  0  0  0  0  0  0  0  0  0  0
  139.5980   69.2090  226.7810 C   0  0  0  0  0  0  0  0  0  0  0  0
  139.1007   68.2279  226.7845 H   0  0  0  0  0  0  0  0  0  0  0  0
  139.7090   69.9350  225.5850 C   0  0  0  0  0  0  0  0  0  0  0  0
  139.2060   69.4330  224.3810 C   0  0  0  0  0  0  0  0  0  0  0  0
  138.7010   68.4560  224.3593 H   0  0  0  0  0  0  0  0  0  0  0  0
  139.3460   70.1740  223.2070 C   0  0  0  0  0  0  0  0  0  0  0  0
  138.9556   69.7812  222.2566 H   0  0  0  0  0  0  0  0  0  0  0  0
  1  2  1  0
  2  3  1  0
  3  4  2  0
  4  5  1  0
  5  6  1  0
  5  7  1  0
  5  8  1  0
  8  9  1  1
  8 10  1  0
 10 11  1  0
  8 12  1  0
 12 13  1  0
 12 14  1  0
 12 15  1  0
 15 16  1  6
 15 17  1  0
 17 18  1  0
 17 19  1  0
 17 20  1  0
 20 21  1  0
 21 22  1  0
 21 23  1  0
 21 24  1  0
  3 25  1  0
 25 26  1  0
 25 27  1  0
 25 28  1  0
 28 29  1  0
 28 30  1  0
 30 31  2  0
 30 32  1  0
 32 33  2  0
 33 34  1  0
 34 35  2  0
 35 36  1  0
 35 37  1  0
 37 38  1  0
 37 39  2  0
 39 40  1  0
 39 41  1  0
 41 42  1  0
 41 43  2  0
 43 44  1  0
 44 45  1  0
 44 46  2  0
 46 47  1  0
 15  4  1  0
 46 32  1  0
 43 34  1  0
M  CHG  1   4   1
M  END
>  <UniqueID>  (73) 
8

>  <SMILES>  (73) 
CSC[C@@H]1C[C@@H](O)C/[N+]1=C(\O)CNC(=O)c1ccc2cc(F)ccc2n1

>  <Energy>  (73) 
50.42533612763204

>  <Genealogy>  (73) 
CSC[C@@H]1C[C@@H](O)C[NH+]1C(=O)CNC(=O)c1ccc2cc(F)ccc2n1 (protonated)
CSC[C@@H]1C[C@@H](O)C[N+]1=C(O)CNC(=O)c1ccc2cc(F)ccc2n1 (tautomer)
CSC[C@@H]1C[C@@H](O)C/[N+]1=C(\O)CNC(=O)c1ccc2cc(F)ccc2n1 (cis-trans isomerization)
CSC[C@@H]1C[C@@H](O)C/[N+]1=C(\O)CNC(=O)c1ccc2cc(F)ccc2n1 (3D coordinates assigned)
CSC[C@@H]1C[C@@H](O)C/[N+]1=C(\O)CNC(=O)c1ccc2cc(F)ccc2n1 (nonaromatic ring conformer: 50.42533612763204 kcal/mol)

>  <smiles>  (73) 
CSC[C@@H]1C[C@@H](O)CN1C(=O)CNC(=O)c1ccc2cc(F)ccc2n1

>  <score_type>  (73) 
oracle

>  <origin>  (73) 
autodockgpu

>  <m_score__min__energy>  (73) 
-7.6200000000000001

>  <m_primary>  (73) 
energy

>  <meeko>  (73) 
{"free_energy": -7.03, "intermolecular_energy": -9.41, "internal_energy": -1.04, "cluster_size": 8, "cluster_id": 1, "rank_in_cluster": 3}

>  <energy>  (73) 
-7.2

>  <cluster_rmsd>  (73) 
0.82

>  <rmsd>  (73) 
273.69

>  <cluster>  (73) 
2

$$$$
JXJFNMZAUJJYED-DRLXDTPMNA-O
     RDKit          3D

 47 49  0  0  0  0  0  0  0  0999 V2000
  138.8620   74.1160  222.9220 H   0  0  0  0  0  0  0  0  0  0  0  0
  139.2700   74.9120  222.4550 O   0  0  0  0  0  0  0  0  0  0  0  0
  140.2750   74.8070  221.4860 C   0  0  0  0  0  0  0  0  0  0  0  0
  140.7960   75.8850  220.9340 N   0  0  0  0  0  0  0  0  0  0  0  0
  141.4630   75.8650  219.6350 C   0  0  0  0  0  0  0  0  0  0  0  0
  140.7331   75.6687  218.8358 H   0  0  0  0  0  0  0  0  0  0  0  0
  142.2243   75.0722  219.5904 H   0  0  0  0  0  0  0  0  0  0  0  0
  142.0890   77.2420  219.4500 C   0  0  2  0  0  0  0  0  0  0  0  0
  141.5479   77.8448  218.7058 H   0  0  0  0  0  0  0  0  0  0  0  0
  143.4040   77.1250  218.9760 O   0  0  0  0  0  0  0  0  0  0  0  0
  143.7990   78.0310  219.0070 H   0  0  0  0  0  0  0  0  0  0  0  0
  142.0450   77.9030  220.8280 C   0  0  0  0  0  0  0  0  0  0  0  0
  141.8213   78.9758  220.7330 H   0  0  0  0  0  0  0  0  0  0  0  0
  143.0095   77.8223  221.3507 H   0  0  0  0  0  0  0  0  0  0  0  0
  140.9250   77.1880  221.5880 C   0  0  1  0  0  0  0  0  0  0  0  0
  141.1559   77.1013  222.6600 H   0  0  0  0  0  0  0  0  0  0  0  0
  139.5950   77.9680  221.4870 C   0  0  0  0  0  0  0  0  0  0  0  0
  138.7908   77.2682  221.2160 H   0  0  0  0  0  0  0  0  0  0  0  0
  139.7122   78.7487  220.7210 H   0  0  0  0  0  0  0  0  0  0  0  0
  139.1660   78.7810  223.0710 S   0  0  0  0  0  0  0  0  0  0  0  0
  140.8520   79.3480  223.4720 C   0  0  0  0  0  0  0  0  0  0  0  0
  140.9749   79.3893  224.5643 H   0  0  0  0  0  0  0  0  0  0  0  0
  141.5854   78.6471  223.0468 H   0  0  0  0  0  0  0  0  0  0  0  0
  141.0128   80.3497  223.0468 H   0  0  0  0  0  0  0  0  0  0  0  0
  140.6710   73.4160  221.0490 C   0  0  0  0  0  0  0  0  0  0  0  0
  139.9389   73.0481  220.3150 H   0  0  0  0  0  0  0  0  0  0  0  0
  141.6757   73.4629  220.6035 H   0  0  0  0  0  0  0  0  0  0  0  0
  140.7100   72.4980  222.1850 N   0  0  0  0  0  0  0  0  0  0  0  0
  141.6310   72.3370  222.6510 H   0  0  0  0  0  0  0  0  0  0  0  0
  139.5250   71.8910  222.7230 C   0  0  0  0  0  0  0  0  0  0  0  0
  138.4000   72.1720  222.2270 O   0  0  0  0  0  0  0  0  0  0  0  0
  139.6180   70.9450  223.8560 C   0  0  0  0  0  0  0  0  0  0  0  0
  140.2170   71.3330  225.0130 N   0  0  0  0  0  0  0  0  0  0  0  0
  140.3350   70.5090  226.0850 C   0  0  0  0  0  0  0  0  0  0  0  0
  140.9690   70.9510  227.2490 C   0  0  0  0  0  0  0  0  0  0  0  0
  141.3604   71.9774  227.3061 H   0  0  0  0  0  0  0  0  0  0  0  0
  141.1060   70.0890  228.3410 C   0  0  0  0  0  0  0  0  0  0  0  0
  141.6138   70.4361  229.2529 H   0  0  0  0  0  0  0  0  0  0  0  0
  140.5990   68.7850  228.2780 C   0  0  0  0  0  0  0  0  0  0  0  0
  140.7290   67.9580  229.3430 F   0  0  0  0  0  0  0  0  0  0  0  0
  139.9580   68.3390  227.1220 C   0  0  0  0  0  0  0  0  0  0  0  0
  139.5562   67.3161  227.0756 H   0  0  0  0  0  0  0  0  0  0  0  0
  139.8260   69.1950  226.0190 C   0  0  0  0  0  0  0  0  0  0  0  0
  139.1970   68.7730  224.8430 C   0  0  0  0  0  0  0  0  0  0  0  0
  138.7845   67.7557  224.7731 H   0  0  0  0  0  0  0  0  0  0  0  0
  139.0940   69.6450  223.7590 C   0  0  0  0  0  0  0  0  0  0  0  0
  138.6039   69.3157  222.8309 H   0  0  0  0  0  0  0  0  0  0  0  0
  1  2  1  0
  2  3  1  0
  3  4  2  0
  4  5  1  0
  5  6  1  0
  5  7  1  0
  5  8  1  0
  8  9  1  6
  8 10  1  0
 10 11  1  0
  8 12  1  0
 12 13  1  0
 12 14  1  0
 12 15  1  0
 15 16  1  1
 15 17  1  0
 17 18  1  0
 17 19  1  0
 17 20  1  0
 20 21  1  0
 21 22  1  0
 21 23  1  0
 21 24  1  0
  3 25  1  0
 25 26  1  0
 25 27  1  0
 25 28  1  0
 28 29  1  0
 28 30  1  0
 30 31  2  0
 30 32  1  0
 32 33  2  0
 33 34  1  0
 34 35  2  0
 35 36  1  0
 35 37  1  0
 37 38  1  0
 37 39  2  0
 39 40  1  0
 39 41  1  0
 41 42  1  0
 41 43  2  0
 43 44  1  0
 44 45  1  0
 44 46  2  0
 46 47  1  0
 15  4  1  0
 46 32  1  0
 43 34  1  0
M  CHG  1   4   1
M  END
>  <UniqueID>  (74) 
8

>  <SMILES>  (74) 
CSC[C@@H]1C[C@@H](O)C/[N+]1=C(\O)CNC(=O)c1ccc2cc(F)ccc2n1

>  <Energy>  (74) 
50.42533612763204

>  <Genealogy>  (74) 
CSC[C@@H]1C[C@@H](O)C[NH+]1C(=O)CNC(=O)c1ccc2cc(F)ccc2n1 (protonated)
CSC[C@@H]1C[C@@H](O)C[N+]1=C(O)CNC(=O)c1ccc2cc(F)ccc2n1 (tautomer)
CSC[C@@H]1C[C@@H](O)C/[N+]1=C(\O)CNC(=O)c1ccc2cc(F)ccc2n1 (cis-trans isomerization)
CSC[C@@H]1C[C@@H](O)C/[N+]1=C(\O)CNC(=O)c1ccc2cc(F)ccc2n1 (3D coordinates assigned)
CSC[C@@H]1C[C@@H](O)C/[N+]1=C(\O)CNC(=O)c1ccc2cc(F)ccc2n1 (nonaromatic ring conformer: 50.42533612763204 kcal/mol)

>  <smiles>  (74) 
CSC[C@@H]1C[C@@H](O)CN1C(=O)CNC(=O)c1ccc2cc(F)ccc2n1

>  <score_type>  (74) 
oracle

>  <origin>  (74) 
autodockgpu

>  <m_score__min__energy>  (74) 
-7.6200000000000001

>  <m_primary>  (74) 
energy

>  <meeko>  (74) 
{"free_energy": -6.97, "intermolecular_energy": -9.35, "internal_energy": -1.45, "cluster_size": 12, "cluster_id": 2, "rank_in_cluster": 8}

>  <energy>  (74) 
-7.19

>  <cluster_rmsd>  (74) 
0.8

>  <rmsd>  (74) 
273.68

>  <cluster>  (74) 
2

$$$$
JXJFNMZAUJJYED-DRLXDTPMNA-O
     RDKit          3D

 47 49  0  0  0  0  0  0  0  0999 V2000
  138.0050   75.2810  223.4260 H   0  0  0  0  0  0  0  0  0  0  0  0
  138.3040   75.9260  222.7100 O   0  0  0  0  0  0  0  0  0  0  0  0
  139.0700   75.5500  221.6010 C   0  0  0  0  0  0  0  0  0  0  0  0
  139.9840   76.3600  221.1040 N   0  0  0  0  0  0  0  0  0  0  0  0
  140.8070   76.0120  219.9500 C   0  0  0  0  0  0  0  0  0  0  0  0
  140.1884   75.9679  219.0415 H   0  0  0  0  0  0  0  0  0  0  0  0
  141.2771   75.0259  220.0794 H   0  0  0  0  0  0  0  0  0  0  0  0
  141.8560   77.1100  219.8200 C   0  0  2  0  0  0  0  0  0  0  0  0
  141.6576   77.7712  218.9636 H   0  0  0  0  0  0  0  0  0  0  0  0
  143.1240   76.5560  219.5980 O   0  0  0  0  0  0  0  0  0  0  0  0
  143.7790   77.1630  220.0220 H   0  0  0  0  0  0  0  0  0  0  0  0
  141.8040   77.8860  221.1370 C   0  0  0  0  0  0  0  0  0  0  0  0
  141.9467   78.9615  220.9554 H   0  0  0  0  0  0  0  0  0  0  0  0
  142.5986   77.5696  221.8287 H   0  0  0  0  0  0  0  0  0  0  0  0
  140.4110   77.6210  221.7130 C   0  0  1  0  0  0  0  0  0  0  0  0
  140.4304   77.5746  222.8118 H   0  0  0  0  0  0  0  0  0  0  0  0
  139.4270   78.7520  221.3380 C   0  0  0  0  0  0  0  0  0  0  0  0
  138.5154   78.3056  220.9140 H   0  0  0  0  0  0  0  0  0  0  0  0
  139.9210   79.4083  220.6064 H   0  0  0  0  0  0  0  0  0  0  0  0
  138.9710   79.7620  222.7950 S   0  0  0  0  0  0  0  0  0  0  0  0
  140.6560   79.9080  223.4780 C   0  0  0  0  0  0  0  0  0  0  0  0
  140.6078   79.9038  224.5769 H   0  0  0  0  0  0  0  0  0  0  0  0
  141.2657   79.0593  223.1345 H   0  0  0  0  0  0  0  0  0  0  0  0
  141.1106   80.8489  223.1345 H   0  0  0  0  0  0  0  0  0  0  0  0
  138.7470   74.2210  220.9560 C   0  0  0  0  0  0  0  0  0  0  0  0
  137.7445   74.2739  220.5064 H   0  0  0  0  0  0  0  0  0  0  0  0
  139.5048   74.0123  220.1865 H   0  0  0  0  0  0  0  0  0  0  0  0
  138.7730   73.1400  221.9390 N   0  0  0  0  0  0  0  0  0  0  0  0
  137.8880   72.6120  222.1070 H   0  0  0  0  0  0  0  0  0  0  0  0
  139.9800   72.7340  222.6010 C   0  0  0  0  0  0  0  0  0  0  0  0
  141.0700   73.3010  222.3150 O   0  0  0  0  0  0  0  0  0  0  0  0
  139.9520   71.6530  223.6110 C   0  0  0  0  0  0  0  0  0  0  0  0
  140.4740   71.8700  224.8470 N   0  0  0  0  0  0  0  0  0  0  0  0
  140.4800   70.9160  225.8130 C   0  0  0  0  0  0  0  0  0  0  0  0
  141.0380   71.1840  227.0660 C   0  0  0  0  0  0  0  0  0  0  0  0
  141.4597   72.1773  227.2795 H   0  0  0  0  0  0  0  0  0  0  0  0
  141.0600   70.1890  228.0480 C   0  0  0  0  0  0  0  0  0  0  0  0
  141.5082   70.3988  229.0304 H   0  0  0  0  0  0  0  0  0  0  0  0
  140.5140   68.9270  227.7860 C   0  0  0  0  0  0  0  0  0  0  0  0
  140.5320   67.9710  228.7450 F   0  0  0  0  0  0  0  0  0  0  0  0
  139.9480   68.6550  226.5400 C   0  0  0  0  0  0  0  0  0  0  0  0
  139.5149   67.6644  226.3373 H   0  0  0  0  0  0  0  0  0  0  0  0
  139.9310   69.6440  225.5460 C   0  0  0  0  0  0  0  0  0  0  0  0
  139.3800   69.3980  224.2850 C   0  0  0  0  0  0  0  0  0  0  0  0
  138.9377   68.4165  224.0590 H   0  0  0  0  0  0  0  0  0  0  0  0
  139.3920   70.3990  223.3140 C   0  0  0  0  0  0  0  0  0  0  0  0
  138.9644   70.2074  222.3188 H   0  0  0  0  0  0  0  0  0  0  0  0
  1  2  1  0
  2  3  1  0
  3  4  2  0
  4  5  1  0
  5  6  1  0
  5  7  1  0
  5  8  1  0
  8  9  1  6
  8 10  1  0
 10 11  1  0
  8 12  1  0
 12 13  1  0
 12 14  1  0
 12 15  1  0
 15 16  1  1
 15 17  1  0
 17 18  1  0
 17 19  1  0
 17 20  1  0
 20 21  1  0
 21 22  1  0
 21 23  1  0
 21 24  1  0
  3 25  1  0
 25 26  1  0
 25 27  1  0
 25 28  1  0
 28 29  1  0
 28 30  1  0
 30 31  2  0
 30 32  1  0
 32 33  2  0
 33 34  1  0
 34 35  2  0
 35 36  1  0
 35 37  1  0
 37 38  1  0
 37 39  2  0
 39 40  1  0
 39 41  1  0
 41 42  1  0
 41 43  2  0
 43 44  1  0
 44 45  1  0
 44 46  2  0
 46 47  1  0
 15  4  1  0
 46 32  1  0
 43 34  1  0
M  CHG  1   4   1
M  END
>  <UniqueID>  (75) 
8

>  <SMILES>  (75) 
CSC[C@@H]1C[C@@H](O)C/[N+]1=C(\O)CNC(=O)c1ccc2cc(F)ccc2n1

>  <Energy>  (75) 
50.42533612763204

>  <Genealogy>  (75) 
CSC[C@@H]1C[C@@H](O)C[NH+]1C(=O)CNC(=O)c1ccc2cc(F)ccc2n1 (protonated)
CSC[C@@H]1C[C@@H](O)C[N+]1=C(O)CNC(=O)c1ccc2cc(F)ccc2n1 (tautomer)
CSC[C@@H]1C[C@@H](O)C/[N+]1=C(\O)CNC(=O)c1ccc2cc(F)ccc2n1 (cis-trans isomerization)
CSC[C@@H]1C[C@@H](O)C/[N+]1=C(\O)CNC(=O)c1ccc2cc(F)ccc2n1 (3D coordinates assigned)
CSC[C@@H]1C[C@@H](O)C/[N+]1=C(\O)CNC(=O)c1ccc2cc(F)ccc2n1 (nonaromatic ring conformer: 50.42533612763204 kcal/mol)

>  <smiles>  (75) 
CSC[C@@H]1C[C@@H](O)CN1C(=O)CNC(=O)c1ccc2cc(F)ccc2n1

>  <score_type>  (75) 
oracle

>  <origin>  (75) 
autodockgpu

>  <m_score__min__energy>  (75) 
-7.6200000000000001

>  <m_primary>  (75) 
energy

>  <meeko>  (75) 
{"free_energy": -6.77, "intermolecular_energy": -9.16, "internal_energy": -0.92, "cluster_size": 12, "cluster_id": 2, "rank_in_cluster": 9}

>  <energy>  (75) 
-6.98

>  <cluster_rmsd>  (75) 
0.85

>  <rmsd>  (75) 
273.6

>  <cluster>  (75) 
2

$$$$
JXJFNMZAUJJYED-DRLXDTPMNA-O
     RDKit          3D

 47 49  0  0  0  0  0  0  0  0999 V2000
  139.7690   71.8410  219.6560 H   0  0  0  0  0  0  0  0  0  0  0  0
  140.3270   72.6180  219.3380 O   0  0  0  0  0  0  0  0  0  0  0  0
  140.5510   73.7720  220.1000 C   0  0  0  0  0  0  0  0  0  0  0  0
  141.6620   74.4680  219.9620 N   0  0  0  0  0  0  0  0  0  0  0  0
  141.7230   75.9120  220.1730 C   0  0  0  0  0  0  0  0  0  0  0  0
  141.5730   76.1475  221.2370 H   0  0  0  0  0  0  0  0  0  0  0  0
  140.9370   76.4311  219.6049 H   0  0  0  0  0  0  0  0  0  0  0  0
  143.1110   76.3550  219.7260 C   0  0  2  0  0  0  0  0  0  0  0  0
  143.7557   76.6156  220.5783 H   0  0  0  0  0  0  0  0  0  0  0  0
  143.0280   77.5090  218.9330 O   0  0  0  0  0  0  0  0  0  0  0  0
  143.6950   78.1470  219.2880 H   0  0  0  0  0  0  0  0  0  0  0  0
  143.6870   75.1750  218.9430 C   0  0  0  0  0  0  0  0  0  0  0  0
  144.7626   75.0673  219.1465 H   0  0  0  0  0  0  0  0  0  0  0  0
  143.5780   75.3142  217.8573 H   0  0  0  0  0  0  0  0  0  0  0  0
  142.9240   73.9440  219.4360 C   0  0  1  0  0  0  0  0  0  0  0  0
  142.7745   73.2112  218.6293 H   0  0  0  0  0  0  0  0  0  0  0  0
  143.7030   73.2150  220.5540 C   0  0  0  0  0  0  0  0  0  0  0  0
  143.1839   72.2761  220.7967 H   0  0  0  0  0  0  0  0  0  0  0  0
  143.7471   73.8780  221.4307 H   0  0  0  0  0  0  0  0  0  0  0  0
  145.4180   72.8300  220.0410 S   0  0  0  0  0  0  0  0  0  0  0  0
  146.2250   73.4220  221.5660 C   0  0  0  0  0  0  0  0  0  0  0  0
  145.6881   73.0282  222.4416 H   0  0  0  0  0  0  0  0  0  0  0  0
  147.2680   73.0732  221.5880 H   0  0  0  0  0  0  0  0  0  0  0  0
  146.2055   74.5216  221.5880 H   0  0  0  0  0  0  0  0  0  0  0  0
  139.5090   74.1290  221.1350 C   0  0  0  0  0  0  0  0  0  0  0  0
  139.6623   75.1702  221.4550 H   0  0  0  0  0  0  0  0  0  0  0  0
  138.5128   74.0058  220.6851 H   0  0  0  0  0  0  0  0  0  0  0  0
  139.6040   73.2520  222.3010 N   0  0  0  0  0  0  0  0  0  0  0  0
  139.7360   73.6970  223.2360 H   0  0  0  0  0  0  0  0  0  0  0  0
  139.4360   71.8300  222.2080 C   0  0  0  0  0  0  0  0  0  0  0  0
  139.1670   71.3050  221.0920 O   0  0  0  0  0  0  0  0  0  0  0  0
  139.5700   70.9800  223.4110 C   0  0  0  0  0  0  0  0  0  0  0  0
  140.1280   71.4920  224.5400 N   0  0  0  0  0  0  0  0  0  0  0  0
  140.2810   70.7610  225.6730 C   0  0  0  0  0  0  0  0  0  0  0  0
  140.8700   71.3290  226.8060 C   0  0  0  0  0  0  0  0  0  0  0  0
  141.1960   72.3794  226.7880 H   0  0  0  0  0  0  0  0  0  0  0  0
  141.0450   70.5630  227.9620 C   0  0  0  0  0  0  0  0  0  0  0  0
  141.5188   71.0092  228.8488 H   0  0  0  0  0  0  0  0  0  0  0  0
  140.6190   69.2290  227.9950 C   0  0  0  0  0  0  0  0  0  0  0  0
  140.7840   68.4950  229.1220 F   0  0  0  0  0  0  0  0  0  0  0  0
  140.0230   68.6580  226.8710 C   0  0  0  0  0  0  0  0  0  0  0  0
  139.6859   67.6113  226.8997 H   0  0  0  0  0  0  0  0  0  0  0  0
  139.8530   69.4170  225.7040 C   0  0  0  0  0  0  0  0  0  0  0  0
  139.2680   68.8690  224.5590 C   0  0  0  0  0  0  0  0  0  0  0  0
  138.9185   67.8260  224.5644 H   0  0  0  0  0  0  0  0  0  0  0  0
  139.1280   69.6470  223.4090 C   0  0  0  0  0  0  0  0  0  0  0  0
  138.6731   69.2177  222.5042 H   0  0  0  0  0  0  0  0  0  0  0  0
  1  2  1  0
  2  3  1  0
  3  4  2  0
  4  5  1  0
  5  6  1  0
  5  7  1  0
  5  8  1  0
  8  9  1  1
  8 10  1  0
 10 11  1  0
  8 12  1  0
 12 13  1  0
 12 14  1  0
 12 15  1  0
 15 16  1  6
 15 17  1  0
 17 18  1  0
 17 19  1  0
 17 20  1  0
 20 21  1  0
 21 22  1  0
 21 23  1  0
 21 24  1  0
  3 25  1  0
 25 26  1  0
 25 27  1  0
 25 28  1  0
 28 29  1  0
 28 30  1  0
 30 31  2  0
 30 32  1  0
 32 33  2  0
 33 34  1  0
 34 35  2  0
 35 36  1  0
 35 37  1  0
 37 38  1  0
 37 39  2  0
 39 40  1  0
 39 41  1  0
 41 42  1  0
 41 43  2  0
 43 44  1  0
 44 45  1  0
 44 46  2  0
 46 47  1  0
 15  4  1  0
 46 32  1  0
 43 34  1  0
M  CHG  1   4   1
M  END
>  <UniqueID>  (76) 
8

>  <SMILES>  (76) 
CSC[C@@H]1C[C@@H](O)C/[N+]1=C(\O)CNC(=O)c1ccc2cc(F)ccc2n1

>  <Energy>  (76) 
50.42533612763204

>  <Genealogy>  (76) 
CSC[C@@H]1C[C@@H](O)C[NH+]1C(=O)CNC(=O)c1ccc2cc(F)ccc2n1 (protonated)
CSC[C@@H]1C[C@@H](O)C[N+]1=C(O)CNC(=O)c1ccc2cc(F)ccc2n1 (tautomer)
CSC[C@@H]1C[C@@H](O)C/[N+]1=C(\O)CNC(=O)c1ccc2cc(F)ccc2n1 (cis-trans isomerization)
CSC[C@@H]1C[C@@H](O)C/[N+]1=C(\O)CNC(=O)c1ccc2cc(F)ccc2n1 (3D coordinates assigned)
CSC[C@@H]1C[C@@H](O)C/[N+]1=C(\O)CNC(=O)c1ccc2cc(F)ccc2n1 (nonaromatic ring conformer: 50.42533612763204 kcal/mol)

>  <smiles>  (76) 
CSC[C@@H]1C[C@@H](O)CN1C(=O)CNC(=O)c1ccc2cc(F)ccc2n1

>  <score_type>  (76) 
oracle

>  <origin>  (76) 
autodockgpu

>  <m_score__min__energy>  (76) 
-7.6200000000000001

>  <m_primary>  (76) 
energy

>  <meeko>  (76) 
{"free_energy": -6.58, "intermolecular_energy": -8.96, "internal_energy": -1.71, "cluster_size": 8, "cluster_id": 1, "rank_in_cluster": 8}

>  <energy>  (76) 
-6.97

>  <cluster_rmsd>  (76) 
0.9

>  <rmsd>  (76) 
273.57

>  <cluster>  (76) 
2

$$$$
JXJFNMZAUJJYED-DRLXDTPMNA-O
     RDKit          3D

 47 49  0  0  0  0  0  0  0  0999 V2000
  139.9450   71.4760  220.1370 H   0  0  0  0  0  0  0  0  0  0  0  0
  140.6630   72.1360  219.8800 O   0  0  0  0  0  0  0  0  0  0  0  0
  140.8220   73.3840  220.4930 C   0  0  0  0  0  0  0  0  0  0  0  0
  141.8590   74.1490  220.2110 N   0  0  0  0  0  0  0  0  0  0  0  0
  141.8570   75.5940  220.4190 C   0  0  0  0  0  0  0  0  0  0  0  0
  141.8360   75.8232  221.4947 H   0  0  0  0  0  0  0  0  0  0  0  0
  140.9711   76.0606  219.9635 H   0  0  0  0  0  0  0  0  0  0  0  0
  143.1420   76.1220  219.7930 C   0  0  2  0  0  0  0  0  0  0  0  0
  143.8773   76.4254  220.5529 H   0  0  0  0  0  0  0  0  0  0  0  0
  142.8820   77.2660  219.0250 O   0  0  0  0  0  0  0  0  0  0  0  0
  143.5220   77.9590  219.3200 H   0  0  0  0  0  0  0  0  0  0  0  0
  143.6810   74.9780  218.9340 C   0  0  0  0  0  0  0  0  0  0  0  0
  144.7788   74.9387  218.9913 H   0  0  0  0  0  0  0  0  0  0  0  0
  143.4195   75.1063  217.8733 H   0  0  0  0  0  0  0  0  0  0  0  0
  143.0690   73.7030  219.5190 C   0  0  1  0  0  0  0  0  0  0  0  0
  142.8585   72.9591  218.7365 H   0  0  0  0  0  0  0  0  0  0  0  0
  144.0350   73.0280  220.5180 C   0  0  0  0  0  0  0  0  0  0  0  0
  143.8918   71.9383  220.4717 H   0  0  0  0  0  0  0  0  0  0  0  0
  143.8117   73.4121  221.5243 H   0  0  0  0  0  0  0  0  0  0  0  0
  145.7840   73.4140  220.1340 S   0  0  0  0  0  0  0  0  0  0  0  0
  146.3790   73.3960  221.8580 C   0  0  0  0  0  0  0  0  0  0  0  0
  145.5188   73.4220  222.5431 H   0  0  0  0  0  0  0  0  0  0  0  0
  146.9614   72.4798  222.0353 H   0  0  0  0  0  0  0  0  0  0  0  0
  147.0157   74.2753  222.0353 H   0  0  0  0  0  0  0  0  0  0  0  0
  139.8060   73.7730  221.5420 C   0  0  0  0  0  0  0  0  0  0  0  0
  140.0157   74.7976  221.8829 H   0  0  0  0  0  0  0  0  0  0  0  0
  138.8023   73.7120  221.0962 H   0  0  0  0  0  0  0  0  0  0  0  0
  139.8610   72.8680  222.6880 N   0  0  0  0  0  0  0  0  0  0  0  0
  140.1040   73.2750  223.6190 H   0  0  0  0  0  0  0  0  0  0  0  0
  139.5120   71.4790  222.5880 C   0  0  0  0  0  0  0  0  0  0  0  0
  139.1140   71.0150  221.4850 O   0  0  0  0  0  0  0  0  0  0  0  0
  139.6120   70.5960  223.7700 C   0  0  0  0  0  0  0  0  0  0  0  0
  140.1900   71.0570  224.9110 N   0  0  0  0  0  0  0  0  0  0  0  0
  140.3140   70.2920  226.0250 C   0  0  0  0  0  0  0  0  0  0  0  0
  140.9250   70.8090  227.1710 C   0  0  0  0  0  0  0  0  0  0  0  0
  141.2923   71.8458  227.1787 H   0  0  0  0  0  0  0  0  0  0  0  0
  141.0690   70.0070  228.3080 C   0  0  0  0  0  0  0  0  0  0  0  0
  141.5604   70.4113  229.2052 H   0  0  0  0  0  0  0  0  0  0  0  0
  140.5900   68.6920  228.3080 C   0  0  0  0  0  0  0  0  0  0  0  0
  140.7250   67.9240  229.4160 F   0  0  0  0  0  0  0  0  0  0  0  0
  139.9710   68.1730  227.1710 C   0  0  0  0  0  0  0  0  0  0  0  0
  139.5908   67.1408  227.1750 H   0  0  0  0  0  0  0  0  0  0  0  0
  139.8330   68.9660  226.0230 C   0  0  0  0  0  0  0  0  0  0  0  0
  139.2260   68.4700  224.8650 C   0  0  0  0  0  0  0  0  0  0  0  0
  138.8354   67.4419  224.8444 H   0  0  0  0  0  0  0  0  0  0  0  0
  139.1170   69.2820  223.7360 C   0  0  0  0  0  0  0  0  0  0  0  0
  138.6446   68.8942  222.8214 H   0  0  0  0  0  0  0  0  0  0  0  0
  1  2  1  0
  2  3  1  0
  3  4  2  0
  4  5  1  0
  5  6  1  0
  5  7  1  0
  5  8  1  0
  8  9  1  1
  8 10  1  0
 10 11  1  0
  8 12  1  0
 12 13  1  0
 12 14  1  0
 12 15  1  0
 15 16  1  6
 15 17  1  0
 17 18  1  0
 17 19  1  0
 17 20  1  0
 20 21  1  0
 21 22  1  0
 21 23  1  0
 21 24  1  0
  3 25  1  0
 25 26  1  0
 25 27  1  0
 25 28  1  0
 28 29  1  0
 28 30  1  0
 30 31  2  0
 30 32  1  0
 32 33  2  0
 33 34  1  0
 34 35  2  0
 35 36  1  0
 35 37  1  0
 37 38  1  0
 37 39  2  0
 39 40  1  0
 39 41  1  0
 41 42  1  0
 41 43  2  0
 43 44  1  0
 44 45  1  0
 44 46  2  0
 46 47  1  0
 15  4  1  0
 46 32  1  0
 43 34  1  0
M  CHG  1   4   1
M  END
>  <UniqueID>  (77) 
8

>  <SMILES>  (77) 
CSC[C@@H]1C[C@@H](O)C/[N+]1=C(\O)CNC(=O)c1ccc2cc(F)ccc2n1

>  <Energy>  (77) 
50.42533612763204

>  <Genealogy>  (77) 
CSC[C@@H]1C[C@@H](O)C[NH+]1C(=O)CNC(=O)c1ccc2cc(F)ccc2n1 (protonated)
CSC[C@@H]1C[C@@H](O)C[N+]1=C(O)CNC(=O)c1ccc2cc(F)ccc2n1 (tautomer)
CSC[C@@H]1C[C@@H](O)C/[N+]1=C(\O)CNC(=O)c1ccc2cc(F)ccc2n1 (cis-trans isomerization)
CSC[C@@H]1C[C@@H](O)C/[N+]1=C(\O)CNC(=O)c1ccc2cc(F)ccc2n1 (3D coordinates assigned)
CSC[C@@H]1C[C@@H](O)C/[N+]1=C(\O)CNC(=O)c1ccc2cc(F)ccc2n1 (nonaromatic ring conformer: 50.42533612763204 kcal/mol)

>  <smiles>  (77) 
CSC[C@@H]1C[C@@H](O)CN1C(=O)CNC(=O)c1ccc2cc(F)ccc2n1

>  <score_type>  (77) 
oracle

>  <origin>  (77) 
autodockgpu

>  <m_score__min__energy>  (77) 
-7.6200000000000001

>  <m_primary>  (77) 
energy

>  <meeko>  (77) 
{"free_energy": -6.6, "intermolecular_energy": -8.99, "internal_energy": -1.71, "cluster_size": 8, "cluster_id": 1, "rank_in_cluster": 6}

>  <energy>  (77) 
-6.77

>  <cluster_rmsd>  (77) 
0.97

>  <rmsd>  (77) 
273.46

>  <cluster>  (77) 
2

$$$$
JXJFNMZAUJJYED-DRLXDTPMNA-O
     RDKit          3D

 47 49  0  0  0  0  0  0  0  0999 V2000
  141.9160   76.5600  222.8690 H   0  0  0  0  0  0  0  0  0  0  0  0
  141.1030   76.1780  222.4120 O   0  0  0  0  0  0  0  0  0  0  0  0
  141.1300   75.6090  221.1330 C   0  0  0  0  0  0  0  0  0  0  0  0
  141.9880   76.0280  220.2250 N   0  0  0  0  0  0  0  0  0  0  0  0
  142.0510   77.4150  219.7730 C   0  0  0  0  0  0  0  0  0  0  0  0
  142.4186   78.0623  220.5829 H   0  0  0  0  0  0  0  0  0  0  0  0
  141.0569   77.7832  219.4794 H   0  0  0  0  0  0  0  0  0  0  0  0
  143.0190   77.4430  218.5960 C   0  0  2  0  0  0  0  0  0  0  0  0
  143.9767   77.9152  218.8602 H   0  0  0  0  0  0  0  0  0  0  0  0
  142.4900   78.2000  217.5410 O   0  0  0  0  0  0  0  0  0  0  0  0
  143.2480   78.6810  217.1270 H   0  0  0  0  0  0  0  0  0  0  0  0
  143.2200   75.9810  218.1940 C   0  0  0  0  0  0  0  0  0  0  0  0
  144.2646   75.8036  217.8986 H   0  0  0  0  0  0  0  0  0  0  0  0
  142.5924   75.7042  217.3340 H   0  0  0  0  0  0  0  0  0  0  0  0
  142.8700   75.1630  219.4390 C   0  0  1  0  0  0  0  0  0  0  0  0
  142.3962   74.2064  219.1736 H   0  0  0  0  0  0  0  0  0  0  0  0
  144.1370   74.8160  220.2530 C   0  0  0  0  0  0  0  0  0  0  0  0
  144.0508   75.2623  221.2547 H   0  0  0  0  0  0  0  0  0  0  0  0
  145.0100   75.2171  219.7173 H   0  0  0  0  0  0  0  0  0  0  0  0
  144.3540   73.0060  220.4260 S   0  0  0  0  0  0  0  0  0  0  0  0
  145.9560   73.0750  221.2940 C   0  0  0  0  0  0  0  0  0  0  0  0
  145.7849   73.0676  222.3806 H   0  0  0  0  0  0  0  0  0  0  0  0
  146.5634   72.2022  221.0125 H   0  0  0  0  0  0  0  0  0  0  0  0
  146.4861   73.9968  221.0125 H   0  0  0  0  0  0  0  0  0  0  0  0
  140.0840   74.5630  220.8190 C   0  0  0  0  0  0  0  0  0  0  0  0
  139.1425   75.0650  220.5515 H   0  0  0  0  0  0  0  0  0  0  0  0
  140.4445   73.9476  219.9815 H   0  0  0  0  0  0  0  0  0  0  0  0
  139.8510   73.6920  221.9700 N   0  0  0  0  0  0  0  0  0  0  0  0
  139.2030   74.0310  222.7150 H   0  0  0  0  0  0  0  0  0  0  0  0
  140.4080   72.3720  222.0590 C   0  0  0  0  0  0  0  0  0  0  0  0
  141.1020   71.9220  221.1060 O   0  0  0  0  0  0  0  0  0  0  0  0
  140.1680   71.5380  223.2570 C   0  0  0  0  0  0  0  0  0  0  0  0
  140.6750   71.9220  224.4580 N   0  0  0  0  0  0  0  0  0  0  0  0
  140.4910   71.1960  225.5910 C   0  0  0  0  0  0  0  0  0  0  0  0
  141.0410   71.6270  226.8020 C   0  0  0  0  0  0  0  0  0  0  0  0
  141.6112   72.5668  226.8438 H   0  0  0  0  0  0  0  0  0  0  0  0
  140.8660   70.8630  227.9600 C   0  0  0  0  0  0  0  0  0  0  0  0
  141.3082   71.1982  228.9098 H   0  0  0  0  0  0  0  0  0  0  0  0
  140.1300   69.6730  227.9150 C   0  0  0  0  0  0  0  0  0  0  0  0
  139.9570   68.9420  229.0420 F   0  0  0  0  0  0  0  0  0  0  0  0
  139.5710   69.2410  226.7120 C   0  0  0  0  0  0  0  0  0  0  0  0
  138.9890   68.3081  226.6796 H   0  0  0  0  0  0  0  0  0  0  0  0
  139.7510   69.9960  225.5440 C   0  0  0  0  0  0  0  0  0  0  0  0
  139.2110   69.5840  224.3210 C   0  0  0  0  0  0  0  0  0  0  0  0
  138.6222   68.6567  224.2629 H   0  0  0  0  0  0  0  0  0  0  0  0
  139.4210   70.3520  223.1750 C   0  0  0  0  0  0  0  0  0  0  0  0
  139.0026   70.0292  222.2103 H   0  0  0  0  0  0  0  0  0  0  0  0
  1  2  1  0
  2  3  1  0
  3  4  2  0
  4  5  1  0
  5  6  1  0
  5  7  1  0
  5  8  1  0
  8  9  1  1
  8 10  1  0
 10 11  1  0
  8 12  1  0
 12 13  1  0
 12 14  1  0
 12 15  1  0
 15 16  1  6
 15 17  1  0
 17 18  1  0
 17 19  1  0
 17 20  1  0
 20 21  1  0
 21 22  1  0
 21 23  1  0
 21 24  1  0
  3 25  1  0
 25 26  1  0
 25 27  1  0
 25 28  1  0
 28 29  1  0
 28 30  1  0
 30 31  2  0
 30 32  1  0
 32 33  2  0
 33 34  1  0
 34 35  2  0
 35 36  1  0
 35 37  1  0
 37 38  1  0
 37 39  2  0
 39 40  1  0
 39 41  1  0
 41 42  1  0
 41 43  2  0
 43 44  1  0
 44 45  1  0
 44 46  2  0
 46 47  1  0
 15  4  1  0
 46 32  1  0
 43 34  1  0
M  CHG  1   4   1
M  END
>  <UniqueID>  (78) 
8

>  <SMILES>  (78) 
CSC[C@@H]1C[C@@H](O)C/[N+]1=C(\O)CNC(=O)c1ccc2cc(F)ccc2n1

>  <Energy>  (78) 
50.42533612763204

>  <Genealogy>  (78) 
CSC[C@@H]1C[C@@H](O)C[NH+]1C(=O)CNC(=O)c1ccc2cc(F)ccc2n1 (protonated)
CSC[C@@H]1C[C@@H](O)C[N+]1=C(O)CNC(=O)c1ccc2cc(F)ccc2n1 (tautomer)
CSC[C@@H]1C[C@@H](O)C/[N+]1=C(\O)CNC(=O)c1ccc2cc(F)ccc2n1 (cis-trans isomerization)
CSC[C@@H]1C[C@@H](O)C/[N+]1=C(\O)CNC(=O)c1ccc2cc(F)ccc2n1 (3D coordinates assigned)
CSC[C@@H]1C[C@@H](O)C/[N+]1=C(\O)CNC(=O)c1ccc2cc(F)ccc2n1 (nonaromatic ring conformer: 50.42533612763204 kcal/mol)

>  <smiles>  (78) 
CSC[C@@H]1C[C@@H](O)CN1C(=O)CNC(=O)c1ccc2cc(F)ccc2n1

>  <score_type>  (78) 
oracle

>  <origin>  (78) 
autodockgpu

>  <m_score__min__energy>  (78) 
-7.6200000000000001

>  <m_primary>  (78) 
energy

>  <meeko>  (78) 
{"free_energy": -7.62, "intermolecular_energy": -10.01, "internal_energy": -0.96, "cluster_size": 8, "cluster_id": 1, "rank_in_cluster": 1}

>  <energy>  (78) 
-6.74

>  <cluster_rmsd>  (78) 
1.25

>  <rmsd>  (78) 
273.44

>  <cluster>  (78) 
2

$$$$
JXJFNMZAUJJYED-DRLXDTPMNA-O
     RDKit          3D

 47 49  0  0  0  0  0  0  0  0999 V2000
  139.9450   71.3660  219.9690 H   0  0  0  0  0  0  0  0  0  0  0  0
  140.5100   72.1340  219.6380 O   0  0  0  0  0  0  0  0  0  0  0  0
  140.6900   73.3250  220.3510 C   0  0  0  0  0  0  0  0  0  0  0  0
  141.7770   74.0520  220.1880 N   0  0  0  0  0  0  0  0  0  0  0  0
  141.8210   75.4850  220.4680 C   0  0  0  0  0  0  0  0  0  0  0  0
  141.7257   75.6641  221.5491 H   0  0  0  0  0  0  0  0  0  0  0  0
  140.9945   76.0132  219.9702 H   0  0  0  0  0  0  0  0  0  0  0  0
  143.1730   75.9820  219.9690 C   0  0  2  0  0  0  0  0  0  0  0  0
  143.8593   76.2147  220.7966 H   0  0  0  0  0  0  0  0  0  0  0  0
  143.0220   77.1710  219.2420 O   0  0  0  0  0  0  0  0  0  0  0  0
  143.6950   77.8060  219.5910 H   0  0  0  0  0  0  0  0  0  0  0  0
  143.7270   74.8560  219.0960 C   0  0  0  0  0  0  0  0  0  0  0  0
  144.8144   74.7630  219.2335 H   0  0  0  0  0  0  0  0  0  0  0  0
  143.5535   75.0468  218.0267 H   0  0  0  0  0  0  0  0  0  0  0  0
  143.0180   73.5840  219.5670 C   0  0  1  0  0  0  0  0  0  0  0  0
  142.8383   72.8889  218.7336 H   0  0  0  0  0  0  0  0  0  0  0  0
  143.8730   72.8190  220.6010 C   0  0  0  0  0  0  0  0  0  0  0  0
  143.4671   71.8033  220.7179 H   0  0  0  0  0  0  0  0  0  0  0  0
  143.8355   73.3700  221.5523 H   0  0  0  0  0  0  0  0  0  0  0  0
  145.6240   72.7020  220.0770 S   0  0  0  0  0  0  0  0  0  0  0  0
  146.3400   73.4060  221.5990 C   0  0  0  0  0  0  0  0  0  0  0  0
  145.8667   72.9406  222.4762 H   0  0  0  0  0  0  0  0  0  0  0  0
  147.4223   73.2106  221.6195 H   0  0  0  0  0  0  0  0  0  0  0  0
  146.1629   74.4915  221.6195 H   0  0  0  0  0  0  0  0  0  0  0  0
  139.6320   73.6890  221.3670 C   0  0  0  0  0  0  0  0  0  0  0  0
  139.7753   74.7350  221.6758 H   0  0  0  0  0  0  0  0  0  0  0  0
  138.6429   73.5542  220.9049 H   0  0  0  0  0  0  0  0  0  0  0  0
  139.7150   72.8280  222.5450 N   0  0  0  0  0  0  0  0  0  0  0  0
  139.8860   73.2820  223.4700 H   0  0  0  0  0  0  0  0  0  0  0  0
  139.4870   71.4120  222.4800 C   0  0  0  0  0  0  0  0  0  0  0  0
  139.1730   70.8820  221.3790 O   0  0  0  0  0  0  0  0  0  0  0  0
  139.6120   70.5770  223.6950 C   0  0  0  0  0  0  0  0  0  0  0  0
  140.1810   71.0960  224.8140 N   0  0  0  0  0  0  0  0  0  0  0  0
  140.3270   70.3780  225.9570 C   0  0  0  0  0  0  0  0  0  0  0  0
  140.9280   70.9530  227.0800 C   0  0  0  0  0  0  0  0  0  0  0  0
  141.2704   71.9978  227.0466 H   0  0  0  0  0  0  0  0  0  0  0  0
  141.0940   70.1990  228.2470 C   0  0  0  0  0  0  0  0  0  0  0  0
  141.5767   70.6498  229.1267 H   0  0  0  0  0  0  0  0  0  0  0  0
  140.6480   68.8730  228.2990 C   0  0  0  0  0  0  0  0  0  0  0  0
  140.8050   68.1520  229.4350 F   0  0  0  0  0  0  0  0  0  0  0  0
  140.0390   68.2960  227.1850 C   0  0  0  0  0  0  0  0  0  0  0  0
  139.6846   67.2556  227.2296 H   0  0  0  0  0  0  0  0  0  0  0  0
  139.8780   69.0410  226.0080 C   0  0  0  0  0  0  0  0  0  0  0  0
  139.2810   68.4860  224.8720 C   0  0  0  0  0  0  0  0  0  0  0  0
  138.9161   67.4485  224.8924 H   0  0  0  0  0  0  0  0  0  0  0  0
  139.1490   69.2510  223.7120 C   0  0  0  0  0  0  0  0  0  0  0  0
  138.6841   68.8171  222.8145 H   0  0  0  0  0  0  0  0  0  0  0  0
  1  2  1  0
  2  3  1  0
  3  4  2  0
  4  5  1  0
  5  6  1  0
  5  7  1  0
  5  8  1  0
  8  9  1  1
  8 10  1  0
 10 11  1  0
  8 12  1  0
 12 13  1  0
 12 14  1  0
 12 15  1  0
 15 16  1  6
 15 17  1  0
 17 18  1  0
 17 19  1  0
 17 20  1  0
 20 21  1  0
 21 22  1  0
 21 23  1  0
 21 24  1  0
  3 25  1  0
 25 26  1  0
 25 27  1  0
 25 28  1  0
 28 29  1  0
 28 30  1  0
 30 31  2  0
 30 32  1  0
 32 33  2  0
 33 34  1  0
 34 35  2  0
 35 36  1  0
 35 37  1  0
 37 38  1  0
 37 39  2  0
 39 40  1  0
 39 41  1  0
 41 42  1  0
 41 43  2  0
 43 44  1  0
 44 45  1  0
 44 46  2  0
 46 47  1  0
 15  4  1  0
 46 32  1  0
 43 34  1  0
M  CHG  1   4   1
M  END
>  <UniqueID>  (79) 
8

>  <SMILES>  (79) 
CSC[C@@H]1C[C@@H](O)C/[N+]1=C(\O)CNC(=O)c1ccc2cc(F)ccc2n1

>  <Energy>  (79) 
50.42533612763204

>  <Genealogy>  (79) 
CSC[C@@H]1C[C@@H](O)C[NH+]1C(=O)CNC(=O)c1ccc2cc(F)ccc2n1 (protonated)
CSC[C@@H]1C[C@@H](O)C[N+]1=C(O)CNC(=O)c1ccc2cc(F)ccc2n1 (tautomer)
CSC[C@@H]1C[C@@H](O)C/[N+]1=C(\O)CNC(=O)c1ccc2cc(F)ccc2n1 (cis-trans isomerization)
CSC[C@@H]1C[C@@H](O)C/[N+]1=C(\O)CNC(=O)c1ccc2cc(F)ccc2n1 (3D coordinates assigned)
CSC[C@@H]1C[C@@H](O)C/[N+]1=C(\O)CNC(=O)c1ccc2cc(F)ccc2n1 (nonaromatic ring conformer: 50.42533612763204 kcal/mol)

>  <smiles>  (79) 
CSC[C@@H]1C[C@@H](O)CN1C(=O)CNC(=O)c1ccc2cc(F)ccc2n1

>  <score_type>  (79) 
oracle

>  <origin>  (79) 
autodockgpu

>  <m_score__min__energy>  (79) 
-7.6200000000000001

>  <m_primary>  (79) 
energy

>  <meeko>  (79) 
{"free_energy": -6.59, "intermolecular_energy": -8.98, "internal_energy": -1.73, "cluster_size": 8, "cluster_id": 1, "rank_in_cluster": 7}

>  <energy>  (79) 
-6.65

>  <cluster_rmsd>  (79) 
1.77

>  <rmsd>  (79) 
273.87

>  <cluster>  (79) 
2

$$$$
JXJFNMZAUJJYED-DRLXDTPMNA-O
     RDKit          3D

 47 49  0  0  0  0  0  0  0  0999 V2000
  141.8230   74.4260  221.6490 H   0  0  0  0  0  0  0  0  0  0  0  0
  141.4490   75.3450  221.8270 O   0  0  0  0  0  0  0  0  0  0  0  0
  140.0880   75.6580  221.7310 C   0  0  0  0  0  0  0  0  0  0  0  0
  139.6450   76.8560  222.0570 N   0  0  0  0  0  0  0  0  0  0  0  0
  138.3270   77.0810  222.6440 C   0  0  0  0  0  0  0  0  0  0  0  0
  138.2882   76.6652  223.6617 H   0  0  0  0  0  0  0  0  0  0  0  0
  137.5396   76.5888  222.0543 H   0  0  0  0  0  0  0  0  0  0  0  0
  138.1230   78.5910  222.6840 C   0  0  2  0  0  0  0  0  0  0  0  0
  138.1952   78.9906  223.7063 H   0  0  0  0  0  0  0  0  0  0  0  0
  136.8420   78.9270  222.2240 O   0  0  0  0  0  0  0  0  0  0  0  0
  136.7600   79.9090  222.3000 H   0  0  0  0  0  0  0  0  0  0  0  0
  139.2140   79.1770  221.7870 C   0  0  0  0  0  0  0  0  0  0  0  0
  139.6001   80.1145  222.2137 H   0  0  0  0  0  0  0  0  0  0  0  0
  138.8327   79.4150  220.7830 H   0  0  0  0  0  0  0  0  0  0  0  0
  140.3170   78.1170  221.7390 C   0  0  1  0  0  0  0  0  0  0  0  0
  140.8133   78.0951  220.7576 H   0  0  0  0  0  0  0  0  0  0  0  0
  141.4180   78.4100  222.7840 C   0  0  0  0  0  0  0  0  0  0  0  0
  142.3999   78.3635  222.2903 H   0  0  0  0  0  0  0  0  0  0  0  0
  141.3431   77.6571  223.5824 H   0  0  0  0  0  0  0  0  0  0  0  0
  141.2100   80.0660  223.5380 S   0  0  0  0  0  0  0  0  0  0  0  0
  142.9720   80.5350  223.4890 C   0  0  0  0  0  0  0  0  0  0  0  0
  143.3531   80.6364  224.5159 H   0  0  0  0  0  0  0  0  0  0  0  0
  143.5438   79.7578  222.9608 H   0  0  0  0  0  0  0  0  0  0  0  0
  143.0817   81.4936  222.9608 H   0  0  0  0  0  0  0  0  0  0  0  0
  139.1500   74.5450  221.3230 C   0  0  0  0  0  0  0  0  0  0  0  0
  138.1426   74.9608  221.1737 H   0  0  0  0  0  0  0  0  0  0  0  0
  139.5250   74.0961  220.3914 H   0  0  0  0  0  0  0  0  0  0  0  0
  139.0900   73.5050  222.3480 N   0  0  0  0  0  0  0  0  0  0  0  0
  138.1810   73.3570  222.8400 H   0  0  0  0  0  0  0  0  0  0  0  0
  140.2000   72.6400  222.6290 C   0  0  0  0  0  0  0  0  0  0  0  0
  141.2620   72.7490  221.9570 O   0  0  0  0  0  0  0  0  0  0  0  0
  140.1020   71.6210  223.6970 C   0  0  0  0  0  0  0  0  0  0  0  0
  140.5930   71.8910  224.9350 N   0  0  0  0  0  0  0  0  0  0  0  0
  140.5350   70.9940  225.9540 C   0  0  0  0  0  0  0  0  0  0  0  0
  141.0640   71.3150  227.2070 C   0  0  0  0  0  0  0  0  0  0  0  0
  141.5148   72.3039  227.3771 H   0  0  0  0  0  0  0  0  0  0  0  0
  141.0200   70.3790  228.2440 C   0  0  0  0  0  0  0  0  0  0  0  0
  141.4458   70.6298  229.2267 H   0  0  0  0  0  0  0  0  0  0  0  0
  140.4360   69.1230  228.0370 C   0  0  0  0  0  0  0  0  0  0  0  0
  140.3900   68.2250  229.0490 F   0  0  0  0  0  0  0  0  0  0  0  0
  139.8990   68.8000  226.7910 C   0  0  0  0  0  0  0  0  0  0  0  0
  139.4365   67.8149  226.6307 H   0  0  0  0  0  0  0  0  0  0  0  0
  139.9480   69.7300  225.7420 C   0  0  0  0  0  0  0  0  0  0  0  0
  139.4270   69.4300  224.4800 C   0  0  0  0  0  0  0  0  0  0  0  0
  138.9564   68.4529  224.2963 H   0  0  0  0  0  0  0  0  0  0  0  0
  139.5050   70.3720  223.4540 C   0  0  0  0  0  0  0  0  0  0  0  0
  139.1006   70.1381  222.4581 H   0  0  0  0  0  0  0  0  0  0  0  0
  1  2  1  0
  2  3  1  0
  3  4  2  0
  4  5  1  0
  5  6  1  0
  5  7  1  0
  5  8  1  0
  8  9  1  1
  8 10  1  0
 10 11  1  0
  8 12  1  0
 12 13  1  0
 12 14  1  0
 12 15  1  0
 15 16  1  6
 15 17  1  0
 17 18  1  0
 17 19  1  0
 17 20  1  0
 20 21  1  0
 21 22  1  0
 21 23  1  0
 21 24  1  0
  3 25  1  0
 25 26  1  0
 25 27  1  0
 25 28  1  0
 28 29  1  0
 28 30  1  0
 30 31  2  0
 30 32  1  0
 32 33  2  0
 33 34  1  0
 34 35  2  0
 35 36  1  0
 35 37  1  0
 37 38  1  0
 37 39  2  0
 39 40  1  0
 39 41  1  0
 41 42  1  0
 41 43  2  0
 43 44  1  0
 44 45  1  0
 44 46  2  0
 46 47  1  0
 15  4  1  0
 46 32  1  0
 43 34  1  0
M  CHG  1   4   1
M  END
>  <UniqueID>  (80) 
8

>  <SMILES>  (80) 
CSC[C@@H]1C[C@@H](O)C/[N+]1=C(\O)CNC(=O)c1ccc2cc(F)ccc2n1

>  <Energy>  (80) 
50.42533612763204

>  <Genealogy>  (80) 
CSC[C@@H]1C[C@@H](O)C[NH+]1C(=O)CNC(=O)c1ccc2cc(F)ccc2n1 (protonated)
CSC[C@@H]1C[C@@H](O)C[N+]1=C(O)CNC(=O)c1ccc2cc(F)ccc2n1 (tautomer)
CSC[C@@H]1C[C@@H](O)C/[N+]1=C(\O)CNC(=O)c1ccc2cc(F)ccc2n1 (cis-trans isomerization)
CSC[C@@H]1C[C@@H](O)C/[N+]1=C(\O)CNC(=O)c1ccc2cc(F)ccc2n1 (3D coordinates assigned)
CSC[C@@H]1C[C@@H](O)C/[N+]1=C(\O)CNC(=O)c1ccc2cc(F)ccc2n1 (nonaromatic ring conformer: 50.42533612763204 kcal/mol)

>  <smiles>  (80) 
CSC[C@@H]1C[C@@H](O)CN1C(=O)CNC(=O)c1ccc2cc(F)ccc2n1

>  <score_type>  (80) 
oracle

>  <origin>  (80) 
autodockgpu

>  <m_score__min__energy>  (80) 
-7.6200000000000001

>  <m_primary>  (80) 
energy

>  <meeko>  (80) 
{"free_energy": -6.65, "intermolecular_energy": -9.04, "internal_energy": -1.46, "cluster_size": 12, "cluster_id": 2, "rank_in_cluster": 11}

>  <energy>  (80) 
-6.36

>  <cluster_rmsd>  (80) 
1.75

>  <rmsd>  (80) 
273.52

>  <cluster>  (80) 
2

$$$$
