NEHRXLOKMXCHPW-UHFFFAOYNA-N
     RDKit          3D

 33 34  0  0  0  0  0  0  0  0999 V2000
  136.2980   70.2750  224.3490 C   0  0  0  0  0  0  0  0  0  0  0  0
  136.9890   70.7680  223.0770 C   0  0  0  0  0  0  0  0  0  0  0  0
  137.6190   69.6250  222.2630 C   0  0  0  0  0  0  0  0  0  0  0  0
  139.1480   69.5200  222.4100 C   0  0  0  0  0  0  0  0  0  0  0  0
  139.5700   69.6190  223.8260 N   0  0  0  0  0  0  0  0  0  0  0  0
  140.1100   70.7830  224.3050 C   0  0  0  0  0  0  0  0  0  0  0  0
  140.2670   71.7740  223.5370 O   0  0  0  0  0  0  0  0  0  0  0  0
  140.4910   70.8850  225.6490 C   0  0  0  0  0  0  0  0  0  0  0  0
  141.0430   72.0770  226.1610 C   0  0  0  0  0  0  0  0  0  0  0  0
  141.4150   72.1650  227.5000 C   0  0  0  0  0  0  0  0  0  0  0  0
  141.2430   71.0710  228.3440 C   0  0  0  0  0  0  0  0  0  0  0  0
  140.6990   69.8830  227.8540 C   0  0  0  0  0  0  0  0  0  0  0  0
  140.3120   69.7670  226.4950 C   0  0  0  0  0  0  0  0  0  0  0  0
  139.7720   68.6060  225.9860 N   0  0  0  0  0  0  0  0  0  0  0  0
  139.5810   67.4270  226.8580 C   0  0  0  0  0  0  0  0  0  0  0  0
  139.4090   68.5400  224.6600 C   0  0  0  0  0  0  0  0  0  0  0  0
  138.9200   67.4700  224.1960 O   0  0  0  0  0  0  0  0  0  0  0  0
  136.8346   70.6578  225.2297 H   0  0  0  0  0  0  0  0  0  0  0  0
  135.2596   70.6374  224.3662 H   0  0  0  0  0  0  0  0  0  0  0  0
  136.3028   69.1751  224.3662 H   0  0  0  0  0  0  0  0  0  0  0  0
  136.2454   71.2796  222.4482 H   0  0  0  0  0  0  0  0  0  0  0  0
  137.8001   71.4460  223.3808 H   0  0  0  0  0  0  0  0  0  0  0  0
  137.1735   68.6763  222.5969 H   0  0  0  0  0  0  0  0  0  0  0  0
  137.4152   69.8391  221.2035 H   0  0  0  0  0  0  0  0  0  0  0  0
  139.4793   68.5520  222.0061 H   0  0  0  0  0  0  0  0  0  0  0  0
  139.6038   70.3546  221.8571 H   0  0  0  0  0  0  0  0  0  0  0  0
  141.1808   72.9438  225.4979 H   0  0  0  0  0  0  0  0  0  0  0  0
  141.8448   73.0990  227.8911 H   0  0  0  0  0  0  0  0  0  0  0  0
  141.5372   71.1435  229.4014 H   0  0  0  0  0  0  0  0  0  0  0  0
  140.5688   69.0257  228.5308 H   0  0  0  0  0  0  0  0  0  0  0  0
  139.6314   67.7383  227.9118 H   0  0  0  0  0  0  0  0  0  0  0  0
  138.5981   66.9765  226.6554 H   0  0  0  0  0  0  0  0  0  0  0  0
  140.3713   66.6892  226.6554 H   0  0  0  0  0  0  0  0  0  0  0  0
  1  2  1  0
  2  3  1  0
  3  4  1  0
  4  5  1  0
  5  6  1  0
  6  7  2  0
  6  8  1  0
  8  9  2  0
  9 10  1  0
 10 11  2  0
 11 12  1  0
 12 13  2  0
 13 14  1  0
 14 15  1  0
 14 16  1  0
 16 17  2  0
 16  5  1  0
 13  8  1  0
  1 18  1  0
  1 19  1  0
  1 20  1  0
  2 21  1  0
  2 22  1  0
  3 23  1  0
  3 24  1  0
  4 25  1  0
  4 26  1  0
  9 27  1  0
 10 28  1  0
 11 29  1  0
 12 30  1  0
 15 31  1  0
 15 32  1  0
 15 33  1  0
M  END
>  <UniqueID>  (1) 
21

>  <SMILES>  (1) 
CCCCn1c(=O)c2ccccc2n(C)c1=O

>  <Energy>  (1) 
42.823721821542954

>  <Genealogy>  (1) 
CCCCn1c(=O)c2ccccc2n(C)c1=O (3D coordinates assigned)
CCCCn1c(=O)c2ccccc2n(C)c1=O (optimized conformer: 42.823721821542954 kcal/mol)

>  <smiles>  (1) 
CCCCn1c(=O)c2ccccc2n(C)c1=O

>  <score_type>  (1) 
oracle

>  <origin>  (1) 
autodockgpu

>  <m_score__min__energy>  (1) 
-5.5099999999999998

>  <m_primary>  (1) 
energy

>  <meeko>  (1) 
{"free_energy": -5.44, "intermolecular_energy": -6.33, "internal_energy": -0.57, "cluster_size": 19, "cluster_id": 1, "rank_in_cluster": 13}

>  <energy>  (1) 
-5.51

>  <cluster_rmsd>  (1) 
0.0

>  <rmsd>  (1) 
272.42

>  <cluster>  (1) 
1

$$$$
NEHRXLOKMXCHPW-UHFFFAOYNA-N
     RDKit          3D

 33 34  0  0  0  0  0  0  0  0999 V2000
  136.3400   69.9720  224.5330 C   0  0  0  0  0  0  0  0  0  0  0  0
  136.8880   70.5980  223.2490 C   0  0  0  0  0  0  0  0  0  0  0  0
  137.5850   69.5730  222.3400 C   0  0  0  0  0  0  0  0  0  0  0  0
  139.1210   69.5780  222.4520 C   0  0  0  0  0  0  0  0  0  0  0  0
  139.5670   69.6530  223.8630 N   0  0  0  0  0  0  0  0  0  0  0  0
  140.0980   70.8150  224.3570 C   0  0  0  0  0  0  0  0  0  0  0  0
  140.2260   71.8250  223.6080 O   0  0  0  0  0  0  0  0  0  0  0  0
  140.5010   70.8940  225.6960 C   0  0  0  0  0  0  0  0  0  0  0  0
  141.0450   72.0820  226.2240 C   0  0  0  0  0  0  0  0  0  0  0  0
  141.4390   72.1480  227.5580 C   0  0  0  0  0  0  0  0  0  0  0  0
  141.2980   71.0330  228.3810 C   0  0  0  0  0  0  0  0  0  0  0  0
  140.7620   69.8480  227.8750 C   0  0  0  0  0  0  0  0  0  0  0  0
  140.3530   69.7550  226.5210 C   0  0  0  0  0  0  0  0  0  0  0  0
  139.8220   68.5970  225.9960 N   0  0  0  0  0  0  0  0  0  0  0  0
  139.6630   67.3980  226.8460 C   0  0  0  0  0  0  0  0  0  0  0  0
  139.4360   68.5540  224.6760 C   0  0  0  0  0  0  0  0  0  0  0  0
  138.9550   67.4870  224.1970 O   0  0  0  0  0  0  0  0  0  0  0  0
  136.7820   70.4769  225.4047 H   0  0  0  0  0  0  0  0  0  0  0  0
  135.2462   70.0861  224.5587 H   0  0  0  0  0  0  0  0  0  0  0  0
  136.5978   68.9029  224.5587 H   0  0  0  0  0  0  0  0  0  0  0  0
  136.0530   71.0503  222.6938 H   0  0  0  0  0  0  0  0  0  0  0  0
  137.6377   71.3488  223.5391 H   0  0  0  0  0  0  0  0  0  0  0  0
  137.2220   68.5698  222.6081 H   0  0  0  0  0  0  0  0  0  0  0  0
  137.3408   69.8491  221.3036 H   0  0  0  0  0  0  0  0  0  0  0  0
  139.5143   68.6543  222.0024 H   0  0  0  0  0  0  0  0  0  0  0  0
  139.5005   70.4656  221.9246 H   0  0  0  0  0  0  0  0  0  0  0  0
  141.1593   72.9643  225.5771 H   0  0  0  0  0  0  0  0  0  0  0  0
  141.8613   73.0801  227.9616 H   0  0  0  0  0  0  0  0  0  0  0  0
  141.6105   71.0868  229.4343 H   0  0  0  0  0  0  0  0  0  0  0  0
  140.6555   68.9748  228.5355 H   0  0  0  0  0  0  0  0  0  0  0  0
  139.7020   67.6917  227.9053 H   0  0  0  0  0  0  0  0  0  0  0  0
  138.6940   66.9231  226.6326 H   0  0  0  0  0  0  0  0  0  0  0  0
  140.4747   66.6870  226.6326 H   0  0  0  0  0  0  0  0  0  0  0  0
  1  2  1  0
  2  3  1  0
  3  4  1  0
  4  5  1  0
  5  6  1  0
  6  7  2  0
  6  8  1  0
  8  9  2  0
  9 10  1  0
 10 11  2  0
 11 12  1  0
 12 13  2  0
 13 14  1  0
 14 15  1  0
 14 16  1  0
 16 17  2  0
 16  5  1  0
 13  8  1  0
  1 18  1  0
  1 19  1  0
  1 20  1  0
  2 21  1  0
  2 22  1  0
  3 23  1  0
  3 24  1  0
  4 25  1  0
  4 26  1  0
  9 27  1  0
 10 28  1  0
 11 29  1  0
 12 30  1  0
 15 31  1  0
 15 32  1  0
 15 33  1  0
M  END
>  <UniqueID>  (2) 
21

>  <SMILES>  (2) 
CCCCn1c(=O)c2ccccc2n(C)c1=O

>  <Energy>  (2) 
42.823721821542954

>  <Genealogy>  (2) 
CCCCn1c(=O)c2ccccc2n(C)c1=O (3D coordinates assigned)
CCCCn1c(=O)c2ccccc2n(C)c1=O (optimized conformer: 42.823721821542954 kcal/mol)

>  <smiles>  (2) 
CCCCn1c(=O)c2ccccc2n(C)c1=O

>  <score_type>  (2) 
oracle

>  <origin>  (2) 
autodockgpu

>  <m_score__min__energy>  (2) 
-5.5099999999999998

>  <m_primary>  (2) 
energy

>  <meeko>  (2) 
{"free_energy": -5.47, "intermolecular_energy": -6.36, "internal_energy": -0.57, "cluster_size": 19, "cluster_id": 1, "rank_in_cluster": 10}

>  <energy>  (2) 
-5.5

>  <cluster_rmsd>  (2) 
0.08

>  <rmsd>  (2) 
272.39

>  <cluster>  (2) 
1

$$$$
NEHRXLOKMXCHPW-UHFFFAOYNA-N
     RDKit          3D

 33 34  0  0  0  0  0  0  0  0999 V2000
  135.8350   69.2670  223.8890 C   0  0  0  0  0  0  0  0  0  0  0  0
  136.4870   69.4080  222.5140 C   0  0  0  0  0  0  0  0  0  0  0  0
  137.5860   70.4820  222.4850 C   0  0  0  0  0  0  0  0  0  0  0  0
  139.0150   69.9200  222.5930 C   0  0  0  0  0  0  0  0  0  0  0  0
  139.5040   69.9310  223.9920 N   0  0  0  0  0  0  0  0  0  0  0  0
  140.0540   71.0680  224.5220 C   0  0  0  0  0  0  0  0  0  0  0  0
  140.1640   72.1100  223.8150 O   0  0  0  0  0  0  0  0  0  0  0  0
  140.4980   71.0860  225.8490 C   0  0  0  0  0  0  0  0  0  0  0  0
  141.0620   72.2480  226.4140 C   0  0  0  0  0  0  0  0  0  0  0  0
  141.4970   72.2520  227.7370 C   0  0  0  0  0  0  0  0  0  0  0  0
  141.3760   71.1020  228.5130 C   0  0  0  0  0  0  0  0  0  0  0  0
  140.8210   69.9420  227.9710 C   0  0  0  0  0  0  0  0  0  0  0  0
  140.3700   69.9110  226.6270 C   0  0  0  0  0  0  0  0  0  0  0  0
  139.8190   68.7790  226.0670 N   0  0  0  0  0  0  0  0  0  0  0  0
  139.6810   67.5440  226.8660 C   0  0  0  0  0  0  0  0  0  0  0  0
  139.3940   68.7970  224.7580 C   0  0  0  0  0  0  0  0  0  0  0  0
  138.8940   67.7540  224.2460 O   0  0  0  0  0  0  0  0  0  0  0  0
  136.5906   69.4304  224.6716 H   0  0  0  0  0  0  0  0  0  0  0  0
  135.0327   70.0124  223.9926 H   0  0  0  0  0  0  0  0  0  0  0  0
  135.4124   68.2567  223.9926 H   0  0  0  0  0  0  0  0  0  0  0  0
  136.9322   68.4416  222.2351 H   0  0  0  0  0  0  0  0  0  0  0  0
  135.7039   69.7153  221.8053 H   0  0  0  0  0  0  0  0  0  0  0  0
  137.5030   71.0360  221.5383 H   0  0  0  0  0  0  0  0  0  0  0  0
  137.4286   71.1217  223.3660 H   0  0  0  0  0  0  0  0  0  0  0  0
  139.0198   68.8845  222.2218 H   0  0  0  0  0  0  0  0  0  0  0  0
  139.6804   70.5573  221.9921 H   0  0  0  0  0  0  0  0  0  0  0  0
  141.1593   73.1588  225.8050 H   0  0  0  0  0  0  0  0  0  0  0  0
  141.9361   73.1634  228.1689 H   0  0  0  0  0  0  0  0  0  0  0  0
  141.7195   71.1080  229.5580 H   0  0  0  0  0  0  0  0  0  0  0  0
  140.7322   69.0401  228.5944 H   0  0  0  0  0  0  0  0  0  0  0  0
  139.7090   67.7949  227.9366 H   0  0  0  0  0  0  0  0  0  0  0  0
  138.7230   67.0585  226.6281 H   0  0  0  0  0  0  0  0  0  0  0  0
  140.5082   66.8590  226.6281 H   0  0  0  0  0  0  0  0  0  0  0  0
  1  2  1  0
  2  3  1  0
  3  4  1  0
  4  5  1  0
  5  6  1  0
  6  7  2  0
  6  8  1  0
  8  9  2  0
  9 10  1  0
 10 11  2  0
 11 12  1  0
 12 13  2  0
 13 14  1  0
 14 15  1  0
 14 16  1  0
 16 17  2  0
 16  5  1  0
 13  8  1  0
  1 18  1  0
  1 19  1  0
  1 20  1  0
  2 21  1  0
  2 22  1  0
  3 23  1  0
  3 24  1  0
  4 25  1  0
  4 26  1  0
  9 27  1  0
 10 28  1  0
 11 29  1  0
 12 30  1  0
 15 31  1  0
 15 32  1  0
 15 33  1  0
M  END
>  <UniqueID>  (3) 
21

>  <SMILES>  (3) 
CCCCn1c(=O)c2ccccc2n(C)c1=O

>  <Energy>  (3) 
42.823721821542954

>  <Genealogy>  (3) 
CCCCn1c(=O)c2ccccc2n(C)c1=O (3D coordinates assigned)
CCCCn1c(=O)c2ccccc2n(C)c1=O (optimized conformer: 42.823721821542954 kcal/mol)

>  <smiles>  (3) 
CCCCn1c(=O)c2ccccc2n(C)c1=O

>  <score_type>  (3) 
oracle

>  <origin>  (3) 
autodockgpu

>  <m_score__min__energy>  (3) 
-5.5099999999999998

>  <m_primary>  (3) 
energy

>  <meeko>  (3) 
{"free_energy": -5.35, "intermolecular_energy": -6.24, "internal_energy": -0.47, "cluster_size": 19, "cluster_id": 1, "rank_in_cluster": 18}

>  <energy>  (3) 
-5.5

>  <cluster_rmsd>  (3) 
0.13

>  <rmsd>  (3) 
272.37

>  <cluster>  (3) 
1

$$$$
NEHRXLOKMXCHPW-UHFFFAOYNA-N
     RDKit          3D

 33 34  0  0  0  0  0  0  0  0999 V2000
  136.3510   69.9020  224.6030 C   0  0  0  0  0  0  0  0  0  0  0  0
  136.8910   70.5400  223.3230 C   0  0  0  0  0  0  0  0  0  0  0  0
  137.6410   69.5380  222.4300 C   0  0  0  0  0  0  0  0  0  0  0  0
  139.1740   69.6470  222.5160 C   0  0  0  0  0  0  0  0  0  0  0  0
  139.6400   69.7270  223.9200 N   0  0  0  0  0  0  0  0  0  0  0  0
  140.1280   70.9060  224.4190 C   0  0  0  0  0  0  0  0  0  0  0  0
  140.2000   71.9280  223.6800 O   0  0  0  0  0  0  0  0  0  0  0  0
  140.5500   70.9880  225.7520 C   0  0  0  0  0  0  0  0  0  0  0  0
  141.0490   72.1930  226.2840 C   0  0  0  0  0  0  0  0  0  0  0  0
  141.4630   72.2610  227.6130 C   0  0  0  0  0  0  0  0  0  0  0  0
  141.3840   71.1330  228.4250 C   0  0  0  0  0  0  0  0  0  0  0  0
  140.8930   69.9310  227.9140 C   0  0  0  0  0  0  0  0  0  0  0  0
  140.4650   69.8350  226.5660 C   0  0  0  0  0  0  0  0  0  0  0  0
  139.9760   68.6600  226.0370 N   0  0  0  0  0  0  0  0  0  0  0  0
  139.8850   67.4460  226.8750 C   0  0  0  0  0  0  0  0  0  0  0  0
  139.5720   68.6140  224.7220 C   0  0  0  0  0  0  0  0  0  0  0  0
  139.1290   67.5330  224.2380 O   0  0  0  0  0  0  0  0  0  0  0  0
  136.7825   70.4118  225.4770 H   0  0  0  0  0  0  0  0  0  0  0  0
  135.2554   69.9978  224.6265 H   0  0  0  0  0  0  0  0  0  0  0  0
  136.6265   68.8373  224.6265 H   0  0  0  0  0  0  0  0  0  0  0  0
  136.0464   70.9550  222.7535 H   0  0  0  0  0  0  0  0  0  0  0  0
  137.6065   71.3216  223.6182 H   0  0  0  0  0  0  0  0  0  0  0  0
  137.3493   68.5210  222.7308 H   0  0  0  0  0  0  0  0  0  0  0  0
  137.3637   69.7687  221.3908 H   0  0  0  0  0  0  0  0  0  0  0  0
  139.6215   68.7610  222.0419 H   0  0  0  0  0  0  0  0  0  0  0  0
  139.4816   70.5683  221.9997 H   0  0  0  0  0  0  0  0  0  0  0  0
  141.1124   73.0868  225.6459 H   0  0  0  0  0  0  0  0  0  0  0  0
  141.8521   73.2058  228.0203 H   0  0  0  0  0  0  0  0  0  0  0  0
  141.7101   71.1895  229.4740 H   0  0  0  0  0  0  0  0  0  0  0  0
  140.8373   69.0465  228.5656 H   0  0  0  0  0  0  0  0  0  0  0  0
  139.9064   67.7312  227.9372 H   0  0  0  0  0  0  0  0  0  0  0  0
  138.9448   66.9188  226.6558 H   0  0  0  0  0  0  0  0  0  0  0  0
  140.7361   66.7845  226.6558 H   0  0  0  0  0  0  0  0  0  0  0  0
  1  2  1  0
  2  3  1  0
  3  4  1  0
  4  5  1  0
  5  6  1  0
  6  7  2  0
  6  8  1  0
  8  9  2  0
  9 10  1  0
 10 11  2  0
 11 12  1  0
 12 13  2  0
 13 14  1  0
 14 15  1  0
 14 16  1  0
 16 17  2  0
 16  5  1  0
 13  8  1  0
  1 18  1  0
  1 19  1  0
  1 20  1  0
  2 21  1  0
  2 22  1  0
  3 23  1  0
  3 24  1  0
  4 25  1  0
  4 26  1  0
  9 27  1  0
 10 28  1  0
 11 29  1  0
 12 30  1  0
 15 31  1  0
 15 32  1  0
 15 33  1  0
M  END
>  <UniqueID>  (4) 
21

>  <SMILES>  (4) 
CCCCn1c(=O)c2ccccc2n(C)c1=O

>  <Energy>  (4) 
42.823721821542954

>  <Genealogy>  (4) 
CCCCn1c(=O)c2ccccc2n(C)c1=O (3D coordinates assigned)
CCCCn1c(=O)c2ccccc2n(C)c1=O (optimized conformer: 42.823721821542954 kcal/mol)

>  <smiles>  (4) 
CCCCn1c(=O)c2ccccc2n(C)c1=O

>  <score_type>  (4) 
oracle

>  <origin>  (4) 
autodockgpu

>  <m_score__min__energy>  (4) 
-5.5099999999999998

>  <m_primary>  (4) 
energy

>  <meeko>  (4) 
{"free_energy": -5.47, "intermolecular_energy": -6.36, "internal_energy": -0.57, "cluster_size": 19, "cluster_id": 1, "rank_in_cluster": 9}

>  <energy>  (4) 
-5.49

>  <cluster_rmsd>  (4) 
0.16

>  <rmsd>  (4) 
272.37

>  <cluster>  (4) 
1

$$$$
NEHRXLOKMXCHPW-UHFFFAOYNA-N
     RDKit          3D

 33 34  0  0  0  0  0  0  0  0999 V2000
  136.2890   69.5960  224.6040 C   0  0  0  0  0  0  0  0  0  0  0  0
  136.7880   70.3260  223.3570 C   0  0  0  0  0  0  0  0  0  0  0  0
  137.6100   69.4190  222.4270 C   0  0  0  0  0  0  0  0  0  0  0  0
  139.1300   69.6590  222.5000 C   0  0  0  0  0  0  0  0  0  0  0  0
  139.6060   69.7320  223.9010 N   0  0  0  0  0  0  0  0  0  0  0  0
  140.0960   70.9090  224.4020 C   0  0  0  0  0  0  0  0  0  0  0  0
  140.1600   71.9350  223.6680 O   0  0  0  0  0  0  0  0  0  0  0  0
  140.5280   70.9860  225.7320 C   0  0  0  0  0  0  0  0  0  0  0  0
  141.0290   72.1890  226.2670 C   0  0  0  0  0  0  0  0  0  0  0  0
  141.4530   72.2510  227.5930 C   0  0  0  0  0  0  0  0  0  0  0  0
  141.3830   71.1190  228.4000 C   0  0  0  0  0  0  0  0  0  0  0  0
  140.8900   69.9180  227.8860 C   0  0  0  0  0  0  0  0  0  0  0  0
  140.4520   69.8280  226.5410 C   0  0  0  0  0  0  0  0  0  0  0  0
  139.9610   68.6550  226.0100 N   0  0  0  0  0  0  0  0  0  0  0  0
  139.8790   67.4370  226.8420 C   0  0  0  0  0  0  0  0  0  0  0  0
  139.5460   68.6150  224.6980 C   0  0  0  0  0  0  0  0  0  0  0  0
  139.1030   67.5350  224.2120 O   0  0  0  0  0  0  0  0  0  0  0  0
  136.6467   70.1193  225.5030 H   0  0  0  0  0  0  0  0  0  0  0  0
  135.1891   69.5785  224.6032 H   0  0  0  0  0  0  0  0  0  0  0  0
  136.6721   68.5649  224.6032 H   0  0  0  0  0  0  0  0  0  0  0  0
  135.9187   70.7055  222.8000 H   0  0  0  0  0  0  0  0  0  0  0  0
  137.4455   71.1422  223.6909 H   0  0  0  0  0  0  0  0  0  0  0  0
  137.4116   68.3723  222.7009 H   0  0  0  0  0  0  0  0  0  0  0  0
  137.3000   69.6539  221.3981 H   0  0  0  0  0  0  0  0  0  0  0  0
  139.6464   68.8321  221.9906 H   0  0  0  0  0  0  0  0  0  0  0  0
  139.3494   70.6204  222.0125 H   0  0  0  0  0  0  0  0  0  0  0  0
  141.0860   73.0863  225.6332 H   0  0  0  0  0  0  0  0  0  0  0  0
  141.8431   73.1947  228.0021 H   0  0  0  0  0  0  0  0  0  0  0  0
  141.7173   71.1708  229.4467 H   0  0  0  0  0  0  0  0  0  0  0  0
  140.8409   69.0300  228.5334 H   0  0  0  0  0  0  0  0  0  0  0  0
  139.8979   67.7174  227.9055 H   0  0  0  0  0  0  0  0  0  0  0  0
  138.9429   66.9036  226.6200 H   0  0  0  0  0  0  0  0  0  0  0  0
  140.7351   66.7830  226.6200 H   0  0  0  0  0  0  0  0  0  0  0  0
  1  2  1  0
  2  3  1  0
  3  4  1  0
  4  5  1  0
  5  6  1  0
  6  7  2  0
  6  8  1  0
  8  9  2  0
  9 10  1  0
 10 11  2  0
 11 12  1  0
 12 13  2  0
 13 14  1  0
 14 15  1  0
 14 16  1  0
 16 17  2  0
 16  5  1  0
 13  8  1  0
  1 18  1  0
  1 19  1  0
  1 20  1  0
  2 21  1  0
  2 22  1  0
  3 23  1  0
  3 24  1  0
  4 25  1  0
  4 26  1  0
  9 27  1  0
 10 28  1  0
 11 29  1  0
 12 30  1  0
 15 31  1  0
 15 32  1  0
 15 33  1  0
M  END
>  <UniqueID>  (5) 
21

>  <SMILES>  (5) 
CCCCn1c(=O)c2ccccc2n(C)c1=O

>  <Energy>  (5) 
42.823721821542954

>  <Genealogy>  (5) 
CCCCn1c(=O)c2ccccc2n(C)c1=O (3D coordinates assigned)
CCCCn1c(=O)c2ccccc2n(C)c1=O (optimized conformer: 42.823721821542954 kcal/mol)

>  <smiles>  (5) 
CCCCn1c(=O)c2ccccc2n(C)c1=O

>  <score_type>  (5) 
oracle

>  <origin>  (5) 
autodockgpu

>  <m_score__min__energy>  (5) 
-5.5099999999999998

>  <m_primary>  (5) 
energy

>  <meeko>  (5) 
{"free_energy": -5.49, "intermolecular_energy": -6.38, "internal_energy": -0.55, "cluster_size": 19, "cluster_id": 1, "rank_in_cluster": 5}

>  <energy>  (5) 
-5.49

>  <cluster_rmsd>  (5) 
0.19

>  <rmsd>  (5) 
272.36

>  <cluster>  (5) 
1

$$$$
NEHRXLOKMXCHPW-UHFFFAOYNA-N
     RDKit          3D

 33 34  0  0  0  0  0  0  0  0999 V2000
  138.1240   66.1010  220.8430 C   0  0  0  0  0  0  0  0  0  0  0  0
  137.0970   67.1990  221.1180 C   0  0  0  0  0  0  0  0  0  0  0  0
  137.3700   67.9540  222.4290 C   0  0  0  0  0  0  0  0  0  0  0  0
  138.7010   67.5750  223.1040 C   0  0  0  0  0  0  0  0  0  0  0  0
  139.2270   68.6810  223.9380 N   0  0  0  0  0  0  0  0  0  0  0  0
  139.4350   68.4940  225.2790 C   0  0  0  0  0  0  0  0  0  0  0  0
  139.1630   67.3830  225.8160 O   0  0  0  0  0  0  0  0  0  0  0  0
  139.9510   69.5320  226.0650 C   0  0  0  0  0  0  0  0  0  0  0  0
  140.1770   69.3570  227.4450 C   0  0  0  0  0  0  0  0  0  0  0  0
  140.6930   70.3980  228.2140 C   0  0  0  0  0  0  0  0  0  0  0  0
  140.9900   71.6220  227.6210 C   0  0  0  0  0  0  0  0  0  0  0  0
  140.7720   71.8120  226.2550 C   0  0  0  0  0  0  0  0  0  0  0  0
  140.2480   70.7700  225.4500 C   0  0  0  0  0  0  0  0  0  0  0  0
  140.0230   70.9330  224.1000 N   0  0  0  0  0  0  0  0  0  0  0  0
  140.3260   72.2220  223.4440 C   0  0  0  0  0  0  0  0  0  0  0  0
  139.5140   69.8920  223.3580 C   0  0  0  0  0  0  0  0  0  0  0  0
  139.3030   70.0470  222.1200 O   0  0  0  0  0  0  0  0  0  0  0  0
  138.4978   65.7013  221.7972 H   0  0  0  0  0  0  0  0  0  0  0  0
  137.6507   65.2922  220.2669 H   0  0  0  0  0  0  0  0  0  0  0  0
  138.9626   66.5192  220.2669 H   0  0  0  0  0  0  0  0  0  0  0  0
  137.1204   67.9186  220.2864 H   0  0  0  0  0  0  0  0  0  0  0  0
  136.1129   66.7166  221.2120 H   0  0  0  0  0  0  0  0  0  0  0  0
  137.3876   69.0319  222.2103 H   0  0  0  0  0  0  0  0  0  0  0  0
  136.5678   67.6771  223.1289 H   0  0  0  0  0  0  0  0  0  0  0  0
  138.5389   66.6936  223.7418 H   0  0  0  0  0  0  0  0  0  0  0  0
  139.4368   67.3607  222.3149 H   0  0  0  0  0  0  0  0  0  0  0  0
  139.9444   68.3917  227.9184 H   0  0  0  0  0  0  0  0  0  0  0  0
  140.8658   70.2526  229.2906 H   0  0  0  0  0  0  0  0  0  0  0  0
  141.3977   72.4420  228.2305 H   0  0  0  0  0  0  0  0  0  0  0  0
  141.0102   72.7836  225.7975 H   0  0  0  0  0  0  0  0  0  0  0  0
  140.5065   72.9900  224.2105 H   0  0  0  0  0  0  0  0  0  0  0  0
  141.2228   72.1122  222.8166 H   0  0  0  0  0  0  0  0  0  0  0  0
  139.4742   72.5233  222.8166 H   0  0  0  0  0  0  0  0  0  0  0  0
  1  2  1  0
  2  3  1  0
  3  4  1  0
  4  5  1  0
  5  6  1  0
  6  7  2  0
  6  8  1  0
  8  9  2  0
  9 10  1  0
 10 11  2  0
 11 12  1  0
 12 13  2  0
 13 14  1  0
 14 15  1  0
 14 16  1  0
 16 17  2  0
 16  5  1  0
 13  8  1  0
  1 18  1  0
  1 19  1  0
  1 20  1  0
  2 21  1  0
  2 22  1  0
  3 23  1  0
  3 24  1  0
  4 25  1  0
  4 26  1  0
  9 27  1  0
 10 28  1  0
 11 29  1  0
 12 30  1  0
 15 31  1  0
 15 32  1  0
 15 33  1  0
M  END
>  <UniqueID>  (6) 
21

>  <SMILES>  (6) 
CCCCn1c(=O)c2ccccc2n(C)c1=O

>  <Energy>  (6) 
42.823721821542954

>  <Genealogy>  (6) 
CCCCn1c(=O)c2ccccc2n(C)c1=O (3D coordinates assigned)
CCCCn1c(=O)c2ccccc2n(C)c1=O (optimized conformer: 42.823721821542954 kcal/mol)

>  <smiles>  (6) 
CCCCn1c(=O)c2ccccc2n(C)c1=O

>  <score_type>  (6) 
oracle

>  <origin>  (6) 
autodockgpu

>  <m_score__min__energy>  (6) 
-5.5099999999999998

>  <m_primary>  (6) 
energy

>  <meeko>  (6) 
{"free_energy": -5.26, "intermolecular_energy": -6.16, "internal_energy": -0.3, "cluster_size": 19, "cluster_id": 1, "rank_in_cluster": 19}

>  <energy>  (6) 
-5.48

>  <cluster_rmsd>  (6) 
0.1

>  <rmsd>  (6) 
272.38

>  <cluster>  (6) 
1

$$$$
NEHRXLOKMXCHPW-UHFFFAOYNA-N
     RDKit          3D

 33 34  0  0  0  0  0  0  0  0999 V2000
  140.3490   66.3310  219.9140 C   0  0  0  0  0  0  0  0  0  0  0  0
  139.7980   67.4070  220.8500 C   0  0  0  0  0  0  0  0  0  0  0  0
  139.2000   66.8220  222.1400 C   0  0  0  0  0  0  0  0  0  0  0  0
  138.1940   67.7520  222.8420 C   0  0  0  0  0  0  0  0  0  0  0  0
  138.8750   68.7680  223.6770 N   0  0  0  0  0  0  0  0  0  0  0  0
  139.1630   68.5030  224.9890 C   0  0  0  0  0  0  0  0  0  0  0  0
  138.8320   67.3960  225.5010 O   0  0  0  0  0  0  0  0  0  0  0  0
  139.8250   69.4540  225.7740 C   0  0  0  0  0  0  0  0  0  0  0  0
  140.1340   69.1970  227.1250 C   0  0  0  0  0  0  0  0  0  0  0  0
  140.7960   70.1530  227.8920 C   0  0  0  0  0  0  0  0  0  0  0  0
  141.1580   71.3730  227.3270 C   0  0  0  0  0  0  0  0  0  0  0  0
  140.8600   71.6440  225.9910 C   0  0  0  0  0  0  0  0  0  0  0  0
  140.1870   70.6890  225.1870 C   0  0  0  0  0  0  0  0  0  0  0  0
  139.8800   70.9330  223.8660 N   0  0  0  0  0  0  0  0  0  0  0  0
  140.2490   72.2200  223.2400 C   0  0  0  0  0  0  0  0  0  0  0  0
  139.2270   69.9750  223.1240 C   0  0  0  0  0  0  0  0  0  0  0  0
  138.9420   70.2050  221.9140 O   0  0  0  0  0  0  0  0  0  0  0  0
  140.7705   65.5078  220.5095 H   0  0  0  0  0  0  0  0  0  0  0  0
  139.5370   65.9461  219.2795 H   0  0  0  0  0  0  0  0  0  0  0  0
  141.1359   66.7649  219.2795 H   0  0  0  0  0  0  0  0  0  0  0  0
  140.6161   68.0910  221.1200 H   0  0  0  0  0  0  0  0  0  0  0  0
  138.9902   67.9294  220.3165 H   0  0  0  0  0  0  0  0  0  0  0  0
  138.6853   65.8831  221.8878 H   0  0  0  0  0  0  0  0  0  0  0  0
  140.0361   66.6723  222.8389 H   0  0  0  0  0  0  0  0  0  0  0  0
  137.5904   68.2648  222.0786 H   0  0  0  0  0  0  0  0  0  0  0  0
  137.5610   67.1376  223.4991 H   0  0  0  0  0  0  0  0  0  0  0  0
  139.8505   68.2350  227.5767 H   0  0  0  0  0  0  0  0  0  0  0  0
  141.0331   69.9438  228.9456 H   0  0  0  0  0  0  0  0  0  0  0  0
  141.6806   72.1256  227.9357 H   0  0  0  0  0  0  0  0  0  0  0  0
  141.1510   72.6113  225.5556 H   0  0  0  0  0  0  0  0  0  0  0  0
  140.4616   72.9615  224.0242 H   0  0  0  0  0  0  0  0  0  0  0  0
  141.1434   72.0806  222.6150 H   0  0  0  0  0  0  0  0  0  0  0  0
  139.4166   72.5757  222.6150 H   0  0  0  0  0  0  0  0  0  0  0  0
  1  2  1  0
  2  3  1  0
  3  4  1  0
  4  5  1  0
  5  6  1  0
  6  7  2  0
  6  8  1  0
  8  9  2  0
  9 10  1  0
 10 11  2  0
 11 12  1  0
 12 13  2  0
 13 14  1  0
 14 15  1  0
 14 16  1  0
 16 17  2  0
 16  5  1  0
 13  8  1  0
  1 18  1  0
  1 19  1  0
  1 20  1  0
  2 21  1  0
  2 22  1  0
  3 23  1  0
  3 24  1  0
  4 25  1  0
  4 26  1  0
  9 27  1  0
 10 28  1  0
 11 29  1  0
 12 30  1  0
 15 31  1  0
 15 32  1  0
 15 33  1  0
M  END
>  <UniqueID>  (7) 
21

>  <SMILES>  (7) 
CCCCn1c(=O)c2ccccc2n(C)c1=O

>  <Energy>  (7) 
42.823721821542954

>  <Genealogy>  (7) 
CCCCn1c(=O)c2ccccc2n(C)c1=O (3D coordinates assigned)
CCCCn1c(=O)c2ccccc2n(C)c1=O (optimized conformer: 42.823721821542954 kcal/mol)

>  <smiles>  (7) 
CCCCn1c(=O)c2ccccc2n(C)c1=O

>  <score_type>  (7) 
oracle

>  <origin>  (7) 
autodockgpu

>  <m_score__min__energy>  (7) 
-5.5099999999999998

>  <m_primary>  (7) 
energy

>  <meeko>  (7) 
{"free_energy": -5.09, "intermolecular_energy": -5.98, "internal_energy": -0.36, "cluster_size": 1, "cluster_id": 2, "rank_in_cluster": 1}

>  <energy>  (7) 
-5.48

>  <cluster_rmsd>  (7) 
0.15

>  <rmsd>  (7) 
272.37

>  <cluster>  (7) 
1

$$$$
NEHRXLOKMXCHPW-UHFFFAOYNA-N
     RDKit          3D

 33 34  0  0  0  0  0  0  0  0999 V2000
  136.2710   70.0030  224.5740 C   0  0  0  0  0  0  0  0  0  0  0  0
  136.9420   70.7670  223.4320 C   0  0  0  0  0  0  0  0  0  0  0  0
  137.5730   69.8360  222.3850 C   0  0  0  0  0  0  0  0  0  0  0  0
  139.1030   69.7080  222.5000 C   0  0  0  0  0  0  0  0  0  0  0  0
  139.5540   69.7800  223.9090 N   0  0  0  0  0  0  0  0  0  0  0  0
  140.0940   70.9380  224.4030 C   0  0  0  0  0  0  0  0  0  0  0  0
  140.2260   71.9470  223.6540 O   0  0  0  0  0  0  0  0  0  0  0  0
  140.5020   71.0140  225.7400 C   0  0  0  0  0  0  0  0  0  0  0  0
  141.0540   72.1980  226.2670 C   0  0  0  0  0  0  0  0  0  0  0  0
  141.4540   72.2600  227.6000 C   0  0  0  0  0  0  0  0  0  0  0  0
  141.3090   71.1460  228.4230 C   0  0  0  0  0  0  0  0  0  0  0  0
  140.7640   69.9650  227.9180 C   0  0  0  0  0  0  0  0  0  0  0  0
  140.3500   69.8750  226.5650 C   0  0  0  0  0  0  0  0  0  0  0  0
  139.8100   68.7210  226.0410 N   0  0  0  0  0  0  0  0  0  0  0  0
  139.6470   67.5220  226.8910 C   0  0  0  0  0  0  0  0  0  0  0  0
  139.4200   68.6810  224.7220 C   0  0  0  0  0  0  0  0  0  0  0  0
  138.9310   67.6170  224.2440 O   0  0  0  0  0  0  0  0  0  0  0  0
  136.6212   70.4018  225.5375 H   0  0  0  0  0  0  0  0  0  0  0  0
  135.1797   70.1215  224.5030 H   0  0  0  0  0  0  0  0  0  0  0  0
  136.5294   68.9361  224.5030 H   0  0  0  0  0  0  0  0  0  0  0  0
  136.1860   71.3933  222.9358 H   0  0  0  0  0  0  0  0  0  0  0  0
  137.7503   71.3727  223.8677 H   0  0  0  0  0  0  0  0  0  0  0  0
  137.1326   68.8349  222.5025 H   0  0  0  0  0  0  0  0  0  0  0  0
  137.3644   70.2783  221.3997 H   0  0  0  0  0  0  0  0  0  0  0  0
  139.4129   68.7417  222.0754 H   0  0  0  0  0  0  0  0  0  0  0  0
  139.5595   70.5444  221.9505 H   0  0  0  0  0  0  0  0  0  0  0  0
  141.1701   73.0806  225.6209 H   0  0  0  0  0  0  0  0  0  0  0  0
  141.8843   73.1889  228.0025 H   0  0  0  0  0  0  0  0  0  0  0  0
  141.6254   71.1973  229.4753 H   0  0  0  0  0  0  0  0  0  0  0  0
  140.6541   69.0922  228.5784 H   0  0  0  0  0  0  0  0  0  0  0  0
  139.6869   67.8154  227.9504 H   0  0  0  0  0  0  0  0  0  0  0  0
  138.6765   67.0503  226.6775 H   0  0  0  0  0  0  0  0  0  0  0  0
  140.4564   66.8084  226.6775 H   0  0  0  0  0  0  0  0  0  0  0  0
  1  2  1  0
  2  3  1  0
  3  4  1  0
  4  5  1  0
  5  6  1  0
  6  7  2  0
  6  8  1  0
  8  9  2  0
  9 10  1  0
 10 11  2  0
 11 12  1  0
 12 13  2  0
 13 14  1  0
 14 15  1  0
 14 16  1  0
 16 17  2  0
 16  5  1  0
 13  8  1  0
  1 18  1  0
  1 19  1  0
  1 20  1  0
  2 21  1  0
  2 22  1  0
  3 23  1  0
  3 24  1  0
  4 25  1  0
  4 26  1  0
  9 27  1  0
 10 28  1  0
 11 29  1  0
 12 30  1  0
 15 31  1  0
 15 32  1  0
 15 33  1  0
M  END
>  <UniqueID>  (8) 
21

>  <SMILES>  (8) 
CCCCn1c(=O)c2ccccc2n(C)c1=O

>  <Energy>  (8) 
42.823721821542954

>  <Genealogy>  (8) 
CCCCn1c(=O)c2ccccc2n(C)c1=O (3D coordinates assigned)
CCCCn1c(=O)c2ccccc2n(C)c1=O (optimized conformer: 42.823721821542954 kcal/mol)

>  <smiles>  (8) 
CCCCn1c(=O)c2ccccc2n(C)c1=O

>  <score_type>  (8) 
oracle

>  <origin>  (8) 
autodockgpu

>  <m_score__min__energy>  (8) 
-5.5099999999999998

>  <m_primary>  (8) 
energy

>  <meeko>  (8) 
{"free_energy": -5.48, "intermolecular_energy": -6.38, "internal_energy": -0.56, "cluster_size": 19, "cluster_id": 1, "rank_in_cluster": 7}

>  <energy>  (8) 
-5.48

>  <cluster_rmsd>  (8) 
0.14

>  <rmsd>  (8) 
272.36

>  <cluster>  (8) 
1

$$$$
NEHRXLOKMXCHPW-UHFFFAOYNA-N
     RDKit          3D

 33 34  0  0  0  0  0  0  0  0999 V2000
  136.3450   70.2280  224.3660 C   0  0  0  0  0  0  0  0  0  0  0  0
  137.0900   70.8120  223.1650 C   0  0  0  0  0  0  0  0  0  0  0  0
  137.6710   69.7280  222.2430 C   0  0  0  0  0  0  0  0  0  0  0  0
  139.1870   69.5140  222.4040 C   0  0  0  0  0  0  0  0  0  0  0  0
  139.6060   69.6070  223.8220 N   0  0  0  0  0  0  0  0  0  0  0  0
  140.1460   70.7680  224.3080 C   0  0  0  0  0  0  0  0  0  0  0  0
  140.3060   71.7620  223.5440 O   0  0  0  0  0  0  0  0  0  0  0  0
  140.5230   70.8640  225.6530 C   0  0  0  0  0  0  0  0  0  0  0  0
  141.0750   72.0520  226.1710 C   0  0  0  0  0  0  0  0  0  0  0  0
  141.4440   72.1340  227.5120 C   0  0  0  0  0  0  0  0  0  0  0  0
  141.2680   71.0360  228.3510 C   0  0  0  0  0  0  0  0  0  0  0  0
  140.7230   69.8520  227.8540 C   0  0  0  0  0  0  0  0  0  0  0  0
  140.3390   69.7420  226.4940 C   0  0  0  0  0  0  0  0  0  0  0  0
  139.8000   68.5840  225.9780 N   0  0  0  0  0  0  0  0  0  0  0  0
  139.6050   67.4020  226.8440 C   0  0  0  0  0  0  0  0  0  0  0  0
  139.4410   68.5240  224.6500 C   0  0  0  0  0  0  0  0  0  0  0  0
  138.9520   67.4570  224.1800 O   0  0  0  0  0  0  0  0  0  0  0  0
  136.8074   70.5905  225.2959 H   0  0  0  0  0  0  0  0  0  0  0  0
  135.2918   70.5436  224.3330 H   0  0  0  0  0  0  0  0  0  0  0  0
  136.4000   69.1299  224.3330 H   0  0  0  0  0  0  0  0  0  0  0  0
  136.3903   71.4305  222.5836 H   0  0  0  0  0  0  0  0  0  0  0  0
  137.9317   71.4048  223.5523 H   0  0  0  0  0  0  0  0  0  0  0  0
  137.1625   68.7778  222.4634 H   0  0  0  0  0  0  0  0  0  0  0  0
  137.5061   70.0678  221.2099 H   0  0  0  0  0  0  0  0  0  0  0  0
  139.4491   68.5173  222.0195 H   0  0  0  0  0  0  0  0  0  0  0  0
  139.7064   70.3031  221.8405 H   0  0  0  0  0  0  0  0  0  0  0  0
  141.2157   72.9214  225.5119 H   0  0  0  0  0  0  0  0  0  0  0  0
  141.8742   73.0656  227.9082 H   0  0  0  0  0  0  0  0  0  0  0  0
  141.5599   71.1029  229.4095 H   0  0  0  0  0  0  0  0  0  0  0  0
  140.5894   68.9920  228.5267 H   0  0  0  0  0  0  0  0  0  0  0  0
  139.6555   67.7083  227.8993 H   0  0  0  0  0  0  0  0  0  0  0  0
  138.6210   66.9553  226.6386 H   0  0  0  0  0  0  0  0  0  0  0  0
  140.3933   66.6629  226.6386 H   0  0  0  0  0  0  0  0  0  0  0  0
  1  2  1  0
  2  3  1  0
  3  4  1  0
  4  5  1  0
  5  6  1  0
  6  7  2  0
  6  8  1  0
  8  9  2  0
  9 10  1  0
 10 11  2  0
 11 12  1  0
 12 13  2  0
 13 14  1  0
 14 15  1  0
 14 16  1  0
 16 17  2  0
 16  5  1  0
 13  8  1  0
  1 18  1  0
  1 19  1  0
  1 20  1  0
  2 21  1  0
  2 22  1  0
  3 23  1  0
  3 24  1  0
  4 25  1  0
  4 26  1  0
  9 27  1  0
 10 28  1  0
 11 29  1  0
 12 30  1  0
 15 31  1  0
 15 32  1  0
 15 33  1  0
M  END
>  <UniqueID>  (9) 
21

>  <SMILES>  (9) 
CCCCn1c(=O)c2ccccc2n(C)c1=O

>  <Energy>  (9) 
42.823721821542954

>  <Genealogy>  (9) 
CCCCn1c(=O)c2ccccc2n(C)c1=O (3D coordinates assigned)
CCCCn1c(=O)c2ccccc2n(C)c1=O (optimized conformer: 42.823721821542954 kcal/mol)

>  <smiles>  (9) 
CCCCn1c(=O)c2ccccc2n(C)c1=O

>  <score_type>  (9) 
oracle

>  <origin>  (9) 
autodockgpu

>  <m_score__min__energy>  (9) 
-5.5099999999999998

>  <m_primary>  (9) 
energy

>  <meeko>  (9) 
{"free_energy": -5.45, "intermolecular_energy": -6.35, "internal_energy": -0.57, "cluster_size": 19, "cluster_id": 1, "rank_in_cluster": 12}

>  <energy>  (9) 
-5.47

>  <cluster_rmsd>  (9) 
0.16

>  <rmsd>  (9) 
272.4

>  <cluster>  (9) 
1

$$$$
NEHRXLOKMXCHPW-UHFFFAOYNA-N
     RDKit          3D

 33 34  0  0  0  0  0  0  0  0999 V2000
  137.3030   72.0850  222.4380 C   0  0  0  0  0  0  0  0  0  0  0  0
  136.7020   70.7600  222.9070 C   0  0  0  0  0  0  0  0  0  0  0  0
  137.5160   69.5410  222.4420 C   0  0  0  0  0  0  0  0  0  0  0  0
  139.0410   69.7440  222.5080 C   0  0  0  0  0  0  0  0  0  0  0  0
  139.5270   69.8000  223.9060 N   0  0  0  0  0  0  0  0  0  0  0  0
  140.0510   70.9620  224.4080 C   0  0  0  0  0  0  0  0  0  0  0  0
  140.1410   71.9880  223.6750 O   0  0  0  0  0  0  0  0  0  0  0  0
  140.4920   71.0230  225.7350 C   0  0  0  0  0  0  0  0  0  0  0  0
  141.0300   72.2100  226.2700 C   0  0  0  0  0  0  0  0  0  0  0  0
  141.4620   72.2570  227.5940 C   0  0  0  0  0  0  0  0  0  0  0  0
  141.3640   71.1250  228.3990 C   0  0  0  0  0  0  0  0  0  0  0  0
  140.8340   69.9400  227.8850 C   0  0  0  0  0  0  0  0  0  0  0  0
  140.3870   69.8660  226.5420 C   0  0  0  0  0  0  0  0  0  0  0  0
  139.8620   68.7090  226.0100 N   0  0  0  0  0  0  0  0  0  0  0  0
  139.7490   67.4910  226.8400 C   0  0  0  0  0  0  0  0  0  0  0  0
  139.4390   68.6840  224.7000 C   0  0  0  0  0  0  0  0  0  0  0  0
  138.9620   67.6180  224.2150 O   0  0  0  0  0  0  0  0  0  0  0  0
  137.5786   72.6926  223.3126 H   0  0  0  0  0  0  0  0  0  0  0  0
  138.1994   71.8869  221.8320 H   0  0  0  0  0  0  0  0  0  0  0  0
  136.5635   72.6289  221.8320 H   0  0  0  0  0  0  0  0  0  0  0  0
  136.6652   70.7599  224.0064 H   0  0  0  0  0  0  0  0  0  0  0  0
  135.6977   70.6764  222.4661 H   0  0  0  0  0  0  0  0  0  0  0  0
  137.2530   68.6852  223.0811 H   0  0  0  0  0  0  0  0  0  0  0  0
  137.2627   69.3737  221.3847 H   0  0  0  0  0  0  0  0  0  0  0  0
  139.5345   68.9070  221.9924 H   0  0  0  0  0  0  0  0  0  0  0  0
  139.2803   70.7021  222.0235 H   0  0  0  0  0  0  0  0  0  0  0  0
  141.1097   73.1066  225.6378 H   0  0  0  0  0  0  0  0  0  0  0  0
  141.8805   73.1884  228.0032 H   0  0  0  0  0  0  0  0  0  0  0  0
  141.7055   71.1646  229.4439 H   0  0  0  0  0  0  0  0  0  0  0  0
  140.7624   69.0523  228.5307 H   0  0  0  0  0  0  0  0  0  0  0  0
  139.7748   67.7687  227.9041 H   0  0  0  0  0  0  0  0  0  0  0  0
  138.7998   66.9819  226.6168 H   0  0  0  0  0  0  0  0  0  0  0  0
  140.5884   66.8160  226.6168 H   0  0  0  0  0  0  0  0  0  0  0  0
  1  2  1  0
  2  3  1  0
  3  4  1  0
  4  5  1  0
  5  6  1  0
  6  7  2  0
  6  8  1  0
  8  9  2  0
  9 10  1  0
 10 11  2  0
 11 12  1  0
 12 13  2  0
 13 14  1  0
 14 15  1  0
 14 16  1  0
 16 17  2  0
 16  5  1  0
 13  8  1  0
  1 18  1  0
  1 19  1  0
  1 20  1  0
  2 21  1  0
  2 22  1  0
  3 23  1  0
  3 24  1  0
  4 25  1  0
  4 26  1  0
  9 27  1  0
 10 28  1  0
 11 29  1  0
 12 30  1  0
 15 31  1  0
 15 32  1  0
 15 33  1  0
M  END
>  <UniqueID>  (10) 
21

>  <SMILES>  (10) 
CCCCn1c(=O)c2ccccc2n(C)c1=O

>  <Energy>  (10) 
42.823721821542954

>  <Genealogy>  (10) 
CCCCn1c(=O)c2ccccc2n(C)c1=O (3D coordinates assigned)
CCCCn1c(=O)c2ccccc2n(C)c1=O (optimized conformer: 42.823721821542954 kcal/mol)

>  <smiles>  (10) 
CCCCn1c(=O)c2ccccc2n(C)c1=O

>  <score_type>  (10) 
oracle

>  <origin>  (10) 
autodockgpu

>  <m_score__min__energy>  (10) 
-5.5099999999999998

>  <m_primary>  (10) 
energy

>  <meeko>  (10) 
{"free_energy": -5.36, "intermolecular_energy": -6.25, "internal_energy": -0.47, "cluster_size": 19, "cluster_id": 1, "rank_in_cluster": 17}

>  <energy>  (10) 
-5.47

>  <cluster_rmsd>  (10) 
0.21

>  <rmsd>  (10) 
272.3

>  <cluster>  (10) 
1

$$$$
NEHRXLOKMXCHPW-UHFFFAOYNA-N
     RDKit          3D

 33 34  0  0  0  0  0  0  0  0999 V2000
  136.0380   69.4320  224.3200 C   0  0  0  0  0  0  0  0  0  0  0  0
  136.4920   69.3360  222.8640 C   0  0  0  0  0  0  0  0  0  0  0  0
  137.5310   70.4080  222.4940 C   0  0  0  0  0  0  0  0  0  0  0  0
  138.9900   69.9230  222.5780 C   0  0  0  0  0  0  0  0  0  0  0  0
  139.4920   69.9350  223.9710 N   0  0  0  0  0  0  0  0  0  0  0  0
  140.0470   71.0730  224.4950 C   0  0  0  0  0  0  0  0  0  0  0  0
  140.1490   72.1140  223.7860 O   0  0  0  0  0  0  0  0  0  0  0  0
  140.5040   71.0920  225.8180 C   0  0  0  0  0  0  0  0  0  0  0  0
  141.0720   72.2550  226.3750 C   0  0  0  0  0  0  0  0  0  0  0  0
  141.5210   72.2610  227.6940 C   0  0  0  0  0  0  0  0  0  0  0  0
  141.4090   71.1110  228.4730 C   0  0  0  0  0  0  0  0  0  0  0  0
  140.8490   69.9510  227.9370 C   0  0  0  0  0  0  0  0  0  0  0  0
  140.3850   69.9180  226.5970 C   0  0  0  0  0  0  0  0  0  0  0  0
  139.8290   68.7860  226.0440 N   0  0  0  0  0  0  0  0  0  0  0  0
  139.7000   67.5500  226.8460 C   0  0  0  0  0  0  0  0  0  0  0  0
  139.3910   68.8010  224.7390 C   0  0  0  0  0  0  0  0  0  0  0  0
  138.8870   67.7580  224.2340 O   0  0  0  0  0  0  0  0  0  0  0  0
  136.8958   69.2506  224.9843 H   0  0  0  0  0  0  0  0  0  0  0  0
  135.6315   70.4360  224.5119 H   0  0  0  0  0  0  0  0  0  0  0  0
  135.2599   68.6785  224.5119 H   0  0  0  0  0  0  0  0  0  0  0  0
  136.9364   68.3434  222.6987 H   0  0  0  0  0  0  0  0  0  0  0  0
  135.6082   69.4970  222.2292 H   0  0  0  0  0  0  0  0  0  0  0  0
  137.3352   70.7379  221.4631 H   0  0  0  0  0  0  0  0  0  0  0  0
  137.4237   71.2210  223.2272 H   0  0  0  0  0  0  0  0  0  0  0  0
  139.0474   68.8963  222.1873 H   0  0  0  0  0  0  0  0  0  0  0  0
  139.6133   70.6067  221.9831 H   0  0  0  0  0  0  0  0  0  0  0  0
  141.1617   73.1652  225.7638 H   0  0  0  0  0  0  0  0  0  0  0  0
  141.9638   73.1733  228.1203 H   0  0  0  0  0  0  0  0  0  0  0  0
  141.7634   71.1178  229.5143 H   0  0  0  0  0  0  0  0  0  0  0  0
  140.7662   69.0497  228.5621 H   0  0  0  0  0  0  0  0  0  0  0  0
  139.7264   67.8029  227.9162 H   0  0  0  0  0  0  0  0  0  0  0  0
  138.7455   67.0572  226.6091 H   0  0  0  0  0  0  0  0  0  0  0  0
  140.5321   66.8707  226.6091 H   0  0  0  0  0  0  0  0  0  0  0  0
  1  2  1  0
  2  3  1  0
  3  4  1  0
  4  5  1  0
  5  6  1  0
  6  7  2  0
  6  8  1  0
  8  9  2  0
  9 10  1  0
 10 11  2  0
 11 12  1  0
 12 13  2  0
 13 14  1  0
 14 15  1  0
 14 16  1  0
 16 17  2  0
 16  5  1  0
 13  8  1  0
  1 18  1  0
  1 19  1  0
  1 20  1  0
  2 21  1  0
  2 22  1  0
  3 23  1  0
  3 24  1  0
  4 25  1  0
  4 26  1  0
  9 27  1  0
 10 28  1  0
 11 29  1  0
 12 30  1  0
 15 31  1  0
 15 32  1  0
 15 33  1  0
M  END
>  <UniqueID>  (11) 
21

>  <SMILES>  (11) 
CCCCn1c(=O)c2ccccc2n(C)c1=O

>  <Energy>  (11) 
42.823721821542954

>  <Genealogy>  (11) 
CCCCn1c(=O)c2ccccc2n(C)c1=O (3D coordinates assigned)
CCCCn1c(=O)c2ccccc2n(C)c1=O (optimized conformer: 42.823721821542954 kcal/mol)

>  <smiles>  (11) 
CCCCn1c(=O)c2ccccc2n(C)c1=O

>  <score_type>  (11) 
oracle

>  <origin>  (11) 
autodockgpu

>  <m_score__min__energy>  (11) 
-5.5099999999999998

>  <m_primary>  (11) 
energy

>  <meeko>  (11) 
{"free_energy": -5.41, "intermolecular_energy": -6.3, "internal_energy": -0.5, "cluster_size": 19, "cluster_id": 1, "rank_in_cluster": 15}

>  <energy>  (11) 
-5.45

>  <cluster_rmsd>  (11) 
0.25

>  <rmsd>  (11) 
272.35

>  <cluster>  (11) 
1

$$$$
NEHRXLOKMXCHPW-UHFFFAOYNA-N
     RDKit          3D

 33 34  0  0  0  0  0  0  0  0999 V2000
  136.3590   69.2090  223.1290 C   0  0  0  0  0  0  0  0  0  0  0  0
  136.6770   70.6970  222.9820 C   0  0  0  0  0  0  0  0  0  0  0  0
  137.9990   70.9510  222.2400 C   0  0  0  0  0  0  0  0  0  0  0  0
  139.0810   69.8880  222.5050 C   0  0  0  0  0  0  0  0  0  0  0  0
  139.5400   69.9130  223.9130 N   0  0  0  0  0  0  0  0  0  0  0  0
  140.0930   71.0500  224.4390 C   0  0  0  0  0  0  0  0  0  0  0  0
  140.2310   72.0810  223.7200 O   0  0  0  0  0  0  0  0  0  0  0  0
  140.5090   71.0810  225.7750 C   0  0  0  0  0  0  0  0  0  0  0  0
  141.0750   72.2440  226.3350 C   0  0  0  0  0  0  0  0  0  0  0  0
  141.4820   72.2610  227.6680 C   0  0  0  0  0  0  0  0  0  0  0  0
  141.3310   71.1240  228.4570 C   0  0  0  0  0  0  0  0  0  0  0  0
  140.7730   69.9640  227.9180 C   0  0  0  0  0  0  0  0  0  0  0  0
  140.3510   69.9190  226.5660 C   0  0  0  0  0  0  0  0  0  0  0  0
  139.7970   68.7860  226.0100 N   0  0  0  0  0  0  0  0  0  0  0  0
  139.6280   67.5640  226.8230 C   0  0  0  0  0  0  0  0  0  0  0  0
  139.4000   68.7910  224.6920 C   0  0  0  0  0  0  0  0  0  0  0  0
  138.8980   67.7470  224.1840 O   0  0  0  0  0  0  0  0  0  0  0  0
  136.3036   68.9496  224.1965 H   0  0  0  0  0  0  0  0  0  0  0  0
  135.3940   68.9910  222.6481 H   0  0  0  0  0  0  0  0  0  0  0  0
  137.1506   68.6156  222.6481 H   0  0  0  0  0  0  0  0  0  0  0  0
  135.8612   71.1775  222.4219 H   0  0  0  0  0  0  0  0  0  0  0  0
  136.7782   71.1165  223.9938 H   0  0  0  0  0  0  0  0  0  0  0  0
  137.7910   70.9709  221.1600 H   0  0  0  0  0  0  0  0  0  0  0  0
  138.3945   71.9071  222.6133 H   0  0  0  0  0  0  0  0  0  0  0  0
  138.6660   68.8938  222.2829 H   0  0  0  0  0  0  0  0  0  0  0  0
  139.9437   70.1082  221.8590 H   0  0  0  0  0  0  0  0  0  0  0  0
  141.1964   73.1449  225.7156 H   0  0  0  0  0  0  0  0  0  0  0  0
  141.9227   73.1731  228.0967 H   0  0  0  0  0  0  0  0  0  0  0  0
  141.6526   71.1400  229.5088 H   0  0  0  0  0  0  0  0  0  0  0  0
  140.6591   69.0720  228.5516 H   0  0  0  0  0  0  0  0  0  0  0  0
  139.6642   67.8260  227.8907 H   0  0  0  0  0  0  0  0  0  0  0  0
  138.6573   67.1011  226.5918 H   0  0  0  0  0  0  0  0  0  0  0  0
  140.4367   66.8550  226.5918 H   0  0  0  0  0  0  0  0  0  0  0  0
  1  2  1  0
  2  3  1  0
  3  4  1  0
  4  5  1  0
  5  6  1  0
  6  7  2  0
  6  8  1  0
  8  9  2  0
  9 10  1  0
 10 11  2  0
 11 12  1  0
 12 13  2  0
 13 14  1  0
 14 15  1  0
 14 16  1  0
 16 17  2  0
 16  5  1  0
 13  8  1  0
  1 18  1  0
  1 19  1  0
  1 20  1  0
  2 21  1  0
  2 22  1  0
  3 23  1  0
  3 24  1  0
  4 25  1  0
  4 26  1  0
  9 27  1  0
 10 28  1  0
 11 29  1  0
 12 30  1  0
 15 31  1  0
 15 32  1  0
 15 33  1  0
M  END
>  <UniqueID>  (12) 
21

>  <SMILES>  (12) 
CCCCn1c(=O)c2ccccc2n(C)c1=O

>  <Energy>  (12) 
42.823721821542954

>  <Genealogy>  (12) 
CCCCn1c(=O)c2ccccc2n(C)c1=O (3D coordinates assigned)
CCCCn1c(=O)c2ccccc2n(C)c1=O (optimized conformer: 42.823721821542954 kcal/mol)

>  <smiles>  (12) 
CCCCn1c(=O)c2ccccc2n(C)c1=O

>  <score_type>  (12) 
oracle

>  <origin>  (12) 
autodockgpu

>  <m_score__min__energy>  (12) 
-5.5099999999999998

>  <m_primary>  (12) 
energy

>  <meeko>  (12) 
{"free_energy": -5.38, "intermolecular_energy": -6.27, "internal_energy": -0.46, "cluster_size": 19, "cluster_id": 1, "rank_in_cluster": 16}

>  <energy>  (12) 
-5.45

>  <cluster_rmsd>  (12) 
0.27

>  <rmsd>  (12) 
272.28

>  <cluster>  (12) 
1

$$$$
NEHRXLOKMXCHPW-UHFFFAOYNA-N
     RDKit          3D

 33 34  0  0  0  0  0  0  0  0999 V2000
  136.2930   69.6850  224.6020 C   0  0  0  0  0  0  0  0  0  0  0  0
  136.9440   70.5730  223.5420 C   0  0  0  0  0  0  0  0  0  0  0  0
  137.5980   69.7640  222.4100 C   0  0  0  0  0  0  0  0  0  0  0  0
  139.1330   69.6880  222.4990 C   0  0  0  0  0  0  0  0  0  0  0  0
  139.6040   69.7560  223.9020 N   0  0  0  0  0  0  0  0  0  0  0  0
  140.1080   70.9270  224.4040 C   0  0  0  0  0  0  0  0  0  0  0  0
  140.1890   71.9510  223.6680 O   0  0  0  0  0  0  0  0  0  0  0  0
  140.5350   70.9990  225.7360 C   0  0  0  0  0  0  0  0  0  0  0  0
  141.0500   72.1970  226.2720 C   0  0  0  0  0  0  0  0  0  0  0  0
  141.4680   72.2550  227.5990 C   0  0  0  0  0  0  0  0  0  0  0  0
  141.3790   71.1240  228.4070 C   0  0  0  0  0  0  0  0  0  0  0  0
  140.8720   69.9300  227.8930 C   0  0  0  0  0  0  0  0  0  0  0  0
  140.4390   69.8440  226.5460 C   0  0  0  0  0  0  0  0  0  0  0  0
  139.9350   68.6780  226.0140 N   0  0  0  0  0  0  0  0  0  0  0  0
  139.8320   67.4610  226.8480 C   0  0  0  0  0  0  0  0  0  0  0  0
  139.5250   68.6420  224.7000 C   0  0  0  0  0  0  0  0  0  0  0  0
  139.0690   67.5670  224.2140 O   0  0  0  0  0  0  0  0  0  0  0  0
  136.5621   70.0520  225.6034 H   0  0  0  0  0  0  0  0  0  0  0  0
  135.1998   69.7129  224.4827 H   0  0  0  0  0  0  0  0  0  0  0  0
  136.6485   68.6509  224.4827 H   0  0  0  0  0  0  0  0  0  0  0  0
  136.1725   71.2257  223.1076 H   0  0  0  0  0  0  0  0  0  0  0  0
  137.7369   71.1534  224.0364 H   0  0  0  0  0  0  0  0  0  0  0  0
  137.1988   68.7395  222.4421 H   0  0  0  0  0  0  0  0  0  0  0  0
  137.3596   70.2830  221.4699 H   0  0  0  0  0  0  0  0  0  0  0  0
  139.4694   68.7392  222.0555 H   0  0  0  0  0  0  0  0  0  0  0  0
  139.5513   70.5475  221.9546 H   0  0  0  0  0  0  0  0  0  0  0  0
  141.1221   73.0925  225.6373 H   0  0  0  0  0  0  0  0  0  0  0  0
  141.8684   73.1939  228.0091 H   0  0  0  0  0  0  0  0  0  0  0  0
  141.7099   71.1723  229.4549 H   0  0  0  0  0  0  0  0  0  0  0  0
  140.8075   69.0439  228.5416 H   0  0  0  0  0  0  0  0  0  0  0  0
  139.8558   67.7420  227.9112 H   0  0  0  0  0  0  0  0  0  0  0  0
  138.8869   66.9436  226.6265 H   0  0  0  0  0  0  0  0  0  0  0  0
  140.6768   66.7922  226.6265 H   0  0  0  0  0  0  0  0  0  0  0  0
  1  2  1  0
  2  3  1  0
  3  4  1  0
  4  5  1  0
  5  6  1  0
  6  7  2  0
  6  8  1  0
  8  9  2  0
  9 10  1  0
 10 11  2  0
 11 12  1  0
 12 13  2  0
 13 14  1  0
 14 15  1  0
 14 16  1  0
 16 17  2  0
 16  5  1  0
 13  8  1  0
  1 18  1  0
  1 19  1  0
  1 20  1  0
  2 21  1  0
  2 22  1  0
  3 23  1  0
  3 24  1  0
  4 25  1  0
  4 26  1  0
  9 27  1  0
 10 28  1  0
 11 29  1  0
 12 30  1  0
 15 31  1  0
 15 32  1  0
 15 33  1  0
M  END
>  <UniqueID>  (13) 
21

>  <SMILES>  (13) 
CCCCn1c(=O)c2ccccc2n(C)c1=O

>  <Energy>  (13) 
42.823721821542954

>  <Genealogy>  (13) 
CCCCn1c(=O)c2ccccc2n(C)c1=O (3D coordinates assigned)
CCCCn1c(=O)c2ccccc2n(C)c1=O (optimized conformer: 42.823721821542954 kcal/mol)

>  <smiles>  (13) 
CCCCn1c(=O)c2ccccc2n(C)c1=O

>  <score_type>  (13) 
oracle

>  <origin>  (13) 
autodockgpu

>  <m_score__min__energy>  (13) 
-5.5099999999999998

>  <m_primary>  (13) 
energy

>  <meeko>  (13) 
{"free_energy": -5.5, "intermolecular_energy": -6.39, "internal_energy": -0.56, "cluster_size": 19, "cluster_id": 1, "rank_in_cluster": 2}

>  <energy>  (13) 
-5.44

>  <cluster_rmsd>  (13) 
0.29

>  <rmsd>  (13) 
272.26

>  <cluster>  (13) 
1

$$$$
NEHRXLOKMXCHPW-UHFFFAOYNA-N
     RDKit          3D

 33 34  0  0  0  0  0  0  0  0999 V2000
  136.3150   69.8970  224.5930 C   0  0  0  0  0  0  0  0  0  0  0  0
  136.9540   70.6740  223.4420 C   0  0  0  0  0  0  0  0  0  0  0  0
  137.6020   69.7560  222.3930 C   0  0  0  0  0  0  0  0  0  0  0  0
  139.1360   69.6730  222.4940 C   0  0  0  0  0  0  0  0  0  0  0  0
  139.5980   69.7480  223.9000 N   0  0  0  0  0  0  0  0  0  0  0  0
  140.0960   70.9220  224.4010 C   0  0  0  0  0  0  0  0  0  0  0  0
  140.1820   71.9430  223.6610 O   0  0  0  0  0  0  0  0  0  0  0  0
  140.5140   71.0000  225.7350 C   0  0  0  0  0  0  0  0  0  0  0  0
  141.0240   72.2000  226.2690 C   0  0  0  0  0  0  0  0  0  0  0  0
  141.4330   72.2640  227.5990 C   0  0  0  0  0  0  0  0  0  0  0  0
  141.3400   71.1370  228.4120 C   0  0  0  0  0  0  0  0  0  0  0  0
  140.8370   69.9410  227.8990 C   0  0  0  0  0  0  0  0  0  0  0  0
  140.4130   69.8480  226.5490 C   0  0  0  0  0  0  0  0  0  0  0  0
  139.9140   68.6790  226.0180 N   0  0  0  0  0  0  0  0  0  0  0  0
  139.8060   67.4660  226.8570 C   0  0  0  0  0  0  0  0  0  0  0  0
  139.5140   68.6370  224.7020 C   0  0  0  0  0  0  0  0  0  0  0  0
  139.0620   67.5600  224.2180 O   0  0  0  0  0  0  0  0  0  0  0  0
  136.6577   70.3137  225.5516 H   0  0  0  0  0  0  0  0  0  0  0  0
  135.2200   69.9796  224.5278 H   0  0  0  0  0  0  0  0  0  0  0  0
  136.6074   68.8386  224.5278 H   0  0  0  0  0  0  0  0  0  0  0  0
  136.1763   71.2765  222.9498 H   0  0  0  0  0  0  0  0  0  0  0  0
  137.7487   71.3042  223.8678 H   0  0  0  0  0  0  0  0  0  0  0  0
  137.1919   68.7432  222.5195 H   0  0  0  0  0  0  0  0  0  0  0  0
  137.3713   70.1870  221.4076 H   0  0  0  0  0  0  0  0  0  0  0  0
  139.4707   68.7196  222.0592 H   0  0  0  0  0  0  0  0  0  0  0  0
  139.5622   70.5271  221.9472 H   0  0  0  0  0  0  0  0  0  0  0  0
  141.0997   73.0928  225.6309 H   0  0  0  0  0  0  0  0  0  0  0  0
  141.8297   73.2052  228.0074 H   0  0  0  0  0  0  0  0  0  0  0  0
  141.6641   71.1900  229.4618 H   0  0  0  0  0  0  0  0  0  0  0  0
  140.7684   69.0577  228.5510 H   0  0  0  0  0  0  0  0  0  0  0  0
  139.8314   67.7513  227.9190 H   0  0  0  0  0  0  0  0  0  0  0  0
  138.8585   66.9519  226.6380 H   0  0  0  0  0  0  0  0  0  0  0  0
  140.6477   66.7926  226.6380 H   0  0  0  0  0  0  0  0  0  0  0  0
  1  2  1  0
  2  3  1  0
  3  4  1  0
  4  5  1  0
  5  6  1  0
  6  7  2  0
  6  8  1  0
  8  9  2  0
  9 10  1  0
 10 11  2  0
 11 12  1  0
 12 13  2  0
 13 14  1  0
 14 15  1  0
 14 16  1  0
 16 17  2  0
 16  5  1  0
 13  8  1  0
  1 18  1  0
  1 19  1  0
  1 20  1  0
  2 21  1  0
  2 22  1  0
  3 23  1  0
  3 24  1  0
  4 25  1  0
  4 26  1  0
  9 27  1  0
 10 28  1  0
 11 29  1  0
 12 30  1  0
 15 31  1  0
 15 32  1  0
 15 33  1  0
M  END
>  <UniqueID>  (14) 
21

>  <SMILES>  (14) 
CCCCn1c(=O)c2ccccc2n(C)c1=O

>  <Energy>  (14) 
42.823721821542954

>  <Genealogy>  (14) 
CCCCn1c(=O)c2ccccc2n(C)c1=O (3D coordinates assigned)
CCCCn1c(=O)c2ccccc2n(C)c1=O (optimized conformer: 42.823721821542954 kcal/mol)

>  <smiles>  (14) 
CCCCn1c(=O)c2ccccc2n(C)c1=O

>  <score_type>  (14) 
oracle

>  <origin>  (14) 
autodockgpu

>  <m_score__min__energy>  (14) 
-5.5099999999999998

>  <m_primary>  (14) 
energy

>  <meeko>  (14) 
{"free_energy": -5.48, "intermolecular_energy": -6.38, "internal_energy": -0.57, "cluster_size": 19, "cluster_id": 1, "rank_in_cluster": 6}

>  <energy>  (14) 
-5.43

>  <cluster_rmsd>  (14) 
0.34

>  <rmsd>  (14) 
272.25

>  <cluster>  (14) 
1

$$$$
NEHRXLOKMXCHPW-UHFFFAOYNA-N
     RDKit          3D

 33 34  0  0  0  0  0  0  0  0999 V2000
  136.2300   69.6740  224.5860 C   0  0  0  0  0  0  0  0  0  0  0  0
  136.8340   70.5300  223.4710 C   0  0  0  0  0  0  0  0  0  0  0  0
  137.5580   69.6920  222.4060 C   0  0  0  0  0  0  0  0  0  0  0  0
  139.0940   69.7580  222.4930 C   0  0  0  0  0  0  0  0  0  0  0  0
  139.5610   69.8170  223.8970 N   0  0  0  0  0  0  0  0  0  0  0  0
  140.0900   70.9760  224.4010 C   0  0  0  0  0  0  0  0  0  0  0  0
  140.1980   71.9970  223.6650 O   0  0  0  0  0  0  0  0  0  0  0  0
  140.5130   71.0390  225.7340 C   0  0  0  0  0  0  0  0  0  0  0  0
  141.0540   72.2240  226.2710 C   0  0  0  0  0  0  0  0  0  0  0  0
  141.4690   72.2730  227.6000 C   0  0  0  0  0  0  0  0  0  0  0  0
  141.3500   71.1450  228.4090 C   0  0  0  0  0  0  0  0  0  0  0  0
  140.8160   69.9630  227.8930 C   0  0  0  0  0  0  0  0  0  0  0  0
  140.3870   69.8860  226.5440 C   0  0  0  0  0  0  0  0  0  0  0  0
  139.8580   68.7320  226.0110 N   0  0  0  0  0  0  0  0  0  0  0  0
  139.7220   67.5190  226.8450 C   0  0  0  0  0  0  0  0  0  0  0  0
  139.4520   68.7050  224.6960 C   0  0  0  0  0  0  0  0  0  0  0  0
  138.9730   67.6410  224.2080 O   0  0  0  0  0  0  0  0  0  0  0  0
  136.5210   70.0864  225.5634 H   0  0  0  0  0  0  0  0  0  0  0  0
  135.1335   69.6779  224.4981 H   0  0  0  0  0  0  0  0  0  0  0  0
  136.6012   68.6423  224.4981 H   0  0  0  0  0  0  0  0  0  0  0  0
  136.0256   71.0953  222.9842 H   0  0  0  0  0  0  0  0  0  0  0  0
  137.5778   71.1975  223.9306 H   0  0  0  0  0  0  0  0  0  0  0  0
  137.2499   68.6426  222.5236 H   0  0  0  0  0  0  0  0  0  0  0  0
  137.2769   70.1096  221.4279 H   0  0  0  0  0  0  0  0  0  0  0  0
  139.5170   68.8627  222.0139 H   0  0  0  0  0  0  0  0  0  0  0  0
  139.4274   70.6733  221.9820 H   0  0  0  0  0  0  0  0  0  0  0  0
  141.1494   73.1172  225.6361 H   0  0  0  0  0  0  0  0  0  0  0  0
  141.8906   73.2023  228.0106 H   0  0  0  0  0  0  0  0  0  0  0  0
  141.6781   71.1860  229.4581 H   0  0  0  0  0  0  0  0  0  0  0  0
  140.7268   69.0793  228.5419 H   0  0  0  0  0  0  0  0  0  0  0  0
  139.7535   67.7996  227.9082 H   0  0  0  0  0  0  0  0  0  0  0  0
  138.7631   67.0275  226.6237 H   0  0  0  0  0  0  0  0  0  0  0  0
  140.5482   66.8273  226.6237 H   0  0  0  0  0  0  0  0  0  0  0  0
  1  2  1  0
  2  3  1  0
  3  4  1  0
  4  5  1  0
  5  6  1  0
  6  7  2  0
  6  8  1  0
  8  9  2  0
  9 10  1  0
 10 11  2  0
 11 12  1  0
 12 13  2  0
 13 14  1  0
 14 15  1  0
 14 16  1  0
 16 17  2  0
 16  5  1  0
 13  8  1  0
  1 18  1  0
  1 19  1  0
  1 20  1  0
  2 21  1  0
  2 22  1  0
  3 23  1  0
  3 24  1  0
  4 25  1  0
  4 26  1  0
  9 27  1  0
 10 28  1  0
 11 29  1  0
 12 30  1  0
 15 31  1  0
 15 32  1  0
 15 33  1  0
M  END
>  <UniqueID>  (15) 
21

>  <SMILES>  (15) 
CCCCn1c(=O)c2ccccc2n(C)c1=O

>  <Energy>  (15) 
42.823721821542954

>  <Genealogy>  (15) 
CCCCn1c(=O)c2ccccc2n(C)c1=O (3D coordinates assigned)
CCCCn1c(=O)c2ccccc2n(C)c1=O (optimized conformer: 42.823721821542954 kcal/mol)

>  <smiles>  (15) 
CCCCn1c(=O)c2ccccc2n(C)c1=O

>  <score_type>  (15) 
oracle

>  <origin>  (15) 
autodockgpu

>  <m_score__min__energy>  (15) 
-5.5099999999999998

>  <m_primary>  (15) 
energy

>  <meeko>  (15) 
{"free_energy": -5.5, "intermolecular_energy": -6.39, "internal_energy": -0.55, "cluster_size": 19, "cluster_id": 1, "rank_in_cluster": 3}

>  <energy>  (15) 
-5.41

>  <cluster_rmsd>  (15) 
0.41

>  <rmsd>  (15) 
272.35

>  <cluster>  (15) 
1

$$$$
NEHRXLOKMXCHPW-UHFFFAOYNA-N
     RDKit          3D

 33 34  0  0  0  0  0  0  0  0999 V2000
  136.1730   69.6510  224.5940 C   0  0  0  0  0  0  0  0  0  0  0  0
  136.8060   70.4240  223.4370 C   0  0  0  0  0  0  0  0  0  0  0  0
  137.5670   69.5140  222.4600 C   0  0  0  0  0  0  0  0  0  0  0  0
  139.0970   69.6700  222.5190 C   0  0  0  0  0  0  0  0  0  0  0  0
  139.5880   69.7430  223.9150 N   0  0  0  0  0  0  0  0  0  0  0  0
  140.0750   70.9210  224.4150 C   0  0  0  0  0  0  0  0  0  0  0  0
  140.1250   71.9500  223.6820 O   0  0  0  0  0  0  0  0  0  0  0  0
  140.5190   70.9970  225.7400 C   0  0  0  0  0  0  0  0  0  0  0  0
  141.0180   72.2020  226.2730 C   0  0  0  0  0  0  0  0  0  0  0  0
  141.4550   72.2630  227.5950 C   0  0  0  0  0  0  0  0  0  0  0  0
  141.4000   71.1280  228.4000 C   0  0  0  0  0  0  0  0  0  0  0  0
  140.9090   69.9260  227.8880 C   0  0  0  0  0  0  0  0  0  0  0  0
  140.4580   69.8370  226.5460 C   0  0  0  0  0  0  0  0  0  0  0  0
  139.9700   68.6620  226.0170 N   0  0  0  0  0  0  0  0  0  0  0  0
  139.9030   67.4410  226.8470 C   0  0  0  0  0  0  0  0  0  0  0  0
  139.5420   68.6230  224.7090 C   0  0  0  0  0  0  0  0  0  0  0  0
  139.1000   67.5420  224.2250 O   0  0  0  0  0  0  0  0  0  0  0  0
  136.5185   70.0729  225.5493 H   0  0  0  0  0  0  0  0  0  0  0  0
  135.0776   69.7310  224.5326 H   0  0  0  0  0  0  0  0  0  0  0  0
  136.4674   68.5929  224.5326 H   0  0  0  0  0  0  0  0  0  0  0  0
  136.0099   70.9449  222.8849 H   0  0  0  0  0  0  0  0  0  0  0  0
  137.5321   71.1294  223.8673 H   0  0  0  0  0  0  0  0  0  0  0  0
  137.3169   68.4689  222.6951 H   0  0  0  0  0  0  0  0  0  0  0  0
  137.2569   69.8070  221.4461 H   0  0  0  0  0  0  0  0  0  0  0  0
  139.5626   68.8060  222.0223 H   0  0  0  0  0  0  0  0  0  0  0  0
  139.3653   70.6086  222.0121 H   0  0  0  0  0  0  0  0  0  0  0  0
  141.0630   73.1012  225.6411 H   0  0  0  0  0  0  0  0  0  0  0  0
  141.8435   73.2079  228.0027 H   0  0  0  0  0  0  0  0  0  0  0  0
  141.7448   71.1790  229.4433 H   0  0  0  0  0  0  0  0  0  0  0  0
  140.8713   69.0361  228.5335 H   0  0  0  0  0  0  0  0  0  0  0  0
  139.9183   67.7196  227.9110 H   0  0  0  0  0  0  0  0  0  0  0  0
  138.9736   66.8965  226.6239 H   0  0  0  0  0  0  0  0  0  0  0  0
  140.7672   66.7981  226.6239 H   0  0  0  0  0  0  0  0  0  0  0  0
  1  2  1  0
  2  3  1  0
  3  4  1  0
  4  5  1  0
  5  6  1  0
  6  7  2  0
  6  8  1  0
  8  9  2  0
  9 10  1  0
 10 11  2  0
 11 12  1  0
 12 13  2  0
 13 14  1  0
 14 15  1  0
 14 16  1  0
 16 17  2  0
 16  5  1  0
 13  8  1  0
  1 18  1  0
  1 19  1  0
  1 20  1  0
  2 21  1  0
  2 22  1  0
  3 23  1  0
  3 24  1  0
  4 25  1  0
  4 26  1  0
  9 27  1  0
 10 28  1  0
 11 29  1  0
 12 30  1  0
 15 31  1  0
 15 32  1  0
 15 33  1  0
M  END
>  <UniqueID>  (16) 
21

>  <SMILES>  (16) 
CCCCn1c(=O)c2ccccc2n(C)c1=O

>  <Energy>  (16) 
42.823721821542954

>  <Genealogy>  (16) 
CCCCn1c(=O)c2ccccc2n(C)c1=O (3D coordinates assigned)
CCCCn1c(=O)c2ccccc2n(C)c1=O (optimized conformer: 42.823721821542954 kcal/mol)

>  <smiles>  (16) 
CCCCn1c(=O)c2ccccc2n(C)c1=O

>  <score_type>  (16) 
oracle

>  <origin>  (16) 
autodockgpu

>  <m_score__min__energy>  (16) 
-5.5099999999999998

>  <m_primary>  (16) 
energy

>  <meeko>  (16) 
{"free_energy": -5.49, "intermolecular_energy": -6.39, "internal_energy": -0.56, "cluster_size": 19, "cluster_id": 1, "rank_in_cluster": 4}

>  <energy>  (16) 
-5.38

>  <cluster_rmsd>  (16) 
0.51

>  <rmsd>  (16) 
272.31

>  <cluster>  (16) 
1

$$$$
NEHRXLOKMXCHPW-UHFFFAOYNA-N
     RDKit          3D

 33 34  0  0  0  0  0  0  0  0999 V2000
  136.3750   69.9840  224.5110 C   0  0  0  0  0  0  0  0  0  0  0  0
  136.7940   70.4080  223.1030 C   0  0  0  0  0  0  0  0  0  0  0  0
  137.6540   69.3490  222.3950 C   0  0  0  0  0  0  0  0  0  0  0  0
  139.1690   69.6080  222.4890 C   0  0  0  0  0  0  0  0  0  0  0  0
  139.6270   69.6810  223.8950 N   0  0  0  0  0  0  0  0  0  0  0  0
  140.1230   70.8550  224.3990 C   0  0  0  0  0  0  0  0  0  0  0  0
  140.2090   71.8770  223.6610 O   0  0  0  0  0  0  0  0  0  0  0  0
  140.5370   70.9310  225.7340 C   0  0  0  0  0  0  0  0  0  0  0  0
  141.0450   72.1310  226.2710 C   0  0  0  0  0  0  0  0  0  0  0  0
  141.4510   72.1940  227.6030 C   0  0  0  0  0  0  0  0  0  0  0  0
  141.3570   71.0650  228.4130 C   0  0  0  0  0  0  0  0  0  0  0  0
  140.8570   69.8690  227.8980 C   0  0  0  0  0  0  0  0  0  0  0  0
  140.4370   69.7780  226.5460 C   0  0  0  0  0  0  0  0  0  0  0  0
  139.9400   68.6090  226.0130 N   0  0  0  0  0  0  0  0  0  0  0  0
  139.8310   67.3950  226.8490 C   0  0  0  0  0  0  0  0  0  0  0  0
  139.5430   68.5690  224.6960 C   0  0  0  0  0  0  0  0  0  0  0  0
  139.0930   67.4920  224.2080 O   0  0  0  0  0  0  0  0  0  0  0  0
  136.9458   70.5616  225.2530 H   0  0  0  0  0  0  0  0  0  0  0  0
  135.3000   70.1740  224.6465 H   0  0  0  0  0  0  0  0  0  0  0  0
  136.5777   68.9114  224.6465 H   0  0  0  0  0  0  0  0  0  0  0  0
  135.8881   70.5832  222.5042 H   0  0  0  0  0  0  0  0  0  0  0  0
  137.4019   71.3198  223.1981 H   0  0  0  0  0  0  0  0  0  0  0  0
  137.4415   68.3702  222.8498 H   0  0  0  0  0  0  0  0  0  0  0  0
  137.3902   69.3862  221.3277 H   0  0  0  0  0  0  0  0  0  0  0  0
  139.7024   68.7900  221.9826 H   0  0  0  0  0  0  0  0  0  0  0  0
  139.3815   70.5747  222.0090 H   0  0  0  0  0  0  0  0  0  0  0  0
  141.1217   73.0246  225.6342 H   0  0  0  0  0  0  0  0  0  0  0  0
  141.8454   73.1349  228.0141 H   0  0  0  0  0  0  0  0  0  0  0  0
  141.6785   71.1167  229.4637 H   0  0  0  0  0  0  0  0  0  0  0  0
  140.7874   68.9848  228.5487 H   0  0  0  0  0  0  0  0  0  0  0  0
  139.8564   67.6781  227.9116 H   0  0  0  0  0  0  0  0  0  0  0  0
  138.8832   66.8820  226.6288 H   0  0  0  0  0  0  0  0  0  0  0  0
  140.6723   66.7214  226.6288 H   0  0  0  0  0  0  0  0  0  0  0  0
  1  2  1  0
  2  3  1  0
  3  4  1  0
  4  5  1  0
  5  6  1  0
  6  7  2  0
  6  8  1  0
  8  9  2  0
  9 10  1  0
 10 11  2  0
 11 12  1  0
 12 13  2  0
 13 14  1  0
 14 15  1  0
 14 16  1  0
 16 17  2  0
 16  5  1  0
 13  8  1  0
  1 18  1  0
  1 19  1  0
  1 20  1  0
  2 21  1  0
  2 22  1  0
  3 23  1  0
  3 24  1  0
  4 25  1  0
  4 26  1  0
  9 27  1  0
 10 28  1  0
 11 29  1  0
 12 30  1  0
 15 31  1  0
 15 32  1  0
 15 33  1  0
M  END
>  <UniqueID>  (17) 
21

>  <SMILES>  (17) 
CCCCn1c(=O)c2ccccc2n(C)c1=O

>  <Energy>  (17) 
42.823721821542954

>  <Genealogy>  (17) 
CCCCn1c(=O)c2ccccc2n(C)c1=O (3D coordinates assigned)
CCCCn1c(=O)c2ccccc2n(C)c1=O (optimized conformer: 42.823721821542954 kcal/mol)

>  <smiles>  (17) 
CCCCn1c(=O)c2ccccc2n(C)c1=O

>  <score_type>  (17) 
oracle

>  <origin>  (17) 
autodockgpu

>  <m_score__min__energy>  (17) 
-5.5099999999999998

>  <m_primary>  (17) 
energy

>  <meeko>  (17) 
{"free_energy": -5.45, "intermolecular_energy": -6.35, "internal_energy": -0.55, "cluster_size": 19, "cluster_id": 1, "rank_in_cluster": 11}

>  <energy>  (17) 
-5.36

>  <cluster_rmsd>  (17) 
0.51

>  <rmsd>  (17) 
272.29

>  <cluster>  (17) 
1

$$$$
NEHRXLOKMXCHPW-UHFFFAOYNA-N
     RDKit          3D

 33 34  0  0  0  0  0  0  0  0999 V2000
  136.2920   70.0070  224.5490 C   0  0  0  0  0  0  0  0  0  0  0  0
  136.9550   70.7650  223.3990 C   0  0  0  0  0  0  0  0  0  0  0  0
  137.5920   69.8290  222.3590 C   0  0  0  0  0  0  0  0  0  0  0  0
  139.1240   69.7200  222.4690 C   0  0  0  0  0  0  0  0  0  0  0  0
  139.5790   69.7860  223.8770 N   0  0  0  0  0  0  0  0  0  0  0  0
  140.1180   70.9420  224.3750 C   0  0  0  0  0  0  0  0  0  0  0  0
  140.2470   71.9550  223.6300 O   0  0  0  0  0  0  0  0  0  0  0  0
  140.5300   71.0120  225.7110 C   0  0  0  0  0  0  0  0  0  0  0  0
  141.0810   72.1950  226.2430 C   0  0  0  0  0  0  0  0  0  0  0  0
  141.4840   72.2510  227.5750 C   0  0  0  0  0  0  0  0  0  0  0  0
  141.3430   71.1330  228.3930 C   0  0  0  0  0  0  0  0  0  0  0  0
  140.7990   69.9530  227.8830 C   0  0  0  0  0  0  0  0  0  0  0  0
  140.3810   69.8700  226.5310 C   0  0  0  0  0  0  0  0  0  0  0  0
  139.8420   68.7170  226.0030 N   0  0  0  0  0  0  0  0  0  0  0  0
  139.6830   67.5140  226.8470 C   0  0  0  0  0  0  0  0  0  0  0  0
  139.4480   68.6830  224.6850 C   0  0  0  0  0  0  0  0  0  0  0  0
  138.9600   67.6210  224.2030 O   0  0  0  0  0  0  0  0  0  0  0  0
  136.6466   70.4125  225.5081 H   0  0  0  0  0  0  0  0  0  0  0  0
  135.2001   70.1228  224.4832 H   0  0  0  0  0  0  0  0  0  0  0  0
  136.5522   68.9402  224.4832 H   0  0  0  0  0  0  0  0  0  0  0  0
  136.1933   71.3807  222.8982 H   0  0  0  0  0  0  0  0  0  0  0  0
  137.7593   71.3808  223.8277 H   0  0  0  0  0  0  0  0  0  0  0  0
  137.1636   68.8243  222.4896 H   0  0  0  0  0  0  0  0  0  0  0  0
  137.3738   70.2574  221.3696 H   0  0  0  0  0  0  0  0  0  0  0  0
  139.4451   68.7614  222.0353 H   0  0  0  0  0  0  0  0  0  0  0  0
  139.5676   70.5673  221.9256 H   0  0  0  0  0  0  0  0  0  0  0  0
  141.1937   73.0812  225.6011 H   0  0  0  0  0  0  0  0  0  0  0  0
  141.9138   73.1786  227.9809 H   0  0  0  0  0  0  0  0  0  0  0  0
  141.6615   71.1799  229.4449 H   0  0  0  0  0  0  0  0  0  0  0  0
  140.6933   69.0762  228.5387 H   0  0  0  0  0  0  0  0  0  0  0  0
  139.7211   67.8026  227.9078 H   0  0  0  0  0  0  0  0  0  0  0  0
  138.7144   67.0397  226.6307 H   0  0  0  0  0  0  0  0  0  0  0  0
  140.4952   66.8044  226.6307 H   0  0  0  0  0  0  0  0  0  0  0  0
  1  2  1  0
  2  3  1  0
  3  4  1  0
  4  5  1  0
  5  6  1  0
  6  7  2  0
  6  8  1  0
  8  9  2  0
  9 10  1  0
 10 11  2  0
 11 12  1  0
 12 13  2  0
 13 14  1  0
 14 15  1  0
 14 16  1  0
 16 17  2  0
 16  5  1  0
 13  8  1  0
  1 18  1  0
  1 19  1  0
  1 20  1  0
  2 21  1  0
  2 22  1  0
  3 23  1  0
  3 24  1  0
  4 25  1  0
  4 26  1  0
  9 27  1  0
 10 28  1  0
 11 29  1  0
 12 30  1  0
 15 31  1  0
 15 32  1  0
 15 33  1  0
M  END
>  <UniqueID>  (18) 
21

>  <SMILES>  (18) 
CCCCn1c(=O)c2ccccc2n(C)c1=O

>  <Energy>  (18) 
42.823721821542954

>  <Genealogy>  (18) 
CCCCn1c(=O)c2ccccc2n(C)c1=O (3D coordinates assigned)
CCCCn1c(=O)c2ccccc2n(C)c1=O (optimized conformer: 42.823721821542954 kcal/mol)

>  <smiles>  (18) 
CCCCn1c(=O)c2ccccc2n(C)c1=O

>  <score_type>  (18) 
oracle

>  <origin>  (18) 
autodockgpu

>  <m_score__min__energy>  (18) 
-5.5099999999999998

>  <m_primary>  (18) 
energy

>  <meeko>  (18) 
{"free_energy": -5.48, "intermolecular_energy": -6.37, "internal_energy": -0.56, "cluster_size": 19, "cluster_id": 1, "rank_in_cluster": 8}

>  <energy>  (18) 
-5.35

>  <cluster_rmsd>  (18) 
0.44

>  <rmsd>  (18) 
272.32

>  <cluster>  (18) 
1

$$$$
NEHRXLOKMXCHPW-UHFFFAOYNA-N
     RDKit          3D

 33 34  0  0  0  0  0  0  0  0999 V2000
  136.3450   70.3780  224.2570 C   0  0  0  0  0  0  0  0  0  0  0  0
  136.9390   70.6970  222.8840 C   0  0  0  0  0  0  0  0  0  0  0  0
  137.6530   69.4920  222.2520 C   0  0  0  0  0  0  0  0  0  0  0  0
  139.1860   69.5230  222.4010 C   0  0  0  0  0  0  0  0  0  0  0  0
  139.5960   69.6210  223.8200 N   0  0  0  0  0  0  0  0  0  0  0  0
  140.1280   70.7860  224.3060 C   0  0  0  0  0  0  0  0  0  0  0  0
  140.2880   71.7790  223.5410 O   0  0  0  0  0  0  0  0  0  0  0  0
  140.4980   70.8870  225.6520 C   0  0  0  0  0  0  0  0  0  0  0  0
  141.0420   72.0790  226.1710 C   0  0  0  0  0  0  0  0  0  0  0  0
  141.4030   72.1660  227.5140 C   0  0  0  0  0  0  0  0  0  0  0  0
  141.2280   71.0700  228.3550 C   0  0  0  0  0  0  0  0  0  0  0  0
  140.6910   69.8820  227.8580 C   0  0  0  0  0  0  0  0  0  0  0  0
  140.3150   69.7660  226.4950 C   0  0  0  0  0  0  0  0  0  0  0  0
  139.7840   68.6050  225.9800 N   0  0  0  0  0  0  0  0  0  0  0  0
  139.5890   67.4240  226.8480 C   0  0  0  0  0  0  0  0  0  0  0  0
  139.4320   68.5400  224.6510 C   0  0  0  0  0  0  0  0  0  0  0  0
  138.9500   67.4690  224.1800 O   0  0  0  0  0  0  0  0  0  0  0  0
  137.0227   70.7420  225.0433 H   0  0  0  0  0  0  0  0  0  0  0  0
  135.3676   70.8726  224.3576 H   0  0  0  0  0  0  0  0  0  0  0  0
  136.2175   69.2901  224.3576 H   0  0  0  0  0  0  0  0  0  0  0  0
  136.1264   71.0154  222.2144 H   0  0  0  0  0  0  0  0  0  0  0  0
  137.6872   71.4914  223.0222 H   0  0  0  0  0  0  0  0  0  0  0  0
  137.2773   68.5764  222.7322 H   0  0  0  0  0  0  0  0  0  0  0  0
  137.4374   69.5240  221.1738 H   0  0  0  0  0  0  0  0  0  0  0  0
  139.6047   68.6008  221.9718 H   0  0  0  0  0  0  0  0  0  0  0  0
  139.5641   70.4106  221.8726 H   0  0  0  0  0  0  0  0  0  0  0  0
  141.1827   72.9475  225.5107 H   0  0  0  0  0  0  0  0  0  0  0  0
  141.8264   73.1008  227.9101 H   0  0  0  0  0  0  0  0  0  0  0  0
  141.5141   71.1411  229.4148 H   0  0  0  0  0  0  0  0  0  0  0  0
  140.5573   69.0234  228.5324 H   0  0  0  0  0  0  0  0  0  0  0  0
  139.6398   67.7318  227.9028 H   0  0  0  0  0  0  0  0  0  0  0  0
  138.6049   66.9771  226.6435 H   0  0  0  0  0  0  0  0  0  0  0  0
  140.3772   66.6845  226.6435 H   0  0  0  0  0  0  0  0  0  0  0  0
  1  2  1  0
  2  3  1  0
  3  4  1  0
  4  5  1  0
  5  6  1  0
  6  7  2  0
  6  8  1  0
  8  9  2  0
  9 10  1  0
 10 11  2  0
 11 12  1  0
 12 13  2  0
 13 14  1  0
 14 15  1  0
 14 16  1  0
 16 17  2  0
 16  5  1  0
 13  8  1  0
  1 18  1  0
  1 19  1  0
  1 20  1  0
  2 21  1  0
  2 22  1  0
  3 23  1  0
  3 24  1  0
  4 25  1  0
  4 26  1  0
  9 27  1  0
 10 28  1  0
 11 29  1  0
 12 30  1  0
 15 31  1  0
 15 32  1  0
 15 33  1  0
M  END
>  <UniqueID>  (19) 
21

>  <SMILES>  (19) 
CCCCn1c(=O)c2ccccc2n(C)c1=O

>  <Energy>  (19) 
42.823721821542954

>  <Genealogy>  (19) 
CCCCn1c(=O)c2ccccc2n(C)c1=O (3D coordinates assigned)
CCCCn1c(=O)c2ccccc2n(C)c1=O (optimized conformer: 42.823721821542954 kcal/mol)

>  <smiles>  (19) 
CCCCn1c(=O)c2ccccc2n(C)c1=O

>  <score_type>  (19) 
oracle

>  <origin>  (19) 
autodockgpu

>  <m_score__min__energy>  (19) 
-5.5099999999999998

>  <m_primary>  (19) 
energy

>  <meeko>  (19) 
{"free_energy": -5.43, "intermolecular_energy": -6.33, "internal_energy": -0.57, "cluster_size": 19, "cluster_id": 1, "rank_in_cluster": 14}

>  <energy>  (19) 
-5.26

>  <cluster_rmsd>  (19) 
1.92

>  <rmsd>  (19) 
271.53

>  <cluster>  (19) 
1

$$$$
NEHRXLOKMXCHPW-UHFFFAOYNA-N
     RDKit          3D

 33 34  0  0  0  0  0  0  0  0999 V2000
  136.3670   69.6950  224.5980 C   0  0  0  0  0  0  0  0  0  0  0  0
  137.0390   70.6810  223.6430 C   0  0  0  0  0  0  0  0  0  0  0  0
  137.6320   69.9950  222.4010 C   0  0  0  0  0  0  0  0  0  0  0  0
  139.1380   69.6960  222.5090 C   0  0  0  0  0  0  0  0  0  0  0  0
  139.6110   69.7650  223.9110 N   0  0  0  0  0  0  0  0  0  0  0  0
  140.1050   70.9390  224.4170 C   0  0  0  0  0  0  0  0  0  0  0  0
  140.1750   71.9660  223.6840 O   0  0  0  0  0  0  0  0  0  0  0  0
  140.5330   71.0100  225.7470 C   0  0  0  0  0  0  0  0  0  0  0  0
  141.0390   72.2110  226.2860 C   0  0  0  0  0  0  0  0  0  0  0  0
  141.4590   72.2680  227.6130 C   0  0  0  0  0  0  0  0  0  0  0  0
  141.3820   71.1340  228.4180 C   0  0  0  0  0  0  0  0  0  0  0  0
  140.8840   69.9370  227.9010 C   0  0  0  0  0  0  0  0  0  0  0  0
  140.4500   69.8520  226.5540 C   0  0  0  0  0  0  0  0  0  0  0  0
  139.9560   68.6820  226.0190 N   0  0  0  0  0  0  0  0  0  0  0  0
  139.8650   67.4620  226.8490 C   0  0  0  0  0  0  0  0  0  0  0  0
  139.5440   68.6470  224.7060 C   0  0  0  0  0  0  0  0  0  0  0  0
  139.0970   67.5700  224.2170 O   0  0  0  0  0  0  0  0  0  0  0  0
  136.5707   69.9939  225.6368 H   0  0  0  0  0  0  0  0  0  0  0  0
  135.2811   69.6965  224.4223 H   0  0  0  0  0  0  0  0  0  0  0  0
  136.7655   68.6849  224.4223 H   0  0  0  0  0  0  0  0  0  0  0  0
  136.2912   71.4178  223.3145 H   0  0  0  0  0  0  0  0  0  0  0  0
  137.8682   71.1571  224.1869 H   0  0  0  0  0  0  0  0  0  0  0  0
  137.1011   69.0444  222.2445 H   0  0  0  0  0  0  0  0  0  0  0  0
  137.5062   70.6942  221.5612 H   0  0  0  0  0  0  0  0  0  0  0  0
  139.3300   68.6862  222.1173 H   0  0  0  0  0  0  0  0  0  0  0  0
  139.6809   70.4546  221.9262 H   0  0  0  0  0  0  0  0  0  0  0  0
  141.1025   73.1091  225.6541 H   0  0  0  0  0  0  0  0  0  0  0  0
  141.8517   73.2092  228.0253 H   0  0  0  0  0  0  0  0  0  0  0  0
  141.7150   71.1820  229.4653 H   0  0  0  0  0  0  0  0  0  0  0  0
  140.8275   69.0483  228.5468 H   0  0  0  0  0  0  0  0  0  0  0  0
  139.8857   67.7401  227.9131 H   0  0  0  0  0  0  0  0  0  0  0  0
  138.9251   66.9359  226.6257 H   0  0  0  0  0  0  0  0  0  0  0  0
  140.7164   66.8023  226.6257 H   0  0  0  0  0  0  0  0  0  0  0  0
  1  2  1  0
  2  3  1  0
  3  4  1  0
  4  5  1  0
  5  6  1  0
  6  7  2  0
  6  8  1  0
  8  9  2  0
  9 10  1  0
 10 11  2  0
 11 12  1  0
 12 13  2  0
 13 14  1  0
 14 15  1  0
 14 16  1  0
 16 17  2  0
 16  5  1  0
 13  8  1  0
  1 18  1  0
  1 19  1  0
  1 20  1  0
  2 21  1  0
  2 22  1  0
  3 23  1  0
  3 24  1  0
  4 25  1  0
  4 26  1  0
  9 27  1  0
 10 28  1  0
 11 29  1  0
 12 30  1  0
 15 31  1  0
 15 32  1  0
 15 33  1  0
M  END
>  <UniqueID>  (20) 
21

>  <SMILES>  (20) 
CCCCn1c(=O)c2ccccc2n(C)c1=O

>  <Energy>  (20) 
42.823721821542954

>  <Genealogy>  (20) 
CCCCn1c(=O)c2ccccc2n(C)c1=O (3D coordinates assigned)
CCCCn1c(=O)c2ccccc2n(C)c1=O (optimized conformer: 42.823721821542954 kcal/mol)

>  <smiles>  (20) 
CCCCn1c(=O)c2ccccc2n(C)c1=O

>  <score_type>  (20) 
oracle

>  <origin>  (20) 
autodockgpu

>  <m_score__min__energy>  (20) 
-5.5099999999999998

>  <m_primary>  (20) 
energy

>  <meeko>  (20) 
{"free_energy": -5.51, "intermolecular_energy": -6.4, "internal_energy": -0.53, "cluster_size": 19, "cluster_id": 1, "rank_in_cluster": 1}

>  <energy>  (20) 
-5.09

>  <cluster_rmsd>  (20) 
0.0

>  <rmsd>  (20) 
271.4

>  <cluster>  (20) 
2

$$$$
